
     RDKit          3D

 26 28  0  0  0  0  0  0  0  0999 V2000
   40.1160   22.1980   35.7830 C   0  0  0  0  0  0  0  0  0  0  0  0
   40.6450   21.6700   36.8010 O   0  0  0  0  0  0  0  0  0  0  0  0
   39.2580   23.3370   36.1000 C   0  0  0  0  0  0  0  0  0  0  0  0
   38.1190   23.1220   36.8860 C   0  0  0  0  0  0  0  0  0  0  0  0
   37.5000   24.3010   37.0380 N   0  0  0  0  0  0  0  0  0  0  0  0
   38.1930   25.2520   36.3860 C   0  0  0  0  0  0  0  0  0  0  0  0
   38.0410   26.6200   36.1950 C   0  0  0  0  0  0  0  0  0  0  0  0
   38.9720   27.3370   35.4370 C   0  0  0  0  0  0  0  0  0  0  0  0
   40.0590   26.6940   34.8660 C   0  0  0  0  0  0  0  0  0  0  0  0
   40.2540   25.3290   35.0300 C   0  0  0  0  0  0  0  0  0  0  0  0
   39.2970   24.6830   35.7890 C   0  0  0  0  0  0  0  0  0  0  0  0
   41.8670   21.1180   32.7340 C   0  0  0  0  0  0  0  0  0  0  0  0
   41.5930   21.5310   34.0570 C   0  0  0  0  0  0  0  0  0  0  0  0
   40.2860   21.7870   34.4210 C   0  0  0  0  0  0  0  0  0  0  0  0
   39.3080   21.6360   33.5010 N   0  0  0  0  0  0  0  0  0  0  0  0
   39.5720   21.2440   32.2480 C   0  0  0  0  0  0  0  0  0  0  0  0
   40.8460   20.9880   31.8660 N   0  0  0  0  0  0  0  0  0  0  0  0
   37.7913   22.1586   37.3036 H   0  0  0  0  0  0  0  0  0  0  0  0
   36.6314   24.4546   37.5698 H   0  0  0  0  0  0  0  0  0  0  0  0
   37.1828   27.1423   36.6430 H   0  0  0  0  0  0  0  0  0  0  0  0
   38.8407   28.4196   35.2928 H   0  0  0  0  0  0  0  0  0  0  0  0
   40.7800   27.2753   34.2724 H   0  0  0  0  0  0  0  0  0  0  0  0
   41.1101   24.7992   34.5869 H   0  0  0  0  0  0  0  0  0  0  0  0
   42.8990   20.9058   32.4178 H   0  0  0  0  0  0  0  0  0  0  0  0
   42.4086   21.6468   34.7860 H   0  0  0  0  0  0  0  0  0  0  0  0
   38.7504   21.1294   31.5257 H   0  0  0  0  0  0  0  0  0  0  0  0
  1  3  1  0
  1  2  2  0
  3  4  2  0
  4  5  1  0
  6  5  1  0
  7  6  2  0
  8  7  1  0
  9 10  1  0
  9  8  2  0
 10 11  2  0
 11  3  1  0
 11  6  1  0
 12 13  2  0
 13 14  1  0
 14  1  1  0
 15 14  2  0
 16 15  1  0
 17 16  2  0
 17 12  1  0
  4 18  1  0
  5 19  1  0
  7 20  1  0
  8 21  1  0
  9 22  1  0
 10 23  1  0
 12 24  1  0
 13 25  1  0
 16 26  1  0
M  ISO  8  18  14  19   9  20  14  21  14  22  14  23  14  24  14  25  14
M  ISO  1  26  14
M  END
>  <minimizedAffinity>  (1) 
-4.06889248

>  <minimizedRMSD>  (1) 
5.05764914

$$$$
