
     RDKit          3D

 26 27  0  0  1  0  0  0  0  0999 V2000
   42.3980   20.8660   37.2620 C   0  0  0  0  0  0  0  0  0  0  0  0
   41.7080   22.0570   36.9890 C   0  0  0  0  0  0  0  0  0  0  0  0
   41.5220   22.3820   35.6550 C   0  0  0  0  0  0  0  0  0  0  0  0
   41.9980   21.5660   34.6830 N   0  0  0  0  0  0  0  0  0  0  0  0
   42.6570   20.4280   34.9720 C   0  0  0  0  0  0  0  0  0  0  0  0
   42.8550   20.0810   36.2700 N   0  0  0  0  0  0  0  0  0  0  0  0
   40.8150   23.6020   35.3760 C   0  0  0  0  0  0  0  0  0  0  0  0
   41.3470   24.7580   35.3880 O   0  0  0  0  0  0  0  0  0  0  0  0
   39.3620   23.5850   35.0430 C   0  0  2  0  0  0  0  0  0  0  0  0
   38.8000   24.9640   34.9290 C   0  0  0  0  0  0  0  0  0  0  0  0
   37.8250   25.3680   35.9820 C   0  0  0  0  0  0  0  0  0  0  0  0
   38.0670   24.7260   37.3180 C   0  0  0  0  0  0  0  0  0  0  0  0
   38.1070   23.2390   37.2260 C   0  0  0  0  0  0  0  0  0  0  0  0
   38.6270   22.6680   35.9540 C   0  0  0  0  0  0  0  0  0  0  0  0
   42.5684   20.5687   38.3073 H   0  0  0  0  0  0  0  0  0  0  0  0
   41.3323   22.7026   37.7965 H   0  0  0  0  0  0  0  0  0  0  0  0
   43.0322   19.7842   34.1629 H   0  0  0  0  0  0  0  0  0  0  0  0
   39.2241   23.1636   34.0363 H   0  0  0  0  0  0  0  0  0  0  0  0
   39.6408   25.6725   34.9610 H   0  0  0  0  0  0  0  0  0  0  0  0
   38.2343   24.9736   33.9856 H   0  0  0  0  0  0  0  0  0  0  0  0
   37.8835   26.4593   36.1071 H   0  0  0  0  0  0  0  0  0  0  0  0
   36.8337   25.0328   35.6430 H   0  0  0  0  0  0  0  0  0  0  0  0
   39.0291   25.0829   37.7141 H   0  0  0  0  0  0  0  0  0  0  0  0
   37.2350   25.0022   37.9824 H   0  0  0  0  0  0  0  0  0  0  0  0
   37.7702   22.5979   38.0540 H   0  0  0  0  0  0  0  0  0  0  0  0
   38.4737   21.6093   35.6978 H   0  0  0  0  0  0  0  0  0  0  0  0
  2  1  2  0
  3  2  1  0
  4  5  1  0
  4  3  2  0
  5  6  2  0
  6  1  1  0
  7  8  2  0
  7  3  1  0
  9  7  1  0
  9 14  1  0
 10  9  1  0
 10 11  1  0
 11 12  1  0
 13 12  1  0
 14 13  2  0
  1 15  1  0
  2 16  1  0
  5 17  1  0
  9 18  1  6
 10 19  1  0
 10 20  1  0
 11 21  1  0
 11 22  1  0
 12 23  1  0
 12 24  1  0
 13 25  1  0
 14 26  1  0
M  ISO  8  15  14  16  14  17  14  18  13  19  13  20  13  21  13  22  13
M  ISO  4  23  13  24  13  25  13  26  13
M  END
>  <minimizedAffinity>  (1) 
-3.28145194

>  <minimizedRMSD>  (1) 
3.68061852

$$$$
