
     RDKit          3D

 32 34  0  0  0  0  0  0  0  0999 V2000
   35.8660   28.5400   32.8750 N   0  0  0  0  0  0  0  0  0  0  0  0
   36.6330   27.4950   32.6090 N   0  0  0  0  0  0  0  0  0  0  0  0
   37.2630   27.1170   33.7620 C   0  0  0  0  0  0  0  0  0  0  0  0
   36.8350   27.9880   34.7350 C   0  0  0  0  0  0  0  0  0  0  0  0
   35.9490   28.8890   34.1650 C   0  0  0  0  0  0  0  0  0  0  0  0
   34.0640   32.0300   36.1890 C   0  0  0  0  0  0  0  0  0  0  0  0
   33.2570   31.1240   35.5350 C   0  0  0  0  0  0  0  0  0  0  0  0
   33.8860   30.0730   34.8580 C   0  0  0  0  0  0  0  0  0  0  0  0
   35.2640   29.9850   34.8690 C   0  0  0  0  0  0  0  0  0  0  0  0
   36.0740   30.9080   35.5330 C   0  0  0  0  0  0  0  0  0  0  0  0
   35.4390   31.9410   36.1990 C   0  0  0  0  0  0  0  0  0  0  0  0
   33.3260   33.3700   37.0550 S   0  0  0  0  0  0  0  0  0  0  0  0
   32.9420   34.4790   36.0980 O   0  0  0  0  0  0  0  0  0  0  0  0
   34.2860   33.9610   38.0350 O   0  0  0  0  0  0  0  0  0  0  0  0
   38.1950   26.0110   33.8980 C   0  0  0  0  0  0  0  0  0  0  0  0
   37.6550   24.8570   33.9590 O   0  0  0  0  0  0  0  0  0  0  0  0
   41.7230   25.6600   34.9080 C   0  0  0  0  0  0  0  0  0  0  0  0
   40.3270   25.4540   34.8220 C   0  0  0  0  0  0  0  0  0  0  0  0
   39.6100   26.2510   33.9550 C   0  0  0  0  0  0  0  0  0  0  0  0
   40.2430   27.1920   33.2200 N   0  0  0  0  0  0  0  0  0  0  0  0
   41.5850   27.3690   33.3210 C   0  0  0  0  0  0  0  0  0  0  0  0
   42.3050   26.6060   34.1590 N   0  0  0  0  0  0  0  0  0  0  0  0
   35.2802   29.0230   32.1789 H   0  0  0  0  0  0  0  0  0  0  0  0
   37.1441   27.9728   35.7906 H   0  0  0  0  0  0  0  0  0  0  0  0
   32.1615   31.2232   35.5448 H   0  0  0  0  0  0  0  0  0  0  0  0
   33.2871   29.3226   34.3211 H   0  0  0  0  0  0  0  0  0  0  0  0
   37.1703   30.8178   35.5269 H   0  0  0  0  0  0  0  0  0  0  0  0
   36.0334   32.6934   36.7380 H   0  0  0  0  0  0  0  0  0  0  0  0
   32.2220   32.8709   37.6945 H   0  0  0  0  0  0  0  0  0  0  0  0
   42.3300   25.0448   35.5885 H   0  0  0  0  0  0  0  0  0  0  0  0
   39.8288   24.6825   35.4274 H   0  0  0  0  0  0  0  0  0  0  0  0
   42.0839   28.1395   32.7148 H   0  0  0  0  0  0  0  0  0  0  0  0
  1  5  1  0
  2  1  1  0
  2  3  2  0
  3 15  1  0
  3  4  1  0
  5  4  2  0
  5  9  1  0
  6 11  2  0
  6 12  1  0
  7  6  1  0
  8  9  1  0
  8  7  2  0
  9 10  2  0
 10 11  1  0
 12 14  2  0
 13 12  2  0
 15 19  1  0
 15 16  2  0
 18 17  2  0
 19 18  1  0
 20 21  1  0
 20 19  2  0
 21 22  2  0
 22 17  1  0
  1 23  1  0
  4 24  1  0
  7 25  1  0
  8 26  1  0
 10 27  1  0
 11 28  1  0
 12 29  1  0
 17 30  1  0
 18 31  1  0
 21 32  1  0
M  ISO  8  23   9  24  14  25  14  26  14  27  14  28  14  29  11  30  14
M  ISO  2  31  14  32  14
M  END
>  <minimizedAffinity>  (1) 
-4.83605194

>  <minimizedRMSD>  (1) 
4.07695627

$$$$
