
     RDKit          3D

 29 31  0  0  0  0  0  0  0  0999 V2000
   36.6980   27.0300   33.0720 N   0  0  0  0  0  0  0  0  0  0  0  0
   37.3430   25.8990   33.3440 N   0  0  0  0  0  0  0  0  0  0  0  0
   37.7380   25.9450   34.6450 C   0  0  0  0  0  0  0  0  0  0  0  0
   37.3080   27.1590   35.1660 C   0  0  0  0  0  0  0  0  0  0  0  0
   36.6500   27.8270   34.1470 C   0  0  0  0  0  0  0  0  0  0  0  0
   36.0540   29.1430   34.3100 C   0  0  0  0  0  0  0  0  0  0  0  0
   35.1770   29.6830   33.3920 C   0  0  0  0  0  0  0  0  0  0  0  0
   34.5940   30.9270   33.5170 C   0  0  0  0  0  0  0  0  0  0  0  0
   34.9410   31.6370   34.6480 C   0  0  0  0  0  0  0  0  0  0  0  0
   35.8090   31.1780   35.6170 C   0  0  0  0  0  0  0  0  0  0  0  0
   36.3500   29.9230   35.4180 C   0  0  0  0  0  0  0  0  0  0  0  0
   38.4810   24.8950   35.3420 C   0  0  0  0  0  0  0  0  0  0  0  0
   37.7530   24.0630   35.9770 O   0  0  0  0  0  0  0  0  0  0  0  0
   41.9180   23.6170   35.7040 C   0  0  0  0  0  0  0  0  0  0  0  0
   40.5060   23.6990   35.7500 C   0  0  0  0  0  0  0  0  0  0  0  0
   39.9090   24.8540   35.2770 C   0  0  0  0  0  0  0  0  0  0  0  0
   40.6800   25.8520   34.7960 N   0  0  0  0  0  0  0  0  0  0  0  0
   42.0230   25.7630   34.7590 C   0  0  0  0  0  0  0  0  0  0  0  0
   42.6350   24.6430   35.2140 N   0  0  0  0  0  0  0  0  0  0  0  0
   36.2894   27.2621   32.1555 H   0  0  0  0  0  0  0  0  0  0  0  0
   37.4612   27.5210   36.1934 H   0  0  0  0  0  0  0  0  0  0  0  0
   34.9268   29.0837   32.5042 H   0  0  0  0  0  0  0  0  0  0  0  0
   33.8983   31.3266   32.7645 H   0  0  0  0  0  0  0  0  0  0  0  0
   34.4967   32.6338   34.7860 H   0  0  0  0  0  0  0  0  0  0  0  0
   36.0575   31.7808   36.5029 H   0  0  0  0  0  0  0  0  0  0  0  0
   37.0459   29.5247   36.1710 H   0  0  0  0  0  0  0  0  0  0  0  0
   42.4287   22.7138   36.0692 H   0  0  0  0  0  0  0  0  0  0  0  0
   39.9022   22.8707   36.1492 H   0  0  0  0  0  0  0  0  0  0  0  0
   42.6209   26.5961   34.3610 H   0  0  0  0  0  0  0  0  0  0  0  0
  1  2  1  0
  1  5  1  0
  2  3  2  0
  3  4  1  0
  3 12  1  0
  5  6  1  0
  5  4  2  0
  6 11  2  0
  7  8  2  0
  7  6  1  0
  8  9  1  0
  9 10  2  0
 11 10  1  0
 12 13  2  0
 14 15  2  0
 16 12  1  0
 16 15  1  0
 17 16  2  0
 18 17  1  0
 18 19  2  0
 19 14  1  0
  1 20  1  0
  4 21  1  0
  7 22  1  0
  8 23  1  0
  9 24  1  0
 10 25  1  0
 11 26  1  0
 14 27  1  0
 15 28  1  0
 18 29  1  0
M  ISO  8  20   9  21  14  22  14  23  14  24  14  25  14  26  14  27  14
M  ISO  2  28  14  29  14
M  END
>  <minimizedAffinity>  (1) 
-4.27306652

>  <minimizedRMSD>  (1) 
2.41144538

$$$$
