
     RDKit          3D

 28 30  0  0  0  0  0  0  0  0999 V2000
   36.3660   27.6610   32.9900 N   0  0  0  0  0  0  0  0  0  0  0  0
   37.2410   26.6610   33.0850 N   0  0  0  0  0  0  0  0  0  0  0  0
   37.7540   26.6670   34.3450 C   0  0  0  0  0  0  0  0  0  0  0  0
   37.1560   27.7090   35.0080 C   0  0  0  0  0  0  0  0  0  0  0  0
   36.2840   28.3280   34.1490 C   0  0  0  0  0  0  0  0  0  0  0  0
   35.4200   29.4830   34.3960 C   0  0  0  0  0  0  0  0  0  0  0  0
   35.8680   30.5370   35.1700 C   0  0  0  0  0  0  0  0  0  0  0  0
   34.9770   31.5970   35.3530 C   0  0  0  0  0  0  0  0  0  0  0  0
   33.7300   31.5370   34.7680 C   0  0  0  0  0  0  0  0  0  0  0  0
   33.2980   30.4720   33.9950 C   0  0  0  0  0  0  0  0  0  0  0  0
   34.2010   29.4810   33.8540 N   0  0  0  0  0  0  0  0  0  0  0  0
   38.7550   25.7270   34.8660 C   0  0  0  0  0  0  0  0  0  0  0  0
   38.2780   24.7610   35.5340 O   0  0  0  0  0  0  0  0  0  0  0  0
   42.3870   25.1100   34.7740 C   0  0  0  0  0  0  0  0  0  0  0  0
   41.0110   24.9360   35.0120 C   0  0  0  0  0  0  0  0  0  0  0  0
   40.1460   25.9380   34.6080 C   0  0  0  0  0  0  0  0  0  0  0  0
   40.6530   27.0500   33.9950 N   0  0  0  0  0  0  0  0  0  0  0  0
   41.9760   27.1920   33.7790 C   0  0  0  0  0  0  0  0  0  0  0  0
   42.8230   26.2130   34.1740 N   0  0  0  0  0  0  0  0  0  0  0  0
   35.8270   27.8898   32.1426 H   0  0  0  0  0  0  0  0  0  0  0  0
   37.3442   27.9990   36.0523 H   0  0  0  0  0  0  0  0  0  0  0  0
   36.8727   30.5408   35.6179 H   0  0  0  0  0  0  0  0  0  0  0  0
   35.2669   32.4695   35.9569 H   0  0  0  0  0  0  0  0  0  0  0  0
   33.0411   32.3803   34.9235 H   0  0  0  0  0  0  0  0  0  0  0  0
   32.2999   30.4376   33.5339 H   0  0  0  0  0  0  0  0  0  0  0  0
   43.1015   24.3334   35.0844 H   0  0  0  0  0  0  0  0  0  0  0  0
   40.6333   24.0284   35.5056 H   0  0  0  0  0  0  0  0  0  0  0  0
   42.3638   28.0956   33.2860 H   0  0  0  0  0  0  0  0  0  0  0  0
  1  2  1  0
  1  5  1  0
  2  3  2  0
  3 12  1  0
  3  4  1  0
  5  6  1  0
  5  4  2  0
  6  7  2  0
  7  8  1  0
  9  8  2  0
 10  9  1  0
 11 10  2  0
 11  6  1  0
 12 13  2  0
 14 15  2  0
 16 12  1  0
 16 15  1  0
 17 16  2  0
 18 17  1  0
 18 19  2  0
 19 14  1  0
  1 20  1  0
  4 21  1  0
  7 22  1  0
  8 23  1  0
  9 24  1  0
 10 25  1  0
 14 26  1  0
 15 27  1  0
 18 28  1  0
M  ISO  8  20   9  21  14  22  14  23  14  24  14  25  14  26  14  27  14
M  ISO  1  28  14
M  END
>  <minimizedAffinity>  (1) 
-4.17559099

>  <minimizedRMSD>  (1) 
3.36674571

$$$$
