
     RDKit          3D

 40 44  0  0  0  0  0  0  0  0999 V2000
   36.8080   24.5240   31.8580 C   0  0  0  0  0  0  0  0  0  0  0  0
   36.2870   25.8120   31.8840 C   0  0  0  0  0  0  0  0  0  0  0  0
   36.7960   26.6120   32.8770 C   0  0  0  0  0  0  0  0  0  0  0  0
   37.7080   26.1110   33.7010 N   0  0  0  0  0  0  0  0  0  0  0  0
   38.2150   24.9090   33.7030 C   0  0  0  0  0  0  0  0  0  0  0  0
   37.7260   24.1330   32.7430 N   0  0  0  0  0  0  0  0  0  0  0  0
   39.2010   24.2420   34.5320 C   0  0  0  0  0  0  0  0  0  0  0  0
   40.4260   23.8440   34.0410 C   0  0  0  0  0  0  0  0  0  0  0  0
   41.3940   23.2110   34.7850 C   0  0  0  0  0  0  0  0  0  0  0  0
   41.1610   22.9370   36.1120 C   0  0  0  0  0  0  0  0  0  0  0  0
   39.9760   23.3060   36.6460 C   0  0  0  0  0  0  0  0  0  0  0  0
   39.7450   23.0290   37.9860 C   0  0  0  0  0  0  0  0  0  0  0  0
   38.5910   23.3600   38.6030 C   0  0  0  0  0  0  0  0  0  0  0  0
   37.6160   24.0070   37.8260 C   0  0  0  0  0  0  0  0  0  0  0  0
   37.8680   24.2670   36.5120 C   0  0  0  0  0  0  0  0  0  0  0  0
   39.0310   23.9400   35.8680 C   0  0  0  0  0  0  0  0  0  0  0  0
   36.3690   27.9670   33.0460 N   0  0  0  0  0  0  0  0  0  0  0  0
   36.4830   28.9470   32.1300 C   0  0  0  0  0  0  0  0  0  0  0  0
   35.9870   30.0740   32.6160 N   0  0  0  0  0  0  0  0  0  0  0  0
   35.5460   29.8210   33.8640 C   0  0  0  0  0  0  0  0  0  0  0  0
   35.7920   28.5240   34.1050 N   0  0  0  0  0  0  0  0  0  0  0  0
   34.9100   30.5180   34.9760 C   0  0  0  0  0  0  0  0  0  0  0  0
   35.7120   31.3820   35.7280 C   0  0  0  0  0  0  0  0  0  0  0  0
   35.1220   32.0540   36.7920 C   0  0  0  0  0  0  0  0  0  0  0  0
   33.8080   31.8910   37.1120 N   0  0  0  0  0  0  0  0  0  0  0  0
   33.0620   31.0370   36.3510 C   0  0  0  0  0  0  0  0  0  0  0  0
   33.6000   30.3630   35.3040 N   0  0  0  0  0  0  0  0  0  0  0  0
   36.4571   23.8145   31.0941 H   0  0  0  0  0  0  0  0  0  0  0  0
   35.5290   26.1619   31.1678 H   0  0  0  0  0  0  0  0  0  0  0  0
   40.6441   24.0465   32.9820 H   0  0  0  0  0  0  0  0  0  0  0  0
   42.3495   22.9254   34.3209 H   0  0  0  0  0  0  0  0  0  0  0  0
   41.9211   22.4296   36.7242 H   0  0  0  0  0  0  0  0  0  0  0  0
   40.5301   22.5217   38.5659 H   0  0  0  0  0  0  0  0  0  0  0  0
   38.4218   23.1334   39.6660 H   0  0  0  0  0  0  0  0  0  0  0  0
   36.6559   24.3017   38.2748 H   0  0  0  0  0  0  0  0  0  0  0  0
   37.0842   24.7737   35.9298 H   0  0  0  0  0  0  0  0  0  0  0  0
   36.9222   28.8290   31.1284 H   0  0  0  0  0  0  0  0  0  0  0  0
   36.7753   31.5252   35.4854 H   0  0  0  0  0  0  0  0  0  0  0  0
   35.7358   32.7394   37.3950 H   0  0  0  0  0  0  0  0  0  0  0  0
   31.9988   30.8921   36.5930 H   0  0  0  0  0  0  0  0  0  0  0  0
  1  2  2  0
  1  6  1  0
  2  3  1  0
  3 17  1  0
  3  4  2  0
  4  5  1  0
  5  7  1  0
  6  5  2  0
  7 16  1  0
  8  7  2  0
  8  9  1  0
  9 10  2  0
 10 11  1  0
 11 12  2  0
 12 13  1  0
 14 13  2  0
 15 14  1  0
 16 15  2  0
 16 11  1  0
 17 21  1  0
 18 19  2  0
 18 17  1  0
 19 20  1  0
 20 21  2  0
 20 22  1  0
 22 27  1  0
 22 23  2  0
 23 24  1  0
 24 25  2  0
 26 25  1  0
 27 26  2  0
  1 28  1  0
  2 29  1  0
  8 30  1  0
  9 31  1  0
 10 32  1  0
 12 33  1  0
 13 34  1  0
 14 35  1  0
 15 36  1  0
 18 37  1  0
 23 38  1  0
 24 39  1  0
 26 40  1  0
M  ISO  8  28  14  29  14  30  14  31  14  32  14  33  14  34  14  35  14
M  ISO  5  36  14  37  14  38  14  39  14  40  14
M  END
>  <minimizedAffinity>  (1) 
-6.80354786

>  <minimizedRMSD>  (1) 
2.08805895

$$$$
