
     RDKit          3D

 22 23  0  0  0  0  0  0  0  0999 V2000
   38.3400   24.0690   36.4060 C   0  0  0  0  0  0  0  0  0  0  0  0
   37.4360   23.8660   37.2830 O   0  0  0  0  0  0  0  0  0  0  0  0
   41.1900   21.9790   37.4280 C   0  0  0  0  0  0  0  0  0  0  0  0
   39.8970   22.5170   37.3510 C   0  0  0  0  0  0  0  0  0  0  0  0
   39.6690   23.5430   36.4590 C   0  0  0  0  0  0  0  0  0  0  0  0
   40.7040   23.9950   35.6850 N   0  0  0  0  0  0  0  0  0  0  0  0
   41.9380   23.4530   35.7860 C   0  0  0  0  0  0  0  0  0  0  0  0
   42.1540   22.4580   36.6530 N   0  0  0  0  0  0  0  0  0  0  0  0
   37.4430   25.5680   33.2520 N   0  0  0  0  0  0  0  0  0  0  0  0
   37.8610   24.5240   33.9750 N   0  0  0  0  0  0  0  0  0  0  0  0
   37.9260   24.9160   35.2800 C   0  0  0  0  0  0  0  0  0  0  0  0
   37.5320   26.2380   35.3150 C   0  0  0  0  0  0  0  0  0  0  0  0
   37.2320   26.6360   34.0370 C   0  0  0  0  0  0  0  0  0  0  0  0
   36.7630   27.9470   33.5150 C   0  0  0  0  0  0  0  0  0  0  0  0
   41.4045   21.1603   38.1307 H   0  0  0  0  0  0  0  0  0  0  0  0
   39.0861   22.1304   37.9858 H   0  0  0  0  0  0  0  0  0  0  0  0
   42.7600   23.8282   35.1586 H   0  0  0  0  0  0  0  0  0  0  0  0
   37.3021   25.5545   32.2318 H   0  0  0  0  0  0  0  0  0  0  0  0
   37.4691   26.8665   36.2156 H   0  0  0  0  0  0  0  0  0  0  0  0
   36.5247   28.6131   34.3574 H   0  0  0  0  0  0  0  0  0  0  0  0
   37.5543   28.4014   32.9007 H   0  0  0  0  0  0  0  0  0  0  0  0
   35.8630   27.7963   32.9007 H   0  0  0  0  0  0  0  0  0  0  0  0
  1  5  1  0
  1  2  2  0
  4  3  2  0
  5  4  1  0
  6  7  1  0
  6  5  2  0
  7  8  2  0
  8  3  1  0
  9 10  1  0
  9 13  1  0
 10 11  2  0
 11 12  1  0
 11  1  1  0
 13 12  2  0
 14 13  1  0
  3 15  1  0
  4 16  1  0
  7 17  1  0
  9 18  1  0
 12 19  1  0
 14 20  1  0
 14 21  1  0
 14 22  1  0
M  ISO  8  15  14  16  14  17  14  18   9  19  14  20   8  21   8  22   8
M  END
>  <minimizedAffinity>  (1) 
-3.75938582

>  <minimizedRMSD>  (1) 
1.16860259

$$$$
