
     RDKit          3D

 21 22  0  0  0  0  0  0  0  0999 V2000
   38.3500   24.0820   36.3790 C   0  0  0  0  0  0  0  0  0  0  0  0
   37.4500   23.8660   37.2640 O   0  0  0  0  0  0  0  0  0  0  0  0
   41.2030   21.9900   37.4060 C   0  0  0  0  0  0  0  0  0  0  0  0
   39.9010   22.5340   37.3300 C   0  0  0  0  0  0  0  0  0  0  0  0
   39.6740   23.5550   36.4310 C   0  0  0  0  0  0  0  0  0  0  0  0
   40.6960   24.0050   35.6520 N   0  0  0  0  0  0  0  0  0  0  0  0
   41.9340   23.4620   35.7480 C   0  0  0  0  0  0  0  0  0  0  0  0
   42.1630   22.4660   36.6230 N   0  0  0  0  0  0  0  0  0  0  0  0
   37.4280   25.5820   33.2500 N   0  0  0  0  0  0  0  0  0  0  0  0
   37.8520   24.5500   33.9650 N   0  0  0  0  0  0  0  0  0  0  0  0
   37.9270   24.9280   35.2770 C   0  0  0  0  0  0  0  0  0  0  0  0
   37.5280   26.2400   35.3200 C   0  0  0  0  0  0  0  0  0  0  0  0
   37.2160   26.6440   34.0390 C   0  0  0  0  0  0  0  0  0  0  0  0
   36.7450   27.9270   33.5270 C   0  0  0  0  0  0  0  0  0  0  0  0
   35.9520   28.5800   34.2180 O   0  0  0  0  0  0  0  0  0  0  0  0
   41.4201   21.1747   38.1118 H   0  0  0  0  0  0  0  0  0  0  0  0
   39.0912   22.1538   37.9700 H   0  0  0  0  0  0  0  0  0  0  0  0
   42.7501   23.8349   35.1117 H   0  0  0  0  0  0  0  0  0  0  0  0
   37.2819   25.5695   32.2305 H   0  0  0  0  0  0  0  0  0  0  0  0
   37.4672   26.8642   36.2237 H   0  0  0  0  0  0  0  0  0  0  0  0
   37.0860   28.3043   32.5516 H   0  0  0  0  0  0  0  0  0  0  0  0
  1  5  1  0
  1  2  2  0
  4  3  2  0
  5  4  1  0
  6  7  1  0
  6  5  2  0
  7  8  2  0
  8  3  1  0
  9 10  1  0
  9 13  1  0
 10 11  2  0
 11 12  1  0
 11  1  1  0
 13 12  2  0
 14 13  1  0
 14 15  2  0
  3 16  1  0
  4 17  1  0
  7 18  1  0
  9 19  1  0
 12 20  1  0
 14 21  1  0
M  ISO  6  16  14  17  14  18  14  19   9  20  14  21   6
M  END
>  <minimizedAffinity>  (1) 
-3.73638892

>  <minimizedRMSD>  (1) 
1.26885867

$$$$
