
     RDKit          3D

 20 21  0  0  0  0  0  0  0  0999 V2000
   38.5200   24.0670   36.4760 C   0  0  0  0  0  0  0  0  0  0  0  0
   37.7030   24.0170   37.4500 O   0  0  0  0  0  0  0  0  0  0  0  0
   41.2710   21.7840   37.3180 C   0  0  0  0  0  0  0  0  0  0  0  0
   40.0020   22.3950   37.3080 C   0  0  0  0  0  0  0  0  0  0  0  0
   39.8180   23.4730   36.4570 C   0  0  0  0  0  0  0  0  0  0  0  0
   40.8490   23.8940   35.6760 N   0  0  0  0  0  0  0  0  0  0  0  0
   42.0600   23.2760   35.7150 C   0  0  0  0  0  0  0  0  0  0  0  0
   42.2550   22.2310   36.5330 N   0  0  0  0  0  0  0  0  0  0  0  0
   37.4710   25.2520   33.2390 N   0  0  0  0  0  0  0  0  0  0  0  0
   37.9420   24.3120   34.0420 N   0  0  0  0  0  0  0  0  0  0  0  0
   38.0390   24.8060   35.3060 C   0  0  0  0  0  0  0  0  0  0  0  0
   37.6020   26.1090   35.2420 C   0  0  0  0  0  0  0  0  0  0  0  0
   37.2460   26.3770   33.9310 C   0  0  0  0  0  0  0  0  0  0  0  0
   36.6310   28.0050   33.5150 S   0  0  0  0  0  0  0  0  0  0  0  0
   41.4544   20.9263   37.9819 H   0  0  0  0  0  0  0  0  0  0  0  0
   39.1878   22.0302   37.9514 H   0  0  0  0  0  0  0  0  0  0  0  0
   42.8802   23.6335   35.0751 H   0  0  0  0  0  0  0  0  0  0  0  0
   37.3020   25.1360   32.2296 H   0  0  0  0  0  0  0  0  0  0  0  0
   37.5454   26.8141   36.0844 H   0  0  0  0  0  0  0  0  0  0  0  0
   36.3679   28.7014   34.6651 H   0  0  0  0  0  0  0  0  0  0  0  0
  1  2  2  0
  4  3  2  0
  5  1  1  0
  5  4  1  0
  6  7  1  0
  6  5  2  0
  7  8  2  0
  8  3  1  0
  9 13  1  0
  9 10  1  0
 10 11  2  0
 11  1  1  0
 12 11  1  0
 13 12  2  0
 14 13  1  0
  3 15  1  0
  4 16  1  0
  7 17  1  0
  9 18  1  0
 12 19  1  0
 14 20  1  0
M  ISO  6  15  14  16  14  17  14  18   9  19  14  20  11
M  END
>  <minimizedAffinity>  (1) 
-3.59187579

>  <minimizedRMSD>  (1) 
1.3417958

$$$$
