
     RDKit          3D

 43 47  0  0  0  0  0  0  0  0999 V2000
   38.0770   26.4420   35.4900 C   0  0  0  0  0  0  0  0  0  0  0  0
   38.4210   27.2010   36.4410 O   0  0  0  0  0  0  0  0  0  0  0  0
   38.2500   23.0020   36.8120 C   0  0  0  0  0  0  0  0  0  0  0  0
   38.2200   24.4090   36.7630 C   0  0  0  0  0  0  0  0  0  0  0  0
   38.1140   25.0060   35.5230 C   0  0  0  0  0  0  0  0  0  0  0  0
   38.0440   24.2260   34.4300 N   0  0  0  0  0  0  0  0  0  0  0  0
   38.0740   22.8680   34.4900 C   0  0  0  0  0  0  0  0  0  0  0  0
   38.1760   22.3090   35.6880 N   0  0  0  0  0  0  0  0  0  0  0  0
   37.9840   22.2910   33.1550 C   0  0  0  0  0  0  0  0  0  0  0  0
   38.8480   22.6370   32.1390 C   0  0  0  0  0  0  0  0  0  0  0  0
   38.8040   22.1210   30.8640 C   0  0  0  0  0  0  0  0  0  0  0  0
   37.8520   21.1930   30.5290 C   0  0  0  0  0  0  0  0  0  0  0  0
   36.9550   20.8030   31.4990 C   0  0  0  0  0  0  0  0  0  0  0  0
   36.0010   19.8750   31.1570 C   0  0  0  0  0  0  0  0  0  0  0  0
   35.0870   19.4500   32.0690 C   0  0  0  0  0  0  0  0  0  0  0  0
   35.1560   19.9930   33.3580 C   0  0  0  0  0  0  0  0  0  0  0  0
   36.1250   20.9100   33.6380 C   0  0  0  0  0  0  0  0  0  0  0  0
   37.0660   21.3660   32.7490 C   0  0  0  0  0  0  0  0  0  0  0  0
   36.4000   28.3660   32.9380 N   0  0  0  0  0  0  0  0  0  0  0  0
   36.4950   27.9040   34.1770 N   0  0  0  0  0  0  0  0  0  0  0  0
   37.6130   27.1320   34.2860 C   0  0  0  0  0  0  0  0  0  0  0  0
   38.1890   27.1540   33.0340 C   0  0  0  0  0  0  0  0  0  0  0  0
   37.4230   27.9270   32.2060 C   0  0  0  0  0  0  0  0  0  0  0  0
   37.7890   28.1390   30.8080 C   0  0  0  0  0  0  0  0  0  0  0  0
   38.8390   27.4370   30.2600 C   0  0  0  0  0  0  0  0  0  0  0  0
   39.2890   27.5420   28.9540 C   0  0  0  0  0  0  0  0  0  0  0  0
   38.6150   28.4220   28.1710 N   0  0  0  0  0  0  0  0  0  0  0  0
   37.5900   29.1170   28.6760 C   0  0  0  0  0  0  0  0  0  0  0  0
   37.1570   29.0050   29.9640 N   0  0  0  0  0  0  0  0  0  0  0  0
   38.3344   22.4830   37.7782 H   0  0  0  0  0  0  0  0  0  0  0  0
   38.2790   25.0116   37.6814 H   0  0  0  0  0  0  0  0  0  0  0  0
   39.6288   23.3787   32.3630 H   0  0  0  0  0  0  0  0  0  0  0  0
   39.5344   22.4539   30.1118 H   0  0  0  0  0  0  0  0  0  0  0  0
   37.8058   20.7716   29.5140 H   0  0  0  0  0  0  0  0  0  0  0  0
   35.9767   19.4716   30.1339 H   0  0  0  0  0  0  0  0  0  0  0  0
   34.3209   18.7064   31.8041 H   0  0  0  0  0  0  0  0  0  0  0  0
   34.4390   19.6842   34.1330 H   0  0  0  0  0  0  0  0  0  0  0  0
   36.1552   21.3176   34.6593 H   0  0  0  0  0  0  0  0  0  0  0  0
   35.6453   28.9755   32.5918 H   0  0  0  0  0  0  0  0  0  0  0  0
   39.1149   26.6340   32.7473 H   0  0  0  0  0  0  0  0  0  0  0  0
   39.3672   26.7304   30.9171 H   0  0  0  0  0  0  0  0  0  0  0  0
   40.1366   26.9511   28.5766 H   0  0  0  0  0  0  0  0  0  0  0  0
   37.0652   29.8206   28.0130 H   0  0  0  0  0  0  0  0  0  0  0  0
  1  5  1  0
  1  2  2  0
  4  3  2  0
  5  4  1  0
  6  7  1  0
  6  5  2  0
  7  8  2  0
  8  3  1  0
  9  7  1  0
 10  9  2  0
 11 10  1  0
 12 11  2  0
 12 13  1  0
 13 18  2  0
 14 13  1  0
 14 15  2  0
 15 16  1  0
 16 17  2  0
 18  9  1  0
 18 17  1  0
 19 20  1  0
 20 21  2  0
 21  1  1  0
 22 21  1  0
 23 19  1  0
 23 22  2  0
 24 23  1  0
 25 24  2  0
 26 25  1  0
 27 28  1  0
 27 26  2  0
 28 29  2  0
 29 24  1  0
  3 30  1  0
  4 31  1  0
 10 32  1  0
 11 33  1  0
 12 34  1  0
 14 35  1  0
 15 36  1  0
 16 37  1  0
 17 38  1  0
 19 39  1  0
 22 40  1  0
 25 41  1  0
 26 42  1  0
 28 43  1  0
M  ISO  8  30  14  31  14  32  14  33  14  34  14  35  14  36  14  37  14
M  ISO  6  38  14  39   9  40  14  41  14  42  14  43  14
M  END
>  <minimizedAffinity>  (1) 
-6.42975664

>  <minimizedRMSD>  (1) 
6.46906853

$$$$
