
     RDKit          3D

 41 45  0  0  0  0  0  0  0  0999 V2000
   37.9010   23.1050   36.9580 C   0  0  0  0  0  0  0  0  0  0  0  0
   37.9150   24.5020   36.8380 C   0  0  0  0  0  0  0  0  0  0  0  0
   38.1130   25.0260   35.5770 C   0  0  0  0  0  0  0  0  0  0  0  0
   38.2800   24.1910   34.5410 N   0  0  0  0  0  0  0  0  0  0  0  0
   38.2670   22.8460   34.6610 C   0  0  0  0  0  0  0  0  0  0  0  0
   38.0730   22.3370   35.8950 N   0  0  0  0  0  0  0  0  0  0  0  0
   38.4330   21.8190   33.6440 C   0  0  0  0  0  0  0  0  0  0  0  0
   39.6530   21.3730   33.2600 N   0  0  0  0  0  0  0  0  0  0  0  0
   39.8680   20.4370   32.3360 C   0  0  0  0  0  0  0  0  0  0  0  0
   38.8160   19.8450   31.6930 N   0  0  0  0  0  0  0  0  0  0  0  0
   37.5560   20.2160   31.9990 C   0  0  0  0  0  0  0  0  0  0  0  0
   36.5190   19.6170   31.3480 C   0  0  0  0  0  0  0  0  0  0  0  0
   35.2200   19.9730   31.6370 C   0  0  0  0  0  0  0  0  0  0  0  0
   35.0350   20.9600   32.6130 C   0  0  0  0  0  0  0  0  0  0  0  0
   36.1300   21.5220   33.2300 C   0  0  0  0  0  0  0  0  0  0  0  0
   37.4310   21.1840   32.9590 C   0  0  0  0  0  0  0  0  0  0  0  0
   38.1300   26.4510   35.4550 C   0  0  0  0  0  0  0  0  0  0  0  0
   38.5340   27.2530   36.3660 O   0  0  0  0  0  0  0  0  0  0  0  0
   36.4050   28.2990   32.8990 N   0  0  0  0  0  0  0  0  0  0  0  0
   36.5260   27.8380   34.1330 N   0  0  0  0  0  0  0  0  0  0  0  0
   37.6720   27.1080   34.2440 C   0  0  0  0  0  0  0  0  0  0  0  0
   38.2620   27.1400   33.0010 C   0  0  0  0  0  0  0  0  0  0  0  0
   37.4590   27.8910   32.1700 C   0  0  0  0  0  0  0  0  0  0  0  0
   37.8350   28.1040   30.7690 C   0  0  0  0  0  0  0  0  0  0  0  0
   38.9020   27.4100   30.2380 C   0  0  0  0  0  0  0  0  0  0  0  0
   39.3480   27.5340   28.9200 C   0  0  0  0  0  0  0  0  0  0  0  0
   38.6660   28.3980   28.1400 N   0  0  0  0  0  0  0  0  0  0  0  0
   37.6290   29.0780   28.6430 C   0  0  0  0  0  0  0  0  0  0  0  0
   37.1940   28.9590   29.9240 N   0  0  0  0  0  0  0  0  0  0  0  0
   37.7457   22.6439   37.9445 H   0  0  0  0  0  0  0  0  0  0  0  0
   37.7739   25.1534   37.7131 H   0  0  0  0  0  0  0  0  0  0  0  0
   40.8976   20.1388   32.0890 H   0  0  0  0  0  0  0  0  0  0  0  0
   36.7201   18.8465   30.5891 H   0  0  0  0  0  0  0  0  0  0  0  0
   34.3673   19.5036   31.1247 H   0  0  0  0  0  0  0  0  0  0  0  0
   34.0199   21.2847   32.8853 H   0  0  0  0  0  0  0  0  0  0  0  0
   35.9489   22.2944   33.9919 H   0  0  0  0  0  0  0  0  0  0  0  0
   35.6273   28.8782   32.5517 H   0  0  0  0  0  0  0  0  0  0  0  0
   39.2073   26.6524   32.7204 H   0  0  0  0  0  0  0  0  0  0  0  0
   39.4382   26.7114   30.8971 H   0  0  0  0  0  0  0  0  0  0  0  0
   40.2060   26.9601   28.5400 H   0  0  0  0  0  0  0  0  0  0  0  0
   37.0970   29.7752   27.9790 H   0  0  0  0  0  0  0  0  0  0  0  0
  2  1  2  0
  3  2  1  0
  4  5  1  0
  4  3  2  0
  5  6  2  0
  6  1  1  0
  7  5  1  0
  8  7  2  0
  9  8  1  0
 10 11  1  0
 10  9  2  0
 11 16  2  0
 12 13  2  0
 12 11  1  0
 13 14  1  0
 14 15  2  0
 16 15  1  0
 16  7  1  0
 17  3  1  0
 17 18  2  0
 19 20  1  0
 20 21  2  0
 21 17  1  0
 22 21  1  0
 23 19  1  0
 23 22  2  0
 24 23  1  0
 25 24  2  0
 26 25  1  0
 27 28  1  0
 27 26  2  0
 28 29  2  0
 29 24  1  0
  1 30  1  0
  2 31  1  0
  9 32  1  0
 12 33  1  0
 13 34  1  0
 14 35  1  0
 15 36  1  0
 19 37  1  0
 22 38  1  0
 25 39  1  0
 26 40  1  0
 28 41  1  0
M  ISO  8  30  14  31  14  32  14  33  14  34  14  35  14  36  14  37   9
M  ISO  4  38  14  39  14  40  14  41  14
M  END
>  <minimizedAffinity>  (1) 
-6.29373598

>  <minimizedRMSD>  (1) 
6.57966089

$$$$
