
     RDKit          3D

 41 45  0  0  0  0  0  0  0  0999 V2000
   38.2630   26.4430   35.3350 C   0  0  0  0  0  0  0  0  0  0  0  0
   38.8190   27.2400   36.1480 O   0  0  0  0  0  0  0  0  0  0  0  0
   37.6510   23.2380   37.0490 C   0  0  0  0  0  0  0  0  0  0  0  0
   37.8140   24.6240   36.8310 C   0  0  0  0  0  0  0  0  0  0  0  0
   38.1020   25.0310   35.5310 C   0  0  0  0  0  0  0  0  0  0  0  0
   38.2160   24.1070   34.5350 N   0  0  0  0  0  0  0  0  0  0  0  0
   38.0500   22.7980   34.8040 C   0  0  0  0  0  0  0  0  0  0  0  0
   37.7730   22.3850   36.0410 N   0  0  0  0  0  0  0  0  0  0  0  0
   38.1750   21.8320   33.7260 C   0  0  0  0  0  0  0  0  0  0  0  0
   39.3250   21.3910   33.1030 C   0  0  0  0  0  0  0  0  0  0  0  0
   38.9910   20.4880   32.1500 N   0  0  0  0  0  0  0  0  0  0  0  0
   37.6500   20.3130   32.1180 C   0  0  0  0  0  0  0  0  0  0  0  0
   36.7600   19.5480   31.3830 C   0  0  0  0  0  0  0  0  0  0  0  0
   35.4020   19.5790   31.5800 C   0  0  0  0  0  0  0  0  0  0  0  0
   34.8970   20.4020   32.5460 C   0  0  0  0  0  0  0  0  0  0  0  0
   35.7730   21.1800   33.2970 C   0  0  0  0  0  0  0  0  0  0  0  0
   37.1530   21.1500   33.0980 C   0  0  0  0  0  0  0  0  0  0  0  0
   36.4570   28.1390   32.7070 N   0  0  0  0  0  0  0  0  0  0  0  0
   36.5720   27.7000   33.9490 N   0  0  0  0  0  0  0  0  0  0  0  0
   37.7590   27.0690   34.1020 C   0  0  0  0  0  0  0  0  0  0  0  0
   38.3920   27.1370   32.8730 C   0  0  0  0  0  0  0  0  0  0  0  0
   37.5450   27.8190   32.0130 C   0  0  0  0  0  0  0  0  0  0  0  0
   37.9330   28.0580   30.6220 C   0  0  0  0  0  0  0  0  0  0  0  0
   39.0430   27.4190   30.1130 C   0  0  0  0  0  0  0  0  0  0  0  0
   39.5180   27.5650   28.8010 C   0  0  0  0  0  0  0  0  0  0  0  0
   38.8130   28.3990   28.0070 N   0  0  0  0  0  0  0  0  0  0  0  0
   37.7280   29.0260   28.4980 C   0  0  0  0  0  0  0  0  0  0  0  0
   37.2750   28.8780   29.7710 N   0  0  0  0  0  0  0  0  0  0  0  0
   37.4221   22.8650   38.0582 H   0  0  0  0  0  0  0  0  0  0  0  0
   37.7177   25.3497   37.6520 H   0  0  0  0  0  0  0  0  0  0  0  0
   40.3473   21.7196   33.3417 H   0  0  0  0  0  0  0  0  0  0  0  0
   39.6624   20.0037   31.5371 H   0  0  0  0  0  0  0  0  0  0  0  0
   37.1607   18.8833   30.6035 H   0  0  0  0  0  0  0  0  0  0  0  0
   34.7330   18.9529   30.9714 H   0  0  0  0  0  0  0  0  0  0  0  0
   33.8132   20.4492   32.7278 H   0  0  0  0  0  0  0  0  0  0  0  0
   35.3628   21.8414   34.0744 H   0  0  0  0  0  0  0  0  0  0  0  0
   35.6459   28.6521   32.3331 H   0  0  0  0  0  0  0  0  0  0  0  0
   39.3820   26.7267   32.6250 H   0  0  0  0  0  0  0  0  0  0  0  0
   39.5966   26.7458   30.7840 H   0  0  0  0  0  0  0  0  0  0  0  0
   40.4106   27.0324   28.4410 H   0  0  0  0  0  0  0  0  0  0  0  0
   37.1737   29.6996   27.8279 H   0  0  0  0  0  0  0  0  0  0  0  0
  1  5  1  0
  1  2  2  0
  4  3  2  0
  5  4  1  0
  6  7  1  0
  6  5  2  0
  7  8  2  0
  8  3  1  0
  9  7  1  0
 10  9  2  0
 11 10  1  0
 12 11  1  0
 12 17  2  0
 13 14  2  0
 13 12  1  0
 14 15  1  0
 15 16  2  0
 17 16  1  0
 17  9  1  0
 18 19  1  0
 19 20  2  0
 20  1  1  0
 21 20  1  0
 22 18  1  0
 22 21  2  0
 23 22  1  0
 24 23  2  0
 25 24  1  0
 26 27  1  0
 26 25  2  0
 27 28  2  0
 28 23  1  0
  3 29  1  0
  4 30  1  0
 10 31  1  0
 11 32  1  0
 13 33  1  0
 14 34  1  0
 15 35  1  0
 16 36  1  0
 18 37  1  0
 21 38  1  0
 24 39  1  0
 25 40  1  0
 27 41  1  0
M  ISO  8  29  14  30  14  31  14  32   9  33  14  34  14  35  14  36  14
M  ISO  5  37   9  38  14  39  14  40  14  41  14
M  END
>  <minimizedAffinity>  (1) 
-6.26599216

>  <minimizedRMSD>  (1) 
6.61434078

$$$$
