
     RDKit          3D

 36 39  0  0  0  0  0  0  0  0999 V2000
   38.9630   26.1620   34.7260 C   0  0  0  0  0  0  0  0  0  0  0  0
   39.6970   26.8540   35.5050 O   0  0  0  0  0  0  0  0  0  0  0  0
   39.6300   22.6530   35.6050 C   0  0  0  0  0  0  0  0  0  0  0  0
   39.7280   24.0570   35.5620 C   0  0  0  0  0  0  0  0  0  0  0  0
   38.8420   24.7410   34.7510 C   0  0  0  0  0  0  0  0  0  0  0  0
   37.9230   24.0520   34.0370 N   0  0  0  0  0  0  0  0  0  0  0  0
   37.8620   22.6980   34.1070 C   0  0  0  0  0  0  0  0  0  0  0  0
   38.7080   22.0250   34.8820 N   0  0  0  0  0  0  0  0  0  0  0  0
   36.8560   21.9460   33.3250 C   0  0  0  0  0  0  0  0  0  0  0  0
   36.5770   22.3840   32.0400 C   0  0  0  0  0  0  0  0  0  0  0  0
   35.6280   21.6820   31.2860 C   0  0  0  0  0  0  0  0  0  0  0  0
   35.0150   20.5930   31.8490 C   0  0  0  0  0  0  0  0  0  0  0  0
   35.3290   20.1930   33.1400 C   0  0  0  0  0  0  0  0  0  0  0  0
   36.2430   20.8770   33.8530 N   0  0  0  0  0  0  0  0  0  0  0  0
   36.5920   28.0830   32.7960 N   0  0  0  0  0  0  0  0  0  0  0  0
   36.9550   27.4250   33.8870 N   0  0  0  0  0  0  0  0  0  0  0  0
   38.2010   26.9460   33.7410 C   0  0  0  0  0  0  0  0  0  0  0  0
   38.6170   27.3430   32.4800 C   0  0  0  0  0  0  0  0  0  0  0  0
   37.5840   28.0570   31.9060 C   0  0  0  0  0  0  0  0  0  0  0  0
   37.7310   28.6130   30.5580 C   0  0  0  0  0  0  0  0  0  0  0  0
   38.4840   27.9450   29.6120 C   0  0  0  0  0  0  0  0  0  0  0  0
   38.6780   28.3980   28.3160 C   0  0  0  0  0  0  0  0  0  0  0  0
   38.0850   29.5640   27.9810 N   0  0  0  0  0  0  0  0  0  0  0  0
   37.3520   30.2220   28.8860 C   0  0  0  0  0  0  0  0  0  0  0  0
   37.1560   29.7830   30.1630 N   0  0  0  0  0  0  0  0  0  0  0  0
   40.3182   22.0743   36.2386 H   0  0  0  0  0  0  0  0  0  0  0  0
   40.4849   24.5920   36.1544 H   0  0  0  0  0  0  0  0  0  0  0  0
   37.0892   23.2630   31.6217 H   0  0  0  0  0  0  0  0  0  0  0  0
   35.3796   21.9984   30.2622 H   0  0  0  0  0  0  0  0  0  0  0  0
   34.2666   20.0305   31.2716 H   0  0  0  0  0  0  0  0  0  0  0  0
   34.8309   19.3168   33.5808 H   0  0  0  0  0  0  0  0  0  0  0  0
   35.6818   28.5445   32.6567 H   0  0  0  0  0  0  0  0  0  0  0  0
   39.5929   27.1283   32.0200 H   0  0  0  0  0  0  0  0  0  0  0  0
   38.9583   26.9966   29.9045 H   0  0  0  0  0  0  0  0  0  0  0  0
   39.2867   27.8337   27.5942 H   0  0  0  0  0  0  0  0  0  0  0  0
   36.8813   31.1692   28.5841 H   0  0  0  0  0  0  0  0  0  0  0  0
  1  5  1  0
  1  2  2  0
  4  3  2  0
  5  4  1  0
  6  7  1  0
  6  5  2  0
  7  8  2  0
  8  3  1  0
  9 14  1  0
  9  7  1  0
 10  9  2  0
 11 12  2  0
 11 10  1  0
 12 13  1  0
 13 14  2  0
 15 16  1  0
 17 16  2  0
 17  1  1  0
 18 17  1  0
 19 18  2  0
 19 15  1  0
 20 19  1  0
 21 20  2  0
 22 21  1  0
 23 22  2  0
 23 24  1  0
 24 25  2  0
 25 20  1  0
  3 26  1  0
  4 27  1  0
 10 28  1  0
 11 29  1  0
 12 30  1  0
 13 31  1  0
 15 32  1  0
 18 33  1  0
 21 34  1  0
 22 35  1  0
 24 36  1  0
M  ISO  8  26  14  27  14  28  14  29  14  30  14  31  14  32   9  33  14
M  ISO  3  34  14  35  14  36  14
M  END
>  <minimizedAffinity>  (1) 
-5.33051157

>  <minimizedRMSD>  (1) 
6.14090919

$$$$
