
     RDKit          3D

 39 42  0  0  0  0  0  0  0  0999 V2000
   37.5890   25.4660   33.0080 N   0  0  0  0  0  0  0  0  0  0  0  0
   37.9830   24.5070   33.8330 N   0  0  0  0  0  0  0  0  0  0  0  0
   37.9060   24.9290   35.1090 C   0  0  0  0  0  0  0  0  0  0  0  0
   37.4340   26.2280   35.0510 C   0  0  0  0  0  0  0  0  0  0  0  0
   37.2400   26.5480   33.7180 C   0  0  0  0  0  0  0  0  0  0  0  0
   36.7390   27.8690   33.3350 C   0  0  0  0  0  0  0  0  0  0  0  0
   36.0810   28.6430   34.2670 C   0  0  0  0  0  0  0  0  0  0  0  0
   35.5630   29.9160   34.0030 C   0  0  0  0  0  0  0  0  0  0  0  0
   35.7290   30.3920   32.7590 N   0  0  0  0  0  0  0  0  0  0  0  0
   36.3740   29.6370   31.8380 C   0  0  0  0  0  0  0  0  0  0  0  0
   36.8830   28.3950   32.0850 N   0  0  0  0  0  0  0  0  0  0  0  0
   38.2550   24.1570   36.3050 C   0  0  0  0  0  0  0  0  0  0  0  0
   37.3220   24.0380   37.1550 O   0  0  0  0  0  0  0  0  0  0  0  0
   40.9800   21.9260   37.3940 C   0  0  0  0  0  0  0  0  0  0  0  0
   39.6900   22.4910   37.2510 C   0  0  0  0  0  0  0  0  0  0  0  0
   39.5730   23.6100   36.4290 C   0  0  0  0  0  0  0  0  0  0  0  0
   40.6800   24.1060   35.8070 N   0  0  0  0  0  0  0  0  0  0  0  0
   41.8750   23.5250   35.9840 C   0  0  0  0  0  0  0  0  0  0  0  0
   42.0270   22.4610   36.7580 N   0  0  0  0  0  0  0  0  0  0  0  0
   42.9990   24.0850   35.3110 N   0  0  0  0  0  0  0  0  0  0  0  0
   43.2090   25.4760   34.9440 C   0  0  0  0  0  0  0  0  0  0  0  0
   44.5870   25.7190   35.5500 C   0  0  0  0  0  0  0  0  0  0  0  0
   45.2930   24.4410   35.1650 C   0  0  0  0  0  0  0  0  0  0  0  0
   44.2000   23.4480   34.8220 C   0  0  0  0  0  0  0  0  0  0  0  0
   37.5560   25.3917   31.9812 H   0  0  0  0  0  0  0  0  0  0  0  0
   37.2464   26.8886   35.9103 H   0  0  0  0  0  0  0  0  0  0  0  0
   35.9554   28.2348   35.2807 H   0  0  0  0  0  0  0  0  0  0  0  0
   35.0443   30.4990   34.7783 H   0  0  0  0  0  0  0  0  0  0  0  0
   36.4954   30.0513   30.8263 H   0  0  0  0  0  0  0  0  0  0  0  0
   41.1217   21.0414   38.0323 H   0  0  0  0  0  0  0  0  0  0  0  0
   38.8170   22.0648   37.7669 H   0  0  0  0  0  0  0  0  0  0  0  0
   43.2160   25.6113   33.8524 H   0  0  0  0  0  0  0  0  0  0  0  0
   42.4265   26.1653   35.2941 H   0  0  0  0  0  0  0  0  0  0  0  0
   45.0745   26.6002   35.1075 H   0  0  0  0  0  0  0  0  0  0  0  0
   44.5798   25.9285   36.6298 H   0  0  0  0  0  0  0  0  0  0  0  0
   45.9427   24.6106   34.2937 H   0  0  0  0  0  0  0  0  0  0  0  0
   45.9319   24.0717   35.9807 H   0  0  0  0  0  0  0  0  0  0  0  0
   44.1440   23.2849   33.7356 H   0  0  0  0  0  0  0  0  0  0  0  0
   44.3689   22.4554   35.2650 H   0  0  0  0  0  0  0  0  0  0  0  0
  1  5  1  0
  1  2  1  0
  2  3  2  0
  3 12  1  0
  4  3  1  0
  5  4  2  0
  6  5  1  0
  6  7  2  0
  8  7  1  0
  9  8  2  0
 10 11  2  0
 10  9  1  0
 11  6  1  0
 12 16  1  0
 12 13  2  0
 15 14  2  0
 16 15  1  0
 17 18  1  0
 17 16  2  0
 18 19  2  0
 19 14  1  0
 20 18  1  0
 21 20  1  0
 21 22  1  0
 23 22  1  0
 24 23  1  0
 24 20  1  0
  1 25  1  0
  4 26  1  0
  7 27  1  0
  8 28  1  0
 10 29  1  0
 14 30  1  0
 15 31  1  0
 21 32  1  0
 21 33  1  0
 22 34  1  0
 22 35  1  0
 23 36  1  0
 23 37  1  0
 24 38  1  0
 24 39  1  0
M  ISO  8  25   9  26  14  27  14  28  14  29  14  30  14  31  14  32  13
M  ISO  7  33  13  34  13  35  13  36  13  37  13  38  13  39  13
M  END
>  <minimizedAffinity>  (1) 
-5.26320982

>  <minimizedRMSD>  (1) 
2.2420342

$$$$
