
     RDKit          3D

 34 37  0  0  0  0  0  0  0  0999 V2000
   37.5320   25.1790   33.0880 N   0  0  0  0  0  0  0  0  0  0  0  0
   37.9770   24.2260   33.8980 N   0  0  0  0  0  0  0  0  0  0  0  0
   38.0250   24.6740   35.1650 C   0  0  0  0  0  0  0  0  0  0  0  0
   37.5800   25.9830   35.1260 C   0  0  0  0  0  0  0  0  0  0  0  0
   37.2750   26.2820   33.8170 C   0  0  0  0  0  0  0  0  0  0  0  0
   36.7720   27.6070   33.4390 C   0  0  0  0  0  0  0  0  0  0  0  0
   36.1920   28.4120   34.3960 C   0  0  0  0  0  0  0  0  0  0  0  0
   35.6820   29.6870   34.1510 C   0  0  0  0  0  0  0  0  0  0  0  0
   35.7830   30.1280   32.8760 N   0  0  0  0  0  0  0  0  0  0  0  0
   36.3430   29.3600   31.9350 C   0  0  0  0  0  0  0  0  0  0  0  0
   36.8350   28.1280   32.1770 N   0  0  0  0  0  0  0  0  0  0  0  0
   38.4630   23.9180   36.3410 C   0  0  0  0  0  0  0  0  0  0  0  0
   37.5780   23.7380   37.2150 O   0  0  0  0  0  0  0  0  0  0  0  0
   41.3460   21.7900   37.2120 C   0  0  0  0  0  0  0  0  0  0  0  0
   40.0280   22.2720   37.1210 C   0  0  0  0  0  0  0  0  0  0  0  0
   39.8260   23.4470   36.4160 C   0  0  0  0  0  0  0  0  0  0  0  0
   40.8930   24.0840   35.8430 N   0  0  0  0  0  0  0  0  0  0  0  0
   42.1340   23.5820   35.9580 C   0  0  0  0  0  0  0  0  0  0  0  0
   42.3480   22.4470   36.6360 N   0  0  0  0  0  0  0  0  0  0  0  0
   43.0890   24.4100   35.2830 N   0  0  0  0  0  0  0  0  0  0  0  0
   43.9730   25.0010   36.1390 C   0  0  0  0  0  0  0  0  0  0  0  0
   44.8440   25.7700   35.3970 C   0  0  0  0  0  0  0  0  0  0  0  0
   44.4560   25.6210   34.0970 N   0  0  0  0  0  0  0  0  0  0  0  0
   43.3940   24.7950   34.0500 C   0  0  0  0  0  0  0  0  0  0  0  0
   37.4043   25.0896   32.0699 H   0  0  0  0  0  0  0  0  0  0  0  0
   37.4866   26.6627   35.9858 H   0  0  0  0  0  0  0  0  0  0  0  0
   36.1269   28.0224   35.4226 H   0  0  0  0  0  0  0  0  0  0  0  0
   35.2259   30.2962   34.9453 H   0  0  0  0  0  0  0  0  0  0  0  0
   36.4055   29.7540   30.9099 H   0  0  0  0  0  0  0  0  0  0  0  0
   41.5497   20.8610   37.7647 H   0  0  0  0  0  0  0  0  0  0  0  0
   39.1901   21.7367   37.5914 H   0  0  0  0  0  0  0  0  0  0  0  0
   43.9878   24.8838   37.2326 H   0  0  0  0  0  0  0  0  0  0  0  0
   45.6792   26.3781   35.7747 H   0  0  0  0  0  0  0  0  0  0  0  0
   42.8640   24.4883   33.1362 H   0  0  0  0  0  0  0  0  0  0  0  0
  1  5  1  0
  1  2  1  0
  2  3  2  0
  3 12  1  0
  4  3  1  0
  5  4  2  0
  6  5  1  0
  6  7  2  0
  8  7  1  0
  9  8  2  0
 10 11  2  0
 10  9  1  0
 11  6  1  0
 12 16  1  0
 12 13  2  0
 15 14  2  0
 16 15  1  0
 17 18  1  0
 17 16  2  0
 18 19  2  0
 19 14  1  0
 20 18  1  0
 20 21  1  0
 22 21  2  0
 23 22  1  0
 24 23  2  0
 24 20  1  0
  1 25  1  0
  4 26  1  0
  7 27  1  0
  8 28  1  0
 10 29  1  0
 14 30  1  0
 15 31  1  0
 21 32  1  0
 22 33  1  0
 24 34  1  0
M  ISO  8  25   9  26  14  27  14  28  14  29  14  30  14  31  14  32  14
M  ISO  2  33  14  34  14
M  END
>  <minimizedAffinity>  (1) 
-5.21930552

>  <minimizedRMSD>  (1) 
2.25981975

$$$$
