
     RDKit          3D

 39 41  0  0  0  0  0  0  0  0999 V2000
   37.5990   25.2010   33.1320 N   0  0  0  0  0  0  0  0  0  0  0  0
   38.0300   24.2500   33.9490 N   0  0  0  0  0  0  0  0  0  0  0  0
   38.0250   24.7020   35.2220 C   0  0  0  0  0  0  0  0  0  0  0  0
   37.5600   26.0080   35.1640 C   0  0  0  0  0  0  0  0  0  0  0  0
   37.3000   26.2940   33.8350 C   0  0  0  0  0  0  0  0  0  0  0  0
   36.7900   27.6110   33.4450 C   0  0  0  0  0  0  0  0  0  0  0  0
   36.2030   28.4180   34.3950 C   0  0  0  0  0  0  0  0  0  0  0  0
   35.6780   29.6930   34.1380 C   0  0  0  0  0  0  0  0  0  0  0  0
   35.7700   30.1330   32.8700 N   0  0  0  0  0  0  0  0  0  0  0  0
   36.3450   29.3480   31.9340 C   0  0  0  0  0  0  0  0  0  0  0  0
   36.8530   28.1100   32.1870 N   0  0  0  0  0  0  0  0  0  0  0  0
   38.4300   23.9520   36.4190 C   0  0  0  0  0  0  0  0  0  0  0  0
   37.5220   23.8330   37.3040 O   0  0  0  0  0  0  0  0  0  0  0  0
   41.1980   21.7140   37.3480 C   0  0  0  0  0  0  0  0  0  0  0  0
   39.8880   22.2580   37.2460 C   0  0  0  0  0  0  0  0  0  0  0  0
   39.7590   23.4330   36.5040 C   0  0  0  0  0  0  0  0  0  0  0  0
   40.8480   23.9960   35.9290 N   0  0  0  0  0  0  0  0  0  0  0  0
   42.0640   23.4330   36.0630 C   0  0  0  0  0  0  0  0  0  0  0  0
   42.2260   22.3120   36.7620 N   0  0  0  0  0  0  0  0  0  0  0  0
   43.2230   24.0910   35.4120 C   0  0  0  0  0  0  0  0  0  0  0  0
   44.2940   24.2100   36.4850 C   0  0  0  0  0  0  0  0  0  0  0  0
   43.7370   23.2350   34.3020 C   0  0  0  0  0  0  0  0  0  0  0  0
   42.8890   25.4900   34.9470 C   0  0  0  0  0  0  0  0  0  0  0  0
   37.5088   25.1096   32.1100 H   0  0  0  0  0  0  0  0  0  0  0  0
   37.4233   26.6898   36.0164 H   0  0  0  0  0  0  0  0  0  0  0  0
   36.1419   28.0365   35.4249 H   0  0  0  0  0  0  0  0  0  0  0  0
   35.2160   30.3003   34.9303 H   0  0  0  0  0  0  0  0  0  0  0  0
   36.4069   29.7316   30.9049 H   0  0  0  0  0  0  0  0  0  0  0  0
   41.3600   20.7878   37.9188 H   0  0  0  0  0  0  0  0  0  0  0  0
   39.0225   21.7782   37.7263 H   0  0  0  0  0  0  0  0  0  0  0  0
   43.8249   24.1579   37.4786 H   0  0  0  0  0  0  0  0  0  0  0  0
   45.0151   23.3864   36.3763 H   0  0  0  0  0  0  0  0  0  0  0  0
   44.8167   25.1717   36.3763 H   0  0  0  0  0  0  0  0  0  0  0  0
   44.2602   22.3637   34.7230 H   0  0  0  0  0  0  0  0  0  0  0  0
   42.8948   22.8929   33.6826 H   0  0  0  0  0  0  0  0  0  0  0  0
   44.4348   23.8176   33.6826 H   0  0  0  0  0  0  0  0  0  0  0  0
   42.7339   26.1397   35.8210 H   0  0  0  0  0  0  0  0  0  0  0  0
   43.7186   25.8828   34.3408 H   0  0  0  0  0  0  0  0  0  0  0  0
   41.9714   25.4656   34.3408 H   0  0  0  0  0  0  0  0  0  0  0  0
  1  5  1  0
  1  2  1  0
  2  3  2  0
  3 12  1  0
  4  3  1  0
  5  4  2  0
  6  5  1  0
  6  7  2  0
  8  7  1  0
  9  8  2  0
 10 11  2  0
 10  9  1  0
 11  6  1  0
 12 16  1  0
 12 13  2  0
 15 14  2  0
 16 15  1  0
 17 18  1  0
 17 16  2  0
 18 19  2  0
 19 14  1  0
 20 18  1  0
 20 21  1  0
 22 20  1  0
 23 20  1  0
  1 24  1  0
  4 25  1  0
  7 26  1  0
  8 27  1  0
 10 28  1  0
 14 29  1  0
 15 30  1  0
 21 31  1  0
 21 32  1  0
 21 33  1  0
 22 34  1  0
 22 35  1  0
 22 36  1  0
 23 37  1  0
 23 38  1  0
 23 39  1  0
M  ISO  8  24   9  25  14  26  14  27  14  28  14  29  14  30  14  31   8
M  ISO  8  32   8  33   8  34   8  35   8  36   8  37   8  38   8  39   8
M  END
>  <minimizedAffinity>  (1) 
-5.05742884

>  <minimizedRMSD>  (1) 
2.32188106

$$$$
