
     RDKit          3D

 46 50  0  0  0  0  0  0  0  0999 V2000
   36.5970   24.0440   31.9310 C   0  0  0  0  0  0  0  0  0  0  0  0
   36.2020   25.3680   31.8090 C   0  0  0  0  0  0  0  0  0  0  0  0
   36.8450   26.2460   32.6430 C   0  0  0  0  0  0  0  0  0  0  0  0
   37.7630   25.7740   33.4720 N   0  0  0  0  0  0  0  0  0  0  0  0
   38.1610   24.5390   33.6170 C   0  0  0  0  0  0  0  0  0  0  0  0
   37.5390   23.6930   32.8100 N   0  0  0  0  0  0  0  0  0  0  0  0
   39.1370   23.8970   34.4700 C   0  0  0  0  0  0  0  0  0  0  0  0
   40.3160   23.3800   33.9760 C   0  0  0  0  0  0  0  0  0  0  0  0
   41.2730   22.7610   34.7480 C   0  0  0  0  0  0  0  0  0  0  0  0
   41.0770   22.6290   36.1070 C   0  0  0  0  0  0  0  0  0  0  0  0
   39.9350   23.1200   36.6370 C   0  0  0  0  0  0  0  0  0  0  0  0
   39.7440   22.9850   38.0050 C   0  0  0  0  0  0  0  0  0  0  0  0
   38.6210   23.4510   38.6310 C   0  0  0  0  0  0  0  0  0  0  0  0
   37.6670   24.0730   37.8290 C   0  0  0  0  0  0  0  0  0  0  0  0
   37.8960   24.1870   36.4720 C   0  0  0  0  0  0  0  0  0  0  0  0
   39.0030   23.7320   35.8350 C   0  0  0  0  0  0  0  0  0  0  0  0
   36.5540   27.6380   32.6390 N   0  0  0  0  0  0  0  0  0  0  0  0
   36.8410   28.5060   31.6460 C   0  0  0  0  0  0  0  0  0  0  0  0
   36.4280   29.7340   31.9720 N   0  0  0  0  0  0  0  0  0  0  0  0
   35.8760   29.6410   33.1780 C   0  0  0  0  0  0  0  0  0  0  0  0
   35.9540   28.3710   33.5800 N   0  0  0  0  0  0  0  0  0  0  0  0
   35.3030   30.7180   33.9110 N   0  0  0  0  0  0  0  0  0  0  0  0
   35.2800   32.0620   33.3610 C   0  0  0  0  0  0  0  0  0  0  0  0
   36.1820   32.9090   34.2340 C   0  0  0  0  0  0  0  0  0  0  0  0
   36.4230   32.2390   35.5210 N   0  0  0  0  0  0  0  0  0  0  0  0
   35.1780   31.7180   36.0530 C   0  0  0  0  0  0  0  0  0  0  0  0
   34.7190   30.5240   35.2260 C   0  0  0  0  0  0  0  0  0  0  0  0
   36.1297   23.2756   31.2975 H   0  0  0  0  0  0  0  0  0  0  0  0
   35.4294   25.6901   31.0953 H   0  0  0  0  0  0  0  0  0  0  0  0
   40.5039   23.4678   32.8957 H   0  0  0  0  0  0  0  0  0  0  0  0
   42.1911   22.3729   34.2827 H   0  0  0  0  0  0  0  0  0  0  0  0
   41.8293   22.1378   36.7416 H   0  0  0  0  0  0  0  0  0  0  0  0
   40.5204   22.4875   38.6047 H   0  0  0  0  0  0  0  0  0  0  0  0
   38.4779   23.3399   39.7160 H   0  0  0  0  0  0  0  0  0  0  0  0
   36.7412   24.4691   38.2718 H   0  0  0  0  0  0  0  0  0  0  0  0
   37.1248   24.6826   35.8641 H   0  0  0  0  0  0  0  0  0  0  0  0
   37.3428   28.2405   30.7038 H   0  0  0  0  0  0  0  0  0  0  0  0
   35.6536   32.0540   32.3264 H   0  0  0  0  0  0  0  0  0  0  0  0
   34.2562   32.4639   33.3452 H   0  0  0  0  0  0  0  0  0  0  0  0
   37.1423   33.0644   33.7204 H   0  0  0  0  0  0  0  0  0  0  0  0
   35.6933   33.8767   34.4205 H   0  0  0  0  0  0  0  0  0  0  0  0
   37.0854   31.4626   35.3820 H   0  0  0  0  0  0  0  0  0  0  0  0
   35.3309   31.4022   37.0955 H   0  0  0  0  0  0  0  0  0  0  0  0
   34.4096   32.5040   36.0109 H   0  0  0  0  0  0  0  0  0  0  0  0
   33.6212   30.5009   35.1599 H   0  0  0  0  0  0  0  0  0  0  0  0
   35.0322   29.5703   35.6759 H   0  0  0  0  0  0  0  0  0  0  0  0
  1  6  2  0
  2  1  1  0
  2  3  2  0
  3  4  1  0
  4  5  2  0
  5  7  1  0
  6  5  1  0
  7 16  1  0
  8  7  2  0
  8  9  1  0
  9 10  2  0
 10 11  1  0
 11 12  2  0
 12 13  1  0
 14 13  2  0
 15 14  1  0
 16 15  2  0
 16 11  1  0
 17  3  1  0
 17 21  1  0
 18 19  2  0
 18 17  1  0
 19 20  1  0
 20 21  2  0
 20 22  1  0
 22 27  1  0
 23 22  1  0
 23 24  1  0
 24 25  1  0
 25 26  1  0
 27 26  1  0
  1 28  1  0
  2 29  1  0
  8 30  1  0
  9 31  1  0
 10 32  1  0
 12 33  1  0
 13 34  1  0
 14 35  1  0
 15 36  1  0
 18 37  1  0
 23 38  1  0
 23 39  1  0
 24 40  1  0
 24 41  1  0
 25 42  1  0
 26 43  1  0
 26 44  1  0
 27 45  1  0
 27 46  1  0
M  ISO  8  28  14  29  14  30  14  31  14  32  14  33  14  34  14  35  14
M  ISO  8  36  14  37  14  38  13  39  13  40  13  41  13  42   5  43  13
M  ISO  3  44  13  45  13  46  13
M  END
>  <minimizedAffinity>  (1) 
-6.62683535

>  <minimizedRMSD>  (1) 
1.57860601

$$$$
