
     RDKit          3D

 30 32  0  0  1  0  0  0  0  0999 V2000
   38.0540   25.8780   35.6590 C   0  0  1  0  0  0  0  0  0  0  0  0
   38.3880   27.2660   36.1600 C   0  0  0  0  0  0  0  0  0  0  0  0
   38.9340   26.7480   34.8860 C   0  0  2  0  0  0  0  0  0  0  0  0
   38.5990   24.7110   36.4310 C   0  0  0  0  0  0  0  0  0  0  0  0
   39.6820   23.9570   35.8770 C   0  0  0  0  0  0  0  0  0  0  0  0
   40.1570   22.8950   36.6430 C   0  0  0  0  0  0  0  0  0  0  0  0
   39.5750   22.6410   37.8540 N   0  0  0  0  0  0  0  0  0  0  0  0
   38.5480   23.3920   38.3300 C   0  0  0  0  0  0  0  0  0  0  0  0
   38.0580   24.4140   37.6380 N   0  0  0  0  0  0  0  0  0  0  0  0
   37.5770   28.0700   31.0740 C   0  0  0  0  0  0  0  0  0  0  0  0
   38.8670   27.5840   31.2240 C   0  0  0  0  0  0  0  0  0  0  0  0
   39.2830   27.1580   32.4830 C   0  0  0  0  0  0  0  0  0  0  0  0
   38.4220   27.2180   33.5740 C   0  0  0  0  0  0  0  0  0  0  0  0
   37.1410   27.7020   33.4260 C   0  0  0  0  0  0  0  0  0  0  0  0
   36.7250   28.1270   32.1650 C   0  0  0  0  0  0  0  0  0  0  0  0
   37.1690   28.5720   29.4600 S   0  0  0  0  0  0  0  0  0  0  0  0
   36.8940   30.0600   29.5340 O   0  0  0  0  0  0  0  0  0  0  0  0
   38.3460   28.4050   28.5370 O   0  0  0  0  0  0  0  0  0  0  0  0
   37.1423   25.3122   35.4167 H   0  0  0  0  0  0  0  0  0  0  0  0
   37.6230   28.0564   36.1548 H   0  0  0  0  0  0  0  0  0  0  0  0
   38.8102   27.6895   37.0833 H   0  0  0  0  0  0  0  0  0  0  0  0
   39.9593   26.6932   34.4912 H   0  0  0  0  0  0  0  0  0  0  0  0
   40.1167   24.2034   34.8971 H   0  0  0  0  0  0  0  0  0  0  0  0
   40.9867   22.2709   36.2797 H   0  0  0  0  0  0  0  0  0  0  0  0
   38.1126   23.1482   39.3103 H   0  0  0  0  0  0  0  0  0  0  0  0
   39.5502   27.5358   30.3632 H   0  0  0  0  0  0  0  0  0  0  0  0
   40.3036   26.7698   32.6162 H   0  0  0  0  0  0  0  0  0  0  0  0
   36.4585   27.7523   34.2872 H   0  0  0  0  0  0  0  0  0  0  0  0
   35.7036   28.5139   32.0342 H   0  0  0  0  0  0  0  0  0  0  0  0
   36.1108   27.8339   28.9991 H   0  0  0  0  0  0  0  0  0  0  0  0
  1  2  1  0
  1  4  1  0
  3  1  1  0
  3  2  1  0
  4  9  1  0
  5  4  2  0
  5  6  1  0
  6  7  2  0
  7  8  1  0
  9  8  2  0
 10 11  2  0
 10 15  1  0
 11 12  1  0
 12 13  2  0
 13  3  1  0
 14 13  1  0
 15 14  2  0
 16 17  2  0
 16 10  1  0
 18 16  2  0
  1 19  1  6
  2 20  1  0
  2 21  1  0
  3 22  1  6
  5 23  1  0
  6 24  1  0
  8 25  1  0
 11 26  1  0
 12 27  1  0
 14 28  1  0
 15 29  1  0
 16 30  1  0
M  ISO  8  19  13  20  13  21  13  22  13  23  14  24  14  25  14  26  14
M  ISO  4  27  14  28  14  29  14  30  11
M  END
>  <minimizedAffinity>  (1) 
-5.02696848

>  <minimizedRMSD>  (1) 
1.31414449

$$$$
