
     RDKit          3D

 31 34  0  0  1  0  0  0  0  0999 V2000
   37.5940   25.9650   35.7210 C   0  0  1  0  0  0  0  0  0  0  0  0
   38.4310   27.1070   36.2350 C   0  0  0  0  0  0  0  0  0  0  0  0
   37.9500   27.0500   34.8300 C   0  0  1  0  0  0  0  0  0  0  0  0
   39.0180   27.0810   33.8710 N   0  0  0  0  0  0  0  0  0  0  0  0
   40.3730   26.9860   34.0280 C   0  0  0  0  0  0  0  0  0  0  0  0
   41.0040   27.0760   32.8410 N   0  0  0  0  0  0  0  0  0  0  0  0
   40.0700   27.2310   31.8850 C   0  0  0  0  0  0  0  0  0  0  0  0
   40.0500   27.3790   30.5070 C   0  0  0  0  0  0  0  0  0  0  0  0
   41.1970   27.3710   29.9520 O   0  0  0  0  0  0  0  0  0  0  0  0
   38.8930   27.5190   29.8140 N   0  0  0  0  0  0  0  0  0  0  0  0
   37.7050   27.5200   30.4610 C   0  0  0  0  0  0  0  0  0  0  0  0
   36.5160   27.6700   29.6960 N   0  0  0  0  0  0  0  0  0  0  0  0
   37.7220   27.3760   31.8030 N   0  0  0  0  0  0  0  0  0  0  0  0
   38.8540   27.2340   32.5200 C   0  0  0  0  0  0  0  0  0  0  0  0
   38.1790   24.6050   35.6920 C   0  0  0  0  0  0  0  0  0  0  0  0
   38.1180   23.9300   34.4380 C   0  0  0  0  0  0  0  0  0  0  0  0
   38.6620   22.6610   34.3380 C   0  0  0  0  0  0  0  0  0  0  0  0
   39.2240   22.1350   35.4550 N   0  0  0  0  0  0  0  0  0  0  0  0
   39.2680   22.7870   36.6230 C   0  0  0  0  0  0  0  0  0  0  0  0
   38.7510   24.0080   36.7360 N   0  0  0  0  0  0  0  0  0  0  0  0
   36.6301   25.4907   35.9574 H   0  0  0  0  0  0  0  0  0  0  0  0
   38.0040   27.8359   36.9395 H   0  0  0  0  0  0  0  0  0  0  0  0
   39.4067   27.2100   36.7324 H   0  0  0  0  0  0  0  0  0  0  0  0
   37.3022   27.5933   34.1263 H   0  0  0  0  0  0  0  0  0  0  0  0
   40.8804   26.8537   34.9949 H   0  0  0  0  0  0  0  0  0  0  0  0
   38.9188   27.6251   28.7898 H   0  0  0  0  0  0  0  0  0  0  0  0
   35.5990   27.6740   30.1650 H   0  0  0  0  0  0  0  0  0  0  0  0
   36.5717   27.7747   28.6728 H   0  0  0  0  0  0  0  0  0  0  0  0
   37.6476   24.4084   33.5663 H   0  0  0  0  0  0  0  0  0  0  0  0
   38.6395   22.1017   33.3910 H   0  0  0  0  0  0  0  0  0  0  0  0
   39.7354   22.3096   37.4969 H   0  0  0  0  0  0  0  0  0  0  0  0
  1  2  1  0
  3  1  1  0
  3  2  1  0
  4  5  1  0
  4  3  1  0
  6  5  2  0
  7 14  2  0
  7  6  1  0
  8  7  1  0
  9  8  2  0
 10 11  1  0
 10  8  1  0
 11 13  2  0
 12 11  1  0
 13 14  1  0
 14  4  1  0
 15  1  1  0
 15 20  1  0
 16 15  2  0
 17 16  1  0
 17 18  2  0
 18 19  1  0
 19 20  2  0
  1 21  1  1
  2 22  1  0
  2 23  1  0
  3 24  1  6
  5 25  1  0
 10 26  1  0
 12 27  1  0
 12 28  1  0
 16 29  1  0
 17 30  1  0
 19 31  1  0
M  ISO  8  21  13  22  13  23  13  24  13  25  14  26   9  29  14  30  14
M  ISO  1  31  14
M  END
>  <minimizedAffinity>  (1) 
-4.91204882

>  <minimizedRMSD>  (1) 
2.26081443

$$$$
