
     RDKit          3D

 27 29  0  0  1  0  0  0  0  0999 V2000
   37.9720   25.9770   35.7720 C   0  0  1  0  0  0  0  0  0  0  0  0
   38.4240   27.3610   36.1810 C   0  0  0  0  0  0  0  0  0  0  0  0
   38.7710   26.7920   34.8640 C   0  0  2  0  0  0  0  0  0  0  0  0
   38.5040   24.8030   36.5030 C   0  0  0  0  0  0  0  0  0  0  0  0
   39.5190   24.0530   35.8760 C   0  0  0  0  0  0  0  0  0  0  0  0
   40.0470   22.9320   36.5530 C   0  0  0  0  0  0  0  0  0  0  0  0
   39.5310   22.6510   37.7840 N   0  0  0  0  0  0  0  0  0  0  0  0
   38.5520   23.4090   38.3440 C   0  0  0  0  0  0  0  0  0  0  0  0
   38.0500   24.4660   37.7100 N   0  0  0  0  0  0  0  0  0  0  0  0
   38.1750   27.2450   33.5980 C   0  0  0  0  0  0  0  0  0  0  0  0
   36.8790   27.7620   33.5960 C   0  0  0  0  0  0  0  0  0  0  0  0
   36.2970   28.1930   32.4230 C   0  0  0  0  0  0  0  0  0  0  0  0
   37.0010   28.1110   31.2480 C   0  0  0  0  0  0  0  0  0  0  0  0
   38.2900   27.5970   31.2450 C   0  0  0  0  0  0  0  0  0  0  0  0
   38.8940   27.1560   32.4250 C   0  0  0  0  0  0  0  0  0  0  0  0
   37.0194   25.4384   35.6604 H   0  0  0  0  0  0  0  0  0  0  0  0
   37.6962   28.1824   36.2556 H   0  0  0  0  0  0  0  0  0  0  0  0
   38.9838   27.7885   37.0259 H   0  0  0  0  0  0  0  0  0  0  0  0
   39.7299   26.6833   34.3361 H   0  0  0  0  0  0  0  0  0  0  0  0
   39.8920   24.3349   34.8803 H   0  0  0  0  0  0  0  0  0  0  0  0
   40.8394   22.3127   36.1074 H   0  0  0  0  0  0  0  0  0  0  0  0
   38.1673   23.1440   39.3399 H   0  0  0  0  0  0  0  0  0  0  0  0
   36.3165   27.8263   34.5391 H   0  0  0  0  0  0  0  0  0  0  0  0
   35.2751   28.5999   32.4289 H   0  0  0  0  0  0  0  0  0  0  0  0
   36.5433   28.4529   30.3080 H   0  0  0  0  0  0  0  0  0  0  0  0
   38.8455   27.5358   30.2976 H   0  0  0  0  0  0  0  0  0  0  0  0
   39.9158   26.7487   32.4184 H   0  0  0  0  0  0  0  0  0  0  0  0
  1  2  1  0
  1  4  1  0
  3  1  1  0
  3  2  1  0
  4  9  1  0
  5  4  2  0
  5  6  1  0
  6  7  2  0
  7  8  1  0
  9  8  2  0
 10  3  1  0
 11 10  2  0
 12 11  1  0
 13 12  2  0
 14 13  1  0
 14 15  2  0
 15 10  1  0
  1 16  1  6
  2 17  1  0
  2 18  1  0
  3 19  1  6
  5 20  1  0
  6 21  1  0
  8 22  1  0
 11 23  1  0
 12 24  1  0
 13 25  1  0
 14 26  1  0
 15 27  1  0
M  ISO  8  16  13  17  13  18  13  19  13  20  14  21  14  22  14  23  14
M  ISO  4  24  14  25  14  26  14  27  14
M  END
>  <minimizedAffinity>  (1) 
-4.75885487

>  <minimizedRMSD>  (1) 
0.684359431

$$$$
