
     RDKit          3D

 30 32  0  0  1  0  0  0  0  0999 V2000
   37.6800   25.7430   35.7980 C   0  0  1  0  0  0  0  0  0  0  0  0
   38.1880   27.1630   35.8330 C   0  0  0  0  0  0  0  0  0  0  0  0
   38.1250   26.3800   34.5640 C   0  0  1  0  0  0  0  0  0  0  0  0
   38.4290   24.6800   36.5130 C   0  0  0  0  0  0  0  0  0  0  0  0
   38.0310   24.3980   37.8320 C   0  0  0  0  0  0  0  0  0  0  0  0
   38.6920   23.4020   38.5360 C   0  0  0  0  0  0  0  0  0  0  0  0
   39.7050   22.7470   37.8970 N   0  0  0  0  0  0  0  0  0  0  0  0
   40.0630   23.0450   36.6220 C   0  0  0  0  0  0  0  0  0  0  0  0
   39.4260   24.0090   35.9360 N   0  0  0  0  0  0  0  0  0  0  0  0
   39.3610   26.1630   33.8870 N   0  0  0  0  0  0  0  0  0  0  0  0
   40.4400   27.0340   34.2090 C   0  0  0  0  0  0  0  0  0  0  0  0
   41.6930   26.4020   33.5770 C   0  0  0  0  0  0  0  0  0  0  0  0
   41.5780   26.5780   32.2210 O   0  0  0  0  0  0  0  0  0  0  0  0
   40.4780   25.9400   31.7140 C   0  0  0  0  0  0  0  0  0  0  0  0
   39.1890   26.2100   32.4480 C   0  0  0  0  0  0  0  0  0  0  0  0
   36.7574   25.2105   36.0725 H   0  0  0  0  0  0  0  0  0  0  0  0
   37.4922   27.9973   36.0056 H   0  0  0  0  0  0  0  0  0  0  0  0
   38.9675   27.7082   36.3853 H   0  0  0  0  0  0  0  0  0  0  0  0
   37.6381   26.4319   33.5790 H   0  0  0  0  0  0  0  0  0  0  0  0
   37.2078   24.9589   38.2986 H   0  0  0  0  0  0  0  0  0  0  0  0
   38.4107   23.1498   39.5691 H   0  0  0  0  0  0  0  0  0  0  0  0
   40.8845   22.4907   36.1446 H   0  0  0  0  0  0  0  0  0  0  0  0
   40.2626   28.0350   33.7888 H   0  0  0  0  0  0  0  0  0  0  0  0
   40.5522   27.1541   35.2966 H   0  0  0  0  0  0  0  0  0  0  0  0
   42.5994   26.9019   33.9493 H   0  0  0  0  0  0  0  0  0  0  0  0
   41.7724   25.3353   33.8338 H   0  0  0  0  0  0  0  0  0  0  0  0
   40.3492   26.2602   30.6695 H   0  0  0  0  0  0  0  0  0  0  0  0
   40.6719   24.8625   31.8203 H   0  0  0  0  0  0  0  0  0  0  0  0
   38.8231   27.2085   32.1669 H   0  0  0  0  0  0  0  0  0  0  0  0
   38.4687   25.4275   32.1670 H   0  0  0  0  0  0  0  0  0  0  0  0
  1  2  1  0
  1  4  1  0
  3  1  1  0
  3  2  1  0
  4  5  2  0
  5  6  1  0
  7  6  2  0
  8  7  1  0
  9  4  1  0
  9  8  2  0
 10 11  1  0
 10  3  1  0
 12 11  1  0
 13 12  1  0
 14 13  1  0
 14 15  1  0
 15 10  1  0
  1 16  1  6
  2 17  1  0
  2 18  1  0
  3 19  1  6
  5 20  1  0
  6 21  1  0
  8 22  1  0
 11 23  1  0
 11 24  1  0
 12 25  1  0
 12 26  1  0
 14 27  1  0
 14 28  1  0
 15 29  1  0
 15 30  1  0
M  ISO  8  16  13  17  13  18  13  19  13  20  14  21  14  22  14  23  13
M  ISO  7  24  13  25  13  26  13  27  13  28  13  29  13  30  13
M  END
>  <minimizedAffinity>  (1) 
-3.95413423

>  <minimizedRMSD>  (1) 
1.96248579

$$$$
