
     RDKit          3D

 20 21  0  0  1  0  0  0  0  0999 V2000
   37.7230   25.7780   35.7970 C   0  0  1  0  0  0  0  0  0  0  0  0
   38.2410   27.1950   35.8890 C   0  0  0  0  0  0  0  0  0  0  0  0
   38.2890   26.4280   34.6190 C   0  0  2  0  0  0  0  0  0  0  0  0
   38.4120   24.7160   36.5560 C   0  0  0  0  0  0  0  0  0  0  0  0
   39.4610   24.0250   35.9130 C   0  0  0  0  0  0  0  0  0  0  0  0
   40.1190   22.9980   36.6280 C   0  0  0  0  0  0  0  0  0  0  0  0
   39.6980   22.7400   37.8980 N   0  0  0  0  0  0  0  0  0  0  0  0
   38.6810   23.4400   38.4680 C   0  0  0  0  0  0  0  0  0  0  0  0
   38.0350   24.4280   37.8030 N   0  0  0  0  0  0  0  0  0  0  0  0
   37.3800   26.7670   33.4960 C   0  0  0  0  0  0  0  0  0  0  0  0
   36.7860   25.8640   32.8180 O   0  0  0  0  0  0  0  0  0  0  0  0
   36.9900   27.9630   32.9600 O   0  0  0  0  0  0  0  0  0  0  0  0
   36.7743   25.2524   35.9808 H   0  0  0  0  0  0  0  0  0  0  0  0
   37.5404   28.0353   36.0033 H   0  0  0  0  0  0  0  0  0  0  0  0
   38.9716   27.7274   36.5157 H   0  0  0  0  0  0  0  0  0  0  0  0
   39.0969   26.1934   33.9103 H   0  0  0  0  0  0  0  0  0  0  0  0
   39.7583   24.2782   34.8847 H   0  0  0  0  0  0  0  0  0  0  0  0
   40.9425   22.4268   36.1746 H   0  0  0  0  0  0  0  0  0  0  0  0
   38.3747   23.1977   39.4963 H   0  0  0  0  0  0  0  0  0  0  0  0
   36.3618   27.9813   32.1951 H   0  0  0  0  0  0  0  0  0  0  0  0
  1  2  1  0
  1  4  1  0
  3  1  1  0
  3  2  1  0
  4  9  1  0
  5  4  2  0
  5  6  1  0
  6  7  2  0
  7  8  1  0
  9  8  2  0
 10  3  1  0
 11 10  2  0
 12 10  1  0
  1 13  1  6
  2 14  1  0
  2 15  1  0
  3 16  1  6
  5 17  1  0
  6 18  1  0
  8 19  1  0
 12 20  1  0
M  ISO  8  13  13  14  13  15  13  16  13  17  14  18  14  19  14  20   3
M  END
>  <minimizedAffinity>  (1) 
-3.83154607

>  <minimizedRMSD>  (1) 
0.270620584

$$$$
