
     RDKit          3D

 39 42  0  0  0  0  0  0  0  0999 V2000
   36.3660   22.9070   32.0480 C   0  0  0  0  0  0  0  0  0  0  0  0
   36.0100   24.1950   31.6520 C   0  0  0  0  0  0  0  0  0  0  0  0
   36.7380   25.1950   32.2620 C   0  0  0  0  0  0  0  0  0  0  0  0
   37.6740   24.8580   33.1380 N   0  0  0  0  0  0  0  0  0  0  0  0
   38.0200   23.6560   33.5190 C   0  0  0  0  0  0  0  0  0  0  0  0
   37.3250   22.6910   32.9370 N   0  0  0  0  0  0  0  0  0  0  0  0
   39.0120   23.1590   34.4540 C   0  0  0  0  0  0  0  0  0  0  0  0
   40.1680   22.5220   34.0260 C   0  0  0  0  0  0  0  0  0  0  0  0
   41.1420   22.0320   34.8670 C   0  0  0  0  0  0  0  0  0  0  0  0
   40.9830   22.1700   36.2380 C   0  0  0  0  0  0  0  0  0  0  0  0
   39.8710   22.7840   36.6980 C   0  0  0  0  0  0  0  0  0  0  0  0
   39.7310   22.9120   38.0770 C   0  0  0  0  0  0  0  0  0  0  0  0
   38.6420   23.5170   38.6250 C   0  0  0  0  0  0  0  0  0  0  0  0
   37.6740   24.0040   37.7570 C   0  0  0  0  0  0  0  0  0  0  0  0
   37.8480   23.8580   36.4010 C   0  0  0  0  0  0  0  0  0  0  0  0
   38.9230   23.2590   35.8230 C   0  0  0  0  0  0  0  0  0  0  0  0
   36.4970   26.5580   31.9690 N   0  0  0  0  0  0  0  0  0  0  0  0
   36.3440   27.1010   30.7510 C   0  0  0  0  0  0  0  0  0  0  0  0
   36.1330   28.4050   30.8490 N   0  0  0  0  0  0  0  0  0  0  0  0
   36.1490   28.7220   32.1610 C   0  0  0  0  0  0  0  0  0  0  0  0
   36.3720   27.5730   32.8030 N   0  0  0  0  0  0  0  0  0  0  0  0
   35.9550   30.0340   32.6750 N   0  0  0  0  0  0  0  0  0  0  0  0
   35.7270   31.0960   31.7920 C   0  0  0  0  0  0  0  0  0  0  0  0
   35.0290   30.9430   30.7310 N   0  0  0  0  0  0  0  0  0  0  0  0
   36.2820   32.4000   32.0680 N   0  0  0  0  0  0  0  0  0  0  0  0
   34.6070   30.0230   30.4910 H   0  0  0  0  0  0  0  0  0  0  0  0
   35.8371   22.0471   31.6112 H   0  0  0  0  0  0  0  0  0  0  0  0
   35.2171   24.3965   30.9167 H   0  0  0  0  0  0  0  0  0  0  0  0
   40.3162   22.4004   32.9428 H   0  0  0  0  0  0  0  0  0  0  0  0
   42.0348   21.5374   34.4568 H   0  0  0  0  0  0  0  0  0  0  0  0
   41.7444   21.7885   36.9343 H   0  0  0  0  0  0  0  0  0  0  0  0
   40.5166   22.5161   38.7373 H   0  0  0  0  0  0  0  0  0  0  0  0
   38.5328   23.6164   39.7150 H   0  0  0  0  0  0  0  0  0  0  0  0
   36.7758   24.5022   38.1507 H   0  0  0  0  0  0  0  0  0  0  0  0
   37.0638   24.2529   35.7384 H   0  0  0  0  0  0  0  0  0  0  0  0
   36.3877   26.5418   29.8047 H   0  0  0  0  0  0  0  0  0  0  0  0
   35.9821   30.2016   33.6909 H   0  0  0  0  0  0  0  0  0  0  0  0
   36.1130   33.1800   31.4169 H   0  0  0  0  0  0  0  0  0  0  0  0
   36.8470   32.5503   32.9160 H   0  0  0  0  0  0  0  0  0  0  0  0
  1  6  2  0
  2  1  1  0
  2  3  2  0
  3  4  1  0
  4  5  2  0
  5  7  1  0
  6  5  1  0
  7 16  1  0
  8  7  2  0
  8  9  1  0
  9 10  2  0
 10 11  1  0
 11 12  2  0
 12 13  1  0
 14 13  2  0
 15 14  1  0
 16 15  2  0
 16 11  1  0
 17  3  1  0
 17 21  1  0
 18 19  2  0
 18 17  1  0
 19 20  1  0
 20 22  1  0
 20 21  2  0
 23 25  1  0
 23 22  1  0
 24 23  2  0
 26 24  1  0
  1 27  1  0
  2 28  1  0
  8 29  1  0
  9 30  1  0
 10 31  1  0
 12 32  1  0
 13 33  1  0
 14 34  1  0
 15 35  1  0
 18 36  1  0
 22 37  1  0
 25 38  1  0
 25 39  1  0
M  ISO  8  27  14  28  14  29  14  30  14  31  14  32  14  33  14  34  14
M  ISO  2  35  14  36  14
M  END
>  <minimizedAffinity>  (1) 
-6.45794249

>  <minimizedRMSD>  (1) 
0.271397382

$$$$
