
     RDKit          3D

 23 25  0  0  1  0  0  0  0  0999 V2000
   37.6620   25.8200   35.6820 C   0  0  1  0  0  0  0  0  0  0  0  0
   38.1500   27.2370   35.8250 C   0  0  0  0  0  0  0  0  0  0  0  0
   38.3490   26.4600   34.5740 C   0  0  1  0  0  0  0  0  0  0  0  0
   38.2220   24.7800   36.5620 C   0  0  0  0  0  0  0  0  0  0  0  0
   38.9650   23.7740   35.9180 C   0  0  0  0  0  0  0  0  0  0  0  0
   39.5260   22.7300   36.6740 C   0  0  0  0  0  0  0  0  0  0  0  0
   39.3090   22.7610   38.0180 N   0  0  0  0  0  0  0  0  0  0  0  0
   38.5860   23.7540   38.5970 C   0  0  0  0  0  0  0  0  0  0  0  0
   38.0520   24.7450   37.8830 N   0  0  0  0  0  0  0  0  0  0  0  0
   39.7320   26.3100   34.2120 N   0  0  0  0  0  0  0  0  0  0  0  0
   40.2180   25.7130   33.0780 C   0  0  0  0  0  0  0  0  0  0  0  0
   41.5440   25.7600   33.0690 N   0  0  0  0  0  0  0  0  0  0  0  0
   41.9230   26.3870   34.1970 C   0  0  0  0  0  0  0  0  0  0  0  0
   40.8290   26.7140   34.8760 N   0  0  0  0  0  0  0  0  0  0  0  0
   36.7093   25.2731   35.7390 H   0  0  0  0  0  0  0  0  0  0  0  0
   37.4332   28.0710   35.8526 H   0  0  0  0  0  0  0  0  0  0  0  0
   38.7986   27.7809   36.5275 H   0  0  0  0  0  0  0  0  0  0  0  0
   38.0697   26.4774   33.5102 H   0  0  0  0  0  0  0  0  0  0  0  0
   39.1064   23.8041   34.8275 H   0  0  0  0  0  0  0  0  0  0  0  0
   40.1118   21.9270   36.2028 H   0  0  0  0  0  0  0  0  0  0  0  0
   38.4367   23.7402   39.6867 H   0  0  0  0  0  0  0  0  0  0  0  0
   39.5986   25.2605   32.2896 H   0  0  0  0  0  0  0  0  0  0  0  0
   42.9590   26.5932   34.5040 H   0  0  0  0  0  0  0  0  0  0  0  0
  1  2  1  0
  1  4  1  0
  3  1  1  0
  3  2  1  0
  4  9  1  0
  5  4  2  0
  5  6  1  0
  6  7  2  0
  7  8  1  0
  9  8  2  0
 10  3  1  0
 10 14  1  0
 11 10  1  0
 12 11  2  0
 12 13  1  0
 13 14  2  0
  1 15  1  6
  2 16  1  0
  2 17  1  0
  3 18  1  6
  5 19  1  0
  6 20  1  0
  8 21  1  0
 11 22  1  0
 13 23  1  0
M  ISO  8  15  13  16  13  17  13  18  13  19  14  20  14  21  14  22  14
M  ISO  1  23  14
M  END
>  <minimizedAffinity>  (1) 
-3.71322966

>  <minimizedRMSD>  (1) 
0.530892968

$$$$
