
     RDKit          3D

 24 26  0  0  1  0  0  0  0  0999 V2000
   37.6600   25.8110   35.6770 C   0  0  1  0  0  0  0  0  0  0  0  0
   38.1940   27.2210   35.8230 C   0  0  0  0  0  0  0  0  0  0  0  0
   38.3400   26.4410   34.5650 C   0  0  1  0  0  0  0  0  0  0  0  0
   38.2120   24.7650   36.5590 C   0  0  0  0  0  0  0  0  0  0  0  0
   38.9290   23.7460   35.9130 C   0  0  0  0  0  0  0  0  0  0  0  0
   39.4950   22.7080   36.6570 C   0  0  0  0  0  0  0  0  0  0  0  0
   39.3060   22.7520   38.0210 N   0  0  0  0  0  0  0  0  0  0  0  0
   38.6160   23.7370   38.6040 C   0  0  0  0  0  0  0  0  0  0  0  0
   38.0720   24.7380   37.8820 N   0  0  0  0  0  0  0  0  0  0  0  0
   39.6960   26.2100   34.1240 N   0  0  0  0  0  0  0  0  0  0  0  0
   40.1600   25.5080   33.0430 C   0  0  0  0  0  0  0  0  0  0  0  0
   41.5380   25.5540   33.0450 C   0  0  0  0  0  0  0  0  0  0  0  0
   41.9350   26.2740   34.1140 N   0  0  0  0  0  0  0  0  0  0  0  0
   40.8220   26.6650   34.7550 C   0  0  0  0  0  0  0  0  0  0  0  0
   36.6972   25.2823   35.7365 H   0  0  0  0  0  0  0  0  0  0  0  0
   37.5030   28.0755   35.8708 H   0  0  0  0  0  0  0  0  0  0  0  0
   38.8726   27.7426   36.5140 H   0  0  0  0  0  0  0  0  0  0  0  0
   38.0405   26.4981   33.5081 H   0  0  0  0  0  0  0  0  0  0  0  0
   39.0454   23.7647   34.8193 H   0  0  0  0  0  0  0  0  0  0  0  0
   40.0628   21.8967   36.1781 H   0  0  0  0  0  0  0  0  0  0  0  0
   38.4890   23.7312   39.6966 H   0  0  0  0  0  0  0  0  0  0  0  0
   39.5366   24.9931   32.2972 H   0  0  0  0  0  0  0  0  0  0  0  0
   42.1997   25.0842   32.3024 H   0  0  0  0  0  0  0  0  0  0  0  0
   40.8159   27.2738   35.6711 H   0  0  0  0  0  0  0  0  0  0  0  0
  1  2  1  0
  1  4  1  0
  3  1  1  0
  3  2  1  0
  4  9  1  0
  5  4  2  0
  5  6  1  0
  6  7  2  0
  7  8  1  0
  9  8  2  0
 10  3  1  0
 10 14  1  0
 11 12  2  0
 11 10  1  0
 12 13  1  0
 13 14  2  0
  1 15  1  6
  2 16  1  0
  2 17  1  0
  3 18  1  6
  5 19  1  0
  6 20  1  0
  8 21  1  0
 11 22  1  0
 12 23  1  0
 14 24  1  0
M  ISO  8  15  13  16  13  17  13  18  13  19  14  20  14  21  14  22  14
M  ISO  2  23  14  24  14
M  END
>  <minimizedAffinity>  (1) 
-3.65362787

>  <minimizedRMSD>  (1) 
0.509574592

$$$$
