
     RDKit          3D

 20 21  0  0  1  0  0  0  0  0999 V2000
   38.4420   24.7830   36.4530 C   0  0  0  0  0  0  0  0  0  0  0  0
   39.5150   24.0480   35.8570 C   0  0  0  0  0  0  0  0  0  0  0  0
   40.0970   23.0140   36.6210 C   0  0  0  0  0  0  0  0  0  0  0  0
   39.6030   22.7850   37.8690 N   0  0  0  0  0  0  0  0  0  0  0  0
   38.5790   23.5200   38.3810 C   0  0  0  0  0  0  0  0  0  0  0  0
   37.9980   24.5030   37.7010 N   0  0  0  0  0  0  0  0  0  0  0  0
   37.8490   25.8790   35.6540 C   0  0  1  0  0  0  0  0  0  0  0  0
   38.3210   27.2890   35.9250 C   0  0  0  0  0  0  0  0  0  0  0  0
   38.6130   26.6040   34.6430 C   0  0  2  0  0  0  0  0  0  0  0  0
   38.0050   27.0890   33.3560 C   0  0  0  0  0  0  0  0  0  0  0  0
   39.8724   24.2798   34.8428 H   0  0  0  0  0  0  0  0  0  0  0  0
   40.9251   22.4110   36.2202 H   0  0  0  0  0  0  0  0  0  0  0  0
   38.2187   23.2923   39.3951 H   0  0  0  0  0  0  0  0  0  0  0  0
   36.8884   25.3435   35.6334 H   0  0  0  0  0  0  0  0  0  0  0  0
   37.5993   28.1185   35.9587 H   0  0  0  0  0  0  0  0  0  0  0  0
   38.9162   27.7834   36.7069 H   0  0  0  0  0  0  0  0  0  0  0  0
   39.5251   26.3704   34.0742 H   0  0  0  0  0  0  0  0  0  0  0  0
   37.1629   27.7608   33.5786 H   0  0  0  0  0  0  0  0  0  0  0  0
   38.7638   27.6326   32.7740 H   0  0  0  0  0  0  0  0  0  0  0  0
   37.6436   26.2284   32.7740 H   0  0  0  0  0  0  0  0  0  0  0  0
  1  6  1  0
  2  1  2  0
  2  3  1  0
  3  4  2  0
  4  5  1  0
  6  5  2  0
  7  8  1  0
  7  1  1  0
  9  7  1  0
  9  8  1  0
 10  9  1  0
  2 11  1  0
  3 12  1  0
  5 13  1  0
  7 14  1  6
  8 15  1  0
  8 16  1  0
  9 17  1  6
 10 18  1  0
 10 19  1  0
 10 20  1  0
M  ISO  8  11  14  12  14  13  14  14  13  15  13  16  13  17  13  18   8
M  ISO  2  19   8  20   8
M  END
>  <minimizedAffinity>  (1) 
-3.59169626

>  <minimizedRMSD>  (1) 
0.0212830622

$$$$
