
     RDKit          3D

 38 42  0  0  0  0  0  0  0  0999 V2000
   36.4200   23.1340   31.9270 C   0  0  0  0  0  0  0  0  0  0  0  0
   36.0320   24.4380   31.6480 C   0  0  0  0  0  0  0  0  0  0  0  0
   36.7020   25.4090   32.3760 C   0  0  0  0  0  0  0  0  0  0  0  0
   37.6230   25.0220   33.2440 N   0  0  0  0  0  0  0  0  0  0  0  0
   38.0050   23.7950   33.5240 C   0  0  0  0  0  0  0  0  0  0  0  0
   37.3660   22.8770   32.8300 N   0  0  0  0  0  0  0  0  0  0  0  0
   38.9870   23.2530   34.4400 C   0  0  0  0  0  0  0  0  0  0  0  0
   40.1130   22.6060   33.9920 C   0  0  0  0  0  0  0  0  0  0  0  0
   41.0800   22.0710   34.8080 C   0  0  0  0  0  0  0  0  0  0  0  0
   40.9530   22.1650   36.1780 C   0  0  0  0  0  0  0  0  0  0  0  0
   39.8470   22.8010   36.6670 C   0  0  0  0  0  0  0  0  0  0  0  0
   39.7100   22.9020   38.0490 C   0  0  0  0  0  0  0  0  0  0  0  0
   38.6490   23.5150   38.6200 C   0  0  0  0  0  0  0  0  0  0  0  0
   37.6860   24.0480   37.7740 C   0  0  0  0  0  0  0  0  0  0  0  0
   37.8490   23.9320   36.4110 C   0  0  0  0  0  0  0  0  0  0  0  0
   38.9050   23.3220   35.8190 C   0  0  0  0  0  0  0  0  0  0  0  0
   36.4080   26.7790   32.1960 N   0  0  0  0  0  0  0  0  0  0  0  0
   36.1720   27.4100   31.0440 C   0  0  0  0  0  0  0  0  0  0  0  0
   35.9260   28.6970   31.2550 N   0  0  0  0  0  0  0  0  0  0  0  0
   36.0070   28.9050   32.5760 C   0  0  0  0  0  0  0  0  0  0  0  0
   36.3040   27.7170   33.1360 N   0  0  0  0  0  0  0  0  0  0  0  0
   35.8150   30.1780   33.3090 C   0  0  0  0  0  0  0  0  0  0  0  0
   35.6580   31.5670   32.7730 C   0  0  0  0  0  0  0  0  0  0  0  0
   35.4740   32.5000   34.3370 S   0  0  0  0  0  0  0  0  0  0  0  0
   35.6320   30.9370   35.4010 C   0  0  0  0  0  0  0  0  0  0  0  0
   35.7830   30.0030   34.6330 N   0  0  0  0  0  0  0  0  0  0  0  0
   35.9391   22.3003   31.3944 H   0  0  0  0  0  0  0  0  0  0  0  0
   35.2550   24.6810   30.9083 H   0  0  0  0  0  0  0  0  0  0  0  0
   40.2498   22.5097   32.9048 H   0  0  0  0  0  0  0  0  0  0  0  0
   41.9545   21.5683   34.3692 H   0  0  0  0  0  0  0  0  0  0  0  0
   41.7136   21.7437   36.8518 H   0  0  0  0  0  0  0  0  0  0  0  0
   40.4883   22.4701   38.6954 H   0  0  0  0  0  0  0  0  0  0  0  0
   38.5524   23.5886   39.7133 H   0  0  0  0  0  0  0  0  0  0  0  0
   36.8028   24.5572   38.1873 H   0  0  0  0  0  0  0  0  0  0  0  0
   37.0724   24.3620   35.7613 H   0  0  0  0  0  0  0  0  0  0  0  0
   36.1802   26.9291   30.0547 H   0  0  0  0  0  0  0  0  0  0  0  0
   35.6543   31.9256   31.7331 H   0  0  0  0  0  0  0  0  0  0  0  0
   35.5945   30.8842   36.4991 H   0  0  0  0  0  0  0  0  0  0  0  0
  1  6  2  0
  2  1  1  0
  2  3  2  0
  3  4  1  0
  4  5  2  0
  5  7  1  0
  6  5  1  0
  7 16  1  0
  8  7  2  0
  8  9  1  0
  9 10  2  0
 10 11  1  0
 11 12  2  0
 12 13  1  0
 14 13  2  0
 15 14  1  0
 16 15  2  0
 16 11  1  0
 17  3  1  0
 17 21  1  0
 18 19  2  0
 18 17  1  0
 19 20  1  0
 20 21  2  0
 20 22  1  0
 22 26  1  0
 23 22  2  0
 23 24  1  0
 24 25  1  0
 26 25  2  0
  1 27  1  0
  2 28  1  0
  8 29  1  0
  9 30  1  0
 10 31  1  0
 12 32  1  0
 13 33  1  0
 14 34  1  0
 15 35  1  0
 18 36  1  0
 23 37  1  0
 25 38  1  0
M  ISO  8  27  14  28  14  29  14  30  14  31  14  32  14  33  14  34  14
M  ISO  4  35  14  36  14  37  14  38  14
M  END
>  <minimizedAffinity>  (1) 
-6.2443943

>  <minimizedRMSD>  (1) 
0.737229407

$$$$
