
     RDKit          3D

 44 46  0  0  1  0  0  0  0  0999 V2000
   37.8560   26.8330   33.3960 C   0  0  0  0  0  0  0  0  0  0  0  0
   37.7560   25.6820   35.7380 C   0  0  1  0  0  0  0  0  0  0  0  0
   38.2610   27.1190   35.9310 C   0  0  0  0  0  0  0  0  0  0  0  0
   38.4590   26.3640   34.6730 C   0  0  2  0  0  0  0  0  0  0  0  0
   38.4180   24.6400   36.5780 C   0  0  0  0  0  0  0  0  0  0  0  0
   39.5050   23.8890   35.9950 C   0  0  0  0  0  0  0  0  0  0  0  0
   40.1230   22.9250   36.8040 C   0  0  0  0  0  0  0  0  0  0  0  0
   39.6610   22.7530   38.0890 N   0  0  0  0  0  0  0  0  0  0  0  0
   38.6340   23.4930   38.5720 C   0  0  0  0  0  0  0  0  0  0  0  0
   38.0170   24.4230   37.8350 N   0  0  0  0  0  0  0  0  0  0  0  0
   37.0140   25.6810   32.8070 C   0  0  0  0  0  0  0  0  0  0  0  0
   36.8130   27.9410   33.6210 C   0  0  0  0  0  0  0  0  0  0  0  0
   38.7430   27.3160   32.3380 C   0  0  0  0  0  0  0  0  0  0  0  0
   40.0740   26.9180   32.2580 N   0  0  0  0  0  0  0  0  0  0  0  0
   41.1130   27.5260   32.9550 C   0  0  0  0  0  0  0  0  0  0  0  0
   42.3900   27.6440   32.0850 C   0  0  0  0  0  0  0  0  0  0  0  0
   42.8920   26.2620   31.8220 C   0  0  0  0  0  0  0  0  0  0  0  0
   41.7730   25.2820   31.9250 C   0  0  0  0  0  0  0  0  0  0  0  0
   40.4360   25.8290   31.4270 C   0  0  0  0  0  0  0  0  0  0  0  0
   36.7984   25.1420   35.7744 H   0  0  0  0  0  0  0  0  0  0  0  0
   37.5513   27.9584   35.9714 H   0  0  0  0  0  0  0  0  0  0  0  0
   38.9061   27.6431   36.6516 H   0  0  0  0  0  0  0  0  0  0  0  0
   39.3224   26.0659   34.0600 H   0  0  0  0  0  0  0  0  0  0  0  0
   39.8341   24.0657   34.9604 H   0  0  0  0  0  0  0  0  0  0  0  0
   40.9579   22.3201   36.4205 H   0  0  0  0  0  0  0  0  0  0  0  0
   38.2963   23.3232   39.6050 H   0  0  0  0  0  0  0  0  0  0  0  0
   36.5805   25.0879   33.6257 H   0  0  0  0  0  0  0  0  0  0  0  0
   36.2056   26.0971   32.1878 H   0  0  0  0  0  0  0  0  0  0  0  0
   37.6559   25.0371   32.1878 H   0  0  0  0  0  0  0  0  0  0  0  0
   36.6684   28.0947   34.7006 H   0  0  0  0  0  0  0  0  0  0  0  0
   37.1664   28.8760   33.1617 H   0  0  0  0  0  0  0  0  0  0  0  0
   35.8584   27.6447   33.1617 H   0  0  0  0  0  0  0  0  0  0  0  0
   38.2756   27.0240   31.3860 H   0  0  0  0  0  0  0  0  0  0  0  0
   38.8337   28.3852   32.5801 H   0  0  0  0  0  0  0  0  0  0  0  0
   40.7956   28.5335   33.2620 H   0  0  0  0  0  0  0  0  0  0  0  0
   41.3495   26.9050   33.8316 H   0  0  0  0  0  0  0  0  0  0  0  0
   42.1504   28.1424   31.1341 H   0  0  0  0  0  0  0  0  0  0  0  0
   43.1556   28.2387   32.6047 H   0  0  0  0  0  0  0  0  0  0  0  0
   43.6661   26.0093   32.5615 H   0  0  0  0  0  0  0  0  0  0  0  0
   43.3153   26.2197   30.8076 H   0  0  0  0  0  0  0  0  0  0  0  0
   42.0307   24.3952   31.3274 H   0  0  0  0  0  0  0  0  0  0  0  0
   41.6482   25.0443   32.9917 H   0  0  0  0  0  0  0  0  0  0  0  0
   40.5363   26.1704   30.3861 H   0  0  0  0  0  0  0  0  0  0  0  0
   39.6642   25.0460   31.4637 H   0  0  0  0  0  0  0  0  0  0  0  0
  1 12  1  0
  1  4  1  0
  2  3  1  0
  2  5  1  0
  4  2  1  0
  4  3  1  0
  5 10  1  0
  6  5  2  0
  6  7  1  0
  7  8  2  0
  8  9  1  0
 10  9  2  0
 11  1  1  0
 13  1  1  0
 14 13  1  0
 14 15  1  0
 16 15  1  0
 17 18  1  0
 17 16  1  0
 19 18  1  0
 19 14  1  0
  2 20  1  6
  3 21  1  0
  3 22  1  0
  4 23  1  6
  6 24  1  0
  7 25  1  0
  9 26  1  0
 11 27  1  0
 11 28  1  0
 11 29  1  0
 12 30  1  0
 12 31  1  0
 12 32  1  0
 13 33  1  0
 13 34  1  0
 15 35  1  0
 15 36  1  0
 16 37  1  0
 16 38  1  0
 17 39  1  0
 17 40  1  0
 18 41  1  0
 18 42  1  0
 19 43  1  0
 19 44  1  0
M  ISO  8  20  13  21  13  22  13  23  13  24  14  25  14  26  14  27   8
M  ISO  8  28   8  29   8  30   8  31   8  32   8  33   8  34   8  35  13
M  ISO  8  36  13  37  13  38  13  39  13  40  13  41  13  42  13  43  13
M  ISO  1  44  13
M  END
>  <minimizedAffinity>  (1) 
-4.48843813

>  <minimizedRMSD>  (1) 
1.18240619

$$$$
