
     RDKit          3D

 29 31  0  0  1  0  0  0  0  0999 V2000
   40.9330   22.0650   36.5690 C   0  0  0  0  0  0  0  0  0  0  0  0
   41.4520   21.9760   35.2790 C   0  0  0  0  0  0  0  0  0  0  0  0
   42.4610   21.0170   35.4010 C   0  0  0  0  0  0  0  0  0  0  0  0
   42.5400   20.5640   36.6740 N   0  0  0  0  0  0  0  0  0  0  0  0
   41.6110   21.2150   37.3370 N   0  0  0  0  0  0  0  0  0  0  0  0
   39.1860   23.7420   36.0290 C   0  0  0  0  0  0  0  0  0  0  0  0
   39.8490   22.9370   36.9670 C   0  0  0  0  0  0  0  0  0  0  0  0
   39.4660   22.9710   38.3010 C   0  0  0  0  0  0  0  0  0  0  0  0
   38.4370   23.8080   38.6340 N   0  0  0  0  0  0  0  0  0  0  0  0
   37.8100   24.5790   37.7100 C   0  0  0  0  0  0  0  0  0  0  0  0
   38.1870   24.5360   36.4320 N   0  0  0  0  0  0  0  0  0  0  0  0
   42.8360   18.2860   37.3420 N   0  0  0  0  0  0  0  0  0  0  0  0
   43.9990   17.4380   37.6450 C   0  0  0  0  0  0  0  0  0  0  0  0
   45.1580   18.0100   36.8580 C   0  0  0  0  0  0  0  0  0  0  0  0
   44.5390   19.2130   36.1340 C   0  0  0  0  0  0  0  0  0  0  0  0
   43.4600   19.5790   37.1500 C   0  0  1  0  0  0  0  0  0  0  0  0
   41.1417   22.5284   34.3798 H   0  0  0  0  0  0  0  0  0  0  0  0
   43.1033   20.6768   34.5753 H   0  0  0  0  0  0  0  0  0  0  0  0
   39.4848   23.7208   34.9706 H   0  0  0  0  0  0  0  0  0  0  0  0
   39.9688   22.3511   39.0579 H   0  0  0  0  0  0  0  0  0  0  0  0
   36.9876   25.2420   38.0166 H   0  0  0  0  0  0  0  0  0  0  0  0
   42.3535   17.9711   36.4882 H   0  0  0  0  0  0  0  0  0  0  0  0
   44.2198   17.4651   38.7223 H   0  0  0  0  0  0  0  0  0  0  0  0
   43.8104   16.3888   37.3736 H   0  0  0  0  0  0  0  0  0  0  0  0
   45.9693   18.3293   37.5286 H   0  0  0  0  0  0  0  0  0  0  0  0
   45.6100   17.2811   36.1693 H   0  0  0  0  0  0  0  0  0  0  0  0
   45.2652   20.0272   35.9931 H   0  0  0  0  0  0  0  0  0  0  0  0
   44.1784   19.0150   35.1138 H   0  0  0  0  0  0  0  0  0  0  0  0
   43.8488   20.0479   38.0659 H   0  0  0  0  0  0  0  0  0  0  0  0
  1  7  1  0
  1  5  2  0
  2  3  2  0
  2  1  1  0
  3  4  1  0
  4 16  1  0
  4  5  1  0
  6 11  2  0
  6  7  1  0
  7  8  2  0
  8  9  1  0
 10  9  2  0
 11 10  1  0
 12 13  1  0
 14 13  1  0
 15 14  1  0
 16 15  1  0
 16 12  1  0
  2 17  1  0
  3 18  1  0
  6 19  1  0
  8 20  1  0
 10 21  1  0
 12 22  1  0
 13 23  1  0
 13 24  1  0
 14 25  1  0
 14 26  1  0
 15 27  1  0
 15 28  1  0
 16 29  1  1
M  ISO  8  17  14  18  14  19  14  20  14  21  14  22   5  23  13  24  13
M  ISO  5  25  13  26  13  27  13  28  13  29  13
M  END
>  <minimizedAffinity>  (1) 
-3.78282928

>  <minimizedRMSD>  (1) 
0.900440276

$$$$
