
     RDKit          3D

 30 32  0  0  1  0  0  0  0  0999 V2000
   41.2570   22.3880   36.7690 C   0  0  0  0  0  0  0  0  0  0  0  0
   42.4590   23.0360   36.4480 C   0  0  0  0  0  0  0  0  0  0  0  0
   43.3780   21.9860   36.3850 C   0  0  0  0  0  0  0  0  0  0  0  0
   42.7720   20.7980   36.6470 N   0  0  0  0  0  0  0  0  0  0  0  0
   41.5020   21.0820   36.8720 N   0  0  0  0  0  0  0  0  0  0  0  0
   42.8060   18.6240   37.6180 N   0  0  0  0  0  0  0  0  0  0  0  0
   43.5130   17.3660   37.3230 C   0  0  0  0  0  0  0  0  0  0  0  0
   43.7260   17.3590   35.8300 C   0  0  0  0  0  0  0  0  0  0  0  0
   43.2570   18.7410   35.3670 C   0  0  0  0  0  0  0  0  0  0  0  0
   43.4120   19.5160   36.6680 C   0  0  1  0  0  0  0  0  0  0  0  0
   44.7630   19.5960   36.9660 O   0  0  0  0  0  0  0  0  0  0  0  0
   39.3530   23.6810   35.8650 C   0  0  0  0  0  0  0  0  0  0  0  0
   39.9860   23.0380   36.9520 C   0  0  0  0  0  0  0  0  0  0  0  0
   39.3840   23.0400   38.1920 C   0  0  0  0  0  0  0  0  0  0  0  0
   38.1780   23.6800   38.3040 N   0  0  0  0  0  0  0  0  0  0  0  0
   37.5880   24.2950   37.2350 C   0  0  0  0  0  0  0  0  0  0  0  0
   38.1800   24.2880   36.0300 N   0  0  0  0  0  0  0  0  0  0  0  0
   42.6350   24.1096   36.2855 H   0  0  0  0  0  0  0  0  0  0  0  0
   44.4471   22.1045   36.1546 H   0  0  0  0  0  0  0  0  0  0  0  0
   41.7926   18.5338   37.4575 H   0  0  0  0  0  0  0  0  0  0  0  0
   44.4789   17.3364   37.8485 H   0  0  0  0  0  0  0  0  0  0  0  0
   42.9381   16.4892   37.6555 H   0  0  0  0  0  0  0  0  0  0  0  0
   44.7890   17.2090   35.5900 H   0  0  0  0  0  0  0  0  0  0  0  0
   43.1778   16.5444   35.3340 H   0  0  0  0  0  0  0  0  0  0  0  0
   43.8992   19.1455   34.5708 H   0  0  0  0  0  0  0  0  0  0  0  0
   42.2492   18.7672   34.9269 H   0  0  0  0  0  0  0  0  0  0  0  0
   44.8843   19.6032   37.9485 H   0  0  0  0  0  0  0  0  0  0  0  0
   39.8329   23.6800   34.8752 H   0  0  0  0  0  0  0  0  0  0  0  0
   39.8530   22.5476   39.0566 H   0  0  0  0  0  0  0  0  0  0  0  0
   36.6193   24.8002   37.3633 H   0  0  0  0  0  0  0  0  0  0  0  0
  1  5  2  0
  1 13  1  0
  2  1  1  0
  3  2  2  0
  3  4  1  0
  4 10  1  0
  4  5  1  0
  7  6  1  0
  8  7  1  0
  9  8  1  0
  9 10  1  0
 10 11  1  1
 10  6  1  0
 12 17  2  0
 12 13  1  0
 13 14  2  0
 14 15  1  0
 16 15  2  0
 17 16  1  0
  2 18  1  0
  3 19  1  0
  6 20  1  0
  7 21  1  0
  7 22  1  0
  8 23  1  0
  8 24  1  0
  9 25  1  0
  9 26  1  0
 11 27  1  0
 12 28  1  0
 14 29  1  0
 16 30  1  0
M  ISO  8  18  14  19  14  20   5  21  13  22  13  23  13  24  13  25  13
M  ISO  5  26  13  27   3  28  14  29  14  30  14
M  END
>  <minimizedAffinity>  (1) 
-4.15339756

>  <minimizedRMSD>  (1) 
1.00950575

$$$$
