
     RDKit          3D

 31 33  0  0  1  0  0  0  0  0999 V2000
   40.8400   22.2050   36.3030 C   0  0  0  0  0  0  0  0  0  0  0  0
   41.3370   22.3720   35.0080 C   0  0  0  0  0  0  0  0  0  0  0  0
   42.3190   21.3800   34.9140 C   0  0  0  0  0  0  0  0  0  0  0  0
   42.4070   20.6740   36.0560 N   0  0  0  0  0  0  0  0  0  0  0  0
   41.5100   21.1920   36.8650 N   0  0  0  0  0  0  0  0  0  0  0  0
   42.9170   18.8020   37.4500 N   0  0  0  0  0  0  0  0  0  0  0  0
   43.8130   17.6540   37.3680 C   0  0  0  0  0  0  0  0  0  0  0  0
   44.1550   17.4660   35.8960 C   0  0  0  0  0  0  0  0  0  0  0  0
   43.2940   18.5310   35.2030 C   0  0  0  0  0  0  0  0  0  0  0  0
   43.3040   19.5880   36.3060 C   0  0  1  0  0  0  0  0  0  0  0  0
   44.6340   20.1170   36.4050 N   0  0  0  0  0  0  0  0  0  0  0  0
   38.9780   23.8140   36.1170 C   0  0  0  0  0  0  0  0  0  0  0  0
   39.7920   22.9920   36.9090 C   0  0  0  0  0  0  0  0  0  0  0  0
   39.5940   22.9320   38.2730 C   0  0  0  0  0  0  0  0  0  0  0  0
   38.5830   23.7070   38.7720 N   0  0  0  0  0  0  0  0  0  0  0  0
   37.8050   24.4950   37.9970 C   0  0  0  0  0  0  0  0  0  0  0  0
   38.0090   24.5390   36.6880 N   0  0  0  0  0  0  0  0  0  0  0  0
   41.0307   23.1052   34.2473 H   0  0  0  0  0  0  0  0  0  0  0  0
   42.9383   21.2006   34.0228 H   0  0  0  0  0  0  0  0  0  0  0  0
   41.9316   18.5096   37.3836 H   0  0  0  0  0  0  0  0  0  0  0  0
   44.7280   17.8458   37.9477 H   0  0  0  0  0  0  0  0  0  0  0  0
   43.3372   16.7521   37.7806 H   0  0  0  0  0  0  0  0  0  0  0  0
   45.2252   17.6424   35.7131 H   0  0  0  0  0  0  0  0  0  0  0  0
   43.9596   16.4464   35.5323 H   0  0  0  0  0  0  0  0  0  0  0  0
   43.7564   18.8972   34.2745 H   0  0  0  0  0  0  0  0  0  0  0  0
   42.2995   18.1978   34.8714 H   0  0  0  0  0  0  0  0  0  0  0  0
   44.8900   20.2188   37.3975 H   0  0  0  0  0  0  0  0  0  0  0  0
   45.2942   19.4745   35.9443 H   0  0  0  0  0  0  0  0  0  0  0  0
   39.1354   23.8628   35.0294 H   0  0  0  0  0  0  0  0  0  0  0  0
   40.2140   22.2969   38.9227 H   0  0  0  0  0  0  0  0  0  0  0  0
   37.0049   25.0980   38.4512 H   0  0  0  0  0  0  0  0  0  0  0  0
  1  5  2  0
  1 13  1  0
  2  1  1  0
  3  2  2  0
  3  4  1  0
  4 10  1  0
  4  5  1  0
  7  6  1  0
  8  7  1  0
  9  8  1  0
  9 10  1  0
 10 11  1  1
 10  6  1  0
 12 17  2  0
 12 13  1  0
 13 14  2  0
 14 15  1  0
 16 15  2  0
 17 16  1  0
  2 18  1  0
  3 19  1  0
  6 20  1  0
  7 21  1  0
  7 22  1  0
  8 23  1  0
  8 24  1  0
  9 25  1  0
  9 26  1  0
 11 27  1  0
 11 28  1  0
 12 29  1  0
 14 30  1  0
 16 31  1  0
M  ISO  8  18  14  19  14  20   5  21  13  22  13  23  13  24  13  25  13
M  ISO  6  26  13  27   5  28   5  29  14  30  14  31  14
M  END
>  <minimizedAffinity>  (1) 
-3.78240967

>  <minimizedRMSD>  (1) 
0.844462931

$$$$
