
     RDKit          3D

 32 34  0  0  1  0  0  0  0  0999 V2000
   40.8360   22.0240   36.2140 C   0  0  0  0  0  0  0  0  0  0  0  0
   41.1230   22.0670   34.8400 C   0  0  0  0  0  0  0  0  0  0  0  0
   42.2250   21.2170   34.7200 C   0  0  0  0  0  0  0  0  0  0  0  0
   42.5730   20.7020   35.9240 N   0  0  0  0  0  0  0  0  0  0  0  0
   41.7180   21.2090   36.7940 N   0  0  0  0  0  0  0  0  0  0  0  0
   43.5820   19.1790   37.4520 N   0  0  0  0  0  0  0  0  0  0  0  0
   44.6540   18.1820   37.3840 C   0  0  0  0  0  0  0  0  0  0  0  0
   44.7040   17.7260   35.9390 C   0  0  0  0  0  0  0  0  0  0  0  0
   43.6620   18.5930   35.2350 C   0  0  0  0  0  0  0  0  0  0  0  0
   43.6540   19.7970   36.1590 C   0  0  1  0  0  0  0  0  0  0  0  0
   44.9400   20.5680   35.9620 C   0  0  0  0  0  0  0  0  0  0  0  0
   38.7260   23.3060   36.1010 C   0  0  0  0  0  0  0  0  0  0  0  0
   39.7700   22.7450   36.8600 C   0  0  0  0  0  0  0  0  0  0  0  0
   39.7740   22.8870   38.2310 C   0  0  0  0  0  0  0  0  0  0  0  0
   38.7270   23.5890   38.7770 N   0  0  0  0  0  0  0  0  0  0  0  0
   37.7330   24.1200   38.0300 C   0  0  0  0  0  0  0  0  0  0  0  0
   37.7450   23.9740   36.7120 N   0  0  0  0  0  0  0  0  0  0  0  0
   40.6060   22.6323   34.0506 H   0  0  0  0  0  0  0  0  0  0  0  0
   42.7413   20.9953   33.7743 H   0  0  0  0  0  0  0  0  0  0  0  0
   42.6661   18.7319   37.6009 H   0  0  0  0  0  0  0  0  0  0  0  0
   45.6142   18.6316   37.6771 H   0  0  0  0  0  0  0  0  0  0  0  0
   44.4678   17.3405   38.0675 H   0  0  0  0  0  0  0  0  0  0  0  0
   45.7037   17.8935   35.5116 H   0  0  0  0  0  0  0  0  0  0  0  0
   44.5000   16.6506   35.8297 H   0  0  0  0  0  0  0  0  0  0  0  0
   43.9762   18.8625   34.2159 H   0  0  0  0  0  0  0  0  0  0  0  0
   42.6825   18.1141   35.0893 H   0  0  0  0  0  0  0  0  0  0  0  0
   45.3677   20.8244   36.9425 H   0  0  0  0  0  0  0  0  0  0  0  0
   45.6557   19.9499   35.4001 H   0  0  0  0  0  0  0  0  0  0  0  0
   44.7320   21.4905   35.4001 H   0  0  0  0  0  0  0  0  0  0  0  0
   38.7184   23.1943   35.0067 H   0  0  0  0  0  0  0  0  0  0  0  0
   40.5733   22.4607   38.8550 H   0  0  0  0  0  0  0  0  0  0  0  0
   36.9150   24.6727   38.5151 H   0  0  0  0  0  0  0  0  0  0  0  0
  1  5  2  0
  1 13  1  0
  2  1  1  0
  3  2  2  0
  3  4  1  0
  4 10  1  0
  4  5  1  0
  7  6  1  0
  8  7  1  0
  9  8  1  0
  9 10  1  0
 10 11  1  1
 10  6  1  0
 12 17  2  0
 12 13  1  0
 13 14  2  0
 14 15  1  0
 16 15  2  0
 17 16  1  0
  2 18  1  0
  3 19  1  0
  6 20  1  0
  7 21  1  0
  7 22  1  0
  8 23  1  0
  8 24  1  0
  9 25  1  0
  9 26  1  0
 11 27  1  0
 11 28  1  0
 11 29  1  0
 12 30  1  0
 14 31  1  0
 16 32  1  0
M  ISO  8  18  14  19  14  20   5  21  13  22  13  23  13  24  13  25  13
M  ISO  7  26  13  27   8  28   8  29   8  30  14  31  14  32  14
M  END
>  <minimizedAffinity>  (1) 
-3.75954795

>  <minimizedRMSD>  (1) 
1.00396597

$$$$
