
     RDKit          3D

 30 32  0  0  1  0  0  0  0  0999 V2000
   40.8450   22.0210   36.1990 C   0  0  0  0  0  0  0  0  0  0  0  0
   41.1320   22.0650   34.8380 C   0  0  0  0  0  0  0  0  0  0  0  0
   42.2370   21.2060   34.7130 C   0  0  0  0  0  0  0  0  0  0  0  0
   42.5820   20.6910   35.9190 N   0  0  0  0  0  0  0  0  0  0  0  0
   41.7230   21.2040   36.7740 N   0  0  0  0  0  0  0  0  0  0  0  0
   43.6220   19.1990   37.4560 N   0  0  0  0  0  0  0  0  0  0  0  0
   44.6540   18.1650   37.3770 C   0  0  0  0  0  0  0  0  0  0  0  0
   44.7150   17.7160   35.9390 C   0  0  0  0  0  0  0  0  0  0  0  0
   43.5980   18.5340   35.2780 C   0  0  0  0  0  0  0  0  0  0  0  0
   43.6580   19.7850   36.1470 C   0  0  1  0  0  0  0  0  0  0  0  0
   45.2940   20.5130   35.8680 S   0  0  0  0  0  0  0  0  0  0  0  0
   38.7320   23.3090   36.0940 C   0  0  0  0  0  0  0  0  0  0  0  0
   39.7800   22.7410   36.8450 C   0  0  0  0  0  0  0  0  0  0  0  0
   39.7820   22.8800   38.2170 C   0  0  0  0  0  0  0  0  0  0  0  0
   38.7470   23.5750   38.7860 N   0  0  0  0  0  0  0  0  0  0  0  0
   37.7420   24.1140   38.0310 C   0  0  0  0  0  0  0  0  0  0  0  0
   37.7500   23.9740   36.6980 N   0  0  0  0  0  0  0  0  0  0  0  0
   40.6178   22.6348   34.0500 H   0  0  0  0  0  0  0  0  0  0  0  0
   42.7514   20.9821   33.7668 H   0  0  0  0  0  0  0  0  0  0  0  0
   42.6986   18.7873   37.6528 H   0  0  0  0  0  0  0  0  0  0  0  0
   45.6261   18.5764   37.6864 H   0  0  0  0  0  0  0  0  0  0  0  0
   44.4184   17.3219   38.0430 H   0  0  0  0  0  0  0  0  0  0  0  0
   45.6932   17.9485   35.4928 H   0  0  0  0  0  0  0  0  0  0  0  0
   44.5892   16.6301   35.8168 H   0  0  0  0  0  0  0  0  0  0  0  0
   43.8198   18.7553   34.2236 H   0  0  0  0  0  0  0  0  0  0  0  0
   42.6165   18.0391   35.2351 H   0  0  0  0  0  0  0  0  0  0  0  0
   45.8879   20.7773   37.0739 H   0  0  0  0  0  0  0  0  0  0  0  0
   38.7253   23.2020   34.9992 H   0  0  0  0  0  0  0  0  0  0  0  0
   40.5853   22.4486   38.8324 H   0  0  0  0  0  0  0  0  0  0  0  0
   36.9243   24.6643   38.5194 H   0  0  0  0  0  0  0  0  0  0  0  0
  1  5  2  0
  1 13  1  0
  2  1  1  0
  3  2  2  0
  3  4  1  0
  4 10  1  0
  4  5  1  0
  7  6  1  0
  8  7  1  0
  9  8  1  0
  9 10  1  0
 10 11  1  1
 10  6  1  0
 12 17  2  0
 12 13  1  0
 13 14  2  0
 14 15  1  0
 16 15  2  0
 17 16  1  0
  2 18  1  0
  3 19  1  0
  6 20  1  0
  7 21  1  0
  7 22  1  0
  8 23  1  0
  8 24  1  0
  9 25  1  0
  9 26  1  0
 11 27  1  0
 12 28  1  0
 14 29  1  0
 16 30  1  0
M  ISO  8  18  14  19  14  20   5  21  13  22  13  23  13  24  13  25  13
M  ISO  5  26  13  27  11  28  14  29  14  30  14
M  END
>  <minimizedAffinity>  (1) 
-3.72627163

>  <minimizedRMSD>  (1) 
1.05909157

$$$$
