
     RDKit          3D

 35 37  0  0  1  0  0  0  0  0999 V2000
   40.7700   22.1490   36.2800 C   0  0  0  0  0  0  0  0  0  0  0  0
   41.1310   22.2050   34.9250 C   0  0  0  0  0  0  0  0  0  0  0  0
   42.1240   21.2310   34.8160 C   0  0  0  0  0  0  0  0  0  0  0  0
   42.3420   20.6340   36.0210 N   0  0  0  0  0  0  0  0  0  0  0  0
   41.5130   21.2140   36.8560 N   0  0  0  0  0  0  0  0  0  0  0  0
   42.8900   18.7430   37.3620 N   0  0  0  0  0  0  0  0  0  0  0  0
   43.9150   17.6820   37.2960 C   0  0  0  0  0  0  0  0  0  0  0  0
   44.2450   17.5090   35.8370 C   0  0  0  0  0  0  0  0  0  0  0  0
   43.4150   18.5920   35.1320 C   0  0  0  0  0  0  0  0  0  0  0  0
   43.2890   19.5930   36.2760 C   0  0  1  0  0  0  0  0  0  0  0  0
   44.6320   20.2520   36.5150 C   0  0  0  0  0  0  0  0  0  0  0  0
   45.1940   20.6780   35.1790 C   0  0  0  0  0  0  0  0  0  0  0  0
   38.9760   23.8480   36.1260 C   0  0  0  0  0  0  0  0  0  0  0  0
   39.7670   22.9770   36.8980 C   0  0  0  0  0  0  0  0  0  0  0  0
   39.5830   22.9170   38.2630 C   0  0  0  0  0  0  0  0  0  0  0  0
   38.6150   23.7310   38.7940 N   0  0  0  0  0  0  0  0  0  0  0  0
   37.8640   24.5640   38.0300 C   0  0  0  0  0  0  0  0  0  0  0  0
   38.0510   24.6140   36.7010 N   0  0  0  0  0  0  0  0  0  0  0  0
   40.7280   22.8595   34.1381 H   0  0  0  0  0  0  0  0  0  0  0  0
   42.6566   20.9801   33.8868 H   0  0  0  0  0  0  0  0  0  0  0  0
   41.9443   18.3625   37.2143 H   0  0  0  0  0  0  0  0  0  0  0  0
   44.8121   17.9826   37.8571 H   0  0  0  0  0  0  0  0  0  0  0  0
   43.5505   16.7435   37.7392 H   0  0  0  0  0  0  0  0  0  0  0  0
   45.3195   17.6634   35.6591 H   0  0  0  0  0  0  0  0  0  0  0  0
   44.0162   16.4975   35.4703 H   0  0  0  0  0  0  0  0  0  0  0  0
   43.9459   19.0195   34.2687 H   0  0  0  0  0  0  0  0  0  0  0  0
   42.4626   18.2480   34.7024 H   0  0  0  0  0  0  0  0  0  0  0  0
   44.5049   21.1318   37.1630 H   0  0  0  0  0  0  0  0  0  0  0  0
   45.3180   19.5477   37.0083 H   0  0  0  0  0  0  0  0  0  0  0  0
   46.0613   21.3354   35.3389 H   0  0  0  0  0  0  0  0  0  0  0  0
   45.5075   19.7886   34.6127 H   0  0  0  0  0  0  0  0  0  0  0  0
   44.4224   21.2201   34.6127 H   0  0  0  0  0  0  0  0  0  0  0  0
   39.1233   23.8965   35.0370 H   0  0  0  0  0  0  0  0  0  0  0  0
   40.1840   22.2480   38.8964 H   0  0  0  0  0  0  0  0  0  0  0  0
   37.0999   25.2001   38.5006 H   0  0  0  0  0  0  0  0  0  0  0  0
  1  5  2  0
  1 14  1  0
  2  1  1  0
  3  2  2  0
  3  4  1  0
  4 10  1  0
  4  5  1  0
  7  6  1  0
  8  7  1  0
  9  8  1  0
  9 10  1  0
 10 11  1  1
 10  6  1  0
 12 11  1  0
 13 18  2  0
 13 14  1  0
 14 15  2  0
 15 16  1  0
 17 16  2  0
 18 17  1  0
  2 19  1  0
  3 20  1  0
  6 21  1  0
  7 22  1  0
  7 23  1  0
  8 24  1  0
  8 25  1  0
  9 26  1  0
  9 27  1  0
 11 28  1  0
 11 29  1  0
 12 30  1  0
 12 31  1  0
 12 32  1  0
 13 33  1  0
 15 34  1  0
 17 35  1  0
M  ISO  8  19  14  20  14  21   5  22  13  23  13  24  13  25  13  26  13
M  ISO  8  27  13  28   8  29   8  30   8  31   8  32   8  33  14  34  14
M  ISO  1  35  14
M  END
>  <minimizedAffinity>  (1) 
-3.61422968

>  <minimizedRMSD>  (1) 
1.22245598

$$$$
