
     RDKit          3D

 38 41  0  0  0  0  0  0  0  0999 V2000
   39.1880   24.2200   34.5440 C   0  0  0  0  0  0  0  0  0  0  0  0
   40.3990   23.7980   34.0260 C   0  0  0  0  0  0  0  0  0  0  0  0
   41.3680   23.1440   34.7580 C   0  0  0  0  0  0  0  0  0  0  0  0
   41.1550   22.8760   36.0920 C   0  0  0  0  0  0  0  0  0  0  0  0
   39.9790   23.2720   36.6450 C   0  0  0  0  0  0  0  0  0  0  0  0
   39.7690   23.0010   37.9850 C   0  0  0  0  0  0  0  0  0  0  0  0
   38.6190   23.3640   38.6190 C   0  0  0  0  0  0  0  0  0  0  0  0
   37.6540   24.0220   37.8670 C   0  0  0  0  0  0  0  0  0  0  0  0
   37.8930   24.2770   36.5370 C   0  0  0  0  0  0  0  0  0  0  0  0
   39.0370   23.9200   35.8910 C   0  0  0  0  0  0  0  0  0  0  0  0
   36.8080   24.5710   31.8800 C   0  0  0  0  0  0  0  0  0  0  0  0
   36.2930   25.8660   31.9320 C   0  0  0  0  0  0  0  0  0  0  0  0
   36.8100   26.6460   32.9520 C   0  0  0  0  0  0  0  0  0  0  0  0
   37.7140   26.1150   33.7600 N   0  0  0  0  0  0  0  0  0  0  0  0
   38.2080   24.9040   33.7240 C   0  0  0  0  0  0  0  0  0  0  0  0
   37.7200   24.1660   32.7610 N   0  0  0  0  0  0  0  0  0  0  0  0
   36.3760   27.9810   33.1220 N   0  0  0  0  0  0  0  0  0  0  0  0
   36.3560   28.9520   32.2060 C   0  0  0  0  0  0  0  0  0  0  0  0
   35.8820   30.0850   32.7230 N   0  0  0  0  0  0  0  0  0  0  0  0
   35.5900   29.8370   34.0040 C   0  0  0  0  0  0  0  0  0  0  0  0
   35.8980   28.5450   34.2360 N   0  0  0  0  0  0  0  0  0  0  0  0
   35.0340   30.7420   35.0480 C   0  0  0  0  0  0  0  0  0  0  0  0
   36.1140   31.4260   35.8530 C   0  0  0  0  0  0  0  0  0  0  0  0
   40.6022   23.9964   32.9633 H   0  0  0  0  0  0  0  0  0  0  0  0
   42.3087   22.8372   34.2774 H   0  0  0  0  0  0  0  0  0  0  0  0
   41.9157   22.3560   36.6928 H   0  0  0  0  0  0  0  0  0  0  0  0
   40.5517   22.4782   38.5542 H   0  0  0  0  0  0  0  0  0  0  0  0
   38.4608   23.1445   39.6852 H   0  0  0  0  0  0  0  0  0  0  0  0
   36.7075   24.3361   38.3311 H   0  0  0  0  0  0  0  0  0  0  0  0
   37.1147   24.7998   35.9617 H   0  0  0  0  0  0  0  0  0  0  0  0
   36.4567   23.8767   31.1025 H   0  0  0  0  0  0  0  0  0  0  0  0
   35.5391   26.2366   31.2219 H   0  0  0  0  0  0  0  0  0  0  0  0
   36.6866   28.8327   31.1637 H   0  0  0  0  0  0  0  0  0  0  0  0
   34.4187   31.5107   34.5576 H   0  0  0  0  0  0  0  0  0  0  0  0
   34.4379   30.1289   35.7399 H   0  0  0  0  0  0  0  0  0  0  0  0
   35.9093   31.2963   36.9260 H   0  0  0  0  0  0  0  0  0  0  0  0
   37.0901   30.9811   35.6096 H   0  0  0  0  0  0  0  0  0  0  0  0
   36.1290   32.4986   35.6096 H   0  0  0  0  0  0  0  0  0  0  0  0
  1 10  1  0
  2  1  2  0
  2  3  1  0
  3  4  2  0
  4  5  1  0
  5  6  2  0
  6  7  1  0
  8  7  2  0
  9  8  1  0
 10  9  2  0
 10  5  1  0
 11 12  2  0
 11 16  1  0
 12 13  1  0
 13 17  1  0
 13 14  2  0
 15 14  1  0
 15  1  1  0
 16 15  2  0
 17 21  1  0
 18 19  2  0
 18 17  1  0
 19 20  1  0
 20 21  2  0
 20 22  1  0
 22 23  1  0
  2 24  1  0
  3 25  1  0
  4 26  1  0
  6 27  1  0
  7 28  1  0
  8 29  1  0
  9 30  1  0
 11 31  1  0
 12 32  1  0
 18 33  1  0
 22 34  1  0
 22 35  1  0
 23 36  1  0
 23 37  1  0
 23 38  1  0
M  ISO  8  24  14  25  14  26  14  27  14  28  14  29  14  30  14  31  14
M  ISO  7  32  14  33  14  34   8  35   8  36   8  37   8  38   8
M  END
>  <minimizedAffinity>  (1) 
-6.02850151

>  <minimizedRMSD>  (1) 
1.63937485

$$$$
