
     RDKit          3D

 38 40  0  0  1  0  0  0  0  0999 V2000
   38.6670   24.4470   32.1590 C   0  0  0  0  0  0  0  0  0  0  0  0
   39.7270   24.1340   31.3080 C   0  0  0  0  0  0  0  0  0  0  0  0
   40.7940   23.9180   32.1820 C   0  0  0  0  0  0  0  0  0  0  0  0
   40.4000   24.0910   33.4660 N   0  0  0  0  0  0  0  0  0  0  0  0
   39.1200   24.4070   33.4160 N   0  0  0  0  0  0  0  0  0  0  0  0
   40.5390   23.3670   35.7370 N   0  0  0  0  0  0  0  0  0  0  0  0
   41.6310   23.1380   36.6920 C   0  0  0  0  0  0  0  0  0  0  0  0
   42.8640   22.8490   35.8690 C   0  0  0  0  0  0  0  0  0  0  0  0
   42.3820   22.9890   34.4320 C   0  0  0  0  0  0  0  0  0  0  0  0
   41.2350   23.9490   34.6170 C   0  0  1  0  0  0  0  0  0  0  0  0
   41.7960   25.3150   34.9530 C   0  0  0  0  0  0  0  0  0  0  0  0
   40.7310   26.3840   34.9050 C   0  0  0  0  0  0  0  0  0  0  0  0
   42.8250   25.6690   33.9000 C   0  0  0  0  0  0  0  0  0  0  0  0
   36.3500   23.7650   31.6340 C   0  0  0  0  0  0  0  0  0  0  0  0
   37.3250   24.7570   31.7280 C   0  0  0  0  0  0  0  0  0  0  0  0
   37.0060   26.0640   31.4010 C   0  0  0  0  0  0  0  0  0  0  0  0
   35.7140   26.3110   30.9950 N   0  0  0  0  0  0  0  0  0  0  0  0
   34.7850   25.3160   30.9150 C   0  0  0  0  0  0  0  0  0  0  0  0
   35.1140   24.0670   31.2340 N   0  0  0  0  0  0  0  0  0  0  0  0
   39.7231   24.0721   30.2097 H   0  0  0  0  0  0  0  0  0  0  0  0
   41.8132   23.6452   31.8709 H   0  0  0  0  0  0  0  0  0  0  0  0
   40.0807   22.4829   35.4740 H   0  0  0  0  0  0  0  0  0  0  0  0
   41.7884   24.0332   37.3116 H   0  0  0  0  0  0  0  0  0  0  0  0
   41.3994   22.3031   37.3698 H   0  0  0  0  0  0  0  0  0  0  0  0
   43.6604   23.5755   36.0878 H   0  0  0  0  0  0  0  0  0  0  0  0
   43.2933   21.8583   36.0792 H   0  0  0  0  0  0  0  0  0  0  0  0
   42.0431   22.0261   34.0221 H   0  0  0  0  0  0  0  0  0  0  0  0
   43.1514   23.3268   33.7222 H   0  0  0  0  0  0  0  0  0  0  0  0
   42.2196   25.2724   35.9673 H   0  0  0  0  0  0  0  0  0  0  0  0
   40.4491   26.6670   35.9299 H   0  0  0  0  0  0  0  0  0  0  0  0
   41.1203   27.2658   34.3751 H   0  0  0  0  0  0  0  0  0  0  0  0
   39.8477   25.9981   34.3751 H   0  0  0  0  0  0  0  0  0  0  0  0
   43.7561   25.9893   34.3903 H   0  0  0  0  0  0  0  0  0  0  0  0
   43.0254   24.7881   33.2724 H   0  0  0  0  0  0  0  0  0  0  0  0
   42.4410   26.4867   33.2724 H   0  0  0  0  0  0  0  0  0  0  0  0
   36.6019   22.7257   31.8916 H   0  0  0  0  0  0  0  0  0  0  0  0
   37.7523   26.8698   31.4629 H   0  0  0  0  0  0  0  0  0  0  0  0
   33.7610   25.5466   30.5859 H   0  0  0  0  0  0  0  0  0  0  0  0
  1  5  2  0
  2  1  1  0
  2  3  2  0
  3  4  1  0
  4 10  1  0
  5  4  1  0
  6  7  1  0
  8  7  1  0
  9 10  1  0
  9  8  1  0
 10 11  1  1
 10  6  1  0
 12 11  1  0
 13 11  1  0
 14 15  2  0
 15  1  1  0
 16 15  1  0
 17 16  2  0
 18 17  1  0
 18 19  2  0
 19 14  1  0
  2 20  1  0
  3 21  1  0
  6 22  1  0
  7 23  1  0
  7 24  1  0
  8 25  1  0
  8 26  1  0
  9 27  1  0
  9 28  1  0
 11 29  1  0
 12 30  1  0
 12 31  1  0
 12 32  1  0
 13 33  1  0
 13 34  1  0
 13 35  1  0
 14 36  1  0
 16 37  1  0
 18 38  1  0
M  ISO  8  20  14  21  14  22   5  23  13  24  13  25  13  26  13  27  13
M  ISO  8  28  13  29   8  30   8  31   8  32   8  33   8  34   8  35   8
M  ISO  3  36  14  37  14  38  14
M  END
>  <minimizedAffinity>  (1) 
-3.63123965

>  <minimizedRMSD>  (1) 
6.23146105

$$$$
