
     RDKit          3D

 35 38  0  0  0  0  0  0  0  0999 V2000
   39.0140   23.2100   34.4290 C   0  0  0  0  0  0  0  0  0  0  0  0
   40.1630   22.5820   34.0120 C   0  0  0  0  0  0  0  0  0  0  0  0
   41.1280   22.0850   34.8590 C   0  0  0  0  0  0  0  0  0  0  0  0
   40.9770   22.2010   36.2160 C   0  0  0  0  0  0  0  0  0  0  0  0
   39.8650   22.8120   36.6830 C   0  0  0  0  0  0  0  0  0  0  0  0
   39.7150   22.9270   38.0560 C   0  0  0  0  0  0  0  0  0  0  0  0
   38.6340   23.5240   38.6170 C   0  0  0  0  0  0  0  0  0  0  0  0
   37.6560   24.0280   37.7410 C   0  0  0  0  0  0  0  0  0  0  0  0
   37.8430   23.8910   36.3880 C   0  0  0  0  0  0  0  0  0  0  0  0
   38.9170   23.2990   35.8140 C   0  0  0  0  0  0  0  0  0  0  0  0
   36.3880   22.9680   32.0000 C   0  0  0  0  0  0  0  0  0  0  0  0
   36.0240   24.2650   31.6380 C   0  0  0  0  0  0  0  0  0  0  0  0
   36.7260   25.2510   32.2700 C   0  0  0  0  0  0  0  0  0  0  0  0
   37.6620   24.9190   33.1450 N   0  0  0  0  0  0  0  0  0  0  0  0
   38.0250   23.7200   33.5020 C   0  0  0  0  0  0  0  0  0  0  0  0
   37.3510   22.7630   32.8950 N   0  0  0  0  0  0  0  0  0  0  0  0
   36.4740   26.6320   32.0120 N   0  0  0  0  0  0  0  0  0  0  0  0
   36.4060   27.2110   30.7970 C   0  0  0  0  0  0  0  0  0  0  0  0
   36.1590   28.5040   30.9050 N   0  0  0  0  0  0  0  0  0  0  0  0
   36.0650   28.7700   32.2230 C   0  0  0  0  0  0  0  0  0  0  0  0
   36.2610   27.6110   32.8750 N   0  0  0  0  0  0  0  0  0  0  0  0
   35.8000   30.0470   32.9230 C   0  0  0  0  0  0  0  0  0  0  0  0
   40.3223   22.4689   32.9295 H   0  0  0  0  0  0  0  0  0  0  0  0
   42.0215   21.5941   34.4458 H   0  0  0  0  0  0  0  0  0  0  0  0
   41.7387   21.8083   36.9056 H   0  0  0  0  0  0  0  0  0  0  0  0
   40.4986   22.5207   38.7125 H   0  0  0  0  0  0  0  0  0  0  0  0
   38.5270   23.6101   39.7084 H   0  0  0  0  0  0  0  0  0  0  0  0
   36.7560   24.5238   38.1336 H   0  0  0  0  0  0  0  0  0  0  0  0
   37.0642   24.2910   35.7221 H   0  0  0  0  0  0  0  0  0  0  0  0
   35.8755   22.1089   31.5425 H   0  0  0  0  0  0  0  0  0  0  0  0
   35.2343   24.4766   30.9020 H   0  0  0  0  0  0  0  0  0  0  0  0
   36.5384   26.6785   29.8437 H   0  0  0  0  0  0  0  0  0  0  0  0
   35.8340   29.8831   34.0102 H   0  0  0  0  0  0  0  0  0  0  0  0
   36.5639   30.7859   32.6395 H   0  0  0  0  0  0  0  0  0  0  0  0
   34.8051   30.4210   32.6395 H   0  0  0  0  0  0  0  0  0  0  0  0
  1 10  1  0
  2  1  2  0
  2  3  1  0
  3  4  2  0
  4  5  1  0
  5  6  2  0
  6  7  1  0
  8  7  2  0
  9  8  1  0
 10  9  2  0
 10  5  1  0
 11 16  2  0
 12 11  1  0
 12 13  2  0
 13 14  1  0
 14 15  2  0
 15  1  1  0
 16 15  1  0
 17 13  1  0
 17 21  1  0
 18 19  2  0
 18 17  1  0
 19 20  1  0
 20 21  2  0
 20 22  1  0
  2 23  1  0
  3 24  1  0
  4 25  1  0
  6 26  1  0
  7 27  1  0
  8 28  1  0
  9 29  1  0
 11 30  1  0
 12 31  1  0
 18 32  1  0
 22 33  1  0
 22 34  1  0
 22 35  1  0
M  ISO  8  23  14  24  14  25  14  26  14  27  14  28  14  29  14  30  14
M  ISO  5  31  14  32  14  33   8  34   8  35   8
M  END
>  <minimizedAffinity>  (1) 
-5.83229303

>  <minimizedRMSD>  (1) 
0.249511912

$$$$
