
     RDKit          3D

 43 46  0  0  1  0  0  0  0  0999 V2000
   37.3330   23.1230   36.9950 N   0  0  0  0  0  0  0  0  0  0  0  0
   37.8520   23.4750   38.3250 C   0  0  0  0  0  0  0  0  0  0  0  0
   39.3540   23.2490   38.2740 C   0  0  0  0  0  0  0  0  0  0  0  0
   39.5860   22.8000   36.8480 C   0  0  0  0  0  0  0  0  0  0  0  0
   38.4450   23.4750   36.1350 C   0  0  1  0  0  0  0  0  0  0  0  0
   38.3440   22.8820   32.5990 C   0  0  0  0  0  0  0  0  0  0  0  0
   37.5110   21.8360   33.0170 C   0  0  0  0  0  0  0  0  0  0  0  0
   37.4870   21.9830   34.4090 C   0  0  0  0  0  0  0  0  0  0  0  0
   38.2510   23.0440   34.7960 N   0  0  0  0  0  0  0  0  0  0  0  0
   38.7420   23.5500   33.6850 N   0  0  0  0  0  0  0  0  0  0  0  0
   38.7530   24.4630   30.7490 C   0  0  0  0  0  0  0  0  0  0  0  0
   38.6860   23.1570   31.2310 C   0  0  0  0  0  0  0  0  0  0  0  0
   38.9550   22.1140   30.3730 C   0  0  0  0  0  0  0  0  0  0  0  0
   39.2810   22.4160   29.0670 N   0  0  0  0  0  0  0  0  0  0  0  0
   39.3350   23.7040   28.6380 C   0  0  0  0  0  0  0  0  0  0  0  0
   39.0730   24.7140   29.4730 N   0  0  0  0  0  0  0  0  0  0  0  0
   39.6800   24.0150   27.2550 C   0  0  0  0  0  0  0  0  0  0  0  0
   39.3420   23.2480   26.1840 N   0  0  0  0  0  0  0  0  0  0  0  0
   39.8060   23.8120   25.0870 O   0  0  0  0  0  0  0  0  0  0  0  0
   40.4450   24.9360   25.4030 C   0  0  0  0  0  0  0  0  0  0  0  0
   40.3730   25.0740   26.7550 N   0  0  0  0  0  0  0  0  0  0  0  0
   38.6870   24.9690   36.1110 C   0  0  0  0  0  0  0  0  0  0  0  0
   37.5380   25.7070   35.4620 C   0  0  0  0  0  0  0  0  0  0  0  0
   39.9030   25.2380   35.2740 C   0  0  0  0  0  0  0  0  0  0  0  0
   37.1148   22.1183   36.9323 H   0  0  0  0  0  0  0  0  0  0  0  0
   37.6335   24.5290   38.5518 H   0  0  0  0  0  0  0  0  0  0  0  0
   37.3835   22.8635   39.1102 H   0  0  0  0  0  0  0  0  0  0  0  0
   39.9007   24.1790   38.4889 H   0  0  0  0  0  0  0  0  0  0  0  0
   39.7069   22.5208   39.0191 H   0  0  0  0  0  0  0  0  0  0  0  0
   40.5587   23.1476   36.4699 H   0  0  0  0  0  0  0  0  0  0  0  0
   39.6138   21.7079   36.7192 H   0  0  0  0  0  0  0  0  0  0  0  0
   36.9997   21.0819   32.4007 H   0  0  0  0  0  0  0  0  0  0  0  0
   36.9280   21.3314   35.0968 H   0  0  0  0  0  0  0  0  0  0  0  0
   38.5395   25.3017   31.4280 H   0  0  0  0  0  0  0  0  0  0  0  0
   38.9112   21.0707   30.7188 H   0  0  0  0  0  0  0  0  0  0  0  0
   40.9391   25.6249   24.7021 H   0  0  0  0  0  0  0  0  0  0  0  0
   38.8041   25.3109   37.1499 H   0  0  0  0  0  0  0  0  0  0  0  0
   36.8848   26.1265   36.2413 H   0  0  0  0  0  0  0  0  0  0  0  0
   37.9320   26.5214   34.8363 H   0  0  0  0  0  0  0  0  0  0  0  0
   36.9613   25.0100   34.8363 H   0  0  0  0  0  0  0  0  0  0  0  0
   40.7650   25.4287   35.9302 H   0  0  0  0  0  0  0  0  0  0  0  0
   40.1117   24.3643   34.6391 H   0  0  0  0  0  0  0  0  0  0  0  0
   39.7237   26.1182   34.6391 H   0  0  0  0  0  0  0  0  0  0  0  0
  1  2  1  0
  3  2  1  0
  4  3  1  0
  5 22  1  6
  5  4  1  0
  5  1  1  0
  6  7  1  0
  6 10  2  0
  7  8  2  0
  8  9  1  0
  9  5  1  0
 10  9  1  0
 11 12  2  0
 12  6  1  0
 13 12  1  0
 14 13  2  0
 15 14  1  0
 15 16  2  0
 16 11  1  0
 17 15  1  0
 18 17  2  0
 19 20  1  0
 19 18  1  0
 20 21  2  0
 21 17  1  0
 23 22  1  0
 24 22  1  0
  1 25  1  0
  2 26  1  0
  2 27  1  0
  3 28  1  0
  3 29  1  0
  4 30  1  0
  4 31  1  0
  7 32  1  0
  8 33  1  0
 11 34  1  0
 13 35  1  0
 20 36  1  0
 22 37  1  0
 23 38  1  0
 23 39  1  0
 23 40  1  0
 24 41  1  0
 24 42  1  0
 24 43  1  0
M  ISO  8  25   5  26  13  27  13  28  13  29  13  30  13  31  13  32  14
M  ISO  8  33  14  34  14  35  14  36  14  37   8  38   8  39   8  40   8
M  ISO  3  41   8  42   8  43   8
M  END
>  <minimizedAffinity>  (1) 
-4.64186049

>  <minimizedRMSD>  (1) 
5.23706484

$$$$
