
     RDKit          3D

 44 46  0  0  1  0  0  0  0  0999 V2000
   41.7650   25.9960   34.8740 N   0  0  0  0  0  0  0  0  0  0  0  0
   42.4590   27.1090   34.2080 C   0  0  0  0  0  0  0  0  0  0  0  0
   42.0470   27.0610   32.7600 C   0  0  0  0  0  0  0  0  0  0  0  0
   41.0760   25.8920   32.7020 C   0  0  0  0  0  0  0  0  0  0  0  0
   40.5480   25.9000   34.1090 C   0  0  1  0  0  0  0  0  0  0  0  0
   38.3900   23.0370   34.3570 C   0  0  0  0  0  0  0  0  0  0  0  0
   38.8620   23.0680   35.6600 C   0  0  0  0  0  0  0  0  0  0  0  0
   39.7260   24.1640   35.6750 C   0  0  0  0  0  0  0  0  0  0  0  0
   39.7700   24.7560   34.4530 N   0  0  0  0  0  0  0  0  0  0  0  0
   38.9540   24.0540   33.6790 N   0  0  0  0  0  0  0  0  0  0  0  0
   36.5660   21.4020   34.6680 C   0  0  0  0  0  0  0  0  0  0  0  0
   37.4500   22.0700   33.8280 C   0  0  0  0  0  0  0  0  0  0  0  0
   37.4350   21.8130   32.4740 C   0  0  0  0  0  0  0  0  0  0  0  0
   36.5280   20.8890   32.0160 N   0  0  0  0  0  0  0  0  0  0  0  0
   35.6720   20.2490   32.8660 C   0  0  0  0  0  0  0  0  0  0  0  0
   35.7000   20.5090   34.1610 N   0  0  0  0  0  0  0  0  0  0  0  0
   34.7230   19.2670   32.3020 C   0  0  0  0  0  0  0  0  0  0  0  0
   35.1910   17.8490   32.5090 C   0  0  0  0  0  0  0  0  0  0  0  0
   39.6610   27.1180   34.2950 C   0  0  0  0  0  0  0  0  0  0  0  0
   39.0180   27.1380   35.6600 C   0  0  0  0  0  0  0  0  0  0  0  0
   38.5660   27.0840   33.2690 C   0  0  0  0  0  0  0  0  0  0  0  0
   42.3127   25.1256   34.8164 H   0  0  0  0  0  0  0  0  0  0  0  0
   42.1596   28.0674   34.6572 H   0  0  0  0  0  0  0  0  0  0  0  0
   43.5501   27.0202   34.3155 H   0  0  0  0  0  0  0  0  0  0  0  0
   41.5526   27.9971   32.4613 H   0  0  0  0  0  0  0  0  0  0  0  0
   42.9008   26.9412   32.0768 H   0  0  0  0  0  0  0  0  0  0  0  0
   40.2757   26.0656   31.9675 H   0  0  0  0  0  0  0  0  0  0  0  0
   41.5265   24.9388   32.3883 H   0  0  0  0  0  0  0  0  0  0  0  0
   38.6137   22.3880   36.4882 H   0  0  0  0  0  0  0  0  0  0  0  0
   40.2931   24.5019   36.5549 H   0  0  0  0  0  0  0  0  0  0  0  0
   36.5758   21.6050   35.7491 H   0  0  0  0  0  0  0  0  0  0  0  0
   38.1227   22.3279   31.7870 H   0  0  0  0  0  0  0  0  0  0  0  0
   34.6185   19.4529   31.2229 H   0  0  0  0  0  0  0  0  0  0  0  0
   33.7603   19.3871   32.8205 H   0  0  0  0  0  0  0  0  0  0  0  0
   35.2602   17.6393   33.5866 H   0  0  0  0  0  0  0  0  0  0  0  0
   34.4743   17.1550   32.0457 H   0  0  0  0  0  0  0  0  0  0  0  0
   36.1800   17.7180   32.0457 H   0  0  0  0  0  0  0  0  0  0  0  0
   40.2911   28.0131   34.1864 H   0  0  0  0  0  0  0  0  0  0  0  0
   39.7994   27.1137   36.4338 H   0  0  0  0  0  0  0  0  0  0  0  0
   38.4208   28.0552   35.7706 H   0  0  0  0  0  0  0  0  0  0  0  0
   38.3650   26.2597   35.7706 H   0  0  0  0  0  0  0  0  0  0  0  0
   37.5899   27.0537   33.7753 H   0  0  0  0  0  0  0  0  0  0  0  0
   38.6249   27.9844   32.6399 H   0  0  0  0  0  0  0  0  0  0  0  0
   38.6807   26.1890   32.6399 H   0  0  0  0  0  0  0  0  0  0  0  0
  2  1  1  0
  3  2  1  0
  4  3  1  0
  4  5  1  0
  5 19  1  6
  5  9  1  0
  5  1  1  0
  6  7  1  0
  7  8  2  0
  9  8  1  0
 10  6  2  0
 10  9  1  0
 12  6  1  0
 12 11  2  0
 13 12  1  0
 14 13  2  0
 14 15  1  0
 15 16  2  0
 16 11  1  0
 17 18  1  0
 17 15  1  0
 19 20  1  0
 21 19  1  0
  1 22  1  0
  2 23  1  0
  2 24  1  0
  3 25  1  0
  3 26  1  0
  4 27  1  0
  4 28  1  0
  7 29  1  0
  8 30  1  0
 11 31  1  0
 13 32  1  0
 17 33  1  0
 17 34  1  0
 18 35  1  0
 18 36  1  0
 18 37  1  0
 19 38  1  0
 20 39  1  0
 20 40  1  0
 20 41  1  0
 21 42  1  0
 21 43  1  0
 21 44  1  0
M  ISO  8  22   5  23  13  24  13  25  13  26  13  27  13  28  13  29  14
M  ISO  8  30  14  31  14  32  14  33   8  34   8  35   8  36   8  37   8
M  ISO  7  38   8  39   8  40   8  41   8  42   8  43   8  44   8
M  END
>  <minimizedAffinity>  (1) 
-4.48346329

>  <minimizedRMSD>  (1) 
4.27842855

$$$$
