
     RDKit          3D

 54 57  0  0  1  0  0  0  0  0999 V2000
   40.4500   23.6200   35.9350 N   0  0  0  0  0  0  0  0  0  0  0  0
   41.3910   22.7460   36.6480 C   0  0  0  0  0  0  0  0  0  0  0  0
   41.8890   21.7400   35.6320 C   0  0  0  0  0  0  0  0  0  0  0  0
   41.2000   22.1630   34.3550 C   0  0  0  0  0  0  0  0  0  0  0  0
   40.9940   23.6260   34.6020 C   0  0  1  0  0  0  0  0  0  0  0  0
   38.7230   25.6680   32.7120 C   0  0  0  0  0  0  0  0  0  0  0  0
   39.0050   24.7070   31.7380 C   0  0  0  0  0  0  0  0  0  0  0  0
   39.8990   23.8490   32.3850 C   0  0  0  0  0  0  0  0  0  0  0  0
   40.1320   24.2700   33.6610 N   0  0  0  0  0  0  0  0  0  0  0  0
   39.4110   25.3660   33.8300 N   0  0  0  0  0  0  0  0  0  0  0  0
   36.6710   26.9180   33.2720 C   0  0  0  0  0  0  0  0  0  0  0  0
   37.8350   26.7880   32.5280 C   0  0  0  0  0  0  0  0  0  0  0  0
   38.1500   27.7450   31.5950 C   0  0  0  0  0  0  0  0  0  0  0  0
   37.2690   28.8040   31.4490 N   0  0  0  0  0  0  0  0  0  0  0  0
   36.1320   28.9060   32.1950 C   0  0  0  0  0  0  0  0  0  0  0  0
   35.8710   27.9640   33.0780 N   0  0  0  0  0  0  0  0  0  0  0  0
   35.3170   30.1150   31.8800 C   0  0  0  0  0  0  0  0  0  0  0  0
   35.8750   31.3210   32.5870 C   0  0  0  0  0  0  0  0  0  0  0  0
   35.8790   31.0890   34.0650 C   0  0  0  0  0  0  0  0  0  0  0  0
   34.5360   30.6490   34.5510 C   0  0  0  0  0  0  0  0  0  0  0  0
   33.4610   30.6410   33.5050 C   0  0  0  0  0  0  0  0  0  0  0  0
   33.8700   29.9600   32.2410 C   0  0  0  0  0  0  0  0  0  0  0  0
   42.3370   24.3300   34.5530 C   0  0  0  0  0  0  0  0  0  0  0  0
   42.2130   25.8150   34.8080 C   0  0  0  0  0  0  0  0  0  0  0  0
   42.9010   24.1870   33.1570 C   0  0  0  0  0  0  0  0  0  0  0  0
   39.4961   23.2316   35.9477 H   0  0  0  0  0  0  0  0  0  0  0  0
   42.2313   23.3344   37.0450 H   0  0  0  0  0  0  0  0  0  0  0  0
   40.9064   22.2473   37.5003 H   0  0  0  0  0  0  0  0  0  0  0  0
   42.9825   21.7953   35.5264 H   0  0  0  0  0  0  0  0  0  0  0  0
   41.6700   20.6996   35.9143 H   0  0  0  0  0  0  0  0  0  0  0  0
   40.2423   21.6386   34.2216 H   0  0  0  0  0  0  0  0  0  0  0  0
   41.7683   21.9366   33.4408 H   0  0  0  0  0  0  0  0  0  0  0  0
   38.6174   24.6414   30.7107 H   0  0  0  0  0  0  0  0  0  0  0  0
   40.3522   22.9570   31.9278 H   0  0  0  0  0  0  0  0  0  0  0  0
   36.4094   26.1569   34.0219 H   0  0  0  0  0  0  0  0  0  0  0  0
   39.0647   27.6736   30.9882 H   0  0  0  0  0  0  0  0  0  0  0  0
   35.3738   30.2483   30.7896 H   0  0  0  0  0  0  0  0  0  0  0  0
   36.9043   31.5013   32.2434 H   0  0  0  0  0  0  0  0  0  0  0  0
   35.2482   32.1959   32.3597 H   0  0  0  0  0  0  0  0  0  0  0  0
   36.6186   30.3104   34.3032 H   0  0  0  0  0  0  0  0  0  0  0  0
   36.1348   32.0356   34.5636 H   0  0  0  0  0  0  0  0  0  0  0  0
   34.6336   29.6283   34.9494 H   0  0  0  0  0  0  0  0  0  0  0  0
   34.2251   31.3826   35.3094 H   0  0  0  0  0  0  0  0  0  0  0  0
   32.5815   30.1210   33.9126 H   0  0  0  0  0  0  0  0  0  0  0  0
   33.2440   31.6897   33.2538 H   0  0  0  0  0  0  0  0  0  0  0  0
   33.2667   30.3735   31.4194 H   0  0  0  0  0  0  0  0  0  0  0  0
   33.7060   28.8844   32.4031 H   0  0  0  0  0  0  0  0  0  0  0  0
   42.9738   23.8761   35.3266 H   0  0  0  0  0  0  0  0  0  0  0  0
   42.1975   26.0008   35.8921 H   0  0  0  0  0  0  0  0  0  0  0  0
   43.0707   26.3371   34.3587 H   0  0  0  0  0  0  0  0  0  0  0  0
   41.2806   26.1876   34.3587 H   0  0  0  0  0  0  0  0  0  0  0  0
   43.9656   23.9171   33.2175 H   0  0  0  0  0  0  0  0  0  0  0  0
   42.3530   23.3994   32.6191 H   0  0  0  0  0  0  0  0  0  0  0  0
   42.7945   25.1406   32.6191 H   0  0  0  0  0  0  0  0  0  0  0  0
  1  2  1  0
  3  2  1  0
  4  5  1  0
  4  3  1  0
  5 23  1  1
  5  1  1  0
  6 10  2  0
  7  8  2  0
  7  6  1  0
  8  9  1  0
  9 10  1  0
  9  5  1  0
 12  6  1  0
 12 11  2  0
 13 12  1  0
 14 13  2  0
 14 15  1  0
 15 16  2  0
 16 11  1  0
 17 15  1  0
 17 22  1  0
 17 18  1  0
 18 19  1  0
 19 20  1  0
 21 20  1  0
 22 21  1  0
 23 24  1  0
 25 23  1  0
  1 26  1  0
  2 27  1  0
  2 28  1  0
  3 29  1  0
  3 30  1  0
  4 31  1  0
  4 32  1  0
  7 33  1  0
  8 34  1  0
 11 35  1  0
 13 36  1  0
 17 37  1  0
 18 38  1  0
 18 39  1  0
 19 40  1  0
 19 41  1  0
 20 42  1  0
 20 43  1  0
 21 44  1  0
 21 45  1  0
 22 46  1  0
 22 47  1  0
 23 48  1  0
 24 49  1  0
 24 50  1  0
 24 51  1  0
 25 52  1  0
 25 53  1  0
 25 54  1  0
M  ISO  8  26   5  27  13  28  13  29  13  30  13  31  13  32  13  33  14
M  ISO  8  34  14  35  14  36  14  37  13  38  13  39  13  40  13  41  13
M  ISO  8  42  13  43  13  44  13  45  13  46  13  47  13  48   8  49   8
M  ISO  5  50   8  51   8  52   8  53   8  54   8
M  END
>  <minimizedAffinity>  (1) 
-3.98765755

>  <minimizedRMSD>  (1) 
3.17726326

$$$$
