
     RDKit          3D

 52 55  0  0  1  0  0  0  0  0999 V2000
   37.3040   24.8560   36.3070 N   0  0  0  0  0  0  0  0  0  0  0  0
   37.9840   23.9040   37.2100 C   0  0  0  0  0  0  0  0  0  0  0  0
   38.6740   22.8760   36.3500 C   0  0  0  0  0  0  0  0  0  0  0  0
   38.3310   23.3470   34.9440 C   0  0  0  0  0  0  0  0  0  0  0  0
   38.1890   24.8120   35.1440 C   0  0  1  0  0  0  0  0  0  0  0  0
   36.6820   27.0380   32.7650 C   0  0  0  0  0  0  0  0  0  0  0  0
   36.9830   25.9620   31.9100 C   0  0  0  0  0  0  0  0  0  0  0  0
   37.5810   25.0300   32.7550 C   0  0  0  0  0  0  0  0  0  0  0  0
   37.6340   25.5120   34.0250 N   0  0  0  0  0  0  0  0  0  0  0  0
   37.0870   26.7140   33.9890 N   0  0  0  0  0  0  0  0  0  0  0  0
   35.1370   28.9150   33.1590 C   0  0  0  0  0  0  0  0  0  0  0  0
   36.0470   28.2590   32.3440 C   0  0  0  0  0  0  0  0  0  0  0  0
   36.3630   28.7770   31.0870 C   0  0  0  0  0  0  0  0  0  0  0  0
   35.7280   29.9460   30.7320 N   0  0  0  0  0  0  0  0  0  0  0  0
   34.8380   30.5700   31.5540 C   0  0  0  0  0  0  0  0  0  0  0  0
   34.5570   30.0470   32.7490 N   0  0  0  0  0  0  0  0  0  0  0  0
   34.2150   31.8380   31.0450 C   0  0  0  0  0  0  0  0  0  0  0  0
   39.5310   25.4380   35.4490 C   0  0  2  0  0  0  0  0  0  0  0  0
   39.4730   26.9400   35.4340 C   0  0  0  0  0  0  0  0  0  0  0  0
   40.5150   24.9940   34.4050 C   0  0  0  0  0  0  0  0  0  0  0  0
   41.8150   24.7590   35.0420 N   0  0  0  0  0  0  0  0  0  0  0  0
   42.0910   23.7170   35.8430 C   0  0  0  0  0  0  0  0  0  0  0  0
   43.3210   23.5210   36.4340 C   0  0  0  0  0  0  0  0  0  0  0  0
   44.3390   24.4250   36.2090 C   0  0  0  0  0  0  0  0  0  0  0  0
   45.5900   24.1690   36.8480 N   0  0  0  0  0  0  0  0  0  0  0  0
   44.0770   25.4720   35.4080 N   0  0  0  0  0  0  0  0  0  0  0  0
   42.8620   25.6160   34.8590 C   0  0  0  0  0  0  0  0  0  0  0  0
   42.7280   26.6220   34.1330 O   0  0  0  0  0  0  0  0  0  0  0  0
   36.3523   24.5406   36.0710 H   0  0  0  0  0  0  0  0  0  0  0  0
   38.7239   24.4350   37.8269 H   0  0  0  0  0  0  0  0  0  0  0  0
   37.2584   23.4223   37.8819 H   0  0  0  0  0  0  0  0  0  0  0  0
   39.7611   22.8811   36.5178 H   0  0  0  0  0  0  0  0  0  0  0  0
   38.3575   21.8433   36.5582 H   0  0  0  0  0  0  0  0  0  0  0  0
   37.3919   22.8979   34.5885 H   0  0  0  0  0  0  0  0  0  0  0  0
   39.0779   23.0700   34.1854 H   0  0  0  0  0  0  0  0  0  0  0  0
   36.7915   25.8769   30.8301 H   0  0  0  0  0  0  0  0  0  0  0  0
   37.9565   24.0453   32.4399 H   0  0  0  0  0  0  0  0  0  0  0  0
   34.8912   28.5015   34.1482 H   0  0  0  0  0  0  0  0  0  0  0  0
   37.0795   28.2790   30.4172 H   0  0  0  0  0  0  0  0  0  0  0  0
   33.9079   32.4631   31.8964 H   0  0  0  0  0  0  0  0  0  0  0  0
   34.9465   32.3859   30.4329 H   0  0  0  0  0  0  0  0  0  0  0  0
   33.3343   31.5938   30.4329 H   0  0  0  0  0  0  0  0  0  0  0  0
   39.8322   25.1163   36.4569 H   0  0  0  0  0  0  0  0  0  0  0  0
   39.4585   27.3167   36.4674 H   0  0  0  0  0  0  0  0  0  0  0  0
   40.3565   27.3359   34.9118 H   0  0  0  0  0  0  0  0  0  0  0  0
   38.5616   27.2666   34.9118 H   0  0  0  0  0  0  0  0  0  0  0  0
   40.6164   25.7758   33.6378 H   0  0  0  0  0  0  0  0  0  0  0  0
   40.1606   24.0666   33.9314 H   0  0  0  0  0  0  0  0  0  0  0  0
   41.2954   22.9827   36.0374 H   0  0  0  0  0  0  0  0  0  0  0  0
   43.4901   22.6482   37.0818 H   0  0  0  0  0  0  0  0  0  0  0  0
   46.3802   24.8152   36.7106 H   0  0  0  0  0  0  0  0  0  0  0  0
   45.7022   23.3382   37.4464 H   0  0  0  0  0  0  0  0  0  0  0  0
  1  2  1  0
  3  2  1  0
  4  5  1  0
  4  3  1  0
  5 18  1  0
  5  1  1  0
  6 10  2  0
  7  8  2  0
  7  6  1  0
  8  9  1  0
  5  9  1  6
 10  9  1  0
 12  6  1  0
 12 11  2  0
 13 12  1  0
 14 13  2  0
 14 15  1  0
 15 16  2  0
 16 11  1  0
 17 15  1  0
 19 18  1  0
 20 21  1  0
 20 18  1  0
 21 22  1  0
 22 23  2  0
 24 23  1  0
 24 25  1  0
 26 24  2  0
 27 21  1  0
 27 26  1  0
 28 27  2  0
  1 29  1  0
  2 30  1  0
  2 31  1  0
  3 32  1  0
  3 33  1  0
  4 34  1  0
  4 35  1  0
  7 36  1  0
  8 37  1  0
 11 38  1  0
 13 39  1  0
 17 40  1  0
 17 41  1  0
 17 42  1  0
 18 43  1  1
 19 44  1  0
 19 45  1  0
 19 46  1  0
 20 47  1  0
 20 48  1  0
 22 49  1  0
 23 50  1  0
 25 51  1  0
 25 52  1  0
M  ISO  8  29   5  30  13  31  13  32  13  33  13  34  13  35  13  36  14
M  ISO  8  37  14  38  14  39  14  40   8  41   8  42   8  43   8  44   8
M  ISO  6  45   8  46   8  47   8  48   8  49  14  50  14
M  END
>  <minimizedAffinity>  (1) 
-5.41437721

>  <minimizedRMSD>  (1) 
4.7428565

$$$$
