
     RDKit          3D

 55 59  0  0  1  0  0  0  0  0999 V2000
   37.3590   25.0050   36.3450 N   0  0  0  0  0  0  0  0  0  0  0  0
   38.0320   24.0640   37.2540 C   0  0  0  0  0  0  0  0  0  0  0  0
   38.5920   22.9470   36.4090 C   0  0  0  0  0  0  0  0  0  0  0  0
   38.2140   23.3670   35.0050 C   0  0  0  0  0  0  0  0  0  0  0  0
   38.1540   24.8400   35.1400 C   0  0  1  0  0  0  0  0  0  0  0  0
   36.6460   27.0420   32.7380 C   0  0  0  0  0  0  0  0  0  0  0  0
   36.8570   25.9190   31.9220 C   0  0  0  0  0  0  0  0  0  0  0  0
   37.4470   24.9940   32.7750 C   0  0  0  0  0  0  0  0  0  0  0  0
   37.5840   25.5130   34.0140 N   0  0  0  0  0  0  0  0  0  0  0  0
   37.0920   26.7430   33.9530 N   0  0  0  0  0  0  0  0  0  0  0  0
   35.0840   28.9230   33.0690 C   0  0  0  0  0  0  0  0  0  0  0  0
   36.0540   28.2710   32.2900 C   0  0  0  0  0  0  0  0  0  0  0  0
   36.4520   28.7990   31.0610 C   0  0  0  0  0  0  0  0  0  0  0  0
   35.8390   29.9710   30.6820 N   0  0  0  0  0  0  0  0  0  0  0  0
   34.9050   30.5840   31.4460 C   0  0  0  0  0  0  0  0  0  0  0  0
   34.5490   30.0570   32.6120 N   0  0  0  0  0  0  0  0  0  0  0  0
   34.3010   31.8510   30.9060 C   0  0  0  0  0  0  0  0  0  0  0  0
   39.5570   25.4080   35.3410 C   0  0  2  0  0  0  0  0  0  0  0  0
   39.5760   26.9110   35.3600 C   0  0  0  0  0  0  0  0  0  0  0  0
   40.4160   24.9480   34.1860 C   0  0  0  0  0  0  0  0  0  0  0  0
   41.8180   24.8410   34.7030 C   0  0  0  0  0  0  0  0  0  0  0  0
   42.8400   25.7500   34.8590 C   0  0  0  0  0  0  0  0  0  0  0  0
   43.9350   25.1350   35.3510 N   0  0  0  0  0  0  0  0  0  0  0  0
   43.6190   23.8160   35.5170 C   0  0  0  0  0  0  0  0  0  0  0  0
   44.4330   22.7940   36.0120 C   0  0  0  0  0  0  0  0  0  0  0  0
   43.8980   21.5070   36.1120 C   0  0  0  0  0  0  0  0  0  0  0  0
   42.5790   21.3010   35.7130 C   0  0  0  0  0  0  0  0  0  0  0  0
   41.7720   22.3190   35.2210 C   0  0  0  0  0  0  0  0  0  0  0  0
   42.3090   23.6040   35.1220 C   0  0  0  0  0  0  0  0  0  0  0  0
   36.3754   24.7423   36.1885 H   0  0  0  0  0  0  0  0  0  0  0  0
   38.8456   24.5749   37.7898 H   0  0  0  0  0  0  0  0  0  0  0  0
   37.3260   23.6712   38.0005 H   0  0  0  0  0  0  0  0  0  0  0  0
   39.6840   22.8749   36.5206 H   0  0  0  0  0  0  0  0  0  0  0  0
   38.2050   21.9553   36.6860 H   0  0  0  0  0  0  0  0  0  0  0  0
   37.2392   22.9510   34.7105 H   0  0  0  0  0  0  0  0  0  0  0  0
   38.9122   23.0170   34.2303 H   0  0  0  0  0  0  0  0  0  0  0  0
   36.6124   25.7993   30.8562 H   0  0  0  0  0  0  0  0  0  0  0  0
   37.7588   23.9807   32.4818 H   0  0  0  0  0  0  0  0  0  0  0  0
   34.7711   28.5066   34.0379 H   0  0  0  0  0  0  0  0  0  0  0  0
   37.2100   28.3078   30.4332 H   0  0  0  0  0  0  0  0  0  0  0  0
   33.9935   32.4960   31.7423 H   0  0  0  0  0  0  0  0  0  0  0  0
   35.0446   32.3783   30.2904 H   0  0  0  0  0  0  0  0  0  0  0  0
   33.4231   31.6053   30.2904 H   0  0  0  0  0  0  0  0  0  0  0  0
   39.9287   25.0520   36.3132 H   0  0  0  0  0  0  0  0  0  0  0  0
   39.5805   27.2645   36.4016 H   0  0  0  0  0  0  0  0  0  0  0  0
   40.4788   27.2728   34.8461 H   0  0  0  0  0  0  0  0  0  0  0  0
   38.6826   27.2955   34.8461 H   0  0  0  0  0  0  0  0  0  0  0  0
   40.3700   25.6792   33.3655 H   0  0  0  0  0  0  0  0  0  0  0  0
   40.0655   23.9816   33.7947 H   0  0  0  0  0  0  0  0  0  0  0  0
   42.7734   26.8211   34.6177 H   0  0  0  0  0  0  0  0  0  0  0  0
   44.8409   25.5773   35.5623 H   0  0  0  0  0  0  0  0  0  0  0  0
   45.4704   22.9977   36.3158 H   0  0  0  0  0  0  0  0  0  0  0  0
   44.5050   20.6745   36.4974 H   0  0  0  0  0  0  0  0  0  0  0  0
   42.1582   20.2877   35.7910 H   0  0  0  0  0  0  0  0  0  0  0  0
   40.7343   22.1175   34.9166 H   0  0  0  0  0  0  0  0  0  0  0  0
  1  2  1  0
  3  2  1  0
  4  5  1  0
  4  3  1  0
  5 18  1  0
  5  1  1  0
  6 10  2  0
  7  6  1  0
  7  8  2  0
  8  9  1  0
  5  9  1  6
 10  9  1  0
 12  6  1  0
 12 11  2  0
 13 12  1  0
 14 13  2  0
 14 15  1  0
 15 16  2  0
 16 11  1  0
 17 15  1  0
 18 19  1  0
 20 21  1  0
 20 18  1  0
 21 22  2  0
 21 29  1  0
 22 23  1  0
 23 24  1  0
 24 25  2  0
 25 26  1  0
 27 26  2  0
 28 27  1  0
 29 28  2  0
 29 24  1  0
  1 30  1  0
  2 31  1  0
  2 32  1  0
  3 33  1  0
  3 34  1  0
  4 35  1  0
  4 36  1  0
  7 37  1  0
  8 38  1  0
 11 39  1  0
 13 40  1  0
 17 41  1  0
 17 42  1  0
 17 43  1  0
 18 44  1  1
 19 45  1  0
 19 46  1  0
 19 47  1  0
 20 48  1  0
 20 49  1  0
 22 50  1  0
 23 51  1  0
 25 52  1  0
 26 53  1  0
 27 54  1  0
 28 55  1  0
M  ISO  8  30   5  31  13  32  13  33  13  34  13  35  13  36  13  37  14
M  ISO  8  38  14  39  14  40  14  41   8  42   8  43   8  44   8  45   8
M  ISO  8  46   8  47   8  48   8  49   8  50  14  51   9  52  14  53  14
M  ISO  2  54  14  55  14
M  END
>  <minimizedAffinity>  (1) 
-5.40630102

>  <minimizedRMSD>  (1) 
4.99512339

$$$$
