
     RDKit          3D

 55 58  0  0  1  0  0  0  0  0999 V2000
   37.5270   24.8800   36.4560 N   0  0  0  0  0  0  0  0  0  0  0  0
   38.1840   23.9360   37.3750 C   0  0  0  0  0  0  0  0  0  0  0  0
   38.6950   22.7770   36.5440 C   0  0  0  0  0  0  0  0  0  0  0  0
   38.2640   23.1740   35.1370 C   0  0  0  0  0  0  0  0  0  0  0  0
   38.2740   24.6550   35.2210 C   0  0  1  0  0  0  0  0  0  0  0  0
   36.7830   26.8610   32.8270 C   0  0  0  0  0  0  0  0  0  0  0  0
   36.9150   25.7100   32.0360 C   0  0  0  0  0  0  0  0  0  0  0  0
   37.4970   24.7780   32.8950 C   0  0  0  0  0  0  0  0  0  0  0  0
   37.6990   25.3270   34.1100 N   0  0  0  0  0  0  0  0  0  0  0  0
   37.2600   26.5810   34.0450 N   0  0  0  0  0  0  0  0  0  0  0  0
   35.5060   28.9270   33.2450 C   0  0  0  0  0  0  0  0  0  0  0  0
   36.2230   28.1060   32.3690 C   0  0  0  0  0  0  0  0  0  0  0  0
   36.4080   28.4750   31.0500 C   0  0  0  0  0  0  0  0  0  0  0  0
   35.8530   29.6740   30.6670 N   0  0  0  0  0  0  0  0  0  0  0  0
   35.1510   30.4690   31.5400 C   0  0  0  0  0  0  0  0  0  0  0  0
   34.9930   30.0830   32.8000 N   0  0  0  0  0  0  0  0  0  0  0  0
   34.5980   31.7440   31.0040 C   0  0  0  0  0  0  0  0  0  0  0  0
   39.7160   25.1490   35.3840 C   0  0  2  0  0  0  0  0  0  0  0  0
   39.7970   26.6610   35.2470 C   0  0  0  0  0  0  0  0  0  0  0  0
   40.5240   24.5760   34.2660 C   0  0  0  0  0  0  0  0  0  0  0  0
   41.9120   24.5010   34.6920 N   0  0  0  0  0  0  0  0  0  0  0  0
   42.7460   23.9280   33.6410 C   0  0  0  0  0  0  0  0  0  0  0  0
   43.9430   23.1930   34.1670 C   0  0  0  0  0  0  0  0  0  0  0  0
   44.4710   23.7400   35.3760 N   0  0  0  0  0  0  0  0  0  0  0  0
   43.5080   24.0780   36.3750 C   0  0  0  0  0  0  0  0  0  0  0  0
   42.1280   23.6640   35.8450 C   0  0  0  0  0  0  0  0  0  0  0  0
   36.5286   24.6561   36.3376 H   0  0  0  0  0  0  0  0  0  0  0  0
   39.0229   24.4310   37.8861 H   0  0  0  0  0  0  0  0  0  0  0  0
   37.4772   23.5834   38.1406 H   0  0  0  0  0  0  0  0  0  0  0  0
   39.7890   22.6870   36.6154 H   0  0  0  0  0  0  0  0  0  0  0  0
   38.3070   21.7990   36.8649 H   0  0  0  0  0  0  0  0  0  0  0  0
   37.2587   22.7932   34.9040 H   0  0  0  0  0  0  0  0  0  0  0  0
   38.9093   22.7692   34.3434 H   0  0  0  0  0  0  0  0  0  0  0  0
   36.6266   25.5741   30.9832 H   0  0  0  0  0  0  0  0  0  0  0  0
   37.7542   23.7442   32.6209 H   0  0  0  0  0  0  0  0  0  0  0  0
   35.3637   28.6260   34.2934 H   0  0  0  0  0  0  0  0  0  0  0  0
   36.9687   27.8441   30.3446 H   0  0  0  0  0  0  0  0  0  0  0  0
   34.3134   32.4002   31.8397 H   0  0  0  0  0  0  0  0  0  0  0  0
   35.3601   32.2441   30.3882 H   0  0  0  0  0  0  0  0  0  0  0  0
   33.7121   31.5293   30.3882 H   0  0  0  0  0  0  0  0  0  0  0  0
   40.0800   24.8457   36.3768 H   0  0  0  0  0  0  0  0  0  0  0  0
   39.8215   27.1190   36.2468 H   0  0  0  0  0  0  0  0  0  0  0  0
   40.7109   26.9309   34.6975 H   0  0  0  0  0  0  0  0  0  0  0  0
   38.9172   27.0270   34.6975 H   0  0  0  0  0  0  0  0  0  0  0  0
   40.4422   25.2224   33.3797 H   0  0  0  0  0  0  0  0  0  0  0  0
   40.1537   23.5726   34.0088 H   0  0  0  0  0  0  0  0  0  0  0  0
   43.0952   24.7426   32.9895 H   0  0  0  0  0  0  0  0  0  0  0  0
   42.1286   23.1977   33.0974 H   0  0  0  0  0  0  0  0  0  0  0  0
   43.6530   22.1490   34.3565 H   0  0  0  0  0  0  0  0  0  0  0  0
   44.7319   23.2797   33.4053 H   0  0  0  0  0  0  0  0  0  0  0  0
   45.1173   23.0477   35.7808 H   0  0  0  0  0  0  0  0  0  0  0  0
   43.7294   23.5385   37.3077 H   0  0  0  0  0  0  0  0  0  0  0  0
   43.5333   25.1569   36.5880 H   0  0  0  0  0  0  0  0  0  0  0  0
   41.3518   23.8416   36.6040 H   0  0  0  0  0  0  0  0  0  0  0  0
   42.0820   22.5935   35.5963 H   0  0  0  0  0  0  0  0  0  0  0  0
  1  2  1  0
  3  2  1  0
  4  5  1  0
  4  3  1  0
  5 18  1  0
  5  1  1  0
  6 10  2  0
  7  6  1  0
  7  8  2  0
  8  9  1  0
  5  9  1  6
 10  9  1  0
 12  6  1  0
 12 11  2  0
 13 12  1  0
 14 13  2  0
 14 15  1  0
 15 16  2  0
 16 11  1  0
 17 15  1  0
 19 18  1  0
 20 21  1  0
 20 18  1  0
 21 26  1  0
 22 23  1  0
 22 21  1  0
 23 24  1  0
 24 25  1  0
 26 25  1  0
  1 27  1  0
  2 28  1  0
  2 29  1  0
  3 30  1  0
  3 31  1  0
  4 32  1  0
  4 33  1  0
  7 34  1  0
  8 35  1  0
 11 36  1  0
 13 37  1  0
 17 38  1  0
 17 39  1  0
 17 40  1  0
 18 41  1  1
 19 42  1  0
 19 43  1  0
 19 44  1  0
 20 45  1  0
 20 46  1  0
 22 47  1  0
 22 48  1  0
 23 49  1  0
 23 50  1  0
 24 51  1  0
 25 52  1  0
 25 53  1  0
 26 54  1  0
 26 55  1  0
M  ISO  8  27   5  28  13  29  13  30  13  31  13  32  13  33  13  34  14
M  ISO  8  35  14  36  14  37  14  38   8  39   8  40   8  41   8  42   8
M  ISO  8  43   8  44   8  45   8  46   8  47  13  48  13  49  13  50  13
M  ISO  5  51   5  52  13  53  13  54  13  55  13
M  END
>  <minimizedAffinity>  (1) 
-4.81760454

>  <minimizedRMSD>  (1) 
4.59743166

$$$$
