
     RDKit          3D

 50 53  0  0  1  0  0  0  0  0999 V2000
   40.3050   21.7950   36.7140 N   0  0  0  0  0  0  0  0  0  0  0  0
   41.3450   21.5310   37.7200 C   0  0  0  0  0  0  0  0  0  0  0  0
   42.5720   21.0290   36.9840 C   0  0  0  0  0  0  0  0  0  0  0  0
   42.1130   21.0640   35.5320 C   0  0  0  0  0  0  0  0  0  0  0  0
   41.1180   22.1670   35.5600 C   0  0  1  0  0  0  0  0  0  0  0  0
   38.7880   22.8650   32.9140 C   0  0  0  0  0  0  0  0  0  0  0  0
   39.6330   21.9790   32.2450 C   0  0  0  0  0  0  0  0  0  0  0  0
   40.5890   21.6440   33.2070 C   0  0  0  0  0  0  0  0  0  0  0  0
   40.3360   22.2840   34.3670 N   0  0  0  0  0  0  0  0  0  0  0  0
   39.2490   23.0040   34.1520 N   0  0  0  0  0  0  0  0  0  0  0  0
   36.7380   22.7770   31.5530 C   0  0  0  0  0  0  0  0  0  0  0  0
   37.6350   23.4940   32.3280 C   0  0  0  0  0  0  0  0  0  0  0  0
   37.4330   24.8560   32.5570 C   0  0  0  0  0  0  0  0  0  0  0  0
   36.3190   25.4170   31.9790 N   0  0  0  0  0  0  0  0  0  0  0  0
   35.4550   24.6880   31.2230 C   0  0  0  0  0  0  0  0  0  0  0  0
   35.6720   23.3810   31.0180 N   0  0  0  0  0  0  0  0  0  0  0  0
   34.2700   25.4010   30.6370 C   0  0  0  0  0  0  0  0  0  0  0  0
   41.8120   23.4980   35.7860 C   0  0  2  0  0  0  0  0  0  0  0  0
   40.9200   24.6560   35.4470 C   0  0  0  0  0  0  0  0  0  0  0  0
   43.0070   23.5650   34.8790 C   0  0  0  0  0  0  0  0  0  0  0  0
   43.9890   24.5100   35.5100 C   0  0  0  0  0  0  0  0  0  0  0  0
   44.2490   24.1510   36.8030 C   0  0  0  0  0  0  0  0  0  0  0  0
   45.1330   24.8780   37.5990 C   0  0  0  0  0  0  0  0  0  0  0  0
   45.7730   25.9910   37.0940 C   0  0  0  0  0  0  0  0  0  0  0  0
   45.4750   26.3060   35.7880 C   0  0  0  0  0  0  0  0  0  0  0  0
   44.6200   25.5970   35.0310 N   0  0  0  0  0  0  0  0  0  0  0  0
   39.7412   20.9542   36.5238 H   0  0  0  0  0  0  0  0  0  0  0  0
   41.5854   22.4565   38.2638 H   0  0  0  0  0  0  0  0  0  0  0  0
   40.9982   20.7849   38.4501 H   0  0  0  0  0  0  0  0  0  0  0  0
   43.4338   21.6932   37.1460 H   0  0  0  0  0  0  0  0  0  0  0  0
   42.9109   20.0366   37.3162 H   0  0  0  0  0  0  0  0  0  0  0  0
   41.6488   20.1121   35.2347 H   0  0  0  0  0  0  0  0  0  0  0  0
   42.9278   21.2145   34.8085 H   0  0  0  0  0  0  0  0  0  0  0  0
   39.5630   21.6272   31.2051 H   0  0  0  0  0  0  0  0  0  0  0  0
   41.4302   20.9548   33.0416 H   0  0  0  0  0  0  0  0  0  0  0  0
   36.9039   21.7040   31.3767 H   0  0  0  0  0  0  0  0  0  0  0  0
   38.1289   25.4495   33.1681 H   0  0  0  0  0  0  0  0  0  0  0  0
   33.6340   25.7837   31.4489 H   0  0  0  0  0  0  0  0  0  0  0  0
   34.6171   26.2403   30.0165 H   0  0  0  0  0  0  0  0  0  0  0  0
   33.6910   24.7012   30.0165 H   0  0  0  0  0  0  0  0  0  0  0  0
   42.0897   23.5636   36.8483 H   0  0  0  0  0  0  0  0  0  0  0  0
   40.5591   25.1246   36.3744 H   0  0  0  0  0  0  0  0  0  0  0  0
   41.4850   25.3942   34.8590 H   0  0  0  0  0  0  0  0  0  0  0  0
   40.0620   24.2981   34.8590 H   0  0  0  0  0  0  0  0  0  0  0  0
   42.7081   23.9378   33.8882 H   0  0  0  0  0  0  0  0  0  0  0  0
   43.4533   22.5685   34.7458 H   0  0  0  0  0  0  0  0  0  0  0  0
   43.7487   23.2672   37.2257 H   0  0  0  0  0  0  0  0  0  0  0  0
   45.3213   24.5624   38.6358 H   0  0  0  0  0  0  0  0  0  0  0  0
   46.4750   26.5871   37.6955 H   0  0  0  0  0  0  0  0  0  0  0  0
   45.9623   27.1845   35.3398 H   0  0  0  0  0  0  0  0  0  0  0  0
  1  2  1  0
  3  2  1  0
  4  5  1  0
  4  3  1  0
  5 18  1  0
  5  1  1  0
  6 10  2  0
  7  6  1  0
  7  8  2  0
  8  9  1  0
  5  9  1  6
 10  9  1  0
 11 12  2  0
 12 13  1  0
 12  6  1  0
 14 13  2  0
 15 14  1  0
 16 15  2  0
 16 11  1  0
 17 15  1  0
 19 18  1  0
 20 21  1  0
 20 18  1  0
 21 22  2  0
 22 23  1  0
 24 23  2  0
 25 24  1  0
 26 21  1  0
 26 25  2  0
  1 27  1  0
  2 28  1  0
  2 29  1  0
  3 30  1  0
  3 31  1  0
  4 32  1  0
  4 33  1  0
  7 34  1  0
  8 35  1  0
 11 36  1  0
 13 37  1  0
 17 38  1  0
 17 39  1  0
 17 40  1  0
 18 41  1  1
 19 42  1  0
 19 43  1  0
 19 44  1  0
 20 45  1  0
 20 46  1  0
 22 47  1  0
 23 48  1  0
 24 49  1  0
 25 50  1  0
M  ISO  8  27   5  28  13  29  13  30  13  31  13  32  13  33  13  34  14
M  ISO  8  35  14  36  14  37  14  38   8  39   8  40   8  41   8  42   8
M  ISO  8  43   8  44   8  45   8  46   8  47  14  48  14  49  14  50  14
M  END
>  <minimizedAffinity>  (1) 
-4.80145454

>  <minimizedRMSD>  (1) 
2.50542307

$$$$
