
     RDKit          3D

 48 51  0  0  1  0  0  0  0  0999 V2000
   41.9710   23.5160   35.9360 N   0  0  0  0  0  0  0  0  0  0  0  0
   43.1860   23.5670   36.7530 C   0  0  0  0  0  0  0  0  0  0  0  0
   44.3670   23.3220   35.8350 C   0  0  0  0  0  0  0  0  0  0  0  0
   43.6860   23.1210   34.4860 C   0  0  0  0  0  0  0  0  0  0  0  0
   42.4710   23.9600   34.6380 C   0  0  1  0  0  0  0  0  0  0  0  0
   39.6510   23.9150   32.4220 C   0  0  0  0  0  0  0  0  0  0  0  0
   40.5510   23.1240   31.6740 C   0  0  0  0  0  0  0  0  0  0  0  0
   41.6920   23.0830   32.4650 C   0  0  0  0  0  0  0  0  0  0  0  0
   41.4990   23.7930   33.6010 N   0  0  0  0  0  0  0  0  0  0  0  0
   40.2620   24.2810   33.5460 N   0  0  0  0  0  0  0  0  0  0  0  0
   37.5580   23.3480   31.2580 C   0  0  0  0  0  0  0  0  0  0  0  0
   38.3140   24.2440   32.0020 C   0  0  0  0  0  0  0  0  0  0  0  0
   37.7890   25.4870   32.3560 C   0  0  0  0  0  0  0  0  0  0  0  0
   36.5090   25.7490   31.9260 N   0  0  0  0  0  0  0  0  0  0  0  0
   35.7950   24.8530   31.2000 C   0  0  0  0  0  0  0  0  0  0  0  0
   36.3180   23.6730   30.8750 N   0  0  0  0  0  0  0  0  0  0  0  0
   34.4050   25.2450   30.7760 C   0  0  0  0  0  0  0  0  0  0  0  0
   42.8380   25.4250   34.6900 C   0  0  2  0  0  0  0  0  0  0  0  0
   41.6280   26.3250   34.7140 C   0  0  0  0  0  0  0  0  0  0  0  0
   43.6080   25.7670   33.4480 C   0  0  0  0  0  0  0  0  0  0  0  0
   44.4780   26.9640   33.6660 C   0  0  0  0  0  0  0  0  0  0  0  0
   44.8710   27.6830   32.5520 C   0  0  0  0  0  0  0  0  0  0  0  0
   45.6600   28.7330   32.9840 C   0  0  0  0  0  0  0  0  0  0  0  0
   45.7070   28.6010   34.3320 N   0  0  0  0  0  0  0  0  0  0  0  0
   45.0050   27.5450   34.7670 N   0  0  0  0  0  0  0  0  0  0  0  0
   41.5919   22.5596   35.8856 H   0  0  0  0  0  0  0  0  0  0  0  0
   43.2781   24.5555   37.2268 H   0  0  0  0  0  0  0  0  0  0  0  0
   43.1497   22.8063   37.5467 H   0  0  0  0  0  0  0  0  0  0  0  0
   45.0441   24.1887   35.8154 H   0  0  0  0  0  0  0  0  0  0  0  0
   44.9987   22.4756   36.1425 H   0  0  0  0  0  0  0  0  0  0  0  0
   43.4266   22.0649   34.3206 H   0  0  0  0  0  0  0  0  0  0  0  0
   44.3124   23.3921   33.6233 H   0  0  0  0  0  0  0  0  0  0  0  0
   40.3867   22.6512   30.6945 H   0  0  0  0  0  0  0  0  0  0  0  0
   42.6188   22.5503   32.2056 H   0  0  0  0  0  0  0  0  0  0  0  0
   37.9791   22.3697   30.9831 H   0  0  0  0  0  0  0  0  0  0  0  0
   38.3654   26.2156   32.9450 H   0  0  0  0  0  0  0  0  0  0  0  0
   33.7852   25.4198   31.6678 H   0  0  0  0  0  0  0  0  0  0  0  0
   34.4508   26.1653   30.1752 H   0  0  0  0  0  0  0  0  0  0  0  0
   33.9632   24.4364   30.1752 H   0  0  0  0  0  0  0  0  0  0  0  0
   43.4176   25.5828   35.6115 H   0  0  0  0  0  0  0  0  0  0  0  0
   41.3471   26.5340   35.7568 H   0  0  0  0  0  0  0  0  0  0  0  0
   41.8632   27.2694   34.2014 H   0  0  0  0  0  0  0  0  0  0  0  0
   40.7912   25.8281   34.2014 H   0  0  0  0  0  0  0  0  0  0  0  0
   42.8999   25.9811   32.6339 H   0  0  0  0  0  0  0  0  0  0  0  0
   44.2492   24.9119   33.1880 H   0  0  0  0  0  0  0  0  0  0  0  0
   44.6037   27.4595   31.5087 H   0  0  0  0  0  0  0  0  0  0  0  0
   46.1435   29.5060   32.3686 H   0  0  0  0  0  0  0  0  0  0  0  0
   46.2240   29.2402   34.9525 H   0  0  0  0  0  0  0  0  0  0  0  0
  1  2  1  0
  3  2  1  0
  4  5  1  0
  4  3  1  0
  5 18  1  0
  5  1  1  0
  6 10  2  0
  7  6  1  0
  7  8  2  0
  8  9  1  0
  5  9  1  6
 10  9  1  0
 11 12  2  0
 12 13  1  0
 12  6  1  0
 14 13  2  0
 15 14  1  0
 16 15  2  0
 16 11  1  0
 17 15  1  0
 18 19  1  0
 20 21  1  0
 20 18  1  0
 21 25  2  0
 22 23  2  0
 22 21  1  0
 23 24  1  0
 24 25  1  0
  1 26  1  0
  2 27  1  0
  2 28  1  0
  3 29  1  0
  3 30  1  0
  4 31  1  0
  4 32  1  0
  7 33  1  0
  8 34  1  0
 11 35  1  0
 13 36  1  0
 17 37  1  0
 17 38  1  0
 17 39  1  0
 18 40  1  1
 19 41  1  0
 19 42  1  0
 19 43  1  0
 20 44  1  0
 20 45  1  0
 22 46  1  0
 23 47  1  0
 24 48  1  0
M  ISO  8  26   5  27  13  28  13  29  13  30  13  31  13  32  13  33  14
M  ISO  8  34  14  35  14  36  14  37   8  38   8  39   8  40   8  41   8
M  ISO  7  42   8  43   8  44   8  45   8  46  14  47  14  48   9
M  END
>  <minimizedAffinity>  (1) 
-3.97813034

>  <minimizedRMSD>  (1) 
0.640504718

$$$$
