
     RDKit          3D

 53 56  0  0  1  0  0  0  0  0999 V2000
   41.5790   23.2310   35.9140 N   0  0  0  0  0  0  0  0  0  0  0  0
   42.7440   23.1280   36.8060 C   0  0  0  0  0  0  0  0  0  0  0  0
   43.9350   22.7310   35.9480 C   0  0  0  0  0  0  0  0  0  0  0  0
   43.3180   22.6390   34.5590 C   0  0  0  0  0  0  0  0  0  0  0  0
   42.2120   23.6260   34.6570 C   0  0  1  0  0  0  0  0  0  0  0  0
   39.4980   23.8540   32.3110 C   0  0  0  0  0  0  0  0  0  0  0  0
   40.4530   23.2120   31.5050 C   0  0  0  0  0  0  0  0  0  0  0  0
   41.5570   23.0800   32.3440 C   0  0  0  0  0  0  0  0  0  0  0  0
   41.2940   23.5980   33.5600 N   0  0  0  0  0  0  0  0  0  0  0  0
   40.0430   24.0640   33.5270 N   0  0  0  0  0  0  0  0  0  0  0  0
   37.2760   23.2430   31.4590 C   0  0  0  0  0  0  0  0  0  0  0  0
   38.1800   24.2100   31.8860 C   0  0  0  0  0  0  0  0  0  0  0  0
   37.8030   25.5450   31.9040 C   0  0  0  0  0  0  0  0  0  0  0  0
   36.5210   25.8280   31.4840 N   0  0  0  0  0  0  0  0  0  0  0  0
   35.6540   24.8480   31.0690 C   0  0  0  0  0  0  0  0  0  0  0  0
   36.0420   23.5630   31.0610 N   0  0  0  0  0  0  0  0  0  0  0  0
   34.2900   25.3100   30.6410 C   0  0  0  0  0  0  0  0  0  0  0  0
   42.7640   25.0250   34.7560 C   0  0  2  0  0  0  0  0  0  0  0  0
   41.6780   26.0740   34.7760 C   0  0  0  0  0  0  0  0  0  0  0  0
   43.6040   25.2910   33.5260 C   0  0  0  0  0  0  0  0  0  0  0  0
   44.6210   26.1600   33.9310 N   0  0  0  0  0  0  0  0  0  0  0  0
   44.8170   27.4030   33.3250 C   0  0  0  0  0  0  0  0  0  0  0  0
   45.7860   28.1350   34.2790 C   0  0  0  0  0  0  0  0  0  0  0  0
   46.4730   26.9600   34.9810 C   0  0  0  0  0  0  0  0  0  0  0  0
   45.2740   26.0130   35.1570 C   0  0  0  0  0  0  0  0  0  0  0  0
   41.0929   22.3275   35.8234 H   0  0  0  0  0  0  0  0  0  0  0  0
   42.9348   24.0973   37.2899 H   0  0  0  0  0  0  0  0  0  0  0  0
   42.5662   22.3827   37.5953 H   0  0  0  0  0  0  0  0  0  0  0  0
   44.7242   23.4964   35.9834 H   0  0  0  0  0  0  0  0  0  0  0  0
   44.4234   21.8014   36.2755 H   0  0  0  0  0  0  0  0  0  0  0  0
   42.9364   21.6276   34.3555 H   0  0  0  0  0  0  0  0  0  0  0  0
   44.0255   22.8398   33.7410 H   0  0  0  0  0  0  0  0  0  0  0  0
   40.3525   22.8896   30.4581 H   0  0  0  0  0  0  0  0  0  0  0  0
   42.5117   22.6169   32.0541 H   0  0  0  0  0  0  0  0  0  0  0  0
   37.5854   22.1875   31.4489 H   0  0  0  0  0  0  0  0  0  0  0  0
   38.4912   26.3363   32.2361 H   0  0  0  0  0  0  0  0  0  0  0  0
   33.6773   25.5175   31.5307 H   0  0  0  0  0  0  0  0  0  0  0  0
   34.3852   26.2260   30.0395 H   0  0  0  0  0  0  0  0  0  0  0  0
   33.8089   24.5247   30.0395 H   0  0  0  0  0  0  0  0  0  0  0  0
   43.3378   25.0874   35.6924 H   0  0  0  0  0  0  0  0  0  0  0  0
   41.4242   26.3192   35.8179 H   0  0  0  0  0  0  0  0  0  0  0  0
   42.0333   26.9795   34.2624 H   0  0  0  0  0  0  0  0  0  0  0  0
   40.7854   25.6875   34.2624 H   0  0  0  0  0  0  0  0  0  0  0  0
   42.9927   25.7588   32.7402 H   0  0  0  0  0  0  0  0  0  0  0  0
   44.0141   24.3587   33.1104 H   0  0  0  0  0  0  0  0  0  0  0  0
   45.2650   27.2853   32.3273 H   0  0  0  0  0  0  0  0  0  0  0  0
   43.8765   27.9529   33.1729 H   0  0  0  0  0  0  0  0  0  0  0  0
   46.5096   28.7489   33.7227 H   0  0  0  0  0  0  0  0  0  0  0  0
   45.2922   28.8393   34.9647 H   0  0  0  0  0  0  0  0  0  0  0  0
   47.2577   26.5123   34.3534 H   0  0  0  0  0  0  0  0  0  0  0  0
   46.9973   27.2202   35.9123 H   0  0  0  0  0  0  0  0  0  0  0  0
   44.6331   26.3274   35.9939 H   0  0  0  0  0  0  0  0  0  0  0  0
   45.5527   24.9759   35.3953 H   0  0  0  0  0  0  0  0  0  0  0  0
  1  2  1  0
  3  2  1  0
  4  5  1  0
  4  3  1  0
  5 18  1  0
  5  1  1  0
  6 10  2  0
  7  6  1  0
  7  8  2  0
  8  9  1  0
  5  9  1  6
 10  9  1  0
 11 12  2  0
 12 13  1  0
 12  6  1  0
 14 13  2  0
 15 14  1  0
 16 15  2  0
 16 11  1  0
 17 15  1  0
 18 19  1  0
 20 21  1  0
 20 18  1  0
 21 25  1  0
 22 21  1  0
 22 23  1  0
 23 24  1  0
 24 25  1  0
  1 26  1  0
  2 27  1  0
  2 28  1  0
  3 29  1  0
  3 30  1  0
  4 31  1  0
  4 32  1  0
  7 33  1  0
  8 34  1  0
 11 35  1  0
 13 36  1  0
 17 37  1  0
 17 38  1  0
 17 39  1  0
 18 40  1  1
 19 41  1  0
 19 42  1  0
 19 43  1  0
 20 44  1  0
 20 45  1  0
 22 46  1  0
 22 47  1  0
 23 48  1  0
 23 49  1  0
 24 50  1  0
 24 51  1  0
 25 52  1  0
 25 53  1  0
M  ISO  8  26   5  27  13  28  13  29  13  30  13  31  13  32  13  33  14
M  ISO  8  34  14  35  14  36  14  37   8  38   8  39   8  40   8  41   8
M  ISO  8  42   8  43   8  44   8  45   8  46  13  47  13  48  13  49  13
M  ISO  4  50  13  51  13  52  13  53  13
M  END
>  <minimizedAffinity>  (1) 
-3.65828633

>  <minimizedRMSD>  (1) 
0.873429537

$$$$
