
     RDKit          3D

 48 51  0  0  1  0  0  0  0  0999 V2000
   41.5100   23.2350   35.9200 N   0  0  0  0  0  0  0  0  0  0  0  0
   42.6690   23.1570   36.8050 C   0  0  0  0  0  0  0  0  0  0  0  0
   43.8540   22.7820   35.9460 C   0  0  0  0  0  0  0  0  0  0  0  0
   43.2580   22.6990   34.5600 C   0  0  0  0  0  0  0  0  0  0  0  0
   42.1180   23.6400   34.6670 C   0  0  1  0  0  0  0  0  0  0  0  0
   39.3940   23.8530   32.3410 C   0  0  0  0  0  0  0  0  0  0  0  0
   40.3360   23.1720   31.5390 C   0  0  0  0  0  0  0  0  0  0  0  0
   41.4440   23.0450   32.3780 C   0  0  0  0  0  0  0  0  0  0  0  0
   41.1980   23.5980   33.5790 N   0  0  0  0  0  0  0  0  0  0  0  0
   39.9530   24.0790   33.5310 N   0  0  0  0  0  0  0  0  0  0  0  0
   37.1860   23.2400   31.4430 C   0  0  0  0  0  0  0  0  0  0  0  0
   38.0730   24.2150   31.8970 C   0  0  0  0  0  0  0  0  0  0  0  0
   37.7060   25.5470   31.9320 C   0  0  0  0  0  0  0  0  0  0  0  0
   36.4350   25.8400   31.4980 N   0  0  0  0  0  0  0  0  0  0  0  0
   35.5780   24.8750   31.0570 C   0  0  0  0  0  0  0  0  0  0  0  0
   35.9630   23.5970   31.0350 N   0  0  0  0  0  0  0  0  0  0  0  0
   34.2170   25.3400   30.6110 C   0  0  0  0  0  0  0  0  0  0  0  0
   42.6310   25.0700   34.7720 C   0  0  2  0  0  0  0  0  0  0  0  0
   41.5250   26.0860   34.8210 C   0  0  0  0  0  0  0  0  0  0  0  0
   43.4550   25.3710   33.5350 C   0  0  0  0  0  0  0  0  0  0  0  0
   44.5320   26.2400   34.0320 N   0  0  0  0  0  0  0  0  0  0  0  0
   44.7120   27.4740   33.5980 N   0  0  0  0  0  0  0  0  0  0  0  0
   45.7650   28.0480   34.2140 C   0  0  0  0  0  0  0  0  0  0  0  0
   46.2480   27.0870   35.0780 C   0  0  0  0  0  0  0  0  0  0  0  0
   45.4620   25.9420   34.9580 C   0  0  0  0  0  0  0  0  0  0  0  0
   41.0435   22.3209   35.8320 H   0  0  0  0  0  0  0  0  0  0  0  0
   42.8437   24.1308   37.2859 H   0  0  0  0  0  0  0  0  0  0  0  0
   42.5080   22.4133   37.5993 H   0  0  0  0  0  0  0  0  0  0  0  0
   44.6367   23.5534   35.9940 H   0  0  0  0  0  0  0  0  0  0  0  0
   44.3414   21.8487   36.2643 H   0  0  0  0  0  0  0  0  0  0  0  0
   42.9159   21.6789   34.3309 H   0  0  0  0  0  0  0  0  0  0  0  0
   43.9654   22.9440   33.7541 H   0  0  0  0  0  0  0  0  0  0  0  0
   40.2234   22.8248   30.5013 H   0  0  0  0  0  0  0  0  0  0  0  0
   42.3895   22.5589   32.0955 H   0  0  0  0  0  0  0  0  0  0  0  0
   37.4900   22.1831   31.4204 H   0  0  0  0  0  0  0  0  0  0  0  0
   38.3928   26.3293   32.2874 H   0  0  0  0  0  0  0  0  0  0  0  0
   33.5949   25.5525   31.4930 H   0  0  0  0  0  0  0  0  0  0  0  0
   34.3213   26.2535   30.0071 H   0  0  0  0  0  0  0  0  0  0  0  0
   33.7406   24.5537   30.0071 H   0  0  0  0  0  0  0  0  0  0  0  0
   43.2105   25.1405   35.7043 H   0  0  0  0  0  0  0  0  0  0  0  0
   41.2800   26.3110   35.8695 H   0  0  0  0  0  0  0  0  0  0  0  0
   41.8503   27.0068   34.3147 H   0  0  0  0  0  0  0  0  0  0  0  0
   40.6351   25.6839   34.3147 H   0  0  0  0  0  0  0  0  0  0  0  0
   42.8496   25.8915   32.7783 H   0  0  0  0  0  0  0  0  0  0  0  0
   43.8345   24.4618   33.0458 H   0  0  0  0  0  0  0  0  0  0  0  0
   46.1554   29.0649   34.0605 H   0  0  0  0  0  0  0  0  0  0  0  0
   47.1106   27.2048   35.7503 H   0  0  0  0  0  0  0  0  0  0  0  0
   45.5776   24.9946   35.5049 H   0  0  0  0  0  0  0  0  0  0  0  0
  1  2  1  0
  3  2  1  0
  4  5  1  0
  4  3  1  0
  5 18  1  0
  5  1  1  0
  6 10  2  0
  7  6  1  0
  7  8  2  0
  8  9  1  0
  5  9  1  6
 10  9  1  0
 11 12  2  0
 12 13  1  0
 12  6  1  0
 14 13  2  0
 15 14  1  0
 16 15  2  0
 16 11  1  0
 17 15  1  0
 18 19  1  0
 20 21  1  0
 20 18  1  0
 21 25  1  0
 22 21  1  0
 22 23  2  0
 23 24  1  0
 25 24  2  0
  1 26  1  0
  2 27  1  0
  2 28  1  0
  3 29  1  0
  3 30  1  0
  4 31  1  0
  4 32  1  0
  7 33  1  0
  8 34  1  0
 11 35  1  0
 13 36  1  0
 17 37  1  0
 17 38  1  0
 17 39  1  0
 18 40  1  1
 19 41  1  0
 19 42  1  0
 19 43  1  0
 20 44  1  0
 20 45  1  0
 23 46  1  0
 24 47  1  0
 25 48  1  0
M  ISO  8  26   5  27  13  28  13  29  13  30  13  31  13  32  13  33  14
M  ISO  8  34  14  35  14  36  14  37   8  38   8  39   8  40   8  41   8
M  ISO  7  42   8  43   8  44   8  45   8  46  14  47  14  48  14
M  END
>  <minimizedAffinity>  (1) 
-3.65011191

>  <minimizedRMSD>  (1) 
0.882716537

$$$$
