
     RDKit          3D

 25 27  0  0  0  0  0  0  0  0999 V2000
   40.3630   22.2900   37.4990 C   0  0  0  0  0  0  0  0  0  0  0  0
   39.4050   22.8870   36.6280 C   0  0  0  0  0  0  0  0  0  0  0  0
   39.8740   23.6840   35.5840 C   0  0  0  0  0  0  0  0  0  0  0  0
   41.2090   23.8520   35.4470 N   0  0  0  0  0  0  0  0  0  0  0  0
   42.0980   23.2710   36.2900 C   0  0  0  0  0  0  0  0  0  0  0  0
   41.6790   22.5020   37.2990 N   0  0  0  0  0  0  0  0  0  0  0  0
   38.9200   24.3110   34.6750 C   0  0  0  0  0  0  0  0  0  0  0  0
   38.3940   23.7480   33.5300 C   0  0  0  0  0  0  0  0  0  0  0  0
   37.5530   24.6630   32.9850 N   0  0  0  0  0  0  0  0  0  0  0  0
   37.5430   25.7810   33.7670 C   0  0  0  0  0  0  0  0  0  0  0  0
   36.8290   26.9460   33.5800 C   0  0  0  0  0  0  0  0  0  0  0  0
   36.9980   27.9390   34.5250 C   0  0  0  0  0  0  0  0  0  0  0  0
   37.8410   27.7990   35.6210 C   0  0  0  0  0  0  0  0  0  0  0  0
   38.5340   26.6000   35.7540 C   0  0  0  0  0  0  0  0  0  0  0  0
   38.4000   25.5780   34.8370 C   0  0  0  0  0  0  0  0  0  0  0  0
   43.4630   23.4250   36.1750 O   0  0  0  0  0  0  0  0  0  0  0  0
   40.0283   21.6567   38.3338 H   0  0  0  0  0  0  0  0  0  0  0  0
   38.3272   22.7237   36.7752 H   0  0  0  0  0  0  0  0  0  0  0  0
   38.6149   22.7459   33.1337 H   0  0  0  0  0  0  0  0  0  0  0  0
   37.0094   24.5341   32.1197 H   0  0  0  0  0  0  0  0  0  0  0  0
   36.1569   27.0781   32.7192 H   0  0  0  0  0  0  0  0  0  0  0  0
   36.4419   28.8804   34.4051 H   0  0  0  0  0  0  0  0  0  0  0  0
   37.9563   28.6079   36.3575 H   0  0  0  0  0  0  0  0  0  0  0  0
   39.2068   26.4632   36.6134 H   0  0  0  0  0  0  0  0  0  0  0  0
   44.0676   22.9776   36.8187 H   0  0  0  0  0  0  0  0  0  0  0  0
  2  1  2  0
  3  2  1  0
  4  3  2  0
  4  5  1  0
  5  6  2  0
  6  1  1  0
  7 15  1  0
  7  3  1  0
  8  7  2  0
  9  8  1  0
  9 10  1  0
 10 15  2  0
 11 10  1  0
 11 12  2  0
 12 13  1  0
 13 14  2  0
 15 14  1  0
 16  5  1  0
  1 17  1  0
  2 18  1  0
  8 19  1  0
  9 20  1  0
 11 21  1  0
 12 22  1  0
 13 23  1  0
 14 24  1  0
 16 25  1  0
M  ISO  8  17  14  18  14  19  14  20   9  21  14  22  14  23  14  24  14
M  ISO  1  25   3
M  END
>  <minimizedAffinity>  (1) 
-4.3631959

>  <minimizedRMSD>  (1) 
4.81744337

$$$$
