
     RDKit          3D

 17 18  0  0  0  0  0  0  0  0999 V2000
   38.0890   24.2420   38.5570 C   0  0  0  0  0  0  0  0  0  0  0  0
   37.7790   24.6870   37.2600 C   0  0  0  0  0  0  0  0  0  0  0  0
   38.4400   24.1090   36.1670 C   0  0  0  0  0  0  0  0  0  0  0  0
   39.3400   23.1520   36.4600 N   0  0  0  0  0  0  0  0  0  0  0  0
   39.6260   22.7350   37.7040 C   0  0  0  0  0  0  0  0  0  0  0  0
   38.9960   23.2880   38.7340 N   0  0  0  0  0  0  0  0  0  0  0  0
   38.1330   24.5600   34.7880 C   0  0  0  0  0  0  0  0  0  0  0  0
   37.6910   25.8100   34.5180 C   0  0  0  0  0  0  0  0  0  0  0  0
   37.4840   25.8030   32.6950 S   0  0  0  0  0  0  0  0  0  0  0  0
   38.0690   24.0010   32.6210 C   0  0  0  0  0  0  0  0  0  0  0  0
   38.2570   23.8090   33.7100 N   0  0  0  0  0  0  0  0  0  0  0  0
   40.5540   21.7500   37.9760 O   0  0  0  0  0  0  0  0  0  0  0  0
   37.5799   24.6843   39.4260 H   0  0  0  0  0  0  0  0  0  0  0  0
   37.0292   25.4768   37.1050 H   0  0  0  0  0  0  0  0  0  0  0  0
   37.5012   26.6331   35.2226 H   0  0  0  0  0  0  0  0  0  0  0  0
   38.1898   23.3331   31.7554 H   0  0  0  0  0  0  0  0  0  0  0  0
   40.7280   21.4788   38.9121 H   0  0  0  0  0  0  0  0  0  0  0  0
  1  6  2  0
  2  1  1  0
  3  4  1  0
  3  2  2  0
  4  5  2  0
  5 12  1  0
  5  6  1  0
  7  3  1  0
  8  7  2  0
  9  8  1  0
 10  9  1  0
 10 11  2  0
 11  7  1  0
  1 13  1  0
  2 14  1  0
  8 15  1  0
 10 16  1  0
 12 17  1  0
M  ISO  5  13  14  14  14  15  14  16  14  17   3
M  END
>  <minimizedAffinity>  (1) 
-4.06614208

>  <minimizedRMSD>  (1) 
4.63118935

$$$$
