
     RDKit          3D

 14 14  0  0  0  0  0  0  0  0999 V2000
   41.1430   21.9710   36.6030 C   0  0  0  0  0  0  0  0  0  0  0  0
   40.4540   22.5370   37.6910 C   0  0  0  0  0  0  0  0  0  0  0  0
   39.2060   23.1060   37.4420 C   0  0  0  0  0  0  0  0  0  0  0  0
   38.7370   23.0820   36.1810 N   0  0  0  0  0  0  0  0  0  0  0  0
   39.4140   22.5340   35.1540 C   0  0  0  0  0  0  0  0  0  0  0  0
   40.6110   21.9850   35.3730 N   0  0  0  0  0  0  0  0  0  0  0  0
   38.4160   23.7220   38.5350 C   0  0  0  0  0  0  0  0  0  0  0  0
   39.2550   23.8340   39.6190 F   0  0  0  0  0  0  0  0  0  0  0  0
   37.9660   24.9810   38.2050 F   0  0  0  0  0  0  0  0  0  0  0  0
   37.3850   22.8840   38.8300 F   0  0  0  0  0  0  0  0  0  0  0  0
   38.9570   22.4950   33.8510 O   0  0  0  0  0  0  0  0  0  0  0  0
   42.1296   21.5117   36.7636 H   0  0  0  0  0  0  0  0  0  0  0  0
   40.8850   22.5308   38.7030 H   0  0  0  0  0  0  0  0  0  0  0  0
   38.0762   22.8855   33.6235 H   0  0  0  0  0  0  0  0  0  0  0  0
  1  2  2  0
  3  2  1  0
  3  7  1  0
  4  3  2  0
  5  6  2  0
  5  4  1  0
  6  1  1  0
  7 10  1  0
  7  8  1  0
  9  7  1  0
 11  5  1  0
  1 12  1  0
  2 13  1  0
 11 14  1  0
M  ISO  3  12  14  13  14  14   3
M  END
>  <minimizedAffinity>  (1) 
-3.91020346

>  <minimizedRMSD>  (1) 
1.64619243

$$$$
