
     RDKit          3D

 22 24  0  0  0  0  0  0  0  0999 V2000
   43.3480   22.3450   36.3450 C   0  0  0  0  0  0  0  0  0  0  0  0
   42.1730   23.0970   36.6320 C   0  0  0  0  0  0  0  0  0  0  0  0
   41.0340   22.8130   35.8710 C   0  0  0  0  0  0  0  0  0  0  0  0
   41.0900   21.8610   34.9170 N   0  0  0  0  0  0  0  0  0  0  0  0
   42.2260   21.1700   34.6750 C   0  0  0  0  0  0  0  0  0  0  0  0
   43.3430   21.4100   35.3820 N   0  0  0  0  0  0  0  0  0  0  0  0
   39.8010   23.5120   36.0810 N   0  0  0  0  0  0  0  0  0  0  0  0
   38.7010   23.0400   36.7040 C   0  0  0  0  0  0  0  0  0  0  0  0
   37.7600   24.0290   36.6830 N   0  0  0  0  0  0  0  0  0  0  0  0
   38.2960   25.0850   36.0490 C   0  0  0  0  0  0  0  0  0  0  0  0
   37.8750   26.3550   35.7110 C   0  0  0  0  0  0  0  0  0  0  0  0
   38.6690   27.2260   35.0490 N   0  0  0  0  0  0  0  0  0  0  0  0
   39.9240   26.8930   34.6840 C   0  0  0  0  0  0  0  0  0  0  0  0
   40.3970   25.6550   34.9910 N   0  0  0  0  0  0  0  0  0  0  0  0
   39.5900   24.7830   35.6580 C   0  0  0  0  0  0  0  0  0  0  0  0
   42.3300   20.1890   33.7110 O   0  0  0  0  0  0  0  0  0  0  0  0
   44.2682   22.5322   36.9179 H   0  0  0  0  0  0  0  0  0  0  0  0
   42.1616   23.8671   37.4174 H   0  0  0  0  0  0  0  0  0  0  0  0
   38.5838   22.0404   37.1479 H   0  0  0  0  0  0  0  0  0  0  0  0
   36.8584   26.6693   35.9898 H   0  0  0  0  0  0  0  0  0  0  0  0
   40.5570   27.6133   34.1450 H   0  0  0  0  0  0  0  0  0  0  0  0
   43.1889   19.7150   33.5778 H   0  0  0  0  0  0  0  0  0  0  0  0
  1  2  2  0
  3  7  1  0
  3  2  1  0
  4  3  2  0
  5  4  1  0
  5  6  2  0
  6  1  1  0
  7  8  1  0
  9  8  2  0
 10  9  1  0
 11 10  2  0
 12 11  1  0
 13 14  1  0
 13 12  2  0
 14 15  2  0
 15 10  1  0
 15  7  1  0
 16  5  1  0
  1 17  1  0
  2 18  1  0
  8 19  1  0
 11 20  1  0
 13 21  1  0
 16 22  1  0
M  ISO  6  17  14  18  14  19  14  20  14  21  14  22   3
M  END
>  <minimizedAffinity>  (1) 
-3.84691834

>  <minimizedRMSD>  (1) 
4.4040823

$$$$
