
     RDKit          3D

 24 25  0  0  0  0  0  0  0  0999 V2000
   42.4000   20.9880   37.1640 C   0  0  0  0  0  0  0  0  0  0  0  0
   41.2030   21.6240   37.5480 C   0  0  0  0  0  0  0  0  0  0  0  0
   40.3970   22.1810   36.5280 C   0  0  0  0  0  0  0  0  0  0  0  0
   40.8130   22.0760   35.2440 N   0  0  0  0  0  0  0  0  0  0  0  0
   41.9840   21.4490   34.9260 C   0  0  0  0  0  0  0  0  0  0  0  0
   42.7590   20.9170   35.8650 N   0  0  0  0  0  0  0  0  0  0  0  0
   39.1230   22.8650   36.8700 C   0  0  0  0  0  0  0  0  0  0  0  0
   38.9240   24.1620   36.1390 C   0  0  0  0  0  0  0  0  0  0  0  0
   38.0160   24.9650   37.0650 C   0  0  0  0  0  0  0  0  0  0  0  0
   37.8720   24.1710   38.3390 C   0  0  0  0  0  0  0  0  0  0  0  0
   39.1340   23.3180   38.3280 C   0  0  0  0  0  0  0  0  0  0  0  0
   42.4270   21.3320   33.6100 O   0  0  0  0  0  0  0  0  0  0  0  0
   43.0499   20.5439   37.9323 H   0  0  0  0  0  0  0  0  0  0  0  0
   40.9054   21.6853   38.6052 H   0  0  0  0  0  0  0  0  0  0  0  0
   38.3490   22.1251   36.6183 H   0  0  0  0  0  0  0  0  0  0  0  0
   39.8837   24.6777   35.9871 H   0  0  0  0  0  0  0  0  0  0  0  0
   38.4940   24.0238   35.1360 H   0  0  0  0  0  0  0  0  0  0  0  0
   38.4671   25.9450   37.2797 H   0  0  0  0  0  0  0  0  0  0  0  0
   37.0353   25.1396   36.5984 H   0  0  0  0  0  0  0  0  0  0  0  0
   37.8433   24.8302   39.2192 H   0  0  0  0  0  0  0  0  0  0  0  0
   36.9425   23.5853   38.3927 H   0  0  0  0  0  0  0  0  0  0  0  0
   39.0600   22.4677   39.0219 H   0  0  0  0  0  0  0  0  0  0  0  0
   40.0501   23.8351   38.6495 H   0  0  0  0  0  0  0  0  0  0  0  0
   43.2810   20.8711   33.4143 H   0  0  0  0  0  0  0  0  0  0  0  0
  1  2  2  0
  3  7  1  0
  3  2  1  0
  4  3  2  0
  5  4  1  0
  5  6  2  0
  6  1  1  0
  7 11  1  0
  8  7  1  0
  8  9  1  0
  9 10  1  0
 11 10  1  0
 12  5  1  0
  1 13  1  0
  2 14  1  0
  7 15  1  0
  8 16  1  0
  8 17  1  0
  9 18  1  0
  9 19  1  0
 10 20  1  0
 10 21  1  0
 11 22  1  0
 11 23  1  0
 12 24  1  0
M  ISO  8  13  14  14  14  15  13  16  13  17  13  18  13  19  13  20  13
M  ISO  4  21  13  22  13  23  13  24   3
M  END
>  <minimizedAffinity>  (1) 
-3.72787547

>  <minimizedRMSD>  (1) 
3.49672651

$$$$
