
     RDKit          3D

 19 20  0  0  0  0  0  0  0  0999 V2000
   42.5640   20.6030   37.2230 C   0  0  0  0  0  0  0  0  0  0  0  0
   41.4810   21.4580   37.5830 C   0  0  0  0  0  0  0  0  0  0  0  0
   40.8300   22.1350   36.5520 C   0  0  0  0  0  0  0  0  0  0  0  0
   41.2460   21.9530   35.2840 N   0  0  0  0  0  0  0  0  0  0  0  0
   42.2840   21.1290   34.9830 C   0  0  0  0  0  0  0  0  0  0  0  0
   42.9330   20.4640   35.9460 N   0  0  0  0  0  0  0  0  0  0  0  0
   39.7170   23.0170   36.8900 C   0  0  0  0  0  0  0  0  0  0  0  0
   39.2660   23.0720   38.1940 C   0  0  0  0  0  0  0  0  0  0  0  0
   38.1950   23.9470   38.4160 C   0  0  0  0  0  0  0  0  0  0  0  0
   37.6570   24.6730   37.4200 N   0  0  0  0  0  0  0  0  0  0  0  0
   38.1370   24.5840   36.1540 C   0  0  0  0  0  0  0  0  0  0  0  0
   39.1750   23.7460   35.8990 N   0  0  0  0  0  0  0  0  0  0  0  0
   42.7380   20.9190   33.6940 O   0  0  0  0  0  0  0  0  0  0  0  0
   43.1029   20.0505   38.0068 H   0  0  0  0  0  0  0  0  0  0  0  0
   41.1715   21.5787   38.6316 H   0  0  0  0  0  0  0  0  0  0  0  0
   39.7150   22.4725   38.9996 H   0  0  0  0  0  0  0  0  0  0  0  0
   37.7832   24.0428   39.4315 H   0  0  0  0  0  0  0  0  0  0  0  0
   37.6917   25.1822   35.3454 H   0  0  0  0  0  0  0  0  0  0  0  0
   43.4991   20.3073   33.5308 H   0  0  0  0  0  0  0  0  0  0  0  0
  1  2  2  0
  3  7  1  0
  3  2  1  0
  4  3  2  0
  5  4  1  0
  5  6  2  0
  6  1  1  0
  7  8  2  0
  8  9  1  0
 10  9  2  0
 11 10  1  0
 12 11  2  0
 12  7  1  0
 13  5  1  0
  1 14  1  0
  2 15  1  0
  8 16  1  0
  9 17  1  0
 11 18  1  0
 13 19  1  0
M  ISO  6  14  14  15  14  16  14  17  14  18  14  19   3
M  END
>  <minimizedAffinity>  (1) 
-3.52052569

>  <minimizedRMSD>  (1) 
4.0752902

$$$$
