
     RDKit          3D

 23 24  0  0  0  0  0  0  0  0999 V2000
   42.8690   21.3690   36.8290 C   0  0  0  0  0  0  0  0  0  0  0  0
   41.4730   21.4630   36.9600 C   0  0  0  0  0  0  0  0  0  0  0  0
   40.8570   22.6380   36.5080 C   0  0  0  0  0  0  0  0  0  0  0  0
   41.6320   23.6200   35.9710 N   0  0  0  0  0  0  0  0  0  0  0  0
   42.9700   23.4900   35.8640 C   0  0  0  0  0  0  0  0  0  0  0  0
   43.5740   22.3720   36.2910 N   0  0  0  0  0  0  0  0  0  0  0  0
   39.4850   22.9280   36.5490 N   0  0  0  0  0  0  0  0  0  0  0  0
   38.7370   23.9880   37.1960 C   0  0  0  0  0  0  0  0  0  0  0  0
   37.4850   23.2120   37.5960 C   0  0  0  0  0  0  0  0  0  0  0  0
   37.1720   22.5360   36.2820 C   0  0  0  0  0  0  0  0  0  0  0  0
   38.5390   22.0600   35.8380 C   0  0  0  0  0  0  0  0  0  0  0  0
   43.7820   24.4670   35.3240 O   0  0  0  0  0  0  0  0  0  0  0  0
   43.3880   20.4618   37.1721 H   0  0  0  0  0  0  0  0  0  0  0  0
   40.8853   20.6444   37.4011 H   0  0  0  0  0  0  0  0  0  0  0  0
   39.2682   24.3881   38.0722 H   0  0  0  0  0  0  0  0  0  0  0  0
   38.5557   24.8772   36.5743 H   0  0  0  0  0  0  0  0  0  0  0  0
   37.6928   22.4822   38.3924 H   0  0  0  0  0  0  0  0  0  0  0  0
   36.6704   23.8241   38.0104 H   0  0  0  0  0  0  0  0  0  0  0  0
   36.4809   21.6917   36.4218 H   0  0  0  0  0  0  0  0  0  0  0  0
   36.6734   23.1925   35.5537 H   0  0  0  0  0  0  0  0  0  0  0  0
   38.6929   21.0073   36.1177 H   0  0  0  0  0  0  0  0  0  0  0  0
   38.6642   22.1141   34.7465 H   0  0  0  0  0  0  0  0  0  0  0  0
   44.7598   24.3227   35.2680 H   0  0  0  0  0  0  0  0  0  0  0  0
  1  2  2  0
  3  7  1  0
  3  2  1  0
  4  3  2  0
  5  4  1  0
  5  6  2  0
  6  1  1  0
  7  8  1  0
  8  9  1  0
 10  9  1  0
 11 10  1  0
 11  7  1  0
 12  5  1  0
  1 13  1  0
  2 14  1  0
  8 15  1  0
  8 16  1  0
  9 17  1  0
  9 18  1  0
 10 19  1  0
 10 20  1  0
 11 21  1  0
 11 22  1  0
 12 23  1  0
M  ISO  8  13  14  14  14  15  13  16  13  17  13  18  13  19  13  20  13
M  ISO  3  21  13  22  13  23   3
M  END
>  <minimizedAffinity>  (1) 
-3.00440884

>  <minimizedRMSD>  (1) 
4.26295233

$$$$
