
     RDKit          3D

 12 12  0  0  0  0  0  0  0  0999 V2000
   40.2050   22.3280   37.2210 C   0  0  0  0  0  0  0  0  0  0  0  0
   39.6380   23.1830   38.2090 C   0  0  0  0  0  0  0  0  0  0  0  0
   38.3380   23.6550   37.9710 C   0  0  0  0  0  0  0  0  0  0  0  0
   37.6990   23.2850   36.8430 N   0  0  0  0  0  0  0  0  0  0  0  0
   38.2900   22.4650   35.9340 C   0  0  0  0  0  0  0  0  0  0  0  0
   39.5280   21.9950   36.1240 N   0  0  0  0  0  0  0  0  0  0  0  0
   37.6590   22.0650   34.7590 O   0  0  0  0  0  0  0  0  0  0  0  0
   37.7290   24.4820   38.8820 O   0  0  0  0  0  0  0  0  0  0  0  0
   41.2220   21.9352   37.3671 H   0  0  0  0  0  0  0  0  0  0  0  0
   40.1936   23.4606   39.1169 H   0  0  0  0  0  0  0  0  0  0  0  0
   36.7414   22.3780   34.5586 H   0  0  0  0  0  0  0  0  0  0  0  0
   36.8119   24.8144   38.7131 H   0  0  0  0  0  0  0  0  0  0  0  0
  1  2  2  0
  3  2  1  0
  3  8  1  0
  4  3  2  0
  5  6  2  0
  5  4  1  0
  6  1  1  0
  7  5  1  0
  1  9  1  0
  2 10  1  0
  7 11  1  0
  8 12  1  0
M  ISO  4   9  14  10  14  11   3  12   3
M  END
>  <minimizedAffinity>  (1) 
-2.94121647

>  <minimizedRMSD>  (1) 
0.598770976

$$$$
