
     RDKit          3D

 20 20  0  0  0  0  0  0  0  0999 V2000
   38.6980   23.3920   38.4730 C   0  0  0  0  0  0  0  0  0  0  0  0
   38.0070   24.4110   37.7840 C   0  0  0  0  0  0  0  0  0  0  0  0
   38.4290   24.7190   36.4760 C   0  0  0  0  0  0  0  0  0  0  0  0
   39.4740   24.0200   35.9500 N   0  0  0  0  0  0  0  0  0  0  0  0
   40.1000   23.0540   36.6530 C   0  0  0  0  0  0  0  0  0  0  0  0
   39.7250   22.7340   37.9000 N   0  0  0  0  0  0  0  0  0  0  0  0
   37.7700   25.7670   35.6790 C   0  0  0  0  0  0  0  0  0  0  0  0
   37.7880   25.4690   34.1950 C   0  0  0  0  0  0  0  0  0  0  0  0
   38.3660   27.1360   35.9170 C   0  0  0  0  0  0  0  0  0  0  0  0
   41.1670   22.3220   36.1480 O   0  0  0  0  0  0  0  0  0  0  0  0
   38.3928   23.1298   39.4968 H   0  0  0  0  0  0  0  0  0  0  0  0
   37.1678   24.9464   38.2521 H   0  0  0  0  0  0  0  0  0  0  0  0
   36.7254   25.7709   36.0236 H   0  0  0  0  0  0  0  0  0  0  0  0
   37.8537   24.3819   34.0401 H   0  0  0  0  0  0  0  0  0  0  0  0
   36.8652   25.8501   33.7333 H   0  0  0  0  0  0  0  0  0  0  0  0
   38.6582   25.9584   33.7333 H   0  0  0  0  0  0  0  0  0  0  0  0
   38.4454   27.3183   36.9989 H   0  0  0  0  0  0  0  0  0  0  0  0
   39.3666   27.1843   35.4626 H   0  0  0  0  0  0  0  0  0  0  0  0
   37.7196   27.9013   35.4626 H   0  0  0  0  0  0  0  0  0  0  0  0
   41.5941   21.6224   36.7031 H   0  0  0  0  0  0  0  0  0  0  0  0
  2  1  2  0
  3  2  1  0
  4  3  2  0
  4  5  1  0
  5  6  2  0
  6  1  1  0
  7  9  1  0
  7  3  1  0
  8  7  1  0
 10  5  1  0
  1 11  1  0
  2 12  1  0
  7 13  1  0
  8 14  1  0
  8 15  1  0
  8 16  1  0
  9 17  1  0
  9 18  1  0
  9 19  1  0
 10 20  1  0
M  ISO  8  11  14  12  14  13   8  14   8  15   8  16   8  17   8  18   8
M  ISO  2  19   8  20   3
M  END
>  <minimizedAffinity>  (1) 
-3.52836967

>  <minimizedRMSD>  (1) 
2.96106195

$$$$
