
     RDKit          3D

 28 29  0  0  0  0  0  0  0  0999 V2000
   38.2580   23.3140   37.4460 C   0  0  0  0  0  0  0  0  0  0  0  0
   38.0550   24.6730   37.1790 C   0  0  0  0  0  0  0  0  0  0  0  0
   37.8990   25.0590   35.8470 C   0  0  0  0  0  0  0  0  0  0  0  0
   37.9500   24.1080   34.8810 N   0  0  0  0  0  0  0  0  0  0  0  0
   38.1480   22.7980   35.1800 C   0  0  0  0  0  0  0  0  0  0  0  0
   38.3020   22.4100   36.4650 N   0  0  0  0  0  0  0  0  0  0  0  0
   37.6580   26.4530   35.4390 C   0  0  0  0  0  0  0  0  0  0  0  0
   37.2230   26.6120   34.0170 C   0  0  0  0  0  0  0  0  0  0  0  0
   38.8820   27.3350   35.6980 C   0  0  0  0  0  0  0  0  0  0  0  0
   38.2040   21.7950   34.2250 O   0  0  0  0  0  0  0  0  0  0  0  0
   37.2270   21.6270   33.2560 C   0  0  0  0  0  0  0  0  0  0  0  0
   36.1250   20.8590   33.6270 C   0  0  0  0  0  0  0  0  0  0  0  0
   35.0920   20.6280   32.7380 C   0  0  0  0  0  0  0  0  0  0  0  0
   35.1940   21.1750   31.5070 N   0  0  0  0  0  0  0  0  0  0  0  0
   36.2410   21.9140   31.1380 C   0  0  0  0  0  0  0  0  0  0  0  0
   37.2420   22.1320   32.0080 N   0  0  0  0  0  0  0  0  0  0  0  0
   38.3841   22.9837   38.4876 H   0  0  0  0  0  0  0  0  0  0  0  0
   38.0196   25.4125   37.9925 H   0  0  0  0  0  0  0  0  0  0  0  0
   36.8186   26.7829   36.0688 H   0  0  0  0  0  0  0  0  0  0  0  0
   36.1902   26.9895   33.9895 H   0  0  0  0  0  0  0  0  0  0  0  0
   37.8878   27.3253   33.5078 H   0  0  0  0  0  0  0  0  0  0  0  0
   37.2711   25.6382   33.5078 H   0  0  0  0  0  0  0  0  0  0  0  0
   39.0328   27.4437   36.7822 H   0  0  0  0  0  0  0  0  0  0  0  0
   39.7714   26.8689   35.2490 H   0  0  0  0  0  0  0  0  0  0  0  0
   38.7213   28.3262   35.2490 H   0  0  0  0  0  0  0  0  0  0  0  0
   36.0766   20.4315   34.6394 H   0  0  0  0  0  0  0  0  0  0  0  0
   34.2195   20.0214   33.0223 H   0  0  0  0  0  0  0  0  0  0  0  0
   36.2852   22.3432   30.1262 H   0  0  0  0  0  0  0  0  0  0  0  0
  2  1  2  0
  3  2  1  0
  4  5  1  0
  4  3  2  0
  5  6  2  0
  6  1  1  0
  7  9  1  0
  7  3  1  0
  8  7  1  0
 10  5  1  0
 11 12  2  0
 11 10  1  0
 13 12  1  0
 14 13  2  0
 15 14  1  0
 15 16  2  0
 16 11  1  0
  1 17  1  0
  2 18  1  0
  7 19  1  0
  8 20  1  0
  8 21  1  0
  8 22  1  0
  9 23  1  0
  9 24  1  0
  9 25  1  0
 12 26  1  0
 13 27  1  0
 15 28  1  0
M  ISO  8  17  14  18  14  19   8  20   8  21   8  22   8  23   8  24   8
M  ISO  4  25   8  26  14  27  14  28  14
M  END
>  <minimizedAffinity>  (1) 
-4.37334824

>  <minimizedRMSD>  (1) 
5.38189602

$$$$
