
     RDKit          3D

 23 23  0  0  0  0  0  0  0  0999 V2000
   38.3320   23.9030   38.7380 C   0  0  0  0  0  0  0  0  0  0  0  0
   37.8710   24.9390   37.9150 C   0  0  0  0  0  0  0  0  0  0  0  0
   38.2460   24.9140   36.5600 C   0  0  0  0  0  0  0  0  0  0  0  0
   39.0340   23.8860   36.1200 N   0  0  0  0  0  0  0  0  0  0  0  0
   39.4450   22.9150   36.9670 C   0  0  0  0  0  0  0  0  0  0  0  0
   39.1000   22.9230   38.2570 N   0  0  0  0  0  0  0  0  0  0  0  0
   37.8080   25.9340   35.5960 C   0  0  0  0  0  0  0  0  0  0  0  0
   37.8730   25.4930   34.1660 C   0  0  0  0  0  0  0  0  0  0  0  0
   38.5720   27.2380   35.7750 C   0  0  0  0  0  0  0  0  0  0  0  0
   40.2470   21.8500   36.5540 O   0  0  0  0  0  0  0  0  0  0  0  0
   41.6060   21.7430   36.9310 C   0  0  0  0  0  0  0  0  0  0  0  0
   42.3670   21.2040   35.9120 F   0  0  0  0  0  0  0  0  0  0  0  0
   41.7730   21.0470   38.1080 F   0  0  0  0  0  0  0  0  0  0  0  0
   42.0820   23.0470   37.1020 F   0  0  0  0  0  0  0  0  0  0  0  0
   38.0553   23.8972   39.8026 H   0  0  0  0  0  0  0  0  0  0  0  0
   37.2374   25.7443   38.3151 H   0  0  0  0  0  0  0  0  0  0  0  0
   36.7449   26.0996   35.8247 H   0  0  0  0  0  0  0  0  0  0  0  0
   38.0333   24.4055   34.1246 H   0  0  0  0  0  0  0  0  0  0  0  0
   36.9282   25.7438   33.6616 H   0  0  0  0  0  0  0  0  0  0  0  0
   38.7053   26.0058   33.6616 H   0  0  0  0  0  0  0  0  0  0  0  0
   38.6944   27.4469   36.8480 H   0  0  0  0  0  0  0  0  0  0  0  0
   39.5618   27.1508   35.3032 H   0  0  0  0  0  0  0  0  0  0  0  0
   38.0120   28.0588   35.3032 H   0  0  0  0  0  0  0  0  0  0  0  0
  2  1  2  0
  3  2  1  0
  4  3  2  0
  4  5  1  0
  5  6  2  0
  6  1  1  0
  7  9  1  0
  7  3  1  0
  8  7  1  0
 10 11  1  0
 10  5  1  0
 11 14  1  0
 11 13  1  0
 12 11  1  0
  1 15  1  0
  2 16  1  0
  7 17  1  0
  8 18  1  0
  8 19  1  0
  8 20  1  0
  9 21  1  0
  9 22  1  0
  9 23  1  0
M  ISO  8  15  14  16  14  17   8  18   8  19   8  20   8  21   8  22   8
M  ISO  1  23   8
M  END
>  <minimizedAffinity>  (1) 
-4.21640587

>  <minimizedRMSD>  (1) 
1.63877022

$$$$
