
     RDKit          3D

 23 23  0  0  0  0  0  0  0  0999 V2000
   38.5300   23.5440   38.5980 C   0  0  0  0  0  0  0  0  0  0  0  0
   37.9250   24.5880   37.8560 C   0  0  0  0  0  0  0  0  0  0  0  0
   38.3410   24.7540   36.5310 C   0  0  0  0  0  0  0  0  0  0  0  0
   39.2910   23.9200   36.0330 N   0  0  0  0  0  0  0  0  0  0  0  0
   39.8310   22.9430   36.7870 C   0  0  0  0  0  0  0  0  0  0  0  0
   39.4610   22.7520   38.0550 N   0  0  0  0  0  0  0  0  0  0  0  0
   37.7630   25.7850   35.6470 C   0  0  0  0  0  0  0  0  0  0  0  0
   37.8240   25.4350   34.1940 C   0  0  0  0  0  0  0  0  0  0  0  0
   38.4050   27.1510   35.8880 C   0  0  0  0  0  0  0  0  0  0  0  0
   40.8000   22.0730   36.3040 O   0  0  0  0  0  0  0  0  0  0  0  0
   41.8770   21.6050   37.0130 C   0  0  0  0  0  0  0  0  0  0  0  0
   43.0570   21.9330   36.7240 O   0  0  0  0  0  0  0  0  0  0  0  0
   41.6820   20.7330   38.0950 O   0  0  0  0  0  0  0  0  0  0  0  0
   38.2277   23.3812   39.6430 H   0  0  0  0  0  0  0  0  0  0  0  0
   37.1605   25.2405   38.3029 H   0  0  0  0  0  0  0  0  0  0  0  0
   36.6974   25.8335   35.9155 H   0  0  0  0  0  0  0  0  0  0  0  0
   38.0119   24.3568   34.0842 H   0  0  0  0  0  0  0  0  0  0  0  0
   36.8677   25.6912   33.7147 H   0  0  0  0  0  0  0  0  0  0  0  0
   38.6373   25.9996   33.7147 H   0  0  0  0  0  0  0  0  0  0  0  0
   38.4895   27.3307   36.9699 H   0  0  0  0  0  0  0  0  0  0  0  0
   39.4066   27.1707   35.4338 H   0  0  0  0  0  0  0  0  0  0  0  0
   37.7809   27.9347   35.4338 H   0  0  0  0  0  0  0  0  0  0  0  0
   42.4603   20.3961   38.6057 H   0  0  0  0  0  0  0  0  0  0  0  0
  2  1  2  0
  3  2  1  0
  4  3  2  0
  4  5  1  0
  5  6  2  0
  6  1  1  0
  7  9  1  0
  7  3  1  0
  8  7  1  0
 10  5  1  0
 10 11  1  0
 11 13  1  0
 12 11  2  0
  1 14  1  0
  2 15  1  0
  7 16  1  0
  8 17  1  0
  8 18  1  0
  8 19  1  0
  9 20  1  0
  9 21  1  0
  9 22  1  0
 13 23  1  0
M  ISO  8  14  14  15  14  16   8  17   8  18   8  19   8  20   8  21   8
M  ISO  2  22   8  23   3
M  END
>  <minimizedAffinity>  (1) 
-4.15066624

>  <minimizedRMSD>  (1) 
0.949375331

$$$$
