
     RDKit          3D

 35 36  0  0  0  0  0  0  0  0999 V2000
   38.6400   23.4800   38.5470 C   0  0  0  0  0  0  0  0  0  0  0  0
   38.0310   24.5360   37.8600 C   0  0  0  0  0  0  0  0  0  0  0  0
   38.3570   24.7110   36.5130 C   0  0  0  0  0  0  0  0  0  0  0  0
   39.2490   23.8540   35.9210 N   0  0  0  0  0  0  0  0  0  0  0  0
   39.8020   22.8490   36.6490 C   0  0  0  0  0  0  0  0  0  0  0  0
   39.5060   22.6610   37.9440 N   0  0  0  0  0  0  0  0  0  0  0  0
   37.7630   25.7740   35.6770 C   0  0  0  0  0  0  0  0  0  0  0  0
   37.7810   25.4790   34.2090 C   0  0  0  0  0  0  0  0  0  0  0  0
   38.4290   27.1230   35.9450 C   0  0  0  0  0  0  0  0  0  0  0  0
   40.7120   21.9490   36.0920 O   0  0  0  0  0  0  0  0  0  0  0  0
   44.8780   22.4410   36.0090 N   0  0  0  0  0  0  0  0  0  0  0  0
   43.9500   23.4950   35.7480 C   0  0  0  0  0  0  0  0  0  0  0  0
   42.6270   23.3390   36.4520 C   0  0  0  0  0  0  0  0  0  0  0  0
   42.0710   21.9360   36.3730 C   0  0  0  0  0  0  0  0  0  0  0  0
   42.9080   21.2060   35.3180 C   0  0  0  0  0  0  0  0  0  0  0  0
   44.3020   21.1220   35.9470 C   0  0  0  0  0  0  0  0  0  0  0  0
   38.4000   23.3205   39.6086 H   0  0  0  0  0  0  0  0  0  0  0  0
   37.3191   25.2062   38.3640 H   0  0  0  0  0  0  0  0  0  0  0  0
   36.7048   25.8162   35.9745 H   0  0  0  0  0  0  0  0  0  0  0  0
   37.8473   24.3920   34.0542 H   0  0  0  0  0  0  0  0  0  0  0  0
   36.8580   25.8595   33.7472 H   0  0  0  0  0  0  0  0  0  0  0  0
   38.6509   25.9689   33.7472 H   0  0  0  0  0  0  0  0  0  0  0  0
   38.5083   27.2836   37.0303 H   0  0  0  0  0  0  0  0  0  0  0  0
   39.4344   27.1306   35.4988 H   0  0  0  0  0  0  0  0  0  0  0  0
   37.8237   27.9258   35.4988 H   0  0  0  0  0  0  0  0  0  0  0  0
   45.6349   22.4966   35.3127 H   0  0  0  0  0  0  0  0  0  0  0  0
   44.4040   24.4430   36.0722 H   0  0  0  0  0  0  0  0  0  0  0  0
   43.7393   23.4717   34.6686 H   0  0  0  0  0  0  0  0  0  0  0  0
   42.7619   23.6022   37.5115 H   0  0  0  0  0  0  0  0  0  0  0  0
   41.9092   24.0033   35.9486 H   0  0  0  0  0  0  0  0  0  0  0  0
   42.1454   21.4073   37.3347 H   0  0  0  0  0  0  0  0  0  0  0  0
   42.9366   21.7763   34.3778 H   0  0  0  0  0  0  0  0  0  0  0  0
   42.4985   20.2180   35.0609 H   0  0  0  0  0  0  0  0  0  0  0  0
   44.2221   20.7081   36.9630 H   0  0  0  0  0  0  0  0  0  0  0  0
   44.9426   20.4691   35.3360 H   0  0  0  0  0  0  0  0  0  0  0  0
  2  1  2  0
  3  2  1  0
  4  3  2  0
  4  5  1  0
  5  6  2  0
  6  1  1  0
  7  9  1  0
  7  3  1  0
  8  7  1  0
 10 14  1  0
 10  5  1  0
 12 11  1  0
 12 13  1  0
 14 13  1  0
 15 16  1  0
 15 14  1  0
 16 11  1  0
  1 17  1  0
  2 18  1  0
  7 19  1  0
  8 20  1  0
  8 21  1  0
  8 22  1  0
  9 23  1  0
  9 24  1  0
  9 25  1  0
 11 26  1  0
 12 27  1  0
 12 28  1  0
 13 29  1  0
 13 30  1  0
 14 31  1  0
 15 32  1  0
 15 33  1  0
 16 34  1  0
 16 35  1  0
M  ISO  8  17  14  18  14  19   8  20   8  21   8  22   8  23   8  24   8
M  ISO  8  25   8  26   5  27  13  28  13  29  13  30  13  31  13  32  13
M  ISO  3  33  13  34  13  35  13
M  END
>  <minimizedAffinity>  (1) 
-4.11086226

>  <minimizedRMSD>  (1) 
1.72093678

$$$$
