
     RDKit          3D

 27 28  0  0  0  0  0  0  0  0999 V2000
   38.7120   23.3670   38.4670 C   0  0  0  0  0  0  0  0  0  0  0  0
   38.0230   24.3760   37.7800 C   0  0  0  0  0  0  0  0  0  0  0  0
   38.4560   24.7050   36.4920 C   0  0  0  0  0  0  0  0  0  0  0  0
   39.5240   24.0360   35.9610 N   0  0  0  0  0  0  0  0  0  0  0  0
   40.1440   23.0730   36.6770 C   0  0  0  0  0  0  0  0  0  0  0  0
   39.7570   22.7330   37.9100 N   0  0  0  0  0  0  0  0  0  0  0  0
   37.7870   25.7380   35.6670 C   0  0  0  0  0  0  0  0  0  0  0  0
   37.8130   25.4400   34.1990 C   0  0  0  0  0  0  0  0  0  0  0  0
   38.3830   27.1220   35.9230 C   0  0  0  0  0  0  0  0  0  0  0  0
   41.2370   22.3590   36.1740 O   0  0  0  0  0  0  0  0  0  0  0  0
   44.4490   23.8100   36.5130 N   0  0  0  0  0  0  0  0  0  0  0  0
   43.1470   23.9270   36.6720 N   0  0  0  0  0  0  0  0  0  0  0  0
   42.5420   22.7910   36.2450 C   0  0  0  0  0  0  0  0  0  0  0  0
   43.5650   21.9450   35.8050 C   0  0  0  0  0  0  0  0  0  0  0  0
   44.7560   22.6120   35.9840 C   0  0  0  0  0  0  0  0  0  0  0  0
   38.3908   23.0891   39.4817 H   0  0  0  0  0  0  0  0  0  0  0  0
   37.1680   24.8930   38.2401 H   0  0  0  0  0  0  0  0  0  0  0  0
   36.7327   25.7265   35.9807 H   0  0  0  0  0  0  0  0  0  0  0  0
   37.9077   24.3547   34.0468 H   0  0  0  0  0  0  0  0  0  0  0  0
   36.8805   25.7952   33.7362 H   0  0  0  0  0  0  0  0  0  0  0  0
   38.6699   25.9513   33.7362 H   0  0  0  0  0  0  0  0  0  0  0  0
   38.4573   27.2945   37.0069 H   0  0  0  0  0  0  0  0  0  0  0  0
   39.3852   27.1785   35.4732 H   0  0  0  0  0  0  0  0  0  0  0  0
   37.7354   27.8890   35.4732 H   0  0  0  0  0  0  0  0  0  0  0  0
   45.1372   24.5356   36.7596 H   0  0  0  0  0  0  0  0  0  0  0  0
   43.4409   20.9331   35.3920 H   0  0  0  0  0  0  0  0  0  0  0  0
   45.7618   22.2383   35.7418 H   0  0  0  0  0  0  0  0  0  0  0  0
  2  1  2  0
  3  2  1  0
  4  3  2  0
  4  5  1  0
  5  6  2  0
  6  1  1  0
  7  9  1  0
  7  3  1  0
  8  7  1  0
 10 13  1  0
 10  5  1  0
 11 12  1  0
 13 12  2  0
 14 15  2  0
 14 13  1  0
 15 11  1  0
  1 16  1  0
  2 17  1  0
  7 18  1  0
  8 19  1  0
  8 20  1  0
  8 21  1  0
  9 22  1  0
  9 23  1  0
  9 24  1  0
 11 25  1  0
 14 26  1  0
 15 27  1  0
M  ISO  8  16  14  17  14  18   8  19   8  20   8  21   8  22   8  23   8
M  ISO  4  24   8  25   9  26  14  27  14
M  END
>  <minimizedAffinity>  (1) 
-4.06657314

>  <minimizedRMSD>  (1) 
1.76803839

$$$$
