
     RDKit          3D

 25 26  0  0  0  0  0  0  0  0999 V2000
   38.7270   23.4040   38.4770 C   0  0  0  0  0  0  0  0  0  0  0  0
   38.0500   24.4260   37.7980 C   0  0  0  0  0  0  0  0  0  0  0  0
   38.4380   24.7160   36.4870 C   0  0  0  0  0  0  0  0  0  0  0  0
   39.4540   23.9930   35.9280 N   0  0  0  0  0  0  0  0  0  0  0  0
   40.0690   23.0160   36.6320 C   0  0  0  0  0  0  0  0  0  0  0  0
   39.7180   22.7190   37.8880 N   0  0  0  0  0  0  0  0  0  0  0  0
   37.7770   25.7540   35.6710 C   0  0  0  0  0  0  0  0  0  0  0  0
   37.7840   25.4650   34.2040 C   0  0  0  0  0  0  0  0  0  0  0  0
   38.3860   27.1330   35.9340 C   0  0  0  0  0  0  0  0  0  0  0  0
   41.1110   22.2540   36.0890 O   0  0  0  0  0  0  0  0  0  0  0  0
   42.4220   22.6650   36.1940 C   0  0  0  0  0  0  0  0  0  0  0  0
   43.4460   21.7970   36.0240 N   0  0  0  0  0  0  0  0  0  0  0  0
   44.5390   22.4640   36.1790 O   0  0  0  0  0  0  0  0  0  0  0  0
   44.2760   23.7210   36.4410 C   0  0  0  0  0  0  0  0  0  0  0  0
   42.9260   23.8930   36.4590 N   0  0  0  0  0  0  0  0  0  0  0  0
   38.4407   23.1596   39.5106 H   0  0  0  0  0  0  0  0  0  0  0  0
   37.2359   24.9844   38.2833 H   0  0  0  0  0  0  0  0  0  0  0  0
   36.7239   25.7480   35.9888 H   0  0  0  0  0  0  0  0  0  0  0  0
   37.8104   24.3769   34.0448 H   0  0  0  0  0  0  0  0  0  0  0  0
   36.8755   25.8810   33.7440 H   0  0  0  0  0  0  0  0  0  0  0  0
   38.6713   25.9245   33.7440 H   0  0  0  0  0  0  0  0  0  0  0  0
   38.4599   27.3004   37.0187 H   0  0  0  0  0  0  0  0  0  0  0  0
   39.3895   27.1821   35.4862 H   0  0  0  0  0  0  0  0  0  0  0  0
   37.7463   27.9078   35.4862 H   0  0  0  0  0  0  0  0  0  0  0  0
   45.0239   24.5081   36.6175 H   0  0  0  0  0  0  0  0  0  0  0  0
  2  1  2  0
  3  2  1  0
  4  3  2  0
  4  5  1  0
  5  6  2  0
  6  1  1  0
  7  9  1  0
  7  3  1  0
  8  7  1  0
 10 11  1  0
 10  5  1  0
 11 15  1  0
 12 13  1  0
 12 11  2  0
 13 14  1  0
 14 15  2  0
  1 16  1  0
  2 17  1  0
  7 18  1  0
  8 19  1  0
  8 20  1  0
  8 21  1  0
  9 22  1  0
  9 23  1  0
  9 24  1  0
 14 25  1  0
M  ISO  8  16  14  17  14  18   8  19   8  20   8  21   8  22   8  23   8
M  ISO  2  24   8  25  14
M  END
>  <minimizedAffinity>  (1) 
-3.98303175

>  <minimizedRMSD>  (1) 
1.73450637

$$$$
