
     RDKit          3D

 27 28  0  0  0  0  0  0  0  0999 V2000
   38.6100   23.4650   38.5420 C   0  0  0  0  0  0  0  0  0  0  0  0
   37.9660   24.4880   37.8220 C   0  0  0  0  0  0  0  0  0  0  0  0
   38.3940   24.7340   36.5150 C   0  0  0  0  0  0  0  0  0  0  0  0
   39.4110   23.9810   35.9900 N   0  0  0  0  0  0  0  0  0  0  0  0
   39.9850   23.0090   36.7410 C   0  0  0  0  0  0  0  0  0  0  0  0
   39.6070   22.7440   37.9930 N   0  0  0  0  0  0  0  0  0  0  0  0
   37.7740   25.7650   35.6570 C   0  0  0  0  0  0  0  0  0  0  0  0
   37.8180   25.4360   34.1970 C   0  0  0  0  0  0  0  0  0  0  0  0
   38.3970   27.1400   35.8890 C   0  0  0  0  0  0  0  0  0  0  0  0
   41.0230   22.2200   36.2340 O   0  0  0  0  0  0  0  0  0  0  0  0
   42.2500   22.0310   36.8490 C   0  0  0  0  0  0  0  0  0  0  0  0
   43.4150   21.4270   36.1840 C   0  0  0  0  0  0  0  0  0  0  0  0
   42.6010   20.5530   37.0980 C   0  0  0  0  0  0  0  0  0  0  0  0
   38.2933   23.2497   39.5732 H   0  0  0  0  0  0  0  0  0  0  0  0
   37.1523   25.0748   38.2733 H   0  0  0  0  0  0  0  0  0  0  0  0
   36.7158   25.7862   35.9566 H   0  0  0  0  0  0  0  0  0  0  0  0
   37.9628   24.3531   34.0694 H   0  0  0  0  0  0  0  0  0  0  0  0
   36.8715   25.7376   33.7245 H   0  0  0  0  0  0  0  0  0  0  0  0
   38.6520   25.9757   33.7245 H   0  0  0  0  0  0  0  0  0  0  0  0
   38.4816   27.3266   36.9698 H   0  0  0  0  0  0  0  0  0  0  0  0
   39.3972   27.1712   35.4322 H   0  0  0  0  0  0  0  0  0  0  0  0
   37.7610   27.9125   35.4322 H   0  0  0  0  0  0  0  0  0  0  0  0
   42.1476   22.9723   37.4089 H   0  0  0  0  0  0  0  0  0  0  0  0
   43.3901   21.2503   35.0986 H   0  0  0  0  0  0  0  0  0  0  0  0
   44.4821   21.6877   36.1265 H   0  0  0  0  0  0  0  0  0  0  0  0
   43.0069   20.2340   38.0693 H   0  0  0  0  0  0  0  0  0  0  0  0
   42.0761   19.5903   37.0107 H   0  0  0  0  0  0  0  0  0  0  0  0
  2  1  2  0
  3  2  1  0
  4  3  2  0
  4  5  1  0
  5  6  2  0
  6  1  1  0
  7  9  1  0
  7  3  1  0
  8  7  1  0
 10  5  1  0
 10 11  1  0
 11 13  1  0
 12 11  1  0
 12 13  1  0
  1 14  1  0
  2 15  1  0
  7 16  1  0
  8 17  1  0
  8 18  1  0
  8 19  1  0
  9 20  1  0
  9 21  1  0
  9 22  1  0
 11 23  1  0
 12 24  1  0
 12 25  1  0
 13 26  1  0
 13 27  1  0
M  ISO  8  14  14  15  14  16   8  17   8  18   8  19   8  20   8  21   8
M  ISO  6  22   8  23  13  24  13  25  13  26  13  27  13
M  END
>  <minimizedAffinity>  (1) 
-3.89722872

>  <minimizedRMSD>  (1) 
0.612318456

$$$$
