
     RDKit          3D

 40 44  0  0  0  0  0  0  0  0999 V2000
   36.5030   24.2970   31.8560 C   0  0  0  0  0  0  0  0  0  0  0  0
   36.1180   25.6210   31.8850 C   0  0  0  0  0  0  0  0  0  0  0  0
   36.7620   26.4020   32.8410 C   0  0  0  0  0  0  0  0  0  0  0  0
   37.6570   25.8170   33.6080 N   0  0  0  0  0  0  0  0  0  0  0  0
   38.0430   24.5550   33.5980 C   0  0  0  0  0  0  0  0  0  0  0  0
   37.4240   23.8350   32.6920 N   0  0  0  0  0  0  0  0  0  0  0  0
   36.4770   27.7770   32.9960 N   0  0  0  0  0  0  0  0  0  0  0  0
   36.5260   28.7210   32.0410 C   0  0  0  0  0  0  0  0  0  0  0  0
   36.1970   29.9060   32.5290 N   0  0  0  0  0  0  0  0  0  0  0  0
   35.9280   29.7310   33.8320 C   0  0  0  0  0  0  0  0  0  0  0  0
   36.1070   28.4160   34.0860 N   0  0  0  0  0  0  0  0  0  0  0  0
   38.9990   23.8130   34.3780 C   0  0  0  0  0  0  0  0  0  0  0  0
   40.0850   23.1690   33.7920 C   0  0  0  0  0  0  0  0  0  0  0  0
   41.0200   22.4520   34.4930 C   0  0  0  0  0  0  0  0  0  0  0  0
   40.9200   22.3320   35.8610 C   0  0  0  0  0  0  0  0  0  0  0  0
   39.8850   22.9380   36.4800 C   0  0  0  0  0  0  0  0  0  0  0  0
   39.7790   22.8220   37.8530 C   0  0  0  0  0  0  0  0  0  0  0  0
   38.7700   23.3970   38.5630 C   0  0  0  0  0  0  0  0  0  0  0  0
   37.8220   24.1270   37.8390 C   0  0  0  0  0  0  0  0  0  0  0  0
   37.9570   24.2220   36.4800 C   0  0  0  0  0  0  0  0  0  0  0  0
   38.9510   23.6560   35.7630 C   0  0  0  0  0  0  0  0  0  0  0  0
   35.5180   30.6100   34.9120 C   0  0  0  0  0  0  0  0  0  0  0  0
   36.1420   31.5200   35.6880 N   0  0  0  0  0  0  0  0  0  0  0  0
   35.2970   32.0440   36.5280 O   0  0  0  0  0  0  0  0  0  0  0  0
   34.1180   31.4940   36.3230 C   0  0  0  0  0  0  0  0  0  0  0  0
   34.2240   30.5920   35.3170 N   0  0  0  0  0  0  0  0  0  0  0  0
   32.8300   31.7780   37.0500 C   0  0  0  0  0  0  0  0  0  0  0  0
   32.9070   32.9450   37.7460 F   0  0  0  0  0  0  0  0  0  0  0  0
   31.8110   31.8270   36.1290 F   0  0  0  0  0  0  0  0  0  0  0  0
   32.5360   30.7500   37.9410 F   0  0  0  0  0  0  0  0  0  0  0  0
   36.0396   23.6138   31.1290 H   0  0  0  0  0  0  0  0  0  0  0  0
   35.3580   26.0299   31.2030 H   0  0  0  0  0  0  0  0  0  0  0  0
   36.8028   28.5336   30.9930 H   0  0  0  0  0  0  0  0  0  0  0  0
   40.2000   23.2396   32.7003 H   0  0  0  0  0  0  0  0  0  0  0  0
   41.8534   21.9707   33.9604 H   0  0  0  0  0  0  0  0  0  0  0  0
   41.6633   21.7580   36.4337 H   0  0  0  0  0  0  0  0  0  0  0  0
   40.5408   22.2415   38.3940 H   0  0  0  0  0  0  0  0  0  0  0  0
   38.7033   23.2923   39.6560 H   0  0  0  0  0  0  0  0  0  0  0  0
   36.9818   24.6167   38.3530 H   0  0  0  0  0  0  0  0  0  0  0  0
   37.1999   24.8021   35.9320 H   0  0  0  0  0  0  0  0  0  0  0  0
  1  2  2  0
  1  6  1  0
  2  3  1  0
  3  7  1  0
  3  4  2  0
  5  4  1  0
  5 12  1  0
  6  5  2  0
  7 11  1  0
  8  9  2  0
  8  7  1  0
  9 10  1  0
 10 11  2  0
 10 22  1  0
 12 21  1  0
 13 12  2  0
 13 14  1  0
 14 15  2  0
 15 16  1  0
 16 17  2  0
 17 18  1  0
 19 18  2  0
 20 19  1  0
 21 20  2  0
 21 16  1  0
 22 26  1  0
 22 23  2  0
 23 24  1  0
 25 24  1  0
 25 27  1  0
 26 25  2  0
 27 28  1  0
 27 30  1  0
 29 27  1  0
  1 31  1  0
  2 32  1  0
  8 33  1  0
 13 34  1  0
 14 35  1  0
 15 36  1  0
 17 37  1  0
 18 38  1  0
 19 39  1  0
 20 40  1  0
M  ISO  8  31  14  32  14  33  14  34  14  35  14  36  14  37  14  38  14
M  ISO  2  39  14  40  14
M  END
>  <minimizedAffinity>  (1) 
-7.42038774

>  <minimizedRMSD>  (1) 
1.69353724

$$$$
