
     RDKit          3D

 38 40  0  0  0  0  0  0  0  0999 V2000
   38.4780   23.4930   37.1650 C   0  0  0  0  0  0  0  0  0  0  0  0
   37.6410   24.5510   36.7520 C   0  0  0  0  0  0  0  0  0  0  0  0
   38.0630   25.3070   35.6590 C   0  0  0  0  0  0  0  0  0  0  0  0
   39.2630   24.9950   35.0380 N   0  0  0  0  0  0  0  0  0  0  0  0
   39.9970   23.9720   35.4960 C   0  0  0  0  0  0  0  0  0  0  0  0
   39.6260   23.2260   36.5390 N   0  0  0  0  0  0  0  0  0  0  0  0
   37.2610   26.4240   35.1170 C   0  0  0  0  0  0  0  0  0  0  0  0
   37.0900   26.3970   33.6480 C   0  0  0  0  0  0  0  0  0  0  0  0
   37.8440   27.7920   35.5310 C   0  0  0  0  0  0  0  0  0  0  0  0
   41.2110   23.6500   34.8700 O   0  0  0  0  0  0  0  0  0  0  0  0
   42.3800   24.0990   35.2700 C   0  0  0  0  0  0  0  0  0  0  0  0
   43.1130   25.2330   35.0040 C   0  0  0  0  0  0  0  0  0  0  0  0
   44.3160   25.3770   35.6080 C   0  0  0  0  0  0  0  0  0  0  0  0
   44.7750   24.3690   36.4810 C   0  0  0  0  0  0  0  0  0  0  0  0
   43.3840   23.0950   36.4540 S   0  0  0  0  0  0  0  0  0  0  0  0
   45.9780   24.3070   37.2070 N   0  0  0  0  0  0  0  0  0  0  0  0
   46.9830   23.5970   36.6610 C   0  0  0  0  0  0  0  0  0  0  0  0
   48.1680   23.5320   37.3700 C   0  0  0  0  0  0  0  0  0  0  0  0
   48.2240   24.1970   38.5780 C   0  0  0  0  0  0  0  0  0  0  0  0
   49.4250   24.1490   39.3290 N   0  0  0  0  0  0  0  0  0  0  0  0
   47.1730   24.9030   39.0840 N   0  0  0  0  0  0  0  0  0  0  0  0
   46.0140   24.9620   38.3830 C   0  0  0  0  0  0  0  0  0  0  0  0
   45.0230   25.5950   38.8040 O   0  0  0  0  0  0  0  0  0  0  0  0
   38.1774   22.8737   38.0230 H   0  0  0  0  0  0  0  0  0  0  0  0
   36.6958   24.7702   37.2702 H   0  0  0  0  0  0  0  0  0  0  0  0
   36.2641   26.2849   35.5608 H   0  0  0  0  0  0  0  0  0  0  0  0
   36.0303   26.2297   33.4052 H   0  0  0  0  0  0  0  0  0  0  0  0
   37.4162   27.3578   33.2232 H   0  0  0  0  0  0  0  0  0  0  0  0
   37.6964   25.5835   33.2232 H   0  0  0  0  0  0  0  0  0  0  0  0
   37.8734   27.8611   36.6284 H   0  0  0  0  0  0  0  0  0  0  0  0
   38.8633   27.8928   35.1298 H   0  0  0  0  0  0  0  0  0  0  0  0
   37.2108   28.5970   35.1298 H   0  0  0  0  0  0  0  0  0  0  0  0
   42.7309   26.0031   34.3178 H   0  0  0  0  0  0  0  0  0  0  0  0
   44.9290   26.2708   35.4198 H   0  0  0  0  0  0  0  0  0  0  0  0
   46.8663   23.0901   35.6918 H   0  0  0  0  0  0  0  0  0  0  0  0
   49.0332   22.9717   36.9860 H   0  0  0  0  0  0  0  0  0  0  0  0
   49.4870   24.6387   40.2330 H   0  0  0  0  0  0  0  0  0  0  0  0
   50.2358   23.6244   38.9708 H   0  0  0  0  0  0  0  0  0  0  0  0
  2  1  2  0
  3  2  1  0
  4  5  1  0
  4  3  2  0
  5  6  2  0
  6  1  1  0
  7  9  1  0
  7  3  1  0
  8  7  1  0
 10 11  1  0
 10  5  1  0
 11 15  1  0
 12 11  2  0
 12 13  1  0
 13 14  2  0
 14 16  1  0
 15 14  1  0
 16 22  1  0
 17 16  1  0
 17 18  2  0
 18 19  1  0
 19 21  2  0
 19 20  1  0
 22 23  2  0
 22 21  1  0
  1 24  1  0
  2 25  1  0
  7 26  1  0
  8 27  1  0
  8 28  1  0
  8 29  1  0
  9 30  1  0
  9 31  1  0
  9 32  1  0
 12 33  1  0
 13 34  1  0
 17 35  1  0
 18 36  1  0
 20 37  1  0
 20 38  1  0
M  ISO  8  24  14  25  14  26   8  27   8  28   8  29   8  30   8  31   8
M  ISO  5  32   8  33  14  34  14  35  14  36  14
M  END
>  <minimizedAffinity>  (1) 
-5.04866695

>  <minimizedRMSD>  (1) 
2.33182907

$$$$
