
     RDKit          3D

 40 42  0  0  0  0  0  0  0  0999 V2000
   38.7120   23.2820   37.9620 C   0  0  0  0  0  0  0  0  0  0  0  0
   37.9430   24.3040   37.3850 C   0  0  0  0  0  0  0  0  0  0  0  0
   38.4260   24.8950   36.2170 C   0  0  0  0  0  0  0  0  0  0  0  0
   39.6190   24.4720   35.6710 N   0  0  0  0  0  0  0  0  0  0  0  0
   40.2980   23.4850   36.2870 C   0  0  0  0  0  0  0  0  0  0  0  0
   39.8660   22.8890   37.4150 N   0  0  0  0  0  0  0  0  0  0  0  0
   37.6800   25.9630   35.5050 C   0  0  0  0  0  0  0  0  0  0  0  0
   37.5740   25.7550   34.0440 C   0  0  0  0  0  0  0  0  0  0  0  0
   38.2780   27.3540   35.8080 C   0  0  0  0  0  0  0  0  0  0  0  0
   41.5090   23.0290   35.7630 O   0  0  0  0  0  0  0  0  0  0  0  0
   42.6130   23.7380   35.7200 C   0  0  0  0  0  0  0  0  0  0  0  0
   42.9060   25.0390   35.3910 C   0  0  0  0  0  0  0  0  0  0  0  0
   44.1760   25.4720   35.4490 C   0  0  0  0  0  0  0  0  0  0  0  0
   45.1730   24.5590   35.8530 C   0  0  0  0  0  0  0  0  0  0  0  0
   44.2320   22.9840   36.1660 S   0  0  0  0  0  0  0  0  0  0  0  0
   46.6240   24.6820   36.0220 C   0  0  0  0  0  0  0  0  0  0  0  0
   47.1670   23.7790   37.1230 C   0  0  0  0  0  0  0  0  0  0  0  0
   46.9590   24.5680   38.3730 C   0  0  0  0  0  0  0  0  0  0  0  0
   46.7210   26.0020   37.9670 C   0  0  0  0  0  0  0  0  0  0  0  0
   47.0700   26.0380   36.5200 C   0  0  0  0  0  0  0  0  0  0  0  0
   38.3580   22.7949   38.8825 H   0  0  0  0  0  0  0  0  0  0  0  0
   36.9938   24.6275   37.8371 H   0  0  0  0  0  0  0  0  0  0  0  0
   36.6532   25.9117   35.8962 H   0  0  0  0  0  0  0  0  0  0  0  0
   37.0827   24.7910   33.8456 H   0  0  0  0  0  0  0  0  0  0  0  0
   36.9800   26.5675   33.6001 H   0  0  0  0  0  0  0  0  0  0  0  0
   38.5805   25.7519   33.6001 H   0  0  0  0  0  0  0  0  0  0  0  0
   38.3396   27.4973   36.8969 H   0  0  0  0  0  0  0  0  0  0  0  0
   39.2853   27.4231   35.3715 H   0  0  0  0  0  0  0  0  0  0  0  0
   37.6351   28.1325   35.3715 H   0  0  0  0  0  0  0  0  0  0  0  0
   42.1031   25.7240   35.0810 H   0  0  0  0  0  0  0  0  0  0  0  0
   44.4318   26.5097   35.1887 H   0  0  0  0  0  0  0  0  0  0  0  0
   46.9890   24.4442   35.0119 H   0  0  0  0  0  0  0  0  0  0  0  0
   46.6099   22.8313   37.1616 H   0  0  0  0  0  0  0  0  0  0  0  0
   48.2209   23.5061   36.9652 H   0  0  0  0  0  0  0  0  0  0  0  0
   46.0862   24.1823   38.9202 H   0  0  0  0  0  0  0  0  0  0  0  0
   47.8368   24.4913   39.0314 H   0  0  0  0  0  0  0  0  0  0  0  0
   45.6681   26.2808   38.1209 H   0  0  0  0  0  0  0  0  0  0  0  0
   47.3168   26.7110   38.5606 H   0  0  0  0  0  0  0  0  0  0  0  0
   48.1525   26.1734   36.3788 H   0  0  0  0  0  0  0  0  0  0  0  0
   46.5948   26.8720   35.9828 H   0  0  0  0  0  0  0  0  0  0  0  0
  2  1  2  0
  3  2  1  0
  4  3  2  0
  4  5  1  0
  5  6  2  0
  6  1  1  0
  7  9  1  0
  7  3  1  0
  8  7  1  0
 10  5  1  0
 11 10  1  0
 11 15  1  0
 12 13  1  0
 12 11  2  0
 13 14  2  0
 14 16  1  0
 14 15  1  0
 16 20  1  0
 16 17  1  0
 17 18  1  0
 19 18  1  0
 20 19  1  0
  1 21  1  0
  2 22  1  0
  7 23  1  0
  8 24  1  0
  8 25  1  0
  8 26  1  0
  9 27  1  0
  9 28  1  0
  9 29  1  0
 12 30  1  0
 13 31  1  0
 16 32  1  0
 17 33  1  0
 17 34  1  0
 18 35  1  0
 18 36  1  0
 19 37  1  0
 19 38  1  0
 20 39  1  0
 20 40  1  0
M  ISO  8  21  14  22  14  23   8  24   8  25   8  26   8  27   8  28   8
M  ISO  8  29   8  30  14  31  14  32  13  33  13  34  13  35  13  36  13
M  ISO  4  37  13  38  13  39  13  40  13
M  END
>  <minimizedAffinity>  (1) 
-4.82433558

>  <minimizedRMSD>  (1) 
1.41789627

$$$$
