
     RDKit          3D

 42 44  0  0  0  0  0  0  0  0999 V2000
   38.6990   23.3260   38.2980 C   0  0  0  0  0  0  0  0  0  0  0  0
   37.9720   24.3620   37.6680 C   0  0  0  0  0  0  0  0  0  0  0  0
   38.4150   24.7730   36.4100 C   0  0  0  0  0  0  0  0  0  0  0  0
   39.5220   24.1710   35.8330 N   0  0  0  0  0  0  0  0  0  0  0  0
   40.1530   23.1890   36.5120 C   0  0  0  0  0  0  0  0  0  0  0  0
   39.7640   22.7650   37.7140 N   0  0  0  0  0  0  0  0  0  0  0  0
   37.7240   25.8270   35.6330 C   0  0  0  0  0  0  0  0  0  0  0  0
   37.6710   25.5740   34.1770 C   0  0  0  0  0  0  0  0  0  0  0  0
   38.3380   27.2170   35.9070 C   0  0  0  0  0  0  0  0  0  0  0  0
   41.2750   22.5620   35.9480 O   0  0  0  0  0  0  0  0  0  0  0  0
   42.5080   22.9660   36.1070 C   0  0  0  0  0  0  0  0  0  0  0  0
   43.0790   24.1920   36.3600 C   0  0  0  0  0  0  0  0  0  0  0  0
   44.4270   24.2790   36.4740 C   0  0  0  0  0  0  0  0  0  0  0  0
   45.1980   23.1040   36.3280 C   0  0  0  0  0  0  0  0  0  0  0  0
   43.9030   21.7850   36.0050 S   0  0  0  0  0  0  0  0  0  0  0  0
   46.5640   22.9260   36.3970 N   0  0  0  0  0  0  0  0  0  0  0  0
   47.2570   21.7860   35.8010 C   0  0  0  0  0  0  0  0  0  0  0  0
   48.4920   21.4610   36.6100 C   0  0  0  0  0  0  0  0  0  0  0  0
   49.4340   22.6120   36.7400 C   0  0  0  0  0  0  0  0  0  0  0  0
   48.7770   23.9510   36.7540 C   0  0  0  0  0  0  0  0  0  0  0  0
   47.3270   23.9480   37.1100 C   0  0  0  0  0  0  0  0  0  0  0  0
   38.3820   22.9733   39.2905 H   0  0  0  0  0  0  0  0  0  0  0  0
   37.0964   24.8235   38.1479 H   0  0  0  0  0  0  0  0  0  0  0  0
   36.6830   25.8053   35.9878 H   0  0  0  0  0  0  0  0  0  0  0  0
   37.4485   24.5118   33.9973 H   0  0  0  0  0  0  0  0  0  0  0  0
   36.8835   26.1951   33.7253 H   0  0  0  0  0  0  0  0  0  0  0  0
   38.6416   25.8268   33.7253 H   0  0  0  0  0  0  0  0  0  0  0  0
   38.4094   27.3787   36.9927 H   0  0  0  0  0  0  0  0  0  0  0  0
   39.3425   27.2683   35.4618 H   0  0  0  0  0  0  0  0  0  0  0  0
   37.6994   27.9942   35.4618 H   0  0  0  0  0  0  0  0  0  0  0  0
   42.4508   25.0885   36.4682 H   0  0  0  0  0  0  0  0  0  0  0  0
   44.9113   25.2457   36.6763 H   0  0  0  0  0  0  0  0  0  0  0  0
   46.5861   20.9143   35.7917 H   0  0  0  0  0  0  0  0  0  0  0  0
   47.5515   22.0364   34.7712 H   0  0  0  0  0  0  0  0  0  0  0  0
   48.1776   21.1519   37.6178 H   0  0  0  0  0  0  0  0  0  0  0  0
   49.0277   20.6606   36.0785 H   0  0  0  0  0  0  0  0  0  0  0  0
   49.9930   22.4939   37.6800 H   0  0  0  0  0  0  0  0  0  0  0  0
   50.0795   22.5898   35.8496 H   0  0  0  0  0  0  0  0  0  0  0  0
   49.3049   24.5807   37.4853 H   0  0  0  0  0  0  0  0  0  0  0  0
   48.8356   24.3287   35.7225 H   0  0  0  0  0  0  0  0  0  0  0  0
   46.9046   24.9340   36.8662 H   0  0  0  0  0  0  0  0  0  0  0  0
   47.2534   23.7226   38.1841 H   0  0  0  0  0  0  0  0  0  0  0  0
  2  1  2  0
  3  2  1  0
  4  3  2  0
  4  5  1  0
  5  6  2  0
  6  1  1  0
  7  9  1  0
  7  3  1  0
  8  7  1  0
 10 11  1  0
 10  5  1  0
 11 12  2  0
 12 13  1  0
 14 16  1  0
 14 13  2  0
 15 11  1  0
 15 14  1  0
 16 21  1  0
 17 16  1  0
 17 18  1  0
 18 19  1  0
 19 20  1  0
 20 21  1  0
  1 22  1  0
  2 23  1  0
  7 24  1  0
  8 25  1  0
  8 26  1  0
  8 27  1  0
  9 28  1  0
  9 29  1  0
  9 30  1  0
 12 31  1  0
 13 32  1  0
 17 33  1  0
 17 34  1  0
 18 35  1  0
 18 36  1  0
 19 37  1  0
 19 38  1  0
 20 39  1  0
 20 40  1  0
 21 41  1  0
 21 42  1  0
M  ISO  8  22  14  23  14  24   8  25   8  26   8  27   8  28   8  29   8
M  ISO  8  30   8  31  14  32  14  33  13  34  13  35  13  36  13  37  13
M  ISO  5  38  13  39  13  40  13  41  13  42  13
M  END
>  <minimizedAffinity>  (1) 
-4.49376392

>  <minimizedRMSD>  (1) 
0.874981701

$$$$
