
     RDKit          3D

 30 31  0  0  0  0  0  0  0  0999 V2000
   38.7160   23.3420   38.4260 C   0  0  0  0  0  0  0  0  0  0  0  0
   38.0100   24.3560   37.7490 C   0  0  0  0  0  0  0  0  0  0  0  0
   38.4550   24.7050   36.4640 C   0  0  0  0  0  0  0  0  0  0  0  0
   39.5480   24.0570   35.9180 N   0  0  0  0  0  0  0  0  0  0  0  0
   40.1590   23.0980   36.6440 C   0  0  0  0  0  0  0  0  0  0  0  0
   39.7650   22.7380   37.8700 N   0  0  0  0  0  0  0  0  0  0  0  0
   37.7720   25.7360   35.6500 C   0  0  0  0  0  0  0  0  0  0  0  0
   37.7810   25.4550   34.1970 C   0  0  0  0  0  0  0  0  0  0  0  0
   38.3530   27.1390   35.9230 C   0  0  0  0  0  0  0  0  0  0  0  0
   41.2630   22.4260   36.1170 O   0  0  0  0  0  0  0  0  0  0  0  0
   42.5060   22.8350   36.2190 C   0  0  0  0  0  0  0  0  0  0  0  0
   43.0980   24.0340   36.5310 C   0  0  0  0  0  0  0  0  0  0  0  0
   44.4340   24.1420   36.5540 C   0  0  0  0  0  0  0  0  0  0  0  0
   45.1930   22.9960   36.2520 C   0  0  0  0  0  0  0  0  0  0  0  0
   43.9000   21.6880   35.9130 S   0  0  0  0  0  0  0  0  0  0  0  0
   46.6320   22.7670   36.1830 C   0  0  0  0  0  0  0  0  0  0  0  0
   46.9910   21.4470   36.3040 F   0  0  0  0  0  0  0  0  0  0  0  0
   47.2900   23.4580   37.2070 F   0  0  0  0  0  0  0  0  0  0  0  0
   47.1750   23.2860   35.0080 F   0  0  0  0  0  0  0  0  0  0  0  0
   38.3943   23.0429   39.4345 H   0  0  0  0  0  0  0  0  0  0  0  0
   37.1442   24.8546   38.2091 H   0  0  0  0  0  0  0  0  0  0  0  0
   36.7194   25.7072   35.9681 H   0  0  0  0  0  0  0  0  0  0  0  0
   37.8158   24.3677   34.0340 H   0  0  0  0  0  0  0  0  0  0  0  0
   36.8692   25.8655   33.7385 H   0  0  0  0  0  0  0  0  0  0  0  0
   38.6646   25.9230   33.7385 H   0  0  0  0  0  0  0  0  0  0  0  0
   38.4209   27.3029   37.0086 H   0  0  0  0  0  0  0  0  0  0  0  0
   39.3560   27.2136   35.4775 H   0  0  0  0  0  0  0  0  0  0  0  0
   37.6964   27.9008   35.4775 H   0  0  0  0  0  0  0  0  0  0  0  0
   42.4735   24.9093   36.7630 H   0  0  0  0  0  0  0  0  0  0  0  0
   44.9217   25.0965   36.8012 H   0  0  0  0  0  0  0  0  0  0  0  0
  2  1  2  0
  3  2  1  0
  4  3  2  0
  4  5  1  0
  5  6  2  0
  6  1  1  0
  7  9  1  0
  7  3  1  0
  8  7  1  0
 10 11  1  0
 10  5  1  0
 11 12  2  0
 12 13  1  0
 14 13  2  0
 15 11  1  0
 15 14  1  0
 16 14  1  0
 16 17  1  0
 16 18  1  0
 19 16  1  0
  1 20  1  0
  2 21  1  0
  7 22  1  0
  8 23  1  0
  8 24  1  0
  8 25  1  0
  9 26  1  0
  9 27  1  0
  9 28  1  0
 12 29  1  0
 13 30  1  0
M  ISO  8  20  14  21  14  22   8  23   8  24   8  25   8  26   8  27   8
M  ISO  3  28   8  29  14  30  14
M  END
>  <minimizedAffinity>  (1) 
-4.44703531

>  <minimizedRMSD>  (1) 
0.361511797

$$$$
