
     RDKit          3D

 32 34  0  0  0  0  0  0  0  0999 V2000
   38.7230   23.3170   38.4130 C   0  0  0  0  0  0  0  0  0  0  0  0
   38.0100   24.3300   37.7380 C   0  0  0  0  0  0  0  0  0  0  0  0
   38.4680   24.6960   36.4720 C   0  0  0  0  0  0  0  0  0  0  0  0
   39.5780   24.0670   35.9320 N   0  0  0  0  0  0  0  0  0  0  0  0
   40.1930   23.1120   36.6480 C   0  0  0  0  0  0  0  0  0  0  0  0
   39.7890   22.7320   37.8640 N   0  0  0  0  0  0  0  0  0  0  0  0
   37.7920   25.7270   35.6480 C   0  0  0  0  0  0  0  0  0  0  0  0
   37.7920   25.4450   34.1970 C   0  0  0  0  0  0  0  0  0  0  0  0
   38.3920   27.1280   35.9100 C   0  0  0  0  0  0  0  0  0  0  0  0
   41.3210   22.4570   36.1230 O   0  0  0  0  0  0  0  0  0  0  0  0
   42.5480   22.8940   36.2330 C   0  0  0  0  0  0  0  0  0  0  0  0
   43.1030   24.1020   36.5810 C   0  0  0  0  0  0  0  0  0  0  0  0
   44.4520   24.2310   36.5980 C   0  0  0  0  0  0  0  0  0  0  0  0
   45.2380   23.1070   36.2550 C   0  0  0  0  0  0  0  0  0  0  0  0
   43.9650   21.7840   35.8840 S   0  0  0  0  0  0  0  0  0  0  0  0
   46.6650   22.9850   36.1980 C   0  0  0  0  0  0  0  0  0  0  0  0
   47.5340   24.0040   35.9490 N   0  0  0  0  0  0  0  0  0  0  0  0
   48.7580   23.5480   35.9690 O   0  0  0  0  0  0  0  0  0  0  0  0
   48.7450   22.2410   36.2250 C   0  0  0  0  0  0  0  0  0  0  0  0
   47.4510   21.8980   36.3650 N   0  0  0  0  0  0  0  0  0  0  0  0
   38.3928   23.0025   39.4140 H   0  0  0  0  0  0  0  0  0  0  0  0
   37.1303   24.8109   38.1906 H   0  0  0  0  0  0  0  0  0  0  0  0
   36.7398   25.7022   35.9679 H   0  0  0  0  0  0  0  0  0  0  0  0
   38.8291   25.3750   33.8371 H   0  0  0  0  0  0  0  0  0  0  0  0
   37.2735   24.4934   34.0084 H   0  0  0  0  0  0  0  0  0  0  0  0
   37.2735   26.2567   33.6657 H   0  0  0  0  0  0  0  0  0  0  0  0
   38.4651   27.2987   36.9942 H   0  0  0  0  0  0  0  0  0  0  0  0
   39.3945   27.1874   35.4611 H   0  0  0  0  0  0  0  0  0  0  0  0
   37.7432   27.8945   35.4611 H   0  0  0  0  0  0  0  0  0  0  0  0
   42.4595   24.9548   36.8429 H   0  0  0  0  0  0  0  0  0  0  0  0
   44.9236   25.1863   36.8718 H   0  0  0  0  0  0  0  0  0  0  0  0
   49.6170   21.5753   36.3058 H   0  0  0  0  0  0  0  0  0  0  0  0
  2  1  2  0
  3  2  1  0
  4  3  2  0
  4  5  1  0
  5  6  2  0
  6  1  1  0
  7  9  1  0
  7  3  1  0
  8  7  1  0
 10 11  1  0
 10  5  1  0
 11 12  2  0
 12 13  1  0
 14 13  2  0
 15 11  1  0
 15 14  1  0
 16 14  1  0
 16 20  1  0
 17 18  1  0
 17 16  2  0
 18 19  1  0
 19 20  2  0
  1 21  1  0
  2 22  1  0
  7 23  1  0
  8 24  1  0
  8 25  1  0
  8 26  1  0
  9 27  1  0
  9 28  1  0
  9 29  1  0
 12 30  1  0
 13 31  1  0
 19 32  1  0
M  ISO  8  21  14  22  14  23   8  24   8  25   8  26   8  27   8  28   8
M  ISO  4  29   8  30  14  31  14  32  14
M  END
>  <minimizedAffinity>  (1) 
-4.38745165

>  <minimizedRMSD>  (1) 
0.455029964

$$$$
