
     RDKit          3D

 47 50  0  0  0  0  0  0  0  0999 V2000
   41.3000   21.8180   36.1320 C   0  0  0  0  0  0  0  0  0  0  0  0
   42.4120   21.3000   36.7650 C   0  0  0  0  0  0  0  0  0  0  0  0
   43.6010   21.5130   36.2220 C   0  0  0  0  0  0  0  0  0  0  0  0
   43.7150   22.2520   35.0280 C   0  0  0  0  0  0  0  0  0  0  0  0
   41.9540   22.6690   34.6630 S   0  0  0  0  0  0  0  0  0  0  0  0
   44.8810   22.6260   34.2610 C   0  0  0  0  0  0  0  0  0  0  0  0
   45.1930   21.9830   33.0970 C   0  0  0  0  0  0  0  0  0  0  0  0
   46.3220   22.3690   32.4270 C   0  0  0  0  0  0  0  0  0  0  0  0
   47.0930   23.3790   32.9360 C   0  0  0  0  0  0  0  0  0  0  0  0
   46.7600   24.0260   34.1230 C   0  0  0  0  0  0  0  0  0  0  0  0
   45.6170   23.6220   34.7890 C   0  0  0  0  0  0  0  0  0  0  0  0
   45.5620   24.4220   35.9620 N   0  0  0  0  0  0  0  0  0  0  0  0
   46.3640   24.0590   37.0150 C   0  0  0  0  0  0  0  0  0  0  0  0
   46.2390   24.8500   38.1570 C   0  0  0  0  0  0  0  0  0  0  0  0
   45.3500   25.9000   38.1380 C   0  0  0  0  0  0  0  0  0  0  0  0
   45.2470   26.6040   39.1710 O   0  0  0  0  0  0  0  0  0  0  0  0
   44.5760   26.2270   37.0800 N   0  0  0  0  0  0  0  0  0  0  0  0
   44.6810   25.4750   35.9680 C   0  0  0  0  0  0  0  0  0  0  0  0
   44.0090   25.6920   34.9280 O   0  0  0  0  0  0  0  0  0  0  0  0
   40.0050   21.8020   36.3790 O   0  0  0  0  0  0  0  0  0  0  0  0
   38.3870   23.9580   38.7170 C   0  0  0  0  0  0  0  0  0  0  0  0
   37.9170   25.0190   37.9160 C   0  0  0  0  0  0  0  0  0  0  0  0
   38.1810   24.9570   36.5590 C   0  0  0  0  0  0  0  0  0  0  0  0
   38.8850   23.8770   36.0370 N   0  0  0  0  0  0  0  0  0  0  0  0
   39.2990   22.9010   36.8740 C   0  0  0  0  0  0  0  0  0  0  0  0
   39.0600   22.9330   38.1830 N   0  0  0  0  0  0  0  0  0  0  0  0
   37.7230   26.0000   35.5980 C   0  0  0  0  0  0  0  0  0  0  0  0
   37.7560   25.5850   34.1960 C   0  0  0  0  0  0  0  0  0  0  0  0
   38.5270   27.3210   35.7840 C   0  0  0  0  0  0  0  0  0  0  0  0
   42.3130   20.7246   37.6973 H   0  0  0  0  0  0  0  0  0  0  0  0
   44.5036   21.1111   36.7054 H   0  0  0  0  0  0  0  0  0  0  0  0
   44.5538   21.1764   32.7086 H   0  0  0  0  0  0  0  0  0  0  0  0
   46.6073   21.8722   31.4880 H   0  0  0  0  0  0  0  0  0  0  0  0
   47.9988   23.6874   32.3934 H   0  0  0  0  0  0  0  0  0  0  0  0
   47.3888   24.8364   34.5203 H   0  0  0  0  0  0  0  0  0  0  0  0
   47.0558   23.2054   36.9621 H   0  0  0  0  0  0  0  0  0  0  0  0
   46.8389   24.6387   39.0545 H   0  0  0  0  0  0  0  0  0  0  0  0
   43.9268   27.0255   37.1226 H   0  0  0  0  0  0  0  0  0  0  0  0
   38.1968   23.9736   39.8003 H   0  0  0  0  0  0  0  0  0  0  0  0
   37.3624   25.8627   38.3526 H   0  0  0  0  0  0  0  0  0  0  0  0
   36.6638   26.1696   35.8414 H   0  0  0  0  0  0  0  0  0  0  0  0
   37.8431   24.4899   34.1397 H   0  0  0  0  0  0  0  0  0  0  0  0
   36.8296   25.9053   33.6969 H   0  0  0  0  0  0  0  0  0  0  0  0
   38.6202   26.0477   33.6969 H   0  0  0  0  0  0  0  0  0  0  0  0
   38.6519   27.5262   36.8575 H   0  0  0  0  0  0  0  0  0  0  0  0
   39.5157   27.2179   35.3130 H   0  0  0  0  0  0  0  0  0  0  0  0
   37.9812   28.1518   35.3130 H   0  0  0  0  0  0  0  0  0  0  0  0
  1 20  1  0
  1  2  2  0
  3  2  1  0
  4  3  2  0
  5  4  1  0
  5  1  1  0
  6 11  1  0
  6  4  1  0
  7  6  2  0
  8  9  2  0
  8  7  1  0
  9 10  1  0
 10 11  2  0
 11 12  1  0
 12 18  1  0
 12 13  1  0
 13 14  2  0
 15 14  1  0
 15 16  2  0
 17 15  1  0
 18 17  1  0
 19 18  2  0
 20 25  1  0
 22 21  2  0
 23 22  1  0
 24 23  2  0
 24 25  1  0
 25 26  2  0
 26 21  1  0
 27 29  1  0
 27 23  1  0
 28 27  1  0
  2 30  1  0
  3 31  1  0
  7 32  1  0
  8 33  1  0
  9 34  1  0
 10 35  1  0
 13 36  1  0
 14 37  1  0
 17 38  1  0
 21 39  1  0
 22 40  1  0
 27 41  1  0
 28 42  1  0
 28 43  1  0
 28 44  1  0
 29 45  1  0
 29 46  1  0
 29 47  1  0
M  ISO  8  30  14  31  14  32  14  33  14  34  14  35  14  36  14  37  14
M  ISO  8  38   9  39  14  40  14  41   8  42   8  43   8  44   8  45   8
M  ISO  2  46   8  47   8
M  END
>  <minimizedAffinity>  (1) 
-5.65703392

>  <minimizedRMSD>  (1) 
2.16797543

$$$$
