
     RDKit          3D

 44 47  0  0  0  0  0  0  0  0999 V2000
   41.9430   22.5490   35.3310 C   0  0  0  0  0  0  0  0  0  0  0  0
   42.6000   23.3530   34.4470 C   0  0  0  0  0  0  0  0  0  0  0  0
   43.9360   23.4570   34.4920 C   0  0  0  0  0  0  0  0  0  0  0  0
   44.6260   22.7100   35.4810 C   0  0  0  0  0  0  0  0  0  0  0  0
   43.2540   21.8190   36.3770 S   0  0  0  0  0  0  0  0  0  0  0  0
   46.0490   22.6280   35.7580 C   0  0  0  0  0  0  0  0  0  0  0  0
   46.8300   21.7150   35.1130 C   0  0  0  0  0  0  0  0  0  0  0  0
   48.1670   21.7170   35.4180 C   0  0  0  0  0  0  0  0  0  0  0  0
   48.6760   22.6020   36.3340 C   0  0  0  0  0  0  0  0  0  0  0  0
   47.8550   23.5260   36.9810 C   0  0  0  0  0  0  0  0  0  0  0  0
   46.5110   23.5140   36.6650 C   0  0  0  0  0  0  0  0  0  0  0  0
   45.8540   24.5000   37.4530 N   0  0  0  0  0  0  0  0  0  0  0  0
   44.6680   25.1040   37.4500 N   0  0  0  0  0  0  0  0  0  0  0  0
   44.6350   25.9980   38.4730 C   0  0  0  0  0  0  0  0  0  0  0  0
   45.8620   25.9440   39.1430 C   0  0  0  0  0  0  0  0  0  0  0  0
   46.6060   24.9930   38.4770 C   0  0  0  0  0  0  0  0  0  0  0  0
   40.6840   22.2520   35.5250 O   0  0  0  0  0  0  0  0  0  0  0  0
   38.5990   23.4400   38.1410 C   0  0  0  0  0  0  0  0  0  0  0  0
   37.9770   24.5680   37.5810 C   0  0  0  0  0  0  0  0  0  0  0  0
   38.3000   24.9050   36.2770 C   0  0  0  0  0  0  0  0  0  0  0  0
   39.2150   24.1310   35.5660 N   0  0  0  0  0  0  0  0  0  0  0  0
   39.7650   23.0590   36.1900 C   0  0  0  0  0  0  0  0  0  0  0  0
   39.4700   22.7180   37.4420 N   0  0  0  0  0  0  0  0  0  0  0  0
   37.6940   26.0570   35.5590 C   0  0  0  0  0  0  0  0  0  0  0  0
   37.5290   25.8550   34.1190 C   0  0  0  0  0  0  0  0  0  0  0  0
   38.4920   27.3680   35.8370 C   0  0  0  0  0  0  0  0  0  0  0  0
   42.0316   23.9185   33.6939 H   0  0  0  0  0  0  0  0  0  0  0  0
   44.4795   24.1008   33.7848 H   0  0  0  0  0  0  0  0  0  0  0  0
   46.4073   21.0099   34.3822 H   0  0  0  0  0  0  0  0  0  0  0  0
   48.8389   21.0007   34.9224 H   0  0  0  0  0  0  0  0  0  0  0  0
   49.7518   22.5829   36.5628 H   0  0  0  0  0  0  0  0  0  0  0  0
   48.2628   24.2368   37.7148 H   0  0  0  0  0  0  0  0  0  0  0  0
   43.7887   26.6519   38.7302 H   0  0  0  0  0  0  0  0  0  0  0  0
   46.1689   26.5361   40.0178 H   0  0  0  0  0  0  0  0  0  0  0  0
   47.6314   24.6849   38.7292 H   0  0  0  0  0  0  0  0  0  0  0  0
   38.3617   23.1490   39.1749 H   0  0  0  0  0  0  0  0  0  0  0  0
   37.2564   25.1647   38.1596 H   0  0  0  0  0  0  0  0  0  0  0  0
   36.6763   26.1484   35.9663 H   0  0  0  0  0  0  0  0  0  0  0  0
   36.8421   25.0141   33.9430 H   0  0  0  0  0  0  0  0  0  0  0  0
   37.1149   26.7677   33.6658 H   0  0  0  0  0  0  0  0  0  0  0  0
   38.5060   25.6314   33.6658 H   0  0  0  0  0  0  0  0  0  0  0  0
   38.5835   27.5183   36.9228 H   0  0  0  0  0  0  0  0  0  0  0  0
   39.4948   27.2882   35.3921 H   0  0  0  0  0  0  0  0  0  0  0  0
   37.9605   28.2221   35.3921 H   0  0  0  0  0  0  0  0  0  0  0  0
  1 17  1  0
  1  5  1  0
  2  3  1  0
  2  1  2  0
  3  4  2  0
  4  6  1  0
  4  5  1  0
  6 11  2  0
  7  8  2  0
  7  6  1  0
  8  9  1  0
  9 10  2  0
 11 10  1  0
 11 12  1  0
 12 16  1  0
 13 12  1  0
 13 14  2  0
 14 15  1  0
 16 15  2  0
 17 22  1  0
 19 18  2  0
 20 19  1  0
 21 22  1  0
 21 20  2  0
 22 23  2  0
 23 18  1  0
 24 26  1  0
 24 20  1  0
 25 24  1  0
  2 27  1  0
  3 28  1  0
  7 29  1  0
  8 30  1  0
  9 31  1  0
 10 32  1  0
 14 33  1  0
 15 34  1  0
 16 35  1  0
 18 36  1  0
 19 37  1  0
 24 38  1  0
 25 39  1  0
 25 40  1  0
 25 41  1  0
 26 42  1  0
 26 43  1  0
 26 44  1  0
M  ISO  8  27  14  28  14  29  14  30  14  31  14  32  14  33  14  34  14
M  ISO  8  35  14  36  14  37  14  38   8  39   8  40   8  41   8  42   8
M  ISO  2  43   8  44   8
M  END
>  <minimizedAffinity>  (1) 
-5.35660839

>  <minimizedRMSD>  (1) 
1.0255053

$$$$
