
     RDKit          3D

 42 45  0  0  0  0  0  0  0  0999 V2000
   42.2590   23.0350   35.4990 C   0  0  0  0  0  0  0  0  0  0  0  0
   42.5490   24.0550   34.6090 C   0  0  0  0  0  0  0  0  0  0  0  0
   43.8120   24.4030   34.4480 C   0  0  0  0  0  0  0  0  0  0  0  0
   44.8320   23.7440   35.1720 C   0  0  0  0  0  0  0  0  0  0  0  0
   43.8800   22.5190   36.1650 S   0  0  0  0  0  0  0  0  0  0  0  0
   46.2660   23.9380   35.1390 C   0  0  0  0  0  0  0  0  0  0  0  0
   47.0100   23.4270   34.1020 C   0  0  0  0  0  0  0  0  0  0  0  0
   48.3520   23.6620   34.0720 C   0  0  0  0  0  0  0  0  0  0  0  0
   48.9150   24.4010   35.0720 C   0  0  0  0  0  0  0  0  0  0  0  0
   48.1480   24.9070   36.1080 C   0  0  0  0  0  0  0  0  0  0  0  0
   46.7830   24.6650   36.1440 C   0  0  0  0  0  0  0  0  0  0  0  0
   46.2240   25.1990   37.4070 C   0  0  0  0  0  0  0  0  0  0  0  0
   46.6230   24.8710   38.6210 N   0  0  0  0  0  0  0  0  0  0  0  0
   45.8260   25.4450   39.4720 O   0  0  0  0  0  0  0  0  0  0  0  0
   44.9230   26.1340   38.8690 C   0  0  0  0  0  0  0  0  0  0  0  0
   45.1330   26.0080   37.5780 N   0  0  0  0  0  0  0  0  0  0  0  0
   41.1470   22.4490   35.8940 O   0  0  0  0  0  0  0  0  0  0  0  0
   38.7230   23.3420   38.3450 C   0  0  0  0  0  0  0  0  0  0  0  0
   37.9980   24.3870   37.7320 C   0  0  0  0  0  0  0  0  0  0  0  0
   38.3810   24.7610   36.4570 C   0  0  0  0  0  0  0  0  0  0  0  0
   39.4440   24.1170   35.8220 N   0  0  0  0  0  0  0  0  0  0  0  0
   40.0790   23.1270   36.4860 C   0  0  0  0  0  0  0  0  0  0  0  0
   39.7350   22.7410   37.7180 N   0  0  0  0  0  0  0  0  0  0  0  0
   37.6880   25.8340   35.6860 C   0  0  0  0  0  0  0  0  0  0  0  0
   37.6200   25.5870   34.2440 C   0  0  0  0  0  0  0  0  0  0  0  0
   38.3270   27.2250   35.9800 C   0  0  0  0  0  0  0  0  0  0  0  0
   41.7481   24.5620   34.0508 H   0  0  0  0  0  0  0  0  0  0  0  0
   44.0723   25.2098   33.7470 H   0  0  0  0  0  0  0  0  0  0  0  0
   46.5290   22.8370   33.3080 H   0  0  0  0  0  0  0  0  0  0  0  0
   48.9714   23.2627   33.2553 H   0  0  0  0  0  0  0  0  0  0  0  0
   49.9971   24.5981   35.0546 H   0  0  0  0  0  0  0  0  0  0  0  0
   48.6219   25.5014   36.9031 H   0  0  0  0  0  0  0  0  0  0  0  0
   44.1233   26.7200   39.3455 H   0  0  0  0  0  0  0  0  0  0  0  0
   38.4478   23.0173   39.3593 H   0  0  0  0  0  0  0  0  0  0  0  0
   37.1626   24.8834   38.2476 H   0  0  0  0  0  0  0  0  0  0  0  0
   36.6457   25.8282   36.0375 H   0  0  0  0  0  0  0  0  0  0  0  0
   37.3319   24.5407   34.0644 H   0  0  0  0  0  0  0  0  0  0  0  0
   36.8726   26.2558   33.7923 H   0  0  0  0  0  0  0  0  0  0  0  0
   38.6044   25.7790   33.7923 H   0  0  0  0  0  0  0  0  0  0  0  0
   38.3957   27.3745   37.0676 H   0  0  0  0  0  0  0  0  0  0  0  0
   39.3343   27.2662   35.5399 H   0  0  0  0  0  0  0  0  0  0  0  0
   37.7020   28.0160   35.5399 H   0  0  0  0  0  0  0  0  0  0  0  0
  1 17  1  0
  1  5  1  0
  2  1  2  0
  3  2  1  0
  3  4  2  0
  4  5  1  0
  6  4  1  0
  6 11  1  0
  7  6  2  0
  8  7  1  0
  8  9  2  0
  9 10  1  0
 10 11  2  0
 11 12  1  0
 12 16  1  0
 12 13  2  0
 13 14  1  0
 15 14  1  0
 16 15  2  0
 17 22  1  0
 19 18  2  0
 20 19  1  0
 21 20  2  0
 21 22  1  0
 22 23  2  0
 23 18  1  0
 24 26  1  0
 24 20  1  0
 25 24  1  0
  2 27  1  0
  3 28  1  0
  7 29  1  0
  8 30  1  0
  9 31  1  0
 10 32  1  0
 15 33  1  0
 18 34  1  0
 19 35  1  0
 24 36  1  0
 25 37  1  0
 25 38  1  0
 25 39  1  0
 26 40  1  0
 26 41  1  0
 26 42  1  0
M  ISO  8  27  14  28  14  29  14  30  14  31  14  32  14  33  14  34  14
M  ISO  8  35  14  36   8  37   8  38   8  39   8  40   8  41   8  42   8
M  END
>  <minimizedAffinity>  (1) 
-5.35262918

>  <minimizedRMSD>  (1) 
1.34996355

$$$$
