
     RDKit          3D

 51 54  0  0  0  0  0  0  0  0999 V2000
   41.4490   22.0230   35.8310 C   0  0  0  0  0  0  0  0  0  0  0  0
   42.1320   22.6390   34.8230 C   0  0  0  0  0  0  0  0  0  0  0  0
   43.4660   22.5610   34.7620 C   0  0  0  0  0  0  0  0  0  0  0  0
   44.1260   21.8220   35.7780 C   0  0  0  0  0  0  0  0  0  0  0  0
   42.7260   21.2210   36.8560 S   0  0  0  0  0  0  0  0  0  0  0  0
   45.5370   21.5650   35.9870 C   0  0  0  0  0  0  0  0  0  0  0  0
   46.0550   20.3240   35.9050 C   0  0  0  0  0  0  0  0  0  0  0  0
   47.4020   20.1690   36.1120 C   0  0  0  0  0  0  0  0  0  0  0  0
   48.1800   21.2590   36.3930 C   0  0  0  0  0  0  0  0  0  0  0  0
   47.6420   22.5410   36.4770 C   0  0  0  0  0  0  0  0  0  0  0  0
   46.2790   22.6830   36.2670 C   0  0  0  0  0  0  0  0  0  0  0  0
   45.9630   24.0570   36.4480 N   0  0  0  0  0  0  0  0  0  0  0  0
   45.4800   24.5840   37.7260 C   0  0  0  0  0  0  0  0  0  0  0  0
   44.9260   25.9630   37.6400 C   0  0  0  0  0  0  0  0  0  0  0  0
   44.4120   26.2030   36.3090 N   0  0  0  0  0  0  0  0  0  0  0  0
   45.5470   26.2430   35.4070 C   0  0  0  0  0  0  0  0  0  0  0  0
   46.1910   24.8900   35.2520 C   0  0  0  0  0  0  0  0  0  0  0  0
   40.1800   21.9300   36.1370 O   0  0  0  0  0  0  0  0  0  0  0  0
   38.4150   23.8210   38.5880 C   0  0  0  0  0  0  0  0  0  0  0  0
   37.9030   24.9070   37.8570 C   0  0  0  0  0  0  0  0  0  0  0  0
   38.1880   24.9610   36.4960 C   0  0  0  0  0  0  0  0  0  0  0  0
   38.9560   23.9610   35.9080 N   0  0  0  0  0  0  0  0  0  0  0  0
   39.4080   22.9540   36.6870 C   0  0  0  0  0  0  0  0  0  0  0  0
   39.1480   22.8780   38.0000 N   0  0  0  0  0  0  0  0  0  0  0  0
   37.6860   26.0440   35.6090 C   0  0  0  0  0  0  0  0  0  0  0  0
   37.6210   25.6750   34.1950 C   0  0  0  0  0  0  0  0  0  0  0  0
   38.5140   27.3510   35.7990 C   0  0  0  0  0  0  0  0  0  0  0  0
   41.5820   23.2034   34.0556 H   0  0  0  0  0  0  0  0  0  0  0  0
   44.0301   23.0512   33.9548 H   0  0  0  0  0  0  0  0  0  0  0  0
   45.4150   19.4586   35.6782 H   0  0  0  0  0  0  0  0  0  0  0  0
   47.8565   19.1691   36.0522 H   0  0  0  0  0  0  0  0  0  0  0  0
   49.2587   21.1191   36.5569 H   0  0  0  0  0  0  0  0  0  0  0  0
   48.2767   23.4108   36.7022 H   0  0  0  0  0  0  0  0  0  0  0  0
   44.6898   23.9161   38.0994 H   0  0  0  0  0  0  0  0  0  0  0  0
   46.3479   24.6304   38.4003 H   0  0  0  0  0  0  0  0  0  0  0  0
   44.1122   26.0758   38.3715 H   0  0  0  0  0  0  0  0  0  0  0  0
   45.7234   26.6888   37.8575 H   0  0  0  0  0  0  0  0  0  0  0  0
   43.7721   25.4433   36.0363 H   0  0  0  0  0  0  0  0  0  0  0  0
   45.2049   26.5888   34.4204 H   0  0  0  0  0  0  0  0  0  0  0  0
   46.2948   26.9292   35.8312 H   0  0  0  0  0  0  0  0  0  0  0  0
   45.7610   24.3851   34.3744 H   0  0  0  0  0  0  0  0  0  0  0  0
   47.2744   25.0298   35.1230 H   0  0  0  0  0  0  0  0  0  0  0  0
   38.2062   23.7490   39.6656 H   0  0  0  0  0  0  0  0  0  0  0  0
   37.2984   25.6866   38.3436 H   0  0  0  0  0  0  0  0  0  0  0  0
   36.6468   26.2231   35.9221 H   0  0  0  0  0  0  0  0  0  0  0  0
   37.4308   24.5952   34.1062 H   0  0  0  0  0  0  0  0  0  0  0  0
   36.8071   26.2320   33.7077 H   0  0  0  0  0  0  0  0  0  0  0  0
   38.5762   25.9203   33.7077 H   0  0  0  0  0  0  0  0  0  0  0  0
   38.6411   27.5516   36.8731 H   0  0  0  0  0  0  0  0  0  0  0  0
   39.5013   27.2312   35.3290 H   0  0  0  0  0  0  0  0  0  0  0  0
   37.9839   28.1925   35.3290 H   0  0  0  0  0  0  0  0  0  0  0  0
  1 18  1  0
  1  5  1  0
  2  1  2  0
  3  2  1  0
  3  4  2  0
  4  6  1  0
  4  5  1  0
  6 11  1  0
  7  6  2  0
  7  8  1  0
  8  9  2  0
  9 10  1  0
 11 12  1  0
 11 10  2  0
 12 13  1  0
 14 13  1  0
 15 14  1  0
 16 15  1  0
 17 16  1  0
 17 12  1  0
 18 23  1  0
 20 19  2  0
 21 20  1  0
 22 21  2  0
 22 23  1  0
 23 24  2  0
 24 19  1  0
 25 27  1  0
 25 21  1  0
 26 25  1  0
  2 28  1  0
  3 29  1  0
  7 30  1  0
  8 31  1  0
  9 32  1  0
 10 33  1  0
 13 34  1  0
 13 35  1  0
 14 36  1  0
 14 37  1  0
 15 38  1  0
 16 39  1  0
 16 40  1  0
 17 41  1  0
 17 42  1  0
 19 43  1  0
 20 44  1  0
 25 45  1  0
 26 46  1  0
 26 47  1  0
 26 48  1  0
 27 49  1  0
 27 50  1  0
 27 51  1  0
M  ISO  8  28  14  29  14  30  14  31  14  32  14  33  14  34  13  35  13
M  ISO  8  36  13  37  13  38   5  39  13  40  13  41  13  42  13  43  14
M  ISO  8  44  14  45   8  46   8  47   8  48   8  49   8  50   8  51   8
M  END
>  <minimizedAffinity>  (1) 
-5.20559311

>  <minimizedRMSD>  (1) 
1.9448806

$$$$
