
     RDKit          3D

 44 47  0  0  0  0  0  0  0  0999 V2000
   42.2260   22.9720   35.4750 C   0  0  0  0  0  0  0  0  0  0  0  0
   42.4910   23.9040   34.5160 C   0  0  0  0  0  0  0  0  0  0  0  0
   43.7490   24.2990   34.2340 C   0  0  0  0  0  0  0  0  0  0  0  0
   44.7850   23.6900   34.9960 C   0  0  0  0  0  0  0  0  0  0  0  0
   43.8650   22.5280   36.1280 S   0  0  0  0  0  0  0  0  0  0  0  0
   46.2150   23.8910   34.9600 C   0  0  0  0  0  0  0  0  0  0  0  0
   46.9800   23.4310   33.9360 C   0  0  0  0  0  0  0  0  0  0  0  0
   48.3300   23.6470   34.0050 C   0  0  0  0  0  0  0  0  0  0  0  0
   48.8710   24.3060   35.0750 C   0  0  0  0  0  0  0  0  0  0  0  0
   48.0810   24.7760   36.1210 C   0  0  0  0  0  0  0  0  0  0  0  0
   46.7210   24.5550   36.0480 C   0  0  0  0  0  0  0  0  0  0  0  0
   46.1260   25.0810   37.2280 N   0  0  0  0  0  0  0  0  0  0  0  0
   45.0620   25.9290   37.3950 C   0  0  0  0  0  0  0  0  0  0  0  0
   44.9630   26.1100   38.7750 C   0  0  0  0  0  0  0  0  0  0  0  0
   45.9300   25.3960   39.3800 N   0  0  0  0  0  0  0  0  0  0  0  0
   46.6620   24.7520   38.4450 C   0  0  0  0  0  0  0  0  0  0  0  0
   41.1310   22.4300   35.9260 O   0  0  0  0  0  0  0  0  0  0  0  0
   38.7140   23.3440   38.3570 C   0  0  0  0  0  0  0  0  0  0  0  0
   38.0010   24.3800   37.7400 C   0  0  0  0  0  0  0  0  0  0  0  0
   38.3740   24.7570   36.4630 C   0  0  0  0  0  0  0  0  0  0  0  0
   39.4340   24.1100   35.8280 N   0  0  0  0  0  0  0  0  0  0  0  0
   40.0710   23.1170   36.4980 C   0  0  0  0  0  0  0  0  0  0  0  0
   39.7260   22.7400   37.7290 N   0  0  0  0  0  0  0  0  0  0  0  0
   37.6820   25.8230   35.6930 C   0  0  0  0  0  0  0  0  0  0  0  0
   37.6180   25.5870   34.2490 C   0  0  0  0  0  0  0  0  0  0  0  0
   38.3160   27.2180   35.9800 C   0  0  0  0  0  0  0  0  0  0  0  0
   41.6541   24.3467   33.9559 H   0  0  0  0  0  0  0  0  0  0  0  0
   43.9624   25.0496   33.4587 H   0  0  0  0  0  0  0  0  0  0  0  0
   46.5306   22.9036   33.0817 H   0  0  0  0  0  0  0  0  0  0  0  0
   48.9834   23.2888   33.1958 H   0  0  0  0  0  0  0  0  0  0  0  0
   49.9583   24.4688   35.1099 H   0  0  0  0  0  0  0  0  0  0  0  0
   48.5260   25.3054   36.9764 H   0  0  0  0  0  0  0  0  0  0  0  0
   44.4261   26.3698   36.6131 H   0  0  0  0  0  0  0  0  0  0  0  0
   44.2156   26.7350   39.2856 H   0  0  0  0  0  0  0  0  0  0  0  0
   47.5224   24.0910   38.6259 H   0  0  0  0  0  0  0  0  0  0  0  0
   38.4366   23.0238   39.3722 H   0  0  0  0  0  0  0  0  0  0  0  0
   37.1681   24.8794   38.2567 H   0  0  0  0  0  0  0  0  0  0  0  0
   36.6415   25.8025   36.0492 H   0  0  0  0  0  0  0  0  0  0  0  0
   37.3343   24.5410   34.0606 H   0  0  0  0  0  0  0  0  0  0  0  0
   36.8690   26.2564   33.8009 H   0  0  0  0  0  0  0  0  0  0  0  0
   38.6026   25.7863   33.8009 H   0  0  0  0  0  0  0  0  0  0  0  0
   38.3861   27.3723   37.0669 H   0  0  0  0  0  0  0  0  0  0  0  0
   39.3223   27.2614   35.5378 H   0  0  0  0  0  0  0  0  0  0  0  0
   37.6870   28.0046   35.5378 H   0  0  0  0  0  0  0  0  0  0  0  0
  1 17  1  0
  1  5  1  0
  2  1  2  0
  3  2  1  0
  3  4  2  0
  4  5  1  0
  6  4  1  0
  6 11  2  0
  7  8  2  0
  7  6  1  0
  8  9  1  0
  9 10  2  0
 11 10  1  0
 11 12  1  0
 12 13  1  0
 12 16  1  0
 13 14  2  0
 14 15  1  0
 16 15  2  0
 17 22  1  0
 19 18  2  0
 20 19  1  0
 21 20  2  0
 21 22  1  0
 22 23  2  0
 23 18  1  0
 24 26  1  0
 24 20  1  0
 25 24  1  0
  2 27  1  0
  3 28  1  0
  7 29  1  0
  8 30  1  0
  9 31  1  0
 10 32  1  0
 13 33  1  0
 14 34  1  0
 16 35  1  0
 18 36  1  0
 19 37  1  0
 24 38  1  0
 25 39  1  0
 25 40  1  0
 25 41  1  0
 26 42  1  0
 26 43  1  0
 26 44  1  0
M  ISO  8  27  14  28  14  29  14  30  14  31  14  32  14  33  14  34  14
M  ISO  8  35  14  36  14  37  14  38   8  39   8  40   8  41   8  42   8
M  ISO  2  43   8  44   8
M  END
>  <minimizedAffinity>  (1) 
-5.19666004

>  <minimizedRMSD>  (1) 
1.3152132

$$$$
