
     RDKit          3D

 47 50  0  0  0  0  0  0  0  0999 V2000
   41.8470   22.4360   35.2100 C   0  0  0  0  0  0  0  0  0  0  0  0
   42.6190   23.0270   34.2650 C   0  0  0  0  0  0  0  0  0  0  0  0
   43.9550   23.1010   34.4050 C   0  0  0  0  0  0  0  0  0  0  0  0
   44.5110   22.5310   35.5860 C   0  0  0  0  0  0  0  0  0  0  0  0
   43.0280   21.8850   36.4840 S   0  0  0  0  0  0  0  0  0  0  0  0
   45.8990   22.4740   36.0100 C   0  0  0  0  0  0  0  0  0  0  0  0
   46.6250   21.3340   35.8780 C   0  0  0  0  0  0  0  0  0  0  0  0
   47.9250   21.3460   36.2870 C   0  0  0  0  0  0  0  0  0  0  0  0
   48.4690   22.4790   36.8140 C   0  0  0  0  0  0  0  0  0  0  0  0
   47.7060   23.6230   36.9380 C   0  0  0  0  0  0  0  0  0  0  0  0
   46.3810   23.6350   36.5280 C   0  0  0  0  0  0  0  0  0  0  0  0
   45.7390   24.9480   36.7600 C   0  0  0  0  0  0  0  0  0  0  0  0
   45.0170   25.0560   38.0500 C   0  0  0  0  0  0  0  0  0  0  0  0
   45.9420   25.4800   39.2200 C   0  0  0  0  0  0  0  0  0  0  0  0
   44.7500   26.2810   38.7960 C   0  0  0  0  0  0  0  0  0  0  0  0
   40.5580   22.2180   35.3520 O   0  0  0  0  0  0  0  0  0  0  0  0
   38.5930   23.4370   38.0390 C   0  0  0  0  0  0  0  0  0  0  0  0
   37.9750   24.5900   37.5180 C   0  0  0  0  0  0  0  0  0  0  0  0
   38.2660   24.9270   36.1990 C   0  0  0  0  0  0  0  0  0  0  0  0
   39.1400   24.1360   35.4460 N   0  0  0  0  0  0  0  0  0  0  0  0
   39.6860   23.0460   36.0360 C   0  0  0  0  0  0  0  0  0  0  0  0
   39.4250   22.6990   37.3000 N   0  0  0  0  0  0  0  0  0  0  0  0
   37.6690   26.1200   35.5170 C   0  0  0  0  0  0  0  0  0  0  0  0
   37.4800   25.9370   34.0880 C   0  0  0  0  0  0  0  0  0  0  0  0
   38.4920   27.4070   35.8310 C   0  0  0  0  0  0  0  0  0  0  0  0
   42.1449   23.4532   33.3686 H   0  0  0  0  0  0  0  0  0  0  0  0
   44.5882   23.5792   33.6432 H   0  0  0  0  0  0  0  0  0  0  0  0
   46.1756   20.4248   35.4521 H   0  0  0  0  0  0  0  0  0  0  0  0
   48.5377   20.4375   36.1914 H   0  0  0  0  0  0  0  0  0  0  0  0
   49.5191   22.4821   37.1415 H   0  0  0  0  0  0  0  0  0  0  0  0
   48.1527   24.5327   37.3656 H   0  0  0  0  0  0  0  0  0  0  0  0
   46.5202   25.7220   36.7369 H   0  0  0  0  0  0  0  0  0  0  0  0
   44.9870   25.0747   35.9673 H   0  0  0  0  0  0  0  0  0  0  0  0
   44.3250   24.2568   37.7461 H   0  0  0  0  0  0  0  0  0  0  0  0
   45.9313   24.9239   40.1690 H   0  0  0  0  0  0  0  0  0  0  0  0
   47.0176   25.6672   39.3542 H   0  0  0  0  0  0  0  0  0  0  0  0
   44.8991   27.2551   38.3073 H   0  0  0  0  0  0  0  0  0  0  0  0
   43.8683   26.6678   39.3279 H   0  0  0  0  0  0  0  0  0  0  0  0
   38.3859   23.1378   39.0771 H   0  0  0  0  0  0  0  0  0  0  0  0
   37.2911   25.1988   38.1276 H   0  0  0  0  0  0  0  0  0  0  0  0
   36.6579   26.2432   35.9323 H   0  0  0  0  0  0  0  0  0  0  0  0
   36.6996   25.1813   33.9152 H   0  0  0  0  0  0  0  0  0  0  0  0
   37.1739   26.8908   33.6335 H   0  0  0  0  0  0  0  0  0  0  0  0
   38.4234   25.6003   33.6335 H   0  0  0  0  0  0  0  0  0  0  0  0
   38.5730   27.5337   36.9207 H   0  0  0  0  0  0  0  0  0  0  0  0
   39.4984   27.3137   35.3969 H   0  0  0  0  0  0  0  0  0  0  0  0
   37.9851   28.2814   35.3969 H   0  0  0  0  0  0  0  0  0  0  0  0
  1 16  1  0
  1  5  1  0
  2  3  1  0
  2  1  2  0
  3  4  2  0
  4  6  1  0
  4  5  1  0
  6 11  1  0
  7  6  2  0
  7  8  1  0
  8  9  2  0
  9 10  1  0
 11 12  1  0
 11 10  2  0
 12 13  1  0
 13 15  1  0
 13 14  1  0
 15 14  1  0
 16 21  1  0
 18 17  2  0
 19 18  1  0
 20 21  1  0
 20 19  2  0
 21 22  2  0
 22 17  1  0
 23 25  1  0
 23 19  1  0
 24 23  1  0
  2 26  1  0
  3 27  1  0
  7 28  1  0
  8 29  1  0
  9 30  1  0
 10 31  1  0
 12 32  1  0
 12 33  1  0
 13 34  1  0
 14 35  1  0
 14 36  1  0
 15 37  1  0
 15 38  1  0
 17 39  1  0
 18 40  1  0
 23 41  1  0
 24 42  1  0
 24 43  1  0
 24 44  1  0
 25 45  1  0
 25 46  1  0
 25 47  1  0
M  ISO  8  26  14  27  14  28  14  29  14  30  14  31  14  32   8  33   8
M  ISO  8  34  13  35  13  36  13  37  13  38  13  39  14  40  14  41   8
M  ISO  6  42   8  43   8  44   8  45   8  46   8  47   8
M  END
>  <minimizedAffinity>  (1) 
-5.50605631

>  <minimizedRMSD>  (1) 
1.75351381

$$$$
