
     RDKit          3D

 36 39  0  0  0  0  0  0  0  0999 V2000
   38.6090   23.6270   34.4360 C   0  0  0  0  0  0  0  0  0  0  0  0
   39.9380   24.0860   34.4390 C   0  0  0  0  0  0  0  0  0  0  0  0
   40.7450   23.8490   35.5490 C   0  0  0  0  0  0  0  0  0  0  0  0
   40.2060   23.1810   36.5850 N   0  0  0  0  0  0  0  0  0  0  0  0
   38.9110   22.7360   36.5770 C   0  0  0  0  0  0  0  0  0  0  0  0
   38.1190   22.9620   35.5000 N   0  0  0  0  0  0  0  0  0  0  0  0
   37.7380   23.8370   33.3340 N   0  0  0  0  0  0  0  0  0  0  0  0
   37.2990   22.8840   32.4800 C   0  0  0  0  0  0  0  0  0  0  0  0
   36.4900   23.5040   31.5800 N   0  0  0  0  0  0  0  0  0  0  0  0
   36.4420   24.8040   31.8860 C   0  0  0  0  0  0  0  0  0  0  0  0
   35.8170   25.9110   31.3690 C   0  0  0  0  0  0  0  0  0  0  0  0
   35.9610   27.1550   31.9140 N   0  0  0  0  0  0  0  0  0  0  0  0
   36.7480   27.3210   33.0060 C   0  0  0  0  0  0  0  0  0  0  0  0
   37.3810   26.2600   33.5470 N   0  0  0  0  0  0  0  0  0  0  0  0
   37.2230   25.0400   32.9910 C   0  0  0  0  0  0  0  0  0  0  0  0
   34.9840   25.7740   30.2300 N   0  0  0  0  0  0  0  0  0  0  0  0
   44.7940   24.9750   35.9210 C   0  0  0  0  0  0  0  0  0  0  0  0
   44.3030   23.8840   36.6410 C   0  0  0  0  0  0  0  0  0  0  0  0
   42.9580   23.5790   36.4630 C   0  0  0  0  0  0  0  0  0  0  0  0
   42.1160   24.2860   35.6300 C   0  0  0  0  0  0  0  0  0  0  0  0
   42.6360   25.3450   34.9440 C   0  0  0  0  0  0  0  0  0  0  0  0
   43.9620   25.7090   35.0710 C   0  0  0  0  0  0  0  0  0  0  0  0
   46.4850   25.4370   36.0840 S   0  0  0  0  0  0  0  0  0  0  0  0
   46.7010   26.7270   35.3560 O   0  0  0  0  0  0  0  0  0  0  0  0
   47.3170   24.3480   35.5090 O   0  0  0  0  0  0  0  0  0  0  0  0
   40.3379   24.6290   33.5699 H   0  0  0  0  0  0  0  0  0  0  0  0
   38.5121   22.1936   37.4469 H   0  0  0  0  0  0  0  0  0  0  0  0
   37.5486   21.8131   32.5083 H   0  0  0  0  0  0  0  0  0  0  0  0
   36.8699   28.3200   33.4500 H   0  0  0  0  0  0  0  0  0  0  0  0
   34.5111   26.5996   29.8355 H   0  0  0  0  0  0  0  0  0  0  0  0
   34.8517   24.8488   29.7970 H   0  0  0  0  0  0  0  0  0  0  0  0
   44.9460   23.2970   37.3133 H   0  0  0  0  0  0  0  0  0  0  0  0
   42.5418   22.7254   37.0181 H   0  0  0  0  0  0  0  0  0  0  0  0
   41.9829   25.9228   34.2735 H   0  0  0  0  0  0  0  0  0  0  0  0
   44.3592   26.5673   34.5093 H   0  0  0  0  0  0  0  0  0  0  0  0
   46.8334   25.6183   37.3965 H   0  0  0  0  0  0  0  0  0  0  0  0
  1  2  2  0
  1  6  1  0
  2  3  1  0
  3 20  1  0
  3  4  2  0
  5  4  1  0
  6  5  2  0
  7  1  1  0
  8  7  1  0
  9 10  1  0
  9  8  2  0
 10 15  2  0
 11 10  1  0
 11 12  2  0
 12 13  1  0
 13 14  2  0
 15  7  1  0
 15 14  1  0
 16 11  1  0
 17 23  1  0
 17 18  2  0
 19 18  1  0
 20 19  2  0
 21 22  2  0
 21 20  1  0
 22 17  1  0
 24 23  2  0
 25 23  2  0
  2 26  1  0
  5 27  1  0
  8 28  1  0
 13 29  1  0
 16 30  1  0
 16 31  1  0
 18 32  1  0
 19 33  1  0
 21 34  1  0
 22 35  1  0
 23 36  1  0
M  ISO  8  26  14  27  14  28  14  29  14  32  14  33  14  34  14  35  14
M  ISO  1  36  11
M  END
>  <minimizedAffinity>  (1) 
-5.50965929

>  <minimizedRMSD>  (1) 
7.99927711

$$$$
