
     RDKit          3D

 38 41  0  0  0  0  0  0  0  0999 V2000
   43.3440   23.6360   35.5350 C   0  0  0  0  0  0  0  0  0  0  0  0
   42.2320   23.2780   36.3480 C   0  0  0  0  0  0  0  0  0  0  0  0
   40.9700   23.3190   35.7600 C   0  0  0  0  0  0  0  0  0  0  0  0
   40.8700   23.6920   34.4610 N   0  0  0  0  0  0  0  0  0  0  0  0
   41.9450   24.0300   33.7030 C   0  0  0  0  0  0  0  0  0  0  0  0
   43.1840   23.9940   34.2690 N   0  0  0  0  0  0  0  0  0  0  0  0
   39.8060   22.9740   36.5080 N   0  0  0  0  0  0  0  0  0  0  0  0
   39.8270   23.2290   37.9400 C   0  0  0  0  0  0  0  0  0  0  0  0
   38.4490   23.1710   38.5460 C   0  0  0  0  0  0  0  0  0  0  0  0
   37.5090   23.7360   37.4960 C   0  0  0  0  0  0  0  0  0  0  0  0
   37.3570   22.6280   36.4750 C   0  0  0  0  0  0  0  0  0  0  0  0
   38.6800   22.4000   35.8340 C   0  0  0  0  0  0  0  0  0  0  0  0
   44.6680   23.6200   36.0600 N   0  0  0  0  0  0  0  0  0  0  0  0
   45.6850   22.8190   35.6330 C   0  0  0  0  0  0  0  0  0  0  0  0
   46.7690   23.1210   36.3970 N   0  0  0  0  0  0  0  0  0  0  0  0
   46.4180   24.0750   37.2590 C   0  0  0  0  0  0  0  0  0  0  0  0
   47.0530   24.7830   38.2660 C   0  0  0  0  0  0  0  0  0  0  0  0
   46.4190   25.7310   39.0060 N   0  0  0  0  0  0  0  0  0  0  0  0
   45.1110   26.0070   38.7600 C   0  0  0  0  0  0  0  0  0  0  0  0
   44.4490   25.3420   37.7870 N   0  0  0  0  0  0  0  0  0  0  0  0
   45.1000   24.4100   37.0710 C   0  0  0  0  0  0  0  0  0  0  0  0
   48.4180   24.5190   38.5470 N   0  0  0  0  0  0  0  0  0  0  0  0
   42.3640   22.9808   37.3988 H   0  0  0  0  0  0  0  0  0  0  0  0
   41.8179   24.3273   32.6516 H   0  0  0  0  0  0  0  0  0  0  0  0
   40.4603   22.4721   38.4258 H   0  0  0  0  0  0  0  0  0  0  0  0
   40.2242   24.2426   38.0979 H   0  0  0  0  0  0  0  0  0  0  0  0
   38.1783   22.1313   38.7823 H   0  0  0  0  0  0  0  0  0  0  0  0
   38.3961   23.7419   39.4848 H   0  0  0  0  0  0  0  0  0  0  0  0
   36.5357   23.9874   37.9426 H   0  0  0  0  0  0  0  0  0  0  0  0
   37.8967   24.6627   37.0478 H   0  0  0  0  0  0  0  0  0  0  0  0
   37.0211   21.7065   36.9731 H   0  0  0  0  0  0  0  0  0  0  0  0
   36.6117   22.9104   35.7168 H   0  0  0  0  0  0  0  0  0  0  0  0
   38.8419   21.3138   35.7711 H   0  0  0  0  0  0  0  0  0  0  0  0
   38.6290   22.9019   34.8565 H   0  0  0  0  0  0  0  0  0  0  0  0
   45.6381   22.0726   34.8264 H   0  0  0  0  0  0  0  0  0  0  0  0
   44.5903   26.7728   39.3537 H   0  0  0  0  0  0  0  0  0  0  0  0
   48.9001   25.0396   39.2936 H   0  0  0  0  0  0  0  0  0  0  0  0
   48.9271   23.8067   38.0044 H   0  0  0  0  0  0  0  0  0  0  0  0
  1 13  1  0
  1  2  2  0
  3  2  1  0
  3  7  1  0
  4  3  2  0
  5  6  2  0
  5  4  1  0
  6  1  1  0
  7  8  1  0
  8  9  1  0
 10  9  1  0
 11 10  1  0
 12 11  1  0
 12  7  1  0
 13 21  1  0
 14 13  1  0
 14 15  2  0
 15 16  1  0
 16 17  2  0
 17 22  1  0
 17 18  1  0
 19 18  2  0
 20 19  1  0
 21 16  1  0
 21 20  2  0
  2 23  1  0
  5 24  1  0
  8 25  1  0
  8 26  1  0
  9 27  1  0
  9 28  1  0
 10 29  1  0
 10 30  1  0
 11 31  1  0
 11 32  1  0
 12 33  1  0
 12 34  1  0
 14 35  1  0
 19 36  1  0
 22 37  1  0
 22 38  1  0
M  ISO  8  23  14  24  14  25  13  26  13  27  13  28  13  29  13  30  13
M  ISO  6  31  13  32  13  33  13  34  13  35  14  36  14
M  END
>  <minimizedAffinity>  (1) 
-5.24717188

>  <minimizedRMSD>  (1) 
4.38844872

$$$$
