
     RDKit          3D

 31 34  0  0  0  0  0  0  0  0999 V2000
   43.3150   23.4160   35.3720 C   0  0  0  0  0  0  0  0  0  0  0  0
   42.1720   23.4750   36.2040 C   0  0  0  0  0  0  0  0  0  0  0  0
   40.9190   23.4380   35.6050 C   0  0  0  0  0  0  0  0  0  0  0  0
   40.8390   23.3470   34.2630 N   0  0  0  0  0  0  0  0  0  0  0  0
   41.9570   23.2930   33.4780 C   0  0  0  0  0  0  0  0  0  0  0  0
   43.1960   23.3270   34.0400 N   0  0  0  0  0  0  0  0  0  0  0  0
   44.6340   23.4500   35.9170 N   0  0  0  0  0  0  0  0  0  0  0  0
   45.6630   22.6620   35.5390 C   0  0  0  0  0  0  0  0  0  0  0  0
   46.7270   23.0170   36.3040 N   0  0  0  0  0  0  0  0  0  0  0  0
   46.3460   23.9910   37.1170 C   0  0  0  0  0  0  0  0  0  0  0  0
   46.9550   24.7490   38.1040 C   0  0  0  0  0  0  0  0  0  0  0  0
   46.2900   25.7220   38.8060 N   0  0  0  0  0  0  0  0  0  0  0  0
   44.9810   25.9560   38.5280 C   0  0  0  0  0  0  0  0  0  0  0  0
   44.3360   25.2430   37.5740 N   0  0  0  0  0  0  0  0  0  0  0  0
   45.0200   24.2980   36.9050 C   0  0  0  0  0  0  0  0  0  0  0  0
   48.3230   24.5230   38.4130 N   0  0  0  0  0  0  0  0  0  0  0  0
   39.7450   23.5000   36.4700 C   0  0  0  0  0  0  0  0  0  0  0  0
   38.5420   23.9780   35.9940 C   0  0  0  0  0  0  0  0  0  0  0  0
   37.4950   23.9950   36.8910 C   0  0  0  0  0  0  0  0  0  0  0  0
   37.6740   23.5640   38.1460 N   0  0  0  0  0  0  0  0  0  0  0  0
   38.8470   23.0980   38.6120 C   0  0  0  0  0  0  0  0  0  0  0  0
   39.8950   23.0740   37.7360 N   0  0  0  0  0  0  0  0  0  0  0  0
   42.2729   23.5483   37.2969 H   0  0  0  0  0  0  0  0  0  0  0  0
   41.8544   23.2216   32.3851 H   0  0  0  0  0  0  0  0  0  0  0  0
   45.6432   21.8835   34.7621 H   0  0  0  0  0  0  0  0  0  0  0  0
   44.4382   26.7342   39.0846 H   0  0  0  0  0  0  0  0  0  0  0  0
   48.7847   25.0814   39.1451 H   0  0  0  0  0  0  0  0  0  0  0  0
   48.8532   23.8008   37.9049 H   0  0  0  0  0  0  0  0  0  0  0  0
   38.4245   24.3261   34.9572 H   0  0  0  0  0  0  0  0  0  0  0  0
   36.5084   24.3642   36.5742 H   0  0  0  0  0  0  0  0  0  0  0  0
   38.9571   22.7523   39.6504 H   0  0  0  0  0  0  0  0  0  0  0  0
  1  7  1  0
  1  2  2  0
  3  2  1  0
  3 17  1  0
  4  3  2  0
  5  6  2  0
  5  4  1  0
  6  1  1  0
  7 15  1  0
  8  7  1  0
  8  9  2  0
  9 10  1  0
 10 11  2  0
 11 16  1  0
 11 12  1  0
 13 12  2  0
 14 13  1  0
 15 10  1  0
 15 14  2  0
 17 22  1  0
 18 17  2  0
 18 19  1  0
 19 20  2  0
 20 21  1  0
 22 21  2  0
  2 23  1  0
  5 24  1  0
  8 25  1  0
 13 26  1  0
 16 27  1  0
 16 28  1  0
 18 29  1  0
 19 30  1  0
 21 31  1  0
M  ISO  7  23  14  24  14  25  14  26  14  29  14  30  14  31  14
M  END
>  <minimizedAffinity>  (1) 
-4.8694458

>  <minimizedRMSD>  (1) 
4.29982328

$$$$
