
     RDKit          3D

 40 44  0  0  0  0  0  0  0  0999 V2000
   37.3670   24.4350   31.6250 C   0  0  0  0  0  0  0  0  0  0  0  0
   36.7540   25.6850   31.6420 C   0  0  0  0  0  0  0  0  0  0  0  0
   37.0870   26.4800   32.7310 C   0  0  0  0  0  0  0  0  0  0  0  0
   37.9300   25.9960   33.6270 N   0  0  0  0  0  0  0  0  0  0  0  0
   38.5180   24.8240   33.6310 C   0  0  0  0  0  0  0  0  0  0  0  0
   38.2020   24.0660   32.5970 N   0  0  0  0  0  0  0  0  0  0  0  0
   36.5450   27.7790   32.8890 N   0  0  0  0  0  0  0  0  0  0  0  0
   36.6010   28.7900   31.9960 C   0  0  0  0  0  0  0  0  0  0  0  0
   35.9880   29.8560   32.4830 N   0  0  0  0  0  0  0  0  0  0  0  0
   35.5310   29.5380   33.6960 C   0  0  0  0  0  0  0  0  0  0  0  0
   35.8850   28.2550   33.9270 N   0  0  0  0  0  0  0  0  0  0  0  0
   39.4470   24.1850   34.5430 C   0  0  0  0  0  0  0  0  0  0  0  0
   40.7170   23.8100   34.1430 C   0  0  0  0  0  0  0  0  0  0  0  0
   41.6400   23.2040   34.9570 C   0  0  0  0  0  0  0  0  0  0  0  0
   41.3190   22.9350   36.2660 C   0  0  0  0  0  0  0  0  0  0  0  0
   40.0860   23.2840   36.7090 C   0  0  0  0  0  0  0  0  0  0  0  0
   39.7530   23.0160   38.0270 C   0  0  0  0  0  0  0  0  0  0  0  0
   38.5420   23.3290   38.5600 C   0  0  0  0  0  0  0  0  0  0  0  0
   37.6160   23.9460   37.7150 C   0  0  0  0  0  0  0  0  0  0  0  0
   37.9750   24.1980   36.4140 C   0  0  0  0  0  0  0  0  0  0  0  0
   39.1830   23.8910   35.8650 C   0  0  0  0  0  0  0  0  0  0  0  0
   34.7890   30.2610   34.7190 C   0  0  0  0  0  0  0  0  0  0  0  0
   33.5700   30.1890   35.2550 N   0  0  0  0  0  0  0  0  0  0  0  0
   33.4160   31.1150   36.1700 O   0  0  0  0  0  0  0  0  0  0  0  0
   34.5310   31.8070   36.2480 C   0  0  0  0  0  0  0  0  0  0  0  0
   35.4040   31.2990   35.3580 N   0  0  0  0  0  0  0  0  0  0  0  0
   34.7610   32.9600   37.1810 C   0  0  0  0  0  0  0  0  0  0  0  0
   37.1593   23.7412   30.7971 H   0  0  0  0  0  0  0  0  0  0  0  0
   36.0607   26.0167   30.8550 H   0  0  0  0  0  0  0  0  0  0  0  0
   37.0847   28.7353   31.0096 H   0  0  0  0  0  0  0  0  0  0  0  0
   41.0065   24.0115   33.1011 H   0  0  0  0  0  0  0  0  0  0  0  0
   42.6316   22.9348   34.5642 H   0  0  0  0  0  0  0  0  0  0  0  0
   42.0433   22.4494   36.9365 H   0  0  0  0  0  0  0  0  0  0  0  0
   40.5008   22.5289   38.6700 H   0  0  0  0  0  0  0  0  0  0  0  0
   38.3019   23.1063   39.6101 H   0  0  0  0  0  0  0  0  0  0  0  0
   36.6183   24.2246   38.0851 H   0  0  0  0  0  0  0  0  0  0  0  0
   37.2309   24.6845   35.7662 H   0  0  0  0  0  0  0  0  0  0  0  0
   34.6911   32.6095   38.2213 H   0  0  0  0  0  0  0  0  0  0  0  0
   35.7610   33.3821   37.0027 H   0  0  0  0  0  0  0  0  0  0  0  0
   33.9995   33.7335   37.0027 H   0  0  0  0  0  0  0  0  0  0  0  0
  1  2  2  0
  1  6  1  0
  2  3  1  0
  3  7  1  0
  3  4  2  0
  4  5  1  0
  5 12  1  0
  6  5  2  0
  7 11  1  0
  8  9  2  0
  8  7  1  0
  9 10  1  0
 10 11  2  0
 10 22  1  0
 12 21  1  0
 13 12  2  0
 13 14  1  0
 14 15  2  0
 15 16  1  0
 16 17  2  0
 17 18  1  0
 19 18  2  0
 20 19  1  0
 21 20  2  0
 21 16  1  0
 22 23  2  0
 22 26  1  0
 23 24  1  0
 24 25  1  0
 25 27  1  0
 26 25  2  0
  1 28  1  0
  2 29  1  0
  8 30  1  0
 13 31  1  0
 14 32  1  0
 15 33  1  0
 17 34  1  0
 18 35  1  0
 19 36  1  0
 20 37  1  0
 27 38  1  0
 27 39  1  0
 27 40  1  0
M  ISO  8  28  14  29  14  30  14  31  14  32  14  33  14  34  14  35  14
M  ISO  5  36  14  37  14  38   8  39   8  40   8
M  END
>  <minimizedAffinity>  (1) 
-6.65107965

>  <minimizedRMSD>  (1) 
0.480895221

$$$$
