
     RDKit          3D

 32 34  0  0  0  0  0  0  0  0999 V2000
   40.9060   26.6870   33.2900 N   0  0  0  0  0  0  0  0  0  0  0  0
   40.6090   26.6390   31.9600 C   0  0  0  0  0  0  0  0  0  0  0  0
   39.2740   26.8530   31.8480 N   0  0  0  0  0  0  0  0  0  0  0  0
   38.7780   27.0250   33.0790 C   0  0  0  0  0  0  0  0  0  0  0  0
   37.5270   27.2700   33.5970 C   0  0  0  0  0  0  0  0  0  0  0  0
   37.3120   27.4050   34.9420 N   0  0  0  0  0  0  0  0  0  0  0  0
   38.3630   27.2940   35.8090 C   0  0  0  0  0  0  0  0  0  0  0  0
   39.6060   27.0520   35.3400 N   0  0  0  0  0  0  0  0  0  0  0  0
   39.7900   26.9250   34.0150 C   0  0  0  0  0  0  0  0  0  0  0  0
   42.1960   26.5130   33.8550 C   0  0  0  0  0  0  0  0  0  0  0  0
   42.4710   25.4640   34.7530 C   0  0  0  0  0  0  0  0  0  0  0  0
   43.7610   25.3470   35.2760 C   0  0  0  0  0  0  0  0  0  0  0  0
   44.6820   26.2510   34.8880 N   0  0  0  0  0  0  0  0  0  0  0  0
   44.4020   27.2580   34.0190 C   0  0  0  0  0  0  0  0  0  0  0  0
   43.1580   27.3890   33.5030 N   0  0  0  0  0  0  0  0  0  0  0  0
   44.1290   24.2670   36.2300 C   0  0  0  0  0  0  0  0  0  0  0  0
   44.6210   24.8700   37.5360 C   0  0  0  0  0  0  0  0  0  0  0  0
   42.8500   23.4850   36.5530 C   0  0  0  0  0  0  0  0  0  0  0  0
   36.4120   27.3850   32.7370 N   0  0  0  0  0  0  0  0  0  0  0  0
   41.3159   26.4610   31.1363 H   0  0  0  0  0  0  0  0  0  0  0  0
   38.1959   27.4020   36.8909 H   0  0  0  0  0  0  0  0  0  0  0  0
   41.6844   24.7496   35.0375 H   0  0  0  0  0  0  0  0  0  0  0  0
   45.1906   27.9699   33.7338 H   0  0  0  0  0  0  0  0  0  0  0  0
   44.9121   23.6337   35.7875 H   0  0  0  0  0  0  0  0  0  0  0  0
   44.1764   24.3251   38.3819 H   0  0  0  0  0  0  0  0  0  0  0  0
   45.7172   24.7928   37.5855 H   0  0  0  0  0  0  0  0  0  0  0  0
   44.3254   25.9284   37.5855 H   0  0  0  0  0  0  0  0  0  0  0  0
   42.7306   23.4120   37.6441 H   0  0  0  0  0  0  0  0  0  0  0  0
   41.9825   24.0073   36.1233 H   0  0  0  0  0  0  0  0  0  0  0  0
   42.9195   22.4748   36.1233 H   0  0  0  0  0  0  0  0  0  0  0  0
   35.4769   27.5684   33.1279 H   0  0  0  0  0  0  0  0  0  0  0  0
   36.5342   27.2854   31.7191 H   0  0  0  0  0  0  0  0  0  0  0  0
  1 10  1  0
  1  9  1  0
  2  1  1  0
  3  2  2  0
  3  4  1  0
  4  5  2  0
  4  9  1  0
  5  6  1  0
  6  7  2  0
  8  7  1  0
  9  8  2  0
 10 11  2  0
 11 12  1  0
 12 16  1  0
 13 12  2  0
 14 13  1  0
 15 10  1  0
 15 14  2  0
 16 18  1  0
 16 17  1  0
 19  5  1  0
  2 20  1  0
  7 21  1  0
 11 22  1  0
 14 23  1  0
 16 24  1  0
 17 25  1  0
 17 26  1  0
 17 27  1  0
 18 28  1  0
 18 29  1  0
 18 30  1  0
 19 31  1  0
 19 32  1  0
M  ISO  8  20  14  21  14  22  14  23  14  24   8  25   8  26   8  27   8
M  ISO  3  28   8  29   8  30   8
M  END
>  <minimizedAffinity>  (1) 
-4.43123817

>  <minimizedRMSD>  (1) 
6.46160412

$$$$
