
     RDKit          3D

 34 37  0  0  0  0  0  0  0  0999 V2000
   40.6340   23.5960   35.6250 C   0  0  0  0  0  0  0  0  0  0  0  0
   40.8800   24.5280   34.5990 C   0  0  0  0  0  0  0  0  0  0  0  0
   42.1650   25.0450   34.4720 C   0  0  0  0  0  0  0  0  0  0  0  0
   43.1180   24.6250   35.3420 N   0  0  0  0  0  0  0  0  0  0  0  0
   42.8620   23.7200   36.3320 C   0  0  0  0  0  0  0  0  0  0  0  0
   41.6120   23.2090   36.4650 N   0  0  0  0  0  0  0  0  0  0  0  0
   42.4740   25.9890   33.4550 N   0  0  0  0  0  0  0  0  0  0  0  0
   42.0080   27.2620   33.4090 C   0  0  0  0  0  0  0  0  0  0  0  0
   42.3930   28.0720   32.3580 C   0  0  0  0  0  0  0  0  0  0  0  0
   43.2350   27.6130   31.3620 C   0  0  0  0  0  0  0  0  0  0  0  0
   43.5830   28.5190   30.3080 N   0  0  0  0  0  0  0  0  0  0  0  0
   43.6880   26.3420   31.4240 N   0  0  0  0  0  0  0  0  0  0  0  0
   43.3010   25.5730   32.4580 C   0  0  0  0  0  0  0  0  0  0  0  0
   43.7670   24.4000   32.4430 O   0  0  0  0  0  0  0  0  0  0  0  0
   39.3410   23.0190   35.8210 N   0  0  0  0  0  0  0  0  0  0  0  0
   38.5940   23.1090   36.9490 C   0  0  0  0  0  0  0  0  0  0  0  0
   37.4390   22.4210   36.7040 N   0  0  0  0  0  0  0  0  0  0  0  0
   37.4930   21.9320   35.4660 C   0  0  0  0  0  0  0  0  0  0  0  0
   36.6620   21.1790   34.6710 C   0  0  0  0  0  0  0  0  0  0  0  0
   36.9980   20.8180   33.3950 N   0  0  0  0  0  0  0  0  0  0  0  0
   38.1990   21.2100   32.8710 C   0  0  0  0  0  0  0  0  0  0  0  0
   39.0460   21.9520   33.6150 N   0  0  0  0  0  0  0  0  0  0  0  0
   38.6920   22.2960   34.8740 C   0  0  0  0  0  0  0  0  0  0  0  0
   35.4080   20.7500   35.1740 N   0  0  0  0  0  0  0  0  0  0  0  0
   40.0766   24.8394   33.9153 H   0  0  0  0  0  0  0  0  0  0  0  0
   43.6638   23.4073   37.0171 H   0  0  0  0  0  0  0  0  0  0  0  0
   41.3367   27.6421   34.1931 H   0  0  0  0  0  0  0  0  0  0  0  0
   42.0210   29.1062   32.3126 H   0  0  0  0  0  0  0  0  0  0  0  0
   43.2090   29.4787   30.3094 H   0  0  0  0  0  0  0  0  0  0  0  0
   44.2072   28.2106   29.5489 H   0  0  0  0  0  0  0  0  0  0  0  0
   38.8643   23.6325   37.8779 H   0  0  0  0  0  0  0  0  0  0  0  0
   38.4739   20.9212   31.8458 H   0  0  0  0  0  0  0  0  0  0  0  0
   34.7816   20.1856   34.5824 H   0  0  0  0  0  0  0  0  0  0  0  0
   35.1233   21.0027   36.1311 H   0  0  0  0  0  0  0  0  0  0  0  0
  1 15  1  0
  1  6  1  0
  2  1  2  0
  3  2  1  0
  3  4  2  0
  4  5  1  0
  5  6  2  0
  7  3  1  0
  8  7  1  0
  9  8  2  0
 10 12  2  0
 10  9  1  0
 11 10  1  0
 12 13  1  0
 13  7  1  0
 14 13  2  0
 15 16  1  0
 17 16  2  0
 18 17  1  0
 19 24  1  0
 19 18  2  0
 20 19  1  0
 21 20  2  0
 21 22  1  0
 22 23  2  0
 23 18  1  0
 23 15  1  0
  2 25  1  0
  5 26  1  0
  8 27  1  0
  9 28  1  0
 11 29  1  0
 11 30  1  0
 16 31  1  0
 21 32  1  0
 24 33  1  0
 24 34  1  0
M  ISO  6  25  14  26  14  27  14  28  14  31  14  32  14
M  END
>  <minimizedAffinity>  (1) 
-4.40989113

>  <minimizedRMSD>  (1) 
8.04195499

$$$$
