
     RDKit          3D

 38 42  0  0  0  0  0  0  0  0999 V2000
   37.3600   24.4370   31.6320 C   0  0  0  0  0  0  0  0  0  0  0  0
   36.7500   25.6930   31.6380 C   0  0  0  0  0  0  0  0  0  0  0  0
   37.0800   26.4970   32.7110 C   0  0  0  0  0  0  0  0  0  0  0  0
   37.9270   26.0210   33.6200 N   0  0  0  0  0  0  0  0  0  0  0  0
   38.5100   24.8410   33.6290 C   0  0  0  0  0  0  0  0  0  0  0  0
   38.1890   24.0780   32.6000 N   0  0  0  0  0  0  0  0  0  0  0  0
   36.5450   27.8010   32.8620 N   0  0  0  0  0  0  0  0  0  0  0  0
   36.6030   28.8060   31.9700 C   0  0  0  0  0  0  0  0  0  0  0  0
   36.0060   29.8850   32.4290 N   0  0  0  0  0  0  0  0  0  0  0  0
   35.5440   29.5800   33.6510 C   0  0  0  0  0  0  0  0  0  0  0  0
   35.8880   28.2900   33.8940 N   0  0  0  0  0  0  0  0  0  0  0  0
   39.4370   24.2120   34.5470 C   0  0  0  0  0  0  0  0  0  0  0  0
   40.7230   23.8490   34.1540 C   0  0  0  0  0  0  0  0  0  0  0  0
   41.6340   23.2520   34.9880 C   0  0  0  0  0  0  0  0  0  0  0  0
   41.3050   22.9740   36.3020 C   0  0  0  0  0  0  0  0  0  0  0  0
   40.0640   23.3140   36.7140 C   0  0  0  0  0  0  0  0  0  0  0  0
   39.7220   23.0380   38.0340 C   0  0  0  0  0  0  0  0  0  0  0  0
   38.5000   23.3390   38.5510 C   0  0  0  0  0  0  0  0  0  0  0  0
   37.5890   23.9430   37.6960 C   0  0  0  0  0  0  0  0  0  0  0  0
   37.9530   24.2000   36.4090 C   0  0  0  0  0  0  0  0  0  0  0  0
   39.1600   23.9110   35.8720 C   0  0  0  0  0  0  0  0  0  0  0  0
   34.8030   30.3160   34.6750 C   0  0  0  0  0  0  0  0  0  0  0  0
   33.6160   30.1650   35.2820 N   0  0  0  0  0  0  0  0  0  0  0  0
   33.4370   31.1300   36.1420 O   0  0  0  0  0  0  0  0  0  0  0  0
   34.4900   31.9150   36.1070 C   0  0  0  0  0  0  0  0  0  0  0  0
   35.3800   31.4410   35.1970 N   0  0  0  0  0  0  0  0  0  0  0  0
   34.5780   33.3410   37.1610 S   0  0  0  0  0  0  0  0  0  0  0  0
   37.1488   23.7357   30.8113 H   0  0  0  0  0  0  0  0  0  0  0  0
   36.0581   26.0178   30.8469 H   0  0  0  0  0  0  0  0  0  0  0  0
   37.0868   28.7351   30.9846 H   0  0  0  0  0  0  0  0  0  0  0  0
   41.0252   24.0526   33.1161 H   0  0  0  0  0  0  0  0  0  0  0  0
   42.6334   22.9926   34.6087 H   0  0  0  0  0  0  0  0  0  0  0  0
   42.0239   22.4958   36.9836 H   0  0  0  0  0  0  0  0  0  0  0  0
   40.4680   22.5581   38.6845 H   0  0  0  0  0  0  0  0  0  0  0  0
   38.2461   23.1142   39.5974 H   0  0  0  0  0  0  0  0  0  0  0  0
   36.5840   24.2112   38.0538 H   0  0  0  0  0  0  0  0  0  0  0  0
   37.2083   24.6793   35.7565 H   0  0  0  0  0  0  0  0  0  0  0  0
   34.5534   32.9424   38.4715 H   0  0  0  0  0  0  0  0  0  0  0  0
  1  2  2  0
  1  6  1  0
  2  3  1  0
  3  7  1  0
  3  4  2  0
  4  5  1  0
  5 12  1  0
  6  5  2  0
  7 11  1  0
  8  9  2  0
  8  7  1  0
  9 10  1  0
 10 11  2  0
 10 22  1  0
 12 21  1  0
 13 12  2  0
 13 14  1  0
 14 15  2  0
 15 16  1  0
 16 17  2  0
 17 18  1  0
 19 18  2  0
 20 19  1  0
 21 20  2  0
 21 16  1  0
 22 26  1  0
 22 23  2  0
 23 24  1  0
 25 24  1  0
 25 27  1  0
 26 25  2  0
  1 28  1  0
  2 29  1  0
  8 30  1  0
 13 31  1  0
 14 32  1  0
 15 33  1  0
 17 34  1  0
 18 35  1  0
 19 36  1  0
 20 37  1  0
 27 38  1  0
M  ISO  8  28  14  29  14  30  14  31  14  32  14  33  14  34  14  35  14
M  ISO  3  36  14  37  14  38  11
M  END
>  <minimizedAffinity>  (1) 
-6.46913099

>  <minimizedRMSD>  (1) 
0.519414365

$$$$
