
     RDKit          3D

 24 26  0  0  0  0  0  0  0  0999 V2000
   42.2840   23.7300   35.9200 N   0  0  0  0  0  0  0  0  0  0  0  0
   43.3120   23.1560   36.5650 C   0  0  0  0  0  0  0  0  0  0  0  0
   44.4080   23.9410   36.3220 N   0  0  0  0  0  0  0  0  0  0  0  0
   44.0330   24.9550   35.5510 C   0  0  0  0  0  0  0  0  0  0  0  0
   44.6650   26.0480   34.9850 C   0  0  0  0  0  0  0  0  0  0  0  0
   44.0130   26.9560   34.2150 N   0  0  0  0  0  0  0  0  0  0  0  0
   42.6670   26.7960   33.9760 C   0  0  0  0  0  0  0  0  0  0  0  0
   42.0130   25.7480   34.5060 N   0  0  0  0  0  0  0  0  0  0  0  0
   42.6920   24.8610   35.2700 C   0  0  0  0  0  0  0  0  0  0  0  0
   40.9340   23.2580   35.8900 C   0  0  0  0  0  0  0  0  0  0  0  0
   40.0530   23.4910   36.9780 C   0  0  0  0  0  0  0  0  0  0  0  0
   38.7490   22.9770   36.8290 C   0  0  0  0  0  0  0  0  0  0  0  0
   38.4050   22.3140   35.7080 N   0  0  0  0  0  0  0  0  0  0  0  0
   39.2790   22.1120   34.6850 C   0  0  0  0  0  0  0  0  0  0  0  0
   40.5390   22.5900   34.7920 N   0  0  0  0  0  0  0  0  0  0  0  0
   37.6000   23.2430   38.1710 S   0  0  0  0  0  0  0  0  0  0  0  0
   46.0510   26.2500   35.2060 N   0  0  0  0  0  0  0  0  0  0  0  0
   43.2805   22.2372   37.1690 H   0  0  0  0  0  0  0  0  0  0  0  0
   42.1276   27.5242   33.3526 H   0  0  0  0  0  0  0  0  0  0  0  0
   40.3675   24.0374   37.8794 H   0  0  0  0  0  0  0  0  0  0  0  0
   38.9645   21.5669   33.7828 H   0  0  0  0  0  0  0  0  0  0  0  0
   38.2515   23.0922   39.3667 H   0  0  0  0  0  0  0  0  0  0  0  0
   46.5263   27.0620   34.7870 H   0  0  0  0  0  0  0  0  0  0  0  0
   46.5824   25.5847   35.7855 H   0  0  0  0  0  0  0  0  0  0  0  0
  1  2  1  0
  3  2  2  0
  4  3  1  0
  5 17  1  0
  5  4  2  0
  6  5  1  0
  7  6  2  0
  7  8  1  0
  8  9  2  0
  9  4  1  0
  9  1  1  0
 10  1  1  0
 10 11  2  0
 12 11  1  0
 12 16  1  0
 13 12  2  0
 14 15  2  0
 14 13  1  0
 15 10  1  0
  2 18  1  0
  7 19  1  0
 11 20  1  0
 14 21  1  0
 16 22  1  0
 17 23  1  0
 17 24  1  0
M  ISO  5  18  14  19  14  20  14  21  14  22  11
M  END
>  <minimizedAffinity>  (1) 
-3.51012039

>  <minimizedRMSD>  (1) 
1.47442842

$$$$
