
     RDKit          3D

 25 27  0  0  0  0  0  0  0  0999 V2000
   41.7830   23.5460   35.9540 N   0  0  0  0  0  0  0  0  0  0  0  0
   42.8190   22.9000   36.5110 C   0  0  0  0  0  0  0  0  0  0  0  0
   43.9380   23.6140   36.2170 N   0  0  0  0  0  0  0  0  0  0  0  0
   43.5780   24.6670   35.4980 C   0  0  0  0  0  0  0  0  0  0  0  0
   44.2420   25.7320   34.9160 C   0  0  0  0  0  0  0  0  0  0  0  0
   43.5940   26.7010   34.2090 N   0  0  0  0  0  0  0  0  0  0  0  0
   42.2400   26.6330   34.0590 C   0  0  0  0  0  0  0  0  0  0  0  0
   41.5480   25.6140   34.6070 N   0  0  0  0  0  0  0  0  0  0  0  0
   42.2140   24.6630   35.3060 C   0  0  0  0  0  0  0  0  0  0  0  0
   40.4110   23.1540   36.0060 C   0  0  0  0  0  0  0  0  0  0  0  0
   39.6710   23.2270   37.1990 C   0  0  0  0  0  0  0  0  0  0  0  0
   38.3230   22.8170   37.1470 C   0  0  0  0  0  0  0  0  0  0  0  0
   37.8250   22.3840   35.9710 N   0  0  0  0  0  0  0  0  0  0  0  0
   38.5540   22.3220   34.8380 C   0  0  0  0  0  0  0  0  0  0  0  0
   39.8490   22.7100   34.8640 N   0  0  0  0  0  0  0  0  0  0  0  0
   37.5350   22.8740   38.3340 N   0  0  0  0  0  0  0  0  0  0  0  0
   45.6460   25.8450   35.0390 N   0  0  0  0  0  0  0  0  0  0  0  0
   42.7718   21.9690   37.0949 H   0  0  0  0  0  0  0  0  0  0  0  0
   41.7113   27.4116   33.4895 H   0  0  0  0  0  0  0  0  0  0  0  0
   40.1245   23.5887   38.1336 H   0  0  0  0  0  0  0  0  0  0  0  0
   38.1003   21.9600   33.9036 H   0  0  0  0  0  0  0  0  0  0  0  0
   36.5487   22.5780   38.3121 H   0  0  0  0  0  0  0  0  0  0  0  0
   37.9521   23.2112   39.2133 H   0  0  0  0  0  0  0  0  0  0  0  0
   46.1388   26.6386   34.6051 H   0  0  0  0  0  0  0  0  0  0  0  0
   46.1760   25.1337   35.5626 H   0  0  0  0  0  0  0  0  0  0  0  0
  1 10  1  0
  1  2  1  0
  3  2  2  0
  4  3  1  0
  5 17  1  0
  5  4  2  0
  6  5  1  0
  7  6  2  0
  7  8  1  0
  8  9  2  0
  9  4  1  0
  9  1  1  0
 10 11  2  0
 12 11  1  0
 12 16  1  0
 13 12  2  0
 14 15  2  0
 14 13  1  0
 15 10  1  0
  2 18  1  0
  7 19  1  0
 11 20  1  0
 14 21  1  0
 16 22  1  0
 16 23  1  0
 17 24  1  0
 17 25  1  0
M  ISO  4  18  14  19  14  20  14  21  14
M  END
>  <minimizedAffinity>  (1) 
-3.95757103

>  <minimizedRMSD>  (1) 
0.963336468

$$$$
