
     RDKit          3D

 38 41  0  0  0  0  0  0  0  0999 V2000
   41.1900   23.0730   36.3750 C   0  0  0  0  0  0  0  0  0  0  0  0
   40.5330   22.6010   37.5340 C   0  0  0  0  0  0  0  0  0  0  0  0
   39.2300   23.0980   37.7700 C   0  0  0  0  0  0  0  0  0  0  0  0
   38.6900   23.9810   36.8910 N   0  0  0  0  0  0  0  0  0  0  0  0
   39.3470   24.4030   35.8020 C   0  0  0  0  0  0  0  0  0  0  0  0
   40.5850   23.9500   35.5500 N   0  0  0  0  0  0  0  0  0  0  0  0
   38.5340   22.6450   38.9310 N   0  0  0  0  0  0  0  0  0  0  0  0
   42.5010   22.6400   36.0390 N   0  0  0  0  0  0  0  0  0  0  0  0
   42.8240   21.5320   35.3500 C   0  0  0  0  0  0  0  0  0  0  0  0
   44.1870   21.5100   35.2600 N   0  0  0  0  0  0  0  0  0  0  0  0
   44.6640   22.5810   35.8810 C   0  0  0  0  0  0  0  0  0  0  0  0
   45.9230   23.1010   36.1240 C   0  0  0  0  0  0  0  0  0  0  0  0
   46.1180   24.2580   36.8130 N   0  0  0  0  0  0  0  0  0  0  0  0
   45.0440   24.9430   37.2880 C   0  0  0  0  0  0  0  0  0  0  0  0
   43.7960   24.4760   37.0760 N   0  0  0  0  0  0  0  0  0  0  0  0
   43.6240   23.3180   36.3850 C   0  0  0  0  0  0  0  0  0  0  0  0
   47.0660   22.4140   35.6440 N   0  0  0  0  0  0  0  0  0  0  0  0
   37.6060   27.1310   33.0830 C   0  0  0  0  0  0  0  0  0  0  0  0
   38.7010   26.3860   32.7080 C   0  0  0  0  0  0  0  0  0  0  0  0
   39.2250   25.5230   33.6140 C   0  0  0  0  0  0  0  0  0  0  0  0
   38.7230   25.3530   34.8880 C   0  0  0  0  0  0  0  0  0  0  0  0
   37.6260   26.0890   35.2900 C   0  0  0  0  0  0  0  0  0  0  0  0
   37.0900   26.9760   34.3500 C   0  0  0  0  0  0  0  0  0  0  0  0
   36.9270   28.2440   31.9210 S   0  0  0  0  0  0  0  0  0  0  0  0
   36.1390   29.3380   32.5690 O   0  0  0  0  0  0  0  0  0  0  0  0
   36.1150   27.4470   30.9420 O   0  0  0  0  0  0  0  0  0  0  0  0
   41.0107   21.8837   38.2176 H   0  0  0  0  0  0  0  0  0  0  0  0
   37.5837   22.9895   39.1289 H   0  0  0  0  0  0  0  0  0  0  0  0
   38.9821   21.9736   39.5708 H   0  0  0  0  0  0  0  0  0  0  0  0
   42.1264   20.7876   34.9386 H   0  0  0  0  0  0  0  0  0  0  0  0
   45.1927   25.8793   37.8459 H   0  0  0  0  0  0  0  0  0  0  0  0
   48.0070   22.7939   35.8203 H   0  0  0  0  0  0  0  0  0  0  0  0
   46.9556   21.5348   35.1188 H   0  0  0  0  0  0  0  0  0  0  0  0
   39.1381   26.4874   31.7037 H   0  0  0  0  0  0  0  0  0  0  0  0
   40.0991   24.9252   33.3164 H   0  0  0  0  0  0  0  0  0  0  0  0
   37.1959   25.9835   36.2969 H   0  0  0  0  0  0  0  0  0  0  0  0
   36.2151   27.5779   34.6368 H   0  0  0  0  0  0  0  0  0  0  0  0
   37.9353   28.8929   31.2582 H   0  0  0  0  0  0  0  0  0  0  0  0
  1  2  2  0
  2  3  1  0
  3  7  1  0
  4  3  2  0
  5  4  1  0
  6  5  2  0
  6  1  1  0
  8  1  1  0
  8 16  1  0
  9  8  1  0
 10  9  2  0
 10 11  1  0
 11 12  2  0
 11 16  1  0
 12 13  1  0
 13 14  2  0
 15 14  1  0
 16 15  2  0
 17 12  1  0
 18 23  2  0
 19 18  1  0
 19 20  2  0
 20 21  1  0
 21 22  2  0
 21  5  1  0
 23 22  1  0
 24 25  2  0
 24 18  1  0
 26 24  2  0
  2 27  1  0
  7 28  1  0
  7 29  1  0
  9 30  1  0
 14 31  1  0
 17 32  1  0
 17 33  1  0
 19 34  1  0
 20 35  1  0
 22 36  1  0
 23 37  1  0
 24 38  1  0
M  ISO  8  27  14  30  14  31  14  34  14  35  14  36  14  37  14  38  11
M  END
>  <minimizedAffinity>  (1) 
-5.9852581

>  <minimizedRMSD>  (1) 
4.34200859

$$$$
