
     RDKit          3D

 34 37  0  0  0  0  0  0  0  0999 V2000
   39.5010   23.4940   35.7130 C   0  0  0  0  0  0  0  0  0  0  0  0
   38.9760   23.4000   37.0200 C   0  0  0  0  0  0  0  0  0  0  0  0
   37.7800   22.6830   37.1770 C   0  0  0  0  0  0  0  0  0  0  0  0
   37.2060   22.1340   36.0910 N   0  0  0  0  0  0  0  0  0  0  0  0
   37.7170   22.2330   34.8570 C   0  0  0  0  0  0  0  0  0  0  0  0
   38.8720   22.9190   34.6740 N   0  0  0  0  0  0  0  0  0  0  0  0
   37.2130   22.5620   38.4830 N   0  0  0  0  0  0  0  0  0  0  0  0
   40.7070   24.1970   35.4450 N   0  0  0  0  0  0  0  0  0  0  0  0
   41.9470   23.8380   35.8270 C   0  0  0  0  0  0  0  0  0  0  0  0
   42.8000   24.7880   35.3620 N   0  0  0  0  0  0  0  0  0  0  0  0
   42.0970   25.6950   34.7170 C   0  0  0  0  0  0  0  0  0  0  0  0
   42.3760   26.8690   34.0380 C   0  0  0  0  0  0  0  0  0  0  0  0
   41.4130   27.6300   33.4470 N   0  0  0  0  0  0  0  0  0  0  0  0
   40.1130   27.2330   33.5170 C   0  0  0  0  0  0  0  0  0  0  0  0
   39.7830   26.0990   34.1650 N   0  0  0  0  0  0  0  0  0  0  0  0
   40.7540   25.3650   34.7400 C   0  0  0  0  0  0  0  0  0  0  0  0
   43.7120   27.3130   33.9440 N   0  0  0  0  0  0  0  0  0  0  0  0
   37.0370   21.6100   33.7240 C   0  0  0  0  0  0  0  0  0  0  0  0
   35.9290   20.8150   33.9370 C   0  0  0  0  0  0  0  0  0  0  0  0
   35.3610   20.2730   32.7950 C   0  0  0  0  0  0  0  0  0  0  0  0
   35.8690   20.5110   31.5220 C   0  0  0  0  0  0  0  0  0  0  0  0
   36.9870   21.3210   31.3800 C   0  0  0  0  0  0  0  0  0  0  0  0
   37.5400   21.8490   32.4910 N   0  0  0  0  0  0  0  0  0  0  0  0
   39.4820   23.8680   37.8773 H   0  0  0  0  0  0  0  0  0  0  0  0
   36.3356   22.0394   38.6171 H   0  0  0  0  0  0  0  0  0  0  0  0
   37.6817   22.9974   39.2903 H   0  0  0  0  0  0  0  0  0  0  0  0
   42.2187   22.9435   36.4067 H   0  0  0  0  0  0  0  0  0  0  0  0
   39.3285   27.8407   33.0424 H   0  0  0  0  0  0  0  0  0  0  0  0
   43.9308   28.1849   33.4412 H   0  0  0  0  0  0  0  0  0  0  0  0
   44.4685   26.7652   34.3782 H   0  0  0  0  0  0  0  0  0  0  0  0
   35.5252   20.6250   34.9424 H   0  0  0  0  0  0  0  0  0  0  0  0
   34.4746   19.6300   32.8991 H   0  0  0  0  0  0  0  0  0  0  0  0
   35.3905   20.0627   30.6388 H   0  0  0  0  0  0  0  0  0  0  0  0
   37.4114   21.5272   30.3863 H   0  0  0  0  0  0  0  0  0  0  0  0
  1  2  2  0
  2  3  1  0
  3  7  1  0
  4  3  2  0
  5  4  1  0
  6  5  2  0
  6  1  1  0
  8  1  1  0
  8  9  1  0
 10  9  2  0
 11 16  2  0
 11 10  1  0
 12 11  1  0
 13 14  1  0
 13 12  2  0
 14 15  2  0
 15 16  1  0
 16  8  1  0
 17 12  1  0
 18 19  2  0
 18  5  1  0
 20 19  1  0
 21 20  2  0
 22 21  1  0
 22 23  2  0
 23 18  1  0
  2 24  1  0
  7 25  1  0
  7 26  1  0
  9 27  1  0
 14 28  1  0
 17 29  1  0
 17 30  1  0
 19 31  1  0
 20 32  1  0
 21 33  1  0
 22 34  1  0
M  ISO  7  24  14  27  14  28  14  31  14  32  14  33  14  34  14
M  END
>  <minimizedAffinity>  (1) 
-5.66398573

>  <minimizedRMSD>  (1) 
1.51955533

$$$$
