
     RDKit          3D

 38 41  0  0  0  0  0  0  0  0999 V2000
   39.4500   23.4310   35.6460 C   0  0  0  0  0  0  0  0  0  0  0  0
   38.8840   23.3640   36.9390 C   0  0  0  0  0  0  0  0  0  0  0  0
   37.6950   22.6180   37.0690 C   0  0  0  0  0  0  0  0  0  0  0  0
   37.1720   22.0220   35.9820 N   0  0  0  0  0  0  0  0  0  0  0  0
   37.7350   22.1040   34.7600 C   0  0  0  0  0  0  0  0  0  0  0  0
   38.8680   22.8070   34.5980 N   0  0  0  0  0  0  0  0  0  0  0  0
   37.0890   22.5220   38.3510 N   0  0  0  0  0  0  0  0  0  0  0  0
   40.6490   24.1570   35.3970 N   0  0  0  0  0  0  0  0  0  0  0  0
   41.8900   23.8160   35.7860 C   0  0  0  0  0  0  0  0  0  0  0  0
   42.7260   24.7880   35.3350 N   0  0  0  0  0  0  0  0  0  0  0  0
   42.0110   25.6870   34.6950 C   0  0  0  0  0  0  0  0  0  0  0  0
   42.2820   26.8720   34.0340 C   0  0  0  0  0  0  0  0  0  0  0  0
   41.3000   27.6240   33.4390 N   0  0  0  0  0  0  0  0  0  0  0  0
   40.0050   27.2110   33.4900 C   0  0  0  0  0  0  0  0  0  0  0  0
   39.6890   26.0640   34.1210 N   0  0  0  0  0  0  0  0  0  0  0  0
   40.6760   25.3360   34.7020 C   0  0  0  0  0  0  0  0  0  0  0  0
   43.6060   27.3510   33.9490 N   0  0  0  0  0  0  0  0  0  0  0  0
   37.1690   21.4520   33.5480 C   0  0  0  0  0  0  0  0  0  0  0  0
   36.7360   22.4310   32.4990 C   0  0  0  0  0  0  0  0  0  0  0  0
   35.5720   21.7970   31.7850 C   0  0  0  0  0  0  0  0  0  0  0  0
   35.1170   20.6140   32.6180 C   0  0  0  0  0  0  0  0  0  0  0  0
   35.8430   20.7940   33.9310 C   0  0  0  0  0  0  0  0  0  0  0  0
   39.3474   23.8681   37.7999 H   0  0  0  0  0  0  0  0  0  0  0  0
   36.2198   21.9824   38.4707 H   0  0  0  0  0  0  0  0  0  0  0  0
   37.5190   22.9920   39.1604 H   0  0  0  0  0  0  0  0  0  0  0  0
   42.1743   22.9215   36.3596 H   0  0  0  0  0  0  0  0  0  0  0  0
   39.2162   27.8136   33.0160 H   0  0  0  0  0  0  0  0  0  0  0  0
   43.8037   28.2335   33.4561 H   0  0  0  0  0  0  0  0  0  0  0  0
   44.3751   26.8182   34.3798 H   0  0  0  0  0  0  0  0  0  0  0  0
   37.9572   20.7804   33.1771 H   0  0  0  0  0  0  0  0  0  0  0  0
   36.4267   23.3778   32.9659 H   0  0  0  0  0  0  0  0  0  0  0  0
   37.5561   22.6599   31.8025 H   0  0  0  0  0  0  0  0  0  0  0  0
   34.7520   22.5233   31.6845 H   0  0  0  0  0  0  0  0  0  0  0  0
   35.8666   21.4709   30.7766 H   0  0  0  0  0  0  0  0  0  0  0  0
   34.0274   20.6361   32.7670 H   0  0  0  0  0  0  0  0  0  0  0  0
   35.3378   19.6483   32.1399 H   0  0  0  0  0  0  0  0  0  0  0  0
   36.0170   19.8219   34.4156 H   0  0  0  0  0  0  0  0  0  0  0  0
   35.2677   21.3984   34.6477 H   0  0  0  0  0  0  0  0  0  0  0  0
  1  2  2  0
  2  3  1  0
  3  7  1  0
  4  3  2  0
  5  4  1  0
  6  5  2  0
  6  1  1  0
  8  1  1  0
  8  9  1  0
 10  9  2  0
 11 16  2  0
 11 10  1  0
 12 11  1  0
 13 14  1  0
 13 12  2  0
 14 15  2  0
 15 16  1  0
 16  8  1  0
 17 12  1  0
 18 22  1  0
 18  5  1  0
 19 18  1  0
 20 19  1  0
 20 21  1  0
 21 22  1  0
  2 23  1  0
  7 24  1  0
  7 25  1  0
  9 26  1  0
 14 27  1  0
 17 28  1  0
 17 29  1  0
 18 30  1  0
 19 31  1  0
 19 32  1  0
 20 33  1  0
 20 34  1  0
 21 35  1  0
 21 36  1  0
 22 37  1  0
 22 38  1  0
M  ISO  8  23  14  26  14  27  14  30  13  31  13  32  13  33  13  34  13
M  ISO  4  35  13  36  13  37  13  38  13
M  END
>  <minimizedAffinity>  (1) 
-5.66305113

>  <minimizedRMSD>  (1) 
1.60312176

$$$$
