
     RDKit          3D

 32 35  0  0  0  0  0  0  0  0999 V2000
   39.6700   23.4470   35.7610 C   0  0  0  0  0  0  0  0  0  0  0  0
   39.1640   23.4600   37.0710 C   0  0  0  0  0  0  0  0  0  0  0  0
   37.9300   22.8150   37.2970 C   0  0  0  0  0  0  0  0  0  0  0  0
   37.3080   22.2270   36.2500 N   0  0  0  0  0  0  0  0  0  0  0  0
   37.8180   22.2330   35.0100 C   0  0  0  0  0  0  0  0  0  0  0  0
   38.9970   22.8390   34.7520 N   0  0  0  0  0  0  0  0  0  0  0  0
   37.3830   22.8060   38.6120 N   0  0  0  0  0  0  0  0  0  0  0  0
   40.9070   24.0700   35.4270 N   0  0  0  0  0  0  0  0  0  0  0  0
   42.1400   23.6030   35.7210 C   0  0  0  0  0  0  0  0  0  0  0  0
   43.0290   24.5040   35.2180 N   0  0  0  0  0  0  0  0  0  0  0  0
   42.3450   25.4830   34.6390 C   0  0  0  0  0  0  0  0  0  0  0  0
   42.6820   26.6430   33.9760 C   0  0  0  0  0  0  0  0  0  0  0  0
   41.7430   27.4940   33.4650 N   0  0  0  0  0  0  0  0  0  0  0  0
   40.4160   27.1950   33.6110 C   0  0  0  0  0  0  0  0  0  0  0  0
   40.0450   26.0670   34.2560 N   0  0  0  0  0  0  0  0  0  0  0  0
   41.0020   25.2440   34.7490 C   0  0  0  0  0  0  0  0  0  0  0  0
   44.0300   27.0070   33.7930 N   0  0  0  0  0  0  0  0  0  0  0  0
   37.0860   21.5770   33.9400 C   0  0  0  0  0  0  0  0  0  0  0  0
   35.8580   20.7790   34.1540 C   0  0  0  0  0  0  0  0  0  0  0  0
   35.3390   20.2550   32.9960 C   0  0  0  0  0  0  0  0  0  0  0  0
   35.9400   20.4820   31.8110 C   0  0  0  0  0  0  0  0  0  0  0  0
   37.3600   21.4990   32.1910 S   0  0  0  0  0  0  0  0  0  0  0  0
   39.7088   23.9540   37.8891 H   0  0  0  0  0  0  0  0  0  0  0  0
   36.4828   22.3390   38.7921 H   0  0  0  0  0  0  0  0  0  0  0  0
   37.8876   23.2665   39.3828 H   0  0  0  0  0  0  0  0  0  0  0  0
   42.3795   22.6754   36.2615 H   0  0  0  0  0  0  0  0  0  0  0  0
   39.6513   27.8726   33.2035 H   0  0  0  0  0  0  0  0  0  0  0  0
   44.2654   27.8774   33.2952 H   0  0  0  0  0  0  0  0  0  0  0  0
   44.7806   26.4028   34.1570 H   0  0  0  0  0  0  0  0  0  0  0  0
   35.4054   20.6212   35.1441 H   0  0  0  0  0  0  0  0  0  0  0  0
   34.4248   19.6446   33.0356 H   0  0  0  0  0  0  0  0  0  0  0  0
   35.6242   20.1191   30.8218 H   0  0  0  0  0  0  0  0  0  0  0  0
  1  2  2  0
  2  3  1  0
  3  7  1  0
  4  3  2  0
  5  4  1  0
  6  5  2  0
  6  1  1  0
  8  9  1  0
  8  1  1  0
 10  9  2  0
 11 16  2  0
 11 10  1  0
 12 11  1  0
 13 14  1  0
 13 12  2  0
 14 15  2  0
 15 16  1  0
 16  8  1  0
 17 12  1  0
 18 19  2  0
 18  5  1  0
 20 19  1  0
 21 22  1  0
 21 20  2  0
 22 18  1  0
  2 23  1  0
  7 24  1  0
  7 25  1  0
  9 26  1  0
 14 27  1  0
 17 28  1  0
 17 29  1  0
 19 30  1  0
 20 31  1  0
 21 32  1  0
M  ISO  6  23  14  26  14  27  14  30  14  31  14  32  14
M  END
>  <minimizedAffinity>  (1) 
-5.26582289

>  <minimizedRMSD>  (1) 
1.48060727

$$$$
