
     RDKit          3D

 37 39  0  0  0  0  0  0  0  0999 V2000
   41.5960   23.7250   35.7680 N   0  0  0  0  0  0  0  0  0  0  0  0
   42.6770   23.1050   36.2380 C   0  0  0  0  0  0  0  0  0  0  0  0
   43.7510   23.8700   35.8980 N   0  0  0  0  0  0  0  0  0  0  0  0
   43.3080   24.9340   35.2310 C   0  0  0  0  0  0  0  0  0  0  0  0
   43.9040   26.0320   34.6480 C   0  0  0  0  0  0  0  0  0  0  0  0
   43.1770   27.0040   34.0070 N   0  0  0  0  0  0  0  0  0  0  0  0
   41.8260   26.8880   33.9410 C   0  0  0  0  0  0  0  0  0  0  0  0
   41.2100   25.8240   34.5020 N   0  0  0  0  0  0  0  0  0  0  0  0
   41.9410   24.8810   35.1270 C   0  0  0  0  0  0  0  0  0  0  0  0
   40.2420   23.2900   35.8870 C   0  0  0  0  0  0  0  0  0  0  0  0
   39.5620   23.2950   37.1130 C   0  0  0  0  0  0  0  0  0  0  0  0
   38.2280   22.8460   37.1220 C   0  0  0  0  0  0  0  0  0  0  0  0
   37.6770   22.4350   35.9570 N   0  0  0  0  0  0  0  0  0  0  0  0
   38.3500   22.4350   34.7760 C   0  0  0  0  0  0  0  0  0  0  0  0
   39.6240   22.8630   34.7570 N   0  0  0  0  0  0  0  0  0  0  0  0
   37.5090   22.8440   38.3420 N   0  0  0  0  0  0  0  0  0  0  0  0
   37.6500   21.9640   33.5500 C   0  0  0  0  0  0  0  0  0  0  0  0
   38.5760   21.0630   32.7700 C   0  0  0  0  0  0  0  0  0  0  0  0
   37.3260   23.1470   32.6750 C   0  0  0  0  0  0  0  0  0  0  0  0
   36.4120   21.1620   33.8900 C   0  0  0  0  0  0  0  0  0  0  0  0
   45.3140   26.1810   34.7020 N   0  0  0  0  0  0  0  0  0  0  0  0
   42.6982   22.1564   36.7944 H   0  0  0  0  0  0  0  0  0  0  0  0
   41.2323   27.6606   33.4305 H   0  0  0  0  0  0  0  0  0  0  0  0
   40.0536   23.6377   38.0354 H   0  0  0  0  0  0  0  0  0  0  0  0
   36.5321   22.5182   38.3635 H   0  0  0  0  0  0  0  0  0  0  0  0
   37.9629   23.1684   39.2078 H   0  0  0  0  0  0  0  0  0  0  0  0
   39.1851   20.4703   33.4683 H   0  0  0  0  0  0  0  0  0  0  0  0
   37.9826   20.3873   32.1366 H   0  0  0  0  0  0  0  0  0  0  0  0
   39.2352   21.6747   32.1366 H   0  0  0  0  0  0  0  0  0  0  0  0
   37.0881   24.0158   33.3063 H   0  0  0  0  0  0  0  0  0  0  0  0
   38.1929   23.3817   32.0399 H   0  0  0  0  0  0  0  0  0  0  0  0
   36.4605   22.9072   32.0399 H   0  0  0  0  0  0  0  0  0  0  0  0
   36.3076   21.0944   34.9829 H   0  0  0  0  0  0  0  0  0  0  0  0
   35.5261   21.6582   33.4671 H   0  0  0  0  0  0  0  0  0  0  0  0
   36.5027   20.1506   33.4671 H   0  0  0  0  0  0  0  0  0  0  0  0
   45.7623   27.0002   34.2674 H   0  0  0  0  0  0  0  0  0  0  0  0
   45.8892   25.4700   35.1758 H   0  0  0  0  0  0  0  0  0  0  0  0
  1 10  1  0
  1  2  1  0
  3  2  2  0
  4  3  1  0
  5 21  1  0
  5  4  2  0
  6  5  1  0
  7  6  2  0
  7  8  1  0
  8  9  2  0
  9  4  1  0
  9  1  1  0
 10 11  2  0
 11 12  1  0
 12 16  1  0
 13 12  2  0
 14 13  1  0
 15 14  2  0
 15 10  1  0
 17 20  1  0
 17 14  1  0
 18 17  1  0
 19 17  1  0
  2 22  1  0
  7 23  1  0
 11 24  1  0
 16 25  1  0
 16 26  1  0
 18 27  1  0
 18 28  1  0
 18 29  1  0
 19 30  1  0
 19 31  1  0
 19 32  1  0
 20 33  1  0
 20 34  1  0
 20 35  1  0
 21 36  1  0
 21 37  1  0
M  ISO  8  22  14  23  14  24  14  27   8  28   8  29   8  30   8  31   8
M  ISO  4  32   8  33   8  34   8  35   8
M  END
>  <minimizedAffinity>  (1) 
-4.64469481

>  <minimizedRMSD>  (1) 
0.519948483

$$$$
