
     RDKit          3D

 33 35  0  0  0  0  0  0  0  0999 V2000
   36.8860   26.0110   31.0450 C   0  0  0  0  0  0  0  0  0  0  0  0
   37.8950   25.0870   31.0070 C   0  0  0  0  0  0  0  0  0  0  0  0
   37.5730   23.7310   31.1150 C   0  0  0  0  0  0  0  0  0  0  0  0
   36.2590   23.2900   31.2590 C   0  0  0  0  0  0  0  0  0  0  0  0
   35.2280   24.2230   31.2980 C   0  0  0  0  0  0  0  0  0  0  0  0
   35.5870   25.5470   31.1890 C   0  0  0  0  0  0  0  0  0  0  0  0
   36.7510   20.8780   30.7030 C   0  0  0  0  0  0  0  0  0  0  0  0
   36.0250   21.8630   31.3650 C   0  0  0  0  0  0  0  0  0  0  0  0
   34.9920   21.4290   32.1950 C   0  0  0  0  0  0  0  0  0  0  0  0
   34.7390   20.1020   32.3240 N   0  0  0  0  0  0  0  0  0  0  0  0
   35.4790   19.1730   31.6530 C   0  0  0  0  0  0  0  0  0  0  0  0
   36.4850   19.5760   30.8440 N   0  0  0  0  0  0  0  0  0  0  0  0
   37.3130   27.6970   30.9170 S   0  0  0  0  0  0  0  0  0  0  0  0
   38.8220   27.8380   30.9380 O   0  0  0  0  0  0  0  0  0  0  0  0
   36.7570   28.2510   29.6450 O   0  0  0  0  0  0  0  0  0  0  0  0
   36.6240   28.6460   32.2380 C   0  0  0  0  0  0  0  0  0  0  0  0
   36.5780   28.1130   33.5250 C   0  0  0  0  0  0  0  0  0  0  0  0
   36.0350   28.8810   34.5360 C   0  0  0  0  0  0  0  0  0  0  0  0
   35.5400   30.1530   34.3030 C   0  0  0  0  0  0  0  0  0  0  0  0
   35.5790   30.7010   33.0200 C   0  0  0  0  0  0  0  0  0  0  0  0
   36.1220   29.9170   32.0430 C   0  0  0  0  0  0  0  0  0  0  0  0
   38.9416   25.4060   30.8934 H   0  0  0  0  0  0  0  0  0  0  0  0
   38.3834   22.9878   31.0853 H   0  0  0  0  0  0  0  0  0  0  0  0
   34.1773   23.9175   31.4105 H   0  0  0  0  0  0  0  0  0  0  0  0
   34.7813   26.2953   31.2184 H   0  0  0  0  0  0  0  0  0  0  0  0
   37.5739   21.1820   30.0394 H   0  0  0  0  0  0  0  0  0  0  0  0
   34.3828   22.1616   32.7447 H   0  0  0  0  0  0  0  0  0  0  0  0
   35.2586   18.1016   31.7694 H   0  0  0  0  0  0  0  0  0  0  0  0
   36.9652   27.1041   33.7306 H   0  0  0  0  0  0  0  0  0  0  0  0
   35.9945   28.4705   35.5557 H   0  0  0  0  0  0  0  0  0  0  0  0
   35.1137   30.7347   35.1336 H   0  0  0  0  0  0  0  0  0  0  0  0
   35.1935   31.7091   32.8076 H   0  0  0  0  0  0  0  0  0  0  0  0
   36.1625   30.3291   31.0239 H   0  0  0  0  0  0  0  0  0  0  0  0
  1  6  1  0
  2  1  2  0
  2  3  1  0
  3  4  2  0
  4  5  1  0
  4  8  1  0
  6  5  2  0
  7 12  2  0
  7  8  1  0
  8  9  2  0
  9 10  1  0
 11 10  2  0
 12 11  1  0
 13 14  2  0
 13  1  1  0
 13 16  1  0
 15 13  2  0
 16 17  2  0
 17 18  1  0
 19 18  2  0
 20 19  1  0
 21 16  1  0
 21 20  2  0
  2 22  1  0
  3 23  1  0
  5 24  1  0
  6 25  1  0
  7 26  1  0
  9 27  1  0
 11 28  1  0
 17 29  1  0
 18 30  1  0
 19 31  1  0
 20 32  1  0
 21 33  1  0
M  ISO  8  22  14  23  14  24  14  25  14  26  14  27  14  28  14  29  14
M  ISO  4  30  14  31  14  32  14  33  14
M  END
>  <minimizedAffinity>  (1) 
-5.39963913

>  <minimizedRMSD>  (1) 
1.30739248

$$$$
