
     RDKit          3D

 31 33  0  0  0  0  0  0  0  0999 V2000
   38.4310   23.1270   37.8160 C   0  0  0  0  0  0  0  0  0  0  0  0
   37.7930   23.3170   36.5870 C   0  0  0  0  0  0  0  0  0  0  0  0
   38.6010   23.3400   35.4540 C   0  0  0  0  0  0  0  0  0  0  0  0
   39.9520   23.1780   35.6160 N   0  0  0  0  0  0  0  0  0  0  0  0
   40.5260   22.9980   36.8070 C   0  0  0  0  0  0  0  0  0  0  0  0
   39.7550   22.9750   37.9130 N   0  0  0  0  0  0  0  0  0  0  0  0
   41.9300   22.8370   36.9040 N   0  0  0  0  0  0  0  0  0  0  0  0
   42.6010   21.9340   36.0230 C   0  0  0  0  0  0  0  0  0  0  0  0
   41.9110   21.1840   35.2220 N   0  0  0  0  0  0  0  0  0  0  0  0
   44.0510   21.8890   36.0610 N   0  0  0  0  0  0  0  0  0  0  0  0
   42.4310   20.5420   34.5870 H   0  0  0  0  0  0  0  0  0  0  0  0
   38.0160   23.5310   34.1440 C   0  0  0  0  0  0  0  0  0  0  0  0
   38.1130   24.6590   33.3590 C   0  0  0  0  0  0  0  0  0  0  0  0
   37.4250   24.4290   32.2130 N   0  0  0  0  0  0  0  0  0  0  0  0
   36.8780   23.1800   32.2220 C   0  0  0  0  0  0  0  0  0  0  0  0
   36.1060   22.4960   31.3040 C   0  0  0  0  0  0  0  0  0  0  0  0
   35.6960   21.2300   31.5940 C   0  0  0  0  0  0  0  0  0  0  0  0
   36.0570   20.6570   32.7980 C   0  0  0  0  0  0  0  0  0  0  0  0
   36.8310   21.3590   33.7030 C   0  0  0  0  0  0  0  0  0  0  0  0
   37.2610   22.6360   33.4400 C   0  0  0  0  0  0  0  0  0  0  0  0
   37.8237   23.1018   38.7328 H   0  0  0  0  0  0  0  0  0  0  0  0
   36.7023   23.4426   36.5184 H   0  0  0  0  0  0  0  0  0  0  0  0
   42.4646   23.3682   37.6061 H   0  0  0  0  0  0  0  0  0  0  0  0
   44.5629   21.2482   35.4379 H   0  0  0  0  0  0  0  0  0  0  0  0
   44.5683   22.4979   36.7111 H   0  0  0  0  0  0  0  0  0  0  0  0
   38.6527   25.5824   33.6161 H   0  0  0  0  0  0  0  0  0  0  0  0
   37.3289   25.1050   31.4418 H   0  0  0  0  0  0  0  0  0  0  0  0
   35.8257   22.9676   30.3506 H   0  0  0  0  0  0  0  0  0  0  0  0
   35.0820   20.6680   30.8749 H   0  0  0  0  0  0  0  0  0  0  0  0
   35.7265   19.6357   33.0381 H   0  0  0  0  0  0  0  0  0  0  0  0
   37.1086   20.8837   34.6554 H   0  0  0  0  0  0  0  0  0  0  0  0
  1  6  2  0
  2  1  1  0
  3  4  1  0
  3  2  2  0
  4  5  2  0
  5  7  1  0
  5  6  1  0
  8 10  1  0
  8  7  1  0
  9  8  2  0
 11  9  1  0
 12  3  1  0
 13 12  2  0
 14 15  1  0
 14 13  1  0
 15 20  2  0
 16 17  2  0
 16 15  1  0
 17 18  1  0
 18 19  2  0
 20 19  1  0
 20 12  1  0
  1 21  1  0
  2 22  1  0
  7 23  1  0
 10 24  1  0
 10 25  1  0
 13 26  1  0
 14 27  1  0
 16 28  1  0
 17 29  1  0
 18 30  1  0
 19 31  1  0
M  ISO  8  21  14  22  14  26  14  27   9  28  14  29  14  30  14  31  14
M  END
>  <minimizedAffinity>  (1) 
-4.58966684

>  <minimizedRMSD>  (1) 
6.57932091

$$$$
