
     RDKit          3D

 39 41  0  0  0  0  0  0  0  0999 V2000
   36.5790   25.9030   31.4260 C   0  0  0  0  0  0  0  0  0  0  0  0
   37.5270   25.0980   32.0150 C   0  0  0  0  0  0  0  0  0  0  0  0
   37.2720   23.7330   32.1660 C   0  0  0  0  0  0  0  0  0  0  0  0
   36.0920   23.1580   31.7430 C   0  0  0  0  0  0  0  0  0  0  0  0
   35.1160   23.9650   31.1430 C   0  0  0  0  0  0  0  0  0  0  0  0
   35.4190   25.3050   31.0170 C   0  0  0  0  0  0  0  0  0  0  0  0
   35.9320   20.7760   30.9240 C   0  0  0  0  0  0  0  0  0  0  0  0
   35.9030   21.7330   31.9370 C   0  0  0  0  0  0  0  0  0  0  0  0
   35.6700   21.2730   33.2540 C   0  0  0  0  0  0  0  0  0  0  0  0
   35.4900   19.9370   33.4550 N   0  0  0  0  0  0  0  0  0  0  0  0
   35.5300   19.0470   32.4210 C   0  0  0  0  0  0  0  0  0  0  0  0
   35.7540   19.4770   31.1470 N   0  0  0  0  0  0  0  0  0  0  0  0
   36.9200   27.5990   31.2490 S   0  0  0  0  0  0  0  0  0  0  0  0
   38.3040   27.8900   31.7760 O   0  0  0  0  0  0  0  0  0  0  0  0
   36.7950   27.9950   29.8130 O   0  0  0  0  0  0  0  0  0  0  0  0
   35.8060   28.5730   32.2720 C   0  0  0  0  0  0  0  0  0  0  0  0
   35.8270   29.9820   31.7340 C   0  0  0  0  0  0  0  0  0  0  0  0
   35.1410   30.9610   32.6550 C   0  0  0  0  0  0  0  0  0  0  0  0
   35.5270   30.7920   34.0860 C   0  0  0  0  0  0  0  0  0  0  0  0
   35.3310   29.3790   34.5290 C   0  0  0  0  0  0  0  0  0  0  0  0
   36.2190   28.4860   33.7030 C   0  0  0  0  0  0  0  0  0  0  0  0
   38.4782   25.5261   32.3642 H   0  0  0  0  0  0  0  0  0  0  0  0
   38.0360   23.0970   32.6369 H   0  0  0  0  0  0  0  0  0  0  0  0
   34.1591   23.5520   30.7912 H   0  0  0  0  0  0  0  0  0  0  0  0
   34.6613   25.9488   30.5464 H   0  0  0  0  0  0  0  0  0  0  0  0
   36.1105   21.1109   29.8915 H   0  0  0  0  0  0  0  0  0  0  0  0
   35.6348   21.9780   34.0976 H   0  0  0  0  0  0  0  0  0  0  0  0
   35.3804   17.9750   32.6171 H   0  0  0  0  0  0  0  0  0  0  0  0
   34.7741   28.1938   32.2337 H   0  0  0  0  0  0  0  0  0  0  0  0
   36.8736   30.2943   31.6031 H   0  0  0  0  0  0  0  0  0  0  0  0
   35.2826   29.9836   30.7781 H   0  0  0  0  0  0  0  0  0  0  0  0
   35.4052   31.9813   32.3399 H   0  0  0  0  0  0  0  0  0  0  0  0
   34.0595   30.7733   32.5841 H   0  0  0  0  0  0  0  0  0  0  0  0
   36.5860   31.0637   34.2076 H   0  0  0  0  0  0  0  0  0  0  0  0
   34.8893   31.4441   34.7008 H   0  0  0  0  0  0  0  0  0  0  0  0
   35.5969   29.2842   35.5922 H   0  0  0  0  0  0  0  0  0  0  0  0
   34.2787   29.0873   34.3962 H   0  0  0  0  0  0  0  0  0  0  0  0
   36.1226   27.4471   34.0514 H   0  0  0  0  0  0  0  0  0  0  0  0
   37.2658   28.8077   33.8061 H   0  0  0  0  0  0  0  0  0  0  0  0
  1  2  2  0
  2  3  1  0
  4  8  1  0
  4  3  2  0
  5  4  1  0
  6  5  2  0
  6  1  1  0
  7 12  2  0
  7  8  1  0
  8  9  2  0
  9 10  1  0
 11 10  2  0
 12 11  1  0
 13  1  1  0
 13 14  2  0
 13 16  1  0
 15 13  2  0
 16 21  1  0
 17 16  1  0
 17 18  1  0
 18 19  1  0
 19 20  1  0
 21 20  1  0
  2 22  1  0
  3 23  1  0
  5 24  1  0
  6 25  1  0
  7 26  1  0
  9 27  1  0
 11 28  1  0
 16 29  1  0
 17 30  1  0
 17 31  1  0
 18 32  1  0
 18 33  1  0
 19 34  1  0
 19 35  1  0
 20 36  1  0
 20 37  1  0
 21 38  1  0
 21 39  1  0
M  ISO  8  22  14  23  14  24  14  25  14  26  14  27  14  28  14  29  13
M  ISO  8  30  13  31  13  32  13  33  13  34  13  35  13  36  13  37  13
M  ISO  2  38  13  39  13
M  END
>  <minimizedAffinity>  (1) 
-5.29966593

>  <minimizedRMSD>  (1) 
1.4332099

$$$$
