
     RDKit          3D

 35 36  0  0  0  0  0  0  0  0999 V2000
   36.6990   26.6600   32.6260 C   0  0  0  0  0  0  0  0  0  0  0  0
   37.1020   26.9400   33.9050 C   0  0  0  0  0  0  0  0  0  0  0  0
   36.6590   28.1060   34.5300 C   0  0  0  0  0  0  0  0  0  0  0  0
   35.8220   28.9890   33.8910 C   0  0  0  0  0  0  0  0  0  0  0  0
   35.3940   28.7230   32.5740 C   0  0  0  0  0  0  0  0  0  0  0  0
   35.8530   27.5690   32.0040 C   0  0  0  0  0  0  0  0  0  0  0  0
   36.1040   30.7900   35.6360 C   0  0  0  0  0  0  0  0  0  0  0  0
   35.3980   30.1890   34.5960 C   0  0  0  0  0  0  0  0  0  0  0  0
   34.1800   30.7950   34.2030 C   0  0  0  0  0  0  0  0  0  0  0  0
   33.7730   31.9200   34.8580 N   0  0  0  0  0  0  0  0  0  0  0  0
   34.4950   32.4590   35.8570 C   0  0  0  0  0  0  0  0  0  0  0  0
   35.6740   31.8930   36.2540 N   0  0  0  0  0  0  0  0  0  0  0  0
   37.2870   25.1990   31.8860 S   0  0  0  0  0  0  0  0  0  0  0  0
   37.4230   24.1140   32.9310 O   0  0  0  0  0  0  0  0  0  0  0  0
   36.3360   24.7810   30.8150 O   0  0  0  0  0  0  0  0  0  0  0  0
   38.8650   25.4670   31.0830 C   0  0  0  0  0  0  0  0  0  0  0  0
   40.0260   25.2870   32.0030 C   0  0  0  0  0  0  0  0  0  0  0  0
   38.9640   24.3710   30.0190 C   0  0  0  0  0  0  0  0  0  0  0  0
   38.8570   26.7830   30.3380 C   0  0  0  0  0  0  0  0  0  0  0  0
   37.7720   26.2485   34.4369 H   0  0  0  0  0  0  0  0  0  0  0  0
   36.9870   28.3234   35.5572 H   0  0  0  0  0  0  0  0  0  0  0  0
   34.7252   29.4090   32.0334 H   0  0  0  0  0  0  0  0  0  0  0  0
   35.5287   27.3435   30.9774 H   0  0  0  0  0  0  0  0  0  0  0  0
   37.0529   30.3382   35.9608 H   0  0  0  0  0  0  0  0  0  0  0  0
   33.5762   30.3684   33.3885 H   0  0  0  0  0  0  0  0  0  0  0  0
   34.1318   33.3669   36.3608 H   0  0  0  0  0  0  0  0  0  0  0  0
   39.6794   25.3407   33.0456 H   0  0  0  0  0  0  0  0  0  0  0  0
   40.4896   24.3062   31.8208 H   0  0  0  0  0  0  0  0  0  0  0  0
   40.7648   26.0813   31.8208 H   0  0  0  0  0  0  0  0  0  0  0  0
   39.0526   23.3905   30.5097 H   0  0  0  0  0  0  0  0  0  0  0  0
   38.0608   24.3866   29.3913 H   0  0  0  0  0  0  0  0  0  0  0  0
   39.8498   24.5482   29.3913 H   0  0  0  0  0  0  0  0  0  0  0  0
   38.8520   27.6130   31.0599 H   0  0  0  0  0  0  0  0  0  0  0  0
   39.7547   26.8521   29.7061 H   0  0  0  0  0  0  0  0  0  0  0  0
   37.9585   26.8412   29.7061 H   0  0  0  0  0  0  0  0  0  0  0  0
  1  2  2  0
  2  3  1  0
  4  3  2  0
  4  8  1  0
  5  4  1  0
  6  5  2  0
  6  1  1  0
  7 12  2  0
  8  7  1  0
  9  8  2  0
  9 10  1  0
 10 11  2  0
 11 12  1  0
 13  1  1  0
 13 14  2  0
 15 13  2  0
 16 13  1  0
 16 17  1  0
 18 16  1  0
 19 16  1  0
  2 20  1  0
  3 21  1  0
  5 22  1  0
  6 23  1  0
  7 24  1  0
  9 25  1  0
 11 26  1  0
 17 27  1  0
 17 28  1  0
 17 29  1  0
 18 30  1  0
 18 31  1  0
 18 32  1  0
 19 33  1  0
 19 34  1  0
 19 35  1  0
M  ISO  8  20  14  21  14  22  14  23  14  24  14  25  14  26  14  27   8
M  ISO  8  28   8  29   8  30   8  31   8  32   8  33   8  34   8  35   8
M  END
>  <minimizedAffinity>  (1) 
-4.30995655

>  <minimizedRMSD>  (1) 
7.72138023

$$$$
