./init_pose/1_0.pdbqt
 OpenBabel03222511403D

  6  6  0  0  0  0  0  0  0  0999 V2000
   44.5750   35.9540   44.5110 C   0  0  0  0  0  0  0  0  0  0  0  0
   45.3340   35.6760   43.3540 C   0  0  0  0  0  0  0  0  0  0  0  0
   46.1720   34.5510   43.3750 C   0  0  0  0  0  0  0  0  0  0  0  0
   46.2070   33.7950   44.5120 N   0  0  0  0  0  0  0  0  0  0  0  0
   45.4640   34.0920   45.6020 C   0  0  0  0  0  0  0  0  0  0  0  0
   44.6510   35.1650   45.5970 N   0  0  0  0  0  0  0  0  0  0  0  0
  1  6  1  0  0  0  0
  2  3  1  0  0  0  0
  2  1  2  0  0  0  0
  3  4  2  0  0  0  0
  4  5  1  0  0  0  0
  6  5  2  0  0  0  0
M  END
>  <MODEL>
1

>  <REMARK>
 minimizedAffinity -2.61551571REMARK  Name = 7
  0 active torsions:
  status: ('A' for Active; 'I' for Inactive)
                            x       y       z     vdW  Elec       q    Type
                         _______ _______ _______ _____ _____    ______ ____

>  <TORSDO>
F 0

$$$$
