MODEL 4
REMARK minimizedAffinity -2.56579208REMARK  Name = 7
REMARK  0 active torsions:
REMARK  status: ('A' for Active; 'I' for Inactive)
REMARK                            x       y       z     vdW  Elec       q    Type
REMARK                         _______ _______ _______ _____ _____    ______ ____
ROOT
ATOM      1  C   UNL     1      45.360  34.175  45.526  0.00  0.00    +0.000 A 
ATOM      2  C   UNL     1      46.183  33.762  44.456  0.00  0.00    +0.000 A 
ATOM      3  C   UNL     1      46.206  34.561  43.303  0.00  0.00    +0.000 A 
ATOM      4  N   UNL     1      45.432  35.686  43.282  0.00  0.00    +0.000 NA
ATOM      5  C   UNL     1      44.658  36.051  44.329  0.00  0.00    +0.000 A 
ATOM      6  N   UNL     1      44.626  35.298  45.444  0.00  0.00    +0.000 NA
ENDROOT
TORSDOF 0
ENDMDL
