./init_pose/1_3.pdbqt
     RDKit          3D

 10 10  0  0  0  0  0  0  0  0999 V2000
   45.3600   34.1750   45.5260 C   0  0  0  0  0  0  0  0  0  0  0  0
   46.1830   33.7620   44.4560 C   0  0  0  0  0  0  0  0  0  0  0  0
   46.2060   34.5610   43.3030 C   0  0  0  0  0  0  0  0  0  0  0  0
   45.4320   35.6860   43.2820 N   0  0  0  0  0  0  0  0  0  0  0  0
   44.6580   36.0510   44.3290 C   0  0  0  0  0  0  0  0  0  0  0  0
   44.6260   35.2980   45.4440 N   0  0  0  0  0  0  0  0  0  0  0  0
   45.3187   33.5676   46.4422 H   0  0  0  0  0  0  0  0  0  0  0  0
   46.7860   32.8445   44.5240 H   0  0  0  0  0  0  0  0  0  0  0  0
   46.8305   34.2887   42.4394 H   0  0  0  0  0  0  0  0  0  0  0  0
   44.0521   36.9671   44.2691 H   0  0  0  0  0  0  0  0  0  0  0  0
  2  1  2  0
  3  2  1  0
  4  3  2  0
  4  5  1  0
  5  6  2  0
  6  1  1  0
  1  7  1  0
  2  8  1  0
  3  9  1  0
  5 10  1  0
M  END
>  <MODEL>  (1) 
4

>  <REMARK>  (1) 
 minimizedAffinity -2.56579208REMARK  Name = 7
  0 active torsions:
  status: ('A' for Active; 'I' for Inactive)
                            x       y       z     vdW  Elec       q    Type
                         _______ _______ _______ _____ _____    ______ ____

>  <TORSDO>  (1) 
F 0

$$$$
