./init_pose/1_4.pdbqt
     RDKit          3D

 10 10  0  0  0  0  0  0  0  0999 V2000
   48.6090   33.5650   40.6970 C   0  0  0  0  0  0  0  0  0  0  0  0
   48.3360   34.9500   40.6940 C   0  0  0  0  0  0  0  0  0  0  0  0
   49.0180   35.7530   41.6210 C   0  0  0  0  0  0  0  0  0  0  0  0
   49.8990   35.1490   42.4710 N   0  0  0  0  0  0  0  0  0  0  0  0
   50.1360   33.8180   42.4430 C   0  0  0  0  0  0  0  0  0  0  0  0
   49.4940   33.0340   41.5580 N   0  0  0  0  0  0  0  0  0  0  0  0
   48.0889   32.9096   39.9829 H   0  0  0  0  0  0  0  0  0  0  0  0
   47.6128   35.3852   39.9886 H   0  0  0  0  0  0  0  0  0  0  0  0
   48.8474   36.8389   41.6616 H   0  0  0  0  0  0  0  0  0  0  0  0
   50.8563   33.3747   43.1463 H   0  0  0  0  0  0  0  0  0  0  0  0
  1  6  2  0
  2  1  1  0
  2  3  2  0
  3  4  1  0
  5  4  2  0
  6  5  1  0
  1  7  1  0
  2  8  1  0
  3  9  1  0
  5 10  1  0
M  END
>  <MODEL>  (1) 
5

>  <REMARK>  (1) 
 minimizedAffinity -2.46957278REMARK  Name = 7
  0 active torsions:
  status: ('A' for Active; 'I' for Inactive)
                            x       y       z     vdW  Elec       q    Type
                         _______ _______ _______ _____ _____    ______ ____

>  <TORSDO>  (1) 
F 0

$$$$
