./init_pose/1_4.pdbqt
 OpenBabel03222511403D

  6  6  0  0  0  0  0  0  0  0999 V2000
   48.6090   33.5650   40.6970 C   0  0  0  0  0  0  0  0  0  0  0  0
   48.3360   34.9500   40.6940 C   0  0  0  0  0  0  0  0  0  0  0  0
   49.0180   35.7530   41.6210 C   0  0  0  0  0  0  0  0  0  0  0  0
   49.8990   35.1490   42.4710 N   0  0  0  0  0  0  0  0  0  0  0  0
   50.1360   33.8180   42.4430 C   0  0  0  0  0  0  0  0  0  0  0  0
   49.4940   33.0340   41.5580 N   0  0  0  0  0  0  0  0  0  0  0  0
  1  6  1  0  0  0  0
  2  1  2  0  0  0  0
  2  3  1  0  0  0  0
  3  4  2  0  0  0  0
  5  4  1  0  0  0  0
  6  5  2  0  0  0  0
M  END
>  <MODEL>
5

>  <REMARK>
 minimizedAffinity -2.46957278REMARK  Name = 7
  0 active torsions:
  status: ('A' for Active; 'I' for Inactive)
                            x       y       z     vdW  Elec       q    Type
                         _______ _______ _______ _____ _____    ______ ____

>  <TORSDO>
F 0

$$$$
