MODEL 6
REMARK minimizedAffinity -2.46771693REMARK  Name = 7
REMARK  0 active torsions:
REMARK  status: ('A' for Active; 'I' for Inactive)
REMARK                            x       y       z     vdW  Elec       q    Type
REMARK                         _______ _______ _______ _____ _____    ______ ____
ROOT
ATOM      1  C   UNL     1      49.793  35.105  42.432  0.00  0.00    +0.000 A 
ATOM      2  C   UNL     1      48.887  35.670  41.510  0.00  0.00    +0.000 A 
ATOM      3  C   UNL     1      48.289  34.815  40.572  0.00  0.00    +0.000 A 
ATOM      4  N   UNL     1      48.621  33.490  40.605  0.00  0.00    +0.000 NA
ATOM      5  C   UNL     1      49.493  32.985  41.506  0.00  0.00    +0.000 A 
ATOM      6  N   UNL     1      50.072  33.790  42.415  0.00  0.00    +0.000 NA
ENDROOT
TORSDOF 0
ENDMDL
