MODEL 7
REMARK minimizedAffinity -2.46258235REMARK  Name = 7
REMARK  0 active torsions:
REMARK  status: ('A' for Active; 'I' for Inactive)
REMARK                            x       y       z     vdW  Elec       q    Type
REMARK                         _______ _______ _______ _____ _____    ______ ____
ROOT
ATOM      1  C   UNL     1      49.006  35.731  41.617  0.00  0.00    +0.000 A 
ATOM      2  C   UNL     1      48.319  34.941  40.670  0.00  0.00    +0.000 A 
ATOM      3  C   UNL     1      48.583  33.563  40.653  0.00  0.00    +0.000 A 
ATOM      4  N   UNL     1      49.487  33.069  41.549  0.00  0.00    +0.000 NA
ATOM      5  C   UNL     1      50.125  33.857  42.444  0.00  0.00    +0.000 A 
ATOM      6  N   UNL     1      49.881  35.181  42.476  0.00  0.00    +0.000 NA
ENDROOT
TORSDOF 0
ENDMDL
