./init_pose/1_6.pdbqt
 OpenBabel03222511403D

  6  6  0  0  0  0  0  0  0  0999 V2000
   49.0060   35.7310   41.6170 C   0  0  0  0  0  0  0  0  0  0  0  0
   48.3190   34.9410   40.6700 C   0  0  0  0  0  0  0  0  0  0  0  0
   48.5830   33.5630   40.6530 C   0  0  0  0  0  0  0  0  0  0  0  0
   49.4870   33.0690   41.5490 N   0  0  0  0  0  0  0  0  0  0  0  0
   50.1250   33.8570   42.4440 C   0  0  0  0  0  0  0  0  0  0  0  0
   49.8810   35.1810   42.4760 N   0  0  0  0  0  0  0  0  0  0  0  0
  1  6  1  0  0  0  0
  2  1  2  0  0  0  0
  3  2  1  0  0  0  0
  3  4  2  0  0  0  0
  4  5  1  0  0  0  0
  5  6  2  0  0  0  0
M  END
>  <MODEL>
7

>  <REMARK>
 minimizedAffinity -2.46258235REMARK  Name = 7
  0 active torsions:
  status: ('A' for Active; 'I' for Inactive)
                            x       y       z     vdW  Elec       q    Type
                         _______ _______ _______ _____ _____    ______ ____

>  <TORSDO>
F 0

$$$$
