./init_pose/1_6.pdbqt
     RDKit          3D

 10 10  0  0  0  0  0  0  0  0999 V2000
   49.0060   35.7310   41.6170 C   0  0  0  0  0  0  0  0  0  0  0  0
   48.3190   34.9410   40.6700 C   0  0  0  0  0  0  0  0  0  0  0  0
   48.5830   33.5630   40.6530 C   0  0  0  0  0  0  0  0  0  0  0  0
   49.4870   33.0690   41.5490 N   0  0  0  0  0  0  0  0  0  0  0  0
   50.1250   33.8570   42.4440 C   0  0  0  0  0  0  0  0  0  0  0  0
   49.8810   35.1810   42.4760 N   0  0  0  0  0  0  0  0  0  0  0  0
   48.8220   36.8149   41.6524 H   0  0  0  0  0  0  0  0  0  0  0  0
   47.6006   35.3907   39.9688 H   0  0  0  0  0  0  0  0  0  0  0  0
   48.0757   32.8991   39.9376 H   0  0  0  0  0  0  0  0  0  0  0  0
   50.8455   33.4151   43.1480 H   0  0  0  0  0  0  0  0  0  0  0  0
  1  6  2  0
  2  1  1  0
  3  2  2  0
  3  4  1  0
  4  5  2  0
  5  6  1  0
  1  7  1  0
  2  8  1  0
  3  9  1  0
  5 10  1  0
M  END
>  <MODEL>  (1) 
7

>  <REMARK>  (1) 
 minimizedAffinity -2.46258235REMARK  Name = 7
  0 active torsions:
  status: ('A' for Active; 'I' for Inactive)
                            x       y       z     vdW  Elec       q    Type
                         _______ _______ _______ _____ _____    ______ ____

>  <TORSDO>  (1) 
F 0

$$$$
