./init_pose/1_7.pdbqt
     RDKit          3D

 10 10  0  0  0  0  0  0  0  0999 V2000
   48.3090   34.8510   40.5750 C   0  0  0  0  0  0  0  0  0  0  0  0
   48.9100   35.6820   41.5460 C   0  0  0  0  0  0  0  0  0  0  0  0
   49.7870   35.0850   42.4640 C   0  0  0  0  0  0  0  0  0  0  0  0
   50.0060   33.7410   42.3670 N   0  0  0  0  0  0  0  0  0  0  0  0
   49.4130   32.9780   41.4210 C   0  0  0  0  0  0  0  0  0  0  0  0
   48.5710   33.5340   40.5300 N   0  0  0  0  0  0  0  0  0  0  0  0
   47.6146   35.2894   39.8432 H   0  0  0  0  0  0  0  0  0  0  0  0
   48.6977   36.7607   41.5813 H   0  0  0  0  0  0  0  0  0  0  0  0
   50.2848   35.6837   43.2410 H   0  0  0  0  0  0  0  0  0  0  0  0
   49.6196   31.8984   41.3794 H   0  0  0  0  0  0  0  0  0  0  0  0
  1  2  2  0
  2  3  1  0
  4  3  2  0
  5  4  1  0
  6  1  1  0
  6  5  2  0
  1  7  1  0
  2  8  1  0
  3  9  1  0
  5 10  1  0
M  END
>  <MODEL>  (1) 
8

>  <REMARK>  (1) 
 minimizedAffinity -2.46067238REMARK  Name = 7
  0 active torsions:
  status: ('A' for Active; 'I' for Inactive)
                            x       y       z     vdW  Elec       q    Type
                         _______ _______ _______ _____ _____    ______ ____

>  <TORSDO>  (1) 
F 0

$$$$
