
     RDKit          3D

 14 14  0  0  0  0  0  0  0  0999 V2000
   37.9681   28.8895   43.3732 C   0  0  0  0  0  0  0  0  0  0  0  0
   38.0892   27.4751   43.3111 C   0  0  0  0  0  0  0  0  0  0  0  0
   37.4457   26.8241   42.2569 C   0  0  0  0  0  0  0  0  0  0  0  0
   36.7298   27.5740   41.3338 N   0  0  0  0  0  0  0  0  0  0  0  0
   36.6577   28.9095   41.4546 C   0  0  0  0  0  0  0  0  0  0  0  0
   37.2658   29.5442   42.4540 N   0  0  0  0  0  0  0  0  0  0  0  0
   37.5398   25.3332   42.1460 C   0  0  0  0  0  0  0  0  0  0  0  0
   37.6494   25.0483   40.8120 F   0  0  0  0  0  0  0  0  0  0  0  0
   38.6193   24.8307   42.7929 F   0  0  0  0  0  0  0  0  0  0  0  0
   36.3812   24.7264   42.6384 F   0  0  0  0  0  0  0  0  0  0  0  0
   38.4520   29.4313   44.1748 H   0  0  0  0  0  0  0  0  0  0  0  0
   38.6547   26.9266   44.0477 H   0  0  0  0  0  0  0  0  0  0  0  0
   35.8891   29.4269   40.4149 O   0  0  0  0  0  0  0  0  0  0  0  0
   34.9193   29.1692   40.2422 H   0  0  0  0  0  0  0  0  0  0  0  0
  2  1  2  0
  3  2  1  0
  4  5  1  0
  4  3  2  0
  5  6  2  0
  6  1  1  0
  7  3  1  0
  7 10  1  0
  7  9  1  0
  8  7  1  0
  1 11  1  0
  2 12  1  0
 13 14  1  0
  5 13  1  0
M  ISO  3  11  14  12  14  14   3
M  END
>  <DihAtoms>  (1) 
3,4,12,13

>  <DihDeg>  (1) 
59.15879487129413

$$$$
