
     RDKit          3D

 45 48  0  0  1  0  0  0  0  0999 V2000
   38.5110   30.9080   41.2930 C   0  0  0  0  0  0  0  0  0  0  0  0
   38.3450   29.7540   42.0400 C   0  0  0  0  0  0  0  0  0  0  0  0
   37.1730   29.0360   42.2070 C   0  0  0  0  0  0  0  0  0  0  0  0
   36.1380   29.5830   41.5440 N   0  0  0  0  0  0  0  0  0  0  0  0
   36.2240   30.6860   40.8130 C   0  0  0  0  0  0  0  0  0  0  0  0
   37.3860   31.3130   40.7050 N   0  0  0  0  0  0  0  0  0  0  0  0
   39.6880   31.6820   41.0820 C   0  0  0  0  0  0  0  0  0  0  0  0
   40.9200   31.0570   41.2350 C   0  0  0  0  0  0  0  0  0  0  0  0
   42.1430   31.6750   41.0900 C   0  0  0  0  0  0  0  0  0  0  0  0
   42.1680   33.0160   40.7690 C   0  0  0  0  0  0  0  0  0  0  0  0
   40.9680   33.6980   40.6010 C   0  0  0  0  0  0  0  0  0  0  0  0
   40.9890   35.0250   40.2730 C   0  0  0  0  0  0  0  0  0  0  0  0
   39.8340   35.7510   40.0820 C   0  0  0  0  0  0  0  0  0  0  0  0
   38.6550   35.0320   40.2470 C   0  0  0  0  0  0  0  0  0  0  0  0
   38.6960   33.7100   40.5760 C   0  0  0  0  0  0  0  0  0  0  0  0
   39.8320   32.9950   40.7670 C   0  0  0  0  0  0  0  0  0  0  0  0
   37.1350   27.8360   43.0740 C   0  0  2  0  0  0  0  0  0  0  0  0
   36.8240   28.1420   44.4990 C   0  0  0  0  0  0  0  0  0  0  0  0
   38.4360   27.0770   42.9050 C   0  0  0  0  0  0  0  0  0  0  0  0
   38.3580   25.7410   42.4690 N   0  0  0  0  0  0  0  0  0  0  0  0
   37.3480   25.6820   41.5290 C   0  0  0  0  0  0  0  0  0  0  0  0
   36.9480   24.5670   40.7760 C   0  0  0  0  0  0  0  0  0  0  0  0
   37.6170   23.3790   40.9740 C   0  0  0  0  0  0  0  0  0  0  0  0
   37.3700   22.3210   40.3810 O   0  0  0  0  0  0  0  0  0  0  0  0
   38.5990   23.4110   41.8830 N   0  0  0  0  0  0  0  0  0  0  0  0
   38.8940   24.5250   42.5400 C   0  0  0  0  0  0  0  0  0  0  0  0
   39.8230   24.4370   43.3710 O   0  0  0  0  0  0  0  0  0  0  0  0
   39.2372   29.3674   42.5543 H   0  0  0  0  0  0  0  0  0  0  0  0
   35.3345   31.0786   40.2986 H   0  0  0  0  0  0  0  0  0  0  0  0
   40.9186   29.9873   41.4914 H   0  0  0  0  0  0  0  0  0  0  0  0
   43.0778   31.1117   41.2271 H   0  0  0  0  0  0  0  0  0  0  0  0
   43.1272   33.5405   40.6472 H   0  0  0  0  0  0  0  0  0  0  0  0
   41.9597   35.5294   40.1579 H   0  0  0  0  0  0  0  0  0  0  0  0
   39.8435   36.8190   39.8188 H   0  0  0  0  0  0  0  0  0  0  0  0
   37.6849   35.5326   40.1114 H   0  0  0  0  0  0  0  0  0  0  0  0
   37.7370   33.1846   40.6953 H   0  0  0  0  0  0  0  0  0  0  0  0
   36.2983   27.1982   42.7528 H   0  0  0  0  0  0  0  0  0  0  0  0
   37.4543   27.5218   45.1532 H   0  0  0  0  0  0  0  0  0  0  0  0
   37.0240   29.2052   44.6978 H   0  0  0  0  0  0  0  0  0  0  0  0
   35.7641   27.9248   44.6978 H   0  0  0  0  0  0  0  0  0  0  0  0
   39.0455   27.6272   42.1731 H   0  0  0  0  0  0  0  0  0  0  0  0
   38.8582   27.0162   43.9189 H   0  0  0  0  0  0  0  0  0  0  0  0
   36.7938   26.6152   41.3500 H   0  0  0  0  0  0  0  0  0  0  0  0
   36.1251   24.6396   40.0496 H   0  0  0  0  0  0  0  0  0  0  0  0
   39.1362   22.5537   42.0762 H   0  0  0  0  0  0  0  0  0  0  0  0
  1  2  2  0
  2  3  1  0
  3 17  1  0
  4  3  2  0
  5  4  1  0
  6  5  2  0
  6  1  1  0
  7  8  2  0
  7  1  1  0
  9  8  1  0
 10  9  2  0
 11 16  2  0
 11 10  1  0
 12 11  1  0
 13 14  1  0
 13 12  2  0
 14 15  2  0
 15 16  1  0
 16  7  1  0
 17 18  1  0
 19 17  1  0
 20 26  1  0
 20 19  1  0
 21 20  1  0
 22 23  1  0
 22 21  2  0
 23 25  1  0
 24 23  2  0
 25 26  1  0
 26 27  2  0
  2 28  1  0
  5 29  1  0
  8 30  1  0
  9 31  1  0
 10 32  1  0
 12 33  1  0
 13 34  1  0
 14 35  1  0
 15 36  1  0
 17 37  1  6
 18 38  1  0
 18 39  1  0
 18 40  1  0
 19 41  1  0
 19 42  1  0
 21 43  1  0
 22 44  1  0
 25 45  1  0
M  ISO  8  28  14  29  14  30  14  31  14  32  14  33  14  34  14  35  14
M  ISO  8  36  14  37   8  38   8  39   8  40   8  41   8  42   8  43  14
M  ISO  2  44  14  45   9
M  END
>  <minimizedAffinity>  (1) 
-7.28160238

>  <minimizedRMSD>  (1) 
2.13299727

$$$$
