
     RDKit          3D

 39 43  0  0  1  0  0  0  0  0999 V2000
   35.9650   30.5620   40.9310 C   0  0  0  0  0  0  0  0  0  0  0  0
   36.6760   29.5010   41.5280 C   0  0  0  0  0  0  0  0  0  0  0  0
   38.0550   29.5500   41.5450 C   0  0  0  0  0  0  0  0  0  0  0  0
   38.6290   30.6450   40.9740 N   0  0  0  0  0  0  0  0  0  0  0  0
   37.9390   31.6560   40.4070 C   0  0  0  0  0  0  0  0  0  0  0  0
   36.5970   31.6060   40.3890 N   0  0  0  0  0  0  0  0  0  0  0  0
   38.7880   28.4670   42.1370 C   0  0  0  0  0  0  0  0  0  0  0  0
   39.9710   28.5470   42.8650 C   0  0  0  0  0  0  0  0  0  0  0  0
   40.3270   27.2940   43.2550 N   0  0  0  0  0  0  0  0  0  0  0  0
   39.4210   26.3900   42.8100 C   0  0  0  0  0  0  0  0  0  0  0  0
   39.3100   25.0200   42.9220 C   0  0  0  0  0  0  0  0  0  0  0  0
   38.2340   24.3320   42.3370 C   0  0  0  0  0  0  0  0  0  0  0  0
   37.3050   25.0920   41.6520 C   0  0  0  0  0  0  0  0  0  0  0  0
   37.4360   26.4470   41.5530 C   0  0  0  0  0  0  0  0  0  0  0  0
   38.4810   27.1210   42.1230 C   0  0  0  0  0  0  0  0  0  0  0  0
   38.6730   32.8360   39.8330 C   0  0  1  0  0  0  0  0  0  0  0  0
   38.8450   34.0580   40.7590 C   0  0  0  0  0  0  0  0  0  0  0  0
   39.9920   33.1900   40.4080 C   0  0  2  0  0  0  0  0  0  0  0  0
   41.0850   33.6680   39.5390 C   0  0  0  0  0  0  0  0  0  0  0  0
   41.2390   34.9110   39.0380 N   0  0  0  0  0  0  0  0  0  0  0  0
   42.3230   34.9380   38.3000 O   0  0  0  0  0  0  0  0  0  0  0  0
   42.8930   33.7570   38.2920 C   0  0  0  0  0  0  0  0  0  0  0  0
   42.1170   32.9510   39.0730 N   0  0  0  0  0  0  0  0  0  0  0  0
   44.1220   33.2490   37.6260 C   0  0  0  0  0  0  0  0  0  0  0  0
   34.8657   30.5291   40.9113 H   0  0  0  0  0  0  0  0  0  0  0  0
   36.1408   28.6489   41.9725 H   0  0  0  0  0  0  0  0  0  0  0  0
   40.5259   29.4702   43.0879 H   0  0  0  0  0  0  0  0  0  0  0  0
   41.1647   27.0650   43.8089 H   0  0  0  0  0  0  0  0  0  0  0  0
   40.0751   24.4578   43.4775 H   0  0  0  0  0  0  0  0  0  0  0  0
   38.1355   23.2396   42.4202 H   0  0  0  0  0  0  0  0  0  0  0  0
   36.4449   24.5962   41.1782 H   0  0  0  0  0  0  0  0  0  0  0  0
   36.6763   27.0157   40.9966 H   0  0  0  0  0  0  0  0  0  0  0  0
   38.2923   32.6535   38.8172 H   0  0  0  0  0  0  0  0  0  0  0  0
   38.7760   35.0768   40.3499 H   0  0  0  0  0  0  0  0  0  0  0  0
   38.3811   34.4073   41.6932 H   0  0  0  0  0  0  0  0  0  0  0  0
   40.7391   32.6475   41.0060 H   0  0  0  0  0  0  0  0  0  0  0  0
   44.8542   32.9464   38.3891 H   0  0  0  0  0  0  0  0  0  0  0  0
   43.8673   32.3824   36.9982 H   0  0  0  0  0  0  0  0  0  0  0  0
   44.5535   34.0425   36.9982 H   0  0  0  0  0  0  0  0  0  0  0  0
  1  2  2  0
  2  3  1  0
  3  7  1  0
  4  3  2  0
  5  4  1  0
  6  5  2  0
  6  1  1  0
  7  8  2  0
  8  9  1  0
 10 11  2  0
 10  9  1  0
 12 11  1  0
 13 12  2  0
 14 13  1  0
 14 15  2  0
 15  7  1  0
 15 10  1  0
 16  5  1  0
 16 18  1  0
 16 17  1  0
 18 17  1  0
 19 18  1  0
 20 19  2  0
 21 20  1  0
 22 21  1  0
 22 23  2  0
 23 19  1  0
 24 22  1  0
  1 25  1  0
  2 26  1  0
  8 27  1  0
  9 28  1  0
 11 29  1  0
 12 30  1  0
 13 31  1  0
 14 32  1  0
 16 33  1  6
 17 34  1  0
 17 35  1  0
 18 36  1  1
 24 37  1  0
 24 38  1  0
 24 39  1  0
M  ISO  8  25  14  26  14  27  14  28   9  29  14  30  14  31  14  32  14
M  ISO  7  33  13  34  13  35  13  36  13  37   8  38   8  39   8
M  END
>  <minimizedAffinity>  (1) 
-5.98380566

>  <minimizedRMSD>  (1) 
0.527051628

$$$$
