
     RDKit          3D

 23 24  0  0  1  0  0  0  0  0999 V2000
   37.7960   28.7860   43.3230 C   0  0  1  0  0  0  0  0  0  0  0  0
   37.1400   27.8500   44.2070 C   0  0  0  0  0  0  0  0  0  0  0  0
   38.1470   27.2580   43.2750 C   0  0  2  0  0  0  0  0  0  0  0  0
   37.1280   29.2860   42.0630 C   0  0  0  0  0  0  0  0  0  0  0  0
   37.7240   30.4070   41.4480 C   0  0  0  0  0  0  0  0  0  0  0  0
   37.1000   30.8750   40.3020 C   0  0  0  0  0  0  0  0  0  0  0  0
   35.9750   30.2570   39.8330 N   0  0  0  0  0  0  0  0  0  0  0  0
   35.4370   29.1760   40.4640 C   0  0  0  0  0  0  0  0  0  0  0  0
   36.0350   28.7010   41.5890 N   0  0  0  0  0  0  0  0  0  0  0  0
   39.4690   26.9010   43.9170 C   0  0  0  0  0  0  0  0  0  0  0  0
   39.8570   25.4880   43.5120 C   0  0  0  0  0  0  0  0  0  0  0  0
   38.2965   29.7473   43.5111 H   0  0  0  0  0  0  0  0  0  0  0  0
   37.3599   27.8840   45.2843 H   0  0  0  0  0  0  0  0  0  0  0  0
   36.0827   27.6250   44.4109 H   0  0  0  0  0  0  0  0  0  0  0  0
   38.1635   26.4610   42.5170 H   0  0  0  0  0  0  0  0  0  0  0  0
   38.6298   30.8814   41.8536 H   0  0  0  0  0  0  0  0  0  0  0  0
   37.5111   31.7452   39.7693 H   0  0  0  0  0  0  0  0  0  0  0  0
   34.5308   28.6938   40.0686 H   0  0  0  0  0  0  0  0  0  0  0  0
   40.2435   27.6058   43.5804 H   0  0  0  0  0  0  0  0  0  0  0  0
   39.3754   26.9588   45.0115 H   0  0  0  0  0  0  0  0  0  0  0  0
   40.0237   24.8808   44.4139 H   0  0  0  0  0  0  0  0  0  0  0  0
   39.0479   25.0426   42.9145 H   0  0  0  0  0  0  0  0  0  0  0  0
   40.7801   25.5182   42.9145 H   0  0  0  0  0  0  0  0  0  0  0  0
  1  2  1  0
  3  1  1  0
  3 10  1  0
  3  2  1  0
  4  1  1  0
  5  4  2  0
  6  5  1  0
  7  6  2  0
  7  8  1  0
  8  9  2  0
  9  4  1  0
 11 10  1  0
  1 12  1  1
  2 13  1  0
  2 14  1  0
  3 15  1  6
  5 16  1  0
  6 17  1  0
  8 18  1  0
 10 19  1  0
 10 20  1  0
 11 21  1  0
 11 22  1  0
 11 23  1  0
M  ISO  8  12  13  13  13  14  13  15  13  16  14  17  14  18  14  19   8
M  ISO  4  20   8  21   8  22   8  23   8
M  END
>  <minimizedAffinity>  (1) 
-3.90959287

>  <minimizedRMSD>  (1) 
2.43797708

$$$$
