
     RDKit          3D

 19 19  0  0  0  0  0  0  0  0999 V2000
   37.9783   28.8831   43.3693 C   0  0  0  0  0  0  0  0  0  0  0  0
   38.0918   27.4681   43.3039 C   0  0  0  0  0  0  0  0  0  0  0  0
   37.4334   26.8155   42.2447 C   0  0  0  0  0  0  0  0  0  0  0  0
   36.7240   27.5739   41.3410 N   0  0  0  0  0  0  0  0  0  0  0  0
   36.6574   28.9102   41.4616 C   0  0  0  0  0  0  0  0  0  0  0  0
   37.2675   29.5561   42.4497 N   0  0  0  0  0  0  0  0  0  0  0  0
   37.5373   25.3422   42.1558 C   0  0  0  0  0  0  0  0  0  0  0  0
   37.6554   25.0555   40.8098 F   0  0  0  0  0  0  0  0  0  0  0  0
   38.6216   24.8377   42.8082 F   0  0  0  0  0  0  0  0  0  0  0  0
   36.3793   24.7127   42.6289 F   0  0  0  0  0  0  0  0  0  0  0  0
   38.5158   29.3029   44.2156 H   0  0  0  0  0  0  0  0  0  0  0  0
   38.6515   26.9072   44.0228 H   0  0  0  0  0  0  0  0  0  0  0  0
   35.8681   29.6972   40.4470 C   0  0  0  0  0  0  0  0  0  0  0  0
   34.7589   30.4598   41.0956 C   0  0  0  0  0  0  0  0  0  0  0  0
   34.9603   30.5695   42.1859 H   0  0  0  0  0  0  0  0  0  0  0  0
   36.5944   30.4255   40.0306 H   0  0  0  0  0  0  0  0  0  0  0  0
   35.5175   29.0627   39.6309 H   0  0  0  0  0  0  0  0  0  0  0  0
   33.7540   30.0112   40.8974 H   0  0  0  0  0  0  0  0  0  0  0  0
   34.7185   31.4902   40.6860 H   0  0  0  0  0  0  0  0  0  0  0  0
  2  1  2  0
  3  2  1  0
  4  5  1  0
  4  3  2  0
  5  6  2  0
  6  1  1  0
  7  3  1  0
  7 10  1  0
  7  9  1  0
  8  7  1  0
  1 11  1  0
  2 12  1  0
 13 14  1  0
 14 15  1  0
 13 16  1  0
 13 17  1  0
 14 18  1  0
 14 19  1  0
  5 13  1  0
M  ISO  3  11  14  12  14  15   8
M  END
>  <DihAtoms>  (1) 
3,4,12,13

>  <DihDeg>  (1) 
-0.0012108468404708058

$$$$
