
     RDKit          3D

 42 46  0  0  1  0  0  0  0  0999 V2000
   36.1060   30.7440   41.0600 C   0  0  0  0  0  0  0  0  0  0  0  0
   36.7670   29.6430   41.6320 C   0  0  0  0  0  0  0  0  0  0  0  0
   38.1460   29.5930   41.5990 C   0  0  0  0  0  0  0  0  0  0  0  0
   38.7710   30.6450   41.0030 N   0  0  0  0  0  0  0  0  0  0  0  0
   38.1330   31.6990   40.4580 C   0  0  0  0  0  0  0  0  0  0  0  0
   36.7920   31.7400   40.4890 N   0  0  0  0  0  0  0  0  0  0  0  0
   38.8210   28.4610   42.1650 C   0  0  0  0  0  0  0  0  0  0  0  0
   40.0050   28.4580   42.8950 C   0  0  0  0  0  0  0  0  0  0  0  0
   40.3000   27.1890   43.2520 N   0  0  0  0  0  0  0  0  0  0  0  0
   39.3570   26.3420   42.7880 C   0  0  0  0  0  0  0  0  0  0  0  0
   39.1750   24.9780   42.8700 C   0  0  0  0  0  0  0  0  0  0  0  0
   38.0580   24.3610   42.2710 C   0  0  0  0  0  0  0  0  0  0  0  0
   37.1660   25.1790   41.6040 C   0  0  0  0  0  0  0  0  0  0  0  0
   37.3680   26.5310   41.5360 C   0  0  0  0  0  0  0  0  0  0  0  0
   38.4500   27.1330   42.1190 C   0  0  0  0  0  0  0  0  0  0  0  0
   38.9250   32.8260   39.8500 C   0  0  1  0  0  0  0  0  0  0  0  0
   39.0560   34.1010   40.7070 C   0  0  0  0  0  0  0  0  0  0  0  0
   40.2100   33.1980   40.4860 C   0  0  2  0  0  0  0  0  0  0  0  0
   41.3650   33.6170   39.6740 C   0  0  0  0  0  0  0  0  0  0  0  0
   41.4500   34.6740   38.8540 N   0  0  0  0  0  0  0  0  0  0  0  0
   42.6310   34.7100   38.3020 O   0  0  0  0  0  0  0  0  0  0  0  0
   43.3560   33.6890   38.7330 C   0  0  0  0  0  0  0  0  0  0  0  0
   42.5500   33.0080   39.5970 N   0  0  0  0  0  0  0  0  0  0  0  0
   44.7520   33.3440   38.3670 C   0  0  0  0  0  0  0  0  0  0  0  0
   45.6560   34.4050   38.9560 C   0  0  0  0  0  0  0  0  0  0  0  0
   35.0071   30.7870   41.0824 H   0  0  0  0  0  0  0  0  0  0  0  0
   36.1919   28.8307   42.1005 H   0  0  0  0  0  0  0  0  0  0  0  0
   40.6048   29.3464   43.1420 H   0  0  0  0  0  0  0  0  0  0  0  0
   41.1259   26.9081   43.7996 H   0  0  0  0  0  0  0  0  0  0  0  0
   39.9106   24.3634   43.4096 H   0  0  0  0  0  0  0  0  0  0  0  0
   37.9029   23.2737   42.3320 H   0  0  0  0  0  0  0  0  0  0  0  0
   36.2817   24.7376   41.1212 H   0  0  0  0  0  0  0  0  0  0  0  0
   36.6384   27.1527   40.9963 H   0  0  0  0  0  0  0  0  0  0  0  0
   38.6101   32.5827   38.8245 H   0  0  0  0  0  0  0  0  0  0  0  0
   39.0299   35.0927   40.2318 H   0  0  0  0  0  0  0  0  0  0  0  0
   38.5384   34.5141   41.5853 H   0  0  0  0  0  0  0  0  0  0  0  0
   40.9076   32.6779   41.1590 H   0  0  0  0  0  0  0  0  0  0  0  0
   45.0144   32.3578   38.7775 H   0  0  0  0  0  0  0  0  0  0  0  0
   44.8656   33.3038   37.2736 H   0  0  0  0  0  0  0  0  0  0  0  0
   45.6132   34.3548   40.0540 H   0  0  0  0  0  0  0  0  0  0  0  0
   46.6896   34.2332   38.6211 H   0  0  0  0  0  0  0  0  0  0  0  0
   45.3223   35.3982   38.6211 H   0  0  0  0  0  0  0  0  0  0  0  0
  1  2  2  0
  3  2  1  0
  3  7  1  0
  4  3  2  0
  5  6  2  0
  5  4  1  0
  6  1  1  0
  7  8  2  0
  8  9  1  0
 10 11  2  0
 10  9  1  0
 12 11  1  0
 13 12  2  0
 14 13  1  0
 14 15  2  0
 15  7  1  0
 15 10  1  0
 16  5  1  0
 16 18  1  0
 16 17  1  0
 18 17  1  0
 19 18  1  0
 20 19  2  0
 21 22  1  0
 21 20  1  0
 22 23  2  0
 23 19  1  0
 24 22  1  0
 24 25  1  0
  1 26  1  0
  2 27  1  0
  8 28  1  0
  9 29  1  0
 11 30  1  0
 12 31  1  0
 13 32  1  0
 14 33  1  0
 16 34  1  6
 17 35  1  0
 17 36  1  0
 18 37  1  1
 24 38  1  0
 24 39  1  0
 25 40  1  0
 25 41  1  0
 25 42  1  0
M  ISO  8  26  14  27  14  28  14  29   9  30  14  31  14  32  14  33  14
M  ISO  8  34  13  35  13  36  13  37  13  38   8  39   8  40   8  41   8
M  ISO  1  42   8
M  END
>  <minimizedAffinity>  (1) 
-5.91783714

>  <minimizedRMSD>  (1) 
0.981183469

$$$$
