
     RDKit          3D

 19 20  0  0  0  0  0  0  0  0999 V2000
   36.1140   30.2640   40.9060 O   0  0  0  0  0  0  0  0  0  0  0  0
   38.6110   28.8110   43.1410 C   0  0  0  0  0  0  0  0  0  0  0  0
   38.0370   27.5440   43.3250 C   0  0  0  0  0  0  0  0  0  0  0  0
   36.8240   27.2900   42.6560 C   0  0  0  0  0  0  0  0  0  0  0  0
   36.2860   28.2710   41.8850 N   0  0  0  0  0  0  0  0  0  0  0  0
   36.8660   29.4630   41.7380 C   0  0  0  0  0  0  0  0  0  0  0  0
   38.0340   29.7300   42.3720 N   0  0  0  0  0  0  0  0  0  0  0  0
   36.7520   31.2690   40.1810 C   0  0  0  0  0  0  0  0  0  0  0  0
   36.8760   31.4210   38.8350 N   0  0  0  0  0  0  0  0  0  0  0  0
   37.5640   32.5210   38.5870 O   0  0  0  0  0  0  0  0  0  0  0  0
   37.8620   33.0440   39.7630 C   0  0  0  0  0  0  0  0  0  0  0  0
   37.3840   32.3120   40.7760 N   0  0  0  0  0  0  0  0  0  0  0  0
   38.6330   34.3010   40.0780 C   0  0  0  0  0  0  0  0  0  0  0  0
   39.8470   34.2540   39.4140 F   0  0  0  0  0  0  0  0  0  0  0  0
   37.9560   35.4090   39.5630 F   0  0  0  0  0  0  0  0  0  0  0  0
   38.7620   34.4940   41.4190 F   0  0  0  0  0  0  0  0  0  0  0  0
   39.5596   29.0496   43.6441 H   0  0  0  0  0  0  0  0  0  0  0  0
   38.5125   26.7840   43.9624 H   0  0  0  0  0  0  0  0  0  0  0  0
   36.3219   26.3164   42.7557 H   0  0  0  0  0  0  0  0  0  0  0  0
  1  6  1  0
  2  3  2  0
  4  3  1  0
  5  4  2  0
  6  5  1  0
  6  7  2  0
  7  2  1  0
  8 12  1  0
  8  1  1  0
  9  8  2  0
 10  9  1  0
 10 11  1  0
 11 13  1  0
 11 12  2  0
 13 16  1  0
 14 13  1  0
 15 13  1  0
  2 17  1  0
  3 18  1  0
  4 19  1  0
M  ISO  3  17  14  18  14  19  14
M  END
>  <minimizedAffinity>  (1) 
-4.66289711

>  <minimizedRMSD>  (1) 
0.869346499

$$$$
