
     RDKit          3D

 38 42  0  0  0  0  0  0  0  0999 V2000
   41.0110   32.2880   40.8760 C   0  0  0  0  0  0  0  0  0  0  0  0
   40.1390   31.1960   40.8880 C   0  0  0  0  0  0  0  0  0  0  0  0
   38.9330   31.6660   40.5940 N   0  0  0  0  0  0  0  0  0  0  0  0
   38.9540   32.9950   40.3890 C   0  0  0  0  0  0  0  0  0  0  0  0
   37.9190   33.8640   40.0630 C   0  0  0  0  0  0  0  0  0  0  0  0
   38.2440   35.2150   39.9110 C   0  0  0  0  0  0  0  0  0  0  0  0
   39.5380   35.6410   40.0800 C   0  0  0  0  0  0  0  0  0  0  0  0
   40.5680   34.7750   40.4040 C   0  0  0  0  0  0  0  0  0  0  0  0
   40.2690   33.4190   40.5630 C   0  0  0  0  0  0  0  0  0  0  0  0
   37.7850   30.8260   40.5170 C   0  0  0  0  0  0  0  0  0  0  0  0
   36.8040   30.9460   39.5800 N   0  0  0  0  0  0  0  0  0  0  0  0
   35.7460   30.1070   39.5730 C   0  0  0  0  0  0  0  0  0  0  0  0
   35.5890   29.1040   40.4830 N   0  0  0  0  0  0  0  0  0  0  0  0
   36.5630   28.9910   41.4050 C   0  0  0  0  0  0  0  0  0  0  0  0
   36.4630   27.9870   42.3620 C   0  0  0  0  0  0  0  0  0  0  0  0
   37.4530   27.8390   43.3340 C   0  0  0  0  0  0  0  0  0  0  0  0
   38.5600   28.6750   43.3830 C   0  0  0  0  0  0  0  0  0  0  0  0
   38.6300   29.6560   42.4260 C   0  0  0  0  0  0  0  0  0  0  0  0
   37.6640   29.8210   41.4560 C   0  0  0  0  0  0  0  0  0  0  0  0
   44.1830   32.4800   42.6880 C   0  0  0  0  0  0  0  0  0  0  0  0
   45.1480   32.2140   41.6860 C   0  0  0  0  0  0  0  0  0  0  0  0
   44.6850   31.9730   40.3940 C   0  0  0  0  0  0  0  0  0  0  0  0
   43.3480   32.0050   40.1710 N   0  0  0  0  0  0  0  0  0  0  0  0
   42.4520   32.2600   41.1420 C   0  0  0  0  0  0  0  0  0  0  0  0
   42.8680   32.4980   42.4060 N   0  0  0  0  0  0  0  0  0  0  0  0
   40.4014   30.1490   41.1001 H   0  0  0  0  0  0  0  0  0  0  0  0
   36.8882   33.5038   39.9303 H   0  0  0  0  0  0  0  0  0  0  0  0
   37.4584   35.9409   39.6545 H   0  0  0  0  0  0  0  0  0  0  0  0
   39.7647   36.7099   39.9533 H   0  0  0  0  0  0  0  0  0  0  0  0
   41.5959   35.1447   40.5331 H   0  0  0  0  0  0  0  0  0  0  0  0
   34.9762   30.2387   38.7983 H   0  0  0  0  0  0  0  0  0  0  0  0
   35.5991   27.3061   42.3526 H   0  0  0  0  0  0  0  0  0  0  0  0
   37.3536   27.0383   44.0816 H   0  0  0  0  0  0  0  0  0  0  0  0
   39.3405   28.5573   44.1491 H   0  0  0  0  0  0  0  0  0  0  0  0
   39.4923   30.3389   42.4330 H   0  0  0  0  0  0  0  0  0  0  0  0
   44.5158   32.6759   43.7180 H   0  0  0  0  0  0  0  0  0  0  0  0
   46.2229   32.1982   41.9190 H   0  0  0  0  0  0  0  0  0  0  0  0
   45.3876   31.7618   39.5744 H   0  0  0  0  0  0  0  0  0  0  0  0
  1  2  2  0
  1 24  1  0
  3  2  1  0
  4  9  2  0
  4  3  1  0
  5  4  1  0
  6  5  2  0
  6  7  1  0
  7  8  2  0
  8  9  1  0
  9  1  1  0
 10  3  1  0
 10 19  1  0
 11 10  2  0
 12 11  1  0
 12 13  2  0
 13 14  1  0
 14 19  2  0
 14 15  1  0
 15 16  2  0
 16 17  1  0
 18 17  2  0
 19 18  1  0
 21 20  2  0
 22 21  1  0
 23 22  2  0
 23 24  1  0
 24 25  2  0
 25 20  1  0
  2 26  1  0
  5 27  1  0
  6 28  1  0
  7 29  1  0
  8 30  1  0
 12 31  1  0
 15 32  1  0
 16 33  1  0
 17 34  1  0
 18 35  1  0
 20 36  1  0
 21 37  1  0
 22 38  1  0
M  ISO  8  26  14  27  14  28  14  29  14  30  14  31  14  32  14  33  14
M  ISO  5  34  14  35  14  36  14  37  14  38  14
M  END
>  <minimizedAffinity>  (1) 
-6.52941942

>  <minimizedRMSD>  (1) 
5.1991787

$$$$
