
     RDKit          3D

 22 22  0  0  0  0  0  0  0  0999 V2000
   37.9725   28.8914   43.3689 C   0  0  0  0  0  0  0  0  0  0  0  0
   38.0881   27.4678   43.3063 C   0  0  0  0  0  0  0  0  0  0  0  0
   37.4393   26.8211   42.2568 C   0  0  0  0  0  0  0  0  0  0  0  0
   36.7234   27.5714   41.3362 N   0  0  0  0  0  0  0  0  0  0  0  0
   36.6555   28.9078   41.4542 C   0  0  0  0  0  0  0  0  0  0  0  0
   37.2728   29.5522   42.4574 N   0  0  0  0  0  0  0  0  0  0  0  0
   37.5364   25.3340   42.1573 C   0  0  0  0  0  0  0  0  0  0  0  0
   37.6608   25.0519   40.8080 F   0  0  0  0  0  0  0  0  0  0  0  0
   38.6256   24.8363   42.7929 F   0  0  0  0  0  0  0  0  0  0  0  0
   36.3715   24.7212   42.6350 F   0  0  0  0  0  0  0  0  0  0  0  0
   38.4831   29.3704   44.1898 H   0  0  0  0  0  0  0  0  0  0  0  0
   38.6527   26.8769   44.0324 H   0  0  0  0  0  0  0  0  0  0  0  0
   35.8712   29.6514   40.4330 C   0  0  0  0  0  0  0  0  0  0  0  0
   35.8509   31.1392   40.6854 C   0  0  0  0  0  0  0  0  0  0  0  0
   34.4312   29.1704   40.5460 C   0  0  0  0  0  0  0  0  0  0  0  0
   36.3035   29.4693   39.4330 H   0  0  0  0  0  0  0  0  0  0  0  0
   34.9941   31.4024   41.3555 H   0  0  0  0  0  0  0  0  0  0  0  0
   36.7917   31.5244   41.1377 H   0  0  0  0  0  0  0  0  0  0  0  0
   35.6596   31.6366   39.7024 H   0  0  0  0  0  0  0  0  0  0  0  0
   34.0888   29.4358   41.5655 H   0  0  0  0  0  0  0  0  0  0  0  0
   34.4222   28.0600   40.3729 H   0  0  0  0  0  0  0  0  0  0  0  0
   33.7831   29.6545   39.7815 H   0  0  0  0  0  0  0  0  0  0  0  0
  2  1  2  0
  3  2  1  0
  4  5  1  0
  4  3  2  0
  5  6  2  0
  6  1  1  0
  7  3  1  0
  7 10  1  0
  7  9  1  0
  8  7  1  0
  1 11  1  0
  2 12  1  0
 13 14  1  0
 13 15  1  0
 13 16  1  0
 14 17  1  0
 14 18  1  0
 14 19  1  0
 15 20  1  0
 15 21  1  0
 15 22  1  0
  5 13  1  0
M  ISO  2  11  14  12  14
M  END
>  <DihAtoms>  (1) 
3,4,12,13

>  <DihDeg>  (1) 
59.05948591243552

$$$$
