
     RDKit          3D

 22 22  0  0  0  0  0  0  0  0999 V2000
   37.9725   28.8914   43.3689 C   0  0  0  0  0  0  0  0  0  0  0  0
   38.0881   27.4678   43.3063 C   0  0  0  0  0  0  0  0  0  0  0  0
   37.4393   26.8211   42.2568 C   0  0  0  0  0  0  0  0  0  0  0  0
   36.7234   27.5714   41.3362 N   0  0  0  0  0  0  0  0  0  0  0  0
   36.6555   28.9078   41.4542 C   0  0  0  0  0  0  0  0  0  0  0  0
   37.2728   29.5522   42.4574 N   0  0  0  0  0  0  0  0  0  0  0  0
   37.5364   25.3340   42.1573 C   0  0  0  0  0  0  0  0  0  0  0  0
   37.6608   25.0519   40.8080 F   0  0  0  0  0  0  0  0  0  0  0  0
   38.6256   24.8363   42.7929 F   0  0  0  0  0  0  0  0  0  0  0  0
   36.3715   24.7212   42.6350 F   0  0  0  0  0  0  0  0  0  0  0  0
   38.4831   29.3704   44.1898 H   0  0  0  0  0  0  0  0  0  0  0  0
   38.6527   26.8769   44.0324 H   0  0  0  0  0  0  0  0  0  0  0  0
   35.8712   29.6514   40.4330 C   0  0  0  0  0  0  0  0  0  0  0  0
   36.1383   31.1365   40.4627 C   0  0  0  0  0  0  0  0  0  0  0  0
   34.4015   29.4657   40.7839 C   0  0  0  0  0  0  0  0  0  0  0  0
   36.1203   29.2684   39.4274 H   0  0  0  0  0  0  0  0  0  0  0  0
   35.4420   31.6366   41.1821 H   0  0  0  0  0  0  0  0  0  0  0  0
   37.1851   31.3926   40.7396 H   0  0  0  0  0  0  0  0  0  0  0  0
   35.8963   31.5342   39.4461 H   0  0  0  0  0  0  0  0  0  0  0  0
   34.2568   29.9156   41.7858 H   0  0  0  0  0  0  0  0  0  0  0  0
   34.1808   28.3638   40.7796 H   0  0  0  0  0  0  0  0  0  0  0  0
   33.7426   29.9630   40.0373 H   0  0  0  0  0  0  0  0  0  0  0  0
  2  1  2  0
  3  2  1  0
  4  5  1  0
  4  3  2  0
  5  6  2  0
  6  1  1  0
  7  3  1  0
  7 10  1  0
  7  9  1  0
  8  7  1  0
  1 11  1  0
  2 12  1  0
 13 14  1  0
 13 15  1  0
 13 16  1  0
 14 17  1  0
 14 18  1  0
 14 19  1  0
 15 20  1  0
 15 21  1  0
 15 22  1  0
  5 13  1  0
M  ISO  2  11  14  12  14
M  END
>  <DihAtoms>  (1) 
3,4,12,13

>  <DihDeg>  (1) 
59.05948591243552

$$$$
