
     RDKit          3D

 40 43  0  0  1  0  0  0  0  0999 V2000
   36.1700   30.7520   41.1100 C   0  0  0  0  0  0  0  0  0  0  0  0
   36.8710   29.6760   41.6850 C   0  0  0  0  0  0  0  0  0  0  0  0
   38.2620   29.6920   41.6420 C   0  0  0  0  0  0  0  0  0  0  0  0
   38.8620   30.7540   41.0460 N   0  0  0  0  0  0  0  0  0  0  0  0
   38.1650   31.7780   40.4990 C   0  0  0  0  0  0  0  0  0  0  0  0
   36.8130   31.7800   40.5300 N   0  0  0  0  0  0  0  0  0  0  0  0
   38.9990   28.5820   42.2230 C   0  0  0  0  0  0  0  0  0  0  0  0
   40.2050   28.6190   42.8970 C   0  0  0  0  0  0  0  0  0  0  0  0
   40.5290   27.3480   43.2640 N   0  0  0  0  0  0  0  0  0  0  0  0
   39.5750   26.4790   42.8550 C   0  0  0  0  0  0  0  0  0  0  0  0
   39.4140   25.1070   42.9630 C   0  0  0  0  0  0  0  0  0  0  0  0
   38.3090   24.4670   42.4330 C   0  0  0  0  0  0  0  0  0  0  0  0
   37.3800   25.2490   41.7960 C   0  0  0  0  0  0  0  0  0  0  0  0
   37.5260   26.6090   41.6820 C   0  0  0  0  0  0  0  0  0  0  0  0
   38.6230   27.2490   42.2060 C   0  0  0  0  0  0  0  0  0  0  0  0
   38.9000   32.9180   39.8650 C   0  0  1  0  0  0  0  0  0  0  0  0
   38.9730   34.2280   40.6420 C   0  0  0  0  0  0  0  0  0  0  0  0
   40.1890   33.3710   40.4640 C   0  0  2  0  0  0  0  0  0  0  0  0
   41.2960   33.8900   39.5810 C   0  0  0  0  0  0  0  0  0  0  0  0
   41.1750   35.4140   39.4390 C   0  0  0  0  0  0  0  0  0  0  0  0
   41.3070   33.3180   38.2010 C   0  0  0  0  0  0  0  0  0  0  0  0
   35.0703   30.7519   41.1357 H   0  0  0  0  0  0  0  0  0  0  0  0
   36.3321   28.8415   42.1575 H   0  0  0  0  0  0  0  0  0  0  0  0
   40.8011   29.5205   43.1019 H   0  0  0  0  0  0  0  0  0  0  0  0
   41.3805   27.0849   43.7803 H   0  0  0  0  0  0  0  0  0  0  0  0
   40.1819   24.5142   43.4816 H   0  0  0  0  0  0  0  0  0  0  0  0
   38.1807   23.3779   42.5186 H   0  0  0  0  0  0  0  0  0  0  0  0
   36.4892   24.7710   41.3625 H   0  0  0  0  0  0  0  0  0  0  0  0
   36.7532   27.1953   41.1634 H   0  0  0  0  0  0  0  0  0  0  0  0
   38.5819   32.6147   38.8566 H   0  0  0  0  0  0  0  0  0  0  0  0
   38.8924   35.1892   40.1132 H   0  0  0  0  0  0  0  0  0  0  0  0
   38.4383   34.6596   41.5010 H   0  0  0  0  0  0  0  0  0  0  0  0
   40.9186   32.8965   41.1367 H   0  0  0  0  0  0  0  0  0  0  0  0
   42.2274   33.5829   40.0791 H   0  0  0  0  0  0  0  0  0  0  0  0
   41.1385   35.8736   40.4377 H   0  0  0  0  0  0  0  0  0  0  0  0
   42.0452   35.8012   38.8888 H   0  0  0  0  0  0  0  0  0  0  0  0
   40.2546   35.6591   38.8888 H   0  0  0  0  0  0  0  0  0  0  0  0
   41.3281   32.2198   38.2595 H   0  0  0  0  0  0  0  0  0  0  0  0
   40.4025   33.6393   37.6637 H   0  0  0  0  0  0  0  0  0  0  0  0
   42.1985   33.6738   37.6637 H   0  0  0  0  0  0  0  0  0  0  0  0
  1  2  2  0
  3  2  1  0
  3  7  1  0
  4  3  2  0
  5  6  2  0
  5  4  1  0
  6  1  1  0
  7  8  2  0
  8  9  1  0
 10 11  2  0
 10  9  1  0
 12 11  1  0
 13 12  2  0
 14 13  1  0
 14 15  2  0
 15  7  1  0
 15 10  1  0
 16 18  1  0
 16  5  1  0
 16 17  1  0
 18 17  1  0
 19 18  1  0
 20 19  1  0
 21 19  1  0
  1 22  1  0
  2 23  1  0
  8 24  1  0
  9 25  1  0
 11 26  1  0
 12 27  1  0
 13 28  1  0
 14 29  1  0
 16 30  1  6
 17 31  1  0
 17 32  1  0
 18 33  1  1
 19 34  1  0
 20 35  1  0
 20 36  1  0
 20 37  1  0
 21 38  1  0
 21 39  1  0
 21 40  1  0
M  ISO  8  22  14  23  14  24  14  25   9  26  14  27  14  28  14  29  14
M  ISO  8  30  13  31  13  32  13  33  13  34   8  35   8  36   8  37   8
M  ISO  3  38   8  39   8  40   8
M  END
>  <minimizedAffinity>  (1) 
-5.60417795

>  <minimizedRMSD>  (1) 
0.957822323

$$$$
