
     RDKit          3D

 20 21  0  0  0  0  0  0  0  0999 V2000
   37.3540   30.2690   40.2930 C   0  0  0  0  0  0  0  0  0  0  0  0
   37.0010   30.0540   41.6190 C   0  0  0  0  0  0  0  0  0  0  0  0
   37.0600   28.7480   42.1130 C   0  0  0  0  0  0  0  0  0  0  0  0
   37.4600   27.7530   41.2670 N   0  0  0  0  0  0  0  0  0  0  0  0
   37.7940   28.0030   39.9860 C   0  0  0  0  0  0  0  0  0  0  0  0
   37.7450   29.2590   39.4870 N   0  0  0  0  0  0  0  0  0  0  0  0
   38.3070   26.6630   38.9350 S   0  0  0  0  0  0  0  0  0  0  0  0
   37.3000   31.6290   39.7530 C   0  0  0  0  0  0  0  0  0  0  0  0
   37.0810   31.8520   38.5560 O   0  0  0  0  0  0  0  0  0  0  0  0
   37.4980   32.7160   40.5900 O   0  0  0  0  0  0  0  0  0  0  0  0
   38.6170   33.5450   40.3780 C   0  0  0  0  0  0  0  0  0  0  0  0
   39.9430   32.9970   40.2830 C   0  0  0  0  0  0  0  0  0  0  0  0
   40.9090   34.5650   40.0130 S   0  0  0  0  0  0  0  0  0  0  0  0
   39.3440   35.6330   40.0820 C   0  0  0  0  0  0  0  0  0  0  0  0
   38.4800   34.8530   40.2600 N   0  0  0  0  0  0  0  0  0  0  0  0
   36.6839   30.8881   42.2622 H   0  0  0  0  0  0  0  0  0  0  0  0
   36.7912   28.5270   43.1565 H   0  0  0  0  0  0  0  0  0  0  0  0
   38.7116   25.6061   39.7072 H   0  0  0  0  0  0  0  0  0  0  0  0
   40.2866   31.9542   40.3503 H   0  0  0  0  0  0  0  0  0  0  0  0
   39.2623   36.7252   39.9797 H   0  0  0  0  0  0  0  0  0  0  0  0
  1  2  2  0
  2  3  1  0
  4  3  2  0
  5  4  1  0
  6  5  2  0
  6  1  1  0
  7  5  1  0
  8  1  1  0
  8 10  1  0
  9  8  2  0
 11 10  1  0
 12 11  2  0
 13 14  1  0
 13 12  1  0
 14 15  2  0
 15 11  1  0
  2 16  1  0
  3 17  1  0
  7 18  1  0
 12 19  1  0
 14 20  1  0
M  ISO  5  16  14  17  14  18  11  19  14  20  14
M  END
>  <minimizedAffinity>  (1) 
-3.76462007

>  <minimizedRMSD>  (1) 
6.43313074

$$$$
