
     RDKit          3D

 48 51  0  0  0  0  0  0  0  0999 V2000
   35.7090   29.8170   40.2030 C   0  0  0  0  0  0  0  0  0  0  0  0
   36.5720   30.4770   39.2030 C   0  0  0  0  0  0  0  0  0  0  0  0
   37.5320   31.4450   39.4450 C   0  0  0  0  0  0  0  0  0  0  0  0
   38.2970   32.0770   38.4970 C   0  0  0  0  0  0  0  0  0  0  0  0
   38.1150   31.7360   37.1790 C   0  0  0  0  0  0  0  0  0  0  0  0
   37.1790   30.7860   36.8880 C   0  0  0  0  0  0  0  0  0  0  0  0
   37.0060   30.5430   35.5610 C   0  0  0  0  0  0  0  0  0  0  0  0
   36.0650   29.6690   35.1220 C   0  0  0  0  0  0  0  0  0  0  0  0
   35.3070   29.0380   36.0720 C   0  0  0  0  0  0  0  0  0  0  0  0
   35.4760   29.2720   37.4620 C   0  0  0  0  0  0  0  0  0  0  0  0
   36.4300   30.1690   37.8600 C   0  0  0  0  0  0  0  0  0  0  0  0
   34.5810   28.5160   38.2530 C   0  0  0  0  0  0  0  0  0  0  0  0
   33.1680   28.8950   37.7160 C   0  0  0  0  0  0  0  0  0  0  0  0
   34.7260   27.0640   37.7200 C   0  0  0  0  0  0  0  0  0  0  0  0
   36.1290   30.0600   41.6270 C   0  0  0  0  0  0  0  0  0  0  0  0
   38.7900   28.0820   42.8560 C   0  0  0  0  0  0  0  0  0  0  0  0
   37.7550   27.1960   42.8920 C   0  0  0  0  0  0  0  0  0  0  0  0
   36.6310   27.8740   42.4250 C   0  0  0  0  0  0  0  0  0  0  0  0
   37.0910   29.1270   42.1430 N   0  0  0  0  0  0  0  0  0  0  0  0
   38.3360   29.2690   42.3860 N   0  0  0  0  0  0  0  0  0  0  0  0
   41.8080   26.5080   44.3890 C   0  0  0  0  0  0  0  0  0  0  0  0
   40.4690   26.6910   44.0130 C   0  0  0  0  0  0  0  0  0  0  0  0
   40.1580   27.8300   43.2620 C   0  0  0  0  0  0  0  0  0  0  0  0
   41.1360   28.7220   42.9170 N   0  0  0  0  0  0  0  0  0  0  0  0
   42.4250   28.4710   43.3250 C   0  0  0  0  0  0  0  0  0  0  0  0
   42.7500   27.3950   44.0400 N   0  0  0  0  0  0  0  0  0  0  0  0
   35.7292   28.7332   40.0163 H   0  0  0  0  0  0  0  0  0  0  0  0
   34.7029   30.2469   40.0894 H   0  0  0  0  0  0  0  0  0  0  0  0
   37.6966   31.7340   40.4935 H   0  0  0  0  0  0  0  0  0  0  0  0
   39.0374   32.8376   38.7855 H   0  0  0  0  0  0  0  0  0  0  0  0
   38.7051   32.2135   36.3829 H   0  0  0  0  0  0  0  0  0  0  0  0
   37.6408   31.0647   34.8297 H   0  0  0  0  0  0  0  0  0  0  0  0
   35.9176   29.4758   34.0492 H   0  0  0  0  0  0  0  0  0  0  0  0
   34.5378   28.3225   35.7456 H   0  0  0  0  0  0  0  0  0  0  0  0
   34.7371   28.6517   39.3334 H   0  0  0  0  0  0  0  0  0  0  0  0
   32.4904   29.0768   38.5632 H   0  0  0  0  0  0  0  0  0  0  0  0
   33.2408   29.8054   37.1029 H   0  0  0  0  0  0  0  0  0  0  0  0
   32.7754   28.0704   37.1029 H   0  0  0  0  0  0  0  0  0  0  0  0
   34.7956   26.3672   38.5683 H   0  0  0  0  0  0  0  0  0  0  0  0
   33.8488   26.8091   37.1071 H   0  0  0  0  0  0  0  0  0  0  0  0
   35.6362   26.9876   37.1071 H   0  0  0  0  0  0  0  0  0  0  0  0
   36.5650   31.0681   41.6870 H   0  0  0  0  0  0  0  0  0  0  0  0
   35.2236   29.9389   42.2398 H   0  0  0  0  0  0  0  0  0  0  0  0
   37.7986   26.1486   43.2252 H   0  0  0  0  0  0  0  0  0  0  0  0
   35.6075   27.4876   42.3101 H   0  0  0  0  0  0  0  0  0  0  0  0
   42.0890   25.6232   44.9791 H   0  0  0  0  0  0  0  0  0  0  0  0
   39.6923   25.9660   44.2979 H   0  0  0  0  0  0  0  0  0  0  0  0
   43.2162   29.1844   43.0511 H   0  0  0  0  0  0  0  0  0  0  0  0
  1 15  1  0
  2  3  2  0
  2  1  1  0
  4  3  1  0
  5  4  2  0
  6  5  1  0
  6 11  2  0
  7  6  1  0
  8  7  2  0
  8  9  1  0
  9 10  2  0
 10 11  1  0
 10 12  1  0
 11  2  1  0
 13 12  1  0
 14 12  1  0
 15 19  1  0
 16 17  1  0
 16 23  1  0
 18 17  2  0
 19 20  1  0
 19 18  1  0
 20 16  2  0
 22 21  2  0
 23 22  1  0
 24 23  2  0
 24 25  1  0
 25 26  2  0
 26 21  1  0
  1 27  1  0
  1 28  1  0
  3 29  1  0
  4 30  1  0
  5 31  1  0
  7 32  1  0
  8 33  1  0
  9 34  1  0
 12 35  1  0
 13 36  1  0
 13 37  1  0
 13 38  1  0
 14 39  1  0
 14 40  1  0
 14 41  1  0
 15 42  1  0
 15 43  1  0
 17 44  1  0
 18 45  1  0
 21 46  1  0
 22 47  1  0
 25 48  1  0
M  ISO  8  27   8  28   8  29  14  30  14  31  14  32  14  33  14  34  14
M  ISO  8  35   8  36   8  37   8  38   8  39   8  40   8  41   8  42   8
M  ISO  6  43   8  44  14  45  14  46  14  47  14  48  14
M  END
>  <minimizedAffinity>  (1) 
-5.69647217

>  <minimizedRMSD>  (1) 
1.51230061

$$$$
