
     RDKit          3D

 25 25  0  0  0  0  0  0  0  0999 V2000
   37.9707   28.8824   43.3771 C   0  0  0  0  0  0  0  0  0  0  0  0
   38.0767   27.4676   43.3095 C   0  0  0  0  0  0  0  0  0  0  0  0
   37.4334   26.8215   42.2549 C   0  0  0  0  0  0  0  0  0  0  0  0
   36.7321   27.5732   41.3362 N   0  0  0  0  0  0  0  0  0  0  0  0
   36.6610   28.9119   41.4434 C   0  0  0  0  0  0  0  0  0  0  0  0
   37.2760   29.5520   42.4552 N   0  0  0  0  0  0  0  0  0  0  0  0
   37.5233   25.3422   42.1535 C   0  0  0  0  0  0  0  0  0  0  0  0
   37.6508   25.0536   40.8037 F   0  0  0  0  0  0  0  0  0  0  0  0
   38.6312   24.8372   42.7923 F   0  0  0  0  0  0  0  0  0  0  0  0
   36.3908   24.7135   42.6473 F   0  0  0  0  0  0  0  0  0  0  0  0
   38.4694   29.3855   44.1950 H   0  0  0  0  0  0  0  0  0  0  0  0
   38.6438   26.9016   44.0590 H   0  0  0  0  0  0  0  0  0  0  0  0
   35.8740   29.6004   40.3879 C   0  0  0  0  0  0  0  0  0  0  0  0
   36.6172   29.6631   39.0790 C   0  0  0  0  0  0  0  0  0  0  0  0
   35.6357   31.0257   40.8984 C   0  0  0  0  0  0  0  0  0  0  0  0
   34.5323   28.8967   40.2498 C   0  0  0  0  0  0  0  0  0  0  0  0
   36.0554   29.0356   38.3320 H   0  0  0  0  0  0  0  0  0  0  0  0
   37.6626   29.3260   39.1310 H   0  0  0  0  0  0  0  0  0  0  0  0
   36.6048   30.6859   38.6454 H   0  0  0  0  0  0  0  0  0  0  0  0
   36.5656   31.3441   41.4507 H   0  0  0  0  0  0  0  0  0  0  0  0
   34.7525   31.0305   41.5818 H   0  0  0  0  0  0  0  0  0  0  0  0
   35.5054   31.6862   40.0166 H   0  0  0  0  0  0  0  0  0  0  0  0
   33.9596   29.1029   41.1799 H   0  0  0  0  0  0  0  0  0  0  0  0
   33.9797   29.2523   39.3582 H   0  0  0  0  0  0  0  0  0  0  0  0
   34.7418   27.8090   40.2163 H   0  0  0  0  0  0  0  0  0  0  0  0
  2  1  2  0
  3  2  1  0
  4  5  1  0
  4  3  2  0
  5  6  2  0
  6  1  1  0
  7  3  1  0
  7 10  1  0
  7  9  1  0
  8  7  1  0
  1 11  1  0
  2 12  1  0
 13 14  1  0
 13 15  1  0
 13 16  1  0
 14 17  1  0
 14 18  1  0
 14 19  1  0
 15 20  1  0
 15 21  1  0
 15 22  1  0
 16 23  1  0
 16 24  1  0
 16 25  1  0
  5 13  1  0
M  ISO  2  11  14  12  14
M  END
>  <DihAtoms>  (1) 
3,4,12,13

>  <DihDeg>  (1) 
179.996913313716

$$$$
