
     RDKit          3D

 45 48  0  0  0  0  0  0  0  0999 V2000
   44.6120   26.6750   43.8870 C   0  0  0  0  0  0  0  0  0  0  0  0
   43.3860   26.6600   43.1980 C   0  0  0  0  0  0  0  0  0  0  0  0
   42.2150   26.9090   43.9120 C   0  0  0  0  0  0  0  0  0  0  0  0
   42.3180   27.1580   45.2610 N   0  0  0  0  0  0  0  0  0  0  0  0
   43.5110   27.1620   45.8780 C   0  0  0  0  0  0  0  0  0  0  0  0
   44.6620   26.9200   45.1940 N   0  0  0  0  0  0  0  0  0  0  0  0
   43.2780   26.3970   41.7750 C   0  0  0  0  0  0  0  0  0  0  0  0
   43.6340   27.2980   40.7900 C   0  0  0  0  0  0  0  0  0  0  0  0
   43.5430   27.0740   39.4330 C   0  0  0  0  0  0  0  0  0  0  0  0
   43.0600   25.8570   39.0410 N   0  0  0  0  0  0  0  0  0  0  0  0
   42.7090   24.9670   39.9840 C   0  0  0  0  0  0  0  0  0  0  0  0
   42.8170   25.2310   41.3060 N   0  0  0  0  0  0  0  0  0  0  0  0
   43.5580   27.4400   47.3460 C   0  0  0  0  0  0  0  0  0  0  0  0
   44.3320   28.5540   47.6060 F   0  0  0  0  0  0  0  0  0  0  0  0
   42.2770   27.7780   47.8100 F   0  0  0  0  0  0  0  0  0  0  0  0
   44.0790   26.3830   48.0700 F   0  0  0  0  0  0  0  0  0  0  0  0
   41.0270   26.8940   43.2400 O   0  0  0  0  0  0  0  0  0  0  0  0
   37.1330   29.1840   43.4780 N   0  0  0  0  0  0  0  0  0  0  0  0
   37.0400   27.9640   44.0580 C   0  0  0  0  0  0  0  0  0  0  0  0
   38.2390   27.3680   43.9360 N   0  0  0  0  0  0  0  0  0  0  0  0
   39.1180   28.1820   43.2820 C   0  0  0  0  0  0  0  0  0  0  0  0
   40.4350   28.0810   42.8980 C   0  0  0  0  0  0  0  0  0  0  0  0
   41.0090   29.1250   42.2400 N   0  0  0  0  0  0  0  0  0  0  0  0
   40.2750   30.2330   41.9820 C   0  0  0  0  0  0  0  0  0  0  0  0
   38.9820   30.3650   42.3450 N   0  0  0  0  0  0  0  0  0  0  0  0
   38.3740   29.3340   43.0070 C   0  0  0  0  0  0  0  0  0  0  0  0
   40.9420   31.3550   41.2590 C   0  0  0  0  0  0  0  0  0  0  0  0
   42.0400   31.8490   42.2110 C   0  0  0  0  0  0  0  0  0  0  0  0
   41.5940   30.8920   39.9800 C   0  0  0  0  0  0  0  0  0  0  0  0
   40.0350   32.4950   40.9430 C   0  0  0  0  0  0  0  0  0  0  0  0
   45.5445   26.4811   43.3367 H   0  0  0  0  0  0  0  0  0  0  0  0
   44.0220   28.2745   41.1155 H   0  0  0  0  0  0  0  0  0  0  0  0
   43.8445   27.8377   38.7010 H   0  0  0  0  0  0  0  0  0  0  0  0
   42.3195   23.9876   39.6694 H   0  0  0  0  0  0  0  0  0  0  0  0
   36.3754   29.8786   43.4113 H   0  0  0  0  0  0  0  0  0  0  0  0
   36.1475   27.5387   44.5403 H   0  0  0  0  0  0  0  0  0  0  0  0
   41.7157   31.7031   43.2519 H   0  0  0  0  0  0  0  0  0  0  0  0
   42.9641   31.2799   42.0317 H   0  0  0  0  0  0  0  0  0  0  0  0
   42.2271   32.9180   42.0317 H   0  0  0  0  0  0  0  0  0  0  0  0
   42.4695   30.2703   40.2189 H   0  0  0  0  0  0  0  0  0  0  0  0
   40.8740   30.3017   39.3942 H   0  0  0  0  0  0  0  0  0  0  0  0
   41.9140   31.7663   39.3942 H   0  0  0  0  0  0  0  0  0  0  0  0
   39.6750   32.9474   41.8788 H   0  0  0  0  0  0  0  0  0  0  0  0
   40.5832   33.2486   40.3585 H   0  0  0  0  0  0  0  0  0  0  0  0
   39.1775   32.1302   40.3585 H   0  0  0  0  0  0  0  0  0  0  0  0
  1  6  2  0
  2  1  1  0
  2  3  2  0
  3  4  1  0
  4  5  2  0
  5 13  1  0
  6  5  1  0
  7  2  1  0
  8  7  2  0
  9  8  1  0
 10  9  2  0
 10 11  1  0
 11 12  2  0
 12  7  1  0
 13 14  1  0
 13 15  1  0
 13 16  1  0
 17  3  1  0
 18 19  1  0
 20 19  2  0
 21 20  1  0
 22 17  1  0
 22 21  2  0
 23 22  1  0
 24 23  2  0
 24 25  1  0
 25 26  2  0
 26 21  1  0
 26 18  1  0
 27 24  1  0
 27 28  1  0
 29 27  1  0
 30 27  1  0
  1 31  1  0
  8 32  1  0
  9 33  1  0
 11 34  1  0
 18 35  1  0
 19 36  1  0
 28 37  1  0
 28 38  1  0
 28 39  1  0
 29 40  1  0
 29 41  1  0
 29 42  1  0
 30 43  1  0
 30 44  1  0
 30 45  1  0
M  ISO  8  31  14  32  14  33  14  34  14  35   9  36  14  37   8  38   8
M  ISO  7  39   8  40   8  41   8  42   8  43   8  44   8  45   8
M  END
>  <minimizedAffinity>  (1) 
-5.6672864

>  <minimizedRMSD>  (1) 
0.84907347

$$$$
