
     RDKit          3D

 48 52  0  0  1  0  0  0  0  0999 V2000
   35.9520   30.5470   40.8570 C   0  0  0  0  0  0  0  0  0  0  0  0
   36.4680   29.3920   41.4830 C   0  0  0  0  0  0  0  0  0  0  0  0
   37.8350   29.2490   41.5830 C   0  0  0  0  0  0  0  0  0  0  0  0
   38.5820   30.2530   41.0630 N   0  0  0  0  0  0  0  0  0  0  0  0
   38.0910   31.3550   40.4670 C   0  0  0  0  0  0  0  0  0  0  0  0
   36.7560   31.4950   40.3660 N   0  0  0  0  0  0  0  0  0  0  0  0
   38.3720   28.0690   42.2020 C   0  0  0  0  0  0  0  0  0  0  0  0
   39.3280   28.0000   43.2090 C   0  0  0  0  0  0  0  0  0  0  0  0
   39.5510   26.6920   43.5050 N   0  0  0  0  0  0  0  0  0  0  0  0
   38.7880   25.9000   42.7430 C   0  0  0  0  0  0  0  0  0  0  0  0
   38.6360   24.5430   42.6460 C   0  0  0  0  0  0  0  0  0  0  0  0
   37.7320   23.9740   41.7240 C   0  0  0  0  0  0  0  0  0  0  0  0
   37.0120   24.8460   40.9250 C   0  0  0  0  0  0  0  0  0  0  0  0
   37.1790   26.1980   41.0360 C   0  0  0  0  0  0  0  0  0  0  0  0
   38.0540   26.7560   41.9290 C   0  0  0  0  0  0  0  0  0  0  0  0
   39.0160   32.4180   39.9530 C   0  0  1  0  0  0  0  0  0  0  0  0
   39.0260   33.7560   40.7160 C   0  0  0  0  0  0  0  0  0  0  0  0
   40.1680   32.8190   40.7940 C   0  0  2  0  0  0  0  0  0  0  0  0
   41.4720   33.1320   40.1750 C   0  0  0  0  0  0  0  0  0  0  0  0
   42.1530   34.2970   40.2740 N   0  0  0  0  0  0  0  0  0  0  0  0
   43.2590   34.1940   39.5720 O   0  0  0  0  0  0  0  0  0  0  0  0
   43.3340   33.0140   39.0130 C   0  0  0  0  0  0  0  0  0  0  0  0
   42.2090   32.3350   39.3890 N   0  0  0  0  0  0  0  0  0  0  0  0
   44.3760   32.4160   38.1310 C   0  0  0  0  0  0  0  0  0  0  0  0
   45.2920   33.4870   37.6200 C   0  0  0  0  0  0  0  0  0  0  0  0
   43.7560   31.6790   36.9580 C   0  0  0  0  0  0  0  0  0  0  0  0
   45.1860   31.4330   38.9400 C   0  0  0  0  0  0  0  0  0  0  0  0
   34.8622   30.6698   40.7712 H   0  0  0  0  0  0  0  0  0  0  0  0
   35.7925   28.6215   41.8830 H   0  0  0  0  0  0  0  0  0  0  0  0
   39.8213   28.8596   43.6862 H   0  0  0  0  0  0  0  0  0  0  0  0
   40.2154   26.3571   44.2173 H   0  0  0  0  0  0  0  0  0  0  0  0
   39.2289   23.8848   43.2981 H   0  0  0  0  0  0  0  0  0  0  0  0
   37.6047   22.8844   41.6435 H   0  0  0  0  0  0  0  0  0  0  0  0
   36.2966   24.4456   40.1916 H   0  0  0  0  0  0  0  0  0  0  0  0
   36.5899   26.8609   40.3852 H   0  0  0  0  0  0  0  0  0  0  0  0
   38.8916   32.0979   38.9080 H   0  0  0  0  0  0  0  0  0  0  0  0
   39.1249   34.7048   40.1683 H   0  0  0  0  0  0  0  0  0  0  0  0
   38.3648   34.2503   41.4430 H   0  0  0  0  0  0  0  0  0  0  0  0
   40.7064   32.3549   41.6335 H   0  0  0  0  0  0  0  0  0  0  0  0
   45.7458   34.0176   38.4700 H   0  0  0  0  0  0  0  0  0  0  0  0
   46.0837   33.0309   37.0075 H   0  0  0  0  0  0  0  0  0  0  0  0
   44.7186   34.1984   37.0075 H   0  0  0  0  0  0  0  0  0  0  0  0
   43.0902   30.8876   37.3327 H   0  0  0  0  0  0  0  0  0  0  0  0
   43.1769   32.3858   36.3456 H   0  0  0  0  0  0  0  0  0  0  0  0
   44.5515   31.2294   36.3456 H   0  0  0  0  0  0  0  0  0  0  0  0
   45.0292   31.6232   40.0120 H   0  0  0  0  0  0  0  0  0  0  0  0
   44.8665   30.4084   38.6989 H   0  0  0  0  0  0  0  0  0  0  0  0
   46.2528   31.5507   38.6989 H   0  0  0  0  0  0  0  0  0  0  0  0
  1  2  2  0
  2  3  1  0
  3  7  1  0
  4  3  2  0
  5  4  1  0
  6  5  2  0
  6  1  1  0
  7  8  2  0
  8  9  1  0
 10  9  1  0
 11 10  2  0
 12 11  1  0
 13 14  1  0
 13 12  2  0
 14 15  2  0
 15  7  1  0
 15 10  1  0
 16  5  1  0
 16 17  1  0
 16 18  1  0
 17 18  1  0
 19 20  2  0
 19 18  1  0
 21 20  1  0
 22 23  2  0
 22 21  1  0
 23 19  1  0
 24 27  1  0
 24 22  1  0
 25 24  1  0
 26 24  1  0
  1 28  1  0
  2 29  1  0
  8 30  1  0
  9 31  1  0
 11 32  1  0
 12 33  1  0
 13 34  1  0
 14 35  1  0
 16 36  1  6
 17 37  1  0
 17 38  1  0
 18 39  1  1
 25 40  1  0
 25 41  1  0
 25 42  1  0
 26 43  1  0
 26 44  1  0
 26 45  1  0
 27 46  1  0
 27 47  1  0
 27 48  1  0
M  ISO  8  28  14  29  14  30  14  31   9  32  14  33  14  34  14  35  14
M  ISO  8  36  13  37  13  38  13  39  13  40   8  41   8  42   8  43   8
M  ISO  5  44   8  45   8  46   8  47   8  48   8
M  END
>  <minimizedAffinity>  (1) 
-6.01637697

>  <minimizedRMSD>  (1) 
1.43618619

$$$$
