
     RDKit          3D

 28 29  0  0  0  0  0  0  0  0999 V2000
   36.3690   30.7150   41.3890 O   0  0  0  0  0  0  0  0  0  0  0  0
   37.8920   28.0310   43.3020 C   0  0  0  0  0  0  0  0  0  0  0  0
   37.6160   26.9450   42.4620 C   0  0  0  0  0  0  0  0  0  0  0  0
   36.9040   27.2340   41.2620 C   0  0  0  0  0  0  0  0  0  0  0  0
   36.5410   28.5340   41.0130 N   0  0  0  0  0  0  0  0  0  0  0  0
   36.8440   29.5200   41.8750 C   0  0  0  0  0  0  0  0  0  0  0  0
   37.5210   29.2770   43.0230 N   0  0  0  0  0  0  0  0  0  0  0  0
   37.1880   31.5010   40.5860 C   0  0  0  0  0  0  0  0  0  0  0  0
   36.9850   31.9640   39.3320 N   0  0  0  0  0  0  0  0  0  0  0  0
   38.0200   32.6720   38.9470 O   0  0  0  0  0  0  0  0  0  0  0  0
   38.8780   32.6640   39.9460 C   0  0  0  0  0  0  0  0  0  0  0  0
   38.4020   31.9440   40.9930 N   0  0  0  0  0  0  0  0  0  0  0  0
   40.1680   33.4100   39.7680 C   0  0  0  0  0  0  0  0  0  0  0  0
   40.7740   33.1800   38.4130 C   0  0  0  0  0  0  0  0  0  0  0  0
   41.1990   32.9500   40.7930 C   0  0  0  0  0  0  0  0  0  0  0  0
   39.9490   34.8990   39.9830 C   0  0  0  0  0  0  0  0  0  0  0  0
   38.4415   27.8445   44.2365 H   0  0  0  0  0  0  0  0  0  0  0  0
   37.9323   25.9224   42.7153 H   0  0  0  0  0  0  0  0  0  0  0  0
   36.6510   26.4334   40.5513 H   0  0  0  0  0  0  0  0  0  0  0  0
   41.7966   32.7919   38.5298 H   0  0  0  0  0  0  0  0  0  0  0  0
   40.1659   32.4501   37.8585 H   0  0  0  0  0  0  0  0  0  0  0  0
   40.8033   34.1295   37.8585 H   0  0  0  0  0  0  0  0  0  0  0  0
   40.8103   33.1234   41.8073 H   0  0  0  0  0  0  0  0  0  0  0  0
   41.3993   31.8772   40.6556 H   0  0  0  0  0  0  0  0  0  0  0  0
   42.1312   33.5176   40.6556 H   0  0  0  0  0  0  0  0  0  0  0  0
   39.9175   35.1130   41.0615 H   0  0  0  0  0  0  0  0  0  0  0  0
   40.7741   35.4614   39.5215 H   0  0  0  0  0  0  0  0  0  0  0  0
   38.9969   35.2000   39.5215 H   0  0  0  0  0  0  0  0  0  0  0  0
  1  6  1  0
  3  2  2  0
  4  3  1  0
  5  4  2  0
  5  6  1  0
  6  7  2  0
  7  2  1  0
  8 12  1  0
  8  1  1  0
  9  8  2  0
 10  9  1  0
 10 11  1  0
 11 12  2  0
 13 11  1  0
 13 16  1  0
 13 15  1  0
 14 13  1  0
  2 17  1  0
  3 18  1  0
  4 19  1  0
 14 20  1  0
 14 21  1  0
 14 22  1  0
 15 23  1  0
 15 24  1  0
 15 25  1  0
 16 26  1  0
 16 27  1  0
 16 28  1  0
M  ISO  8  17  14  18  14  19  14  20   8  21   8  22   8  23   8  24   8
M  ISO  4  25   8  26   8  27   8  28   8
M  END
>  <minimizedAffinity>  (1) 
-4.25297689

>  <minimizedRMSD>  (1) 
1.81456757

$$$$
