
     RDKit          3D

 25 25  0  0  0  0  0  0  0  0999 V2000
   37.9707   28.8824   43.3771 C   0  0  0  0  0  0  0  0  0  0  0  0
   38.0767   27.4676   43.3095 C   0  0  0  0  0  0  0  0  0  0  0  0
   37.4334   26.8215   42.2549 C   0  0  0  0  0  0  0  0  0  0  0  0
   36.7321   27.5732   41.3362 N   0  0  0  0  0  0  0  0  0  0  0  0
   36.6610   28.9119   41.4434 C   0  0  0  0  0  0  0  0  0  0  0  0
   37.2760   29.5520   42.4552 N   0  0  0  0  0  0  0  0  0  0  0  0
   37.5233   25.3422   42.1535 C   0  0  0  0  0  0  0  0  0  0  0  0
   37.6508   25.0536   40.8037 F   0  0  0  0  0  0  0  0  0  0  0  0
   38.6312   24.8372   42.7923 F   0  0  0  0  0  0  0  0  0  0  0  0
   36.3908   24.7135   42.6473 F   0  0  0  0  0  0  0  0  0  0  0  0
   38.4694   29.3855   44.1950 H   0  0  0  0  0  0  0  0  0  0  0  0
   38.6438   26.9016   44.0590 H   0  0  0  0  0  0  0  0  0  0  0  0
   35.8740   29.6004   40.3879 C   0  0  0  0  0  0  0  0  0  0  0  0
   34.5320   30.0616   40.8937 C   0  0  0  0  0  0  0  0  0  0  0  0
   35.6631   28.5681   39.2749 C   0  0  0  0  0  0  0  0  0  0  0  0
   36.7043   30.7514   39.8402 C   0  0  0  0  0  0  0  0  0  0  0  0
   34.5243   31.1872   40.8770 H   0  0  0  0  0  0  0  0  0  0  0  0
   34.2778   29.7064   41.9029 H   0  0  0  0  0  0  0  0  0  0  0  0
   33.7089   29.7696   40.2069 H   0  0  0  0  0  0  0  0  0  0  0  0
   35.5144   27.5663   39.7703 H   0  0  0  0  0  0  0  0  0  0  0  0
   36.5627   28.5490   38.6134 H   0  0  0  0  0  0  0  0  0  0  0  0
   34.7323   28.8359   38.7338 H   0  0  0  0  0  0  0  0  0  0  0  0
   37.5545   30.3026   39.2821 H   0  0  0  0  0  0  0  0  0  0  0  0
   36.1012   31.4068   39.1818 H   0  0  0  0  0  0  0  0  0  0  0  0
   37.1212   31.2912   40.7137 H   0  0  0  0  0  0  0  0  0  0  0  0
  2  1  2  0
  3  2  1  0
  4  5  1  0
  4  3  2  0
  5  6  2  0
  6  1  1  0
  7  3  1  0
  7 10  1  0
  7  9  1  0
  8  7  1  0
  1 11  1  0
  2 12  1  0
 13 14  1  0
 13 15  1  0
 13 16  1  0
 14 17  1  0
 14 18  1  0
 14 19  1  0
 15 20  1  0
 15 21  1  0
 15 22  1  0
 16 23  1  0
 16 24  1  0
 16 25  1  0
  5 13  1  0
M  ISO  2  11  14  12  14
M  END
>  <DihAtoms>  (1) 
3,4,12,13

>  <DihDeg>  (1) 
179.996913313716

$$$$
