
     RDKit          3D

 42 44  0  0  1  0  0  0  0  0999 V2000
   37.8300   30.1760   39.3920 N   0  0  0  0  0  0  0  0  0  0  0  0
   37.7800   29.4800   38.0620 C   0  0  0  0  0  0  0  0  0  0  0  0
   39.0410   28.8020   37.6890 C   0  0  0  0  0  0  0  0  0  0  0  0
   40.1500   29.5100   38.1010 O   0  0  0  0  0  0  0  0  0  0  0  0
   39.7340   30.8530   38.1400 C   0  0  0  0  0  0  0  0  0  0  0  0
   38.7900   31.1280   39.3210 C   0  0  1  0  0  0  0  0  0  0  0  0
   35.8280   29.4000   40.8260 C   0  0  1  0  0  0  0  0  0  0  0  0
   36.0860   30.8360   41.1030 C   0  0  0  0  0  0  0  0  0  0  0  0
   36.5190   30.3560   39.8320 C   0  0  1  0  0  0  0  0  0  0  0  0
   38.0420   27.9300   43.3610 C   0  0  0  0  0  0  0  0  0  0  0  0
   38.2090   26.6050   42.8740 C   0  0  0  0  0  0  0  0  0  0  0  0
   37.5510   26.2540   41.6560 C   0  0  0  0  0  0  0  0  0  0  0  0
   36.7890   27.2210   41.0180 N   0  0  0  0  0  0  0  0  0  0  0  0
   36.6860   28.4350   41.5430 C   0  0  0  0  0  0  0  0  0  0  0  0
   37.2890   28.8030   42.6860 N   0  0  0  0  0  0  0  0  0  0  0  0
   38.8070   32.5750   39.5090 C   0  0  0  0  0  0  0  0  0  0  0  0
   40.0760   33.2910   39.1060 C   0  0  0  0  0  0  0  0  0  0  0  0
   38.8800   32.9150   41.0660 C   0  0  0  0  0  0  0  0  0  0  0  0
   37.5250   33.3250   39.3150 C   0  0  0  0  0  0  0  0  0  0  0  0
   36.9793   28.7265   38.0959 H   0  0  0  0  0  0  0  0  0  0  0  0
   37.6000   30.2562   37.3036 H   0  0  0  0  0  0  0  0  0  0  0  0
   39.0610   27.8068   38.1572 H   0  0  0  0  0  0  0  0  0  0  0  0
   39.0744   28.7267   36.5921 H   0  0  0  0  0  0  0  0  0  0  0  0
   40.6206   31.4970   38.2363 H   0  0  0  0  0  0  0  0  0  0  0  0
   39.1868   31.0668   37.2100 H   0  0  0  0  0  0  0  0  0  0  0  0
   38.9416   30.9283   40.3920 H   0  0  0  0  0  0  0  0  0  0  0  0
   34.9592   28.7257   40.8061 H   0  0  0  0  0  0  0  0  0  0  0  0
   35.2386   31.5354   41.1545 H   0  0  0  0  0  0  0  0  0  0  0  0
   36.5946   31.3662   41.9217 H   0  0  0  0  0  0  0  0  0  0  0  0
   36.3597   30.7043   38.8008 H   0  0  0  0  0  0  0  0  0  0  0  0
   38.5339   28.2372   44.2957 H   0  0  0  0  0  0  0  0  0  0  0  0
   38.8251   25.8737   43.4177 H   0  0  0  0  0  0  0  0  0  0  0  0
   37.6463   25.2423   41.2347 H   0  0  0  0  0  0  0  0  0  0  0  0
   40.6246   33.6005   40.0078 H   0  0  0  0  0  0  0  0  0  0  0  0
   40.7047   32.6145   38.5085 H   0  0  0  0  0  0  0  0  0  0  0  0
   39.8220   34.1790   38.5085 H   0  0  0  0  0  0  0  0  0  0  0  0
   38.6843   32.0035   41.6499 H   0  0  0  0  0  0  0  0  0  0  0  0
   39.8811   33.2994   41.3108 H   0  0  0  0  0  0  0  0  0  0  0  0
   38.1249   33.6765   41.3108 H   0  0  0  0  0  0  0  0  0  0  0  0
   37.0952   33.5764   40.2959 H   0  0  0  0  0  0  0  0  0  0  0  0
   37.7227   34.2499   38.7533 H   0  0  0  0  0  0  0  0  0  0  0  0
   36.8156   32.6995   38.7533 H   0  0  0  0  0  0  0  0  0  0  0  0
  1  2  1  0
  1  9  1  0
  3  2  1  0
  3  4  1  0
  4  5  1  0
  5  6  1  0
  6  1  1  0
  6 16  1  0
  7  8  1  0
  7 14  1  0
  9  7  1  0
  9  8  1  0
 11 10  2  0
 12 11  1  0
 13 14  1  0
 13 12  2  0
 14 15  2  0
 15 10  1  0
 16 18  1  0
 17 16  1  0
 19 16  1  0
  2 20  1  0
  2 21  1  0
  3 22  1  0
  3 23  1  0
  5 24  1  0
  5 25  1  0
  6 26  1  1
  7 27  1  6
  8 28  1  0
  8 29  1  0
  9 30  1  6
 10 31  1  0
 11 32  1  0
 12 33  1  0
 17 34  1  0
 17 35  1  0
 17 36  1  0
 18 37  1  0
 18 38  1  0
 18 39  1  0
 19 40  1  0
 19 41  1  0
 19 42  1  0
M  ISO  8  20  13  21  13  22  13  23  13  24  13  25  13  26  13  27  13
M  ISO  8  28  13  29  13  30  13  31  14  32  14  33  14  34   8  35   8
M  ISO  7  36   8  37   8  38   8  39   8  40   8  41   8  42   8
M  END
>  <minimizedAffinity>  (1) 
-4.57692194

>  <minimizedRMSD>  (1) 
1.31973326

$$$$
