
     RDKit          3D

 44 48  0  0  0  0  0  0  0  0999 V2000
   38.1530   28.4670   41.4400 C   0  0  0  0  0  0  0  0  0  0  0  0
   37.4830   29.6310   41.0580 C   0  0  0  0  0  0  0  0  0  0  0  0
   38.2960   30.6670   41.3330 N   0  0  0  0  0  0  0  0  0  0  0  0
   39.4510   30.2530   41.8710 C   0  0  0  0  0  0  0  0  0  0  0  0
   40.5370   30.9890   42.2890 C   0  0  0  0  0  0  0  0  0  0  0  0
   41.6170   30.2950   42.8140 C   0  0  0  0  0  0  0  0  0  0  0  0
   41.5830   28.9140   42.9050 C   0  0  0  0  0  0  0  0  0  0  0  0
   40.4910   28.1810   42.4840 C   0  0  0  0  0  0  0  0  0  0  0  0
   39.3980   28.8640   41.9530 C   0  0  0  0  0  0  0  0  0  0  0  0
   36.9560   25.1650   42.4390 C   0  0  0  0  0  0  0  0  0  0  0  0
   36.7700   24.5070   41.1850 C   0  0  0  0  0  0  0  0  0  0  0  0
   37.0670   25.2310   40.0010 C   0  0  0  0  0  0  0  0  0  0  0  0
   37.5060   26.4970   40.1550 N   0  0  0  0  0  0  0  0  0  0  0  0
   37.6750   27.0950   41.3350 C   0  0  0  0  0  0  0  0  0  0  0  0
   37.4010   26.4360   42.4890 N   0  0  0  0  0  0  0  0  0  0  0  0
   37.8710   32.0140   41.0460 C   0  0  0  0  0  0  0  0  0  0  0  0
   37.7090   32.2720   39.5670 C   0  0  0  0  0  0  0  0  0  0  0  0
   39.0230   32.4530   38.9850 N   0  0  0  0  0  0  0  0  0  0  0  0
   39.6800   31.7930   38.0200 C   0  0  0  0  0  0  0  0  0  0  0  0
   40.8950   32.3670   37.8470 N   0  0  0  0  0  0  0  0  0  0  0  0
   40.9770   33.3880   38.7170 C   0  0  0  0  0  0  0  0  0  0  0  0
   41.9960   34.2990   38.9570 C   0  0  0  0  0  0  0  0  0  0  0  0
   43.0930   34.2990   38.3350 O   0  0  0  0  0  0  0  0  0  0  0  0
   41.8310   35.2420   39.8970 N   0  0  0  0  0  0  0  0  0  0  0  0
   40.6890   35.2940   40.5910 C   0  0  0  0  0  0  0  0  0  0  0  0
   40.3530   36.2340   41.6270 N   0  0  0  0  0  0  0  0  0  0  0  0
   39.6980   34.4270   40.3750 N   0  0  0  0  0  0  0  0  0  0  0  0
   39.7920   33.4580   39.4510 C   0  0  0  0  0  0  0  0  0  0  0  0
   36.4779   29.6899   40.6149 H   0  0  0  0  0  0  0  0  0  0  0  0
   40.5477   32.0861   42.2096 H   0  0  0  0  0  0  0  0  0  0  0  0
   42.5049   30.8446   43.1598 H   0  0  0  0  0  0  0  0  0  0  0  0
   42.4513   28.3851   43.3250 H   0  0  0  0  0  0  0  0  0  0  0  0
   40.4838   27.0841   42.5657 H   0  0  0  0  0  0  0  0  0  0  0  0
   36.7337   24.6288   43.3734 H   0  0  0  0  0  0  0  0  0  0  0  0
   36.4072   23.4696   41.1383 H   0  0  0  0  0  0  0  0  0  0  0  0
   36.9449   24.7809   39.0048 H   0  0  0  0  0  0  0  0  0  0  0  0
   36.9053   32.1914   41.5419 H   0  0  0  0  0  0  0  0  0  0  0  0
   38.6509   32.6946   41.4182 H   0  0  0  0  0  0  0  0  0  0  0  0
   37.2084   31.4145   39.0935 H   0  0  0  0  0  0  0  0  0  0  0  0
   37.0985   33.1728   39.4064 H   0  0  0  0  0  0  0  0  0  0  0  0
   39.2955   30.9274   37.4606 H   0  0  0  0  0  0  0  0  0  0  0  0
   42.5808   35.9231   40.0834 H   0  0  0  0  0  0  0  0  0  0  0  0
   39.4375   36.1783   42.0958 H   0  0  0  0  0  0  0  0  0  0  0  0
   41.0279   36.9626   41.8999 H   0  0  0  0  0  0  0  0  0  0  0  0
  1  9  1  0
  2  3  1  0
  2  1  2  0
  3  4  1  0
  4  9  2  0
  4  5  1  0
  5  6  2  0
  6  7  1  0
  8  7  2  0
  9  8  1  0
 10 15  2  0
 11 10  1  0
 12 13  1  0
 12 11  2  0
 13 14  2  0
 14  1  1  0
 14 15  1  0
 16  3  1  0
 17 16  1  0
 18 28  1  0
 18 17  1  0
 19 18  1  0
 20 19  2  0
 20 21  1  0
 21 22  1  0
 21 28  2  0
 22 24  1  0
 23 22  2  0
 24 25  1  0
 25 26  1  0
 27 25  2  0
 28 27  1  0
  2 29  1  0
  5 30  1  0
  6 31  1  0
  7 32  1  0
  8 33  1  0
 10 34  1  0
 11 35  1  0
 12 36  1  0
 16 37  1  0
 16 38  1  0
 17 39  1  0
 17 40  1  0
 19 41  1  0
 24 42  1  0
 26 43  1  0
 26 44  1  0
M  ISO  8  29  14  30  14  31  14  32  14  33  14  34  14  35  14  36  14
M  ISO  6  37   8  38   8  39   8  40   8  41  14  42   9
M  END
>  <minimizedAffinity>  (1) 
-6.22092581

>  <minimizedRMSD>  (1) 
7.58798885

$$$$
