
     RDKit          3D

 26 28  0  0  0  0  0  0  0  0999 V2000
   37.9688   28.8846   43.3820 C   0  0  0  0  0  0  0  0  0  0  0  0
   38.0801   27.4731   43.3135 C   0  0  0  0  0  0  0  0  0  0  0  0
   37.4350   26.8215   42.2464 C   0  0  0  0  0  0  0  0  0  0  0  0
   36.7390   27.5718   41.3361 N   0  0  0  0  0  0  0  0  0  0  0  0
   36.6643   28.9125   41.4474 C   0  0  0  0  0  0  0  0  0  0  0  0
   37.2688   29.5474   42.4513 N   0  0  0  0  0  0  0  0  0  0  0  0
   37.5295   25.3428   42.1418 C   0  0  0  0  0  0  0  0  0  0  0  0
   37.6424   25.0542   40.8057 F   0  0  0  0  0  0  0  0  0  0  0  0
   38.6285   24.8349   42.7960 F   0  0  0  0  0  0  0  0  0  0  0  0
   36.3895   24.7122   42.6528 F   0  0  0  0  0  0  0  0  0  0  0  0
   38.4696   29.3629   44.2058 H   0  0  0  0  0  0  0  0  0  0  0  0
   38.6499   26.9285   44.0703 H   0  0  0  0  0  0  0  0  0  0  0  0
   35.9561   29.7260   40.5295 N   0  0  0  0  0  0  0  0  0  0  0  0
   34.6748   30.1669   40.5316 C   0  0  0  0  0  0  0  0  0  0  0  0
   34.4306   30.9260   39.4433 N   0  0  0  0  0  0  0  0  0  0  0  0
   35.5672   30.9791   38.7250 C   0  0  0  0  0  0  0  0  0  0  0  0
   35.9055   31.6015   37.5329 C   0  0  0  0  0  0  0  0  0  0  0  0
   34.8723   32.3516   36.8979 N   0  0  0  0  0  0  0  0  0  0  0  0
   37.1351   31.5166   36.9854 N   0  0  0  0  0  0  0  0  0  0  0  0
   38.0354   30.7816   37.6698 C   0  0  0  0  0  0  0  0  0  0  0  0
   37.7664   30.1491   38.8395 N   0  0  0  0  0  0  0  0  0  0  0  0
   36.5278   30.2262   39.4046 C   0  0  0  0  0  0  0  0  0  0  0  0
   34.0134   29.8881   41.3495 H   0  0  0  0  0  0  0  0  0  0  0  0
   35.2236   33.3537   36.8868 H   0  0  0  0  0  0  0  0  0  0  0  0
   33.9713   32.0077   36.5243 H   0  0  0  0  0  0  0  0  0  0  0  0
   39.0293   30.7090   37.2337 H   0  0  0  0  0  0  0  0  0  0  0  0
  2  1  2  0
  3  2  1  0
  4  5  1  0
  4  3  2  0
  5  6  2  0
  6  1  1  0
  7  3  1  0
  7 10  1  0
  7  9  1  0
  8  7  1  0
  1 11  1  0
  2 12  1  0
 13 14  1  0
 14 15  2  0
 15 16  1  0
 16 17  2  0
 17 18  1  0
 17 19  1  0
 19 20  2  0
 20 21  1  0
 21 22  2  0
 22 13  1  0
 22 16  1  0
 14 23  1  0
 18 24  1  0
 18 25  1  0
 20 26  1  0
  5 13  1  0
M  ISO  2  11  14  12  14
M  END
>  <DihAtoms>  (1) 
3,4,12,13

>  <DihDeg>  (1) 
76.52883442273158

$$$$
