
     RDKit          3D

 43 47  0  0  1  0  0  0  0  0999 V2000
   38.3340   30.5100   40.6510 N   0  0  0  0  0  0  0  0  0  0  0  0
   36.9610   31.0580   40.8060 C   0  0  0  0  0  0  0  0  0  0  0  0
   36.0220   30.4960   39.7830 C   0  0  0  0  0  0  0  0  0  0  0  0
   36.6110   30.4520   38.5230 O   0  0  0  0  0  0  0  0  0  0  0  0
   37.6170   31.3860   38.4950 C   0  0  0  0  0  0  0  0  0  0  0  0
   38.8030   30.9600   39.3940 C   0  0  1  0  0  0  0  0  0  0  0  0
   39.7480   32.0560   39.4170 N   0  0  0  0  0  0  0  0  0  0  0  0
   41.0930   32.0680   39.2550 C   0  0  0  0  0  0  0  0  0  0  0  0
   41.5880   33.3130   39.3580 N   0  0  0  0  0  0  0  0  0  0  0  0
   40.5490   34.1350   39.5940 C   0  0  0  0  0  0  0  0  0  0  0  0
   40.3620   35.4960   39.7970 C   0  0  0  0  0  0  0  0  0  0  0  0
   39.1330   36.0220   40.0160 N   0  0  0  0  0  0  0  0  0  0  0  0
   38.0510   35.2260   40.0430 C   0  0  0  0  0  0  0  0  0  0  0  0
   38.1780   33.9020   39.8530 N   0  0  0  0  0  0  0  0  0  0  0  0
   39.4060   33.3640   39.6320 C   0  0  0  0  0  0  0  0  0  0  0  0
   41.5000   36.3440   39.7690 N   0  0  0  0  0  0  0  0  0  0  0  0
   39.0790   29.8620   43.0430 C   0  0  1  0  0  0  0  0  0  0  0  0
   40.3010   30.0620   42.2320 C   0  0  0  0  0  0  0  0  0  0  0  0
   39.0970   30.7710   41.7930 C   0  0  1  0  0  0  0  0  0  0  0  0
   38.5100   26.3210   42.2160 C   0  0  0  0  0  0  0  0  0  0  0  0
   37.1870   26.1030   42.6800 C   0  0  0  0  0  0  0  0  0  0  0  0
   36.5080   27.2100   43.2680 C   0  0  0  0  0  0  0  0  0  0  0  0
   37.1630   28.4320   43.3570 N   0  0  0  0  0  0  0  0  0  0  0  0
   38.4090   28.5460   42.8940 C   0  0  0  0  0  0  0  0  0  0  0  0
   39.0910   27.5240   42.3300 N   0  0  0  0  0  0  0  0  0  0  0  0
   36.5876   30.8058   41.8095 H   0  0  0  0  0  0  0  0  0  0  0  0
   37.0087   32.1480   40.6659 H   0  0  0  0  0  0  0  0  0  0  0  0
   35.7371   29.4761   40.0807 H   0  0  0  0  0  0  0  0  0  0  0  0
   35.1379   31.1483   39.7293 H   0  0  0  0  0  0  0  0  0  0  0  0
   37.9735   31.4982   37.4604 H   0  0  0  0  0  0  0  0  0  0  0  0
   37.2180   32.3385   38.8738 H   0  0  0  0  0  0  0  0  0  0  0  0
   39.3455   30.0883   38.9994 H   0  0  0  0  0  0  0  0  0  0  0  0
   41.7024   31.1725   39.0635 H   0  0  0  0  0  0  0  0  0  0  0  0
   37.0563   35.6604   40.2215 H   0  0  0  0  0  0  0  0  0  0  0  0
   41.3908   37.3575   39.9165 H   0  0  0  0  0  0  0  0  0  0  0  0
   42.4350   35.9458   39.6012 H   0  0  0  0  0  0  0  0  0  0  0  0
   38.7991   29.9806   44.1002 H   0  0  0  0  0  0  0  0  0  0  0  0
   41.1416   30.6333   42.6528 H   0  0  0  0  0  0  0  0  0  0  0  0
   41.0001   29.3749   41.7329 H   0  0  0  0  0  0  0  0  0  0  0  0
   38.8763   31.8208   41.5498 H   0  0  0  0  0  0  0  0  0  0  0  0
   39.0669   25.4913   41.7562 H   0  0  0  0  0  0  0  0  0  0  0  0
   36.7043   25.1187   42.5896 H   0  0  0  0  0  0  0  0  0  0  0  0
   35.4809   27.0983   43.6456 H   0  0  0  0  0  0  0  0  0  0  0  0
  1  2  1  0
  1 19  1  0
  3  2  1  0
  4  3  1  0
  5  4  1  0
  5  6  1  0
  6  7  1  0
  6  1  1  0
  7 15  1  0
  8  9  2  0
  8  7  1  0
  9 10  1  0
 10 15  2  0
 10 11  1  0
 11 12  2  0
 12 13  1  0
 14 13  2  0
 15 14  1  0
 16 11  1  0
 18 17  1  0
 19 18  1  0
 19 17  1  0
 20 25  2  0
 20 21  1  0
 21 22  2  0
 22 23  1  0
 24 17  1  0
 24 23  2  0
 25 24  1  0
  2 26  1  0
  2 27  1  0
  3 28  1  0
  3 29  1  0
  5 30  1  0
  5 31  1  0
  6 32  1  6
  8 33  1  0
 13 34  1  0
 16 35  1  0
 16 36  1  0
 17 37  1  1
 18 38  1  0
 18 39  1  0
 19 40  1  1
 20 41  1  0
 21 42  1  0
 22 43  1  0
M  ISO  8  26  13  27  13  28  13  29  13  30  13  31  13  32  13  33  14
M  ISO  8  34  14  37  13  38  13  39  13  40  13  41  14  42  14  43  14
M  END
>  <minimizedAffinity>  (1) 
-6.20213175

>  <minimizedRMSD>  (1) 
2.60901713

$$$$
