
     RDKit          3D

 46 50  0  0  1  0  0  0  0  0999 V2000
   36.8740   30.7900   40.2910 C   0  0  1  0  0  0  0  0  0  0  0  0
   37.4330   32.1220   40.4970 C   0  0  0  0  0  0  0  0  0  0  0  0
   37.2590   32.7630   39.1270 C   0  0  0  0  0  0  0  0  0  0  0  0
   37.1240   31.6110   38.1460 C   0  0  0  0  0  0  0  0  0  0  0  0
   37.4900   30.3760   38.9390 C   0  0  2  0  0  0  0  0  0  0  0  0
   38.6660   29.2660   43.1440 C   0  0  0  0  0  0  0  0  0  0  0  0
   37.7930   28.1450   43.4590 C   0  0  0  0  0  0  0  0  0  0  0  0
   36.6180   27.9420   42.6690 C   0  0  0  0  0  0  0  0  0  0  0  0
   36.3390   28.7970   41.6430 N   0  0  0  0  0  0  0  0  0  0  0  0
   37.1940   29.8240   41.3990 C   0  0  0  0  0  0  0  0  0  0  0  0
   38.3320   30.0720   42.1170 N   0  0  0  0  0  0  0  0  0  0  0  0
   36.9110   29.1600   38.3950 C   0  0  0  0  0  0  0  0  0  0  0  0
   37.2920   27.8480   38.1380 C   0  0  0  0  0  0  0  0  0  0  0  0
   36.4180   26.9970   37.5800 C   0  0  0  0  0  0  0  0  0  0  0  0
   35.1470   27.4280   37.2670 C   0  0  0  0  0  0  0  0  0  0  0  0
   35.1870   29.2040   37.8060 S   0  0  0  0  0  0  0  0  0  0  0  0
   36.7700   25.6400   37.2980 N   0  0  0  0  0  0  0  0  0  0  0  0
   37.3420   25.3280   36.0990 C   0  0  0  0  0  0  0  0  0  0  0  0
   37.6090   24.0270   35.9930 N   0  0  0  0  0  0  0  0  0  0  0  0
   37.2020   23.4710   37.1530 C   0  0  0  0  0  0  0  0  0  0  0  0
   37.1710   22.2040   37.7200 C   0  0  0  0  0  0  0  0  0  0  0  0
   36.6710   22.0090   38.9550 N   0  0  0  0  0  0  0  0  0  0  0  0
   36.1820   23.0400   39.6810 C   0  0  0  0  0  0  0  0  0  0  0  0
   36.1850   24.2980   39.1780 N   0  0  0  0  0  0  0  0  0  0  0  0
   36.6820   24.4820   37.9580 C   0  0  0  0  0  0  0  0  0  0  0  0
   37.7000   21.1580   36.9110 N   0  0  0  0  0  0  0  0  0  0  0  0
   34.0250   26.7470   36.6840 C   0  0  0  0  0  0  0  0  0  0  0  0
   32.8680   27.5130   36.5730 F   0  0  0  0  0  0  0  0  0  0  0  0
   34.4090   26.3430   35.4510 F   0  0  0  0  0  0  0  0  0  0  0  0
   33.7560   25.6150   37.4750 F   0  0  0  0  0  0  0  0  0  0  0  0
   35.7740   30.7874   40.2898 H   0  0  0  0  0  0  0  0  0  0  0  0
   36.8751   32.6731   41.2683 H   0  0  0  0  0  0  0  0  0  0  0  0
   38.4750   32.1125   40.8494 H   0  0  0  0  0  0  0  0  0  0  0  0
   36.3550   33.3895   39.1091 H   0  0  0  0  0  0  0  0  0  0  0  0
   38.1088   33.4137   38.8733 H   0  0  0  0  0  0  0  0  0  0  0  0
   37.8114   31.7433   37.2975 H   0  0  0  0  0  0  0  0  0  0  0  0
   36.1106   31.5451   37.7233 H   0  0  0  0  0  0  0  0  0  0  0  0
   38.5598   30.1212   38.9618 H   0  0  0  0  0  0  0  0  0  0  0  0
   39.5777   29.4512   43.7309 H   0  0  0  0  0  0  0  0  0  0  0  0
   38.0326   27.4656   44.2902 H   0  0  0  0  0  0  0  0  0  0  0  0
   35.9431   27.1013   42.8874 H   0  0  0  0  0  0  0  0  0  0  0  0
   38.3072   27.5087   38.3915 H   0  0  0  0  0  0  0  0  0  0  0  0
   37.5576   26.0651   35.3114 H   0  0  0  0  0  0  0  0  0  0  0  0
   35.7787   22.8557   40.6877 H   0  0  0  0  0  0  0  0  0  0  0  0
   37.7115   20.1902   37.2632 H   0  0  0  0  0  0  0  0  0  0  0  0
   38.0711   21.3694   35.9737 H   0  0  0  0  0  0  0  0  0  0  0  0
  1  2  1  0
  1 10  1  0
  3  2  1  0
  4  5  1  0
  4  3  1  0
  5  1  1  0
  6  7  2  0
  8  7  1  0
  9  8  2  0
 10  9  1  0
 10 11  2  0
 11  6  1  0
 12  5  1  0
 13 12  2  0
 14 13  1  0
 15 14  2  0
 15 16  1  0
 16 12  1  0
 17 14  1  0
 17 25  1  0
 18 17  1  0
 19 18  2  0
 19 20  1  0
 20 21  2  0
 20 25  1  0
 21 22  1  0
 22 23  2  0
 24 23  1  0
 25 24  2  0
 26 21  1  0
 27 15  1  0
 27 30  1  0
 28 27  1  0
 29 27  1  0
  1 31  1  6
  2 32  1  0
  2 33  1  0
  3 34  1  0
  3 35  1  0
  4 36  1  0
  4 37  1  0
  5 38  1  1
  6 39  1  0
  7 40  1  0
  8 41  1  0
 13 42  1  0
 18 43  1  0
 23 44  1  0
 26 45  1  0
 26 46  1  0
M  ISO  8  31  13  32  13  33  13  34  13  35  13  36  13  37  13  38  13
M  ISO  6  39  14  40  14  41  14  42  14  43  14  44  14
M  END
>  <minimizedAffinity>  (1) 
-5.23433924

>  <minimizedRMSD>  (1) 
4.24041653

$$$$
