
     RDKit          3D

 26 28  0  0  0  0  0  0  0  0999 V2000
   37.9688   28.8846   43.3820 C   0  0  0  0  0  0  0  0  0  0  0  0
   38.0801   27.4731   43.3135 C   0  0  0  0  0  0  0  0  0  0  0  0
   37.4350   26.8215   42.2464 C   0  0  0  0  0  0  0  0  0  0  0  0
   36.7390   27.5718   41.3361 N   0  0  0  0  0  0  0  0  0  0  0  0
   36.6643   28.9125   41.4474 C   0  0  0  0  0  0  0  0  0  0  0  0
   37.2688   29.5474   42.4513 N   0  0  0  0  0  0  0  0  0  0  0  0
   37.5295   25.3428   42.1418 C   0  0  0  0  0  0  0  0  0  0  0  0
   37.6424   25.0542   40.8057 F   0  0  0  0  0  0  0  0  0  0  0  0
   38.6285   24.8349   42.7960 F   0  0  0  0  0  0  0  0  0  0  0  0
   36.3895   24.7122   42.6528 F   0  0  0  0  0  0  0  0  0  0  0  0
   38.4696   29.3629   44.2058 H   0  0  0  0  0  0  0  0  0  0  0  0
   38.6499   26.9285   44.0703 H   0  0  0  0  0  0  0  0  0  0  0  0
   35.9561   29.7260   40.5295 N   0  0  0  0  0  0  0  0  0  0  0  0
   35.4487   29.4542   39.3028 C   0  0  0  0  0  0  0  0  0  0  0  0
   34.8452   30.5440   38.7848 N   0  0  0  0  0  0  0  0  0  0  0  0
   34.9619   31.5364   39.6860 C   0  0  0  0  0  0  0  0  0  0  0  0
   34.5412   32.8577   39.6989 C   0  0  0  0  0  0  0  0  0  0  0  0
   33.8358   33.3062   38.5436 N   0  0  0  0  0  0  0  0  0  0  0  0
   34.7742   33.6906   40.7337 N   0  0  0  0  0  0  0  0  0  0  0  0
   35.4499   33.1624   41.7747 C   0  0  0  0  0  0  0  0  0  0  0  0
   35.8877   31.8792   41.8223 N   0  0  0  0  0  0  0  0  0  0  0  0
   35.6593   31.0259   40.7835 C   0  0  0  0  0  0  0  0  0  0  0  0
   35.5669   28.4573   38.8828 H   0  0  0  0  0  0  0  0  0  0  0  0
   32.8675   33.5664   38.8932 H   0  0  0  0  0  0  0  0  0  0  0  0
   34.1799   33.3696   37.5703 H   0  0  0  0  0  0  0  0  0  0  0  0
   35.6412   33.8289   42.6128 H   0  0  0  0  0  0  0  0  0  0  0  0
  2  1  2  0
  3  2  1  0
  4  5  1  0
  4  3  2  0
  5  6  2  0
  6  1  1  0
  7  3  1  0
  7 10  1  0
  7  9  1  0
  8  7  1  0
  1 11  1  0
  2 12  1  0
 13 14  1  0
 14 15  2  0
 15 16  1  0
 16 17  2  0
 17 18  1  0
 17 19  1  0
 19 20  2  0
 20 21  1  0
 21 22  2  0
 22 13  1  0
 22 16  1  0
 14 23  1  0
 18 24  1  0
 18 25  1  0
 20 26  1  0
  5 13  1  0
M  ISO  2  11  14  12  14
M  END
>  <DihAtoms>  (1) 
3,4,12,13

>  <DihDeg>  (1) 
76.52883442273158

$$$$
