
     RDKit          3D

 32 34  0  0  0  0  0  0  0  0999 V2000
   40.3330   27.1140   43.7940 C   0  0  0  0  0  0  0  0  0  0  0  0
   40.1800   25.7140   43.8290 C   0  0  0  0  0  0  0  0  0  0  0  0
   39.2840   25.1550   42.8970 C   0  0  0  0  0  0  0  0  0  0  0  0
   38.6450   25.9690   42.0500 N   0  0  0  0  0  0  0  0  0  0  0  0
   38.8060   27.2960   42.0370 C   0  0  0  0  0  0  0  0  0  0  0  0
   39.6540   27.8680   42.9120 N   0  0  0  0  0  0  0  0  0  0  0  0
   39.0370   23.7740   42.8210 N   0  0  0  0  0  0  0  0  0  0  0  0
   38.1390   28.1860   41.1470 N   0  0  0  0  0  0  0  0  0  0  0  0
   37.3120   27.5920   40.2520 C   0  0  0  0  0  0  0  0  0  0  0  0
   36.5720   28.2600   39.3040 C   0  0  0  0  0  0  0  0  0  0  0  0
   36.7110   29.6380   39.2990 C   0  0  0  0  0  0  0  0  0  0  0  0
   36.0730   30.3420   38.4680 O   0  0  0  0  0  0  0  0  0  0  0  0
   37.5380   30.1990   40.1990 N   0  0  0  0  0  0  0  0  0  0  0  0
   38.2430   29.5200   41.1070 C   0  0  0  0  0  0  0  0  0  0  0  0
   39.0100   30.0280   41.9420 O   0  0  0  0  0  0  0  0  0  0  0  0
   38.3400   33.6360   40.7780 N   0  0  0  0  0  0  0  0  0  0  0  0
   38.4070   32.3430   41.0370 N   0  0  0  0  0  0  0  0  0  0  0  0
   37.6770   31.6170   40.1900 C   0  0  0  0  0  0  0  0  0  0  0  0
   37.1050   32.5310   39.3260 C   0  0  0  0  0  0  0  0  0  0  0  0
   37.5230   33.7900   39.6970 C   0  0  0  0  0  0  0  0  0  0  0  0
   35.6830   27.5480   38.3520 C   0  0  0  0  0  0  0  0  0  0  0  0
   41.0211   27.5994   44.5017 H   0  0  0  0  0  0  0  0  0  0  0  0
   40.7318   25.0896   44.5471 H   0  0  0  0  0  0  0  0  0  0  0  0
   38.3735   23.4071   42.1239 H   0  0  0  0  0  0  0  0  0  0  0  0
   39.5195   23.1285   43.4624 H   0  0  0  0  0  0  0  0  0  0  0  0
   37.2264   26.4959   40.2863 H   0  0  0  0  0  0  0  0  0  0  0  0
   38.8161   34.3883   41.2960 H   0  0  0  0  0  0  0  0  0  0  0  0
   36.4329   32.2945   38.4879 H   0  0  0  0  0  0  0  0  0  0  0  0
   37.2497   34.7393   39.2132 H   0  0  0  0  0  0  0  0  0  0  0  0
   34.9443   26.9564   38.9126 H   0  0  0  0  0  0  0  0  0  0  0  0
   35.1615   28.2810   37.7190 H   0  0  0  0  0  0  0  0  0  0  0  0
   36.2844   26.8790   37.7190 H   0  0  0  0  0  0  0  0  0  0  0  0
  1  2  2  0
  3  2  1  0
  4  3  2  0
  5  4  1  0
  5  6  2  0
  6  1  1  0
  7  3  1  0
  8  5  1  0
  9  8  1  0
 10  9  2  0
 11 10  1  0
 11 13  1  0
 12 11  2  0
 13 14  1  0
 14  8  1  0
 14 15  2  0
 16 17  1  0
 18 13  1  0
 18 17  2  0
 19 20  2  0
 19 18  1  0
 20 16  1  0
 21 10  1  0
  1 22  1  0
  2 23  1  0
  7 24  1  0
  7 25  1  0
  9 26  1  0
 16 27  1  0
 19 28  1  0
 20 29  1  0
 21 30  1  0
 21 31  1  0
 21 32  1  0
M  ISO  8  22  14  23  14  26  14  27   9  28  14  29  14  30   8  31   8
M  ISO  1  32   8
M  END
>  <minimizedAffinity>  (1) 
-6.24107695

>  <minimizedRMSD>  (1) 
2.47280121

$$$$
