
     RDKit          3D

 26 28  0  0  0  0  0  0  0  0999 V2000
   37.9688   28.8846   43.3820 C   0  0  0  0  0  0  0  0  0  0  0  0
   38.0801   27.4731   43.3135 C   0  0  0  0  0  0  0  0  0  0  0  0
   37.4350   26.8215   42.2464 C   0  0  0  0  0  0  0  0  0  0  0  0
   36.7390   27.5718   41.3361 N   0  0  0  0  0  0  0  0  0  0  0  0
   36.6643   28.9125   41.4474 C   0  0  0  0  0  0  0  0  0  0  0  0
   37.2688   29.5474   42.4513 N   0  0  0  0  0  0  0  0  0  0  0  0
   37.5295   25.3428   42.1418 C   0  0  0  0  0  0  0  0  0  0  0  0
   37.6424   25.0542   40.8057 F   0  0  0  0  0  0  0  0  0  0  0  0
   38.6285   24.8349   42.7960 F   0  0  0  0  0  0  0  0  0  0  0  0
   36.3895   24.7122   42.6528 F   0  0  0  0  0  0  0  0  0  0  0  0
   38.4696   29.3629   44.2058 H   0  0  0  0  0  0  0  0  0  0  0  0
   38.6499   26.9285   44.0703 H   0  0  0  0  0  0  0  0  0  0  0  0
   35.9561   29.7260   40.5295 N   0  0  0  0  0  0  0  0  0  0  0  0
   34.6432   29.7608   40.1960 C   0  0  0  0  0  0  0  0  0  0  0  0
   34.4136   30.7084   39.2635 N   0  0  0  0  0  0  0  0  0  0  0  0
   35.5919   31.2967   38.9874 C   0  0  0  0  0  0  0  0  0  0  0  0
   35.9611   32.3173   38.1244 C   0  0  0  0  0  0  0  0  0  0  0  0
   34.9147   32.8955   37.3473 N   0  0  0  0  0  0  0  0  0  0  0  0
   37.2314   32.7554   38.0089 N   0  0  0  0  0  0  0  0  0  0  0  0
   38.1409   32.1382   38.7907 C   0  0  0  0  0  0  0  0  0  0  0  0
   37.8431   31.1349   39.6540 N   0  0  0  0  0  0  0  0  0  0  0  0
   36.5632   30.6819   39.7812 C   0  0  0  0  0  0  0  0  0  0  0  0
   33.9499   29.0728   40.6759 H   0  0  0  0  0  0  0  0  0  0  0  0
   34.8701   33.9112   37.6538 H   0  0  0  0  0  0  0  0  0  0  0  0
   34.3199   32.4372   36.6360 H   0  0  0  0  0  0  0  0  0  0  0  0
   39.1676   32.4868   38.7026 H   0  0  0  0  0  0  0  0  0  0  0  0
  2  1  2  0
  3  2  1  0
  4  5  1  0
  4  3  2  0
  5  6  2  0
  6  1  1  0
  7  3  1  0
  7 10  1  0
  7  9  1  0
  8  7  1  0
  1 11  1  0
  2 12  1  0
 13 14  1  0
 14 15  2  0
 15 16  1  0
 16 17  2  0
 17 18  1  0
 17 19  1  0
 19 20  2  0
 20 21  1  0
 21 22  2  0
 22 13  1  0
 22 16  1  0
 14 23  1  0
 18 24  1  0
 18 25  1  0
 20 26  1  0
  5 13  1  0
M  ISO  2  11  14  12  14
M  END
>  <DihAtoms>  (1) 
3,4,12,13

>  <DihDeg>  (1) 
76.52883442273158

$$$$
