
     RDKit          3D

 25 27  0  0  0  0  0  0  0  0999 V2000
   40.4830   30.8800   41.6550 C   0  0  0  0  0  0  0  0  0  0  0  0
   41.3860   31.2340   42.6210 C   0  0  0  0  0  0  0  0  0  0  0  0
   42.5150   31.6940   41.9870 C   0  0  0  0  0  0  0  0  0  0  0  0
   42.2400   31.5950   40.6500 N   0  0  0  0  0  0  0  0  0  0  0  0
   41.0530   31.1190   40.4550 N   0  0  0  0  0  0  0  0  0  0  0  0
   37.6180   28.9230   43.0100 C   0  0  0  0  0  0  0  0  0  0  0  0
   38.9280   29.3960   42.8630 C   0  0  0  0  0  0  0  0  0  0  0  0
   39.1550   30.3440   41.8660 C   0  0  0  0  0  0  0  0  0  0  0  0
   38.1160   30.7640   41.0890 N   0  0  0  0  0  0  0  0  0  0  0  0
   36.8650   30.2730   41.2710 C   0  0  0  0  0  0  0  0  0  0  0  0
   36.6220   29.3560   42.2300 N   0  0  0  0  0  0  0  0  0  0  0  0
   43.1610   31.9740   39.6300 C   0  0  0  0  0  0  0  0  0  0  0  0
   44.5340   31.9840   39.6290 C   0  0  0  0  0  0  0  0  0  0  0  0
   45.1820   32.4070   38.4870 C   0  0  0  0  0  0  0  0  0  0  0  0
   44.5160   32.8010   37.3930 N   0  0  0  0  0  0  0  0  0  0  0  0
   43.1830   32.7840   37.4150 C   0  0  0  0  0  0  0  0  0  0  0  0
   42.4950   32.3800   38.5090 N   0  0  0  0  0  0  0  0  0  0  0  0
   41.2351   31.1630   43.7083 H   0  0  0  0  0  0  0  0  0  0  0  0
   43.4405   32.0625   42.4536 H   0  0  0  0  0  0  0  0  0  0  0  0
   37.4028   28.1755   43.7877 H   0  0  0  0  0  0  0  0  0  0  0  0
   39.7434   29.0349   43.5069 H   0  0  0  0  0  0  0  0  0  0  0  0
   36.0421   30.6252   40.6317 H   0  0  0  0  0  0  0  0  0  0  0  0
   45.1019   31.6634   40.5148 H   0  0  0  0  0  0  0  0  0  0  0  0
   46.2818   32.4213   38.4740 H   0  0  0  0  0  0  0  0  0  0  0  0
   42.6280   33.1064   36.5216 H   0  0  0  0  0  0  0  0  0  0  0  0
  1  8  1  0
  1  2  1  0
  3  2  2  0
  4  3  1  0
  5  4  1  0
  5  1  2  0
  7  6  2  0
  8  7  1  0
  9 10  1  0
  9  8  2  0
 10 11  2  0
 11  6  1  0
 12  4  1  0
 13 12  2  0
 14 13  1  0
 15 16  1  0
 15 14  2  0
 16 17  2  0
 17 12  1  0
  2 18  1  0
  3 19  1  0
  6 20  1  0
  7 21  1  0
 10 22  1  0
 13 23  1  0
 14 24  1  0
 16 25  1  0
M  ISO  8  18  14  19  14  20  14  21  14  22  14  23  14  24  14  25  14
M  END
>  <minimizedAffinity>  (1) 
-3.32497406

>  <minimizedRMSD>  (1) 
7.23373652

$$$$
