
     RDKit          3D

 23 24  0  0  0  0  0  0  0  0999 V2000
   37.9709   28.8838   43.3741 C   0  0  0  0  0  0  0  0  0  0  0  0
   38.0827   27.4729   43.3077 C   0  0  0  0  0  0  0  0  0  0  0  0
   37.4359   26.8138   42.2495 C   0  0  0  0  0  0  0  0  0  0  0  0
   36.7308   27.5769   41.3380 N   0  0  0  0  0  0  0  0  0  0  0  0
   36.6601   28.9161   41.4529 C   0  0  0  0  0  0  0  0  0  0  0  0
   37.2708   29.5446   42.4532 N   0  0  0  0  0  0  0  0  0  0  0  0
   37.5301   25.3406   42.1472 C   0  0  0  0  0  0  0  0  0  0  0  0
   37.6538   25.0512   40.8070 F   0  0  0  0  0  0  0  0  0  0  0  0
   38.6328   24.8376   42.7983 F   0  0  0  0  0  0  0  0  0  0  0  0
   36.3782   24.7176   42.6452 F   0  0  0  0  0  0  0  0  0  0  0  0
   38.4469   29.4435   44.1651 H   0  0  0  0  0  0  0  0  0  0  0  0
   38.6551   26.9523   44.0639 H   0  0  0  0  0  0  0  0  0  0  0  0
   35.9082   29.6259   40.4639 N   0  0  0  0  0  0  0  0  0  0  0  0
   36.3204   30.4337   39.4856 C   0  0  0  0  0  0  0  0  0  0  0  0
   35.3860   31.0064   38.6495 C   0  0  0  0  0  0  0  0  0  0  0  0
   34.0411   30.7692   38.7946 C   0  0  0  0  0  0  0  0  0  0  0  0
   33.2171   31.3141   38.0067 O   0  0  0  0  0  0  0  0  0  0  0  0
   33.6633   29.9415   39.8023 N   0  0  0  0  0  0  0  0  0  0  0  0
   34.5841   29.3752   40.6288 C   0  0  0  0  0  0  0  0  0  0  0  0
   34.0409   28.6377   41.5024 O   0  0  0  0  0  0  0  0  0  0  0  0
   37.3960   30.5456   39.4684 H   0  0  0  0  0  0  0  0  0  0  0  0
   35.7883   31.6534   37.8742 H   0  0  0  0  0  0  0  0  0  0  0  0
   32.6327   29.7913   39.8734 H   0  0  0  0  0  0  0  0  0  0  0  0
  2  1  2  0
  3  2  1  0
  4  5  1  0
  4  3  2  0
  5  6  2  0
  6  1  1  0
  7  3  1  0
  7 10  1  0
  7  9  1  0
  8  7  1  0
  1 11  1  0
  2 12  1  0
 13 14  1  0
 14 15  2  0
 15 16  1  0
 16 17  2  0
 16 18  1  0
 18 19  1  0
 19 20  2  0
 19 13  1  0
 14 21  1  0
 15 22  1  0
 18 23  1  0
  5 13  1  0
M  ISO  2  11  14  12  14
M  END
>  <DihAtoms>  (1) 
3,4,12,13

>  <DihDeg>  (1) 
85.55675486008005

$$$$
