
     RDKit          3D

 27 29  0  0  1  0  0  0  0  0999 V2000
   36.4070   31.0920   40.7900 C   0  0  1  0  0  0  0  0  0  0  0  0
   37.3530   32.1850   40.4030 C   0  0  0  0  0  0  0  0  0  0  0  0
   36.7640   31.3830   39.3200 C   0  0  1  0  0  0  0  0  0  0  0  0
   38.9300   28.8740   42.3190 C   0  0  0  0  0  0  0  0  0  0  0  0
   38.1880   27.6840   42.5410 C   0  0  0  0  0  0  0  0  0  0  0  0
   36.8270   27.6780   42.1420 C   0  0  0  0  0  0  0  0  0  0  0  0
   36.3030   28.7950   41.5750 N   0  0  0  0  0  0  0  0  0  0  0  0
   37.0560   29.9070   41.3870 C   0  0  0  0  0  0  0  0  0  0  0  0
   38.3400   29.9510   41.7490 N   0  0  0  0  0  0  0  0  0  0  0  0
   37.4230   30.3080   38.6540 N   0  0  0  0  0  0  0  0  0  0  0  0
   37.0500   29.0300   38.4860 C   0  0  0  0  0  0  0  0  0  0  0  0
   37.8320   28.1250   37.8020 C   0  0  0  0  0  0  0  0  0  0  0  0
   39.0370   28.5030   37.2620 C   0  0  0  0  0  0  0  0  0  0  0  0
   39.7840   27.6990   36.6260 O   0  0  0  0  0  0  0  0  0  0  0  0
   39.3930   29.7960   37.4430 N   0  0  0  0  0  0  0  0  0  0  0  0
   38.6210   30.6790   38.1150 C   0  0  0  0  0  0  0  0  0  0  0  0
   39.1180   31.8520   38.1860 O   0  0  0  0  0  0  0  0  0  0  0  0
   35.4750   31.0083   41.3683 H   0  0  0  0  0  0  0  0  0  0  0  0
   37.0496   33.2349   40.5277 H   0  0  0  0  0  0  0  0  0  0  0  0
   38.3842   32.4381   40.6902 H   0  0  0  0  0  0  0  0  0  0  0  0
   36.2797   31.6881   38.3807 H   0  0  0  0  0  0  0  0  0  0  0  0
   39.9893   28.9211   42.6115 H   0  0  0  0  0  0  0  0  0  0  0  0
   38.6510   26.8005   43.0047 H   0  0  0  0  0  0  0  0  0  0  0  0
   36.2056   26.7824   42.2896 H   0  0  0  0  0  0  0  0  0  0  0  0
   36.0907   28.6947   38.9072 H   0  0  0  0  0  0  0  0  0  0  0  0
   37.4870   27.0869   37.6870 H   0  0  0  0  0  0  0  0  0  0  0  0
   40.2891   30.1207   37.0526 H   0  0  0  0  0  0  0  0  0  0  0  0
  1  8  1  0
  2  1  1  0
  3  2  1  0
  3  1  1  0
  4  5  2  0
  6  5  1  0
  7  6  2  0
  8  7  1  0
  8  9  2  0
  9  4  1  0
 10  3  1  0
 11 10  1  0
 12 11  2  0
 13 15  1  0
 13 12  1  0
 14 13  2  0
 15 16  1  0
 16 17  2  0
 16 10  1  0
  1 18  1  6
  2 19  1  0
  2 20  1  0
  3 21  1  6
  4 22  1  0
  5 23  1  0
  6 24  1  0
 11 25  1  0
 12 26  1  0
 15 27  1  0
M  ISO  8  18  13  19  13  20  13  21  13  22  14  23  14  24  14  25  14
M  ISO  2  26  14  27   9
M  END
>  <minimizedAffinity>  (1) 
-4.17279291

>  <minimizedRMSD>  (1) 
0.85685128

$$$$
