
     RDKit          3D

 23 24  0  0  0  0  0  0  0  0999 V2000
   37.9709   28.8838   43.3741 C   0  0  0  0  0  0  0  0  0  0  0  0
   38.0827   27.4729   43.3077 C   0  0  0  0  0  0  0  0  0  0  0  0
   37.4359   26.8138   42.2495 C   0  0  0  0  0  0  0  0  0  0  0  0
   36.7308   27.5769   41.3380 N   0  0  0  0  0  0  0  0  0  0  0  0
   36.6601   28.9161   41.4529 C   0  0  0  0  0  0  0  0  0  0  0  0
   37.2708   29.5446   42.4532 N   0  0  0  0  0  0  0  0  0  0  0  0
   37.5301   25.3406   42.1472 C   0  0  0  0  0  0  0  0  0  0  0  0
   37.6538   25.0512   40.8070 F   0  0  0  0  0  0  0  0  0  0  0  0
   38.6328   24.8376   42.7983 F   0  0  0  0  0  0  0  0  0  0  0  0
   36.3782   24.7176   42.6452 F   0  0  0  0  0  0  0  0  0  0  0  0
   38.4469   29.4435   44.1651 H   0  0  0  0  0  0  0  0  0  0  0  0
   38.6551   26.9523   44.0639 H   0  0  0  0  0  0  0  0  0  0  0  0
   35.9082   29.6259   40.4639 N   0  0  0  0  0  0  0  0  0  0  0  0
   35.3029   29.1822   39.3610 C   0  0  0  0  0  0  0  0  0  0  0  0
   34.6315   30.0785   38.5571 C   0  0  0  0  0  0  0  0  0  0  0  0
   34.5674   31.4166   38.8591 C   0  0  0  0  0  0  0  0  0  0  0  0
   33.9414   32.2051   38.0955 O   0  0  0  0  0  0  0  0  0  0  0  0
   35.1965   31.8272   39.9900 N   0  0  0  0  0  0  0  0  0  0  0  0
   35.8599   30.9442   40.7849 C   0  0  0  0  0  0  0  0  0  0  0  0
   36.3793   31.5139   41.7887 O   0  0  0  0  0  0  0  0  0  0  0  0
   35.4204   28.1156   39.2264 H   0  0  0  0  0  0  0  0  0  0  0  0
   34.1609   29.6519   37.6750 H   0  0  0  0  0  0  0  0  0  0  0  0
   35.1206   32.8513   40.1781 H   0  0  0  0  0  0  0  0  0  0  0  0
  2  1  2  0
  3  2  1  0
  4  5  1  0
  4  3  2  0
  5  6  2  0
  6  1  1  0
  7  3  1  0
  7 10  1  0
  7  9  1  0
  8  7  1  0
  1 11  1  0
  2 12  1  0
 13 14  1  0
 14 15  2  0
 15 16  1  0
 16 17  2  0
 16 18  1  0
 18 19  1  0
 19 20  2  0
 19 13  1  0
 14 21  1  0
 15 22  1  0
 18 23  1  0
  5 13  1  0
M  ISO  2  11  14  12  14
M  END
>  <DihAtoms>  (1) 
3,4,12,13

>  <DihDeg>  (1) 
85.55675486008005

$$$$
