
     RDKit          3D

 23 24  0  0  0  0  0  0  0  0999 V2000
   37.9709   28.8838   43.3741 C   0  0  0  0  0  0  0  0  0  0  0  0
   38.0827   27.4729   43.3077 C   0  0  0  0  0  0  0  0  0  0  0  0
   37.4359   26.8138   42.2495 C   0  0  0  0  0  0  0  0  0  0  0  0
   36.7308   27.5769   41.3380 N   0  0  0  0  0  0  0  0  0  0  0  0
   36.6601   28.9161   41.4529 C   0  0  0  0  0  0  0  0  0  0  0  0
   37.2708   29.5446   42.4532 N   0  0  0  0  0  0  0  0  0  0  0  0
   37.5301   25.3406   42.1472 C   0  0  0  0  0  0  0  0  0  0  0  0
   37.6538   25.0512   40.8070 F   0  0  0  0  0  0  0  0  0  0  0  0
   38.6328   24.8376   42.7983 F   0  0  0  0  0  0  0  0  0  0  0  0
   36.3782   24.7176   42.6452 F   0  0  0  0  0  0  0  0  0  0  0  0
   38.4469   29.4435   44.1651 H   0  0  0  0  0  0  0  0  0  0  0  0
   38.6551   26.9523   44.0639 H   0  0  0  0  0  0  0  0  0  0  0  0
   35.9082   29.6259   40.4639 N   0  0  0  0  0  0  0  0  0  0  0  0
   34.5918   29.6717   40.2529 C   0  0  0  0  0  0  0  0  0  0  0  0
   34.1042   30.4414   39.2185 C   0  0  0  0  0  0  0  0  0  0  0  0
   34.9353   31.1635   38.3977 C   0  0  0  0  0  0  0  0  0  0  0  0
   34.4478   31.8567   37.4605 O   0  0  0  0  0  0  0  0  0  0  0  0
   36.2681   31.0897   38.6461 N   0  0  0  0  0  0  0  0  0  0  0  0
   36.7515   30.3305   39.6666 C   0  0  0  0  0  0  0  0  0  0  0  0
   38.0138   30.3891   39.7388 O   0  0  0  0  0  0  0  0  0  0  0  0
   34.0394   29.0658   40.9583 H   0  0  0  0  0  0  0  0  0  0  0  0
   33.0235   30.4347   39.1016 H   0  0  0  0  0  0  0  0  0  0  0  0
   36.8595   31.6546   37.9972 H   0  0  0  0  0  0  0  0  0  0  0  0
  2  1  2  0
  3  2  1  0
  4  5  1  0
  4  3  2  0
  5  6  2  0
  6  1  1  0
  7  3  1  0
  7 10  1  0
  7  9  1  0
  8  7  1  0
  1 11  1  0
  2 12  1  0
 13 14  1  0
 14 15  2  0
 15 16  1  0
 16 17  2  0
 16 18  1  0
 18 19  1  0
 19 20  2  0
 19 13  1  0
 14 21  1  0
 15 22  1  0
 18 23  1  0
  5 13  1  0
M  ISO  2  11  14  12  14
M  END
>  <DihAtoms>  (1) 
3,4,12,13

>  <DihDeg>  (1) 
85.55675486008005

$$$$
