
     RDKit          3D

 48 52  0  0  0  0  0  0  0  0999 V2000
   35.4050   28.9830   39.9100 C   0  0  0  0  0  0  0  0  0  0  0  0
   36.5890   28.4650   40.4330 C   0  0  0  0  0  0  0  0  0  0  0  0
   37.5860   28.0880   39.5010 C   0  0  0  0  0  0  0  0  0  0  0  0
   37.3650   28.2390   38.1720 N   0  0  0  0  0  0  0  0  0  0  0  0
   36.1820   28.7530   37.7160 C   0  0  0  0  0  0  0  0  0  0  0  0
   35.1920   29.1300   38.5850 N   0  0  0  0  0  0  0  0  0  0  0  0
   36.8220   28.3090   41.7950 N   0  0  0  0  0  0  0  0  0  0  0  0
   36.2660   27.3990   42.6060 C   0  0  0  0  0  0  0  0  0  0  0  0
   36.7970   27.6320   43.8460 C   0  0  0  0  0  0  0  0  0  0  0  0
   37.6680   28.6760   43.7840 N   0  0  0  0  0  0  0  0  0  0  0  0
   37.6710   29.0820   42.5090 C   0  0  0  0  0  0  0  0  0  0  0  0
   38.5290   30.1820   42.2180 N   0  0  0  0  0  0  0  0  0  0  0  0
   39.7440   30.3380   42.8240 C   0  0  0  0  0  0  0  0  0  0  0  0
   40.3680   31.4710   42.3700 N   0  0  0  0  0  0  0  0  0  0  0  0
   39.5470   32.0370   41.4730 C   0  0  0  0  0  0  0  0  0  0  0  0
   39.6570   33.1790   40.7090 C   0  0  0  0  0  0  0  0  0  0  0  0
   38.6100   33.4380   39.9000 N   0  0  0  0  0  0  0  0  0  0  0  0
   37.5260   32.6610   39.8210 C   0  0  0  0  0  0  0  0  0  0  0  0
   37.4010   31.5360   40.5650 N   0  0  0  0  0  0  0  0  0  0  0  0
   38.4290   31.2480   41.3830 C   0  0  0  0  0  0  0  0  0  0  0  0
   40.8050   34.0230   40.7750 N   0  0  0  0  0  0  0  0  0  0  0  0
   35.8310   28.9620   36.2970 C   0  0  0  0  0  0  0  0  0  0  0  0
   34.3530   29.0530   36.0470 C   0  0  0  0  0  0  0  0  0  0  0  0
   36.3520   27.7840   35.4950 C   0  0  0  0  0  0  0  0  0  0  0  0
   36.5270   30.2130   35.7720 C   0  0  0  0  0  0  0  0  0  0  0  0
   36.5260   30.2910   34.3390 N   0  0  0  0  0  0  0  0  0  0  0  0
   36.6290   29.3290   33.4050 C   0  0  0  0  0  0  0  0  0  0  0  0
   36.5760   29.8920   32.1700 N   0  0  0  0  0  0  0  0  0  0  0  0
   36.4370   31.2370   32.3610 C   0  0  0  0  0  0  0  0  0  0  0  0
   36.4080   31.4550   33.6860 N   0  0  0  0  0  0  0  0  0  0  0  0
   34.6097   29.2851   40.6073 H   0  0  0  0  0  0  0  0  0  0  0  0
   38.5407   27.6722   39.8556 H   0  0  0  0  0  0  0  0  0  0  0  0
   35.5342   26.6248   42.3321 H   0  0  0  0  0  0  0  0  0  0  0  0
   36.5561   27.0616   44.7552 H   0  0  0  0  0  0  0  0  0  0  0  0
   40.1632   29.6496   43.5726 H   0  0  0  0  0  0  0  0  0  0  0  0
   36.7141   32.9421   39.1341 H   0  0  0  0  0  0  0  0  0  0  0  0
   40.8561   34.8696   40.1906 H   0  0  0  0  0  0  0  0  0  0  0  0
   41.5829   33.7858   41.4071 H   0  0  0  0  0  0  0  0  0  0  0  0
   33.8198   29.0858   37.0086 H   0  0  0  0  0  0  0  0  0  0  0  0
   34.1335   29.9664   35.4746 H   0  0  0  0  0  0  0  0  0  0  0  0
   34.0231   28.1735   35.4746 H   0  0  0  0  0  0  0  0  0  0  0  0
   36.6996   26.9980   36.1816 H   0  0  0  0  0  0  0  0  0  0  0  0
   35.5456   27.3867   34.8610 H   0  0  0  0  0  0  0  0  0  0  0  0
   37.1884   28.1133   34.8610 H   0  0  0  0  0  0  0  0  0  0  0  0
   36.0093   31.0972   36.1723 H   0  0  0  0  0  0  0  0  0  0  0  0
   37.5760   30.1703   36.1002 H   0  0  0  0  0  0  0  0  0  0  0  0
   36.7390   28.2538   33.6093 H   0  0  0  0  0  0  0  0  0  0  0  0
   36.3624   32.0018   31.5739 H   0  0  0  0  0  0  0  0  0  0  0  0
  1  2  2  0
  2  7  1  0
  3  2  1  0
  4  3  2  0
  5  4  1  0
  5  6  2  0
  6  1  1  0
  7 11  1  0
  7  8  1  0
  8  9  2  0
 10  9  1  0
 11 10  2  0
 12 11  1  0
 12 13  1  0
 14 13  2  0
 15 14  1  0
 16 21  1  0
 16 15  2  0
 17 16  1  0
 18 17  2  0
 18 19  1  0
 19 20  2  0
 20 15  1  0
 20 12  1  0
 22  5  1  0
 23 22  1  0
 24 22  1  0
 25 22  1  0
 26 25  1  0
 27 26  1  0
 28 29  1  0
 28 27  2  0
 29 30  2  0
 30 26  1  0
  1 31  1  0
  3 32  1  0
  8 33  1  0
  9 34  1  0
 13 35  1  0
 18 36  1  0
 21 37  1  0
 21 38  1  0
 23 39  1  0
 23 40  1  0
 23 41  1  0
 24 42  1  0
 24 43  1  0
 24 44  1  0
 25 45  1  0
 25 46  1  0
 27 47  1  0
 29 48  1  0
M  ISO  8  31  14  32  14  33  14  34  14  35  14  36  14  39   8  40   8
M  ISO  8  41   8  42   8  43   8  44   8  45   8  46   8  47  14  48  14
M  END
>  <minimizedAffinity>  (1) 
-6.16087675

>  <minimizedRMSD>  (1) 
1.05681217

$$$$
