
     RDKit          3D

 32 35  0  0  0  0  0  0  0  0999 V2000
   37.0140   30.1140   41.4990 C   0  0  0  0  0  0  0  0  0  0  0  0
   38.3700   29.8440   41.1420 C   0  0  0  0  0  0  0  0  0  0  0  0
   39.0310   30.6560   40.2670 C   0  0  0  0  0  0  0  0  0  0  0  0
   38.3200   31.7280   39.7610 N   0  0  0  0  0  0  0  0  0  0  0  0
   37.0250   31.9720   40.1100 C   0  0  0  0  0  0  0  0  0  0  0  0
   36.3650   31.1670   40.9830 N   0  0  0  0  0  0  0  0  0  0  0  0
   40.4120   30.5320   39.8490 C   0  0  0  0  0  0  0  0  0  0  0  0
   41.3070   29.6570   39.4550 N   0  0  0  0  0  0  0  0  0  0  0  0
   42.4440   30.1870   39.2180 O   0  0  0  0  0  0  0  0  0  0  0  0
   42.4180   31.4630   39.4300 C   0  0  0  0  0  0  0  0  0  0  0  0
   41.1710   31.6490   39.8140 N   0  0  0  0  0  0  0  0  0  0  0  0
   43.4180   32.4680   39.3080 N   0  0  0  0  0  0  0  0  0  0  0  0
   43.9330   33.1740   40.3480 C   0  0  0  0  0  0  0  0  0  0  0  0
   44.9030   34.1380   40.1610 C   0  0  0  0  0  0  0  0  0  0  0  0
   45.3780   34.4060   38.8800 C   0  0  0  0  0  0  0  0  0  0  0  0
   46.3800   35.4050   38.7160 N   0  0  0  0  0  0  0  0  0  0  0  0
   44.8640   33.7060   37.8670 N   0  0  0  0  0  0  0  0  0  0  0  0
   43.9050   32.7550   38.0650 C   0  0  0  0  0  0  0  0  0  0  0  0
   43.4370   32.1100   37.0940 O   0  0  0  0  0  0  0  0  0  0  0  0
   38.9470   28.6470   41.7340 C   0  0  0  0  0  0  0  0  0  0  0  0
   38.7410   27.3830   41.0880 C   0  0  0  0  0  0  0  0  0  0  0  0
   39.6250   26.1710   42.1620 S   0  0  0  0  0  0  0  0  0  0  0  0
   40.1280   27.6360   43.3260 C   0  0  0  0  0  0  0  0  0  0  0  0
   39.6680   28.5270   42.8340 N   0  0  0  0  0  0  0  0  0  0  0  0
   36.4958   29.4496   42.2061 H   0  0  0  0  0  0  0  0  0  0  0  0
   36.5039   32.8381   39.6760 H   0  0  0  0  0  0  0  0  0  0  0  0
   43.5675   32.9722   41.3657 H   0  0  0  0  0  0  0  0  0  0  0  0
   45.3003   34.6939   41.0231 H   0  0  0  0  0  0  0  0  0  0  0  0
   46.7452   35.6189   37.7770 H   0  0  0  0  0  0  0  0  0  0  0  0
   46.7394   35.9135   39.5365 H   0  0  0  0  0  0  0  0  0  0  0  0
   38.1824   27.1818   40.1620 H   0  0  0  0  0  0  0  0  0  0  0  0
   40.7238   27.5991   44.2499 H   0  0  0  0  0  0  0  0  0  0  0  0
  2  1  2  0
  2 20  1  0
  3  2  1  0
  4  5  1  0
  4  3  2  0
  5  6  2  0
  6  1  1  0
  7  3  1  0
  8  7  2  0
  9 10  1  0
  9  8  1  0
 10 11  2  0
 11  7  1  0
 12 10  1  0
 12 13  1  0
 14 13  2  0
 15 14  1  0
 16 15  1  0
 17 18  1  0
 17 15  2  0
 18 12  1  0
 19 18  2  0
 20 24  1  0
 21 20  2  0
 21 22  1  0
 22 23  1  0
 24 23  2  0
  1 25  1  0
  5 26  1  0
 13 27  1  0
 14 28  1  0
 16 29  1  0
 16 30  1  0
 21 31  1  0
 23 32  1  0
M  ISO  6  25  14  26  14  27  14  28  14  31  14  32  14
M  END
>  <minimizedAffinity>  (1) 
-5.36348486

>  <minimizedRMSD>  (1) 
1.89174926

$$$$
