
     RDKit          3D

 18 19  0  0  0  0  0  0  0  0999 V2000
   39.9440   26.7220   43.8870 C   0  0  0  0  0  0  0  0  0  0  0  0
   39.7680   25.3820   43.5100 C   0  0  0  0  0  0  0  0  0  0  0  0
   38.7610   25.0820   42.5820 C   0  0  0  0  0  0  0  0  0  0  0  0
   38.0020   26.1110   42.0900 N   0  0  0  0  0  0  0  0  0  0  0  0
   38.2040   27.3790   42.4770 C   0  0  0  0  0  0  0  0  0  0  0  0
   39.1540   27.6840   43.3590 N   0  0  0  0  0  0  0  0  0  0  0  0
   37.3810   28.4110   41.9320 N   0  0  0  0  0  0  0  0  0  0  0  0
   37.6600   29.7310   41.9330 C   0  0  0  0  0  0  0  0  0  0  0  0
   36.6380   30.3940   41.3240 C   0  0  0  0  0  0  0  0  0  0  0  0
   35.7400   29.4650   40.9530 N   0  0  0  0  0  0  0  0  0  0  0  0
   36.1900   28.2690   41.3210 C   0  0  0  0  0  0  0  0  0  0  0  0
   38.6250   23.7650   42.2430 O   0  0  0  0  0  0  0  0  0  0  0  0
   40.7256   26.9903   44.6130 H   0  0  0  0  0  0  0  0  0  0  0  0
   40.4029   24.5885   43.9311 H   0  0  0  0  0  0  0  0  0  0  0  0
   38.5634   30.1949   42.3557 H   0  0  0  0  0  0  0  0  0  0  0  0
   36.5621   31.4800   41.1662 H   0  0  0  0  0  0  0  0  0  0  0  0
   35.6707   27.3140   41.1526 H   0  0  0  0  0  0  0  0  0  0  0  0
   37.9312   23.4904   41.5923 H   0  0  0  0  0  0  0  0  0  0  0  0
  2  1  2  0
  3  2  1  0
  4  5  1  0
  4  3  2  0
  5  6  2  0
  6  1  1  0
  7  8  1  0
  7  5  1  0
  9  8  2  0
 10 11  2  0
 10  9  1  0
 11  7  1  0
 12  3  1  0
  1 13  1  0
  2 14  1  0
  8 15  1  0
  9 16  1  0
 11 17  1  0
 12 18  1  0
M  ISO  6  13  14  14  14  15  14  16  14  17  14  18   3
M  END
>  <minimizedAffinity>  (1) 
-4.0483408

>  <minimizedRMSD>  (1) 
2.73832655

$$$$
