
     RDKit          3D

 37 39  0  0  1  0  0  0  0  0999 V2000
   36.8710   27.6180   39.8480 C   0  0  2  0  0  0  0  0  0  0  0  0
   36.7270   26.1340   39.8350 C   0  0  0  0  0  0  0  0  0  0  0  0
   35.9400   25.9190   38.5440 C   0  0  0  0  0  0  0  0  0  0  0  0
   36.3020   27.0780   37.6450 C   0  0  0  0  0  0  0  0  0  0  0  0
   37.3750   27.8580   38.4200 C   0  0  2  0  0  0  0  0  0  0  0  0
   38.8140   29.5520   42.4070 C   0  0  0  0  0  0  0  0  0  0  0  0
   38.0530   29.3650   41.2090 C   0  0  0  0  0  0  0  0  0  0  0  0
   37.7320   28.0740   40.8930 C   0  0  0  0  0  0  0  0  0  0  0  0
   38.1630   27.0670   41.7430 N   0  0  0  0  0  0  0  0  0  0  0  0
   38.8690   27.3010   42.8470 C   0  0  0  0  0  0  0  0  0  0  0  0
   39.1970   28.5530   43.1800 N   0  0  0  0  0  0  0  0  0  0  0  0
   37.6900   30.4710   40.4010 N   0  0  0  0  0  0  0  0  0  0  0  0
   36.7170   31.4320   40.7260 C   0  0  0  0  0  0  0  0  0  0  0  0
   35.6470   30.9400   41.3110 N   0  0  0  0  0  0  0  0  0  0  0  0
   37.0020   32.8070   40.3930 N   0  0  0  0  0  0  0  0  0  0  0  0
   34.8520   31.5370   41.5880 H   0  0  0  0  0  0  0  0  0  0  0  0
   38.6920   27.3620   38.2260 N   0  0  0  0  0  0  0  0  0  0  0  0
   39.7300   28.1880   38.1430 C   0  0  0  0  0  0  0  0  0  0  0  0
   40.8720   27.4280   37.9570 C   0  0  0  0  0  0  0  0  0  0  0  0
   40.4770   26.1430   37.9340 N   0  0  0  0  0  0  0  0  0  0  0  0
   39.1430   26.1020   38.0990 C   0  0  0  0  0  0  0  0  0  0  0  0
   35.9575   28.1866   40.0764 H   0  0  0  0  0  0  0  0  0  0  0  0
   37.7066   25.6350   39.7969 H   0  0  0  0  0  0  0  0  0  0  0  0
   36.2415   25.7214   40.7317 H   0  0  0  0  0  0  0  0  0  0  0  0
   36.2261   24.9661   38.0749 H   0  0  0  0  0  0  0  0  0  0  0  0
   34.8571   25.8746   38.7320 H   0  0  0  0  0  0  0  0  0  0  0  0
   35.4227   27.7116   37.4572 H   0  0  0  0  0  0  0  0  0  0  0  0
   36.6627   26.7427   36.6614 H   0  0  0  0  0  0  0  0  0  0  0  0
   37.4789   28.9107   38.1184 H   0  0  0  0  0  0  0  0  0  0  0  0
   39.0925   30.5759   42.6968 H   0  0  0  0  0  0  0  0  0  0  0  0
   39.1829   26.4626   43.4862 H   0  0  0  0  0  0  0  0  0  0  0  0
   38.1795   30.5797   39.5013 H   0  0  0  0  0  0  0  0  0  0  0  0
   36.3162   33.5431   40.6136 H   0  0  0  0  0  0  0  0  0  0  0  0
   37.8912   33.0522   39.9347 H   0  0  0  0  0  0  0  0  0  0  0  0
   39.6888   29.2852   38.2104 H   0  0  0  0  0  0  0  0  0  0  0  0
   41.9008   27.8020   37.8492 H   0  0  0  0  0  0  0  0  0  0  0  0
   38.5257   25.1919   38.1255 H   0  0  0  0  0  0  0  0  0  0  0  0
  1  8  1  0
  2  1  1  0
  3  2  1  0
  4  5  1  0
  4  3  1  0
  5  1  1  0
  6 11  2  0
  7  6  1  0
  8  7  2  0
  8  9  1  0
  9 10  2  0
 10 11  1  0
 12 13  1  0
 12  7  1  0
 13 14  2  0
 14 16  1  0
 15 13  1  0
 17  5  1  0
 18 17  1  0
 19 18  2  0
 20 19  1  0
 20 21  2  0
 21 17  1  0
  1 22  1  6
  2 23  1  0
  2 24  1  0
  3 25  1  0
  3 26  1  0
  4 27  1  0
  4 28  1  0
  5 29  1  6
  6 30  1  0
 10 31  1  0
 12 32  1  0
 15 33  1  0
 15 34  1  0
 18 35  1  0
 19 36  1  0
 21 37  1  0
M  ISO  8  22  13  23  13  24  13  25  13  26  13  27  13  28  13  29  13
M  ISO  5  30  14  31  14  35  14  36  14  37  14
M  END
>  <minimizedAffinity>  (1) 
-4.83721304

>  <minimizedRMSD>  (1) 
0.729704082

$$$$
