
     RDKit          3D

 20 21  0  0  0  0  0  0  0  0999 V2000
   37.9757   28.8859   43.3670 C   0  0  0  0  0  0  0  0  0  0  0  0
   38.0895   27.4607   43.3100 C   0  0  0  0  0  0  0  0  0  0  0  0
   37.4379   26.8181   42.2624 C   0  0  0  0  0  0  0  0  0  0  0  0
   36.7254   27.5758   41.3447 N   0  0  0  0  0  0  0  0  0  0  0  0
   36.6545   28.9191   41.4512 C   0  0  0  0  0  0  0  0  0  0  0  0
   37.2691   29.5568   42.4443 N   0  0  0  0  0  0  0  0  0  0  0  0
   37.5268   25.3318   42.1597 C   0  0  0  0  0  0  0  0  0  0  0  0
   37.6625   25.0574   40.8062 F   0  0  0  0  0  0  0  0  0  0  0  0
   38.6303   24.8379   42.7952 F   0  0  0  0  0  0  0  0  0  0  0  0
   36.3743   24.7115   42.6323 F   0  0  0  0  0  0  0  0  0  0  0  0
   38.4622   29.4429   44.1612 H   0  0  0  0  0  0  0  0  0  0  0  0
   38.6598   26.9518   44.0597 H   0  0  0  0  0  0  0  0  0  0  0  0
   35.8672   29.4495   40.3894 N   0  0  0  0  0  0  0  0  0  0  0  0
   35.6573   30.7131   39.9767 C   0  0  0  0  0  0  0  0  0  0  0  0
   34.7883   30.5958   38.8859 C   0  0  0  0  0  0  0  0  0  0  0  0
   34.5198   29.2708   38.6975 N   0  0  0  0  0  0  0  0  0  0  0  0
   35.2024   28.5739   39.6456 C   0  0  0  0  0  0  0  0  0  0  0  0
   36.0948   31.5652   40.4344 H   0  0  0  0  0  0  0  0  0  0  0  0
   34.4138   31.4442   38.3120 H   0  0  0  0  0  0  0  0  0  0  0  0
   35.0958   27.4977   39.6343 H   0  0  0  0  0  0  0  0  0  0  0  0
  2  1  2  0
  3  2  1  0
  4  5  1  0
  4  3  2  0
  5  6  2  0
  6  1  1  0
  7  3  1  0
  7 10  1  0
  7  9  1  0
  8  7  1  0
  1 11  1  0
  2 12  1  0
 13 14  1  0
 14 15  2  0
 15 16  1  0
 16 17  2  0
 17 13  1  0
 14 18  1  0
 15 19  1  0
 17 20  1  0
  5 13  1  0
M  ISO  2  11  14  12  14
M  END
>  <DihAtoms>  (1) 
3,4,12,13

>  <DihDeg>  (1) 
-50.15345707497034

$$$$
