
     RDKit          3D

 27 28  0  0  1  0  0  0  0  0999 V2000
   37.2220   27.8460   43.3630 C   0  0  2  0  0  0  0  0  0  0  0  0
   39.1290   30.7920   41.9590 C   0  0  0  0  0  0  0  0  0  0  0  0
   38.8720   29.6410   42.7290 C   0  0  0  0  0  0  0  0  0  0  0  0
   37.5790   29.0580   42.5880 C   0  0  0  0  0  0  0  0  0  0  0  0
   36.6730   29.6400   41.7240 N   0  0  0  0  0  0  0  0  0  0  0  0
   37.0020   30.7500   41.0190 C   0  0  0  0  0  0  0  0  0  0  0  0
   38.2130   31.3190   41.1340 N   0  0  0  0  0  0  0  0  0  0  0  0
   36.7770   28.1680   44.7660 C   0  0  0  0  0  0  0  0  0  0  0  0
   38.4910   26.9650   43.4170 C   0  0  0  0  0  0  0  0  0  0  0  0
   38.3330   25.7820   42.5470 C   0  0  0  0  0  0  0  0  0  0  0  0
   37.0440   25.3600   42.2280 C   0  0  0  0  0  0  0  0  0  0  0  0
   36.7100   24.2820   41.4340 C   0  0  0  0  0  0  0  0  0  0  0  0
   37.7750   23.5970   40.9390 N   0  0  0  0  0  0  0  0  0  0  0  0
   39.0420   23.9960   41.2410 C   0  0  0  0  0  0  0  0  0  0  0  0
   39.3530   25.0520   42.0190 N   0  0  0  0  0  0  0  0  0  0  0  0
   36.3776   27.3376   42.8747 H   0  0  0  0  0  0  0  0  0  0  0  0
   40.1143   31.2747   42.0372 H   0  0  0  0  0  0  0  0  0  0  0  0
   39.6291   29.2146   43.4035 H   0  0  0  0  0  0  0  0  0  0  0  0
   36.2611   31.1943   40.3380 H   0  0  0  0  0  0  0  0  0  0  0  0
   37.4511   27.6802   45.4855 H   0  0  0  0  0  0  0  0  0  0  0  0
   36.8040   29.2571   44.9184 H   0  0  0  0  0  0  0  0  0  0  0  0
   35.7510   27.8018   44.9184 H   0  0  0  0  0  0  0  0  0  0  0  0
   39.3556   27.5532   43.0757 H   0  0  0  0  0  0  0  0  0  0  0  0
   38.6483   26.6284   44.4524 H   0  0  0  0  0  0  0  0  0  0  0  0
   36.2119   25.9427   42.6500 H   0  0  0  0  0  0  0  0  0  0  0  0
   35.6686   24.0003   41.2194 H   0  0  0  0  0  0  0  0  0  0  0  0
   39.8735   23.4129   40.8184 H   0  0  0  0  0  0  0  0  0  0  0  0
  1  9  1  0
  1  8  1  0
  2  3  2  0
  4  3  1  0
  4  1  1  0
  5  4  2  0
  6  7  2  0
  6  5  1  0
  7  2  1  0
 10  9  1  0
 11 10  2  0
 12 11  1  0
 13 14  1  0
 13 12  2  0
 14 15  2  0
 15 10  1  0
  1 16  1  6
  2 17  1  0
  3 18  1  0
  6 19  1  0
  8 20  1  0
  8 21  1  0
  8 22  1  0
  9 23  1  0
  9 24  1  0
 11 25  1  0
 12 26  1  0
 14 27  1  0
M  ISO  8  16   8  17  14  18  14  19  14  20   8  21   8  22   8  23   8
M  ISO  4  24   8  25  14  26  14  27  14
M  END
>  <minimizedAffinity>  (1) 
-4.56761789

>  <minimizedRMSD>  (1) 
1.8530947

$$$$
