
     RDKit          3D

 26 27  0  0  0  0  0  0  0  0999 V2000
   37.9682   28.8851   43.3767 C   0  0  0  0  0  0  0  0  0  0  0  0
   38.0785   27.4683   43.3158 C   0  0  0  0  0  0  0  0  0  0  0  0
   37.4374   26.8241   42.2616 C   0  0  0  0  0  0  0  0  0  0  0  0
   36.7315   27.5729   41.3320 N   0  0  0  0  0  0  0  0  0  0  0  0
   36.6645   28.9164   41.4456 C   0  0  0  0  0  0  0  0  0  0  0  0
   37.2726   29.5467   42.4486 N   0  0  0  0  0  0  0  0  0  0  0  0
   37.5272   25.3333   42.1585 C   0  0  0  0  0  0  0  0  0  0  0  0
   37.6421   25.0551   40.8077 F   0  0  0  0  0  0  0  0  0  0  0  0
   38.6399   24.8388   42.7875 F   0  0  0  0  0  0  0  0  0  0  0  0
   36.3841   24.7143   42.6390 F   0  0  0  0  0  0  0  0  0  0  0  0
   38.4589   29.4007   44.1872 H   0  0  0  0  0  0  0  0  0  0  0  0
   38.6397   26.9273   44.0634 H   0  0  0  0  0  0  0  0  0  0  0  0
   35.9177   29.6015   40.4453 N   0  0  0  0  0  0  0  0  0  0  0  0
   34.8729   28.9718   39.8777 C   0  0  0  0  0  0  0  0  0  0  0  0
   34.0536   29.5131   38.8906 C   0  0  0  0  0  0  0  0  0  0  0  0
   32.9221   28.6916   38.3491 C   0  0  0  0  0  0  0  0  0  0  0  0
   34.3464   30.7914   38.4726 C   0  0  0  0  0  0  0  0  0  0  0  0
   33.6335   31.2973   37.5953 O   0  0  0  0  0  0  0  0  0  0  0  0
   35.3977   31.4149   39.0488 N   0  0  0  0  0  0  0  0  0  0  0  0
   36.1730   30.8477   40.0119 C   0  0  0  0  0  0  0  0  0  0  0  0
   37.1452   31.4532   40.5297 O   0  0  0  0  0  0  0  0  0  0  0  0
   34.6352   27.9511   40.2083 H   0  0  0  0  0  0  0  0  0  0  0  0
   33.3296   28.0883   37.5397 H   0  0  0  0  0  0  0  0  0  0  0  0
   32.1009   29.3532   38.0737 H   0  0  0  0  0  0  0  0  0  0  0  0
   32.5969   27.9687   39.1485 H   0  0  0  0  0  0  0  0  0  0  0  0
   35.6051   32.3900   38.7162 H   0  0  0  0  0  0  0  0  0  0  0  0
  2  1  2  0
  3  2  1  0
  4  5  1  0
  4  3  2  0
  5  6  2  0
  6  1  1  0
  7  3  1  0
  7 10  1  0
  7  9  1  0
  8  7  1  0
  1 11  1  0
  2 12  1  0
 13 14  1  0
 14 15  2  0
 15 16  1  0
 15 17  1  0
 17 18  2  0
 17 19  1  0
 19 20  1  0
 20 21  2  0
 20 13  1  0
 14 22  1  0
 16 23  1  0
 16 24  1  0
 16 25  1  0
 19 26  1  0
  5 13  1  0
M  ISO  2  11  14  12  14
M  END
>  <DihAtoms>  (1) 
3,4,12,13

>  <DihDeg>  (1) 
-149.3105242598518

$$$$
