
     RDKit          3D

 31 33  0  0  0  0  0  0  0  0999 V2000
   38.7050   28.1670   42.7350 C   0  0  0  0  0  0  0  0  0  0  0  0
   37.6160   27.3750   42.8720 C   0  0  0  0  0  0  0  0  0  0  0  0
   36.5440   28.0130   42.2950 C   0  0  0  0  0  0  0  0  0  0  0  0
   37.0450   29.1890   41.8220 N   0  0  0  0  0  0  0  0  0  0  0  0
   38.3140   29.2750   42.0830 N   0  0  0  0  0  0  0  0  0  0  0  0
   41.6220   26.5150   44.3820 C   0  0  0  0  0  0  0  0  0  0  0  0
   40.3190   26.7460   43.9440 C   0  0  0  0  0  0  0  0  0  0  0  0
   40.0370   27.8840   43.2070 C   0  0  0  0  0  0  0  0  0  0  0  0
   41.0450   28.7540   42.9270 N   0  0  0  0  0  0  0  0  0  0  0  0
   42.3050   28.4900   43.3760 C   0  0  0  0  0  0  0  0  0  0  0  0
   42.5930   27.3970   44.0880 N   0  0  0  0  0  0  0  0  0  0  0  0
   36.1190   30.0860   41.1610 C   0  0  0  0  0  0  0  0  0  0  0  0
   35.2560   29.4410   40.1490 C   0  0  0  0  0  0  0  0  0  0  0  0
   35.6820   29.5450   38.7570 C   0  0  0  0  0  0  0  0  0  0  0  0
   35.2260   28.9610   37.5980 C   0  0  0  0  0  0  0  0  0  0  0  0
   35.7850   29.2150   36.3640 C   0  0  0  0  0  0  0  0  0  0  0  0
   36.8230   30.0620   36.2370 N   0  0  0  0  0  0  0  0  0  0  0  0
   37.2800   30.6440   37.3770 C   0  0  0  0  0  0  0  0  0  0  0  0
   36.7370   30.3990   38.5800 N   0  0  0  0  0  0  0  0  0  0  0  0
   37.5929   26.3900   43.3611 H   0  0  0  0  0  0  0  0  0  0  0  0
   35.5068   27.6527   42.2292 H   0  0  0  0  0  0  0  0  0  0  0  0
   41.8552   25.6130   44.9669 H   0  0  0  0  0  0  0  0  0  0  0  0
   39.5197   26.0288   44.1823 H   0  0  0  0  0  0  0  0  0  0  0  0
   43.1116   29.2010   43.1441 H   0  0  0  0  0  0  0  0  0  0  0  0
   35.4714   30.5369   41.9274 H   0  0  0  0  0  0  0  0  0  0  0  0
   36.7305   30.8261   40.6241 H   0  0  0  0  0  0  0  0  0  0  0  0
   35.1930   28.3715   40.3985 H   0  0  0  0  0  0  0  0  0  0  0  0
   34.3004   29.9835   40.1984 H   0  0  0  0  0  0  0  0  0  0  0  0
   34.3792   28.2615   37.6586 H   0  0  0  0  0  0  0  0  0  0  0  0
   35.3772   28.7187   35.4710 H   0  0  0  0  0  0  0  0  0  0  0  0
   38.1272   31.3425   37.3114 H   0  0  0  0  0  0  0  0  0  0  0  0
  1  2  1  0
  1  8  1  0
  3  2  2  0
  4  5  1  0
  4  3  1  0
  5  1  2  0
  7  6  2  0
  8  7  1  0
  9  8  2  0
  9 10  1  0
 10 11  2  0
 11  6  1  0
 12  4  1  0
 13 12  1  0
 14 13  1  0
 15 14  2  0
 16 15  1  0
 17 16  2  0
 17 18  1  0
 18 19  2  0
 19 14  1  0
  2 20  1  0
  3 21  1  0
  6 22  1  0
  7 23  1  0
 10 24  1  0
 12 25  1  0
 12 26  1  0
 13 27  1  0
 13 28  1  0
 15 29  1  0
 16 30  1  0
 18 31  1  0
M  ISO  8  20  14  21  14  22  14  23  14  24  14  25   8  26   8  27   8
M  ISO  4  28   8  29  14  30  14  31  14
M  END
>  <minimizedAffinity>  (1) 
-4.54931974

>  <minimizedRMSD>  (1) 
1.23356831

$$$$
