
     RDKit          3D

 43 47  0  0  0  0  0  0  0  0999 V2000
   36.9610   28.3470   41.6800 N   0  0  0  0  0  0  0  0  0  0  0  0
   36.3390   27.4360   42.4470 C   0  0  0  0  0  0  0  0  0  0  0  0
   36.7950   27.7010   43.7170 C   0  0  0  0  0  0  0  0  0  0  0  0
   37.6700   28.7480   43.7070 N   0  0  0  0  0  0  0  0  0  0  0  0
   37.7550   29.1290   42.4310 C   0  0  0  0  0  0  0  0  0  0  0  0
   38.6210   30.2170   42.1770 N   0  0  0  0  0  0  0  0  0  0  0  0
   39.7950   30.3900   42.8670 C   0  0  0  0  0  0  0  0  0  0  0  0
   40.4580   31.5150   42.4400 N   0  0  0  0  0  0  0  0  0  0  0  0
   39.7060   32.0670   41.4740 C   0  0  0  0  0  0  0  0  0  0  0  0
   39.8650   33.1900   40.6950 C   0  0  0  0  0  0  0  0  0  0  0  0
   38.8850   33.4320   39.8140 N   0  0  0  0  0  0  0  0  0  0  0  0
   37.7960   32.6530   39.6660 C   0  0  0  0  0  0  0  0  0  0  0  0
   37.6360   31.5490   40.4280 N   0  0  0  0  0  0  0  0  0  0  0  0
   38.5840   31.2670   41.3190 C   0  0  0  0  0  0  0  0  0  0  0  0
   35.6650   28.9290   39.6640 C   0  0  0  0  0  0  0  0  0  0  0  0
   36.8160   28.4770   40.2900 C   0  0  0  0  0  0  0  0  0  0  0  0
   37.9130   28.1260   39.4450 C   0  0  0  0  0  0  0  0  0  0  0  0
   37.7740   28.2520   38.1000 N   0  0  0  0  0  0  0  0  0  0  0  0
   36.6050   28.7070   37.5380 C   0  0  0  0  0  0  0  0  0  0  0  0
   35.5440   29.0480   38.3270 N   0  0  0  0  0  0  0  0  0  0  0  0
   36.4950   28.8250   36.1220 N   0  0  0  0  0  0  0  0  0  0  0  0
   36.4570   30.0310   35.5250 C   0  0  0  0  0  0  0  0  0  0  0  0
   36.3500   30.0710   34.1350 C   0  0  0  0  0  0  0  0  0  0  0  0
   36.2990   31.3470   33.3720 C   0  0  0  0  0  0  0  0  0  0  0  0
   36.2920   28.8460   33.5050 C   0  0  0  0  0  0  0  0  0  0  0  0
   36.1940   28.8710   32.2310 O   0  0  0  0  0  0  0  0  0  0  0  0
   36.3310   27.6400   34.0990 N   0  0  0  0  0  0  0  0  0  0  0  0
   36.4360   27.6560   35.4570 C   0  0  0  0  0  0  0  0  0  0  0  0
   36.4720   26.5320   36.0200 O   0  0  0  0  0  0  0  0  0  0  0  0
   41.0030   34.0410   40.8220 N   0  0  0  0  0  0  0  0  0  0  0  0
   35.6287   26.6575   42.1317 H   0  0  0  0  0  0  0  0  0  0  0  0
   36.4954   27.1451   44.6176 H   0  0  0  0  0  0  0  0  0  0  0  0
   40.1573   29.7165   43.6577 H   0  0  0  0  0  0  0  0  0  0  0  0
   37.0322   32.9175   38.9199 H   0  0  0  0  0  0  0  0  0  0  0  0
   34.8048   29.2052   40.2916 H   0  0  0  0  0  0  0  0  0  0  0  0
   38.8558   27.7593   39.8771 H   0  0  0  0  0  0  0  0  0  0  0  0
   36.5088   30.9573   36.1159 H   0  0  0  0  0  0  0  0  0  0  0  0
   36.2652   32.1930   34.0742 H   0  0  0  0  0  0  0  0  0  0  0  0
   37.1945   31.4316   32.7388 H   0  0  0  0  0  0  0  0  0  0  0  0
   35.3996   31.3599   32.7388 H   0  0  0  0  0  0  0  0  0  0  0  0
   36.2845   26.7621   33.5624 H   0  0  0  0  0  0  0  0  0  0  0  0
   41.0921   34.8745   40.2235 H   0  0  0  0  0  0  0  0  0  0  0  0
   41.7355   33.8219   41.5122 H   0  0  0  0  0  0  0  0  0  0  0  0
  1  5  1  0
  1  2  1  0
  2  3  2  0
  4  3  1  0
  5  4  2  0
  6  5  1  0
  6  7  1  0
  8  7  2  0
  9  8  1  0
 10 30  1  0
 10  9  2  0
 11 10  1  0
 12 11  2  0
 12 13  1  0
 13 14  2  0
 14  9  1  0
 14  6  1  0
 15 16  2  0
 16  1  1  0
 17 16  1  0
 18 17  2  0
 19 18  1  0
 19 20  2  0
 20 15  1  0
 21 19  1  0
 22 21  1  0
 23 22  2  0
 24 23  1  0
 25 27  1  0
 25 23  1  0
 26 25  2  0
 27 28  1  0
 28 29  2  0
 28 21  1  0
  2 31  1  0
  3 32  1  0
  7 33  1  0
 12 34  1  0
 15 35  1  0
 17 36  1  0
 22 37  1  0
 24 38  1  0
 24 39  1  0
 24 40  1  0
 27 41  1  0
 30 42  1  0
 30 43  1  0
M  ISO  8  31  14  32  14  33  14  34  14  35  14  36  14  37  14  38   8
M  ISO  3  39   8  40   8  41   9
M  END
>  <minimizedAffinity>  (1) 
-6.57180691

>  <minimizedRMSD>  (1) 
1.27262318

$$$$
