
     RDKit          3D

 26 27  0  0  0  0  0  0  0  0999 V2000
   37.9682   28.8851   43.3767 C   0  0  0  0  0  0  0  0  0  0  0  0
   38.0785   27.4683   43.3158 C   0  0  0  0  0  0  0  0  0  0  0  0
   37.4374   26.8241   42.2616 C   0  0  0  0  0  0  0  0  0  0  0  0
   36.7315   27.5729   41.3320 N   0  0  0  0  0  0  0  0  0  0  0  0
   36.6645   28.9164   41.4456 C   0  0  0  0  0  0  0  0  0  0  0  0
   37.2726   29.5467   42.4486 N   0  0  0  0  0  0  0  0  0  0  0  0
   37.5272   25.3333   42.1585 C   0  0  0  0  0  0  0  0  0  0  0  0
   37.6421   25.0551   40.8077 F   0  0  0  0  0  0  0  0  0  0  0  0
   38.6399   24.8388   42.7875 F   0  0  0  0  0  0  0  0  0  0  0  0
   36.3841   24.7143   42.6390 F   0  0  0  0  0  0  0  0  0  0  0  0
   38.4589   29.4007   44.1872 H   0  0  0  0  0  0  0  0  0  0  0  0
   38.6397   26.9273   44.0634 H   0  0  0  0  0  0  0  0  0  0  0  0
   35.9177   29.6015   40.4453 N   0  0  0  0  0  0  0  0  0  0  0  0
   34.6099   29.3158   40.3096 C   0  0  0  0  0  0  0  0  0  0  0  0
   33.7558   29.9027   39.3797 C   0  0  0  0  0  0  0  0  0  0  0  0
   32.3165   29.4840   39.3439 C   0  0  0  0  0  0  0  0  0  0  0  0
   34.3048   30.8459   38.5410 C   0  0  0  0  0  0  0  0  0  0  0  0
   33.5674   31.3839   37.7040 O   0  0  0  0  0  0  0  0  0  0  0  0
   35.6190   31.1254   38.6854 N   0  0  0  0  0  0  0  0  0  0  0  0
   36.4181   30.5270   39.6093 C   0  0  0  0  0  0  0  0  0  0  0  0
   37.6383   30.8082   39.7199 O   0  0  0  0  0  0  0  0  0  0  0  0
   34.1671   28.5634   40.9771 H   0  0  0  0  0  0  0  0  0  0  0  0
   32.2582   28.6103   38.6970 H   0  0  0  0  0  0  0  0  0  0  0  0
   31.7052   30.3339   39.0408 H   0  0  0  0  0  0  0  0  0  0  0  0
   32.0251   29.1341   40.3735 H   0  0  0  0  0  0  0  0  0  0  0  0
   36.0193   31.8481   38.0358 H   0  0  0  0  0  0  0  0  0  0  0  0
  2  1  2  0
  3  2  1  0
  4  5  1  0
  4  3  2  0
  5  6  2  0
  6  1  1  0
  7  3  1  0
  7 10  1  0
  7  9  1  0
  8  7  1  0
  1 11  1  0
  2 12  1  0
 13 14  1  0
 14 15  2  0
 15 16  1  0
 15 17  1  0
 17 18  2  0
 17 19  1  0
 19 20  1  0
 20 21  2  0
 20 13  1  0
 14 22  1  0
 16 23  1  0
 16 24  1  0
 16 25  1  0
 19 26  1  0
  5 13  1  0
M  ISO  2  11  14  12  14
M  END
>  <DihAtoms>  (1) 
3,4,12,13

>  <DihDeg>  (1) 
-149.3105242598518

$$$$
