
     RDKit          3D

 26 27  0  0  0  0  0  0  0  0999 V2000
   37.9682   28.8851   43.3767 C   0  0  0  0  0  0  0  0  0  0  0  0
   38.0785   27.4683   43.3158 C   0  0  0  0  0  0  0  0  0  0  0  0
   37.4374   26.8241   42.2616 C   0  0  0  0  0  0  0  0  0  0  0  0
   36.7315   27.5729   41.3320 N   0  0  0  0  0  0  0  0  0  0  0  0
   36.6645   28.9164   41.4456 C   0  0  0  0  0  0  0  0  0  0  0  0
   37.2726   29.5467   42.4486 N   0  0  0  0  0  0  0  0  0  0  0  0
   37.5272   25.3333   42.1585 C   0  0  0  0  0  0  0  0  0  0  0  0
   37.6421   25.0551   40.8077 F   0  0  0  0  0  0  0  0  0  0  0  0
   38.6399   24.8388   42.7875 F   0  0  0  0  0  0  0  0  0  0  0  0
   36.3841   24.7143   42.6390 F   0  0  0  0  0  0  0  0  0  0  0  0
   38.4589   29.4007   44.1872 H   0  0  0  0  0  0  0  0  0  0  0  0
   38.6397   26.9273   44.0634 H   0  0  0  0  0  0  0  0  0  0  0  0
   35.9177   29.6015   40.4453 N   0  0  0  0  0  0  0  0  0  0  0  0
   36.0781   30.9315   40.3201 C   0  0  0  0  0  0  0  0  0  0  0  0
   35.4185   31.7322   39.3915 C   0  0  0  0  0  0  0  0  0  0  0  0
   35.6981   33.2052   39.3679 C   0  0  0  0  0  0  0  0  0  0  0  0
   34.5375   31.1017   38.5425 C   0  0  0  0  0  0  0  0  0  0  0  0
   33.9370   31.7904   37.7065 O   0  0  0  0  0  0  0  0  0  0  0  0
   34.3837   29.7659   38.6765 N   0  0  0  0  0  0  0  0  0  0  0  0
   35.0496   29.0210   39.5994 C   0  0  0  0  0  0  0  0  0  0  0  0
   34.8855   27.7788   39.7002 O   0  0  0  0  0  0  0  0  0  0  0  0
   36.7804   31.4393   40.9957 H   0  0  0  0  0  0  0  0  0  0  0  0
   35.0273   33.6651   40.0917 H   0  0  0  0  0  0  0  0  0  0  0  0
   35.6056   33.5695   38.3449 H   0  0  0  0  0  0  0  0  0  0  0  0
   36.7421   33.3724   39.7547 H   0  0  0  0  0  0  0  0  0  0  0  0
   33.7067   29.3031   38.0192 H   0  0  0  0  0  0  0  0  0  0  0  0
  2  1  2  0
  3  2  1  0
  4  5  1  0
  4  3  2  0
  5  6  2  0
  6  1  1  0
  7  3  1  0
  7 10  1  0
  7  9  1  0
  8  7  1  0
  1 11  1  0
  2 12  1  0
 13 14  1  0
 14 15  2  0
 15 16  1  0
 15 17  1  0
 17 18  2  0
 17 19  1  0
 19 20  1  0
 20 21  2  0
 20 13  1  0
 14 22  1  0
 16 23  1  0
 16 24  1  0
 16 25  1  0
 19 26  1  0
  5 13  1  0
M  ISO  2  11  14  12  14
M  END
>  <DihAtoms>  (1) 
3,4,12,13

>  <DihDeg>  (1) 
-149.3105242598518

$$$$
