
     RDKit          3D

 41 43  0  0  1  0  0  0  0  0999 V2000
   37.8200   28.7730   41.6930 N   0  0  0  0  0  0  0  0  0  0  0  0
   37.2370   28.5780   42.8640 C   0  0  0  0  0  0  0  0  0  0  0  0
   36.8020   27.3420   43.2850 C   0  0  0  0  0  0  0  0  0  0  0  0
   36.9690   26.2230   42.4620 C   0  0  0  0  0  0  0  0  0  0  0  0
   36.5750   25.1000   42.8420 O   0  0  0  0  0  0  0  0  0  0  0  0
   37.5700   26.4710   41.2740 N   0  0  0  0  0  0  0  0  0  0  0  0
   37.9720   27.6910   40.9150 C   0  0  0  0  0  0  0  0  0  0  0  0
   38.5210   27.8060   39.7850 O   0  0  0  0  0  0  0  0  0  0  0  0
   37.7510   25.3350   40.4130 C   0  0  2  0  0  0  0  0  0  0  0  0
   36.6000   24.4910   40.1330 C   0  0  0  0  0  0  0  0  0  0  0  0
   37.2260   23.1710   39.6740 C   0  0  0  0  0  0  0  0  0  0  0  0
   38.3700   23.0110   40.6100 C   0  0  0  0  0  0  0  0  0  0  0  0
   38.8460   24.3990   40.9140 C   0  0  1  0  0  0  0  0  0  0  0  0
   40.1830   24.7310   40.3520 C   0  0  0  0  0  0  0  0  0  0  0  0
   38.2740   30.0410   41.2430 C   0  0  0  0  0  0  0  0  0  0  0  0
   39.2730   30.8120   41.9230 C   0  0  0  0  0  0  0  0  0  0  0  0
   39.6180   32.0450   41.3580 C   0  0  0  0  0  0  0  0  0  0  0  0
   39.0050   32.4250   40.2330 N   0  0  0  0  0  0  0  0  0  0  0  0
   38.0660   31.6830   39.6100 C   0  0  0  0  0  0  0  0  0  0  0  0
   37.7290   30.5110   40.1350 N   0  0  0  0  0  0  0  0  0  0  0  0
   37.4610   32.1300   38.4410 O   0  0  0  0  0  0  0  0  0  0  0  0
   37.8210   31.7080   37.1880 C   0  0  0  0  0  0  0  0  0  0  0  0
   39.0590   32.2560   36.7520 N   0  0  0  0  0  0  0  0  0  0  0  0
   37.2150   30.9230   36.4000 O   0  0  0  0  0  0  0  0  0  0  0  0
   37.0935   29.4413   43.5305 H   0  0  0  0  0  0  0  0  0  0  0  0
   36.3227   27.2339   44.2692 H   0  0  0  0  0  0  0  0  0  0  0  0
   38.0054   25.8498   39.4748 H   0  0  0  0  0  0  0  0  0  0  0  0
   35.9914   24.3437   41.0374 H   0  0  0  0  0  0  0  0  0  0  0  0
   35.9223   24.9264   39.3839 H   0  0  0  0  0  0  0  0  0  0  0  0
   36.5136   22.3386   39.7719 H   0  0  0  0  0  0  0  0  0  0  0  0
   37.5244   23.1734   38.6152 H   0  0  0  0  0  0  0  0  0  0  0  0
   38.0432   22.5076   41.5319 H   0  0  0  0  0  0  0  0  0  0  0  0
   39.1693   22.3959   40.1710 H   0  0  0  0  0  0  0  0  0  0  0  0
   39.0091   24.5055   41.9966 H   0  0  0  0  0  0  0  0  0  0  0  0
   40.8927   24.9072   41.1738 H   0  0  0  0  0  0  0  0  0  0  0  0
   40.5389   23.8939   39.7334 H   0  0  0  0  0  0  0  0  0  0  0  0
   40.1059   25.6373   39.7334 H   0  0  0  0  0  0  0  0  0  0  0  0
   39.7472   30.4507   42.8475 H   0  0  0  0  0  0  0  0  0  0  0  0
   40.3767   32.6870   41.8294 H   0  0  0  0  0  0  0  0  0  0  0  0
   39.4326   32.0103   35.8241 H   0  0  0  0  0  0  0  0  0  0  0  0
   39.5819   32.8985   37.3641 H   0  0  0  0  0  0  0  0  0  0  0  0
  1  2  1  0
  2  3  2  0
  4  5  2  0
  4  3  1  0
  6  4  1  0
  7  6  1  0
  7  1  1  0
  8  7  2  0
  9 13  1  0
  9  6  1  0
 10  9  1  0
 11 10  1  0
 11 12  1  0
 12 13  1  0
 14 13  1  0
 15  1  1  0
 15 16  2  0
 17 16  1  0
 18 17  2  0
 19 20  2  0
 19 18  1  0
 20 15  1  0
 21 19  1  0
 22 21  1  0
 23 22  1  0
 24 22  2  0
  2 25  1  0
  3 26  1  0
  9 27  1  6
 10 28  1  0
 10 29  1  0
 11 30  1  0
 11 31  1  0
 12 32  1  0
 12 33  1  0
 13 34  1  1
 14 35  1  0
 14 36  1  0
 14 37  1  0
 16 38  1  0
 17 39  1  0
 23 40  1  0
 23 41  1  0
M  ISO  8  25  14  26  14  27  13  28  13  29  13  30  13  31  13  32  13
M  ISO  7  33  13  34  13  35   8  36   8  37   8  38  14  39  14
M  END
>  <minimizedAffinity>  (1) 
-5.58027411

>  <minimizedRMSD>  (1) 
1.11471117

$$$$
