
     RDKit          3D

 15 15  0  0  0  0  0  0  0  0999 V2000
   37.9480   28.7720   43.4220 C   0  0  0  0  0  0  0  0  0  0  0  0
   37.9660   27.3700   43.4400 C   0  0  0  0  0  0  0  0  0  0  0  0
   37.3170   26.6930   42.4140 C   0  0  0  0  0  0  0  0  0  0  0  0
   36.6940   27.4310   41.4380 N   0  0  0  0  0  0  0  0  0  0  0  0
   36.7010   28.7710   41.4590 C   0  0  0  0  0  0  0  0  0  0  0  0
   37.3190   29.4340   42.4370 N   0  0  0  0  0  0  0  0  0  0  0  0
   37.3470   25.3170   42.4510 O   0  0  0  0  0  0  0  0  0  0  0  0
   38.6060   24.7150   42.2600 C   0  0  0  0  0  0  0  0  0  0  0  0
   39.3990   23.9330   43.1510 N   0  0  0  0  0  0  0  0  0  0  0  0
   39.1070   24.8940   41.1190 O   0  0  0  0  0  0  0  0  0  0  0  0
   38.4532   29.3343   44.2211 H   0  0  0  0  0  0  0  0  0  0  0  0
   38.4793   26.8213   44.2435 H   0  0  0  0  0  0  0  0  0  0  0  0
   36.1913   29.3301   40.6605 H   0  0  0  0  0  0  0  0  0  0  0  0
   40.3102   23.5654   42.8418 H   0  0  0  0  0  0  0  0  0  0  0  0
   39.0605   23.7359   44.1036 H   0  0  0  0  0  0  0  0  0  0  0  0
  1  2  2  0
  3  7  1  0
  3  2  1  0
  4  5  1  0
  4  3  2  0
  5  6  2  0
  6  1  1  0
  8  7  1  0
  8  9  1  0
 10  8  2  0
  1 11  1  0
  2 12  1  0
  5 13  1  0
  9 14  1  0
  9 15  1  0
M  ISO  3  11  14  12  14  13  14
M  END
>  <minimizedAffinity>  (1) 
-3.19590306

>  <minimizedRMSD>  (1) 
1.01622963

$$$$
