
     RDKit          3D

 27 29  0  0  0  0  0  0  0  0999 V2000
   37.9686   28.8801   43.3685 C   0  0  0  0  0  0  0  0  0  0  0  0
   38.0896   27.4633   43.3138 C   0  0  0  0  0  0  0  0  0  0  0  0
   37.4401   26.8239   42.2564 C   0  0  0  0  0  0  0  0  0  0  0  0
   36.7333   27.5729   41.3423 N   0  0  0  0  0  0  0  0  0  0  0  0
   36.6595   28.9078   41.4529 C   0  0  0  0  0  0  0  0  0  0  0  0
   37.2660   29.5592   42.4492 N   0  0  0  0  0  0  0  0  0  0  0  0
   37.5322   25.3396   42.1484 C   0  0  0  0  0  0  0  0  0  0  0  0
   37.6498   25.0506   40.8046 F   0  0  0  0  0  0  0  0  0  0  0  0
   38.6304   24.8395   42.7985 F   0  0  0  0  0  0  0  0  0  0  0  0
   36.3763   24.7180   42.6384 F   0  0  0  0  0  0  0  0  0  0  0  0
   38.4467   29.4396   44.1614 H   0  0  0  0  0  0  0  0  0  0  0  0
   38.6565   26.9517   44.0615 H   0  0  0  0  0  0  0  0  0  0  0  0
   35.8765   29.4635   40.3953 N   0  0  0  0  0  0  0  0  0  0  0  0
   34.5546   29.3025   40.1033 C   0  0  0  0  0  0  0  0  0  0  0  0
   34.2903   30.0415   38.9969 N   0  0  0  0  0  0  0  0  0  0  0  0
   35.4238   30.6548   38.6016 C   0  0  0  0  0  0  0  0  0  0  0  0
   35.6040   31.5022   37.5195 C   0  0  0  0  0  0  0  0  0  0  0  0
   34.6487   31.8024   36.7426 O   0  0  0  0  0  0  0  0  0  0  0  0
   36.8331   32.0050   37.3111 N   0  0  0  0  0  0  0  0  0  0  0  0
   37.8127   31.6627   38.1549 C   0  0  0  0  0  0  0  0  0  0  0  0
   39.1503   32.1337   38.0315 N   0  0  0  0  0  0  0  0  0  0  0  0
   37.6264   30.8433   39.1963 N   0  0  0  0  0  0  0  0  0  0  0  0
   36.4175   30.2910   39.4799 C   0  0  0  0  0  0  0  0  0  0  0  0
   33.8970   28.6649   40.7157 H   0  0  0  0  0  0  0  0  0  0  0  0
   37.0269   32.6444   36.5172 H   0  0  0  0  0  0  0  0  0  0  0  0
   39.6184   31.4648   37.3812 H   0  0  0  0  0  0  0  0  0  0  0  0
   39.8511   32.8520   38.3105 H   0  0  0  0  0  0  0  0  0  0  0  0
  2  1  2  0
  3  2  1  0
  4  5  1  0
  4  3  2  0
  5  6  2  0
  6  1  1  0
  7  3  1  0
  7 10  1  0
  7  9  1  0
  8  7  1  0
  1 11  1  0
  2 12  1  0
 13 14  1  0
 14 15  2  0
 15 16  1  0
 16 17  1  0
 17 18  2  0
 17 19  1  0
 19 20  1  0
 20 21  1  0
 20 22  2  0
 22 23  1  0
 23 13  1  0
 23 16  2  0
 14 24  1  0
 19 25  1  0
 21 26  1  0
 21 27  1  0
  5 13  1  0
M  ISO  2  11  14  12  14
M  END
>  <DihAtoms>  (1) 
3,4,12,13

>  <DihDeg>  (1) 
49.180855720071584

$$$$
