
     RDKit          3D

 31 34  0  0  1  0  0  0  0  0999 V2000
   36.2260   30.6930   40.8340 C   0  0  1  0  0  0  0  0  0  0  0  0
   36.9500   31.9070   40.3380 C   0  0  0  0  0  0  0  0  0  0  0  0
   36.6360   30.8440   39.3600 C   0  0  1  0  0  0  0  0  0  0  0  0
   37.6310   29.9820   38.8120 N   0  0  0  0  0  0  0  0  0  0  0  0
   37.6540   28.6430   38.7160 C   0  0  0  0  0  0  0  0  0  0  0  0
   38.8030   28.2130   38.1190 N   0  0  0  0  0  0  0  0  0  0  0  0
   39.5160   29.3360   37.8340 C   0  0  0  0  0  0  0  0  0  0  0  0
   40.7360   29.5310   37.2400 C   0  0  0  0  0  0  0  0  0  0  0  0
   41.4210   28.5550   36.8380 O   0  0  0  0  0  0  0  0  0  0  0  0
   41.2780   30.7530   37.0460 N   0  0  0  0  0  0  0  0  0  0  0  0
   40.5290   31.7910   37.4840 C   0  0  0  0  0  0  0  0  0  0  0  0
   41.0310   33.1030   37.3160 N   0  0  0  0  0  0  0  0  0  0  0  0
   39.3470   31.6180   38.0610 N   0  0  0  0  0  0  0  0  0  0  0  0
   38.7830   30.4140   38.2660 C   0  0  0  0  0  0  0  0  0  0  0  0
   39.0220   29.3360   42.8300 C   0  0  0  0  0  0  0  0  0  0  0  0
   38.5230   28.0580   43.1900 C   0  0  0  0  0  0  0  0  0  0  0  0
   37.2370   27.6770   42.7330 C   0  0  0  0  0  0  0  0  0  0  0  0
   36.5390   28.5770   41.9590 N   0  0  0  0  0  0  0  0  0  0  0  0
   37.0670   29.7780   41.6500 C   0  0  0  0  0  0  0  0  0  0  0  0
   38.2910   30.1590   42.0750 N   0  0  0  0  0  0  0  0  0  0  0  0
   35.2851   30.4833   41.3639 H   0  0  0  0  0  0  0  0  0  0  0  0
   36.4218   32.8703   40.2825 H   0  0  0  0  0  0  0  0  0  0  0  0
   37.8750   32.4213   40.6377 H   0  0  0  0  0  0  0  0  0  0  0  0
   36.1281   30.8311   38.3844 H   0  0  0  0  0  0  0  0  0  0  0  0
   36.8518   27.9798   39.0719 H   0  0  0  0  0  0  0  0  0  0  0  0
   42.1955   30.8850   36.5969 H   0  0  0  0  0  0  0  0  0  0  0  0
   40.4804   33.9106   37.6408 H   0  0  0  0  0  0  0  0  0  0  0  0
   41.9471   33.2506   36.8689 H   0  0  0  0  0  0  0  0  0  0  0  0
   40.0178   29.6509   43.1752 H   0  0  0  0  0  0  0  0  0  0  0  0
   39.1223   27.3764   43.8115 H   0  0  0  0  0  0  0  0  0  0  0  0
   36.8107   26.6955   42.9879 H   0  0  0  0  0  0  0  0  0  0  0  0
  1 19  1  0
  2  1  1  0
  3  2  1  0
  3  1  1  0
  4  3  1  0
  5  4  1  0
  6  5  2  0
  7  6  1  0
  7 14  2  0
  8  7  1  0
  9  8  2  0
 10  8  1  0
 10 11  1  0
 11 13  2  0
 12 11  1  0
 13 14  1  0
 14  4  1  0
 15 16  2  0
 17 16  1  0
 18 17  2  0
 19 18  1  0
 19 20  2  0
 20 15  1  0
  1 21  1  6
  2 22  1  0
  2 23  1  0
  3 24  1  6
  5 25  1  0
 10 26  1  0
 12 27  1  0
 12 28  1  0
 15 29  1  0
 16 30  1  0
 17 31  1  0
M  ISO  8  21  13  22  13  23  13  24  13  25  14  26   9  29  14  30  14
M  ISO  1  31  14
M  END
>  <minimizedAffinity>  (1) 
-5.34487772

>  <minimizedRMSD>  (1) 
1.78574705

$$$$
