
     RDKit          3D

 30 33  0  0  0  0  0  0  0  0999 V2000
   37.0420   29.8750   41.9430 C   0  0  0  0  0  0  0  0  0  0  0  0
   38.1270   29.2870   41.2540 C   0  0  0  0  0  0  0  0  0  0  0  0
   38.3160   29.6480   39.9390 C   0  0  0  0  0  0  0  0  0  0  0  0
   37.4900   30.5310   39.3370 N   0  0  0  0  0  0  0  0  0  0  0  0
   36.4450   31.0810   40.0430 C   0  0  0  0  0  0  0  0  0  0  0  0
   36.2290   30.7510   41.3360 N   0  0  0  0  0  0  0  0  0  0  0  0
   39.3610   29.1780   39.1020 N   0  0  0  0  0  0  0  0  0  0  0  0
   39.7130   27.8670   38.9360 C   0  0  0  0  0  0  0  0  0  0  0  0
   40.7330   27.8340   38.0610 N   0  0  0  0  0  0  0  0  0  0  0  0
   41.0080   29.0890   37.6940 C   0  0  0  0  0  0  0  0  0  0  0  0
   41.9320   29.6560   36.8410 C   0  0  0  0  0  0  0  0  0  0  0  0
   42.7590   28.9420   36.2030 O   0  0  0  0  0  0  0  0  0  0  0  0
   42.0470   30.9910   36.6030 N   0  0  0  0  0  0  0  0  0  0  0  0
   41.1820   31.8150   37.2620 C   0  0  0  0  0  0  0  0  0  0  0  0
   41.2570   33.2200   37.0520 N   0  0  0  0  0  0  0  0  0  0  0  0
   40.2530   31.2940   38.1160 N   0  0  0  0  0  0  0  0  0  0  0  0
   40.1630   29.9730   38.3310 C   0  0  0  0  0  0  0  0  0  0  0  0
   38.9670   28.3450   41.9520 C   0  0  0  0  0  0  0  0  0  0  0  0
   38.4900   27.0370   42.2400 C   0  0  0  0  0  0  0  0  0  0  0  0
   39.8890   26.2110   43.1340 S   0  0  0  0  0  0  0  0  0  0  0  0
   40.8960   27.8020   42.9650 C   0  0  0  0  0  0  0  0  0  0  0  0
   40.1870   28.4840   42.4130 N   0  0  0  0  0  0  0  0  0  0  0  0
   36.8617   29.6093   42.9951 H   0  0  0  0  0  0  0  0  0  0  0  0
   35.7754   31.7998   39.5480 H   0  0  0  0  0  0  0  0  0  0  0  0
   39.2476   26.9999   39.4275 H   0  0  0  0  0  0  0  0  0  0  0  0
   42.7555   31.3627   35.9543 H   0  0  0  0  0  0  0  0  0  0  0  0
   40.6081   33.8498   37.5452 H   0  0  0  0  0  0  0  0  0  0  0  0
   41.9602   33.6075   36.4068 H   0  0  0  0  0  0  0  0  0  0  0  0
   37.5082   26.6095   41.9882 H   0  0  0  0  0  0  0  0  0  0  0  0
   41.9172   28.0104   43.3167 H   0  0  0  0  0  0  0  0  0  0  0  0
  2  1  2  0
  2 18  1  0
  3  2  1  0
  4  3  2  0
  4  5  1  0
  5  6  2  0
  6  1  1  0
  7  3  1  0
  8  7  1  0
  9  8  2  0
 10  9  1  0
 10 17  2  0
 11 10  1  0
 12 11  2  0
 13 11  1  0
 13 14  1  0
 14 16  2  0
 15 14  1  0
 16 17  1  0
 17  7  1  0
 18 19  2  0
 18 22  1  0
 19 20  1  0
 21 20  1  0
 22 21  2  0
  1 23  1  0
  5 24  1  0
  8 25  1  0
 13 26  1  0
 15 27  1  0
 15 28  1  0
 19 29  1  0
 21 30  1  0
M  ISO  6  23  14  24  14  25  14  26   9  29  14  30  14
M  END
>  <minimizedAffinity>  (1) 
-5.11314583

>  <minimizedRMSD>  (1) 
1.69154274

$$$$
