
     RDKit          3D

 56 60  0  0  0  0  0  0  0  0999 V2000
   36.9500   31.0130   40.8800 C   0  0  0  0  0  0  0  0  0  0  0  0
   36.5350   31.3740   39.6570 N   0  0  0  0  0  0  0  0  0  0  0  0
   37.2210   32.3920   39.2390 O   0  0  0  0  0  0  0  0  0  0  0  0
   38.1060   32.7410   40.1550 C   0  0  0  0  0  0  0  0  0  0  0  0
   37.9450   31.8890   41.1810 N   0  0  0  0  0  0  0  0  0  0  0  0
   39.0710   33.8410   40.0690 C   0  0  0  0  0  0  0  0  0  0  0  0
   38.9220   35.0480   40.7090 C   0  0  0  0  0  0  0  0  0  0  0  0
   39.8850   36.0400   40.5760 C   0  0  0  0  0  0  0  0  0  0  0  0
   41.0100   35.8380   39.7990 C   0  0  0  0  0  0  0  0  0  0  0  0
   41.1570   34.6350   39.1620 C   0  0  0  0  0  0  0  0  0  0  0  0
   40.1960   33.6430   39.2940 C   0  0  0  0  0  0  0  0  0  0  0  0
   40.4930   32.4510   38.5710 N   0  0  0  0  0  0  0  0  0  0  0  0
   39.7870   31.3150   38.3930 C   0  0  0  0  0  0  0  0  0  0  0  0
   40.5140   30.4770   37.6160 N   0  0  0  0  0  0  0  0  0  0  0  0
   41.6640   31.0940   37.3140 C   0  0  0  0  0  0  0  0  0  0  0  0
   42.7180   30.6490   36.5560 C   0  0  0  0  0  0  0  0  0  0  0  0
   42.7720   29.5120   35.9850 O   0  0  0  0  0  0  0  0  0  0  0  0
   43.8020   31.4200   36.3630 N   0  0  0  0  0  0  0  0  0  0  0  0
   43.7980   32.6370   36.9470 C   0  0  0  0  0  0  0  0  0  0  0  0
   44.8430   33.6100   36.8710 N   0  0  0  0  0  0  0  0  0  0  0  0
   42.7680   33.0660   37.6870 N   0  0  0  0  0  0  0  0  0  0  0  0
   41.6580   32.3250   37.9060 C   0  0  0  0  0  0  0  0  0  0  0  0
   36.6820   30.0750   41.8560 O   0  0  0  0  0  0  0  0  0  0  0  0
   37.3170   26.5780   41.0660 C   0  0  0  0  0  0  0  0  0  0  0  0
   38.3720   26.3060   41.9560 C   0  0  0  0  0  0  0  0  0  0  0  0
   38.8340   27.3240   42.7960 C   0  0  0  0  0  0  0  0  0  0  0  0
   38.2200   28.5430   42.7010 N   0  0  0  0  0  0  0  0  0  0  0  0
   37.2060   28.7950   41.8430 C   0  0  0  0  0  0  0  0  0  0  0  0
   36.7470   27.8180   41.0210 N   0  0  0  0  0  0  0  0  0  0  0  0
   39.8710   27.0900   43.6780 N   0  0  0  0  0  0  0  0  0  0  0  0
   36.8190   25.6140   40.2040 N   0  0  0  0  0  0  0  0  0  0  0  0
   38.8890   24.9390   41.9070 C   0  0  0  0  0  0  0  0  0  0  0  0
   37.7900   23.9150   41.6300 C   0  0  0  0  0  0  0  0  0  0  0  0
   39.6400   24.4690   43.1050 C   0  0  0  0  0  0  0  0  0  0  0  0
   39.8610   24.8840   40.7340 C   0  0  0  0  0  0  0  0  0  0  0  0
   38.0334   35.2298   41.3313 H   0  0  0  0  0  0  0  0  0  0  0  0
   39.7504   36.9998   41.0963 H   0  0  0  0  0  0  0  0  0  0  0  0
   41.7703   36.6261   39.6947 H   0  0  0  0  0  0  0  0  0  0  0  0
   42.0456   34.4532   38.5396 H   0  0  0  0  0  0  0  0  0  0  0  0
   38.7903   31.1051   38.8084 H   0  0  0  0  0  0  0  0  0  0  0  0
   44.5988   31.0971   35.7958 H   0  0  0  0  0  0  0  0  0  0  0  0
   44.7418   34.5133   37.3554 H   0  0  0  0  0  0  0  0  0  0  0  0
   45.6970   33.4075   36.3319 H   0  0  0  0  0  0  0  0  0  0  0  0
   40.2046   27.8460   44.2929 H   0  0  0  0  0  0  0  0  0  0  0  0
   40.3106   26.1595   43.7208 H   0  0  0  0  0  0  0  0  0  0  0  0
   36.0455   25.8452   39.5644 H   0  0  0  0  0  0  0  0  0  0  0  0
   37.2223   24.6663   40.2029 H   0  0  0  0  0  0  0  0  0  0  0  0
   37.3886   23.5410   42.5834 H   0  0  0  0  0  0  0  0  0  0  0  0
   36.9827   24.3904   41.0536 H   0  0  0  0  0  0  0  0  0  0  0  0
   38.2072   23.0762   41.0536 H   0  0  0  0  0  0  0  0  0  0  0  0
   39.1180   24.7957   44.0165 H   0  0  0  0  0  0  0  0  0  0  0  0
   39.7018   23.3708   43.0915 H   0  0  0  0  0  0  0  0  0  0  0  0
   40.6547   24.8935   43.0915 H   0  0  0  0  0  0  0  0  0  0  0  0
   40.8916   24.8257   41.1142 H   0  0  0  0  0  0  0  0  0  0  0  0
   39.6457   23.9966   40.1207 H   0  0  0  0  0  0  0  0  0  0  0  0
   39.7472   25.7900   40.1207 H   0  0  0  0  0  0  0  0  0  0  0  0
  1  5  1  0
  1 23  1  0
  2  1  2  0
  3  2  1  0
  3  4  1  0
  4  5  2  0
  6  4  1  0
  6  7  2  0
  8  7  1  0
  9  8  2  0
 10 11  2  0
 10  9  1  0
 11  6  1  0
 12 11  1  0
 13 12  1  0
 14 13  2  0
 15 14  1  0
 15 22  2  0
 16 15  1  0
 17 16  2  0
 18 16  1  0
 18 19  1  0
 19 21  2  0
 20 19  1  0
 21 22  1  0
 22 12  1  0
 24 25  2  0
 25 26  1  0
 26 30  1  0
 27 26  2  0
 28 23  1  0
 28 27  1  0
 29 24  1  0
 29 28  2  0
 31 24  1  0
 32 25  1  0
 32 34  1  0
 33 32  1  0
 35 32  1  0
  7 36  1  0
  8 37  1  0
  9 38  1  0
 10 39  1  0
 13 40  1  0
 18 41  1  0
 20 42  1  0
 20 43  1  0
 30 44  1  0
 30 45  1  0
 31 46  1  0
 31 47  1  0
 33 48  1  0
 33 49  1  0
 33 50  1  0
 34 51  1  0
 34 52  1  0
 34 53  1  0
 35 54  1  0
 35 55  1  0
 35 56  1  0
M  END
>  <minimizedAffinity>  (1) 
-8.17594433

>  <minimizedRMSD>  (1) 
0.723958313

$$$$
