
     RDKit          3D

 27 29  0  0  0  0  0  0  0  0999 V2000
   37.9686   28.8801   43.3685 C   0  0  0  0  0  0  0  0  0  0  0  0
   38.0896   27.4633   43.3138 C   0  0  0  0  0  0  0  0  0  0  0  0
   37.4401   26.8239   42.2564 C   0  0  0  0  0  0  0  0  0  0  0  0
   36.7333   27.5729   41.3423 N   0  0  0  0  0  0  0  0  0  0  0  0
   36.6595   28.9078   41.4529 C   0  0  0  0  0  0  0  0  0  0  0  0
   37.2660   29.5592   42.4492 N   0  0  0  0  0  0  0  0  0  0  0  0
   37.5322   25.3396   42.1484 C   0  0  0  0  0  0  0  0  0  0  0  0
   37.6498   25.0506   40.8046 F   0  0  0  0  0  0  0  0  0  0  0  0
   38.6304   24.8395   42.7985 F   0  0  0  0  0  0  0  0  0  0  0  0
   36.3763   24.7180   42.6384 F   0  0  0  0  0  0  0  0  0  0  0  0
   38.4467   29.4396   44.1614 H   0  0  0  0  0  0  0  0  0  0  0  0
   38.6565   26.9517   44.0615 H   0  0  0  0  0  0  0  0  0  0  0  0
   35.8765   29.4635   40.3953 N   0  0  0  0  0  0  0  0  0  0  0  0
   34.7733   30.2628   40.4460 C   0  0  0  0  0  0  0  0  0  0  0  0
   34.3992   30.5200   39.1677 N   0  0  0  0  0  0  0  0  0  0  0  0
   35.2507   29.8946   38.3304 C   0  0  0  0  0  0  0  0  0  0  0  0
   35.2367   29.8899   36.9442 C   0  0  0  0  0  0  0  0  0  0  0  0
   34.3566   30.5202   36.2852 O   0  0  0  0  0  0  0  0  0  0  0  0
   36.1922   29.1912   36.3072 N   0  0  0  0  0  0  0  0  0  0  0  0
   37.1017   28.5407   37.0409 C   0  0  0  0  0  0  0  0  0  0  0  0
   38.1566   27.7707   36.4748 N   0  0  0  0  0  0  0  0  0  0  0  0
   37.1047   28.5527   38.3790 N   0  0  0  0  0  0  0  0  0  0  0  0
   36.1765   29.2325   39.1022 C   0  0  0  0  0  0  0  0  0  0  0  0
   34.3354   30.5901   41.4027 H   0  0  0  0  0  0  0  0  0  0  0  0
   36.2314   29.1518   35.2711 H   0  0  0  0  0  0  0  0  0  0  0  0
   37.7523   26.8206   36.3225 H   0  0  0  0  0  0  0  0  0  0  0  0
   39.1469   27.7525   36.1523 H   0  0  0  0  0  0  0  0  0  0  0  0
  2  1  2  0
  3  2  1  0
  4  5  1  0
  4  3  2  0
  5  6  2  0
  6  1  1  0
  7  3  1  0
  7 10  1  0
  7  9  1  0
  8  7  1  0
  1 11  1  0
  2 12  1  0
 13 14  1  0
 14 15  2  0
 15 16  1  0
 16 17  1  0
 17 18  2  0
 17 19  1  0
 19 20  1  0
 20 21  1  0
 20 22  2  0
 22 23  1  0
 23 13  1  0
 23 16  2  0
 14 24  1  0
 19 25  1  0
 21 26  1  0
 21 27  1  0
  5 13  1  0
M  ISO  2  11  14  12  14
M  END
>  <DihAtoms>  (1) 
3,4,12,13

>  <DihDeg>  (1) 
49.180855720071584

$$$$
