
     RDKit          3D

 46 50  0  0  0  0  0  0  0  0999 V2000
   36.7270   28.7540   40.7170 C   0  0  0  0  0  0  0  0  0  0  0  0
   36.5920   29.9080   41.4560 C   0  0  0  0  0  0  0  0  0  0  0  0
   36.6030   31.1920   40.9840 C   0  0  0  0  0  0  0  0  0  0  0  0
   36.7640   31.4050   39.6220 C   0  0  0  0  0  0  0  0  0  0  0  0
   36.9060   30.2870   38.8120 C   0  0  0  0  0  0  0  0  0  0  0  0
   37.0720   30.5750   37.4810 C   0  0  0  0  0  0  0  0  0  0  0  0
   37.2290   29.5470   36.6050 C   0  0  0  0  0  0  0  0  0  0  0  0
   37.2160   28.2570   37.0770 C   0  0  0  0  0  0  0  0  0  0  0  0
   37.0450   28.0340   38.4250 C   0  0  0  0  0  0  0  0  0  0  0  0
   36.8850   29.0210   39.3490 C   0  0  0  0  0  0  0  0  0  0  0  0
   37.0390   26.6060   38.6520 N   0  0  0  0  0  0  0  0  0  0  0  0
   37.8290   25.6150   39.0460 N   0  0  0  0  0  0  0  0  0  0  0  0
   37.1470   24.4720   38.9310 C   0  0  0  0  0  0  0  0  0  0  0  0
   35.8610   24.6140   38.4550 C   0  0  0  0  0  0  0  0  0  0  0  0
   35.8300   26.0070   38.2860 C   0  0  0  0  0  0  0  0  0  0  0  0
   36.7210   27.3690   41.1860 C   0  0  0  0  0  0  0  0  0  0  0  0
   37.0770   27.2180   42.6490 C   0  0  0  0  0  0  0  0  0  0  0  0
   40.3300   26.0510   43.3890 C   0  0  0  0  0  0  0  0  0  0  0  0
   39.7470   24.8970   42.9520 C   0  0  0  0  0  0  0  0  0  0  0  0
   38.4360   25.2400   42.6170 C   0  0  0  0  0  0  0  0  0  0  0  0
   38.3220   26.5700   42.8760 N   0  0  0  0  0  0  0  0  0  0  0  0
   39.4250   27.0360   43.3230 N   0  0  0  0  0  0  0  0  0  0  0  0
   44.0210   25.6780   43.7330 C   0  0  0  0  0  0  0  0  0  0  0  0
   42.7350   25.5050   43.2190 C   0  0  0  0  0  0  0  0  0  0  0  0
   41.6850   26.1980   43.8630 C   0  0  0  0  0  0  0  0  0  0  0  0
   41.9420   26.9980   44.9410 N   0  0  0  0  0  0  0  0  0  0  0  0
   43.2370   27.1140   45.3820 C   0  0  0  0  0  0  0  0  0  0  0  0
   44.2550   26.4610   44.7820 N   0  0  0  0  0  0  0  0  0  0  0  0
   36.4614   29.7843   42.5412 H   0  0  0  0  0  0  0  0  0  0  0  0
   36.4862   32.0417   41.6727 H   0  0  0  0  0  0  0  0  0  0  0  0
   36.7785   32.4210   39.2007 H   0  0  0  0  0  0  0  0  0  0  0  0
   37.0780   31.6172   37.1293 H   0  0  0  0  0  0  0  0  0  0  0  0
   37.3647   29.7459   35.5317 H   0  0  0  0  0  0  0  0  0  0  0  0
   37.3409   27.4109   36.3852 H   0  0  0  0  0  0  0  0  0  0  0  0
   37.5775   23.4948   39.1952 H   0  0  0  0  0  0  0  0  0  0  0  0
   35.0860   23.8571   38.2637 H   0  0  0  0  0  0  0  0  0  0  0  0
   34.9577   26.5617   37.9101 H   0  0  0  0  0  0  0  0  0  0  0  0
   35.7143   26.9542   41.0294 H   0  0  0  0  0  0  0  0  0  0  0  0
   37.4912   26.8330   40.6119 H   0  0  0  0  0  0  0  0  0  0  0  0
   37.1213   28.2204   43.0997 H   0  0  0  0  0  0  0  0  0  0  0  0
   36.3004   26.5844   43.1024 H   0  0  0  0  0  0  0  0  0  0  0  0
   40.2132   23.9033   42.8790 H   0  0  0  0  0  0  0  0  0  0  0  0
   37.6555   24.5717   42.2242 H   0  0  0  0  0  0  0  0  0  0  0  0
   44.8629   25.1530   43.2580 H   0  0  0  0  0  0  0  0  0  0  0  0
   42.5468   24.8572   42.3501 H   0  0  0  0  0  0  0  0  0  0  0  0
   43.4511   27.7570   46.2484 H   0  0  0  0  0  0  0  0  0  0  0  0
  1 16  1  0
  1  2  2  0
  3  2  1  0
  4  3  2  0
  5 10  2  0
  5  4  1  0
  6  5  1  0
  7  8  1  0
  7  6  2  0
  8  9  2  0
  9 11  1  0
  9 10  1  0
 10  1  1  0
 11 12  1  0
 13 12  2  0
 14 13  1  0
 15 14  2  0
 15 11  1  0
 16 17  1  0
 17 21  1  0
 18 25  1  0
 19 18  1  0
 20 21  1  0
 20 19  2  0
 21 22  1  0
 22 18  2  0
 23 28  2  0
 24 23  1  0
 24 25  2  0
 25 26  1  0
 26 27  2  0
 28 27  1  0
  2 29  1  0
  3 30  1  0
  4 31  1  0
  6 32  1  0
  7 33  1  0
  8 34  1  0
 13 35  1  0
 14 36  1  0
 15 37  1  0
 16 38  1  0
 16 39  1  0
 17 40  1  0
 17 41  1  0
 19 42  1  0
 20 43  1  0
 23 44  1  0
 24 45  1  0
 27 46  1  0
M  ISO  8  29  14  30  14  31  14  32  14  33  14  34  14  35  14  36  14
M  ISO  8  37  14  38   8  39   8  40   8  41   8  42  14  43  14  44  14
M  ISO  2  45  14  46  14
M  END
>  <minimizedAffinity>  (1) 
-5.7739315

>  <minimizedRMSD>  (1) 
3.72505474

$$$$
