
     RDKit          3D

 44 48  0  0  0  0  0  0  0  0999 V2000
   37.7310   30.0650   40.2990 C   0  0  0  0  0  0  0  0  0  0  0  0
   36.7590   30.6180   39.4680 C   0  0  0  0  0  0  0  0  0  0  0  0
   37.0130   31.6250   38.5520 C   0  0  0  0  0  0  0  0  0  0  0  0
   38.3080   32.0560   38.5100 N   0  0  0  0  0  0  0  0  0  0  0  0
   39.2600   31.5570   39.2800 C   0  0  0  0  0  0  0  0  0  0  0  0
   38.9330   30.5970   40.1270 N   0  0  0  0  0  0  0  0  0  0  0  0
   37.6390   29.0680   41.2980 C   0  0  0  0  0  0  0  0  0  0  0  0
   37.8240   29.5270   42.6260 C   0  0  0  0  0  0  0  0  0  0  0  0
   37.7630   28.7160   43.7440 C   0  0  0  0  0  0  0  0  0  0  0  0
   37.5040   27.3550   43.5670 C   0  0  0  0  0  0  0  0  0  0  0  0
   37.3160   26.8620   42.2930 C   0  0  0  0  0  0  0  0  0  0  0  0
   37.0640   25.5210   42.1050 C   0  0  0  0  0  0  0  0  0  0  0  0
   36.8760   24.9710   40.8550 C   0  0  0  0  0  0  0  0  0  0  0  0
   36.9580   25.8740   39.7940 C   0  0  0  0  0  0  0  0  0  0  0  0
   37.2090   27.1950   40.0160 C   0  0  0  0  0  0  0  0  0  0  0  0
   37.3940   27.7390   41.2390 C   0  0  0  0  0  0  0  0  0  0  0  0
   40.6100   32.0950   39.1470 C   0  0  0  0  0  0  0  0  0  0  0  0
   41.3170   31.8360   38.1300 O   0  0  0  0  0  0  0  0  0  0  0  0
   41.4320   32.9390   39.9800 C   0  0  0  0  0  0  0  0  0  0  0  0
   42.5680   32.4100   40.6150 C   0  0  0  0  0  0  0  0  0  0  0  0
   43.4170   33.0630   41.4870 C   0  0  0  0  0  0  0  0  0  0  0  0
   43.1020   34.3720   41.7510 C   0  0  0  0  0  0  0  0  0  0  0  0
   42.0170   34.9970   41.1880 C   0  0  0  0  0  0  0  0  0  0  0  0
   41.7080   36.3170   41.4370 C   0  0  0  0  0  0  0  0  0  0  0  0
   40.6140   36.9630   40.8490 C   0  0  0  0  0  0  0  0  0  0  0  0
   39.8290   36.2060   39.9800 C   0  0  0  0  0  0  0  0  0  0  0  0
   40.1660   34.8940   39.7560 C   0  0  0  0  0  0  0  0  0  0  0  0
   41.2390   34.2550   40.3340 C   0  0  0  0  0  0  0  0  0  0  0  0
   35.7314   30.2328   39.5438 H   0  0  0  0  0  0  0  0  0  0  0  0
   36.2291   32.0467   37.9057 H   0  0  0  0  0  0  0  0  0  0  0  0
   38.0293   30.5971   42.7769 H   0  0  0  0  0  0  0  0  0  0  0  0
   37.9150   29.1333   44.7504 H   0  0  0  0  0  0  0  0  0  0  0  0
   37.4505   26.6826   44.4359 H   0  0  0  0  0  0  0  0  0  0  0  0
   37.0107   24.8640   42.9857 H   0  0  0  0  0  0  0  0  0  0  0  0
   36.6762   23.8998   40.7049 H   0  0  0  0  0  0  0  0  0  0  0  0
   36.8180   25.5144   38.7639 H   0  0  0  0  0  0  0  0  0  0  0  0
   37.2646   27.8617   39.1428 H   0  0  0  0  0  0  0  0  0  0  0  0
   42.8078   31.3596   40.3932 H   0  0  0  0  0  0  0  0  0  0  0  0
   44.2879   32.5665   41.9398 H   0  0  0  0  0  0  0  0  0  0  0  0
   43.7429   34.9421   42.4396 H   0  0  0  0  0  0  0  0  0  0  0  0
   42.3479   36.8868   42.1268 H   0  0  0  0  0  0  0  0  0  0  0  0
   40.3846   38.0175   41.0623 H   0  0  0  0  0  0  0  0  0  0  0  0
   38.9551   36.6521   39.4827 H   0  0  0  0  0  0  0  0  0  0  0  0
   39.5348   34.3136   39.0670 H   0  0  0  0  0  0  0  0  0  0  0  0
  1  7  1  0
  2  1  2  0
  3  2  1  0
  4  3  2  0
  4  5  1  0
  5  6  2  0
  6  1  1  0
  7  8  2  0
  8  9  1  0
 10  9  2  0
 11 10  1  0
 12 11  2  0
 13 12  1  0
 14 15  1  0
 14 13  2  0
 15 16  2  0
 16  7  1  0
 16 11  1  0
 17  5  1  0
 17 19  1  0
 18 17  2  0
 19 28  1  0
 19 20  2  0
 20 21  1  0
 21 22  2  0
 23 24  2  0
 23 22  1  0
 25 24  1  0
 26 25  2  0
 27 26  1  0
 27 28  2  0
 28 23  1  0
  2 29  1  0
  3 30  1  0
  8 31  1  0
  9 32  1  0
 10 33  1  0
 12 34  1  0
 13 35  1  0
 14 36  1  0
 15 37  1  0
 20 38  1  0
 21 39  1  0
 22 40  1  0
 24 41  1  0
 25 42  1  0
 26 43  1  0
 27 44  1  0
M  END
>  <minimizedAffinity>  (1) 
-7.41776419

>  <minimizedRMSD>  (1) 
2.40410137

$$$$
