
     RDKit          3D

 27 29  0  0  0  0  0  0  0  0999 V2000
   39.5730   31.3000   40.4120 C   0  0  0  0  0  0  0  0  0  0  0  0
   40.1280   30.8180   39.2310 C   0  0  0  0  0  0  0  0  0  0  0  0
   40.7080   31.7350   38.3630 C   0  0  0  0  0  0  0  0  0  0  0  0
   40.6990   33.0390   38.7160 N   0  0  0  0  0  0  0  0  0  0  0  0
   40.1550   33.4910   39.8660 C   0  0  0  0  0  0  0  0  0  0  0  0
   39.5840   32.6170   40.7300 N   0  0  0  0  0  0  0  0  0  0  0  0
   40.1750   34.8880   40.1860 N   0  0  0  0  0  0  0  0  0  0  0  0
   41.2920   35.3290   40.7890 N   0  0  0  0  0  0  0  0  0  0  0  0
   41.1550   36.6580   41.0240 C   0  0  0  0  0  0  0  0  0  0  0  0
   39.9100   37.0070   40.5410 C   0  0  0  0  0  0  0  0  0  0  0  0
   39.2780   35.9020   40.0090 C   0  0  0  0  0  0  0  0  0  0  0  0
   38.9380   30.5090   41.4200 N   0  0  0  0  0  0  0  0  0  0  0  0
   39.3530   29.9220   42.5040 N   0  0  0  0  0  0  0  0  0  0  0  0
   38.3630   29.2830   43.1370 C   0  0  0  0  0  0  0  0  0  0  0  0
   37.2060   29.4760   42.3970 C   0  0  0  0  0  0  0  0  0  0  0  0
   37.5920   30.2570   41.3100 C   0  0  0  0  0  0  0  0  0  0  0  0
   36.6440   30.6900   40.2690 C   0  0  0  0  0  0  0  0  0  0  0  0
   35.3450   30.3260   40.5190 F   0  0  0  0  0  0  0  0  0  0  0  0
   37.0240   30.2890   39.0070 F   0  0  0  0  0  0  0  0  0  0  0  0
   36.6240   32.0980   40.2390 F   0  0  0  0  0  0  0  0  0  0  0  0
   40.1083   29.7445   38.9918 H   0  0  0  0  0  0  0  0  0  0  0  0
   41.1615   31.4085   37.4155 H   0  0  0  0  0  0  0  0  0  0  0  0
   41.8883   37.3234   41.5030 H   0  0  0  0  0  0  0  0  0  0  0  0
   39.4832   38.0202   40.5753 H   0  0  0  0  0  0  0  0  0  0  0  0
   38.2806   35.8499   39.5481 H   0  0  0  0  0  0  0  0  0  0  0  0
   38.4504   28.7101   44.0720 H   0  0  0  0  0  0  0  0  0  0  0  0
   36.1990   29.0941   42.6206 H   0  0  0  0  0  0  0  0  0  0  0  0
  1  6  1  0
  1 12  1  0
  2  1  2  0
  3  4  2  0
  3  2  1  0
  4  5  1  0
  5  7  1  0
  5  6  2  0
  7  8  1  0
  8  9  2  0
 10  9  1  0
 11  7  1  0
 11 10  2  0
 12 13  1  0
 13 14  2  0
 15 14  1  0
 16 12  1  0
 16 15  2  0
 17 18  1  0
 17 16  1  0
 19 17  1  0
 20 17  1  0
  2 21  1  0
  3 22  1  0
  9 23  1  0
 10 24  1  0
 11 25  1  0
 14 26  1  0
 15 27  1  0
M  ISO  7  21  14  22  14  23  14  24  14  25  14  26  14  27  14
M  END
>  <minimizedAffinity>  (1) 
-5.47596931

>  <minimizedRMSD>  (1) 
2.93203068

$$$$
