
     RDKit          3D

 36 38  0  0  0  0  0  0  0  0999 V2000
   36.9600   29.8000   40.3680 C   0  0  0  0  0  0  0  0  0  0  0  0
   37.1550   31.1710   40.3390 C   0  0  0  0  0  0  0  0  0  0  0  0
   37.0600   31.7910   39.1020 C   0  0  0  0  0  0  0  0  0  0  0  0
   36.7810   31.0180   37.9850 C   0  0  0  0  0  0  0  0  0  0  0  0
   36.5940   29.6680   38.0390 C   0  0  0  0  0  0  0  0  0  0  0  0
   36.6860   29.0820   39.2400 N   0  0  0  0  0  0  0  0  0  0  0  0
   38.0450   28.9410   43.7700 C   0  0  0  0  0  0  0  0  0  0  0  0
   37.2620   27.8190   44.0810 C   0  0  0  0  0  0  0  0  0  0  0  0
   36.3490   27.3540   43.1080 C   0  0  0  0  0  0  0  0  0  0  0  0
   36.3070   28.0350   41.9450 N   0  0  0  0  0  0  0  0  0  0  0  0
   37.0490   29.0960   41.6540 C   0  0  0  0  0  0  0  0  0  0  0  0
   37.8990   29.5150   42.5830 N   0  0  0  0  0  0  0  0  0  0  0  0
   36.2450   28.7130   36.5790 S   0  0  0  0  0  0  0  0  0  0  0  0
   36.0030   29.7380   35.1300 C   0  0  0  0  0  0  0  0  0  0  0  0
   37.0810   30.7990   35.0580 C   0  0  0  0  0  0  0  0  0  0  0  0
   36.5970   31.8630   34.0790 C   0  0  0  0  0  0  0  0  0  0  0  0
   36.3080   31.2100   32.7530 C   0  0  0  0  0  0  0  0  0  0  0  0
   36.6970   29.7560   32.7270 C   0  0  0  0  0  0  0  0  0  0  0  0
   36.0630   28.9490   33.8450 C   0  0  0  0  0  0  0  0  0  0  0  0
   37.3748   31.7411   41.2537 H   0  0  0  0  0  0  0  0  0  0  0  0
   37.2035   32.8776   39.0085 H   0  0  0  0  0  0  0  0  0  0  0  0
   36.7069   31.5179   37.0079 H   0  0  0  0  0  0  0  0  0  0  0  0
   38.7677   29.3379   44.4981 H   0  0  0  0  0  0  0  0  0  0  0  0
   37.3562   27.3157   45.0546 H   0  0  0  0  0  0  0  0  0  0  0  0
   35.7052   26.4808   43.2900 H   0  0  0  0  0  0  0  0  0  0  0  0
   35.0022   30.1831   35.2317 H   0  0  0  0  0  0  0  0  0  0  0  0
   37.2394   31.2442   36.0513 H   0  0  0  0  0  0  0  0  0  0  0  0
   38.0357   30.3656   34.7253 H   0  0  0  0  0  0  0  0  0  0  0  0
   35.6810   32.3325   34.4669 H   0  0  0  0  0  0  0  0  0  0  0  0
   37.3712   32.6343   33.9539 H   0  0  0  0  0  0  0  0  0  0  0  0
   35.2302   31.2901   32.5483 H   0  0  0  0  0  0  0  0  0  0  0  0
   36.9056   31.7286   31.9889 H   0  0  0  0  0  0  0  0  0  0  0  0
   36.3828   29.3269   31.7641 H   0  0  0  0  0  0  0  0  0  0  0  0
   37.7872   29.7061   32.8646 H   0  0  0  0  0  0  0  0  0  0  0  0
   35.0411   28.6693   33.5491 H   0  0  0  0  0  0  0  0  0  0  0  0
   36.6790   28.0541   34.0174 H   0  0  0  0  0  0  0  0  0  0  0  0
  1 11  1  0
  2  1  2  0
  3  2  1  0
  4  5  1  0
  4  3  2  0
  5  6  2  0
  6  1  1  0
  7  8  2  0
  9  8  1  0
 10  9  2  0
 11 10  1  0
 11 12  2  0
 12  7  1  0
 13  5  1  0
 14 13  1  0
 15 14  1  0
 16 15  1  0
 17 16  1  0
 18 17  1  0
 18 19  1  0
 19 14  1  0
  2 20  1  0
  3 21  1  0
  4 22  1  0
  7 23  1  0
  8 24  1  0
  9 25  1  0
 14 26  1  0
 15 27  1  0
 15 28  1  0
 16 29  1  0
 16 30  1  0
 17 31  1  0
 17 32  1  0
 18 33  1  0
 18 34  1  0
 19 35  1  0
 19 36  1  0
M  ISO  8  20  14  21  14  22  14  23  14  24  14  25  14  26  13  27  13
M  ISO  8  28  13  29  13  30  13  31  13  32  13  33  13  34  13  35  13
M  ISO  1  36  13
M  END
>  <minimizedAffinity>  (1) 
-4.23259354

>  <minimizedRMSD>  (1) 
1.23751473

$$$$
