
     RDKit          3D

 37 40  0  0  1  0  0  0  0  0999 V2000
   37.1640   29.5380   40.7460 N   0  0  0  0  0  0  0  0  0  0  0  0
   35.6850   29.6260   40.6280 C   0  0  0  0  0  0  0  0  0  0  0  0
   35.1840   28.8890   39.4230 C   0  0  0  0  0  0  0  0  0  0  0  0
   35.9800   29.1400   38.3110 O   0  0  0  0  0  0  0  0  0  0  0  0
   36.6240   30.3380   38.5080 C   0  0  0  0  0  0  0  0  0  0  0  0
   37.6880   30.2310   39.6260 C   0  0  1  0  0  0  0  0  0  0  0  0
   37.8960   28.9000   43.1450 C   0  0  1  0  0  0  0  0  0  0  0  0
   38.9190   29.8180   42.5960 C   0  0  0  0  0  0  0  0  0  0  0  0
   37.5720   29.9220   42.0300 C   0  0  1  0  0  0  0  0  0  0  0  0
   39.3420   25.7030   42.0410 C   0  0  0  0  0  0  0  0  0  0  0  0
   38.2120   24.8380   42.0270 C   0  0  0  0  0  0  0  0  0  0  0  0
   36.9550   25.4030   42.3970 C   0  0  0  0  0  0  0  0  0  0  0  0
   36.8960   26.7380   42.7450 N   0  0  0  0  0  0  0  0  0  0  0  0
   38.0060   27.4830   42.7330 C   0  0  0  0  0  0  0  0  0  0  0  0
   39.2180   26.9920   42.3900 N   0  0  0  0  0  0  0  0  0  0  0  0
   38.1990   31.5580   39.8880 N   0  0  0  0  0  0  0  0  0  0  0  0
   39.5040   31.8780   39.8970 N   0  0  0  0  0  0  0  0  0  0  0  0
   39.6490   33.1650   40.1620 C   0  0  0  0  0  0  0  0  0  0  0  0
   38.4270   33.7420   40.3350 C   0  0  0  0  0  0  0  0  0  0  0  0
   37.5320   32.7040   40.1570 C   0  0  0  0  0  0  0  0  0  0  0  0
   35.2282   29.1901   41.5288 H   0  0  0  0  0  0  0  0  0  0  0  0
   35.4102   30.6859   40.5225 H   0  0  0  0  0  0  0  0  0  0  0  0
   35.1928   27.8094   39.6338 H   0  0  0  0  0  0  0  0  0  0  0  0
   34.1627   29.2342   39.2043 H   0  0  0  0  0  0  0  0  0  0  0  0
   37.1179   30.6368   37.5716 H   0  0  0  0  0  0  0  0  0  0  0  0
   35.8771   31.0861   38.8120 H   0  0  0  0  0  0  0  0  0  0  0  0
   38.5509   29.6206   39.3212 H   0  0  0  0  0  0  0  0  0  0  0  0
   37.4919   28.6650   44.1407 H   0  0  0  0  0  0  0  0  0  0  0  0
   39.3057   30.6340   43.2241 H   0  0  0  0  0  0  0  0  0  0  0  0
   39.9157   29.6656   42.1563 H   0  0  0  0  0  0  0  0  0  0  0  0
   36.8753   30.7584   41.8714 H   0  0  0  0  0  0  0  0  0  0  0  0
   40.3304   25.3091   41.7618 H   0  0  0  0  0  0  0  0  0  0  0  0
   38.3036   23.7792   41.7431 H   0  0  0  0  0  0  0  0  0  0  0  0
   36.0458   24.7838   42.4049 H   0  0  0  0  0  0  0  0  0  0  0  0
   40.6123   33.6914   40.2323 H   0  0  0  0  0  0  0  0  0  0  0  0
   38.2036   34.7944   40.5642 H   0  0  0  0  0  0  0  0  0  0  0  0
   36.4379   32.7961   40.2242 H   0  0  0  0  0  0  0  0  0  0  0  0
  1  2  1  0
  1  9  1  0
  3  2  1  0
  4  5  1  0
  4  3  1  0
  5  6  1  0
  6 16  1  0
  6  1  1  0
  8  7  1  0
  9  8  1  0
  9  7  1  0
 10 15  2  0
 11 10  1  0
 11 12  2  0
 12 13  1  0
 14 13  2  0
 14  7  1  0
 15 14  1  0
 16 17  1  0
 16 20  1  0
 17 18  2  0
 18 19  1  0
 20 19  2  0
  2 21  1  0
  2 22  1  0
  3 23  1  0
  3 24  1  0
  5 25  1  0
  5 26  1  0
  6 27  1  6
  7 28  1  1
  8 29  1  0
  8 30  1  0
  9 31  1  1
 10 32  1  0
 11 33  1  0
 12 34  1  0
 18 35  1  0
 19 36  1  0
 20 37  1  0
M  ISO  8  21  13  22  13  23  13  24  13  25  13  26  13  27  13  28  13
M  ISO  8  29  13  30  13  31  13  32  14  33  14  34  14  35  14  36  14
M  ISO  1  37  14
M  END
>  <minimizedAffinity>  (1) 
-4.94092607

>  <minimizedRMSD>  (1) 
2.7871995

$$$$
