
     RDKit          3D

 37 41  0  0  1  0  0  0  0  0999 V2000
   36.1570   29.1020   41.5650 C   0  0  0  0  0  0  0  0  0  0  0  0
   36.4440   27.7260   41.5560 C   0  0  0  0  0  0  0  0  0  0  0  0
   37.7420   27.3160   41.8460 C   0  0  0  0  0  0  0  0  0  0  0  0
   38.6530   28.2800   42.1210 N   0  0  0  0  0  0  0  0  0  0  0  0
   38.3600   29.5950   42.1250 C   0  0  0  0  0  0  0  0  0  0  0  0
   37.1020   30.0080   41.8440 N   0  0  0  0  0  0  0  0  0  0  0  0
   38.0560   25.8990   41.8310 C   0  0  0  0  0  0  0  0  0  0  0  0
   38.8920   25.1990   42.6700 C   0  0  0  0  0  0  0  0  0  0  0  0
   38.9100   23.8980   42.3070 N   0  0  0  0  0  0  0  0  0  0  0  0
   38.0980   23.7070   41.2370 C   0  0  0  0  0  0  0  0  0  0  0  0
   37.7520   22.6000   40.4740 C   0  0  0  0  0  0  0  0  0  0  0  0
   36.8760   22.7110   39.4120 C   0  0  0  0  0  0  0  0  0  0  0  0
   36.3600   23.9560   39.1350 C   0  0  0  0  0  0  0  0  0  0  0  0
   36.6970   25.0500   39.8810 C   0  0  0  0  0  0  0  0  0  0  0  0
   37.5690   24.9520   40.9420 C   0  0  0  0  0  0  0  0  0  0  0  0
   39.4250   30.5980   42.4480 C   0  0  1  0  0  0  0  0  0  0  0  0
   40.5910   30.7170   41.4800 C   0  0  0  0  0  0  0  0  0  0  0  0
   39.5600   31.8000   41.5760 C   0  0  1  0  0  0  0  0  0  0  0  0
   38.7500   31.9100   40.3750 N   0  0  0  0  0  0  0  0  0  0  0  0
   37.6660   32.6680   40.1300 C   0  0  0  0  0  0  0  0  0  0  0  0
   37.2190   32.4680   38.8860 N   0  0  0  0  0  0  0  0  0  0  0  0
   38.0670   31.5470   38.3450 C   0  0  0  0  0  0  0  0  0  0  0  0
   39.0020   31.2130   39.2680 N   0  0  0  0  0  0  0  0  0  0  0  0
   35.1354   29.4410   41.3382 H   0  0  0  0  0  0  0  0  0  0  0  0
   35.6602   26.9897   41.3249 H   0  0  0  0  0  0  0  0  0  0  0  0
   39.4586   25.6321   43.5075 H   0  0  0  0  0  0  0  0  0  0  0  0
   39.4583   23.1610   42.7730 H   0  0  0  0  0  0  0  0  0  0  0  0
   38.1827   21.6180   40.7194 H   0  0  0  0  0  0  0  0  0  0  0  0
   36.6002   21.8339   38.8082 H   0  0  0  0  0  0  0  0  0  0  0  0
   35.6605   24.0733   38.2942 H   0  0  0  0  0  0  0  0  0  0  0  0
   36.2629   26.0288   39.6288 H   0  0  0  0  0  0  0  0  0  0  0  0
   39.3145   30.4361   43.5304 H   0  0  0  0  0  0  0  0  0  0  0  0
   40.6359   30.0749   40.5880 H   0  0  0  0  0  0  0  0  0  0  0  0
   41.6867   30.6699   41.5652 H   0  0  0  0  0  0  0  0  0  0  0  0
   39.5304   32.8760   41.8025 H   0  0  0  0  0  0  0  0  0  0  0  0
   37.2095   33.3584   40.8546 H   0  0  0  0  0  0  0  0  0  0  0  0
   38.0027   31.1409   37.3247 H   0  0  0  0  0  0  0  0  0  0  0  0
  1  6  2  0
  2  1  1  0
  2  3  2  0
  3  4  1  0
  4  5  2  0
  5 16  1  0
  6  5  1  0
  7  3  1  0
  7  8  2  0
  9  8  1  0
 10  9  1  0
 11 10  2  0
 12 11  1  0
 13 12  2  0
 13 14  1  0
 14 15  2  0
 15 10  1  0
 15  7  1  0
 17 18  1  0
 17 16  1  0
 18 16  1  0
 19 18  1  0
 20 19  1  0
 21 20  2  0
 22 21  1  0
 22 23  2  0
 23 19  1  0
  1 24  1  0
  2 25  1  0
  8 26  1  0
  9 27  1  0
 11 28  1  0
 12 29  1  0
 13 30  1  0
 14 31  1  0
 16 32  1  1
 17 33  1  0
 17 34  1  0
 18 35  1  1
 20 36  1  0
 22 37  1  0
M  ISO  8  24  14  25  14  26  14  27   9  28  14  29  14  30  14  31  14
M  ISO  6  32  13  33  13  34  13  35  13  36  14  37  14
M  END
>  <minimizedAffinity>  (1) 
-5.58512735

>  <minimizedRMSD>  (1) 
3.20170856

$$$$
