
     RDKit          3D

 27 29  0  0  0  0  0  0  0  0999 V2000
   41.7910   27.2000   44.1780 C   0  0  0  0  0  0  0  0  0  0  0  0
   42.2810   28.4050   43.7260 C   0  0  0  0  0  0  0  0  0  0  0  0
   43.2440   28.8000   44.6480 C   0  0  0  0  0  0  0  0  0  0  0  0
   43.2720   27.8080   45.5930 N   0  0  0  0  0  0  0  0  0  0  0  0
   42.4220   26.8710   45.3200 N   0  0  0  0  0  0  0  0  0  0  0  0
   38.7980   26.2160   42.1610 C   0  0  0  0  0  0  0  0  0  0  0  0
   39.7680   27.0270   42.7690 C   0  0  0  0  0  0  0  0  0  0  0  0
   40.7640   26.4160   43.5270 C   0  0  0  0  0  0  0  0  0  0  0  0
   40.7600   25.0630   43.6510 N   0  0  0  0  0  0  0  0  0  0  0  0
   39.8080   24.3110   43.0490 C   0  0  0  0  0  0  0  0  0  0  0  0
   38.8350   24.8820   42.3110 N   0  0  0  0  0  0  0  0  0  0  0  0
   44.2050   28.0080   46.6550 C   0  0  0  0  0  0  0  0  0  0  0  0
   44.8950   26.9000   47.1010 C   0  0  0  0  0  0  0  0  0  0  0  0
   45.8010   27.1090   48.1340 C   0  0  0  0  0  0  0  0  0  0  0  0
   46.0030   28.3530   48.6890 C   0  0  0  0  0  0  0  0  0  0  0  0
   45.3010   29.4610   48.2300 C   0  0  0  0  0  0  0  0  0  0  0  0
   44.4120   29.2660   47.2190 C   0  0  0  0  0  0  0  0  0  0  0  0
   41.9729   28.9457   42.8190 H   0  0  0  0  0  0  0  0  0  0  0  0
   43.8541   29.7150   44.6239 H   0  0  0  0  0  0  0  0  0  0  0  0
   38.0017   26.6759   41.5573 H   0  0  0  0  0  0  0  0  0  0  0  0
   39.7425   28.1202   42.6498 H   0  0  0  0  0  0  0  0  0  0  0  0
   39.8290   23.2172   43.1640 H   0  0  0  0  0  0  0  0  0  0  0  0
   44.7366   25.9038   46.6623 H   0  0  0  0  0  0  0  0  0  0  0  0
   46.3748   26.2538   48.5204 H   0  0  0  0  0  0  0  0  0  0  0  0
   46.7296   28.4712   49.5064 H   0  0  0  0  0  0  0  0  0  0  0  0
   45.4582   30.4579   48.6676 H   0  0  0  0  0  0  0  0  0  0  0  0
   43.8408   30.1245   46.8360 H   0  0  0  0  0  0  0  0  0  0  0  0
  1  5  2  0
  2  1  1  0
  2  3  2  0
  3  4  1  0
  4 12  1  0
  5  4  1  0
  6 11  2  0
  6  7  1  0
  7  8  2  0
  8  9  1  0
  8  1  1  0
 10  9  2  0
 11 10  1  0
 12 13  2  0
 12 17  1  0
 13 14  1  0
 14 15  2  0
 16 15  1  0
 17 16  2  0
  2 18  1  0
  3 19  1  0
  6 20  1  0
  7 21  1  0
 10 22  1  0
 13 23  1  0
 14 24  1  0
 15 25  1  0
 16 26  1  0
 17 27  1  0
M  ISO  8  18  14  19  14  20  14  21  14  22  14  23  14  24  14  25  14
M  ISO  2  26  14  27  14
M  END
>  <minimizedAffinity>  (1) 
-4.08987999

>  <minimizedRMSD>  (1) 
4.956007

$$$$
