
     RDKit          3D

 41 46  0  0  0  0  0  0  0  0999 V2000
   37.5650   28.4120   41.6860 N   0  0  0  0  0  0  0  0  0  0  0  0
   37.4900   27.4110   42.5790 C   0  0  0  0  0  0  0  0  0  0  0  0
   38.4710   27.6870   43.4990 C   0  0  0  0  0  0  0  0  0  0  0  0
   39.1260   28.8380   43.1650 N   0  0  0  0  0  0  0  0  0  0  0  0
   38.5420   29.2630   42.0380 C   0  0  0  0  0  0  0  0  0  0  0  0
   39.0720   30.4670   41.4990 N   0  0  0  0  0  0  0  0  0  0  0  0
   40.4080   30.7670   41.5530 C   0  0  0  0  0  0  0  0  0  0  0  0
   40.6620   31.9750   40.9690 N   0  0  0  0  0  0  0  0  0  0  0  0
   39.4900   32.4580   40.5360 C   0  0  0  0  0  0  0  0  0  0  0  0
   39.1250   33.6150   39.8800 C   0  0  0  0  0  0  0  0  0  0  0  0
   37.8270   33.7650   39.5980 N   0  0  0  0  0  0  0  0  0  0  0  0
   36.8850   32.8590   39.9180 C   0  0  0  0  0  0  0  0  0  0  0  0
   37.2140   31.7100   40.5640 N   0  0  0  0  0  0  0  0  0  0  0  0
   38.5130   31.5380   40.8570 C   0  0  0  0  0  0  0  0  0  0  0  0
   35.3870   28.8190   40.6110 C   0  0  0  0  0  0  0  0  0  0  0  0
   36.7540   28.5630   40.5510 C   0  0  0  0  0  0  0  0  0  0  0  0
   37.3380   28.4550   39.2610 C   0  0  0  0  0  0  0  0  0  0  0  0
   36.5430   28.6040   38.1680 N   0  0  0  0  0  0  0  0  0  0  0  0
   35.2010   28.8550   38.2780 C   0  0  0  0  0  0  0  0  0  0  0  0
   34.6220   28.9630   39.5040 N   0  0  0  0  0  0  0  0  0  0  0  0
   34.5170   28.9840   37.0400 N   0  0  0  0  0  0  0  0  0  0  0  0
   35.2170   28.7380   35.9170 C   0  0  0  0  0  0  0  0  0  0  0  0
   34.4180   28.9060   34.8280 N   0  0  0  0  0  0  0  0  0  0  0  0
   33.1930   29.2620   35.2630 C   0  0  0  0  0  0  0  0  0  0  0  0
   31.9610   29.5740   34.7360 C   0  0  0  0  0  0  0  0  0  0  0  0
   30.9420   29.8930   35.5610 N   0  0  0  0  0  0  0  0  0  0  0  0
   31.0600   29.9240   36.9090 C   0  0  0  0  0  0  0  0  0  0  0  0
   32.2620   29.6220   37.4650 N   0  0  0  0  0  0  0  0  0  0  0  0
   33.2940   29.2990   36.6370 C   0  0  0  0  0  0  0  0  0  0  0  0
   40.0960   34.6100   39.5180 N   0  0  0  0  0  0  0  0  0  0  0  0
   36.7955   26.5580   42.5741 H   0  0  0  0  0  0  0  0  0  0  0  0
   38.6974   27.0688   44.3802 H   0  0  0  0  0  0  0  0  0  0  0  0
   41.1740   30.1207   42.0065 H   0  0  0  0  0  0  0  0  0  0  0  0
   35.8348   33.0512   39.6531 H   0  0  0  0  0  0  0  0  0  0  0  0
   34.9094   28.9078   41.5979 H   0  0  0  0  0  0  0  0  0  0  0  0
   38.4137   28.2545   39.1481 H   0  0  0  0  0  0  0  0  0  0  0  0
   36.2767   28.4449   35.8842 H   0  0  0  0  0  0  0  0  0  0  0  0
   31.8074   29.5634   33.6468 H   0  0  0  0  0  0  0  0  0  0  0  0
   30.1998   30.1884   37.5416 H   0  0  0  0  0  0  0  0  0  0  0  0
   39.7984   35.4659   39.0284 H   0  0  0  0  0  0  0  0  0  0  0  0
   41.0898   34.4675   39.7481 H   0  0  0  0  0  0  0  0  0  0  0  0
  1  5  1  0
  1  2  1  0
  2  3  2  0
  4  3  1  0
  5  4  2  0
  6  7  1  0
  6  5  1  0
  8  7  2  0
  9 14  2  0
  9  8  1  0
 10  9  1  0
 11 10  2  0
 11 12  1  0
 12 13  2  0
 13 14  1  0
 14  6  1  0
 16 15  2  0
 16  1  1  0
 17 16  1  0
 18 19  1  0
 18 17  2  0
 19 20  2  0
 20 15  1  0
 21 19  1  0
 22 21  1  0
 23 24  1  0
 23 22  2  0
 24 29  2  0
 25 24  1  0
 25 26  2  0
 26 27  1  0
 27 28  2  0
 29 21  1  0
 29 28  1  0
 30 10  1  0
  2 31  1  0
  3 32  1  0
  7 33  1  0
 12 34  1  0
 15 35  1  0
 17 36  1  0
 22 37  1  0
 25 38  1  0
 27 39  1  0
 30 40  1  0
 30 41  1  0
M  ISO  8  31  14  32  14  33  14  34  14  35  14  36  14  37  14  38  14
M  ISO  1  39  14
M  END
>  <minimizedAffinity>  (1) 
-6.59908152

>  <minimizedRMSD>  (1) 
2.37899327

$$$$
