
     RDKit          3D

 41 45  0  0  0  0  0  0  0  0999 V2000
   36.8180   31.3060   40.4070 C   0  0  0  0  0  0  0  0  0  0  0  0
   36.8420   31.6150   39.0660 N   0  0  0  0  0  0  0  0  0  0  0  0
   37.7140   32.5790   38.8830 O   0  0  0  0  0  0  0  0  0  0  0  0
   38.2300   32.8760   40.0650 C   0  0  0  0  0  0  0  0  0  0  0  0
   37.7010   32.1140   41.0120 N   0  0  0  0  0  0  0  0  0  0  0  0
   39.2360   33.9050   40.2420 C   0  0  0  0  0  0  0  0  0  0  0  0
   39.0700   35.2670   40.1350 C   0  0  0  0  0  0  0  0  0  0  0  0
   40.2590   35.9080   40.3740 C   0  0  0  0  0  0  0  0  0  0  0  0
   41.1480   34.8920   40.6290 C   0  0  0  0  0  0  0  0  0  0  0  0
   40.5070   33.7620   40.5400 O   0  0  0  0  0  0  0  0  0  0  0  0
   42.5410   34.8480   40.9490 N   0  0  0  0  0  0  0  0  0  0  0  0
   43.5780   34.1660   40.4420 C   0  0  0  0  0  0  0  0  0  0  0  0
   44.6980   34.5090   41.1330 N   0  0  0  0  0  0  0  0  0  0  0  0
   44.3680   35.4130   42.0810 C   0  0  0  0  0  0  0  0  0  0  0  0
   45.1390   36.0600   43.0250 C   0  0  0  0  0  0  0  0  0  0  0  0
   44.5120   36.9360   43.8610 N   0  0  0  0  0  0  0  0  0  0  0  0
   43.1810   37.1530   43.7560 C   0  0  0  0  0  0  0  0  0  0  0  0
   42.4540   36.5100   42.8280 N   0  0  0  0  0  0  0  0  0  0  0  0
   42.9990   35.6270   41.9610 C   0  0  0  0  0  0  0  0  0  0  0  0
   36.0600   30.3540   41.1090 O   0  0  0  0  0  0  0  0  0  0  0  0
   37.9840   28.1530   43.2770 C   0  0  0  0  0  0  0  0  0  0  0  0
   37.8060   26.9450   42.5380 C   0  0  0  0  0  0  0  0  0  0  0  0
   37.0530   26.9910   41.3800 C   0  0  0  0  0  0  0  0  0  0  0  0
   36.5330   28.1820   41.0210 N   0  0  0  0  0  0  0  0  0  0  0  0
   36.6960   29.3010   41.7020 C   0  0  0  0  0  0  0  0  0  0  0  0
   37.4250   29.3040   42.8440 N   0  0  0  0  0  0  0  0  0  0  0  0
   36.9510   25.7020   40.7380 C   0  0  0  0  0  0  0  0  0  0  0  0
   37.0560   24.5210   41.6100 C   0  0  0  0  0  0  0  0  0  0  0  0
   37.8350   23.1130   40.7410 S   0  0  0  0  0  0  0  0  0  0  0  0
   38.1215   35.7688   39.8930 H   0  0  0  0  0  0  0  0  0  0  0  0
   40.4560   36.9902   40.3638 H   0  0  0  0  0  0  0  0  0  0  0  0
   43.5309   33.4501   39.6082 H   0  0  0  0  0  0  0  0  0  0  0  0
   46.2208   35.8757   43.1004 H   0  0  0  0  0  0  0  0  0  0  0  0
   42.6894   37.8630   44.4373 H   0  0  0  0  0  0  0  0  0  0  0  0
   38.5785   28.1467   44.2025 H   0  0  0  0  0  0  0  0  0  0  0  0
   38.2564   26.0019   42.8812 H   0  0  0  0  0  0  0  0  0  0  0  0
   35.9753   25.6575   40.2321 H   0  0  0  0  0  0  0  0  0  0  0  0
   37.8193   25.6437   40.0652 H   0  0  0  0  0  0  0  0  0  0  0  0
   37.6643   24.7790   42.4894 H   0  0  0  0  0  0  0  0  0  0  0  0
   36.0407   24.2223   41.9100 H   0  0  0  0  0  0  0  0  0  0  0  0
   38.3267   22.2244   41.6605 H   0  0  0  0  0  0  0  0  0  0  0  0
  1  5  1  0
  1 20  1  0
  2  1  2  0
  3  2  1  0
  3  4  1  0
  4  6  1  0
  4  5  2  0
  6 10  1  0
  7  6  2  0
  7  8  1  0
  8  9  2  0
  9 11  1  0
 10  9  1  0
 11 19  1  0
 12 11  1  0
 12 13  2  0
 13 14  1  0
 14 15  2  0
 15 16  1  0
 17 16  2  0
 18 17  1  0
 19 14  1  0
 19 18  2  0
 20 25  1  0
 22 21  2  0
 23 22  1  0
 24 23  2  0
 24 25  1  0
 25 26  2  0
 26 21  1  0
 27 23  1  0
 27 28  1  0
 29 28  1  0
  7 30  1  0
  8 31  1  0
 12 32  1  0
 15 33  1  0
 17 34  1  0
 21 35  1  0
 22 36  1  0
 27 37  1  0
 27 38  1  0
 28 39  1  0
 28 40  1  0
 29 41  1  0
M  END
>  <minimizedAffinity>  (1) 
-7.16264391

>  <minimizedRMSD>  (1) 
1.34344018

$$$$
