
     RDKit          3D

 34 38  0  0  0  0  0  0  0  0999 V2000
   39.0060   27.0120   43.7770 C   0  0  0  0  0  0  0  0  0  0  0  0
   39.3630   26.0450   42.8120 C   0  0  0  0  0  0  0  0  0  0  0  0
   39.1810   26.3720   41.4550 C   0  0  0  0  0  0  0  0  0  0  0  0
   38.6730   27.5970   41.1570 N   0  0  0  0  0  0  0  0  0  0  0  0
   38.3430   28.4960   42.1080 C   0  0  0  0  0  0  0  0  0  0  0  0
   38.5110   28.2000   43.4240 N   0  0  0  0  0  0  0  0  0  0  0  0
   37.8320   29.7050   41.5440 N   0  0  0  0  0  0  0  0  0  0  0  0
   36.4950   29.8710   41.3540 C   0  0  0  0  0  0  0  0  0  0  0  0
   36.2660   31.0890   40.8140 N   0  0  0  0  0  0  0  0  0  0  0  0
   37.4590   31.6930   40.6620 C   0  0  0  0  0  0  0  0  0  0  0  0
   37.8670   32.9320   40.1720 C   0  0  0  0  0  0  0  0  0  0  0  0
   39.1850   33.2320   40.1640 N   0  0  0  0  0  0  0  0  0  0  0  0
   40.1060   32.3540   40.6200 C   0  0  0  0  0  0  0  0  0  0  0  0
   39.7320   31.1330   41.1060 N   0  0  0  0  0  0  0  0  0  0  0  0
   38.4190   30.8170   41.1220 C   0  0  0  0  0  0  0  0  0  0  0  0
   36.8140   33.7510   39.7210 N   0  0  0  0  0  0  0  0  0  0  0  0
   41.4880   32.6890   40.6020 N   0  0  0  0  0  0  0  0  0  0  0  0
   42.2850   32.4940   41.6800 C   0  0  0  0  0  0  0  0  0  0  0  0
   43.5400   32.9070   41.3620 N   0  0  0  0  0  0  0  0  0  0  0  0
   43.5360   33.3580   40.0940 C   0  0  0  0  0  0  0  0  0  0  0  0
   44.4810   33.8960   39.2140 C   0  0  0  0  0  0  0  0  0  0  0  0
   44.1150   34.2540   37.9670 N   0  0  0  0  0  0  0  0  0  0  0  0
   42.8310   34.1050   37.5280 C   0  0  0  0  0  0  0  0  0  0  0  0
   41.8990   33.5830   38.3710 N   0  0  0  0  0  0  0  0  0  0  0  0
   42.2500   33.2200   39.6220 C   0  0  0  0  0  0  0  0  0  0  0  0
   39.1389   26.7808   44.8442 H   0  0  0  0  0  0  0  0  0  0  0  0
   39.7701   25.0678   43.1110 H   0  0  0  0  0  0  0  0  0  0  0  0
   39.4419   25.6579   40.6600 H   0  0  0  0  0  0  0  0  0  0  0  0
   35.7209   29.1296   41.6013 H   0  0  0  0  0  0  0  0  0  0  0  0
   37.0159   34.6867   39.3407 H   0  0  0  0  0  0  0  0  0  0  0  0
   35.8419   33.4144   39.7714 H   0  0  0  0  0  0  0  0  0  0  0  0
   41.9703   32.0736   42.6466 H   0  0  0  0  0  0  0  0  0  0  0  0
   45.5234   34.0270   39.5398 H   0  0  0  0  0  0  0  0  0  0  0  0
   42.5534   34.4030   36.5062 H   0  0  0  0  0  0  0  0  0  0  0  0
  2  1  2  0
  3  2  1  0
  4  3  2  0
  4  5  1  0
  5  6  2  0
  6  1  1  0
  7  5  1  0
  8  7  1  0
  9  8  2  0
 10  9  1  0
 10 15  2  0
 11 10  1  0
 12 11  2  0
 12 13  1  0
 13 14  2  0
 14 15  1  0
 15  7  1  0
 16 11  1  0
 17 13  1  0
 17 18  1  0
 19 18  2  0
 20 19  1  0
 21 20  2  0
 22 21  1  0
 23 22  2  0
 23 24  1  0
 24 25  2  0
 25 20  1  0
 25 17  1  0
  1 26  1  0
  2 27  1  0
  3 28  1  0
  8 29  1  0
 16 30  1  0
 16 31  1  0
 18 32  1  0
 21 33  1  0
 23 34  1  0
M  END
>  <minimizedAffinity>  (1) 
-7.0088644

>  <minimizedRMSD>  (1) 
0.843797445

$$$$
