
     RDKit          3D

 46 51  0  0  0  0  0  0  0  0999 V2000
   39.7190   32.4290   40.9680 C   0  0  0  0  0  0  0  0  0  0  0  0
   40.8230   31.8810   41.6510 C   0  0  0  0  0  0  0  0  0  0  0  0
   40.8410   30.6000   42.1920 C   0  0  0  0  0  0  0  0  0  0  0  0
   39.7040   29.8140   42.0520 C   0  0  0  0  0  0  0  0  0  0  0  0
   38.6130   30.3040   41.3990 C   0  0  0  0  0  0  0  0  0  0  0  0
   37.5330   29.4980   41.2860 C   0  0  0  0  0  0  0  0  0  0  0  0
   36.3670   29.9480   40.6110 C   0  0  0  0  0  0  0  0  0  0  0  0
   36.4340   31.2520   40.0940 C   0  0  0  0  0  0  0  0  0  0  0  0
   37.5610   32.0050   40.2500 C   0  0  0  0  0  0  0  0  0  0  0  0
   38.6800   31.5650   40.9000 C   0  0  0  0  0  0  0  0  0  0  0  0
   37.3250   28.1530   41.7670 C   0  0  0  0  0  0  0  0  0  0  0  0
   36.7490   27.7390   42.9490 C   0  0  0  0  0  0  0  0  0  0  0  0
   36.5610   26.4290   43.3220 C   0  0  0  0  0  0  0  0  0  0  0  0
   36.9580   25.4090   42.4930 C   0  0  0  0  0  0  0  0  0  0  0  0
   37.5250   25.8370   41.3290 C   0  0  0  0  0  0  0  0  0  0  0  0
   37.7050   27.1280   40.9730 N   0  0  0  0  0  0  0  0  0  0  0  0
   37.9830   24.8660   40.3760 N   0  0  0  0  0  0  0  0  0  0  0  0
   39.2540   24.5590   40.0690 C   0  0  0  0  0  0  0  0  0  0  0  0
   39.2330   23.5840   39.1160 N   0  0  0  0  0  0  0  0  0  0  0  0
   37.9390   23.2880   38.8300 C   0  0  0  0  0  0  0  0  0  0  0  0
   37.2860   22.4030   37.9670 C   0  0  0  0  0  0  0  0  0  0  0  0
   35.9380   22.4020   37.9720 N   0  0  0  0  0  0  0  0  0  0  0  0
   35.1790   23.1780   38.7350 C   0  0  0  0  0  0  0  0  0  0  0  0
   35.7990   24.0400   39.5770 N   0  0  0  0  0  0  0  0  0  0  0  0
   37.1530   24.1010   39.6310 C   0  0  0  0  0  0  0  0  0  0  0  0
   39.8970   33.7590   40.4970 C   0  0  0  0  0  0  0  0  0  0  0  0
   39.0950   34.9040   40.6810 C   0  0  0  0  0  0  0  0  0  0  0  0
   39.4400   36.1450   40.1570 C   0  0  0  0  0  0  0  0  0  0  0  0
   40.5950   36.2030   39.4570 N   0  0  0  0  0  0  0  0  0  0  0  0
   41.3680   35.1410   39.2690 C   0  0  0  0  0  0  0  0  0  0  0  0
   41.0240   33.9530   39.7770 N   0  0  0  0  0  0  0  0  0  0  0  0
   41.7234   32.5029   41.7628 H   0  0  0  0  0  0  0  0  0  0  0  0
   41.7303   30.2198   42.7160 H   0  0  0  0  0  0  0  0  0  0  0  0
   39.6845   28.7960   42.4683 H   0  0  0  0  0  0  0  0  0  0  0  0
   35.4722   29.3178   40.5007 H   0  0  0  0  0  0  0  0  0  0  0  0
   35.5693   31.6704   39.5580 H   0  0  0  0  0  0  0  0  0  0  0  0
   37.5696   33.0215   39.8298 H   0  0  0  0  0  0  0  0  0  0  0  0
   36.4133   28.5182   43.6491 H   0  0  0  0  0  0  0  0  0  0  0  0
   36.0904   26.1971   44.2889 H   0  0  0  0  0  0  0  0  0  0  0  0
   36.8306   24.3457   42.7444 H   0  0  0  0  0  0  0  0  0  0  0  0
   40.1536   25.0141   40.5090 H   0  0  0  0  0  0  0  0  0  0  0  0
   37.8528   21.7304   37.3064 H   0  0  0  0  0  0  0  0  0  0  0  0
   34.0815   23.1234   38.6857 H   0  0  0  0  0  0  0  0  0  0  0  0
   38.1638   34.8124   41.2593 H   0  0  0  0  0  0  0  0  0  0  0  0
   38.8067   37.0323   40.3043 H   0  0  0  0  0  0  0  0  0  0  0  0
   42.2987   35.2387   38.6909 H   0  0  0  0  0  0  0  0  0  0  0  0
  1  2  2  0
  2  3  1  0
  4  3  2  0
  5  4  1  0
  6  5  2  0
  6 11  1  0
  7  6  1  0
  8  9  1  0
  8  7  2  0
  9 10  2  0
 10  1  1  0
 10  5  1  0
 11 12  2  0
 12 13  1  0
 14 13  2  0
 15 14  1  0
 16 15  2  0
 16 11  1  0
 17 15  1  0
 18 17  1  0
 19 18  2  0
 20 19  1  0
 20 25  2  0
 21 22  2  0
 21 20  1  0
 22 23  1  0
 23 24  2  0
 24 25  1  0
 25 17  1  0
 26 27  2  0
 26  1  1  0
 28 27  1  0
 29 28  2  0
 30 29  1  0
 30 31  2  0
 31 26  1  0
  2 32  1  0
  3 33  1  0
  4 34  1  0
  7 35  1  0
  8 36  1  0
  9 37  1  0
 12 38  1  0
 13 39  1  0
 14 40  1  0
 18 41  1  0
 21 42  1  0
 23 43  1  0
 27 44  1  0
 28 45  1  0
 30 46  1  0
M  END
>  <minimizedAffinity>  (1) 
-7.32097006

>  <minimizedRMSD>  (1) 
1.67846739

$$$$
