
     RDKit          3D

 50 55  0  0  0  0  0  0  0  0999 V2000
   38.9370   31.1910   38.0670 C   0  0  0  0  0  0  0  0  0  0  0  0
   39.9070   32.1690   38.1120 C   0  0  0  0  0  0  0  0  0  0  0  0
   41.2280   32.0310   37.7840 C   0  0  0  0  0  0  0  0  0  0  0  0
   41.6850   30.7970   37.3560 C   0  0  0  0  0  0  0  0  0  0  0  0
   40.7700   29.7720   37.2850 C   0  0  0  0  0  0  0  0  0  0  0  0
   41.2840   28.5690   36.8580 C   0  0  0  0  0  0  0  0  0  0  0  0
   40.4740   27.4870   36.7550 C   0  0  0  0  0  0  0  0  0  0  0  0
   39.1470   27.6300   37.0840 C   0  0  0  0  0  0  0  0  0  0  0  0
   38.6710   28.8530   37.5070 C   0  0  0  0  0  0  0  0  0  0  0  0
   39.4490   29.9640   37.6270 C   0  0  0  0  0  0  0  0  0  0  0  0
   37.2750   28.7160   37.7510 N   0  0  0  0  0  0  0  0  0  0  0  0
   36.3690   28.3270   38.6800 C   0  0  0  0  0  0  0  0  0  0  0  0
   35.1030   28.3580   38.2430 N   0  0  0  0  0  0  0  0  0  0  0  0
   35.0910   28.7780   36.9690 C   0  0  0  0  0  0  0  0  0  0  0  0
   34.0450   28.9660   36.1190 C   0  0  0  0  0  0  0  0  0  0  0  0
   34.3640   29.4050   34.8800 N   0  0  0  0  0  0  0  0  0  0  0  0
   35.6410   29.6360   34.5290 C   0  0  0  0  0  0  0  0  0  0  0  0
   36.6270   29.4370   35.3950 N   0  0  0  0  0  0  0  0  0  0  0  0
   36.4310   28.9960   36.6740 C   0  0  0  0  0  0  0  0  0  0  0  0
   37.5130   31.3020   38.3980 C   0  0  0  0  0  0  0  0  0  0  0  0
   37.2580   31.7570   39.8210 C   0  0  0  0  0  0  0  0  0  0  0  0
   38.3240   29.2840   42.1210 C   0  0  0  0  0  0  0  0  0  0  0  0
   36.9730   29.3270   42.3950 C   0  0  0  0  0  0  0  0  0  0  0  0
   36.4500   30.2820   41.5310 C   0  0  0  0  0  0  0  0  0  0  0  0
   37.4980   30.7490   40.7970 N   0  0  0  0  0  0  0  0  0  0  0  0
   38.5770   30.1630   41.1490 N   0  0  0  0  0  0  0  0  0  0  0  0
   39.8760   26.5030   44.0600 C   0  0  0  0  0  0  0  0  0  0  0  0
   38.8940   27.2720   43.4340 C   0  0  0  0  0  0  0  0  0  0  0  0
   39.3030   28.4520   42.7710 C   0  0  0  0  0  0  0  0  0  0  0  0
   40.6100   28.7980   42.7600 N   0  0  0  0  0  0  0  0  0  0  0  0
   41.5270   27.9980   43.3960 C   0  0  0  0  0  0  0  0  0  0  0  0
   41.1690   26.8820   44.0270 N   0  0  0  0  0  0  0  0  0  0  0  0
   39.5850   33.1660   38.4471 H   0  0  0  0  0  0  0  0  0  0  0  0
   41.9153   32.8866   37.8592 H   0  0  0  0  0  0  0  0  0  0  0  0
   42.7392   30.6416   37.0831 H   0  0  0  0  0  0  0  0  0  0  0  0
   42.3502   28.4856   36.6007 H   0  0  0  0  0  0  0  0  0  0  0  0
   40.8691   26.5179   36.4163 H   0  0  0  0  0  0  0  0  0  0  0  0
   38.4656   26.7697   37.0099 H   0  0  0  0  0  0  0  0  0  0  0  0
   36.6468   28.0150   39.6976 H   0  0  0  0  0  0  0  0  0  0  0  0
   33.0049   28.7730   36.4207 H   0  0  0  0  0  0  0  0  0  0  0  0
   35.8709   29.9934   33.5144 H   0  0  0  0  0  0  0  0  0  0  0  0
   37.0514   32.0277   37.7122 H   0  0  0  0  0  0  0  0  0  0  0  0
   37.0773   30.2971   38.2961 H   0  0  0  0  0  0  0  0  0  0  0  0
   37.9167   32.6115   40.0354 H   0  0  0  0  0  0  0  0  0  0  0  0
   36.1922   32.0207   39.8875 H   0  0  0  0  0  0  0  0  0  0  0  0
   36.4251   28.7313   43.1400 H   0  0  0  0  0  0  0  0  0  0  0  0
   35.3990   30.5977   41.4551 H   0  0  0  0  0  0  0  0  0  0  0  0
   39.5922   25.5791   44.5852 H   0  0  0  0  0  0  0  0  0  0  0  0
   37.8365   26.9701   43.4557 H   0  0  0  0  0  0  0  0  0  0  0  0
   42.5881   28.2877   43.3837 H   0  0  0  0  0  0  0  0  0  0  0  0
  1  2  2  0
  1 20  1  0
  3  2  1  0
  4  3  2  0
  5  4  1  0
  5 10  2  0
  6  5  1  0
  7  6  2  0
  7  8  1  0
  8  9  2  0
  9 10  1  0
  9 11  1  0
 10  1  1  0
 11 12  1  0
 13 12  2  0
 14 13  1  0
 15 14  2  0
 16 15  1  0
 17 16  2  0
 17 18  1  0
 18 19  2  0
 19 14  1  0
 19 11  1  0
 20 21  1  0
 21 25  1  0
 22 23  1  0
 22 29  1  0
 24 23  2  0
 25 26  1  0
 25 24  1  0
 26 22  2  0
 28 27  2  0
 29 28  1  0
 30 29  2  0
 30 31  1  0
 31 32  2  0
 32 27  1  0
  2 33  1  0
  3 34  1  0
  4 35  1  0
  6 36  1  0
  7 37  1  0
  8 38  1  0
 12 39  1  0
 15 40  1  0
 17 41  1  0
 20 42  1  0
 20 43  1  0
 21 44  1  0
 21 45  1  0
 23 46  1  0
 24 47  1  0
 27 48  1  0
 28 49  1  0
 31 50  1  0
M  ISO  8  33  14  34  14  35  14  36  14  37  14  38  14  39  14  40  14
M  ISO  8  41  14  42   8  43   8  44   8  45   8  46  14  47  14  48  14
M  ISO  2  49  14  50  14
M  END
>  <minimizedAffinity>  (1) 
-5.70359802

>  <minimizedRMSD>  (1) 
4.30952024

$$$$
