
     RDKit          3D

 37 40  0  0  0  0  0  0  0  0999 V2000
   38.7310   28.9180   41.4670 C   0  0  0  0  0  0  0  0  0  0  0  0
   39.7030   29.9110   41.6510 C   0  0  0  0  0  0  0  0  0  0  0  0
   40.6270   29.4080   42.4610 N   0  0  0  0  0  0  0  0  0  0  0  0
   40.3370   28.1500   42.8290 C   0  0  0  0  0  0  0  0  0  0  0  0
   41.0490   27.3020   43.6560 C   0  0  0  0  0  0  0  0  0  0  0  0
   40.4990   26.0270   43.8670 C   0  0  0  0  0  0  0  0  0  0  0  0
   39.3030   25.6610   43.2640 C   0  0  0  0  0  0  0  0  0  0  0  0
   38.6070   26.5310   42.4380 C   0  0  0  0  0  0  0  0  0  0  0  0
   39.1270   27.7950   42.2140 C   0  0  0  0  0  0  0  0  0  0  0  0
   35.1930   29.0830   40.5570 C   0  0  0  0  0  0  0  0  0  0  0  0
   35.2250   29.1060   39.1380 C   0  0  0  0  0  0  0  0  0  0  0  0
   36.4930   29.0630   38.5200 C   0  0  0  0  0  0  0  0  0  0  0  0
   37.5870   29.0030   39.3180 N   0  0  0  0  0  0  0  0  0  0  0  0
   37.5100   28.9840   40.6610 C   0  0  0  0  0  0  0  0  0  0  0  0
   36.3290   29.0230   41.2710 N   0  0  0  0  0  0  0  0  0  0  0  0
   43.8940   31.8500   43.4780 C   0  0  0  0  0  0  0  0  0  0  0  0
   43.7860   30.5850   44.0440 C   0  0  0  0  0  0  0  0  0  0  0  0
   42.6800   29.8120   43.6730 C   0  0  0  0  0  0  0  0  0  0  0  0
   41.7240   30.2670   42.7820 C   0  0  0  0  0  0  0  0  0  0  0  0
   41.8470   31.5270   42.2280 C   0  0  0  0  0  0  0  0  0  0  0  0
   42.9430   32.3120   42.5880 C   0  0  0  0  0  0  0  0  0  0  0  0
   45.2890   32.8190   43.9490 S   0  0  0  0  0  0  0  0  0  0  0  0
   45.0960   34.2290   43.4760 O   0  0  0  0  0  0  0  0  0  0  0  0
   45.5090   32.8230   45.4160 O   0  0  0  0  0  0  0  0  0  0  0  0
   39.7007   30.9177   41.2077 H   0  0  0  0  0  0  0  0  0  0  0  0
   41.9959   27.6092   44.1240 H   0  0  0  0  0  0  0  0  0  0  0  0
   41.0217   25.3102   44.5174 H   0  0  0  0  0  0  0  0  0  0  0  0
   38.8970   24.6550   43.4461 H   0  0  0  0  0  0  0  0  0  0  0  0
   37.6604   26.2231   41.9699 H   0  0  0  0  0  0  0  0  0  0  0  0
   34.2251   29.1147   41.0787 H   0  0  0  0  0  0  0  0  0  0  0  0
   34.3000   29.1553   38.5448 H   0  0  0  0  0  0  0  0  0  0  0  0
   36.5905   29.0777   37.4244 H   0  0  0  0  0  0  0  0  0  0  0  0
   44.5376   30.2078   44.7531 H   0  0  0  0  0  0  0  0  0  0  0  0
   42.5665   28.8068   44.1051 H   0  0  0  0  0  0  0  0  0  0  0  0
   41.0962   31.9035   41.5177 H   0  0  0  0  0  0  0  0  0  0  0  0
   43.0521   33.3174   42.1553 H   0  0  0  0  0  0  0  0  0  0  0  0
   46.3942   32.2561   43.3672 H   0  0  0  0  0  0  0  0  0  0  0  0
  1  2  2  0
  1  9  1  0
  2  3  1  0
  3 19  1  0
  3  4  1  0
  4  5  2  0
  5  6  1  0
  7  6  2  0
  8  7  1  0
  9  8  2  0
  9  4  1  0
 10 15  2  0
 11 10  1  0
 12 11  2  0
 12 13  1  0
 13 14  2  0
 14 15  1  0
 14  1  1  0
 16 22  1  0
 16 17  2  0
 18 17  1  0
 19 18  2  0
 20 21  2  0
 20 19  1  0
 21 16  1  0
 22 24  2  0
 23 22  2  0
  2 25  1  0
  5 26  1  0
  6 27  1  0
  7 28  1  0
  8 29  1  0
 10 30  1  0
 11 31  1  0
 12 32  1  0
 17 33  1  0
 18 34  1  0
 20 35  1  0
 21 36  1  0
 22 37  1  0
M  ISO  8  25  14  26  14  27  14  28  14  29  14  30  14  31  14  32  14
M  ISO  5  33  14  34  14  35  14  36  14  37  11
M  END
>  <minimizedAffinity>  (1) 
-5.10129738

>  <minimizedRMSD>  (1) 
9.06634808

$$$$
