
     RDKit          3D

 29 31  0  0  0  0  0  0  0  0999 V2000
   38.5640   31.1220   39.1440 C   0  0  0  0  0  0  0  0  0  0  0  0
   37.7240   31.9960   39.8290 C   0  0  0  0  0  0  0  0  0  0  0  0
   36.6050   31.4730   40.4810 C   0  0  0  0  0  0  0  0  0  0  0  0
   36.4010   30.1170   40.4070 N   0  0  0  0  0  0  0  0  0  0  0  0
   37.2240   29.3120   39.7430 C   0  0  0  0  0  0  0  0  0  0  0  0
   38.3100   29.7780   39.1030 N   0  0  0  0  0  0  0  0  0  0  0  0
   39.7270   31.5120   38.4420 N   0  0  0  0  0  0  0  0  0  0  0  0
   40.0790   32.0120   37.2590 C   0  0  0  0  0  0  0  0  0  0  0  0
   41.4160   32.1630   37.2060 N   0  0  0  0  0  0  0  0  0  0  0  0
   41.9020   31.7330   38.4180 C   0  0  0  0  0  0  0  0  0  0  0  0
   40.8400   31.3440   39.1460 N   0  0  0  0  0  0  0  0  0  0  0  0
   38.0000   33.4190   39.8670 C   0  0  0  0  0  0  0  0  0  0  0  0
   38.8870   33.7290   41.0500 C   0  0  0  0  0  0  0  0  0  0  0  0
   39.5220   35.0570   40.8030 C   0  0  0  0  0  0  0  0  0  0  0  0
   38.9290   36.0100   39.9790 C   0  0  0  0  0  0  0  0  0  0  0  0
   39.7150   37.1010   39.9400 N   0  0  0  0  0  0  0  0  0  0  0  0
   40.7620   36.8060   40.7280 C   0  0  0  0  0  0  0  0  0  0  0  0
   40.6730   35.5760   41.2650 N   0  0  0  0  0  0  0  0  0  0  0  0
   35.9119   32.1240   41.0340 H   0  0  0  0  0  0  0  0  0  0  0  0
   37.0102   28.2333   39.7165 H   0  0  0  0  0  0  0  0  0  0  0  0
   39.3817   32.2640   36.4465 H   0  0  0  0  0  0  0  0  0  0  0  0
   42.9561   31.7113   38.7318 H   0  0  0  0  0  0  0  0  0  0  0  0
   38.5087   33.7187   38.9389 H   0  0  0  0  0  0  0  0  0  0  0  0
   37.0546   33.9732   39.9626 H   0  0  0  0  0  0  0  0  0  0  0  0
   38.2854   33.7664   41.9702 H   0  0  0  0  0  0  0  0  0  0  0  0
   39.6547   32.9506   41.1714 H   0  0  0  0  0  0  0  0  0  0  0  0
   37.9738   35.8903   39.4468 H   0  0  0  0  0  0  0  0  0  0  0  0
   41.5997   37.4943   40.9137 H   0  0  0  0  0  0  0  0  0  0  0  0
   41.3475   35.1248   41.8993 H   0  0  0  0  0  0  0  0  0  0  0  0
  1  2  1  0
  2 12  1  0
  2  3  2  0
  4  3  1  0
  5  4  2  0
  6  1  2  0
  6  5  1  0
  7  1  1  0
  7 11  1  0
  8  7  1  0
  9  8  2  0
  9 10  1  0
 10 11  2  0
 12 13  1  0
 14 13  1  0
 14 18  1  0
 15 14  2  0
 16 15  1  0
 16 17  2  0
 17 18  1  0
  3 19  1  0
  5 20  1  0
  8 21  1  0
 10 22  1  0
 12 23  1  0
 12 24  1  0
 13 25  1  0
 13 26  1  0
 15 27  1  0
 17 28  1  0
 18 29  1  0
M  ISO  8  19  14  20  14  21  14  22  14  23   8  24   8  25   8  26   8
M  ISO  3  27  14  28  14  29   9
M  END
>  <minimizedAffinity>  (1) 
-4.63933849

>  <minimizedRMSD>  (1) 
2.75589156

$$$$
