
     RDKit          3D

 20 21  0  0  0  0  0  0  0  0999 V2000
   37.9720   28.8783   43.3743 C   0  0  0  0  0  0  0  0  0  0  0  0
   38.0821   27.4736   43.3064 C   0  0  0  0  0  0  0  0  0  0  0  0
   37.4384   26.8217   42.2540 C   0  0  0  0  0  0  0  0  0  0  0  0
   36.7352   27.5708   41.3430 N   0  0  0  0  0  0  0  0  0  0  0  0
   36.6599   28.9162   41.4524 C   0  0  0  0  0  0  0  0  0  0  0  0
   37.2679   29.5522   42.4499 N   0  0  0  0  0  0  0  0  0  0  0  0
   37.5270   25.3446   42.1427 C   0  0  0  0  0  0  0  0  0  0  0  0
   37.6533   25.0495   40.8074 F   0  0  0  0  0  0  0  0  0  0  0  0
   38.6253   24.8356   42.7977 F   0  0  0  0  0  0  0  0  0  0  0  0
   36.3848   24.7126   42.6452 F   0  0  0  0  0  0  0  0  0  0  0  0
   38.4731   29.3819   44.1930 H   0  0  0  0  0  0  0  0  0  0  0  0
   38.6545   26.9499   44.0619 H   0  0  0  0  0  0  0  0  0  0  0  0
   35.9330   29.7494   40.5204 C   0  0  0  0  0  0  0  0  0  0  0  0
   34.6756   30.3208   40.6541 C   0  0  0  0  0  0  0  0  0  0  0  0
   34.2019   31.0741   39.6245 C   0  0  0  0  0  0  0  0  0  0  0  0
   35.0067   31.2163   38.5192 C   0  0  0  0  0  0  0  0  0  0  0  0
   36.5227   30.2345   38.9459 S   0  0  0  0  0  0  0  0  0  0  0  0
   34.1304   30.1374   41.5776 H   0  0  0  0  0  0  0  0  0  0  0  0
   33.2341   31.5578   39.6393 H   0  0  0  0  0  0  0  0  0  0  0  0
   34.7972   31.7784   37.6042 H   0  0  0  0  0  0  0  0  0  0  0  0
  2  1  2  0
  3  2  1  0
  4  5  1  0
  4  3  2  0
  5  6  2  0
  6  1  1  0
  7  3  1  0
  7 10  1  0
  7  9  1  0
  8  7  1  0
  1 11  1  0
  2 12  1  0
 13 14  2  0
 14 15  1  0
 15 16  2  0
 16 17  1  0
 17 13  1  0
 14 18  1  0
 15 19  1  0
 16 20  1  0
  5 13  1  0
M  ISO  2  11  14  12  14
M  END
>  <DihAtoms>  (1) 
3,4,12,13

>  <DihDeg>  (1) 
100.81479143177752

$$$$
