
     RDKit          3D

 31 34  0  0  0  0  0  0  0  0999 V2000
   42.0840   29.4550   43.2430 C   0  0  0  0  0  0  0  0  0  0  0  0
   42.2730   28.1560   43.6540 C   0  0  0  0  0  0  0  0  0  0  0  0
   41.0510   27.5080   43.4880 C   0  0  0  0  0  0  0  0  0  0  0  0
   40.2100   28.4620   42.9870 N   0  0  0  0  0  0  0  0  0  0  0  0
   40.8090   29.6080   42.8390 N   0  0  0  0  0  0  0  0  0  0  0  0
   38.8720   28.0250   42.7290 C   0  0  0  0  0  0  0  0  0  0  0  0
   37.7310   27.8240   43.4780 C   0  0  0  0  0  0  0  0  0  0  0  0
   36.7490   27.3930   42.6680 N   0  0  0  0  0  0  0  0  0  0  0  0
   37.2280   27.3080   41.4020 C   0  0  0  0  0  0  0  0  0  0  0  0
   36.5600   26.9090   40.2620 C   0  0  0  0  0  0  0  0  0  0  0  0
   37.2410   26.8940   39.0620 C   0  0  0  0  0  0  0  0  0  0  0  0
   38.5620   27.2750   39.0330 C   0  0  0  0  0  0  0  0  0  0  0  0
   39.2030   27.6680   40.1850 C   0  0  0  0  0  0  0  0  0  0  0  0
   38.5650   27.7010   41.4170 C   0  0  0  0  0  0  0  0  0  0  0  0
   45.3020   31.2980   43.6890 C   0  0  0  0  0  0  0  0  0  0  0  0
   44.3710   30.2530   43.7160 C   0  0  0  0  0  0  0  0  0  0  0  0
   43.0920   30.4990   43.2390 C   0  0  0  0  0  0  0  0  0  0  0  0
   42.7890   31.7400   42.7620 N   0  0  0  0  0  0  0  0  0  0  0  0
   43.7210   32.7290   42.7530 C   0  0  0  0  0  0  0  0  0  0  0  0
   44.9670   32.5080   43.2120 N   0  0  0  0  0  0  0  0  0  0  0  0
   43.2051   27.7157   44.0380 H   0  0  0  0  0  0  0  0  0  0  0  0
   40.8144   26.4573   43.7115 H   0  0  0  0  0  0  0  0  0  0  0  0
   37.6398   27.9895   44.5616 H   0  0  0  0  0  0  0  0  0  0  0  0
   35.7884   27.1643   42.9611 H   0  0  0  0  0  0  0  0  0  0  0  0
   35.5030   26.6082   40.3093 H   0  0  0  0  0  0  0  0  0  0  0  0
   36.7326   26.5806   38.1383 H   0  0  0  0  0  0  0  0  0  0  0  0
   39.1111   27.2654   38.0799 H   0  0  0  0  0  0  0  0  0  0  0  0
   40.2600   27.9671   40.1275 H   0  0  0  0  0  0  0  0  0  0  0  0
   46.3218   31.1258   44.0635 H   0  0  0  0  0  0  0  0  0  0  0  0
   44.6467   29.2619   44.1056 H   0  0  0  0  0  0  0  0  0  0  0  0
   43.4537   33.7232   42.3655 H   0  0  0  0  0  0  0  0  0  0  0  0
  1  2  1  0
  3  2  2  0
  4  3  1  0
  5  4  1  0
  5  1  2  0
  6  4  1  0
  6  7  2  0
  8  7  1  0
  9 14  2  0
  9  8  1  0
 10  9  1  0
 11 10  2  0
 12 11  1  0
 12 13  2  0
 13 14  1  0
 14  6  1  0
 15 16  2  0
 17  1  1  0
 17 16  1  0
 18 17  2  0
 19 18  1  0
 19 20  2  0
 20 15  1  0
  2 21  1  0
  3 22  1  0
  7 23  1  0
  8 24  1  0
 10 25  1  0
 11 26  1  0
 12 27  1  0
 13 28  1  0
 15 29  1  0
 16 30  1  0
 19 31  1  0
M  ISO  8  21  14  22  14  23  14  24   9  25  14  26  14  27  14  28  14
M  ISO  3  29  14  30  14  31  14
M  END
>  <minimizedAffinity>  (1) 
-3.81498599

>  <minimizedRMSD>  (1) 
7.19892931

$$$$
