
     RDKit          3D

 34 37  0  0  0  0  0  0  0  0999 V2000
   38.4190   28.3340   43.2530 C   0  0  0  0  0  0  0  0  0  0  0  0
   38.1380   27.1340   42.5420 C   0  0  0  0  0  0  0  0  0  0  0  0
   37.2500   27.2270   41.4700 C   0  0  0  0  0  0  0  0  0  0  0  0
   36.7170   28.4290   41.1730 N   0  0  0  0  0  0  0  0  0  0  0  0
   36.9970   29.5370   41.8560 C   0  0  0  0  0  0  0  0  0  0  0  0
   37.8540   29.4940   42.9040 N   0  0  0  0  0  0  0  0  0  0  0  0
   36.9980   25.9740   40.7770 C   0  0  0  0  0  0  0  0  0  0  0  0
   36.9940   24.7630   41.6900 C   0  0  0  0  0  0  0  0  0  0  0  0
   37.0350   23.5710   40.7810 C   0  0  0  0  0  0  0  0  0  0  0  0
   36.1090   23.2060   39.8720 N   0  0  0  0  0  0  0  0  0  0  0  0
   36.4830   22.1260   39.2740 O   0  0  0  0  0  0  0  0  0  0  0  0
   37.6370   21.7250   39.7340 C   0  0  0  0  0  0  0  0  0  0  0  0
   38.0110   22.6220   40.6910 N   0  0  0  0  0  0  0  0  0  0  0  0
   36.3440   30.6260   41.3750 O   0  0  0  0  0  0  0  0  0  0  0  0
   36.9860   31.5010   40.4980 C   0  0  0  0  0  0  0  0  0  0  0  0
   36.8750   31.6510   39.1440 N   0  0  0  0  0  0  0  0  0  0  0  0
   37.6850   32.6100   38.7640 O   0  0  0  0  0  0  0  0  0  0  0  0
   38.3000   33.0640   39.8480 C   0  0  0  0  0  0  0  0  0  0  0  0
   37.8870   32.3990   40.9220 N   0  0  0  0  0  0  0  0  0  0  0  0
   39.2780   34.1370   39.8130 C   0  0  0  0  0  0  0  0  0  0  0  0
   39.0680   35.4600   40.2100 C   0  0  0  0  0  0  0  0  0  0  0  0
   40.2320   36.1690   40.0260 C   0  0  0  0  0  0  0  0  0  0  0  0
   41.1300   35.2380   39.5130 C   0  0  0  0  0  0  0  0  0  0  0  0
   40.5230   34.0990   39.4140 O   0  0  0  0  0  0  0  0  0  0  0  0
   39.1138   28.3066   44.1053 H   0  0  0  0  0  0  0  0  0  0  0  0
   38.5999   26.1765   42.8247 H   0  0  0  0  0  0  0  0  0  0  0  0
   36.0168   26.0408   40.2843 H   0  0  0  0  0  0  0  0  0  0  0  0
   37.8192   25.8328   40.0589 H   0  0  0  0  0  0  0  0  0  0  0  0
   37.8760   24.7750   42.3472 H   0  0  0  0  0  0  0  0  0  0  0  0
   36.1074   24.7476   42.3409 H   0  0  0  0  0  0  0  0  0  0  0  0
   38.1990   20.8358   39.4121 H   0  0  0  0  0  0  0  0  0  0  0  0
   38.1259   35.8678   40.6051 H   0  0  0  0  0  0  0  0  0  0  0  0
   40.4126   37.2333   40.2370 H   0  0  0  0  0  0  0  0  0  0  0  0
   42.1766   35.4361   39.2386 H   0  0  0  0  0  0  0  0  0  0  0  0
  2  1  2  0
  3  2  1  0
  4  3  2  0
  4  5  1  0
  5  6  2  0
  6  1  1  0
  7  3  1  0
  7  8  1  0
  9  8  1  0
 10  9  2  0
 11 12  1  0
 11 10  1  0
 12 13  2  0
 13  9  1  0
 14  5  1  0
 15 19  1  0
 15 14  1  0
 16 15  2  0
 17 16  1  0
 17 18  1  0
 18 19  2  0
 20 18  1  0
 20 21  2  0
 22 21  1  0
 23 22  2  0
 24 23  1  0
 24 20  1  0
  1 25  1  0
  2 26  1  0
  7 27  1  0
  7 28  1  0
  8 29  1  0
  8 30  1  0
 12 31  1  0
 21 32  1  0
 22 33  1  0
 23 34  1  0
M  ISO  8  25  14  26  14  27   8  28   8  29   8  30   8  31  14  32  14
M  ISO  2  33  14  34  14
M  END
>  <minimizedAffinity>  (1) 
-5.70590353

>  <minimizedRMSD>  (1) 
0.466006696

$$$$
