
     RDKit          3D

 46 50  0  0  1  0  0  0  0  0999 V2000
   37.3190   26.4130   42.7940 C   0  0  0  0  0  0  0  0  0  0  0  0
   36.9420   25.9450   41.4590 C   0  0  0  0  0  0  0  0  0  0  0  0
   36.7370   24.6110   41.1800 C   0  0  0  0  0  0  0  0  0  0  0  0
   36.3830   24.3180   39.8690 C   0  0  0  0  0  0  0  0  0  0  0  0
   36.2580   25.3330   38.9470 C   0  0  0  0  0  0  0  0  0  0  0  0
   36.4680   26.6660   39.2490 C   0  0  0  0  0  0  0  0  0  0  0  0
   36.8130   26.9260   40.5360 N   0  0  0  0  0  0  0  0  0  0  0  0
   36.3400   27.7390   38.2920 C   0  0  0  0  0  0  0  0  0  0  0  0
   35.8870   28.9250   38.7460 N   0  0  0  0  0  0  0  0  0  0  0  0
   35.8320   29.7710   37.7750 O   0  0  0  0  0  0  0  0  0  0  0  0
   36.2410   29.1510   36.6990 C   0  0  0  0  0  0  0  0  0  0  0  0
   36.5680   27.8720   36.9890 N   0  0  0  0  0  0  0  0  0  0  0  0
   36.3530   29.6870   35.3700 C   0  0  0  0  0  0  0  0  0  0  0  0
   36.5100   31.1000   35.0740 C   0  0  0  0  0  0  0  0  0  0  0  0
   36.5980   31.4150   33.7480 C   0  0  0  0  0  0  0  0  0  0  0  0
   36.5340   30.3800   32.7490 C   0  0  0  0  0  0  0  0  0  0  0  0
   36.3290   28.8520   33.8570 S   0  0  0  0  0  0  0  0  0  0  0  0
   36.8270   27.7610   43.1170 C   0  0  2  0  0  0  0  0  0  0  0  0
   38.4620   30.7270   41.7780 N   0  0  0  0  0  0  0  0  0  0  0  0
   39.4570   30.0930   42.3980 C   0  0  0  0  0  0  0  0  0  0  0  0
   39.0270   28.9550   42.9580 N   0  0  0  0  0  0  0  0  0  0  0  0
   37.6870   28.8670   42.6770 C   0  0  0  0  0  0  0  0  0  0  0  0
   37.3960   29.9600   41.9630 N   0  0  0  0  0  0  0  0  0  0  0  0
   37.1790   32.1820   40.1890 C   0  0  0  0  0  0  0  0  0  0  0  0
   38.2660   31.9260   41.0270 C   0  0  0  0  0  0  0  0  0  0  0  0
   39.2770   32.9330   41.1580 C   0  0  0  0  0  0  0  0  0  0  0  0
   39.1100   34.0690   40.4600 N   0  0  0  0  0  0  0  0  0  0  0  0
   38.0470   34.2610   39.6710 C   0  0  0  0  0  0  0  0  0  0  0  0
   37.1010   33.3340   39.5390 N   0  0  0  0  0  0  0  0  0  0  0  0
   36.7300   27.9010   44.6600 C   0  0  0  0  0  0  0  0  0  0  0  0
   38.4170   26.4205   42.8605 H   0  0  0  0  0  0  0  0  0  0  0  0
   36.8553   25.7239   43.5153 H   0  0  0  0  0  0  0  0  0  0  0  0
   36.8466   23.8290   41.9458 H   0  0  0  0  0  0  0  0  0  0  0  0
   36.2026   23.2756   39.5676 H   0  0  0  0  0  0  0  0  0  0  0  0
   35.9765   25.0698   37.9167 H   0  0  0  0  0  0  0  0  0  0  0  0
   36.5550   31.8643   35.8638 H   0  0  0  0  0  0  0  0  0  0  0  0
   36.7184   32.4646   33.4417 H   0  0  0  0  0  0  0  0  0  0  0  0
   36.5885   30.4538   31.6528 H   0  0  0  0  0  0  0  0  0  0  0  0
   35.8673   27.8428   42.5858 H   0  0  0  0  0  0  0  0  0  0  0  0
   40.4942   30.4564   42.4437 H   0  0  0  0  0  0  0  0  0  0  0  0
   36.3876   31.4276   40.0684 H   0  0  0  0  0  0  0  0  0  0  0  0
   40.1545   32.7821   41.8040 H   0  0  0  0  0  0  0  0  0  0  0  0
   37.9524   35.2073   39.1182 H   0  0  0  0  0  0  0  0  0  0  0  0
   37.2942   27.0867   45.1382 H   0  0  0  0  0  0  0  0  0  0  0  0
   37.1518   28.8692   44.9676 H   0  0  0  0  0  0  0  0  0  0  0  0
   35.6753   27.8462   44.9676 H   0  0  0  0  0  0  0  0  0  0  0  0
  1 18  1  0
  2  1  1  0
  3  2  2  0
  4  3  1  0
  5  6  1  0
  5  4  2  0
  6  7  2  0
  7  2  1  0
  8  9  2  0
  8  6  1  0
 10  9  1  0
 11 12  2  0
 11 10  1  0
 12  8  1  0
 13 11  1  0
 14 13  2  0
 15 14  1  0
 16 15  2  0
 16 17  1  0
 17 13  1  0
 18 30  1  0
 19 23  1  0
 19 20  1  0
 20 21  2  0
 22 21  1  0
 22 18  1  0
 23 22  2  0
 24 25  2  0
 25 26  1  0
 25 19  1  0
 27 26  2  0
 28 27  1  0
 29 28  2  0
 29 24  1  0
  1 31  1  0
  1 32  1  0
  3 33  1  0
  4 34  1  0
  5 35  1  0
 14 36  1  0
 15 37  1  0
 16 38  1  0
 18 39  1  6
 20 40  1  0
 24 41  1  0
 26 42  1  0
 28 43  1  0
 30 44  1  0
 30 45  1  0
 30 46  1  0
M  ISO  8  31   8  32   8  33  14  34  14  35  14  36  14  37  14  38  14
M  ISO  8  39   8  40  14  41  14  42  14  43  14  44   8  45   8  46   8
M  END
>  <minimizedAffinity>  (1) 
-6.1342597

>  <minimizedRMSD>  (1) 
1.260741

$$$$
