
     RDKit          3D

 36 39  0  0  0  0  0  0  0  0999 V2000
   38.3320   26.9310   43.0760 C   0  0  0  0  0  0  0  0  0  0  0  0
   39.4650   26.8910   43.8980 C   0  0  0  0  0  0  0  0  0  0  0  0
   40.3240   25.8160   43.8570 C   0  0  0  0  0  0  0  0  0  0  0  0
   40.0520   24.7700   42.9870 C   0  0  0  0  0  0  0  0  0  0  0  0
   38.9420   24.7950   42.1720 C   0  0  0  0  0  0  0  0  0  0  0  0
   38.6700   23.7540   41.3110 C   0  0  0  0  0  0  0  0  0  0  0  0
   37.5760   23.7770   40.5120 C   0  0  0  0  0  0  0  0  0  0  0  0
   36.6850   24.8430   40.5230 C   0  0  0  0  0  0  0  0  0  0  0  0
   36.9880   25.8790   41.4050 C   0  0  0  0  0  0  0  0  0  0  0  0
   38.0840   25.8890   42.2270 C   0  0  0  0  0  0  0  0  0  0  0  0
   37.3940   28.0520   43.0900 C   0  0  0  0  0  0  0  0  0  0  0  0
   39.1390   29.8760   42.9330 C   0  0  0  0  0  0  0  0  0  0  0  0
   37.9160   29.3240   42.5310 C   0  0  0  0  0  0  0  0  0  0  0  0
   37.1740   30.0220   41.5590 C   0  0  0  0  0  0  0  0  0  0  0  0
   37.6890   31.1720   41.0830 N   0  0  0  0  0  0  0  0  0  0  0  0
   38.8560   31.6620   41.4910 C   0  0  0  0  0  0  0  0  0  0  0  0
   39.5960   31.0270   42.4170 N   0  0  0  0  0  0  0  0  0  0  0  0
   39.2530   32.9270   40.8540 C   0  0  0  0  0  0  0  0  0  0  0  0
   38.7410   34.1320   40.6380 C   0  0  0  0  0  0  0  0  0  0  0  0
   39.4350   35.0800   39.9870 C   0  0  0  0  0  0  0  0  0  0  0  0
   40.7620   34.6710   39.5560 C   0  0  0  0  0  0  0  0  0  0  0  0
   40.8490   32.8990   40.1650 S   0  0  0  0  0  0  0  0  0  0  0  0
   39.6706   27.7267   44.5831 H   0  0  0  0  0  0  0  0  0  0  0  0
   41.2128   25.7868   44.5044 H   0  0  0  0  0  0  0  0  0  0  0  0
   40.7334   23.9074   42.9475 H   0  0  0  0  0  0  0  0  0  0  0  0
   39.3514   22.8913   41.2718 H   0  0  0  0  0  0  0  0  0  0  0  0
   37.3883   22.9292   39.8367 H   0  0  0  0  0  0  0  0  0  0  0  0
   35.7958   24.8679   39.8759 H   0  0  0  0  0  0  0  0  0  0  0  0
   36.3056   26.7409   41.4434 H   0  0  0  0  0  0  0  0  0  0  0  0
   36.5090   27.7617   42.5048 H   0  0  0  0  0  0  0  0  0  0  0  0
   37.1761   28.2525   44.1494 H   0  0  0  0  0  0  0  0  0  0  0  0
   39.7400   29.3524   43.6911 H   0  0  0  0  0  0  0  0  0  0  0  0
   36.2064   29.6410   41.2005 H   0  0  0  0  0  0  0  0  0  0  0  0
   37.7273   34.3592   40.9996 H   0  0  0  0  0  0  0  0  0  0  0  0
   39.0317   36.0853   39.7953 H   0  0  0  0  0  0  0  0  0  0  0  0
   41.5210   35.2522   39.0118 H   0  0  0  0  0  0  0  0  0  0  0  0
  1 11  1  0
  1  2  2  0
  3  2  1  0
  4  3  2  0
  5 10  2  0
  5  4  1  0
  6  5  1  0
  7  8  1  0
  7  6  2  0
  8  9  2  0
  9 10  1  0
 10  1  1  0
 13 12  2  0
 13 11  1  0
 14 13  1  0
 15 16  1  0
 15 14  2  0
 16 17  2  0
 17 12  1  0
 18 16  1  0
 19 18  2  0
 20 19  1  0
 21 20  2  0
 21 22  1  0
 22 18  1  0
  2 23  1  0
  3 24  1  0
  4 25  1  0
  6 26  1  0
  7 27  1  0
  8 28  1  0
  9 29  1  0
 11 30  1  0
 11 31  1  0
 12 32  1  0
 14 33  1  0
 19 34  1  0
 20 35  1  0
 21 36  1  0
M  ISO  8  23  14  24  14  25  14  26  14  27  14  28  14  29  14  30   8
M  ISO  6  31   8  32  14  33  14  34  14  35  14  36  14
M  END
>  <minimizedAffinity>  (1) 
-6.587183

>  <minimizedRMSD>  (1) 
1.08120906

$$$$
