
     RDKit          3D

 40 44  0  0  0  0  0  0  0  0999 V2000
   41.4390   32.8100   40.9750 C   0  0  0  0  0  0  0  0  0  0  0  0
   41.1140   31.5080   41.3500 C   0  0  0  0  0  0  0  0  0  0  0  0
   39.8060   31.3820   41.1850 N   0  0  0  0  0  0  0  0  0  0  0  0
   39.2300   32.5070   40.7270 C   0  0  0  0  0  0  0  0  0  0  0  0
   37.9130   32.7740   40.4310 C   0  0  0  0  0  0  0  0  0  0  0  0
   37.6150   34.0620   39.9620 C   0  0  0  0  0  0  0  0  0  0  0  0
   38.6100   34.9970   39.8120 C   0  0  0  0  0  0  0  0  0  0  0  0
   39.9360   34.7220   40.1110 C   0  0  0  0  0  0  0  0  0  0  0  0
   40.2580   33.4390   40.5830 C   0  0  0  0  0  0  0  0  0  0  0  0
   39.2020   30.1300   41.5010 C   0  0  0  0  0  0  0  0  0  0  0  0
   38.9570   29.9180   42.8560 C   0  0  0  0  0  0  0  0  0  0  0  0
   38.3710   28.7350   43.2860 C   0  0  0  0  0  0  0  0  0  0  0  0
   38.0100   27.7270   42.4020 C   0  0  0  0  0  0  0  0  0  0  0  0
   38.2670   27.9710   41.0690 C   0  0  0  0  0  0  0  0  0  0  0  0
   37.9250   27.0000   40.1630 C   0  0  0  0  0  0  0  0  0  0  0  0
   38.1790   27.2330   38.8150 C   0  0  0  0  0  0  0  0  0  0  0  0
   38.7640   28.4120   38.3720 C   0  0  0  0  0  0  0  0  0  0  0  0
   39.1140   29.4020   39.2860 C   0  0  0  0  0  0  0  0  0  0  0  0
   38.8480   29.1370   40.6100 C   0  0  0  0  0  0  0  0  0  0  0  0
   44.4010   34.5880   42.1510 C   0  0  0  0  0  0  0  0  0  0  0  0
   45.2530   34.6040   41.0150 C   0  0  0  0  0  0  0  0  0  0  0  0
   44.7750   33.9920   39.8570 C   0  0  0  0  0  0  0  0  0  0  0  0
   43.5520   33.4320   39.8870 N   0  0  0  0  0  0  0  0  0  0  0  0
   42.7630   33.4300   40.9800 C   0  0  0  0  0  0  0  0  0  0  0  0
   43.1920   34.0130   42.1200 N   0  0  0  0  0  0  0  0  0  0  0  0
   41.8083   30.7356   41.7124 H   0  0  0  0  0  0  0  0  0  0  0  0
   37.1295   32.0121   40.5564 H   0  0  0  0  0  0  0  0  0  0  0  0
   36.5765   34.3253   39.7124 H   0  0  0  0  0  0  0  0  0  0  0  0
   38.3459   35.9986   39.4419 H   0  0  0  0  0  0  0  0  0  0  0  0
   40.7147   35.4882   39.9819 H   0  0  0  0  0  0  0  0  0  0  0  0
   39.2292   30.6918   43.5889 H   0  0  0  0  0  0  0  0  0  0  0  0
   38.1869   28.5918   44.3610 H   0  0  0  0  0  0  0  0  0  0  0  0
   37.5467   26.7899   42.7443 H   0  0  0  0  0  0  0  0  0  0  0  0
   37.4609   26.0593   40.4941 H   0  0  0  0  0  0  0  0  0  0  0  0
   37.9087   26.4613   38.0792 H   0  0  0  0  0  0  0  0  0  0  0  0
   38.9509   28.5637   37.2986 H   0  0  0  0  0  0  0  0  0  0  0  0
   39.5788   30.3465   38.9667 H   0  0  0  0  0  0  0  0  0  0  0  0
   44.7439   35.0614   43.0829 H   0  0  0  0  0  0  0  0  0  0  0  0
   46.2452   35.0778   41.0472 H   0  0  0  0  0  0  0  0  0  0  0  0
   45.3832   33.9676   38.9408 H   0  0  0  0  0  0  0  0  0  0  0  0
  1 24  1  0
  1  2  2  0
  3  2  1  0
  3 10  1  0
  4  3  1  0
  5  4  2  0
  6  5  1  0
  7  6  2  0
  7  8  1  0
  8  9  2  0
  9  4  1  0
  9  1  1  0
 10 11  2  0
 11 12  1  0
 13 12  2  0
 14 13  1  0
 15 14  2  0
 16 15  1  0
 17 16  2  0
 17 18  1  0
 18 19  2  0
 19 14  1  0
 19 10  1  0
 21 20  2  0
 22 23  2  0
 22 21  1  0
 23 24  1  0
 24 25  2  0
 25 20  1  0
  2 26  1  0
  5 27  1  0
  6 28  1  0
  7 29  1  0
  8 30  1  0
 11 31  1  0
 12 32  1  0
 13 33  1  0
 15 34  1  0
 16 35  1  0
 17 36  1  0
 18 37  1  0
 20 38  1  0
 21 39  1  0
 22 40  1  0
M  ISO  8  26  14  27  14  28  14  29  14  30  14  31  14  32  14  33  14
M  ISO  7  34  14  35  14  36  14  37  14  38  14  39  14  40  14
M  END
>  <minimizedAffinity>  (1) 
-5.80237293

>  <minimizedRMSD>  (1) 
6.59052372

$$$$
