
     RDKit          3D

 48 52  0  0  1  0  0  0  0  0999 V2000
   38.8670   35.5940   40.1090 C   0  0  0  0  0  0  0  0  0  0  0  0
   40.1970   36.0010   40.3080 C   0  0  0  0  0  0  0  0  0  0  0  0
   41.1240   34.9810   40.6200 C   0  0  0  0  0  0  0  0  0  0  0  0
   40.6410   33.7560   40.6910 N   0  0  0  0  0  0  0  0  0  0  0  0
   39.4130   33.3290   40.5140 C   0  0  0  0  0  0  0  0  0  0  0  0
   38.5500   34.3070   40.2190 N   0  0  0  0  0  0  0  0  0  0  0  0
   38.7780   32.0260   40.5690 C   0  0  0  0  0  0  0  0  0  0  0  0
   38.6940   31.2830   41.6930 N   0  0  0  0  0  0  0  0  0  0  0  0
   38.1230   30.0940   41.7810 C   0  0  0  0  0  0  0  0  0  0  0  0
   37.5720   29.5250   40.7240 N   0  0  0  0  0  0  0  0  0  0  0  0
   37.5890   30.1670   39.5320 C   0  0  0  0  0  0  0  0  0  0  0  0
   37.0140   29.5830   38.4180 C   0  0  0  0  0  0  0  0  0  0  0  0
   37.0140   30.1990   37.2140 C   0  0  0  0  0  0  0  0  0  0  0  0
   37.6280   31.4800   37.1180 C   0  0  0  0  0  0  0  0  0  0  0  0
   38.1800   32.0010   38.2670 C   0  0  0  0  0  0  0  0  0  0  0  0
   38.1920   31.4040   39.4840 C   0  0  0  0  0  0  0  0  0  0  0  0
   42.3940   35.2600   40.8300 O   0  0  0  0  0  0  0  0  0  0  0  0
   43.0760   35.1260   42.0590 C   0  0  2  0  0  0  0  0  0  0  0  0
   42.8220   36.5110   42.7820 C   0  0  0  0  0  0  0  0  0  0  0  0
   44.5360   34.9420   41.8900 C   0  0  0  0  0  0  0  0  0  0  0  0
   45.0310   34.2630   43.0810 N   0  0  0  0  0  0  0  0  0  0  0  0
   46.1330   34.6370   43.7810 C   0  0  0  0  0  0  0  0  0  0  0  0
   46.3200   33.8070   44.8270 N   0  0  0  0  0  0  0  0  0  0  0  0
   45.3000   32.8990   44.7640 C   0  0  0  0  0  0  0  0  0  0  0  0
   44.5320   33.2010   43.6920 N   0  0  0  0  0  0  0  0  0  0  0  0
   44.8260   31.7320   45.5080 C   0  0  0  0  0  0  0  0  0  0  0  0
   44.4330   30.5790   44.8600 C   0  0  0  0  0  0  0  0  0  0  0  0
   44.0010   29.5370   45.6830 C   0  0  0  0  0  0  0  0  0  0  0  0
   43.9760   29.6650   47.0220 N   0  0  0  0  0  0  0  0  0  0  0  0
   44.3650   30.8030   47.6240 C   0  0  0  0  0  0  0  0  0  0  0  0
   44.7830   31.8130   46.8490 N   0  0  0  0  0  0  0  0  0  0  0  0
   38.0924   36.3355   39.8636 H   0  0  0  0  0  0  0  0  0  0  0  0
   40.4999   37.0552   40.2255 H   0  0  0  0  0  0  0  0  0  0  0  0
   38.1065   29.5709   42.7485 H   0  0  0  0  0  0  0  0  0  0  0  0
   36.5449   28.5926   38.5136 H   0  0  0  0  0  0  0  0  0  0  0  0
   36.5533   29.7245   36.3350 H   0  0  0  0  0  0  0  0  0  0  0  0
   37.6601   32.0303   36.1661 H   0  0  0  0  0  0  0  0  0  0  0  0
   38.6539   32.9907   38.1904 H   0  0  0  0  0  0  0  0  0  0  0  0
   42.7189   34.2434   42.6098 H   0  0  0  0  0  0  0  0  0  0  0  0
   42.8486   36.3659   43.8721 H   0  0  0  0  0  0  0  0  0  0  0  0
   43.6038   37.2268   42.4882 H   0  0  0  0  0  0  0  0  0  0  0  0
   41.8370   36.9028   42.4882 H   0  0  0  0  0  0  0  0  0  0  0  0
   44.7370   34.3307   40.9979 H   0  0  0  0  0  0  0  0  0  0  0  0
   45.0371   35.9126   41.7600 H   0  0  0  0  0  0  0  0  0  0  0  0
   46.7785   35.4919   43.5312 H   0  0  0  0  0  0  0  0  0  0  0  0
   44.4584   30.4865   43.7642 H   0  0  0  0  0  0  0  0  0  0  0  0
   43.6741   28.5910   45.2267 H   0  0  0  0  0  0  0  0  0  0  0  0
   44.3408   30.9016   48.7193 H   0  0  0  0  0  0  0  0  0  0  0  0
  1  6  2  0
  1  2  1  0
  2  3  2  0
  3  4  1  0
  3 17  1  0
  5  7  1  0
  5  4  2  0
  6  5  1  0
  7  8  2  0
  8  9  1  0
 10  9  2  0
 11 10  1  0
 12 11  2  0
 13 12  1  0
 14 13  2  0
 14 15  1  0
 15 16  2  0
 16 11  1  0
 16  7  1  0
 17 18  1  0
 18 19  1  0
 20 18  1  0
 20 21  1  0
 21 25  1  0
 21 22  1  0
 22 23  2  0
 24 23  1  0
 24 26  1  0
 25 24  2  0
 26 31  1  0
 27 26  2  0
 27 28  1  0
 28 29  2  0
 29 30  1  0
 31 30  2  0
  1 32  1  0
  2 33  1  0
  9 34  1  0
 12 35  1  0
 13 36  1  0
 14 37  1  0
 15 38  1  0
 18 39  1  1
 19 40  1  0
 19 41  1  0
 19 42  1  0
 20 43  1  0
 20 44  1  0
 22 45  1  0
 27 46  1  0
 28 47  1  0
 30 48  1  0
M  ISO  8  32  14  33  14  34  14  35  14  36  14  37  14  38  14  39   8
M  ISO  8  40   8  41   8  42   8  43   8  44   8  45  14  46  14  47  14
M  ISO  1  48  14
M  END
>  <minimizedAffinity>  (1) 
-6.76115322

>  <minimizedRMSD>  (1) 
0.375806302

$$$$
