
     RDKit          3D

 25 27  0  0  0  0  0  0  0  0999 V2000
   38.5240   28.0310   42.4210 N   0  0  0  0  0  0  0  0  0  0  0  0
   38.4080   26.9010   43.1860 C   0  0  0  0  0  0  0  0  0  0  0  0
   39.6800   26.8190   43.7790 C   0  0  0  0  0  0  0  0  0  0  0  0
   40.4660   27.8270   43.3810 N   0  0  0  0  0  0  0  0  0  0  0  0
   39.7210   28.5790   42.5210 C   0  0  0  0  0  0  0  0  0  0  0  0
   37.0240   29.8860   41.8080 C   0  0  0  0  0  0  0  0  0  0  0  0
   37.4580   28.5410   41.6690 C   0  0  0  0  0  0  0  0  0  0  0  0
   36.7740   27.7020   40.7270 C   0  0  0  0  0  0  0  0  0  0  0  0
   35.7460   28.2390   40.0120 N   0  0  0  0  0  0  0  0  0  0  0  0
   35.3650   29.5540   40.1820 C   0  0  0  0  0  0  0  0  0  0  0  0
   36.0030   30.3880   41.0820 N   0  0  0  0  0  0  0  0  0  0  0  0
   40.4140   29.6970   41.8980 C   0  0  0  0  0  0  0  0  0  0  0  0
   41.1380   30.6240   42.6140 C   0  0  0  0  0  0  0  0  0  0  0  0
   41.8120   31.7040   42.1100 C   0  0  0  0  0  0  0  0  0  0  0  0
   41.7800   31.9040   40.7860 N   0  0  0  0  0  0  0  0  0  0  0  0
   41.0940   31.0410   40.0380 C   0  0  0  0  0  0  0  0  0  0  0  0
   40.4810   30.0330   40.6270 N   0  0  0  0  0  0  0  0  0  0  0  0
   37.5437   26.2312   43.3055 H   0  0  0  0  0  0  0  0  0  0  0  0
   39.9893   26.0291   44.4792 H   0  0  0  0  0  0  0  0  0  0  0  0
   37.5360   30.5391   42.5300 H   0  0  0  0  0  0  0  0  0  0  0  0
   37.0719   26.6526   40.5858 H   0  0  0  0  0  0  0  0  0  0  0  0
   34.5304   29.9502   39.5850 H   0  0  0  0  0  0  0  0  0  0  0  0
   41.1791   30.4821   43.7040 H   0  0  0  0  0  0  0  0  0  0  0  0
   42.3634   32.3871   42.7728 H   0  0  0  0  0  0  0  0  0  0  0  0
   41.0398   31.1673   38.9466 H   0  0  0  0  0  0  0  0  0  0  0  0
  1  5  1  0
  1  2  1  0
  2  3  2  0
  4  3  1  0
  5  4  2  0
  7  6  2  0
  7  1  1  0
  8  7  1  0
  9 10  1  0
  9  8  2  0
 10 11  2  0
 11  6  1  0
 12  5  1  0
 12 13  2  0
 14 13  1  0
 15 14  2  0
 16 17  2  0
 16 15  1  0
 17 12  1  0
  2 18  1  0
  3 19  1  0
  6 20  1  0
  8 21  1  0
 10 22  1  0
 13 23  1  0
 14 24  1  0
 16 25  1  0
M  ISO  8  18  14  19  14  20  14  21  14  22  14  23  14  24  14  25  14
M  END
>  <minimizedAffinity>  (1) 
-3.88186407

>  <minimizedRMSD>  (1) 
0.868108153

$$$$
