
     RDKit          3D

 48 52  0  0  0  0  0  0  0  0999 V2000
   36.1620   30.0670   41.1190 C   0  0  0  0  0  0  0  0  0  0  0  0
   38.6330   28.1370   42.7040 C   0  0  0  0  0  0  0  0  0  0  0  0
   37.5500   27.3000   42.8030 C   0  0  0  0  0  0  0  0  0  0  0  0
   36.4820   27.9700   42.1940 C   0  0  0  0  0  0  0  0  0  0  0  0
   37.0030   29.1320   41.7870 N   0  0  0  0  0  0  0  0  0  0  0  0
   38.2660   29.2800   42.0630 N   0  0  0  0  0  0  0  0  0  0  0  0
   41.5760   26.4500   44.2440 C   0  0  0  0  0  0  0  0  0  0  0  0
   40.2660   26.6330   43.7990 C   0  0  0  0  0  0  0  0  0  0  0  0
   39.9700   27.8760   43.1930 C   0  0  0  0  0  0  0  0  0  0  0  0
   40.9370   28.8170   43.0700 N   0  0  0  0  0  0  0  0  0  0  0  0
   42.2060   28.5660   43.5330 C   0  0  0  0  0  0  0  0  0  0  0  0
   42.5090   27.3960   44.1090 N   0  0  0  0  0  0  0  0  0  0  0  0
   43.2180   29.6080   43.3810 C   0  0  0  0  0  0  0  0  0  0  0  0
   42.9130   30.9290   43.6310 C   0  0  0  0  0  0  0  0  0  0  0  0
   43.9570   31.8120   43.4510 C   0  0  0  0  0  0  0  0  0  0  0  0
   45.1890   31.4360   43.0600 N   0  0  0  0  0  0  0  0  0  0  0  0
   45.4590   30.1400   42.8230 C   0  0  0  0  0  0  0  0  0  0  0  0
   44.4600   29.2630   42.9920 N   0  0  0  0  0  0  0  0  0  0  0  0
   35.2700   29.4990   40.0620 C   0  0  0  0  0  0  0  0  0  0  0  0
   35.8840   29.4160   38.7160 C   0  0  0  0  0  0  0  0  0  0  0  0
   37.2030   29.5470   38.3920 C   0  0  0  0  0  0  0  0  0  0  0  0
   37.7210   29.5330   37.1280 C   0  0  0  0  0  0  0  0  0  0  0  0
   36.8780   29.3760   36.0570 C   0  0  0  0  0  0  0  0  0  0  0  0
   35.5280   29.2350   36.3140 C   0  0  0  0  0  0  0  0  0  0  0  0
   34.7320   29.0870   35.1970 C   0  0  0  0  0  0  0  0  0  0  0  0
   33.3810   28.9430   35.3490 C   0  0  0  0  0  0  0  0  0  0  0  0
   32.8370   28.9450   36.6190 C   0  0  0  0  0  0  0  0  0  0  0  0
   33.6810   29.0950   37.6810 C   0  0  0  0  0  0  0  0  0  0  0  0
   35.0260   29.2510   37.6140 C   0  0  0  0  0  0  0  0  0  0  0  0
   33.0770   29.0710   38.9300 O   0  0  0  0  0  0  0  0  0  0  0  0
   35.5250   30.5487   41.8754 H   0  0  0  0  0  0  0  0  0  0  0  0
   36.8393   30.7599   40.5983 H   0  0  0  0  0  0  0  0  0  0  0  0
   37.5258   26.3031   43.2674 H   0  0  0  0  0  0  0  0  0  0  0  0
   35.4462   27.6189   42.0767 H   0  0  0  0  0  0  0  0  0  0  0  0
   41.8486   25.4969   44.7208 H   0  0  0  0  0  0  0  0  0  0  0  0
   39.5022   25.8498   43.9138 H   0  0  0  0  0  0  0  0  0  0  0  0
   41.9119   31.2544   43.9502 H   0  0  0  0  0  0  0  0  0  0  0  0
   43.7732   32.8805   43.6368 H   0  0  0  0  0  0  0  0  0  0  0  0
   46.4595   29.8131   42.5033 H   0  0  0  0  0  0  0  0  0  0  0  0
   34.9775   28.4840   40.3689 H   0  0  0  0  0  0  0  0  0  0  0  0
   34.4154   30.1859   39.9730 H   0  0  0  0  0  0  0  0  0  0  0  0
   37.9125   29.6753   39.2227 H   0  0  0  0  0  0  0  0  0  0  0  0
   38.8037   29.6465   36.9704 H   0  0  0  0  0  0  0  0  0  0  0  0
   37.2645   29.3628   35.0272 H   0  0  0  0  0  0  0  0  0  0  0  0
   35.1805   29.0849   34.1926 H   0  0  0  0  0  0  0  0  0  0  0  0
   32.7328   28.8266   34.4679 H   0  0  0  0  0  0  0  0  0  0  0  0
   31.7536   28.8289   36.7700 H   0  0  0  0  0  0  0  0  0  0  0  0
   33.6260   29.1738   39.7474 H   0  0  0  0  0  0  0  0  0  0  0  0
  1  5  1  0
  2  3  1  0
  2  9  1  0
  4  3  2  0
  5  6  1  0
  5  4  1  0
  6  2  2  0
  8  7  2  0
  9  8  1  0
 10  9  2  0
 10 11  1  0
 11 12  2  0
 12  7  1  0
 13 11  1  0
 13 14  2  0
 15 14  1  0
 16 15  2  0
 17 18  2  0
 17 16  1  0
 18 13  1  0
 19  1  1  0
 20 19  1  0
 21 20  2  0
 22 21  1  0
 23 24  1  0
 23 22  2  0
 24 29  2  0
 25 26  2  0
 25 24  1  0
 26 27  1  0
 27 28  2  0
 28 30  1  0
 29 28  1  0
 29 20  1  0
  1 31  1  0
  1 32  1  0
  3 33  1  0
  4 34  1  0
  7 35  1  0
  8 36  1  0
 14 37  1  0
 15 38  1  0
 17 39  1  0
 19 40  1  0
 19 41  1  0
 21 42  1  0
 22 43  1  0
 23 44  1  0
 25 45  1  0
 26 46  1  0
 27 47  1  0
 30 48  1  0
M  ISO  8  31   8  32   8  33  14  34  14  35  14  36  14  37  14  38  14
M  ISO  8  39  14  40   8  41   8  42  14  43  14  44  14  45  14  46  14
M  ISO  2  47  14  48   3
M  END
>  <minimizedAffinity>  (1) 
-6.07388115

>  <minimizedRMSD>  (1) 
0.281425923

$$$$
