
     RDKit          3D

 43 46  0  0  1  0  0  0  0  0999 V2000
   37.9150   30.0230   39.2120 C   0  0  0  0  0  0  0  0  0  0  0  0
   38.6070   29.8440   40.4130 C   0  0  0  0  0  0  0  0  0  0  0  0
   39.7600   30.6160   40.6040 C   0  0  0  0  0  0  0  0  0  0  0  0
   40.1750   31.4840   39.6680 N   0  0  0  0  0  0  0  0  0  0  0  0
   39.4760   31.6300   38.5090 C   0  0  0  0  0  0  0  0  0  0  0  0
   38.3620   30.9080   38.2880 N   0  0  0  0  0  0  0  0  0  0  0  0
   36.7420   29.3830   38.7650 N   0  0  0  0  0  0  0  0  0  0  0  0
   35.8390   28.3400   39.1260 C   0  0  0  0  0  0  0  0  0  0  0  0
   34.5380   28.6720   38.3750 C   0  0  0  0  0  0  0  0  0  0  0  0
   35.0520   29.2060   37.0750 C   0  0  0  0  0  0  0  0  0  0  0  0
   36.2840   29.9430   37.4800 C   0  0  0  0  0  0  0  0  0  0  0  0
   38.2160   28.9300   41.4000 N   0  0  0  0  0  0  0  0  0  0  0  0
   37.0260   28.9720   42.2270 C   0  0  0  0  0  0  0  0  0  0  0  0
   37.4740   28.3310   43.5320 C   0  0  0  0  0  0  0  0  0  0  0  0
   38.8480   27.8450   43.3090 C   0  0  0  0  0  0  0  0  0  0  0  0
   38.8990   27.7620   41.8060 C   0  0  1  0  0  0  0  0  0  0  0  0
   38.1670   26.4650   41.5020 C   0  0  0  0  0  0  0  0  0  0  0  0
   37.3560   26.1160   40.4790 C   0  0  0  0  0  0  0  0  0  0  0  0
   36.7780   24.8830   40.3160 C   0  0  0  0  0  0  0  0  0  0  0  0
   37.0000   23.8920   41.2250 C   0  0  0  0  0  0  0  0  0  0  0  0
   37.8230   24.2250   42.2780 C   0  0  0  0  0  0  0  0  0  0  0  0
   38.3680   25.4440   42.3980 N   0  0  0  0  0  0  0  0  0  0  0  0
   40.3346   30.5093   41.5359 H   0  0  0  0  0  0  0  0  0  0  0  0
   39.8243   32.3433   37.7475 H   0  0  0  0  0  0  0  0  0  0  0  0
   36.2303   27.3617   38.8102 H   0  0  0  0  0  0  0  0  0  0  0  0
   35.6875   28.2789   40.2138 H   0  0  0  0  0  0  0  0  0  0  0  0
   33.9248   27.7717   38.2220 H   0  0  0  0  0  0  0  0  0  0  0  0
   33.8838   29.3736   38.9132 H   0  0  0  0  0  0  0  0  0  0  0  0
   34.3212   29.8832   36.6089 H   0  0  0  0  0  0  0  0  0  0  0  0
   35.2417   28.4211   36.3280 H   0  0  0  0  0  0  0  0  0  0  0  0
   37.0651   29.8146   36.7162 H   0  0  0  0  0  0  0  0  0  0  0  0
   36.0728   31.0176   37.5825 H   0  0  0  0  0  0  0  0  0  0  0  0
   36.6983   30.0091   42.3911 H   0  0  0  0  0  0  0  0  0  0  0  0
   36.1692   28.4557   41.7694 H   0  0  0  0  0  0  0  0  0  0  0  0
   37.4603   29.0727   44.3442 H   0  0  0  0  0  0  0  0  0  0  0  0
   36.8033   27.5090   43.8225 H   0  0  0  0  0  0  0  0  0  0  0  0
   39.5930   28.5550   43.6974 H   0  0  0  0  0  0  0  0  0  0  0  0
   39.0756   26.8967   43.8178 H   0  0  0  0  0  0  0  0  0  0  0  0
   39.8782   27.7339   41.3056 H   0  0  0  0  0  0  0  0  0  0  0  0
   37.1428   26.8806   39.7175 H   0  0  0  0  0  0  0  0  0  0  0  0
   36.1315   24.6928   39.4466 H   0  0  0  0  0  0  0  0  0  0  0  0
   36.5516   22.8926   41.1243 H   0  0  0  0  0  0  0  0  0  0  0  0
   38.0400   23.4668   43.0448 H   0  0  0  0  0  0  0  0  0  0  0  0
  1  2  1  0
  2  3  2  0
  2 12  1  0
  4  3  1  0
  5  4  2  0
  6  5  1  0
  6  1  2  0
  7  8  1  0
  7  1  1  0
  9  8  1  0
 10 11  1  0
 10  9  1  0
 11  7  1  0
 12 16  1  0
 12 13  1  0
 13 14  1  0
 15 14  1  0
 16 15  1  0
 17 16  1  0
 17 22  1  0
 18 17  2  0
 19 18  1  0
 19 20  2  0
 20 21  1  0
 21 22  2  0
  3 23  1  0
  5 24  1  0
  8 25  1  0
  8 26  1  0
  9 27  1  0
  9 28  1  0
 10 29  1  0
 10 30  1  0
 11 31  1  0
 11 32  1  0
 13 33  1  0
 13 34  1  0
 14 35  1  0
 14 36  1  0
 15 37  1  0
 15 38  1  0
 16 39  1  1
 18 40  1  0
 19 41  1  0
 20 42  1  0
 21 43  1  0
M  ISO  8  23  14  24  14  25  13  26  13  27  13  28  13  29  13  30  13
M  ISO  8  31  13  32  13  33  13  34  13  35  13  36  13  37  13  38  13
M  ISO  5  39  13  40  14  41  14  42  14  43  14
M  END
>  <minimizedAffinity>  (1) 
-5.45262623

>  <minimizedRMSD>  (1) 
3.38458109

$$$$
