
     RDKit          3D

 41 44  0  0  1  0  0  0  0  0999 V2000
   38.7180   35.6950   40.0170 C   0  0  0  0  0  0  0  0  0  0  0  0
   40.1030   35.7980   39.8770 C   0  0  0  0  0  0  0  0  0  0  0  0
   40.8110   34.5970   39.7660 C   0  0  0  0  0  0  0  0  0  0  0  0
   40.0820   33.4860   39.8070 N   0  0  0  0  0  0  0  0  0  0  0  0
   38.7740   33.3570   39.9390 C   0  0  0  0  0  0  0  0  0  0  0  0
   38.1370   34.5040   40.0410 N   0  0  0  0  0  0  0  0  0  0  0  0
   37.8820   32.2080   39.9970 C   0  0  0  0  0  0  0  0  0  0  0  0
   37.3690   31.7140   41.1300 N   0  0  0  0  0  0  0  0  0  0  0  0
   36.5550   30.6680   41.2150 C   0  0  0  0  0  0  0  0  0  0  0  0
   36.1810   30.0140   40.1420 N   0  0  0  0  0  0  0  0  0  0  0  0
   36.6220   30.3990   38.9260 C   0  0  0  0  0  0  0  0  0  0  0  0
   36.2370   29.7260   37.7900 C   0  0  0  0  0  0  0  0  0  0  0  0
   36.6620   30.0940   36.5640 C   0  0  0  0  0  0  0  0  0  0  0  0
   37.5320   31.2120   36.4650 C   0  0  0  0  0  0  0  0  0  0  0  0
   37.8790   31.8420   37.6400 C   0  0  0  0  0  0  0  0  0  0  0  0
   37.4690   31.4970   38.8940 C   0  0  0  0  0  0  0  0  0  0  0  0
   42.1310   34.5160   39.6250 O   0  0  0  0  0  0  0  0  0  0  0  0
   43.0150   33.9770   40.5990 C   0  0  2  0  0  0  0  0  0  0  0  0
   43.0690   34.9850   41.7720 C   0  0  0  0  0  0  0  0  0  0  0  0
   44.3920   33.8220   40.0140 C   0  0  0  0  0  0  0  0  0  0  0  0
   44.3450   33.1150   38.7080 C   0  0  0  0  0  0  0  0  0  0  0  0
   43.9610   31.7900   38.7640 C   0  0  0  0  0  0  0  0  0  0  0  0
   43.9730   31.2920   37.4590 C   0  0  0  0  0  0  0  0  0  0  0  0
   44.3640   32.3390   36.6830 N   0  0  0  0  0  0  0  0  0  0  0  0
   44.5820   33.4160   37.4370 N   0  0  0  0  0  0  0  0  0  0  0  0
   38.1069   36.6051   40.1077 H   0  0  0  0  0  0  0  0  0  0  0  0
   40.6113   36.7733   39.8551 H   0  0  0  0  0  0  0  0  0  0  0  0
   36.1890   30.3454   42.2009 H   0  0  0  0  0  0  0  0  0  0  0  0
   35.5626   28.8621   37.8841 H   0  0  0  0  0  0  0  0  0  0  0  0
   36.3437   29.5437   35.6663 H   0  0  0  0  0  0  0  0  0  0  0  0
   37.9121   31.5596   35.4930 H   0  0  0  0  0  0  0  0  0  0  0  0
   38.5526   32.7079   37.5587 H   0  0  0  0  0  0  0  0  0  0  0  0
   42.6654   32.9898   40.9355 H   0  0  0  0  0  0  0  0  0  0  0  0
   43.0397   34.4389   42.7264 H   0  0  0  0  0  0  0  0  0  0  0  0
   43.9997   35.5683   41.7117 H   0  0  0  0  0  0  0  0  0  0  0  0
   42.2060   35.6644   41.7117 H   0  0  0  0  0  0  0  0  0  0  0  0
   44.8334   34.8187   39.8667 H   0  0  0  0  0  0  0  0  0  0  0  0
   45.0011   33.2269   40.7103 H   0  0  0  0  0  0  0  0  0  0  0  0
   43.6941   31.2285   39.6715 H   0  0  0  0  0  0  0  0  0  0  0  0
   43.7208   30.2732   37.1297 H   0  0  0  0  0  0  0  0  0  0  0  0
   44.4755   32.3042   35.6596 H   0  0  0  0  0  0  0  0  0  0  0  0
  1  6  2  0
  2  1  1  0
  3  4  1  0
  3  2  2  0
  4  5  2  0
  5  7  1  0
  5  6  1  0
  7  8  2  0
  8  9  1  0
 10  9  2  0
 11 10  1  0
 12 11  2  0
 13 12  1  0
 14 13  2  0
 14 15  1  0
 15 16  2  0
 16 11  1  0
 16  7  1  0
 17  3  1  0
 17 18  1  0
 18 19  1  0
 20 18  1  0
 21 22  1  0
 21 20  1  0
 23 22  2  0
 24 25  1  0
 24 23  1  0
 25 21  2  0
  1 26  1  0
  2 27  1  0
  9 28  1  0
 12 29  1  0
 13 30  1  0
 14 31  1  0
 15 32  1  0
 18 33  1  1
 19 34  1  0
 19 35  1  0
 19 36  1  0
 20 37  1  0
 20 38  1  0
 22 39  1  0
 23 40  1  0
 24 41  1  0
M  ISO  8  26  14  27  14  28  14  29  14  30  14  31  14  32  14  33   8
M  ISO  8  34   8  35   8  36   8  37   8  38   8  39  14  40  14  41   9
M  END
>  <minimizedAffinity>  (1) 
-5.5819459

>  <minimizedRMSD>  (1) 
1.32743835

$$$$
