
     RDKit          3D

 22 23  0  0  0  0  0  0  0  0999 V2000
   37.9770   28.8905   43.3735 C   0  0  0  0  0  0  0  0  0  0  0  0
   38.0869   27.4696   43.3033 C   0  0  0  0  0  0  0  0  0  0  0  0
   37.4397   26.8102   42.2559 C   0  0  0  0  0  0  0  0  0  0  0  0
   36.7257   27.5735   41.3415 N   0  0  0  0  0  0  0  0  0  0  0  0
   36.6573   28.9102   41.4582 C   0  0  0  0  0  0  0  0  0  0  0  0
   37.2657   29.5583   42.4474 N   0  0  0  0  0  0  0  0  0  0  0  0
   37.5350   25.3319   42.1554 C   0  0  0  0  0  0  0  0  0  0  0  0
   37.6625   25.0560   40.8062 F   0  0  0  0  0  0  0  0  0  0  0  0
   38.6238   24.8342   42.7951 F   0  0  0  0  0  0  0  0  0  0  0  0
   36.3724   24.7206   42.6366 F   0  0  0  0  0  0  0  0  0  0  0  0
   38.4884   29.3703   44.1945 H   0  0  0  0  0  0  0  0  0  0  0  0
   38.6322   26.8650   43.9983 H   0  0  0  0  0  0  0  0  0  0  0  0
   35.8783   29.6032   40.4377 C   0  0  0  0  0  0  0  0  0  0  0  0
   35.2269   30.7961   40.7602 C   0  0  0  0  0  0  0  0  0  0  0  0
   34.4951   31.4402   39.7879 C   0  0  0  0  0  0  0  0  0  0  0  0
   34.4287   30.8784   38.5104 C   0  0  0  0  0  0  0  0  0  0  0  0
   33.8716   31.3356   37.7073 H   0  0  0  0  0  0  0  0  0  0  0  0
   35.0868   29.6880   38.2129 C   0  0  0  0  0  0  0  0  0  0  0  0
   35.8040   29.0735   39.1981 N   0  0  0  0  0  0  0  0  0  0  0  0
   35.2712   31.2414   41.7475 H   0  0  0  0  0  0  0  0  0  0  0  0
   33.9700   32.3764   39.9992 H   0  0  0  0  0  0  0  0  0  0  0  0
   35.0602   29.2218   37.2393 H   0  0  0  0  0  0  0  0  0  0  0  0
  2  1  2  0
  3  2  1  0
  4  5  1  0
  4  3  2  0
  5  6  2  0
  6  1  1  0
  7  3  1  0
  7 10  1  0
  7  9  1  0
  8  7  1  0
  1 11  1  0
  2 12  1  0
 13 14  2  0
 14 15  1  0
 15 16  2  0
 16 17  1  0
 16 18  1  0
 18 19  2  0
 19 13  1  0
 14 20  1  0
 15 21  1  0
 18 22  1  0
  5 13  1  0
M  ISO  3  11  14  12  14  17  16
M  END
>  <DihAtoms>  (1) 
3,4,12,13

>  <DihDeg>  (1) 
-179.9998529995102

$$$$
