
     RDKit          3D

 24 25  0  0  0  0  0  0  0  0999 V2000
   37.7540   28.3620   43.6370 O   0  0  0  0  0  0  0  0  0  0  0  0
   40.0880   25.5500   43.6750 C   0  0  0  0  0  0  0  0  0  0  0  0
   39.4210   24.6810   42.7880 C   0  0  0  0  0  0  0  0  0  0  0  0
   38.2100   25.1330   42.2430 C   0  0  0  0  0  0  0  0  0  0  0  0
   37.7610   26.3740   42.6020 N   0  0  0  0  0  0  0  0  0  0  0  0
   38.4410   27.1610   43.4530 C   0  0  0  0  0  0  0  0  0  0  0  0
   39.6080   26.7660   44.0010 N   0  0  0  0  0  0  0  0  0  0  0  0
   38.3770   31.4820   40.9580 C   0  0  0  0  0  0  0  0  0  0  0  0
   39.3210   31.0790   41.8730 C   0  0  0  0  0  0  0  0  0  0  0  0
   39.0800   30.0290   42.7570 C   0  0  0  0  0  0  0  0  0  0  0  0
   37.8430   29.3850   42.6930 C   0  0  0  0  0  0  0  0  0  0  0  0
   36.8830   29.7770   41.7810 C   0  0  0  0  0  0  0  0  0  0  0  0
   37.1650   30.8230   40.9230 C   0  0  0  0  0  0  0  0  0  0  0  0
   38.7410   32.8010   39.8820 S   0  0  0  0  0  0  0  0  0  0  0  0
   39.1000   32.2810   38.5010 O   0  0  0  0  0  0  0  0  0  0  0  0
   37.5420   33.6790   39.7570 O   0  0  0  0  0  0  0  0  0  0  0  0
   41.0393   25.2220   44.1192 H   0  0  0  0  0  0  0  0  0  0  0  0
   39.8317   23.6926   42.5345 H   0  0  0  0  0  0  0  0  0  0  0  0
   37.6364   24.5056   41.5450 H   0  0  0  0  0  0  0  0  0  0  0  0
   40.2902   31.5981   41.9081 H   0  0  0  0  0  0  0  0  0  0  0  0
   39.8432   29.7163   43.4849 H   0  0  0  0  0  0  0  0  0  0  0  0
   35.9102   29.2653   41.7382 H   0  0  0  0  0  0  0  0  0  0  0  0
   36.4042   31.1383   40.1938 H   0  0  0  0  0  0  0  0  0  0  0  0
   39.8022   33.4997   40.3944 H   0  0  0  0  0  0  0  0  0  0  0  0
  2  7  2  0
  3  2  1  0
  4  5  1  0
  4  3  2  0
  5  6  2  0
  6  1  1  0
  6  7  1  0
  8  9  2  0
  9 10  1  0
 11 10  2  0
 11  1  1  0
 12 11  1  0
 13  8  1  0
 13 12  2  0
 14  8  1  0
 15 14  2  0
 16 14  2  0
  2 17  1  0
  3 18  1  0
  4 19  1  0
  9 20  1  0
 10 21  1  0
 12 22  1  0
 13 23  1  0
 14 24  1  0
M  ISO  8  17  14  18  14  19  14  20  14  21  14  22  14  23  14  24  11
M  END
>  <minimizedAffinity>  (1) 
-4.52352238

>  <minimizedRMSD>  (1) 
3.72377467

$$$$
