
     RDKit          3D

 22 23  0  0  0  0  0  0  0  0999 V2000
   37.9770   28.8905   43.3735 C   0  0  0  0  0  0  0  0  0  0  0  0
   38.0869   27.4696   43.3033 C   0  0  0  0  0  0  0  0  0  0  0  0
   37.4397   26.8102   42.2559 C   0  0  0  0  0  0  0  0  0  0  0  0
   36.7257   27.5735   41.3415 N   0  0  0  0  0  0  0  0  0  0  0  0
   36.6573   28.9102   41.4582 C   0  0  0  0  0  0  0  0  0  0  0  0
   37.2657   29.5583   42.4474 N   0  0  0  0  0  0  0  0  0  0  0  0
   37.5350   25.3319   42.1554 C   0  0  0  0  0  0  0  0  0  0  0  0
   37.6625   25.0560   40.8062 F   0  0  0  0  0  0  0  0  0  0  0  0
   38.6238   24.8342   42.7951 F   0  0  0  0  0  0  0  0  0  0  0  0
   36.3724   24.7206   42.6366 F   0  0  0  0  0  0  0  0  0  0  0  0
   38.4884   29.3703   44.1945 H   0  0  0  0  0  0  0  0  0  0  0  0
   38.6322   26.8650   43.9983 H   0  0  0  0  0  0  0  0  0  0  0  0
   35.8783   29.6032   40.4377 C   0  0  0  0  0  0  0  0  0  0  0  0
   36.5378   30.3128   39.4313 C   0  0  0  0  0  0  0  0  0  0  0  0
   35.7909   30.9623   38.4742 C   0  0  0  0  0  0  0  0  0  0  0  0
   34.3973   30.8897   38.5420 C   0  0  0  0  0  0  0  0  0  0  0  0
   33.7585   31.3771   37.8219 H   0  0  0  0  0  0  0  0  0  0  0  0
   33.7626   30.1759   39.5551 C   0  0  0  0  0  0  0  0  0  0  0  0
   34.5305   29.5429   40.4890 N   0  0  0  0  0  0  0  0  0  0  0  0
   37.6181   30.3763   39.3684 H   0  0  0  0  0  0  0  0  0  0  0  0
   36.2683   31.5290   37.6693 H   0  0  0  0  0  0  0  0  0  0  0  0
   32.6893   30.0956   39.6425 H   0  0  0  0  0  0  0  0  0  0  0  0
  2  1  2  0
  3  2  1  0
  4  5  1  0
  4  3  2  0
  5  6  2  0
  6  1  1  0
  7  3  1  0
  7 10  1  0
  7  9  1  0
  8  7  1  0
  1 11  1  0
  2 12  1  0
 13 14  2  0
 14 15  1  0
 15 16  2  0
 16 17  1  0
 16 18  1  0
 18 19  2  0
 19 13  1  0
 14 20  1  0
 15 21  1  0
 18 22  1  0
  5 13  1  0
M  ISO  3  11  14  12  14  17  16
M  END
>  <DihAtoms>  (1) 
3,4,12,13

>  <DihDeg>  (1) 
-179.9998529995102

$$$$
