
     RDKit          3D

 36 39  0  0  0  0  0  0  0  0999 V2000
   38.1580   28.3040   43.2930 C   0  0  0  0  0  0  0  0  0  0  0  0
   37.9470   27.0700   42.6160 C   0  0  0  0  0  0  0  0  0  0  0  0
   37.1300   27.0990   41.4890 C   0  0  0  0  0  0  0  0  0  0  0  0
   36.5940   28.2800   41.1140 N   0  0  0  0  0  0  0  0  0  0  0  0
   36.8040   29.4160   41.7590 C   0  0  0  0  0  0  0  0  0  0  0  0
   37.5870   29.4350   42.8520 N   0  0  0  0  0  0  0  0  0  0  0  0
   36.9580   25.8040   40.8480 C   0  0  0  0  0  0  0  0  0  0  0  0
   36.9280   24.6370   41.7580 C   0  0  0  0  0  0  0  0  0  0  0  0
   37.9410   23.5730   41.4540 C   0  0  0  0  0  0  0  0  0  0  0  0
   37.8240   22.6010   40.3900 C   0  0  0  0  0  0  0  0  0  0  0  0
   38.8430   23.7560   40.2630 C   0  0  0  0  0  0  0  0  0  0  0  0
   36.1650   30.4760   41.2000 O   0  0  0  0  0  0  0  0  0  0  0  0
   36.8540   31.3490   40.3600 C   0  0  0  0  0  0  0  0  0  0  0  0
   36.8350   31.4780   39.0030 N   0  0  0  0  0  0  0  0  0  0  0  0
   37.6570   32.4480   38.6610 O   0  0  0  0  0  0  0  0  0  0  0  0
   38.1840   32.9190   39.7720 C   0  0  0  0  0  0  0  0  0  0  0  0
   37.7070   32.2620   40.8220 N   0  0  0  0  0  0  0  0  0  0  0  0
   39.1510   34.0110   39.7980 C   0  0  0  0  0  0  0  0  0  0  0  0
   38.9250   35.3110   40.2180 C   0  0  0  0  0  0  0  0  0  0  0  0
   40.0660   36.0510   40.1000 C   0  0  0  0  0  0  0  0  0  0  0  0
   41.0030   35.1520   39.5910 C   0  0  0  0  0  0  0  0  0  0  0  0
   40.4090   34.0040   39.4440 O   0  0  0  0  0  0  0  0  0  0  0  0
   38.7967   28.3307   44.1882 H   0  0  0  0  0  0  0  0  0  0  0  0
   38.4086   26.1354   42.9673 H   0  0  0  0  0  0  0  0  0  0  0  0
   36.0083   25.8248   40.2934 H   0  0  0  0  0  0  0  0  0  0  0  0
   37.8435   25.6647   40.2104 H   0  0  0  0  0  0  0  0  0  0  0  0
   37.1075   24.9972   42.7817 H   0  0  0  0  0  0  0  0  0  0  0  0
   35.9408   24.1695   41.6278 H   0  0  0  0  0  0  0  0  0  0  0  0
   38.0695   23.4432   42.5387 H   0  0  0  0  0  0  0  0  0  0  0  0
   38.1778   21.5712   40.5457 H   0  0  0  0  0  0  0  0  0  0  0  0
   36.9967   22.2244   39.7705 H   0  0  0  0  0  0  0  0  0  0  0  0
   39.9225   23.5608   40.3438 H   0  0  0  0  0  0  0  0  0  0  0  0
   39.0550   24.5563   39.5388 H   0  0  0  0  0  0  0  0  0  0  0  0
   37.9639   35.6926   40.5929 H   0  0  0  0  0  0  0  0  0  0  0  0
   40.2127   37.1123   40.3491 H   0  0  0  0  0  0  0  0  0  0  0  0
   42.0545   35.3737   39.3562 H   0  0  0  0  0  0  0  0  0  0  0  0
  2  1  2  0
  3  2  1  0
  4  3  2  0
  4  5  1  0
  5  6  2  0
  6  1  1  0
  7  3  1  0
  7  8  1  0
  9  8  1  0
 10  9  1  0
 11 10  1  0
 11  9  1  0
 12  5  1  0
 13 17  1  0
 13 12  1  0
 14 13  2  0
 15 14  1  0
 15 16  1  0
 16 18  1  0
 16 17  2  0
 18 19  2  0
 20 19  1  0
 21 20  2  0
 22 21  1  0
 22 18  1  0
  1 23  1  0
  2 24  1  0
  7 25  1  0
  7 26  1  0
  8 27  1  0
  8 28  1  0
  9 29  1  0
 10 30  1  0
 10 31  1  0
 11 32  1  0
 11 33  1  0
 19 34  1  0
 20 35  1  0
 21 36  1  0
M  ISO  8  23  14  24  14  25   8  26   8  27   8  28   8  29  13  30  13
M  ISO  6  31  13  32  13  33  13  34  14  35  14  36  14
M  END
>  <minimizedAffinity>  (1) 
-5.67681885

>  <minimizedRMSD>  (1) 
0.648529768

$$$$
