
     RDKit          3D

 46 48  0  0  1  0  0  0  0  0999 V2000
   37.7890   27.9210   41.4050 C   0  0  1  0  0  0  0  0  0  0  0  0
   37.3040   30.4380   38.6480 C   0  0  0  0  0  0  0  0  0  0  0  0
   37.6420   29.2440   39.2990 C   0  0  0  0  0  0  0  0  0  0  0  0
   37.3990   29.1420   40.6630 C   0  0  0  0  0  0  0  0  0  0  0  0
   36.8360   30.2210   41.2880 N   0  0  0  0  0  0  0  0  0  0  0  0
   36.5250   31.3450   40.6370 C   0  0  0  0  0  0  0  0  0  0  0  0
   36.7580   31.4540   39.3210 N   0  0  0  0  0  0  0  0  0  0  0  0
   38.4920   26.9750   40.5120 C   0  0  0  0  0  0  0  0  0  0  0  0
   38.4740   25.6000   41.0050 C   0  0  2  0  0  0  0  0  0  0  0  0
   39.3330   24.6810   40.1800 C   0  0  0  0  0  0  0  0  0  0  0  0
   38.6430   23.3240   40.2790 C   0  0  0  0  0  0  0  0  0  0  0  0
   37.3600   23.5620   41.0780 C   0  0  0  0  0  0  0  0  0  0  0  0
   37.1010   25.0280   40.8520 C   0  0  2  0  0  0  0  0  0  0  0  0
   36.5300   25.1780   39.4860 C   0  0  0  0  0  0  0  0  0  0  0  0
   35.6450   24.6200   38.8190 O   0  0  0  0  0  0  0  0  0  0  0  0
   38.5600   28.2010   42.6850 C   0  0  1  0  0  0  0  0  0  0  0  0
   39.8750   28.7340   42.5520 C   0  0  0  0  0  0  0  0  0  0  0  0
   40.2510   29.6830   41.4660 C   0  0  0  0  0  0  0  0  0  0  0  0
   40.1600   30.2530   42.8040 C   0  0  0  0  0  0  0  0  0  0  0  0
   37.7150   28.6900   43.6820 O   0  0  0  0  0  0  0  0  0  0  0  0
   36.7340   28.0400   44.2980 C   0  0  0  0  0  0  0  0  0  0  0  0
   36.3570   28.4900   45.5790 N   0  0  0  0  0  0  0  0  0  0  0  0
   36.1880   27.0750   43.7200 O   0  0  0  0  0  0  0  0  0  0  0  0
   36.8582   27.4437   41.7453 H   0  0  0  0  0  0  0  0  0  0  0  0
   37.4908   30.5397   37.5688 H   0  0  0  0  0  0  0  0  0  0  0  0
   38.0893   28.4069   38.7429 H   0  0  0  0  0  0  0  0  0  0  0  0
   36.0749   32.1866   41.1839 H   0  0  0  0  0  0  0  0  0  0  0  0
   39.5389   27.2981   40.4143 H   0  0  0  0  0  0  0  0  0  0  0  0
   37.9662   26.9838   39.5459 H   0  0  0  0  0  0  0  0  0  0  0  0
   38.8266   25.6550   42.0455 H   0  0  0  0  0  0  0  0  0  0  0  0
   40.3527   24.6297   40.5894 H   0  0  0  0  0  0  0  0  0  0  0  0
   39.4347   25.0242   39.1399 H   0  0  0  0  0  0  0  0  0  0  0  0
   38.4034   22.9427   39.2754 H   0  0  0  0  0  0  0  0  0  0  0  0
   39.2885   22.5777   40.7652 H   0  0  0  0  0  0  0  0  0  0  0  0
   36.5324   22.9483   40.6927 H   0  0  0  0  0  0  0  0  0  0  0  0
   37.4492   23.2917   42.1405 H   0  0  0  0  0  0  0  0  0  0  0  0
   36.3863   25.5239   41.5252 H   0  0  0  0  0  0  0  0  0  0  0  0
   37.0160   25.9899   38.9251 H   0  0  0  0  0  0  0  0  0  0  0  0
   38.9005   27.2328   43.0807 H   0  0  0  0  0  0  0  0  0  0  0  0
   40.2565   27.7711   42.9225 H   0  0  0  0  0  0  0  0  0  0  0  0
   41.2368   29.5893   40.9869 H   0  0  0  0  0  0  0  0  0  0  0  0
   39.7888   29.9459   40.5031 H   0  0  0  0  0  0  0  0  0  0  0  0
   39.3358   30.9352   43.0595 H   0  0  0  0  0  0  0  0  0  0  0  0
   40.8322   30.8263   43.4593 H   0  0  0  0  0  0  0  0  0  0  0  0
   35.6006   28.0132   46.0904 H   0  0  0  0  0  0  0  0  0  0  0  0
   36.8378   29.2957   46.0040 H   0  0  0  0  0  0  0  0  0  0  0  0
  1 16  1  0
  2  3  2  0
  2  7  1  0
  3  4  1  0
  4  5  2  0
  4  1  1  0
  6  5  1  0
  7  6  2  0
  8  9  1  0
  8  1  1  0
 10 11  1  0
 10  9  1  0
 11 12  1  0
 13  9  1  0
 13 12  1  0
 14 13  1  0
 15 14  2  0
 16 20  1  0
 17 16  1  0
 17 19  1  0
 18 17  1  0
 18 19  1  0
 20 21  1  0
 21 22  1  0
 23 21  2  0
  1 24  1  1
  2 25  1  0
  3 26  1  0
  6 27  1  0
  8 28  1  0
  8 29  1  0
  9 30  1  1
 10 31  1  0
 10 32  1  0
 11 33  1  0
 11 34  1  0
 12 35  1  0
 12 36  1  0
 13 37  1  1
 14 38  1  0
 16 39  1  1
 17 40  1  0
 18 41  1  0
 18 42  1  0
 19 43  1  0
 19 44  1  0
 22 45  1  0
 22 46  1  0
M  ISO  8  24   8  25  14  26  14  27  14  28   8  29   8  30  13  31  13
M  ISO  8  32  13  33  13  34  13  35  13  36  13  37  13  38   6  39   8
M  ISO  5  40  13  41  13  42  13  43  13  44  13
M  END
>  <minimizedAffinity>  (1) 
-4.64918995

>  <minimizedRMSD>  (1) 
0.586058617

$$$$
