
     RDKit          3D

 19 20  0  0  0  0  0  0  0  0999 V2000
   37.9692   28.8876   43.3724 C   0  0  0  0  0  0  0  0  0  0  0  0
   38.0845   27.4685   43.3108 C   0  0  0  0  0  0  0  0  0  0  0  0
   37.4371   26.8133   42.2523 C   0  0  0  0  0  0  0  0  0  0  0  0
   36.7316   27.5741   41.3390 N   0  0  0  0  0  0  0  0  0  0  0  0
   36.6609   28.9106   41.4527 C   0  0  0  0  0  0  0  0  0  0  0  0
   37.2699   29.5527   42.4526 N   0  0  0  0  0  0  0  0  0  0  0  0
   37.5305   25.3360   42.1490 C   0  0  0  0  0  0  0  0  0  0  0  0
   37.6541   25.0525   40.8114 F   0  0  0  0  0  0  0  0  0  0  0  0
   38.6312   24.8392   42.7910 F   0  0  0  0  0  0  0  0  0  0  0  0
   36.3769   24.7205   42.6417 F   0  0  0  0  0  0  0  0  0  0  0  0
   38.4548   29.4239   44.1737 H   0  0  0  0  0  0  0  0  0  0  0  0
   38.6393   26.9153   44.0363 H   0  0  0  0  0  0  0  0  0  0  0  0
   35.8566   29.5212   40.3697 C   0  0  0  0  0  0  0  0  0  0  0  0
   34.8421   28.8878   39.6823 C   0  0  0  0  0  0  0  0  0  0  0  0
   34.2898   30.1688   38.5221 S   0  0  0  0  0  0  0  0  0  0  0  0
   35.5933   31.4035   39.2017 C   0  0  0  0  0  0  0  0  0  0  0  0
   35.6798   32.4138   38.7980 H   0  0  0  0  0  0  0  0  0  0  0  0
   36.2314   30.7626   40.1365 N   0  0  0  0  0  0  0  0  0  0  0  0
   34.5542   27.8939   39.8810 H   0  0  0  0  0  0  0  0  0  0  0  0
  2  1  2  0
  3  2  1  0
  4  5  1  0
  4  3  2  0
  5  6  2  0
  6  1  1  0
  7  3  1  0
  7 10  1  0
  7  9  1  0
  8  7  1  0
  1 11  1  0
  2 12  1  0
 13 14  2  0
 14 15  1  0
 15 16  1  0
 16 17  1  0
 16 18  2  0
 18 13  1  0
 14 19  1  0
  5 13  1  0
M  ISO  3  11  14  12  14  17  14
M  END
>  <DihAtoms>  (1) 
3,4,12,13

>  <DihDeg>  (1) 
-78.25242421137109

$$$$
