
     RDKit          3D

 28 30  0  0  0  0  0  0  0  0999 V2000
   37.8200   30.4710   40.9930 C   0  0  0  0  0  0  0  0  0  0  0  0
   38.4740   29.8600   42.0610 C   0  0  0  0  0  0  0  0  0  0  0  0
   39.5980   30.5430   42.6090 C   0  0  0  0  0  0  0  0  0  0  0  0
   39.9820   31.7340   42.0810 N   0  0  0  0  0  0  0  0  0  0  0  0
   39.3210   32.2820   41.0520 C   0  0  0  0  0  0  0  0  0  0  0  0
   38.2410   31.6480   40.5100 N   0  0  0  0  0  0  0  0  0  0  0  0
   38.1250   28.6340   42.6190 N   0  0  0  0  0  0  0  0  0  0  0  0
   38.3850   27.3060   42.0760 C   0  0  0  0  0  0  0  0  0  0  0  0
   37.1950   26.4760   42.5000 C   0  0  0  0  0  0  0  0  0  0  0  0
   36.4140   27.3650   43.4390 C   0  0  0  0  0  0  0  0  0  0  0  0
   37.4540   28.3700   43.8430 C   0  0  0  0  0  0  0  0  0  0  0  0
   36.6700   29.9310   40.2910 C   0  0  0  0  0  0  0  0  0  0  0  0
   36.9250   29.8410   38.7420 C   0  0  0  0  0  0  0  0  0  0  0  0
   35.2820   29.1590   38.1700 S   0  0  0  0  0  0  0  0  0  0  0  0
   34.6020   29.1170   39.9420 C   0  0  0  0  0  0  0  0  0  0  0  0
   35.4550   29.5170   40.6190 N   0  0  0  0  0  0  0  0  0  0  0  0
   40.1514   30.1084   43.4545 H   0  0  0  0  0  0  0  0  0  0  0  0
   39.6508   33.2480   40.6421 H   0  0  0  0  0  0  0  0  0  0  0  0
   39.3147   26.8919   42.4933 H   0  0  0  0  0  0  0  0  0  0  0  0
   38.5124   27.3216   40.9835 H   0  0  0  0  0  0  0  0  0  0  0  0
   36.5833   26.2030   41.6275 H   0  0  0  0  0  0  0  0  0  0  0  0
   37.4980   25.5333   42.9792 H   0  0  0  0  0  0  0  0  0  0  0  0
   35.5692   27.8468   42.9251 H   0  0  0  0  0  0  0  0  0  0  0  0
   35.9583   26.8296   44.2850 H   0  0  0  0  0  0  0  0  0  0  0  0
   38.1429   27.9494   44.5903 H   0  0  0  0  0  0  0  0  0  0  0  0
   37.0316   29.2707   44.3124 H   0  0  0  0  0  0  0  0  0  0  0  0
   37.8195   30.1053   38.1588 H   0  0  0  0  0  0  0  0  0  0  0  0
   33.6040   28.7821   40.2613 H   0  0  0  0  0  0  0  0  0  0  0  0
  1  2  1  0
  2  3  2  0
  2  7  1  0
  4  3  1  0
  5  4  2  0
  6  1  2  0
  6  5  1  0
  7 11  1  0
  8  9  1  0
  8  7  1  0
  9 10  1  0
 10 11  1  0
 12 16  1  0
 12  1  1  0
 13 12  2  0
 14 13  1  0
 14 15  1  0
 15 16  2  0
  3 17  1  0
  5 18  1  0
  8 19  1  0
  8 20  1  0
  9 21  1  0
  9 22  1  0
 10 23  1  0
 10 24  1  0
 11 25  1  0
 11 26  1  0
 13 27  1  0
 15 28  1  0
M  ISO  8  17  14  18  14  19  13  20  13  21  13  22  13  23  13  24  13
M  ISO  4  25  13  26  13  27  14  28  14
M  END
>  <minimizedAffinity>  (1) 
-4.39996862

>  <minimizedRMSD>  (1) 
4.17394543

$$$$
