
     RDKit          3D

 46 50  0  0  0  0  0  0  0  0999 V2000
   35.9980   30.0020   40.9370 C   0  0  0  0  0  0  0  0  0  0  0  0
   38.4690   28.1440   42.6060 C   0  0  0  0  0  0  0  0  0  0  0  0
   37.3950   27.3000   42.7060 C   0  0  0  0  0  0  0  0  0  0  0  0
   36.3280   27.9360   42.0660 C   0  0  0  0  0  0  0  0  0  0  0  0
   36.8430   29.0970   41.6390 N   0  0  0  0  0  0  0  0  0  0  0  0
   38.0910   29.2610   41.9340 N   0  0  0  0  0  0  0  0  0  0  0  0
   41.3830   26.5530   44.3030 C   0  0  0  0  0  0  0  0  0  0  0  0
   40.0850   26.7280   43.8140 C   0  0  0  0  0  0  0  0  0  0  0  0
   39.7990   27.9160   43.1260 C   0  0  0  0  0  0  0  0  0  0  0  0
   40.7680   28.8410   42.9590 N   0  0  0  0  0  0  0  0  0  0  0  0
   42.0270   28.6260   43.4560 C   0  0  0  0  0  0  0  0  0  0  0  0
   42.3170   27.4890   44.1200 N   0  0  0  0  0  0  0  0  0  0  0  0
   42.9950   29.6900   43.2190 C   0  0  0  0  0  0  0  0  0  0  0  0
   42.5290   31.0970   43.3450 C   0  0  0  0  0  0  0  0  0  0  0  0
   44.0240   32.0760   42.9750 S   0  0  0  0  0  0  0  0  0  0  0  0
   45.0230   30.4800   42.7120 C   0  0  0  0  0  0  0  0  0  0  0  0
   44.2730   29.6440   42.8960 N   0  0  0  0  0  0  0  0  0  0  0  0
   35.1440   29.4020   39.8660 C   0  0  0  0  0  0  0  0  0  0  0  0
   35.7710   29.3690   38.5280 C   0  0  0  0  0  0  0  0  0  0  0  0
   37.0960   29.5090   38.2230 C   0  0  0  0  0  0  0  0  0  0  0  0
   37.6310   29.5380   36.9650 C   0  0  0  0  0  0  0  0  0  0  0  0
   36.8000   29.4200   35.8770 C   0  0  0  0  0  0  0  0  0  0  0  0
   35.4440   29.2740   36.1170 C   0  0  0  0  0  0  0  0  0  0  0  0
   34.6650   29.1650   34.9900 C   0  0  0  0  0  0  0  0  0  0  0  0
   33.3110   29.0190   35.1180 C   0  0  0  0  0  0  0  0  0  0  0  0
   32.7510   28.9780   36.3760 C   0  0  0  0  0  0  0  0  0  0  0  0
   33.5830   29.0910   37.4550 C   0  0  0  0  0  0  0  0  0  0  0  0
   34.9330   29.2460   37.4140 C   0  0  0  0  0  0  0  0  0  0  0  0
   32.9600   29.0250   38.6950 O   0  0  0  0  0  0  0  0  0  0  0  0
   35.3321   30.4794   41.6709 H   0  0  0  0  0  0  0  0  0  0  0  0
   36.6735   30.7010   40.4221 H   0  0  0  0  0  0  0  0  0  0  0  0
   37.3761   26.3146   43.1944 H   0  0  0  0  0  0  0  0  0  0  0  0
   35.2992   27.5674   41.9411 H   0  0  0  0  0  0  0  0  0  0  0  0
   41.6382   25.6311   44.8461 H   0  0  0  0  0  0  0  0  0  0  0  0
   39.3131   25.9588   43.9641 H   0  0  0  0  0  0  0  0  0  0  0  0
   41.5228   31.4608   43.6004 H   0  0  0  0  0  0  0  0  0  0  0  0
   46.0854   30.3859   42.4429 H   0  0  0  0  0  0  0  0  0  0  0  0
   34.9024   28.3693   40.1576 H   0  0  0  0  0  0  0  0  0  0  0  0
   34.2549   30.0439   39.7789 H   0  0  0  0  0  0  0  0  0  0  0  0
   37.7955   29.6073   39.0662 H   0  0  0  0  0  0  0  0  0  0  0  0
   38.7158   29.6546   36.8253 H   0  0  0  0  0  0  0  0  0  0  0  0
   37.1978   29.4408   34.8517 H   0  0  0  0  0  0  0  0  0  0  0  0
   35.1271   29.1950   33.9922 H   0  0  0  0  0  0  0  0  0  0  0  0
   32.6750   28.9351   34.2244 H   0  0  0  0  0  0  0  0  0  0  0  0
   31.6657   28.8578   36.5085 H   0  0  0  0  0  0  0  0  0  0  0  0
   33.4971   29.0991   39.5234 H   0  0  0  0  0  0  0  0  0  0  0  0
  1  5  1  0
  2  3  1  0
  2  9  1  0
  4  3  2  0
  5  6  1  0
  5  4  1  0
  6  2  2  0
  8  7  2  0
  9  8  1  0
 10  9  2  0
 10 11  1  0
 11 12  2  0
 12  7  1  0
 13 14  2  0
 13 11  1  0
 15 14  1  0
 16 17  2  0
 16 15  1  0
 17 13  1  0
 18  1  1  0
 19 18  1  0
 20 19  2  0
 21 20  1  0
 22 23  1  0
 22 21  2  0
 23 28  2  0
 24 25  2  0
 24 23  1  0
 25 26  1  0
 26 27  2  0
 27 29  1  0
 28 27  1  0
 28 19  1  0
  1 30  1  0
  1 31  1  0
  3 32  1  0
  4 33  1  0
  7 34  1  0
  8 35  1  0
 14 36  1  0
 16 37  1  0
 18 38  1  0
 18 39  1  0
 20 40  1  0
 21 41  1  0
 22 42  1  0
 24 43  1  0
 25 44  1  0
 26 45  1  0
 29 46  1  0
M  ISO  8  30   8  31   8  32  14  33  14  34  14  35  14  36  14  37  14
M  ISO  8  38   8  39   8  40  14  41  14  42  14  43  14  44  14  45  14
M  ISO  1  46   3
M  END
>  <minimizedAffinity>  (1) 
-5.97012568

>  <minimizedRMSD>  (1) 
0.740683138

$$$$
