
     RDKit          3D

 41 45  0  0  0  0  0  0  0  0999 V2000
   39.7300   32.4330   40.9590 C   0  0  0  0  0  0  0  0  0  0  0  0
   40.8390   31.8760   41.6360 C   0  0  0  0  0  0  0  0  0  0  0  0
   40.8470   30.5980   42.1650 C   0  0  0  0  0  0  0  0  0  0  0  0
   39.7100   29.8160   42.0280 C   0  0  0  0  0  0  0  0  0  0  0  0
   38.6200   30.3090   41.3850 C   0  0  0  0  0  0  0  0  0  0  0  0
   37.5340   29.5070   41.2700 C   0  0  0  0  0  0  0  0  0  0  0  0
   36.3710   29.9630   40.6030 C   0  0  0  0  0  0  0  0  0  0  0  0
   36.4350   31.2680   40.0900 C   0  0  0  0  0  0  0  0  0  0  0  0
   37.5650   32.0200   40.2440 C   0  0  0  0  0  0  0  0  0  0  0  0
   38.6930   31.5720   40.8940 C   0  0  0  0  0  0  0  0  0  0  0  0
   39.9050   33.7680   40.4940 C   0  0  0  0  0  0  0  0  0  0  0  0
   39.1000   34.9130   40.6840 C   0  0  0  0  0  0  0  0  0  0  0  0
   39.4420   36.1570   40.1650 C   0  0  0  0  0  0  0  0  0  0  0  0
   40.6150   36.2090   39.4520 N   0  0  0  0  0  0  0  0  0  0  0  0
   41.3750   35.1480   39.2680 C   0  0  0  0  0  0  0  0  0  0  0  0
   41.0320   33.9620   39.7730 N   0  0  0  0  0  0  0  0  0  0  0  0
   37.3250   28.1630   41.7500 C   0  0  0  0  0  0  0  0  0  0  0  0
   36.7500   27.7420   42.9170 C   0  0  0  0  0  0  0  0  0  0  0  0
   36.5550   26.4400   43.2910 C   0  0  0  0  0  0  0  0  0  0  0  0
   36.9440   25.4280   42.4810 C   0  0  0  0  0  0  0  0  0  0  0  0
   37.5290   25.8410   41.2930 C   0  0  0  0  0  0  0  0  0  0  0  0
   37.6970   27.1380   40.9750 N   0  0  0  0  0  0  0  0  0  0  0  0
   38.0040   24.8410   40.3060 C   0  0  0  0  0  0  0  0  0  0  0  0
   38.0570   23.4190   40.6930 C   0  0  0  0  0  0  0  0  0  0  0  0
   38.6720   22.6080   39.2310 S   0  0  0  0  0  0  0  0  0  0  0  0
   38.7840   24.2570   38.2910 C   0  0  0  0  0  0  0  0  0  0  0  0
   38.4150   25.0110   39.0640 N   0  0  0  0  0  0  0  0  0  0  0  0
   41.7437   32.4917   41.7480 H   0  0  0  0  0  0  0  0  0  0  0  0
   41.7363   30.2102   42.6833 H   0  0  0  0  0  0  0  0  0  0  0  0
   39.6909   28.7963   42.4401 H   0  0  0  0  0  0  0  0  0  0  0  0
   35.4747   29.3347   40.4939 H   0  0  0  0  0  0  0  0  0  0  0  0
   35.5680   31.6886   39.5596 H   0  0  0  0  0  0  0  0  0  0  0  0
   37.5742   33.0376   39.8265 H   0  0  0  0  0  0  0  0  0  0  0  0
   38.1696   34.8173   41.2630 H   0  0  0  0  0  0  0  0  0  0  0  0
   38.8114   37.0455   40.3163 H   0  0  0  0  0  0  0  0  0  0  0  0
   42.3058   35.2419   38.6895 H   0  0  0  0  0  0  0  0  0  0  0  0
   36.4139   28.5199   43.6184 H   0  0  0  0  0  0  0  0  0  0  0  0
   36.0788   26.2145   44.2566 H   0  0  0  0  0  0  0  0  0  0  0  0
   36.8079   24.3682   42.7424 H   0  0  0  0  0  0  0  0  0  0  0  0
   37.7818   22.9660   41.6569 H   0  0  0  0  0  0  0  0  0  0  0  0
   39.1205   24.4388   37.2596 H   0  0  0  0  0  0  0  0  0  0  0  0
  1  2  2  0
  2  3  1  0
  4  3  2  0
  5  4  1  0
  6  5  2  0
  6 17  1  0
  7  6  1  0
  8  9  1  0
  8  7  2  0
  9 10  2  0
 10  1  1  0
 10  5  1  0
 11 12  2  0
 11  1  1  0
 13 12  1  0
 14 13  2  0
 15 14  1  0
 15 16  2  0
 16 11  1  0
 17 18  2  0
 18 19  1  0
 20 19  2  0
 21 20  1  0
 22 21  2  0
 22 17  1  0
 23 24  2  0
 23 21  1  0
 25 24  1  0
 26 27  2  0
 26 25  1  0
 27 23  1  0
  2 28  1  0
  3 29  1  0
  4 30  1  0
  7 31  1  0
  8 32  1  0
  9 33  1  0
 12 34  1  0
 13 35  1  0
 15 36  1  0
 18 37  1  0
 19 38  1  0
 20 39  1  0
 24 40  1  0
 26 41  1  0
M  ISO  8  28  14  29  14  30  14  31  14  32  14  33  14  34  14  35  14
M  ISO  6  36  14  37  14  38  14  39  14  40  14  41  14
M  END
>  <minimizedAffinity>  (1) 
-6.52179527

>  <minimizedRMSD>  (1) 
1.43985665

$$$$
