
     RDKit          3D

 20 21  0  0  0  0  0  0  0  0999 V2000
   37.9682   28.8840   43.3646 C   0  0  0  0  0  0  0  0  0  0  0  0
   38.0813   27.4655   43.3037 C   0  0  0  0  0  0  0  0  0  0  0  0
   37.4381   26.8147   42.2563 C   0  0  0  0  0  0  0  0  0  0  0  0
   36.7347   27.5764   41.3466 N   0  0  0  0  0  0  0  0  0  0  0  0
   36.6584   28.9085   41.4477 C   0  0  0  0  0  0  0  0  0  0  0  0
   37.2749   29.5542   42.4552 N   0  0  0  0  0  0  0  0  0  0  0  0
   37.5311   25.3373   42.1564 C   0  0  0  0  0  0  0  0  0  0  0  0
   37.6504   25.0641   40.8027 F   0  0  0  0  0  0  0  0  0  0  0  0
   38.6223   24.8396   42.7995 F   0  0  0  0  0  0  0  0  0  0  0  0
   36.3867   24.7108   42.6402 F   0  0  0  0  0  0  0  0  0  0  0  0
   38.4559   29.4369   44.1683 H   0  0  0  0  0  0  0  0  0  0  0  0
   38.6454   26.9484   44.0482 H   0  0  0  0  0  0  0  0  0  0  0  0
   35.8879   29.6148   40.4307 C   0  0  0  0  0  0  0  0  0  0  0  0
   34.8646   28.9093   39.7884 C   0  0  0  0  0  0  0  0  0  0  0  0
   34.2755   29.7535   38.8798 C   0  0  0  0  0  0  0  0  0  0  0  0
   34.9664   30.9400   39.0073 C   0  0  0  0  0  0  0  0  0  0  0  0
   34.9259   31.9174   38.5486 H   0  0  0  0  0  0  0  0  0  0  0  0
   35.9145   30.8271   39.9328 O   0  0  0  0  0  0  0  0  0  0  0  0
   34.5176   27.8840   39.9094 H   0  0  0  0  0  0  0  0  0  0  0  0
   33.4646   29.6667   38.1672 H   0  0  0  0  0  0  0  0  0  0  0  0
  2  1  2  0
  3  2  1  0
  4  5  1  0
  4  3  2  0
  5  6  2  0
  6  1  1  0
  7  3  1  0
  7 10  1  0
  7  9  1  0
  8  7  1  0
  1 11  1  0
  2 12  1  0
 13 14  2  0
 14 15  1  0
 15 16  2  0
 16 17  1  0
 16 18  1  0
 18 13  1  0
 14 19  1  0
 15 20  1  0
  5 13  1  0
M  ISO  3  11  14  12  14  17  14
M  END
>  <DihAtoms>  (1) 
3,4,12,13

>  <DihDeg>  (1) 
-138.94188084850038

$$$$
