
     RDKit          3D

 39 43  0  0  1  0  0  0  0  0999 V2000
   39.8620   26.2330   43.8770 C   0  0  2  0  0  0  0  0  0  0  0  0
   41.0140   25.8170   42.9510 C   0  0  0  0  0  0  0  0  0  0  0  0
   39.8010   24.9660   43.0700 C   0  0  2  0  0  0  0  0  0  0  0  0
   38.8200   24.8490   41.9770 C   0  0  0  0  0  0  0  0  0  0  0  0
   37.6100   24.2170   42.2100 C   0  0  0  0  0  0  0  0  0  0  0  0
   36.7940   24.1550   41.1070 C   0  0  0  0  0  0  0  0  0  0  0  0
   37.0610   24.6360   39.8790 N   0  0  0  0  0  0  0  0  0  0  0  0
   38.2550   25.2420   39.7110 C   0  0  0  0  0  0  0  0  0  0  0  0
   39.1010   25.3370   40.7430 N   0  0  0  0  0  0  0  0  0  0  0  0
   38.5760   25.7740   38.3880 C   0  0  0  0  0  0  0  0  0  0  0  0
   38.1890   26.8400   37.6070 C   0  0  0  0  0  0  0  0  0  0  0  0
   38.9190   26.7300   36.4370 C   0  0  0  0  0  0  0  0  0  0  0  0
   39.7200   25.6080   36.5490 C   0  0  0  0  0  0  0  0  0  0  0  0
   39.4740   25.0810   37.7250 O   0  0  0  0  0  0  0  0  0  0  0  0
   38.4610   29.2520   42.5450 C   0  0  0  0  0  0  0  0  0  0  0  0
   37.4040   28.8090   43.3620 C   0  0  0  0  0  0  0  0  0  0  0  0
   37.8460   27.6270   43.9350 C   0  0  0  0  0  0  0  0  0  0  0  0
   39.0860   27.3920   43.4820 N   0  0  0  0  0  0  0  0  0  0  0  0
   39.4640   28.3640   42.6470 N   0  0  0  0  0  0  0  0  0  0  0  0
   37.0550   31.8640   40.3960 C   0  0  0  0  0  0  0  0  0  0  0  0
   38.0930   32.8120   40.3300 C   0  0  0  0  0  0  0  0  0  0  0  0
   39.2790   32.5360   41.0340 C   0  0  0  0  0  0  0  0  0  0  0  0
   39.3730   31.3770   41.7420 N   0  0  0  0  0  0  0  0  0  0  0  0
   38.3420   30.4860   41.7790 C   0  0  0  0  0  0  0  0  0  0  0  0
   37.1710   30.7270   41.1020 N   0  0  0  0  0  0  0  0  0  0  0  0
   39.7304   26.4701   44.9430 H   0  0  0  0  0  0  0  0  0  0  0  0
   41.9692   25.4777   43.3781 H   0  0  0  0  0  0  0  0  0  0  0  0
   41.5559   26.2906   42.1191 H   0  0  0  0  0  0  0  0  0  0  0  0
   39.6489   23.9006   43.2974 H   0  0  0  0  0  0  0  0  0  0  0  0
   37.3281   23.8025   43.1891 H   0  0  0  0  0  0  0  0  0  0  0  0
   35.8206   23.6606   41.2415 H   0  0  0  0  0  0  0  0  0  0  0  0
   37.4529   27.6171   37.8605 H   0  0  0  0  0  0  0  0  0  0  0  0
   38.8711   27.4110   35.5745 H   0  0  0  0  0  0  0  0  0  0  0  0
   40.4276   25.2300   35.7964 H   0  0  0  0  0  0  0  0  0  0  0  0
   36.4307   29.2985   43.5139 H   0  0  0  0  0  0  0  0  0  0  0  0
   37.2809   26.9949   44.6358 H   0  0  0  0  0  0  0  0  0  0  0  0
   36.1191   32.0602   39.8523 H   0  0  0  0  0  0  0  0  0  0  0  0
   37.9806   33.7381   39.7472 H   0  0  0  0  0  0  0  0  0  0  0  0
   40.1185   33.2464   41.0128 H   0  0  0  0  0  0  0  0  0  0  0  0
  2  3  1  0
  2  1  1  0
  3  1  1  0
  4  5  2  0
  4  3  1  0
  6  5  1  0
  7  6  2  0
  8  7  1  0
  8  9  2  0
  9  4  1  0
 10  8  1  0
 11 10  2  0
 12 13  2  0
 12 11  1  0
 13 14  1  0
 14 10  1  0
 15 19  2  0
 15 16  1  0
 16 17  2  0
 18  1  1  0
 18 17  1  0
 19 18  1  0
 20 25  2  0
 21 20  1  0
 21 22  2  0
 22 23  1  0
 23 24  2  0
 24 15  1  0
 25 24  1  0
  1 26  1  1
  2 27  1  0
  2 28  1  0
  3 29  1  1
  5 30  1  0
  6 31  1  0
 11 32  1  0
 12 33  1  0
 13 34  1  0
 16 35  1  0
 17 36  1  0
 20 37  1  0
 21 38  1  0
 22 39  1  0
M  ISO  8  26  13  27  13  28  13  29  13  30  14  31  14  32  14  33  14
M  ISO  6  34  14  35  14  36  14  37  14  38  14  39  14
M  END
>  <minimizedAffinity>  (1) 
-5.44618893

>  <minimizedRMSD>  (1) 
0.190892518

$$$$
