
     RDKit          3D

 40 43  0  0  0  0  0  0  0  0999 V2000
   37.7020   28.0690   43.0240 C   0  0  0  0  0  0  0  0  0  0  0  0
   38.4200   26.8320   42.9680 C   0  0  0  0  0  0  0  0  0  0  0  0
   39.5230   26.6590   43.8280 C   0  0  0  0  0  0  0  0  0  0  0  0
   40.2630   25.5090   43.8500 C   0  0  0  0  0  0  0  0  0  0  0  0
   39.8870   24.4780   42.9750 C   0  0  0  0  0  0  0  0  0  0  0  0
   38.8230   24.6340   42.1400 C   0  0  0  0  0  0  0  0  0  0  0  0
   38.4460   23.6040   41.2750 C   0  0  0  0  0  0  0  0  0  0  0  0
   37.3880   23.7490   40.4480 C   0  0  0  0  0  0  0  0  0  0  0  0
   36.6230   24.9310   40.4190 C   0  0  0  0  0  0  0  0  0  0  0  0
   37.0250   25.9530   41.3010 C   0  0  0  0  0  0  0  0  0  0  0  0
   38.0780   25.8120   42.1270 C   0  0  0  0  0  0  0  0  0  0  0  0
   39.2430   29.9710   43.1970 C   0  0  0  0  0  0  0  0  0  0  0  0
   38.3440   29.2680   42.4450 C   0  0  0  0  0  0  0  0  0  0  0  0
   38.1190   29.7760   41.1630 C   0  0  0  0  0  0  0  0  0  0  0  0
   38.7740   30.8750   40.7700 N   0  0  0  0  0  0  0  0  0  0  0  0
   39.6300   31.5230   41.5180 C   0  0  0  0  0  0  0  0  0  0  0  0
   39.8920   31.0710   42.7900 N   0  0  0  0  0  0  0  0  0  0  0  0
   40.2240   32.6740   40.9340 N   0  0  0  0  0  0  0  0  0  0  0  0
   41.4350   33.1020   40.7310 N   0  0  0  0  0  0  0  0  0  0  0  0
   41.4030   34.2950   40.1130 C   0  0  0  0  0  0  0  0  0  0  0  0
   40.0800   34.6330   39.9170 C   0  0  0  0  0  0  0  0  0  0  0  0
   39.3570   33.5890   40.4460 C   0  0  0  0  0  0  0  0  0  0  0  0
   37.9610   33.6530   40.3920 O   0  0  0  0  0  0  0  0  0  0  0  0
   37.2190   33.5820   39.2360 C   0  0  0  0  0  0  0  0  0  0  0  0
   37.1110   32.5540   38.5540 O   0  0  0  0  0  0  0  0  0  0  0  0
   36.5840   34.7900   38.8910 O   0  0  0  0  0  0  0  0  0  0  0  0
   36.7496   27.9193   42.4943 H   0  0  0  0  0  0  0  0  0  0  0  0
   37.6194   28.2917   44.0980 H   0  0  0  0  0  0  0  0  0  0  0  0
   39.7990   27.4794   44.5068 H   0  0  0  0  0  0  0  0  0  0  0  0
   41.1214   25.3962   44.5286 H   0  0  0  0  0  0  0  0  0  0  0  0
   40.4563   23.5368   42.9638 H   0  0  0  0  0  0  0  0  0  0  0  0
   39.0173   22.6640   41.2673 H   0  0  0  0  0  0  0  0  0  0  0  0
   37.1161   22.9201   39.7779 H   0  0  0  0  0  0  0  0  0  0  0  0
   35.7609   25.0494   39.7461 H   0  0  0  0  0  0  0  0  0  0  0  0
   36.4600   26.8967   41.3151 H   0  0  0  0  0  0  0  0  0  0  0  0
   39.4498   29.6063   44.2140 H   0  0  0  0  0  0  0  0  0  0  0  0
   37.4112   29.2781   40.4840 H   0  0  0  0  0  0  0  0  0  0  0  0
   42.2760   34.8949   39.8164 H   0  0  0  0  0  0  0  0  0  0  0  0
   39.6871   35.5429   39.4397 H   0  0  0  0  0  0  0  0  0  0  0  0
   36.0262   34.8405   38.0747 H   0  0  0  0  0  0  0  0  0  0  0  0
  2  1  1  0
  2  3  2  0
  3  4  1  0
  5  4  2  0
  6  5  1  0
  7  6  2  0
  8  7  1  0
  9  8  2  0
  9 10  1  0
 10 11  2  0
 11  6  1  0
 11  2  1  0
 13  1  1  0
 13 12  2  0
 14 13  1  0
 15 14  2  0
 15 16  1  0
 16 17  2  0
 17 12  1  0
 18 16  1  0
 19 18  1  0
 20 19  2  0
 21 20  1  0
 21 22  2  0
 22 18  1  0
 23 22  1  0
 24 23  1  0
 25 24  2  0
 26 24  1  0
  1 27  1  0
  1 28  1  0
  3 29  1  0
  4 30  1  0
  5 31  1  0
  7 32  1  0
  8 33  1  0
  9 34  1  0
 10 35  1  0
 12 36  1  0
 14 37  1  0
 20 38  1  0
 21 39  1  0
 26 40  1  0
M  ISO  8  27   8  28   8  29  14  30  14  31  14  32  14  33  14  34  14
M  ISO  6  35  14  36  14  37  14  38  14  39  14  40   3
M  END
>  <minimizedAffinity>  (1) 
-6.9546628

>  <minimizedRMSD>  (1) 
0.403677166

$$$$
