
     RDKit          3D

 31 32  0  0  0  0  0  0  0  0999 V2000
   37.2750   28.4110   43.8250 C   0  0  0  0  0  0  0  0  0  0  0  0
   38.1110   27.3260   44.1410 C   0  0  0  0  0  0  0  0  0  0  0  0
   39.1720   27.0660   43.2380 C   0  0  0  0  0  0  0  0  0  0  0  0
   39.3170   27.8510   42.1590 N   0  0  0  0  0  0  0  0  0  0  0  0
   38.4940   28.8840   41.8900 C   0  0  0  0  0  0  0  0  0  0  0  0
   37.4760   29.1660   42.7180 N   0  0  0  0  0  0  0  0  0  0  0  0
   40.0860   26.0160   43.4240 N   0  0  0  0  0  0  0  0  0  0  0  0
   38.6310   29.7280   40.7520 N   0  0  0  0  0  0  0  0  0  0  0  0
   39.6970   29.4730   39.9470 C   0  0  0  0  0  0  0  0  0  0  0  0
   39.9990   30.1730   38.8050 C   0  0  0  0  0  0  0  0  0  0  0  0
   39.1500   31.2080   38.4660 C   0  0  0  0  0  0  0  0  0  0  0  0
   39.3490   31.9040   37.4360 O   0  0  0  0  0  0  0  0  0  0  0  0
   38.0930   31.4530   39.2740 N   0  0  0  0  0  0  0  0  0  0  0  0
   37.8310   30.7390   40.3890 C   0  0  0  0  0  0  0  0  0  0  0  0
   36.8600   30.9490   41.1490 O   0  0  0  0  0  0  0  0  0  0  0  0
   41.1810   29.8360   37.9740 C   0  0  0  0  0  0  0  0  0  0  0  0
   37.1950   32.5150   38.9540 C   0  0  0  0  0  0  0  0  0  0  0  0
   37.5250   33.8200   39.6430 C   0  0  0  0  0  0  0  0  0  0  0  0
   36.4359   28.6534   44.4937 H   0  0  0  0  0  0  0  0  0  0  0  0
   37.9505   26.7124   45.0398 H   0  0  0  0  0  0  0  0  0  0  0  0
   40.8421   25.8644   42.7412 H   0  0  0  0  0  0  0  0  0  0  0  0
   40.0002   25.3976   44.2432 H   0  0  0  0  0  0  0  0  0  0  0  0
   40.3652   28.6467   40.2311 H   0  0  0  0  0  0  0  0  0  0  0  0
   42.0317   29.5934   38.6278 H   0  0  0  0  0  0  0  0  0  0  0  0
   40.9476   28.9686   37.3391 H   0  0  0  0  0  0  0  0  0  0  0  0
   41.4401   30.6961   37.3391 H   0  0  0  0  0  0  0  0  0  0  0  0
   37.2251   32.6793   37.8668 H   0  0  0  0  0  0  0  0  0  0  0  0
   36.1984   32.2095   39.3055 H   0  0  0  0  0  0  0  0  0  0  0  0
   37.4892   33.6783   40.7332 H   0  0  0  0  0  0  0  0  0  0  0  0
   38.5337   34.1453   39.3485 H   0  0  0  0  0  0  0  0  0  0  0  0
   36.7922   34.5857   39.3485 H   0  0  0  0  0  0  0  0  0  0  0  0
  1  2  2  0
  3  7  1  0
  3  2  1  0
  4  3  2  0
  5  4  1  0
  5  6  2  0
  6  1  1  0
  8  5  1  0
  9  8  1  0
 10  9  2  0
 11 10  1  0
 11 13  1  0
 12 11  2  0
 13 14  1  0
 14  8  1  0
 14 15  2  0
 16 10  1  0
 17 13  1  0
 17 18  1  0
  1 19  1  0
  2 20  1  0
  7 21  1  0
  7 22  1  0
  9 23  1  0
 16 24  1  0
 16 25  1  0
 16 26  1  0
 17 27  1  0
 17 28  1  0
 18 29  1  0
 18 30  1  0
 18 31  1  0
M  ISO  8  19  14  20  14  23  14  24   8  25   8  26   8  27   8  28   8
M  ISO  3  29   8  30   8  31   8
M  END
>  <minimizedAffinity>  (1) 
-4.59708738

>  <minimizedRMSD>  (1) 
2.00286555

$$$$
