
     RDKit          3D

 31 33  0  0  0  0  0  0  0  0999 V2000
   38.6450   28.4400   43.2350 C   0  0  0  0  0  0  0  0  0  0  0  0
   38.4410   27.2360   42.5020 C   0  0  0  0  0  0  0  0  0  0  0  0
   37.5460   27.2940   41.4220 C   0  0  0  0  0  0  0  0  0  0  0  0
   36.9460   28.4690   41.1500 N   0  0  0  0  0  0  0  0  0  0  0  0
   37.1570   29.5710   41.8500 C   0  0  0  0  0  0  0  0  0  0  0  0
   38.0100   29.5650   42.9000 N   0  0  0  0  0  0  0  0  0  0  0  0
   37.3890   26.0290   40.7260 C   0  0  0  0  0  0  0  0  0  0  0  0
   37.6190   24.8100   41.5850 C   0  0  0  0  0  0  0  0  0  0  0  0
   36.4490   24.3800   42.2800 N   0  0  0  0  0  0  0  0  0  0  0  0
   36.4290   30.6210   41.3710 O   0  0  0  0  0  0  0  0  0  0  0  0
   37.0190   31.5450   40.5200 C   0  0  0  0  0  0  0  0  0  0  0  0
   36.8170   31.7530   39.1860 N   0  0  0  0  0  0  0  0  0  0  0  0
   37.5930   32.7350   38.7860 O   0  0  0  0  0  0  0  0  0  0  0  0
   38.2740   33.1420   39.8470 C   0  0  0  0  0  0  0  0  0  0  0  0
   37.9360   32.4270   40.9160 N   0  0  0  0  0  0  0  0  0  0  0  0
   39.2460   34.2240   39.8060 C   0  0  0  0  0  0  0  0  0  0  0  0
   39.0590   35.5350   40.2030 C   0  0  0  0  0  0  0  0  0  0  0  0
   40.2020   36.2550   40.0150 C   0  0  0  0  0  0  0  0  0  0  0  0
   41.0940   35.3470   39.4930 C   0  0  0  0  0  0  0  0  0  0  0  0
   40.4880   34.1970   39.3960 O   0  0  0  0  0  0  0  0  0  0  0  0
   39.3366   28.4427   44.0904 H   0  0  0  0  0  0  0  0  0  0  0  0
   38.9605   26.3041   42.7697 H   0  0  0  0  0  0  0  0  0  0  0  0
   36.3647   25.9806   40.3279 H   0  0  0  0  0  0  0  0  0  0  0  0
   38.1575   26.0071   39.9392 H   0  0  0  0  0  0  0  0  0  0  0  0
   37.9636   23.9883   40.9399 H   0  0  0  0  0  0  0  0  0  0  0  0
   38.3669   25.0828   42.3441 H   0  0  0  0  0  0  0  0  0  0  0  0
   36.6114   24.4397   43.2954 H   0  0  0  0  0  0  0  0  0  0  0  0
   35.6555   24.9844   42.0231 H   0  0  0  0  0  0  0  0  0  0  0  0
   38.1217   35.9398   40.6123 H   0  0  0  0  0  0  0  0  0  0  0  0
   40.3720   37.3200   40.2316 H   0  0  0  0  0  0  0  0  0  0  0  0
   42.1358   35.5549   39.2076 H   0  0  0  0  0  0  0  0  0  0  0  0
  2  1  2  0
  3  2  1  0
  4  3  2  0
  4  5  1  0
  5  6  2  0
  6  1  1  0
  7  3  1  0
  7  8  1  0
  8  9  1  0
 10  5  1  0
 11 15  1  0
 11 10  1  0
 12 11  2  0
 13 12  1  0
 13 14  1  0
 14 15  2  0
 16 14  1  0
 16 17  2  0
 18 17  1  0
 19 18  2  0
 20 19  1  0
 20 16  1  0
  1 21  1  0
  2 22  1  0
  7 23  1  0
  7 24  1  0
  8 25  1  0
  8 26  1  0
  9 27  1  0
  9 28  1  0
 17 29  1  0
 18 30  1  0
 19 31  1  0
M  ISO  8  21  14  22  14  23   8  24   8  25   8  26   8  27   5  28   5
M  ISO  3  29  14  30  14  31  14
M  END
>  <minimizedAffinity>  (1) 
-5.13112926

>  <minimizedRMSD>  (1) 
0.448017657

$$$$
