
     RDKit          3D

 31 33  0  0  0  0  0  0  0  0999 V2000
   38.7920   29.6360   42.4620 C   0  0  0  0  0  0  0  0  0  0  0  0
   38.0820   29.3270   41.2710 C   0  0  0  0  0  0  0  0  0  0  0  0
   37.8380   27.9780   41.0180 C   0  0  0  0  0  0  0  0  0  0  0  0
   38.3060   27.0900   41.9400 N   0  0  0  0  0  0  0  0  0  0  0  0
   38.9660   27.4080   43.0430 C   0  0  0  0  0  0  0  0  0  0  0  0
   39.2080   28.6860   43.3010 N   0  0  0  0  0  0  0  0  0  0  0  0
   37.1210   27.7740   39.7870 C   0  0  0  0  0  0  0  0  0  0  0  0
   36.9310   28.7720   38.9150 N   0  0  0  0  0  0  0  0  0  0  0  0
   36.2790   28.6510   37.7610 C   0  0  0  0  0  0  0  0  0  0  0  0
   35.7340   27.4660   37.3620 N   0  0  0  0  0  0  0  0  0  0  0  0
   35.8760   26.3850   38.1880 C   0  0  0  0  0  0  0  0  0  0  0  0
   35.3380   25.1850   37.8090 C   0  0  0  0  0  0  0  0  0  0  0  0
   35.4640   24.0760   38.6200 C   0  0  0  0  0  0  0  0  0  0  0  0
   36.1550   24.2370   39.8250 C   0  0  0  0  0  0  0  0  0  0  0  0
   36.6660   25.4780   40.1330 C   0  0  0  0  0  0  0  0  0  0  0  0
   36.5620   26.5910   39.3600 C   0  0  0  0  0  0  0  0  0  0  0  0
   37.6900   30.4180   40.4320 N   0  0  0  0  0  0  0  0  0  0  0  0
   36.6830   31.3510   40.7250 C   0  0  0  0  0  0  0  0  0  0  0  0
   35.6320   30.8610   41.3440 N   0  0  0  0  0  0  0  0  0  0  0  0
   36.9280   32.7120   40.3150 N   0  0  0  0  0  0  0  0  0  0  0  0
   34.8420   31.4650   41.6110 H   0  0  0  0  0  0  0  0  0  0  0  0
   39.0048   30.6888   42.6992 H   0  0  0  0  0  0  0  0  0  0  0  0
   39.3083   26.6241   43.7346 H   0  0  0  0  0  0  0  0  0  0  0  0
   36.1767   29.5320   37.1103 H   0  0  0  0  0  0  0  0  0  0  0  0
   34.8018   25.1042   36.8519 H   0  0  0  0  0  0  0  0  0  0  0  0
   35.0380   23.1041   38.3303 H   0  0  0  0  0  0  0  0  0  0  0  0
   36.2877   23.3892   40.5131 H   0  0  0  0  0  0  0  0  0  0  0  0
   37.2048   25.5771   41.0869 H   0  0  0  0  0  0  0  0  0  0  0  0
   38.1889   30.5279   39.5376 H   0  0  0  0  0  0  0  0  0  0  0  0
   36.2250   33.4410   40.5030 H   0  0  0  0  0  0  0  0  0  0  0  0
   37.8059   32.9549   39.8342 H   0  0  0  0  0  0  0  0  0  0  0  0
  1  6  2  0
  2  1  1  0
  3  2  2  0
  3  4  1  0
  4  5  2  0
  5  6  1  0
  7  3  1  0
  8  7  2  0
  9  8  1  0
 10  9  2  0
 10 11  1  0
 11 16  2  0
 12 11  1  0
 12 13  2  0
 13 14  1  0
 14 15  2  0
 16  7  1  0
 16 15  1  0
 17 18  1  0
 17  2  1  0
 18 19  2  0
 19 21  1  0
 20 18  1  0
  1 22  1  0
  5 23  1  0
  9 24  1  0
 12 25  1  0
 13 26  1  0
 14 27  1  0
 15 28  1  0
 17 29  1  0
 20 30  1  0
 20 31  1  0
M  ISO  7  22  14  23  14  24  14  25  14  26  14  27  14  28  14
M  END
>  <minimizedAffinity>  (1) 
-5.63437557

>  <minimizedRMSD>  (1) 
0.67530936

$$$$
