
     RDKit          3D

 48 53  0  0  1  0  0  0  0  0999 V2000
   39.0530   35.6390   40.1560 C   0  0  0  0  0  0  0  0  0  0  0  0
   38.8960   34.2780   40.4530 C   0  0  0  0  0  0  0  0  0  0  0  0
   40.0050   33.4670   40.3500 C   0  0  0  0  0  0  0  0  0  0  0  0
   41.1800   34.0540   39.9620 N   0  0  0  0  0  0  0  0  0  0  0  0
   41.2970   35.3560   39.6850 C   0  0  0  0  0  0  0  0  0  0  0  0
   40.2300   36.1410   39.7850 N   0  0  0  0  0  0  0  0  0  0  0  0
   40.1280   32.0840   40.5850 N   0  0  0  0  0  0  0  0  0  0  0  0
   39.4540   31.1810   39.9190 C   0  0  0  0  0  0  0  0  0  0  0  0
   39.8290   29.9670   40.4050 N   0  0  0  0  0  0  0  0  0  0  0  0
   40.7470   30.1390   41.3830 C   0  0  0  0  0  0  0  0  0  0  0  0
   41.4660   29.3090   42.2140 C   0  0  0  0  0  0  0  0  0  0  0  0
   41.3020   28.0630   42.1240 O   0  0  0  0  0  0  0  0  0  0  0  0
   42.3220   29.8780   43.0990 N   0  0  0  0  0  0  0  0  0  0  0  0
   42.4890   31.2150   43.1900 C   0  0  0  0  0  0  0  0  0  0  0  0
   43.3940   31.7750   44.1240 N   0  0  0  0  0  0  0  0  0  0  0  0
   41.7950   32.0300   42.3860 N   0  0  0  0  0  0  0  0  0  0  0  0
   40.9400   31.5140   41.4990 C   0  0  0  0  0  0  0  0  0  0  0  0
   38.4110   31.2760   38.8310 C   0  0  1  0  0  0  0  0  0  0  0  0
   39.0170   31.5620   37.4410 C   0  0  0  0  0  0  0  0  0  0  0  0
   38.3530   30.2540   37.7980 C   0  0  2  0  0  0  0  0  0  0  0  0
   37.0710   29.8690   37.1490 C   0  0  0  0  0  0  0  0  0  0  0  0
   36.9040   29.7950   35.8110 N   0  0  0  0  0  0  0  0  0  0  0  0
   35.6910   29.4330   35.3010 C   0  0  0  0  0  0  0  0  0  0  0  0
   34.6520   29.1480   36.1060 N   0  0  0  0  0  0  0  0  0  0  0  0
   34.8020   29.2170   37.4410 C   0  0  0  0  0  0  0  0  0  0  0  0
   33.7670   28.9350   38.3320 C   0  0  0  0  0  0  0  0  0  0  0  0
   33.9300   29.0100   39.6990 C   0  0  0  0  0  0  0  0  0  0  0  0
   35.1450   29.3720   40.2430 C   0  0  0  0  0  0  0  0  0  0  0  0
   36.1620   29.6500   39.3560 C   0  0  0  0  0  0  0  0  0  0  0  0
   36.0300   29.5840   37.9950 C   0  0  0  0  0  0  0  0  0  0  0  0
   43.0470   28.9560   43.9450 C   0  0  0  0  0  0  0  0  0  0  0  0
   44.0650   28.3250   43.2980 F   0  0  0  0  0  0  0  0  0  0  0  0
   42.1400   27.9550   44.3200 F   0  0  0  0  0  0  0  0  0  0  0  0
   43.5060   29.5900   45.1120 F   0  0  0  0  0  0  0  0  0  0  0  0
   38.1835   36.3086   40.2311 H   0  0  0  0  0  0  0  0  0  0  0  0
   37.9205   33.8714   40.7579 H   0  0  0  0  0  0  0  0  0  0  0  0
   42.2670   35.7735   39.3773 H   0  0  0  0  0  0  0  0  0  0  0  0
   43.5093   32.7970   44.1803 H   0  0  0  0  0  0  0  0  0  0  0  0
   43.9370   31.1604   44.7471 H   0  0  0  0  0  0  0  0  0  0  0  0
   37.6404   31.7045   39.4887 H   0  0  0  0  0  0  0  0  0  0  0  0
   40.1075   31.6166   37.3077 H   0  0  0  0  0  0  0  0  0  0  0  0
   38.8953   32.3297   36.6626 H   0  0  0  0  0  0  0  0  0  0  0  0
   38.6608   29.1984   37.7677 H   0  0  0  0  0  0  0  0  0  0  0  0
   35.5606   29.3732   34.2104 H   0  0  0  0  0  0  0  0  0  0  0  0
   32.7858   28.6424   37.9300 H   0  0  0  0  0  0  0  0  0  0  0  0
   33.0833   28.7790   40.3621 H   0  0  0  0  0  0  0  0  0  0  0  0
   35.2944   29.4355   41.3309 H   0  0  0  0  0  0  0  0  0  0  0  0
   37.1396   29.9428   39.7665 H   0  0  0  0  0  0  0  0  0  0  0  0
  1  2  2  0
  3  2  1  0
  3  7  1  0
  4  3  2  0
  5  6  2  0
  5  4  1  0
  6  1  1  0
  7 17  1  0
  8  9  2  0
  8  7  1  0
  9 10  1  0
 10 17  2  0
 10 11  1  0
 11 13  1  0
 12 11  2  0
 13 14  1  0
 13 31  1  0
 14 15  1  0
 16 14  2  0
 17 16  1  0
 18  8  1  0
 19 20  1  0
 19 18  1  0
 20 18  1  0
 21 20  1  0
 21 30  1  0
 22 21  2  0
 23 22  1  0
 23 24  2  0
 24 25  1  0
 25 30  2  0
 25 26  1  0
 26 27  2  0
 27 28  1  0
 29 28  2  0
 30 29  1  0
 31 33  1  0
 31 34  1  0
 32 31  1  0
  1 35  1  0
  2 36  1  0
  5 37  1  0
 15 38  1  0
 15 39  1  0
 18 40  1  1
 19 41  1  0
 19 42  1  0
 20 43  1  1
 23 44  1  0
 26 45  1  0
 27 46  1  0
 28 47  1  0
 29 48  1  0
M  END
>  <minimizedAffinity>  (1) 
-7.24086332

>  <minimizedRMSD>  (1) 
5.53706646

$$$$
