
     RDKit          3D

 27 29  0  0  0  0  0  0  0  0999 V2000
   37.9570   28.8817   43.3587 C   0  0  0  0  0  0  0  0  0  0  0  0
   38.0899   27.4651   43.3121 C   0  0  0  0  0  0  0  0  0  0  0  0
   37.4536   26.8189   42.2647 C   0  0  0  0  0  0  0  0  0  0  0  0
   36.7745   27.5995   41.3974 N   0  0  0  0  0  0  0  0  0  0  0  0
   36.6401   28.9078   41.4232 C   0  0  0  0  0  0  0  0  0  0  0  0
   37.2596   29.5387   42.4439 N   0  0  0  0  0  0  0  0  0  0  0  0
   37.5288   25.3477   42.1323 C   0  0  0  0  0  0  0  0  0  0  0  0
   37.6384   25.0502   40.8053 F   0  0  0  0  0  0  0  0  0  0  0  0
   38.6193   24.8298   42.7982 F   0  0  0  0  0  0  0  0  0  0  0  0
   36.3849   24.7156   42.6372 F   0  0  0  0  0  0  0  0  0  0  0  0
   38.4641   29.3698   44.1889 H   0  0  0  0  0  0  0  0  0  0  0  0
   38.6511   26.9488   44.0502 H   0  0  0  0  0  0  0  0  0  0  0  0
   35.9328   29.8162   40.5362 C   0  0  0  0  0  0  0  0  0  0  0  0
   36.3305   31.0829   40.3272 N   0  0  0  0  0  0  0  0  0  0  0  0
   35.7105   31.9485   39.5220 C   0  0  0  0  0  0  0  0  0  0  0  0
   34.6054   31.6105   38.8359 N   0  0  0  0  0  0  0  0  0  0  0  0
   34.1177   30.3508   38.9753 C   0  0  0  0  0  0  0  0  0  0  0  0
   32.9860   29.9963   38.2761 C   0  0  0  0  0  0  0  0  0  0  0  0
   32.4654   28.7258   38.3955 C   0  0  0  0  0  0  0  0  0  0  0  0
   31.5792   28.5692   37.7997 H   0  0  0  0  0  0  0  0  0  0  0  0
   33.1370   27.8435   39.2455 C   0  0  0  0  0  0  0  0  0  0  0  0
   32.6779   26.8631   39.2950 H   0  0  0  0  0  0  0  0  0  0  0  0
   34.2559   28.2558   39.9123 C   0  0  0  0  0  0  0  0  0  0  0  0
   34.8005   29.5050   39.8192 C   0  0  0  0  0  0  0  0  0  0  0  0
   36.1961   32.9278   39.4927 H   0  0  0  0  0  0  0  0  0  0  0  0
   32.5319   30.7656   37.6324 H   0  0  0  0  0  0  0  0  0  0  0  0
   34.6621   27.4929   40.5178 H   0  0  0  0  0  0  0  0  0  0  0  0
  2  1  2  0
  3  2  1  0
  4  5  1  0
  4  3  2  0
  5  6  2  0
  6  1  1  0
  7  3  1  0
  7 10  1  0
  7  9  1  0
  8  7  1  0
  1 11  1  0
  2 12  1  0
 13 14  2  0
 14 15  1  0
 15 16  2  0
 16 17  1  0
 17 18  2  0
 18 19  1  0
 19 20  1  0
 19 21  2  0
 21 22  1  0
 21 23  1  0
 23 24  2  0
 24 13  1  0
 24 17  1  0
 15 25  1  0
 18 26  1  0
 23 27  1  0
  5 13  1  0
M  ISO  4  11  14  12  14  20  16  22  16
M  END
>  <DihAtoms>  (1) 
3,4,12,13

>  <DihDeg>  (1) 
179.99891203206445

$$$$
