
     RDKit          3D

 47 51  0  0  0  0  0  0  0  0999 V2000
   35.9910   30.0120   40.9390 C   0  0  0  0  0  0  0  0  0  0  0  0
   38.4770   28.1730   42.6120 C   0  0  0  0  0  0  0  0  0  0  0  0
   37.4170   27.3130   42.7040 C   0  0  0  0  0  0  0  0  0  0  0  0
   36.3440   27.9390   42.0640 C   0  0  0  0  0  0  0  0  0  0  0  0
   36.8440   29.1150   41.6410 N   0  0  0  0  0  0  0  0  0  0  0  0
   38.0910   29.2900   41.9420 N   0  0  0  0  0  0  0  0  0  0  0  0
   41.4200   26.6230   44.2850 C   0  0  0  0  0  0  0  0  0  0  0  0
   40.1140   26.7660   43.8070 C   0  0  0  0  0  0  0  0  0  0  0  0
   39.8130   27.9670   43.1280 C   0  0  0  0  0  0  0  0  0  0  0  0
   40.7660   28.9010   42.9720 N   0  0  0  0  0  0  0  0  0  0  0  0
   42.0270   28.7020   43.4630 C   0  0  0  0  0  0  0  0  0  0  0  0
   42.3430   27.5720   44.1130 N   0  0  0  0  0  0  0  0  0  0  0  0
   43.0240   29.7470   43.2680 C   0  0  0  0  0  0  0  0  0  0  0  0
   42.9270   31.0650   43.6510 C   0  0  0  0  0  0  0  0  0  0  0  0
   44.0640   31.6920   43.2820 N   0  0  0  0  0  0  0  0  0  0  0  0
   44.8500   30.7790   42.6820 C   0  0  0  0  0  0  0  0  0  0  0  0
   44.2210   29.5830   42.6690 N   0  0  0  0  0  0  0  0  0  0  0  0
   35.1440   29.4010   39.8680 C   0  0  0  0  0  0  0  0  0  0  0  0
   35.7790   29.3620   38.5260 C   0  0  0  0  0  0  0  0  0  0  0  0
   37.1020   29.4990   38.2240 C   0  0  0  0  0  0  0  0  0  0  0  0
   37.6390   29.5290   36.9750 C   0  0  0  0  0  0  0  0  0  0  0  0
   36.8060   29.4160   35.8830 C   0  0  0  0  0  0  0  0  0  0  0  0
   35.4470   29.2740   36.1190 C   0  0  0  0  0  0  0  0  0  0  0  0
   34.6700   29.1690   34.9920 C   0  0  0  0  0  0  0  0  0  0  0  0
   33.3220   29.0210   35.1090 C   0  0  0  0  0  0  0  0  0  0  0  0
   32.7590   28.9780   36.3790 C   0  0  0  0  0  0  0  0  0  0  0  0
   33.5870   29.0890   37.4520 C   0  0  0  0  0  0  0  0  0  0  0  0
   34.9350   29.2430   37.4060 C   0  0  0  0  0  0  0  0  0  0  0  0
   32.9670   29.0210   38.6880 O   0  0  0  0  0  0  0  0  0  0  0  0
   35.3200   30.4832   41.6723 H   0  0  0  0  0  0  0  0  0  0  0  0
   36.6589   30.7188   40.4249 H   0  0  0  0  0  0  0  0  0  0  0  0
   37.4106   26.3244   43.1863 H   0  0  0  0  0  0  0  0  0  0  0  0
   35.3207   27.5567   41.9349 H   0  0  0  0  0  0  0  0  0  0  0  0
   41.6952   25.7013   44.8186 H   0  0  0  0  0  0  0  0  0  0  0  0
   39.3575   25.9809   43.9528 H   0  0  0  0  0  0  0  0  0  0  0  0
   42.0726   31.5268   44.1674 H   0  0  0  0  0  0  0  0  0  0  0  0
   45.8494   30.9758   42.2666 H   0  0  0  0  0  0  0  0  0  0  0  0
   44.5888   28.7059   42.2736 H   0  0  0  0  0  0  0  0  0  0  0  0
   34.9061   28.3690   40.1654 H   0  0  0  0  0  0  0  0  0  0  0  0
   34.2526   30.0385   39.7732 H   0  0  0  0  0  0  0  0  0  0  0  0
   37.7994   29.5941   39.0693 H   0  0  0  0  0  0  0  0  0  0  0  0
   38.7246   29.6420   36.8381 H   0  0  0  0  0  0  0  0  0  0  0  0
   37.2058   29.4377   34.8585 H   0  0  0  0  0  0  0  0  0  0  0  0
   35.1360   29.2044   33.9962 H   0  0  0  0  0  0  0  0  0  0  0  0
   32.6888   28.9368   34.2134 H   0  0  0  0  0  0  0  0  0  0  0  0
   31.6738   28.8575   36.5125 H   0  0  0  0  0  0  0  0  0  0  0  0
   33.5046   29.0940   39.5161 H   0  0  0  0  0  0  0  0  0  0  0  0
  1  5  1  0
  2  3  1  0
  2  9  1  0
  4  3  2  0
  5  6  1  0
  5  4  1  0
  6  2  2  0
  8  7  2  0
  9  8  1  0
 10  9  2  0
 10 11  1  0
 11 12  2  0
 12  7  1  0
 13 11  1  0
 13 14  2  0
 15 14  1  0
 16 15  2  0
 17 16  1  0
 17 13  1  0
 18  1  1  0
 19 18  1  0
 20 19  2  0
 21 20  1  0
 22 23  1  0
 22 21  2  0
 23 28  2  0
 24 25  2  0
 24 23  1  0
 25 26  1  0
 26 27  2  0
 27 29  1  0
 28 27  1  0
 28 19  1  0
  1 30  1  0
  1 31  1  0
  3 32  1  0
  4 33  1  0
  7 34  1  0
  8 35  1  0
 14 36  1  0
 16 37  1  0
 17 38  1  0
 18 39  1  0
 18 40  1  0
 20 41  1  0
 21 42  1  0
 22 43  1  0
 24 44  1  0
 25 45  1  0
 26 46  1  0
 29 47  1  0
M  ISO  8  30   8  31   8  32  14  33  14  34  14  35  14  36  14  37  14
M  ISO  8  38   9  39   8  40   8  41  14  42  14  43  14  44  14  45  14
M  ISO  2  46  14  47   3
M  END
>  <minimizedAffinity>  (1) 
-5.92218065

>  <minimizedRMSD>  (1) 
0.499960482

$$$$
