
     RDKit          3D

 42 46  0  0  0  0  0  0  0  0999 V2000
   39.7310   32.4450   40.9460 C   0  0  0  0  0  0  0  0  0  0  0  0
   40.8430   31.8830   41.6080 C   0  0  0  0  0  0  0  0  0  0  0  0
   40.8630   30.5970   42.1240 C   0  0  0  0  0  0  0  0  0  0  0  0
   39.7220   29.8140   41.9840 C   0  0  0  0  0  0  0  0  0  0  0  0
   38.6260   30.3120   41.3530 C   0  0  0  0  0  0  0  0  0  0  0  0
   37.5430   29.5110   41.2370 C   0  0  0  0  0  0  0  0  0  0  0  0
   36.3700   29.9730   40.5870 C   0  0  0  0  0  0  0  0  0  0  0  0
   36.4300   31.2900   40.0890 C   0  0  0  0  0  0  0  0  0  0  0  0
   37.5620   32.0340   40.2460 C   0  0  0  0  0  0  0  0  0  0  0  0
   38.6930   31.5800   40.8770 C   0  0  0  0  0  0  0  0  0  0  0  0
   39.9010   33.7840   40.4920 C   0  0  0  0  0  0  0  0  0  0  0  0
   39.0910   34.9220   40.6930 C   0  0  0  0  0  0  0  0  0  0  0  0
   39.4390   36.1750   40.1780 C   0  0  0  0  0  0  0  0  0  0  0  0
   40.5960   36.2350   39.4760 N   0  0  0  0  0  0  0  0  0  0  0  0
   41.3680   35.1830   39.2750 C   0  0  0  0  0  0  0  0  0  0  0  0
   41.0260   33.9920   39.7720 N   0  0  0  0  0  0  0  0  0  0  0  0
   37.3400   28.1610   41.6990 C   0  0  0  0  0  0  0  0  0  0  0  0
   36.7750   27.7270   42.8810 C   0  0  0  0  0  0  0  0  0  0  0  0
   36.5900   26.4130   43.2360 C   0  0  0  0  0  0  0  0  0  0  0  0
   36.9780   25.4090   42.3920 C   0  0  0  0  0  0  0  0  0  0  0  0
   37.5360   25.8480   41.2270 C   0  0  0  0  0  0  0  0  0  0  0  0
   37.7140   27.1370   40.8860 N   0  0  0  0  0  0  0  0  0  0  0  0
   37.9910   24.8560   40.2410 C   0  0  0  0  0  0  0  0  0  0  0  0
   39.1250   24.0840   40.2300 C   0  0  0  0  0  0  0  0  0  0  0  0
   39.1530   23.3100   39.1400 N   0  0  0  0  0  0  0  0  0  0  0  0
   38.0460   23.5610   38.4270 C   0  0  0  0  0  0  0  0  0  0  0  0
   37.3700   24.4880   39.1060 N   0  0  0  0  0  0  0  0  0  0  0  0
   41.7459   32.5011   41.7210 H   0  0  0  0  0  0  0  0  0  0  0  0
   41.7575   30.2059   42.6308 H   0  0  0  0  0  0  0  0  0  0  0  0
   39.7066   28.7897   42.3847 H   0  0  0  0  0  0  0  0  0  0  0  0
   35.4733   29.3452   40.4788 H   0  0  0  0  0  0  0  0  0  0  0  0
   35.5598   31.7198   39.5713 H   0  0  0  0  0  0  0  0  0  0  0  0
   37.5690   33.0577   39.8434 H   0  0  0  0  0  0  0  0  0  0  0  0
   38.1603   34.8208   41.2706 H   0  0  0  0  0  0  0  0  0  0  0  0
   38.8082   37.0625   40.3343 H   0  0  0  0  0  0  0  0  0  0  0  0
   42.2970   35.2883   38.6955 H   0  0  0  0  0  0  0  0  0  0  0  0
   36.4464   28.4952   43.5964 H   0  0  0  0  0  0  0  0  0  0  0  0
   36.1277   26.1671   44.2034 H   0  0  0  0  0  0  0  0  0  0  0  0
   36.8514   24.3428   42.6312 H   0  0  0  0  0  0  0  0  0  0  0  0
   39.9020   24.0995   41.0085 H   0  0  0  0  0  0  0  0  0  0  0  0
   37.7542   23.0959   37.4738 H   0  0  0  0  0  0  0  0  0  0  0  0
   36.4697   24.8800   38.7951 H   0  0  0  0  0  0  0  0  0  0  0  0
  1  2  2  0
  2  3  1  0
  4  3  2  0
  5  4  1  0
  6  5  2  0
  6 17  1  0
  7  6  1  0
  8  9  1  0
  8  7  2  0
  9 10  2  0
 10  1  1  0
 10  5  1  0
 11 12  2  0
 11  1  1  0
 13 12  1  0
 14 13  2  0
 15 14  1  0
 15 16  2  0
 16 11  1  0
 17 18  2  0
 18 19  1  0
 20 19  2  0
 21 20  1  0
 22 21  2  0
 22 17  1  0
 23 21  1  0
 24 23  2  0
 25 24  1  0
 26 27  1  0
 26 25  2  0
 27 23  1  0
  2 28  1  0
  3 29  1  0
  4 30  1  0
  7 31  1  0
  8 32  1  0
  9 33  1  0
 12 34  1  0
 13 35  1  0
 15 36  1  0
 18 37  1  0
 19 38  1  0
 20 39  1  0
 24 40  1  0
 26 41  1  0
 27 42  1  0
M  ISO  8  28  14  29  14  30  14  31  14  32  14  33  14  34  14  35  14
M  ISO  7  36  14  37  14  38  14  39  14  40  14  41  14  42   9
M  END
>  <minimizedAffinity>  (1) 
-6.50696325

>  <minimizedRMSD>  (1) 
1.43849778

$$$$
