
     RDKit          3D

 18 19  0  0  0  0  0  0  0  0999 V2000
   37.9693   28.8768   43.3740 C   0  0  0  0  0  0  0  0  0  0  0  0
   38.0882   27.4727   43.3107 C   0  0  0  0  0  0  0  0  0  0  0  0
   37.4399   26.8192   42.2463 C   0  0  0  0  0  0  0  0  0  0  0  0
   36.7356   27.5758   41.3381 N   0  0  0  0  0  0  0  0  0  0  0  0
   36.6511   28.9166   41.4410 C   0  0  0  0  0  0  0  0  0  0  0  0
   37.2709   29.5463   42.4599 N   0  0  0  0  0  0  0  0  0  0  0  0
   37.5414   25.3321   42.1503 C   0  0  0  0  0  0  0  0  0  0  0  0
   37.6439   25.0558   40.8156 F   0  0  0  0  0  0  0  0  0  0  0  0
   38.6250   24.8397   42.7974 F   0  0  0  0  0  0  0  0  0  0  0  0
   36.3808   24.7199   42.6396 F   0  0  0  0  0  0  0  0  0  0  0  0
   38.4535   29.4287   44.1801 H   0  0  0  0  0  0  0  0  0  0  0  0
   38.6547   26.9247   44.0510 H   0  0  0  0  0  0  0  0  0  0  0  0
   35.8600   29.5412   40.3826 C   0  0  0  0  0  0  0  0  0  0  0  0
   34.9914   29.0206   39.4968 N   0  0  0  0  0  0  0  0  0  0  0  0
   34.5099   29.9505   38.7267 O   0  0  0  0  0  0  0  0  0  0  0  0
   35.0512   31.1008   39.0897 C   0  0  0  0  0  0  0  0  0  0  0  0
   34.9619   32.1258   38.7519 H   0  0  0  0  0  0  0  0  0  0  0  0
   35.8894   30.8594   40.1149 N   0  0  0  0  0  0  0  0  0  0  0  0
  2  1  2  0
  3  2  1  0
  4  5  1  0
  4  3  2  0
  5  6  2  0
  6  1  1  0
  7  3  1  0
  7 10  1  0
  7  9  1  0
  8  7  1  0
  1 11  1  0
  2 12  1  0
 13 14  2  0
 14 15  1  0
 15 16  1  0
 16 17  1  0
 16 18  2  0
 18 13  1  0
  5 13  1  0
M  ISO  3  11  14  12  14  17  14
M  END
>  <DihAtoms>  (1) 
3,4,12,13

>  <DihDeg>  (1) 
90.44934929245268

$$$$
