
     RDKit          3D

 35 37  0  0  1  0  0  0  0  0999 V2000
   36.7860   27.6130   39.9180 C   0  0  2  0  0  0  0  0  0  0  0  0
   36.7880   26.1320   39.7820 C   0  0  0  0  0  0  0  0  0  0  0  0
   35.9210   25.9400   38.5380 C   0  0  0  0  0  0  0  0  0  0  0  0
   36.0720   27.2060   37.7290 C   0  0  0  0  0  0  0  0  0  0  0  0
   37.1130   28.0350   38.4880 C   0  0  2  0  0  0  0  0  0  0  0  0
   38.8550   29.5500   42.3800 C   0  0  0  0  0  0  0  0  0  0  0  0
   38.0490   29.3580   41.2100 C   0  0  0  0  0  0  0  0  0  0  0  0
   37.6930   28.0710   40.9250 C   0  0  0  0  0  0  0  0  0  0  0  0
   38.1330   27.0670   41.7770 N   0  0  0  0  0  0  0  0  0  0  0  0
   38.8800   27.3030   42.8530 C   0  0  0  0  0  0  0  0  0  0  0  0
   39.2400   28.5560   43.1510 N   0  0  0  0  0  0  0  0  0  0  0  0
   37.6800   30.4600   40.3980 N   0  0  0  0  0  0  0  0  0  0  0  0
   36.7110   31.4210   40.7290 C   0  0  0  0  0  0  0  0  0  0  0  0
   35.6430   30.9360   41.3200 N   0  0  0  0  0  0  0  0  0  0  0  0
   37.0030   32.7970   40.3890 N   0  0  0  0  0  0  0  0  0  0  0  0
   34.8550   31.5400   41.6000 H   0  0  0  0  0  0  0  0  0  0  0  0
   38.4850   27.7980   38.0860 C   0  0  0  0  0  0  0  0  0  0  0  0
   39.6360   28.2920   38.5090 N   0  0  0  0  0  0  0  0  0  0  0  0
   40.6310   27.7820   37.8470 O   0  0  0  0  0  0  0  0  0  0  0  0
   40.1650   26.9360   36.9680 C   0  0  0  0  0  0  0  0  0  0  0  0
   38.8440   26.9280   37.0950 N   0  0  0  0  0  0  0  0  0  0  0  0
   35.8450   28.0551   40.2773 H   0  0  0  0  0  0  0  0  0  0  0  0
   37.8055   25.7440   39.6266 H   0  0  0  0  0  0  0  0  0  0  0  0
   36.4209   25.5991   40.6715 H   0  0  0  0  0  0  0  0  0  0  0  0
   36.2695   25.0721   37.9590 H   0  0  0  0  0  0  0  0  0  0  0  0
   34.8699   25.7531   38.8032 H   0  0  0  0  0  0  0  0  0  0  0  0
   35.1149   27.7451   37.6711 H   0  0  0  0  0  0  0  0  0  0  0  0
   36.3797   27.0019   36.6928 H   0  0  0  0  0  0  0  0  0  0  0  0
   37.0545   29.1184   38.3069 H   0  0  0  0  0  0  0  0  0  0  0  0
   39.1647   30.5719   42.6443 H   0  0  0  0  0  0  0  0  0  0  0  0
   39.2004   26.4696   43.4955 H   0  0  0  0  0  0  0  0  0  0  0  0
   38.1610   30.5641   39.4932 H   0  0  0  0  0  0  0  0  0  0  0  0
   36.3230   33.5379   40.6117 H   0  0  0  0  0  0  0  0  0  0  0  0
   37.8908   33.0354   39.9243 H   0  0  0  0  0  0  0  0  0  0  0  0
   40.7564   26.3416   36.2560 H   0  0  0  0  0  0  0  0  0  0  0  0
  1  8  1  0
  2  1  1  0
  3  2  1  0
  4  5  1  0
  4  3  1  0
  5  1  1  0
  6 11  2  0
  7  6  1  0
  8  7  2  0
  8  9  1  0
  9 10  2  0
 10 11  1  0
 12 13  1  0
 12  7  1  0
 13 14  2  0
 14 16  1  0
 15 13  1  0
 17  5  1  0
 17 18  2  0
 19 18  1  0
 20 21  2  0
 20 19  1  0
 21 17  1  0
  1 22  1  1
  2 23  1  0
  2 24  1  0
  3 25  1  0
  3 26  1  0
  4 27  1  0
  4 28  1  0
  5 29  1  1
  6 30  1  0
 10 31  1  0
 12 32  1  0
 15 33  1  0
 15 34  1  0
 20 35  1  0
M  ISO  8  22  13  23  13  24  13  25  13  26  13  27  13  28  13  29  13
M  ISO  3  30  14  31  14  35  14
M  END
>  <minimizedAffinity>  (1) 
-4.93929338

>  <minimizedRMSD>  (1) 
0.993440449

$$$$
