
     RDKit          3D

 50 54  0  0  0  0  0  0  0  0999 V2000
   37.4890   28.5080   43.8350 C   0  0  0  0  0  0  0  0  0  0  0  0
   37.1190   27.1560   43.8040 C   0  0  0  0  0  0  0  0  0  0  0  0
   36.8640   26.5980   42.5500 C   0  0  0  0  0  0  0  0  0  0  0  0
   36.9870   27.3830   41.4550 N   0  0  0  0  0  0  0  0  0  0  0  0
   37.3440   28.6760   41.5130 C   0  0  0  0  0  0  0  0  0  0  0  0
   37.5990   29.2510   42.7130 N   0  0  0  0  0  0  0  0  0  0  0  0
   37.4400   29.3980   40.2930 N   0  0  0  0  0  0  0  0  0  0  0  0
   37.2110   28.8310   39.1140 C   0  0  0  0  0  0  0  0  0  0  0  0
   37.3420   29.6730   38.0380 C   0  0  0  0  0  0  0  0  0  0  0  0
   37.6790   31.0010   38.1090 C   0  0  0  0  0  0  0  0  0  0  0  0
   37.7950   31.7630   37.1090 O   0  0  0  0  0  0  0  0  0  0  0  0
   37.9010   31.5280   39.3270 N   0  0  0  0  0  0  0  0  0  0  0  0
   37.7790   30.7160   40.4240 C   0  0  0  0  0  0  0  0  0  0  0  0
   37.9980   31.2600   41.5510 O   0  0  0  0  0  0  0  0  0  0  0  0
   38.2660   32.9070   39.5220 C   0  0  0  0  0  0  0  0  0  0  0  0
   37.5690   34.0800   39.6620 C   0  0  0  0  0  0  0  0  0  0  0  0
   38.4590   35.0840   39.8180 N   0  0  0  0  0  0  0  0  0  0  0  0
   39.7210   34.5670   39.7790 C   0  0  0  0  0  0  0  0  0  0  0  0
   40.9320   35.2020   39.8920 C   0  0  0  0  0  0  0  0  0  0  0  0
   42.1330   34.4840   39.8230 C   0  0  0  0  0  0  0  0  0  0  0  0
   42.0470   33.1270   39.6400 C   0  0  0  0  0  0  0  0  0  0  0  0
   40.8230   32.5190   39.5300 C   0  0  0  0  0  0  0  0  0  0  0  0
   39.6210   33.2130   39.5950 C   0  0  0  0  0  0  0  0  0  0  0  0
   37.0960   29.1750   36.6640 C   0  0  0  0  0  0  0  0  0  0  0  0
   32.8760   29.1140   36.3360 C   0  0  0  0  0  0  0  0  0  0  0  0
   33.5730   29.3120   35.1360 C   0  0  0  0  0  0  0  0  0  0  0  0
   34.9510   29.3330   35.1680 C   0  0  0  0  0  0  0  0  0  0  0  0
   35.6330   29.1640   36.3500 C   0  0  0  0  0  0  0  0  0  0  0  0
   34.9090   28.9660   37.5350 C   0  0  0  0  0  0  0  0  0  0  0  0
   33.5290   28.9400   37.5360 C   0  0  0  0  0  0  0  0  0  0  0  0
   31.1390   29.1120   36.2680 S   0  0  0  0  0  0  0  0  0  0  0  0
   30.5290   29.7220   37.5040 O   0  0  0  0  0  0  0  0  0  0  0  0
   30.5910   27.7490   36.0020 O   0  0  0  0  0  0  0  0  0  0  0  0
   37.6968   28.9796   44.8068 H   0  0  0  0  0  0  0  0  0  0  0  0
   37.0335   26.5620   44.7259 H   0  0  0  0  0  0  0  0  0  0  0  0
   36.5693   25.5425   42.4543 H   0  0  0  0  0  0  0  0  0  0  0  0
   36.9380   27.7707   39.0082 H   0  0  0  0  0  0  0  0  0  0  0  0
   36.4741   34.1850   39.6494 H   0  0  0  0  0  0  0  0  0  0  0  0
   38.2232   36.0785   39.9457 H   0  0  0  0  0  0  0  0  0  0  0  0
   40.9603   36.2918   40.0391 H   0  0  0  0  0  0  0  0  0  0  0  0
   43.1065   34.9883   39.9120 H   0  0  0  0  0  0  0  0  0  0  0  0
   42.9649   32.5236   39.5812 H   0  0  0  0  0  0  0  0  0  0  0  0
   40.7911   31.4293   39.3832 H   0  0  0  0  0  0  0  0  0  0  0  0
   37.6127   29.8295   35.9466 H   0  0  0  0  0  0  0  0  0  0  0  0
   37.4771   28.1457   36.5915 H   0  0  0  0  0  0  0  0  0  0  0  0
   33.0315   29.4478   34.1882 H   0  0  0  0  0  0  0  0  0  0  0  0
   35.5128   29.4871   34.2350 H   0  0  0  0  0  0  0  0  0  0  0  0
   35.4516   28.8288   38.4820 H   0  0  0  0  0  0  0  0  0  0  0  0
   32.9668   28.7847   38.4686 H   0  0  0  0  0  0  0  0  0  0  0  0
   30.7845   29.9024   35.2066 H   0  0  0  0  0  0  0  0  0  0  0  0
  2  1  2  0
  3  2  1  0
  4  5  1  0
  4  3  2  0
  5  6  2  0
  6  1  1  0
  7 13  1  0
  7  5  1  0
  8  7  1  0
  9 10  1  0
  9  8  2  0
 10 12  1  0
 11 10  2  0
 12 15  1  0
 12 13  1  0
 13 14  2  0
 15 23  1  0
 15 16  2  0
 16 17  1  0
 18 17  1  0
 18 19  2  0
 20 19  1  0
 21 20  2  0
 22 23  2  0
 22 21  1  0
 23 18  1  0
 24  9  1  0
 25 30  2  0
 26 27  2  0
 26 25  1  0
 27 28  1  0
 28 24  1  0
 28 29  2  0
 29 30  1  0
 31 25  1  0
 31 32  2  0
 33 31  2  0
  1 34  1  0
  2 35  1  0
  3 36  1  0
  8 37  1  0
 16 38  1  0
 17 39  1  0
 19 40  1  0
 20 41  1  0
 21 42  1  0
 22 43  1  0
 24 44  1  0
 24 45  1  0
 26 46  1  0
 27 47  1  0
 29 48  1  0
 30 49  1  0
 31 50  1  0
M  END
>  <minimizedAffinity>  (1) 
-7.23822212

>  <minimizedRMSD>  (1) 
0.969690025

$$$$
