
     RDKit          3D

 52 57  0  0  0  0  0  0  0  0999 V2000
   43.1760   34.5590   40.9360 C   0  0  0  0  0  0  0  0  0  0  0  0
   43.6710   35.2540   42.0590 C   0  0  0  0  0  0  0  0  0  0  0  0
   42.9510   36.2670   42.5820 C   0  0  0  0  0  0  0  0  0  0  0  0
   41.7710   36.5650   41.9890 N   0  0  0  0  0  0  0  0  0  0  0  0
   41.2950   35.9100   40.9230 C   0  0  0  0  0  0  0  0  0  0  0  0
   41.9940   34.9240   40.4130 N   0  0  0  0  0  0  0  0  0  0  0  0
   43.5240   36.9440   43.7570 C   0  0  0  0  0  0  0  0  0  0  0  0
   44.2940   36.1420   44.6890 C   0  0  0  0  0  0  0  0  0  0  0  0
   45.4750   35.3790   44.3010 C   0  0  0  0  0  0  0  0  0  0  0  0
   46.4910   35.2960   43.3350 C   0  0  0  0  0  0  0  0  0  0  0  0
   47.3000   34.2620   43.5080 N   0  0  0  0  0  0  0  0  0  0  0  0
   46.9010   33.5810   44.5810 C   0  0  0  0  0  0  0  0  0  0  0  0
   47.4700   32.4420   45.0950 C   0  0  0  0  0  0  0  0  0  0  0  0
   46.8910   31.8900   46.2140 C   0  0  0  0  0  0  0  0  0  0  0  0
   45.7970   32.4820   46.7630 C   0  0  0  0  0  0  0  0  0  0  0  0
   45.2780   33.6220   46.1980 C   0  0  0  0  0  0  0  0  0  0  0  0
   45.7960   34.2450   45.0720 C   0  0  0  0  0  0  0  0  0  0  0  0
   39.7260   36.3630   40.1750 S   0  0  0  0  0  0  0  0  0  0  0  0
   37.0760   33.4560   39.8790 N   0  0  0  0  0  0  0  0  0  0  0  0
   37.4230   34.6820   39.5880 N   0  0  0  0  0  0  0  0  0  0  0  0
   38.6560   34.9170   40.1140 C   0  0  0  0  0  0  0  0  0  0  0  0
   38.9980   33.7210   40.7310 C   0  0  0  0  0  0  0  0  0  0  0  0
   37.9480   32.7900   40.5620 C   0  0  0  0  0  0  0  0  0  0  0  0
   38.0580   31.5130   41.1570 C   0  0  0  0  0  0  0  0  0  0  0  0
   39.1210   31.2360   41.9660 N   0  0  0  0  0  0  0  0  0  0  0  0
   39.3300   30.1090   42.6160 C   0  0  0  0  0  0  0  0  0  0  0  0
   38.4830   29.0750   42.5480 N   0  0  0  0  0  0  0  0  0  0  0  0
   37.3890   29.2260   41.7740 C   0  0  0  0  0  0  0  0  0  0  0  0
   36.4900   28.2050   41.6600 C   0  0  0  0  0  0  0  0  0  0  0  0
   35.3520   28.3250   40.8620 C   0  0  0  0  0  0  0  0  0  0  0  0
   35.1860   29.5410   40.1910 C   0  0  0  0  0  0  0  0  0  0  0  0
   36.1390   30.5050   40.3680 C   0  0  0  0  0  0  0  0  0  0  0  0
   37.2470   30.4270   41.1300 C   0  0  0  0  0  0  0  0  0  0  0  0
   43.7495   33.7303   40.4950 H   0  0  0  0  0  0  0  0  0  0  0  0
   44.6364   34.9720   42.5045 H   0  0  0  0  0  0  0  0  0  0  0  0
   44.1845   37.7419   43.3867 H   0  0  0  0  0  0  0  0  0  0  0  0
   42.6517   37.2818   44.3358 H   0  0  0  0  0  0  0  0  0  0  0  0
   44.6264   36.8323   45.4783 H   0  0  0  0  0  0  0  0  0  0  0  0
   43.5820   35.3368   44.9229 H   0  0  0  0  0  0  0  0  0  0  0  0
   46.6038   36.0197   42.5143 H   0  0  0  0  0  0  0  0  0  0  0  0
   48.1050   34.0236   42.9113 H   0  0  0  0  0  0  0  0  0  0  0  0
   48.3566   31.9875   44.6289 H   0  0  0  0  0  0  0  0  0  0  0  0
   47.3099   30.9765   46.6613 H   0  0  0  0  0  0  0  0  0  0  0  0
   45.3278   32.0487   47.6586 H   0  0  0  0  0  0  0  0  0  0  0  0
   44.3919   34.0709   46.6705 H   0  0  0  0  0  0  0  0  0  0  0  0
   36.1754   33.0510   39.5861 H   0  0  0  0  0  0  0  0  0  0  0  0
   39.9388   33.5282   41.2674 H   0  0  0  0  0  0  0  0  0  0  0  0
   40.2331   30.0146   43.2368 H   0  0  0  0  0  0  0  0  0  0  0  0
   36.6666   27.2682   42.2088 H   0  0  0  0  0  0  0  0  0  0  0  0
   34.6236   27.5064   40.7656 H   0  0  0  0  0  0  0  0  0  0  0  0
   34.3159   29.7161   39.5412 H   0  0  0  0  0  0  0  0  0  0  0  0
   35.9836   31.4504   39.8275 H   0  0  0  0  0  0  0  0  0  0  0  0
  1  2  2  0
  2  3  1  0
  3  7  1  0
  4  3  2  0
  5  4  1  0
  6  5  2  0
  6  1  1  0
  7  8  1  0
  9  8  1  0
  9 17  1  0
 10 11  1  0
 10  9  2  0
 11 12  1  0
 12 17  2  0
 12 13  1  0
 13 14  2  0
 14 15  1  0
 16 15  2  0
 17 16  1  0
 18  5  1  0
 19 23  1  0
 20 19  1  0
 20 21  2  0
 21 18  1  0
 21 22  1  0
 23 22  2  0
 23 24  1  0
 24 25  2  0
 25 26  1  0
 27 26  2  0
 28 27  1  0
 29 28  2  0
 30 29  1  0
 31 32  1  0
 31 30  2  0
 32 33  2  0
 33 24  1  0
 33 28  1  0
  1 34  1  0
  2 35  1  0
  7 36  1  0
  7 37  1  0
  8 38  1  0
  8 39  1  0
 10 40  1  0
 11 41  1  0
 13 42  1  0
 14 43  1  0
 15 44  1  0
 16 45  1  0
 19 46  1  0
 22 47  1  0
 26 48  1  0
 29 49  1  0
 30 50  1  0
 31 51  1  0
 32 52  1  0
M  END
>  <minimizedAffinity>  (1) 
-8.17999935

>  <minimizedRMSD>  (1) 
0.949101865

$$$$
