
     RDKit          3D

 21 22  0  0  0  0  0  0  0  0999 V2000
   37.9736   28.8789   43.3684 C   0  0  0  0  0  0  0  0  0  0  0  0
   38.0797   27.4690   43.3018 C   0  0  0  0  0  0  0  0  0  0  0  0
   37.4335   26.8202   42.2552 C   0  0  0  0  0  0  0  0  0  0  0  0
   36.7367   27.5826   41.3563 N   0  0  0  0  0  0  0  0  0  0  0  0
   36.6535   28.9156   41.4441 C   0  0  0  0  0  0  0  0  0  0  0  0
   37.2747   29.5513   42.4523 N   0  0  0  0  0  0  0  0  0  0  0  0
   37.5222   25.3329   42.1510 C   0  0  0  0  0  0  0  0  0  0  0  0
   37.6575   25.0525   40.8058 F   0  0  0  0  0  0  0  0  0  0  0  0
   38.6285   24.8419   42.8000 F   0  0  0  0  0  0  0  0  0  0  0  0
   36.3860   24.7102   42.6382 F   0  0  0  0  0  0  0  0  0  0  0  0
   38.4821   29.3792   44.1904 H   0  0  0  0  0  0  0  0  0  0  0  0
   38.6462   26.9526   44.0490 H   0  0  0  0  0  0  0  0  0  0  0  0
   35.8969   29.6895   40.4596 C   0  0  0  0  0  0  0  0  0  0  0  0
   35.3015   30.8814   40.8629 C   0  0  0  0  0  0  0  0  0  0  0  0
   34.5829   31.6297   39.9547 C   0  0  0  0  0  0  0  0  0  0  0  0
   34.1252   32.5425   40.2572 H   0  0  0  0  0  0  0  0  0  0  0  0
   34.5050   31.1402   38.7034 N   0  0  0  0  0  0  0  0  0  0  0  0
   35.0795   29.9867   38.3073 C   0  0  0  0  0  0  0  0  0  0  0  0
   35.7869   29.2436   39.1882 N   0  0  0  0  0  0  0  0  0  0  0  0
   35.4302   31.1868   41.9135 H   0  0  0  0  0  0  0  0  0  0  0  0
   34.9634   29.6740   37.2847 H   0  0  0  0  0  0  0  0  0  0  0  0
  2  1  2  0
  3  2  1  0
  4  5  1  0
  4  3  2  0
  5  6  2  0
  6  1  1  0
  7  3  1  0
  7 10  1  0
  7  9  1  0
  8  7  1  0
  1 11  1  0
  2 12  1  0
 13 14  2  0
 14 15  1  0
 15 16  1  0
 15 17  2  0
 17 18  1  0
 18 19  2  0
 19 13  1  0
 14 20  1  0
 18 21  1  0
  5 13  1  0
M  ISO  3  11  14  12  14  16  14
M  END
>  <DihAtoms>  (1) 
3,4,12,13

>  <DihDeg>  (1) 
-0.002957749002335764

$$$$
