
     RDKit          3D

 24 26  0  0  0  0  0  0  0  0999 V2000
   37.4300   32.4810   40.0390 C   0  0  0  0  0  0  0  0  0  0  0  0
   37.5350   31.3640   40.7970 N   0  0  0  0  0  0  0  0  0  0  0  0
   37.1640   30.3270   40.0760 O   0  0  0  0  0  0  0  0  0  0  0  0
   36.8300   30.7690   38.8860 C   0  0  0  0  0  0  0  0  0  0  0  0
   36.9820   32.0980   38.8250 N   0  0  0  0  0  0  0  0  0  0  0  0
   36.3540   29.9700   37.7520 C   0  0  0  0  0  0  0  0  0  0  0  0
   35.2270   29.1560   37.8330 C   0  0  0  0  0  0  0  0  0  0  0  0
   34.8830   28.4470   36.6780 C   0  0  0  0  0  0  0  0  0  0  0  0
   35.5760   28.5180   35.5290 N   0  0  0  0  0  0  0  0  0  0  0  0
   36.6550   29.3140   35.4930 C   0  0  0  0  0  0  0  0  0  0  0  0
   37.0320   30.0260   36.5920 N   0  0  0  0  0  0  0  0  0  0  0  0
   37.7080   33.8030   40.3640 O   0  0  0  0  0  0  0  0  0  0  0  0
   41.1440   34.4280   39.3700 C   0  0  0  0  0  0  0  0  0  0  0  0
   41.1740   35.8370   39.5240 C   0  0  0  0  0  0  0  0  0  0  0  0
   39.9780   36.4590   39.9670 C   0  0  0  0  0  0  0  0  0  0  0  0
   38.8960   35.6640   40.2110 N   0  0  0  0  0  0  0  0  0  0  0  0
   38.9250   34.3450   40.0500 C   0  0  0  0  0  0  0  0  0  0  0  0
   40.0380   33.7210   39.6320 N   0  0  0  0  0  0  0  0  0  0  0  0
   34.6376   29.0750   38.7582 H   0  0  0  0  0  0  0  0  0  0  0  0
   33.9971   27.7958   36.7118 H   0  0  0  0  0  0  0  0  0  0  0  0
   37.2420   29.3929   34.5661 H   0  0  0  0  0  0  0  0  0  0  0  0
   42.0490   33.9046   39.0279 H   0  0  0  0  0  0  0  0  0  0  0  0
   42.0816   36.4205   39.3102 H   0  0  0  0  0  0  0  0  0  0  0  0
   39.9247   37.5484   40.1093 H   0  0  0  0  0  0  0  0  0  0  0  0
  1 12  1  0
  1  2  2  0
  3  2  1  0
  4  3  1  0
  5  4  2  0
  5  1  1  0
  6  7  2  0
  6  4  1  0
  8  7  1  0
  9  8  2  0
 10  9  1  0
 10 11  2  0
 11  6  1  0
 13 14  2  0
 13 18  1  0
 14 15  1  0
 15 16  2  0
 17 16  1  0
 17 12  1  0
 18 17  2  0
  7 19  1  0
  8 20  1  0
 10 21  1  0
 13 22  1  0
 14 23  1  0
 15 24  1  0
M  ISO  6  19  14  20  14  21  14  22  14  23  14  24  14
M  END
>  <minimizedAffinity>  (1) 
-4.5477519

>  <minimizedRMSD>  (1) 
6.2977128

$$$$
