
     RDKit          3D

 21 22  0  0  0  0  0  0  0  0999 V2000
   37.9736   28.8789   43.3684 C   0  0  0  0  0  0  0  0  0  0  0  0
   38.0797   27.4690   43.3018 C   0  0  0  0  0  0  0  0  0  0  0  0
   37.4335   26.8202   42.2552 C   0  0  0  0  0  0  0  0  0  0  0  0
   36.7367   27.5826   41.3563 N   0  0  0  0  0  0  0  0  0  0  0  0
   36.6535   28.9156   41.4441 C   0  0  0  0  0  0  0  0  0  0  0  0
   37.2747   29.5513   42.4523 N   0  0  0  0  0  0  0  0  0  0  0  0
   37.5222   25.3329   42.1510 C   0  0  0  0  0  0  0  0  0  0  0  0
   37.6575   25.0525   40.8058 F   0  0  0  0  0  0  0  0  0  0  0  0
   38.6285   24.8419   42.8000 F   0  0  0  0  0  0  0  0  0  0  0  0
   36.3860   24.7102   42.6382 F   0  0  0  0  0  0  0  0  0  0  0  0
   38.4821   29.3792   44.1904 H   0  0  0  0  0  0  0  0  0  0  0  0
   38.6462   26.9526   44.0490 H   0  0  0  0  0  0  0  0  0  0  0  0
   35.8969   29.6895   40.4596 C   0  0  0  0  0  0  0  0  0  0  0  0
   35.5311   29.0741   39.2657 C   0  0  0  0  0  0  0  0  0  0  0  0
   34.8178   29.7812   38.3211 C   0  0  0  0  0  0  0  0  0  0  0  0
   34.5350   29.3159   37.4059 H   0  0  0  0  0  0  0  0  0  0  0  0
   34.5159   31.0562   38.6290 N   0  0  0  0  0  0  0  0  0  0  0  0
   34.8674   31.6572   39.7834 C   0  0  0  0  0  0  0  0  0  0  0  0
   35.5671   30.9747   40.7179 N   0  0  0  0  0  0  0  0  0  0  0  0
   35.8319   28.0246   39.1189 H   0  0  0  0  0  0  0  0  0  0  0  0
   34.5816   32.6818   39.9426 H   0  0  0  0  0  0  0  0  0  0  0  0
  2  1  2  0
  3  2  1  0
  4  5  1  0
  4  3  2  0
  5  6  2  0
  6  1  1  0
  7  3  1  0
  7 10  1  0
  7  9  1  0
  8  7  1  0
  1 11  1  0
  2 12  1  0
 13 14  2  0
 14 15  1  0
 15 16  1  0
 15 17  2  0
 17 18  1  0
 18 19  2  0
 19 13  1  0
 14 20  1  0
 18 21  1  0
  5 13  1  0
M  ISO  3  11  14  12  14  16  14
M  END
>  <DihAtoms>  (1) 
3,4,12,13

>  <DihDeg>  (1) 
-0.002957749002335764

$$$$
