
     RDKit          3D

 20 21  0  0  0  0  0  0  0  0999 V2000
   37.9681   28.8838   43.3694 C   0  0  0  0  0  0  0  0  0  0  0  0
   38.0794   27.4724   43.3071 C   0  0  0  0  0  0  0  0  0  0  0  0
   37.4358   26.8236   42.2548 C   0  0  0  0  0  0  0  0  0  0  0  0
   36.7399   27.5819   41.3511 N   0  0  0  0  0  0  0  0  0  0  0  0
   36.6613   28.9129   41.4487 C   0  0  0  0  0  0  0  0  0  0  0  0
   37.2722   29.5492   42.4509 N   0  0  0  0  0  0  0  0  0  0  0  0
   37.5257   25.3311   42.1478 C   0  0  0  0  0  0  0  0  0  0  0  0
   37.6480   25.0500   40.8106 F   0  0  0  0  0  0  0  0  0  0  0  0
   38.6267   24.8419   42.7940 F   0  0  0  0  0  0  0  0  0  0  0  0
   36.3889   24.7082   42.6387 F   0  0  0  0  0  0  0  0  0  0  0  0
   38.4589   29.4083   44.1766 H   0  0  0  0  0  0  0  0  0  0  0  0
   38.6396   26.9495   44.0486 H   0  0  0  0  0  0  0  0  0  0  0  0
   35.9150   29.7013   40.4756 C   0  0  0  0  0  0  0  0  0  0  0  0
   35.4989   30.9952   40.5413 C   0  0  0  0  0  0  0  0  0  0  0  0
   34.8275   31.2747   39.3598 C   0  0  0  0  0  0  0  0  0  0  0  0
   34.3727   32.2068   39.0885 H   0  0  0  0  0  0  0  0  0  0  0  0
   34.8533   30.1484   38.6113 N   0  0  0  0  0  0  0  0  0  0  0  0
   35.4972   29.2184   39.2729 N   0  0  0  0  0  0  0  0  0  0  0  0
   35.6634   31.6852   41.3705 H   0  0  0  0  0  0  0  0  0  0  0  0
   34.4528   29.9802   37.6682 H   0  0  0  0  0  0  0  0  0  0  0  0
  2  1  2  0
  3  2  1  0
  4  5  1  0
  4  3  2  0
  5  6  2  0
  6  1  1  0
  7  3  1  0
  7 10  1  0
  7  9  1  0
  8  7  1  0
  1 11  1  0
  2 12  1  0
 13 14  1  0
 14 15  2  0
 15 16  1  0
 15 17  1  0
 17 18  1  0
 18 13  2  0
 14 19  1  0
 17 20  1  0
  5 13  1  0
M  ISO  3  11  14  12  14  16  14
M  END
>  <DihAtoms>  (1) 
3,4,12,13

>  <DihDeg>  (1) 
165.42514647303707

$$$$
