
     RDKit          3D

 30 32  0  0  0  0  0  0  0  0999 V2000
   36.0040   30.2590   41.0260 C   0  0  0  0  0  0  0  0  0  0  0  0
   36.6520   30.7080   39.7810 C   0  0  0  0  0  0  0  0  0  0  0  0
   37.5650   31.7200   39.8700 C   0  0  0  0  0  0  0  0  0  0  0  0
   38.1940   32.1670   38.7180 C   0  0  0  0  0  0  0  0  0  0  0  0
   37.8820   31.5730   37.4980 C   0  0  0  0  0  0  0  0  0  0  0  0
   36.9730   30.5620   37.3900 C   0  0  0  0  0  0  0  0  0  0  0  0
   36.6320   29.9420   36.1950 C   0  0  0  0  0  0  0  0  0  0  0  0
   35.7000   28.9240   36.1790 C   0  0  0  0  0  0  0  0  0  0  0  0
   35.0650   28.4710   37.3280 C   0  0  0  0  0  0  0  0  0  0  0  0
   35.4410   29.1180   38.4730 C   0  0  0  0  0  0  0  0  0  0  0  0
   36.3640   30.1410   38.5550 C   0  0  0  0  0  0  0  0  0  0  0  0
   38.5970   28.8360   43.1720 C   0  0  0  0  0  0  0  0  0  0  0  0
   38.2870   27.4740   43.1350 C   0  0  0  0  0  0  0  0  0  0  0  0
   37.2040   27.0020   42.3910 C   0  0  0  0  0  0  0  0  0  0  0  0
   36.4930   27.9570   41.7220 N   0  0  0  0  0  0  0  0  0  0  0  0
   36.7960   29.2540   41.7630 C   0  0  0  0  0  0  0  0  0  0  0  0
   37.8430   29.6970   42.4850 N   0  0  0  0  0  0  0  0  0  0  0  0
   36.9430   25.6700   42.3860 O   0  0  0  0  0  0  0  0  0  0  0  0
   35.0282   29.8187   40.7733 H   0  0  0  0  0  0  0  0  0  0  0  0
   35.9032   31.1389   41.6783 H   0  0  0  0  0  0  0  0  0  0  0  0
   37.7985   32.1749   40.8439 H   0  0  0  0  0  0  0  0  0  0  0  0
   38.9313   32.9818   38.7674 H   0  0  0  0  0  0  0  0  0  0  0  0
   38.3866   31.9319   36.5889 H   0  0  0  0  0  0  0  0  0  0  0  0
   37.1070   30.2638   35.2565 H   0  0  0  0  0  0  0  0  0  0  0  0
   35.4501   28.4524   35.2172 H   0  0  0  0  0  0  0  0  0  0  0  0
   34.3220   27.6599   37.3181 H   0  0  0  0  0  0  0  0  0  0  0  0
   34.9660   28.7946   39.4110 H   0  0  0  0  0  0  0  0  0  0  0  0
   39.4537   29.1950   43.7613 H   0  0  0  0  0  0  0  0  0  0  0  0
   38.9061   26.7624   43.7010 H   0  0  0  0  0  0  0  0  0  0  0  0
   36.1792   25.3172   41.8642 H   0  0  0  0  0  0  0  0  0  0  0  0
  1 16  1  0
  2  3  2  0
  2  1  1  0
  4  3  1  0
  5  4  2  0
  6  5  1  0
  6 11  2  0
  7  6  1  0
  8  7  2  0
  8  9  1  0
  9 10  2  0
 10 11  1  0
 11  2  1  0
 13 12  2  0
 14 13  1  0
 15 16  1  0
 15 14  2  0
 16 17  2  0
 17 12  1  0
 18 14  1  0
  1 19  1  0
  1 20  1  0
  3 21  1  0
  4 22  1  0
  5 23  1  0
  7 24  1  0
  8 25  1  0
  9 26  1  0
 10 27  1  0
 12 28  1  0
 13 29  1  0
 18 30  1  0
M  ISO  8  19   8  20   8  21  14  22  14  23  14  24  14  25  14  26  14
M  ISO  4  27  14  28  14  29  14  30   3
M  END
>  <minimizedAffinity>  (1) 
-5.38156605

>  <minimizedRMSD>  (1) 
2.05645466

$$$$
