
     RDKit          3D

 46 50  0  0  0  0  0  0  0  0999 V2000
   36.2480   29.1910   37.8120 C   0  0  0  0  0  0  0  0  0  0  0  0
   37.6080   29.1160   37.7780 C   0  0  0  0  0  0  0  0  0  0  0  0
   38.3670   28.6110   36.7620 C   0  0  0  0  0  0  0  0  0  0  0  0
   37.7290   28.1210   35.6520 C   0  0  0  0  0  0  0  0  0  0  0  0
   36.3400   28.1670   35.6240 C   0  0  0  0  0  0  0  0  0  0  0  0
   35.7680   27.6480   34.4930 C   0  0  0  0  0  0  0  0  0  0  0  0
   34.4280   27.6210   34.3550 C   0  0  0  0  0  0  0  0  0  0  0  0
   33.6760   28.1230   35.3700 C   0  0  0  0  0  0  0  0  0  0  0  0
   34.2600   28.6520   36.5200 C   0  0  0  0  0  0  0  0  0  0  0  0
   35.6100   28.6930   36.6880 C   0  0  0  0  0  0  0  0  0  0  0  0
   33.2220   29.0950   37.4950 C   0  0  0  0  0  0  0  0  0  0  0  0
   32.0180   29.5650   36.8570 C   0  0  0  0  0  0  0  0  0  0  0  0
   30.9650   29.9350   37.6510 C   0  0  0  0  0  0  0  0  0  0  0  0
   31.5680   29.6750   38.8090 N   0  0  0  0  0  0  0  0  0  0  0  0
   32.7500   29.2350   38.7060 N   0  0  0  0  0  0  0  0  0  0  0  0
   35.4030   29.7740   38.8800 C   0  0  0  0  0  0  0  0  0  0  0  0
   36.1810   30.3970   40.0060 C   0  0  0  0  0  0  0  0  0  0  0  0
   38.0960   28.3360   42.1450 C   0  0  0  0  0  0  0  0  0  0  0  0
   36.8640   27.7650   42.2580 C   0  0  0  0  0  0  0  0  0  0  0  0
   36.0090   28.5050   41.4420 C   0  0  0  0  0  0  0  0  0  0  0  0
   36.7990   29.4710   40.8960 N   0  0  0  0  0  0  0  0  0  0  0  0
   38.0110   29.3860   41.2940 N   0  0  0  0  0  0  0  0  0  0  0  0
   40.5110   26.4280   44.2510 C   0  0  0  0  0  0  0  0  0  0  0  0
   39.3110   26.7720   43.6210 C   0  0  0  0  0  0  0  0  0  0  0  0
   39.3130   27.9240   42.8170 C   0  0  0  0  0  0  0  0  0  0  0  0
   40.4470   28.6480   42.6790 N   0  0  0  0  0  0  0  0  0  0  0  0
   41.5940   28.2670   43.3180 C   0  0  0  0  0  0  0  0  0  0  0  0
   41.6160   27.1640   44.0970 N   0  0  0  0  0  0  0  0  0  0  0  0
   38.1477   29.5004   38.6561 H   0  0  0  0  0  0  0  0  0  0  0  0
   39.4647   28.5976   36.8323 H   0  0  0  0  0  0  0  0  0  0  0  0
   38.2991   27.7039   34.8088 H   0  0  0  0  0  0  0  0  0  0  0  0
   36.4074   27.2502   33.6912 H   0  0  0  0  0  0  0  0  0  0  0  0
   33.9581   27.2065   33.4509 H   0  0  0  0  0  0  0  0  0  0  0  0
   32.5796   28.1115   35.2818 H   0  0  0  0  0  0  0  0  0  0  0  0
   31.9467   29.6250   35.7610 H   0  0  0  0  0  0  0  0  0  0  0  0
   29.9615   30.3173   37.4126 H   0  0  0  0  0  0  0  0  0  0  0  0
   31.1078   29.8208   39.7189 H   0  0  0  0  0  0  0  0  0  0  0  0
   34.7643   30.5489   38.4310 H   0  0  0  0  0  0  0  0  0  0  0  0
   34.8238   28.9458   39.3143 H   0  0  0  0  0  0  0  0  0  0  0  0
   36.9690   31.0275   39.5684 H   0  0  0  0  0  0  0  0  0  0  0  0
   35.4531   30.9618   40.6069 H   0  0  0  0  0  0  0  0  0  0  0  0
   36.5966   26.8923   42.8719 H   0  0  0  0  0  0  0  0  0  0  0  0
   34.9336   28.3441   41.2759 H   0  0  0  0  0  0  0  0  0  0  0  0
   40.5464   25.5316   44.8876 H   0  0  0  0  0  0  0  0  0  0  0  0
   38.4025   26.1653   43.7497 H   0  0  0  0  0  0  0  0  0  0  0  0
   42.5090   28.8654   43.1963 H   0  0  0  0  0  0  0  0  0  0  0  0
  1 16  1  0
  2  1  2  0
  3  2  1  0
  4  3  2  0
  5  4  1  0
  5 10  2  0
  6  5  1  0
  7  6  2  0
  7  8  1  0
  8  9  2  0
  9 10  1  0
  9 11  1  0
 10  1  1  0
 11 15  2  0
 12 11  1  0
 12 13  2  0
 13 14  1  0
 15 14  1  0
 16 17  1  0
 17 21  1  0
 18 19  1  0
 18 25  1  0
 20 19  2  0
 21 22  1  0
 21 20  1  0
 22 18  2  0
 24 23  2  0
 25 24  1  0
 26 25  2  0
 26 27  1  0
 27 28  2  0
 28 23  1  0
  2 29  1  0
  3 30  1  0
  4 31  1  0
  6 32  1  0
  7 33  1  0
  8 34  1  0
 12 35  1  0
 13 36  1  0
 14 37  1  0
 16 38  1  0
 16 39  1  0
 17 40  1  0
 17 41  1  0
 19 42  1  0
 20 43  1  0
 23 44  1  0
 24 45  1  0
 27 46  1  0
M  ISO  8  29  14  30  14  31  14  32  14  33  14  34  14  35  14  36  14
M  ISO  8  37   9  38   8  39   8  40   8  41   8  42  14  43  14  44  14
M  ISO  2  45  14  46  14
M  END
>  <minimizedAffinity>  (1) 
-5.31345797

>  <minimizedRMSD>  (1) 
1.59713554

$$$$
