
     RDKit          3D

 51 55  0  0  1  0  0  0  0  0999 V2000
   39.2530   30.7330   41.9710 C   0  0  0  0  0  0  0  0  0  0  0  0
   38.9030   29.6130   42.7080 C   0  0  0  0  0  0  0  0  0  0  0  0
   37.6700   28.9780   42.6830 C   0  0  0  0  0  0  0  0  0  0  0  0
   36.7950   29.5650   41.8440 N   0  0  0  0  0  0  0  0  0  0  0  0
   37.0700   30.6370   41.1140 C   0  0  0  0  0  0  0  0  0  0  0  0
   38.2680   31.1940   41.1860 N   0  0  0  0  0  0  0  0  0  0  0  0
   40.4970   31.4260   41.9510 C   0  0  0  0  0  0  0  0  0  0  0  0
   41.4840   31.0400   42.8590 C   0  0  0  0  0  0  0  0  0  0  0  0
   42.7220   31.6390   42.9710 C   0  0  0  0  0  0  0  0  0  0  0  0
   43.0270   32.6920   42.1400 C   0  0  0  0  0  0  0  0  0  0  0  0
   42.0850   33.1250   41.2100 C   0  0  0  0  0  0  0  0  0  0  0  0
   42.3920   34.1630   40.3760 C   0  0  0  0  0  0  0  0  0  0  0  0
   41.5030   34.6210   39.4260 C   0  0  0  0  0  0  0  0  0  0  0  0
   40.2890   33.9530   39.3840 C   0  0  0  0  0  0  0  0  0  0  0  0
   40.0370   32.9220   40.2450 C   0  0  0  0  0  0  0  0  0  0  0  0
   40.9070   32.4710   41.1810 C   0  0  0  0  0  0  0  0  0  0  0  0
   37.4160   27.7880   43.5310 C   0  0  2  0  0  0  0  0  0  0  0  0
   36.6750   28.1210   44.7960 C   0  0  0  0  0  0  0  0  0  0  0  0
   38.7290   27.0870   43.7850 C   0  0  0  0  0  0  0  0  0  0  0  0
   39.3790   26.4290   42.6730 C   0  0  0  0  0  0  0  0  0  0  0  0
   40.6500   26.5450   42.1480 C   0  0  0  0  0  0  0  0  0  0  0  0
   41.1900   25.8790   41.0740 C   0  0  0  0  0  0  0  0  0  0  0  0
   40.3860   24.9750   40.4130 C   0  0  0  0  0  0  0  0  0  0  0  0
   39.0800   24.7840   40.8680 C   0  0  0  0  0  0  0  0  0  0  0  0
   38.3680   23.8500   40.1520 C   0  0  0  0  0  0  0  0  0  0  0  0
   37.0770   23.5880   40.5440 C   0  0  0  0  0  0  0  0  0  0  0  0
   36.5450   24.2480   41.6140 C   0  0  0  0  0  0  0  0  0  0  0  0
   37.3280   25.1680   42.2760 C   0  0  0  0  0  0  0  0  0  0  0  0
   38.6380   25.5020   41.9580 C   0  0  0  0  0  0  0  0  0  0  0  0
   39.6712   29.1898   43.3719 H   0  0  0  0  0  0  0  0  0  0  0  0
   36.3035   31.0626   40.4496 H   0  0  0  0  0  0  0  0  0  0  0  0
   41.2594   30.1997   43.5323 H   0  0  0  0  0  0  0  0  0  0  0  0
   43.4521   31.2808   43.7117 H   0  0  0  0  0  0  0  0  0  0  0  0
   44.0065   33.1878   42.2094 H   0  0  0  0  0  0  0  0  0  0  0  0
   43.3758   34.6470   40.4647 H   0  0  0  0  0  0  0  0  0  0  0  0
   41.7402   35.4561   38.7504 H   0  0  0  0  0  0  0  0  0  0  0  0
   39.5240   34.2546   38.6534 H   0  0  0  0  0  0  0  0  0  0  0  0
   39.0592   32.4232   40.1732 H   0  0  0  0  0  0  0  0  0  0  0  0
   36.7443   27.1020   42.9942 H   0  0  0  0  0  0  0  0  0  0  0  0
   37.2902   27.8445   45.6649 H   0  0  0  0  0  0  0  0  0  0  0  0
   36.4644   29.2003   44.8243 H   0  0  0  0  0  0  0  0  0  0  0  0
   35.7281   27.5618   44.8243 H   0  0  0  0  0  0  0  0  0  0  0  0
   39.4306   27.8396   44.1739 H   0  0  0  0  0  0  0  0  0  0  0  0
   38.4721   26.2685   44.4736 H   0  0  0  0  0  0  0  0  0  0  0  0
   41.3149   27.2611   42.6531 H   0  0  0  0  0  0  0  0  0  0  0  0
   42.2264   26.0607   40.7533 H   0  0  0  0  0  0  0  0  0  0  0  0
   40.7656   24.4158   39.5451 H   0  0  0  0  0  0  0  0  0  0  0  0
   38.8173   23.3296   39.2934 H   0  0  0  0  0  0  0  0  0  0  0  0
   36.4740   22.8484   39.9969 H   0  0  0  0  0  0  0  0  0  0  0  0
   35.5135   24.0495   41.9405 H   0  0  0  0  0  0  0  0  0  0  0  0
   36.8744   25.6850   43.1345 H   0  0  0  0  0  0  0  0  0  0  0  0
  1  2  2  0
  3  2  1  0
  3 17  1  0
  4  3  2  0
  5  6  2  0
  5  4  1  0
  6  1  1  0
  7  1  1  0
  7  8  2  0
  8  9  1  0
 10  9  2  0
 11 10  1  0
 12 11  2  0
 13 12  1  0
 14 13  2  0
 14 15  1  0
 15 16  2  0
 16 11  1  0
 16  7  1  0
 17 19  1  0
 17 18  1  0
 20 19  1  0
 21 20  2  0
 22 21  1  0
 23 24  1  0
 23 22  2  0
 24 29  2  0
 25 26  2  0
 25 24  1  0
 26 27  1  0
 27 28  2  0
 29 28  1  0
 29 20  1  0
  2 30  1  0
  5 31  1  0
  8 32  1  0
  9 33  1  0
 10 34  1  0
 12 35  1  0
 13 36  1  0
 14 37  1  0
 15 38  1  0
 17 39  1  6
 18 40  1  0
 18 41  1  0
 18 42  1  0
 19 43  1  0
 19 44  1  0
 21 45  1  0
 22 46  1  0
 23 47  1  0
 25 48  1  0
 26 49  1  0
 27 50  1  0
 28 51  1  0
M  END
>  <minimizedAffinity>  (1) 
-7.34966183

>  <minimizedRMSD>  (1) 
0.536901355

$$$$
