
     RDKit          3D

 24 25  0  0  0  0  0  0  0  0999 V2000
   38.6360   29.3110   42.5250 C   0  0  0  0  0  0  0  0  0  0  0  0
   37.8700   29.1760   41.3230 C   0  0  0  0  0  0  0  0  0  0  0  0
   37.3880   27.8990   41.1040 C   0  0  0  0  0  0  0  0  0  0  0  0
   37.6350   26.8840   41.9680 N   0  0  0  0  0  0  0  0  0  0  0  0
   38.3680   27.0750   43.0910 C   0  0  0  0  0  0  0  0  0  0  0  0
   38.8640   28.2970   43.3580 N   0  0  0  0  0  0  0  0  0  0  0  0
   37.6650   30.2950   40.4820 N   0  0  0  0  0  0  0  0  0  0  0  0
   36.7600   31.3470   40.7830 C   0  0  0  0  0  0  0  0  0  0  0  0
   35.6170   30.9850   41.3250 N   0  0  0  0  0  0  0  0  0  0  0  0
   37.2140   32.6800   40.4520 N   0  0  0  0  0  0  0  0  0  0  0  0
   34.8930   31.6800   41.5480 H   0  0  0  0  0  0  0  0  0  0  0  0
   36.5960   27.6850   39.8970 C   0  0  0  0  0  0  0  0  0  0  0  0
   36.7730   26.7710   38.8780 C   0  0  0  0  0  0  0  0  0  0  0  0
   35.7410   26.9890   37.9700 C   0  0  0  0  0  0  0  0  0  0  0  0
   34.9760   28.0030   38.4370 N   0  0  0  0  0  0  0  0  0  0  0  0
   35.5060   28.3970   39.5800 N   0  0  0  0  0  0  0  0  0  0  0  0
   39.0555   30.2974   42.7719 H   0  0  0  0  0  0  0  0  0  0  0  0
   38.5563   26.2378   43.7792 H   0  0  0  0  0  0  0  0  0  0  0  0
   38.2010   30.3495   39.6042 H   0  0  0  0  0  0  0  0  0  0  0  0
   36.6096   33.4920   40.6424 H   0  0  0  0  0  0  0  0  0  0  0  0
   38.1416   32.8171   40.0259 H   0  0  0  0  0  0  0  0  0  0  0  0
   37.5718   26.0189   38.7991 H   0  0  0  0  0  0  0  0  0  0  0  0
   35.5758   26.4335   37.0350 H   0  0  0  0  0  0  0  0  0  0  0  0
   34.1371   28.3942   37.9851 H   0  0  0  0  0  0  0  0  0  0  0  0
  1  6  2  0
  2  1  1  0
  3  2  2  0
  3  4  1  0
  4  5  2  0
  5  6  1  0
  7  8  1  0
  7  2  1  0
  8  9  2  0
  9 11  1  0
 10  8  1  0
 12  3  1  0
 13 12  1  0
 14 15  1  0
 14 13  2  0
 15 16  1  0
 16 12  2  0
  1 17  1  0
  5 18  1  0
  7 19  1  0
 10 20  1  0
 10 21  1  0
 13 22  1  0
 14 23  1  0
 15 24  1  0
M  ISO  5  17  14  18  14  22  14  23  14  24   9
M  END
>  <minimizedAffinity>  (1) 
-4.62105656

>  <minimizedRMSD>  (1) 
0.321524739

$$$$
