
     RDKit          3D

 20 21  0  0  0  0  0  0  0  0999 V2000
   37.9681   28.8838   43.3694 C   0  0  0  0  0  0  0  0  0  0  0  0
   38.0794   27.4724   43.3071 C   0  0  0  0  0  0  0  0  0  0  0  0
   37.4358   26.8236   42.2548 C   0  0  0  0  0  0  0  0  0  0  0  0
   36.7399   27.5819   41.3511 N   0  0  0  0  0  0  0  0  0  0  0  0
   36.6613   28.9129   41.4487 C   0  0  0  0  0  0  0  0  0  0  0  0
   37.2722   29.5492   42.4509 N   0  0  0  0  0  0  0  0  0  0  0  0
   37.5257   25.3311   42.1478 C   0  0  0  0  0  0  0  0  0  0  0  0
   37.6480   25.0500   40.8106 F   0  0  0  0  0  0  0  0  0  0  0  0
   38.6267   24.8419   42.7940 F   0  0  0  0  0  0  0  0  0  0  0  0
   36.3889   24.7082   42.6387 F   0  0  0  0  0  0  0  0  0  0  0  0
   38.4589   29.4083   44.1766 H   0  0  0  0  0  0  0  0  0  0  0  0
   38.6396   26.9495   44.0486 H   0  0  0  0  0  0  0  0  0  0  0  0
   35.9150   29.7013   40.4756 C   0  0  0  0  0  0  0  0  0  0  0  0
   35.2653   30.8866   40.6325 C   0  0  0  0  0  0  0  0  0  0  0  0
   34.7114   31.2207   39.4051 C   0  0  0  0  0  0  0  0  0  0  0  0
   34.1331   32.0954   39.1820 H   0  0  0  0  0  0  0  0  0  0  0  0
   35.0377   30.2341   38.5393 N   0  0  0  0  0  0  0  0  0  0  0  0
   35.7499   29.3359   39.1743 N   0  0  0  0  0  0  0  0  0  0  0  0
   35.1936   31.4668   41.5539 H   0  0  0  0  0  0  0  0  0  0  0  0
   34.7989   30.1411   37.5331 H   0  0  0  0  0  0  0  0  0  0  0  0
  2  1  2  0
  3  2  1  0
  4  5  1  0
  4  3  2  0
  5  6  2  0
  6  1  1  0
  7  3  1  0
  7 10  1  0
  7  9  1  0
  8  7  1  0
  1 11  1  0
  2 12  1  0
 13 14  1  0
 14 15  2  0
 15 16  1  0
 15 17  1  0
 17 18  1  0
 18 13  2  0
 14 19  1  0
 17 20  1  0
  5 13  1  0
M  ISO  3  11  14  12  14  16  14
M  END
>  <DihAtoms>  (1) 
3,4,12,13

>  <DihDeg>  (1) 
165.42514647303707

$$$$
