
     RDKit          3D

 20 21  0  0  0  0  0  0  0  0999 V2000
   37.9743   28.8883   43.3655 C   0  0  0  0  0  0  0  0  0  0  0  0
   38.0916   27.4685   43.3111 C   0  0  0  0  0  0  0  0  0  0  0  0
   37.4393   26.8198   42.2609 C   0  0  0  0  0  0  0  0  0  0  0  0
   36.7226   27.5709   41.3389 N   0  0  0  0  0  0  0  0  0  0  0  0
   36.6551   28.9123   41.4531 C   0  0  0  0  0  0  0  0  0  0  0  0
   37.2745   29.5485   42.4536 N   0  0  0  0  0  0  0  0  0  0  0  0
   37.5253   25.3378   42.1513 C   0  0  0  0  0  0  0  0  0  0  0  0
   37.6589   25.0550   40.8022 F   0  0  0  0  0  0  0  0  0  0  0  0
   38.6260   24.8419   42.8035 F   0  0  0  0  0  0  0  0  0  0  0  0
   36.3784   24.7120   42.6330 F   0  0  0  0  0  0  0  0  0  0  0  0
   38.4793   29.3939   44.1790 H   0  0  0  0  0  0  0  0  0  0  0  0
   38.6619   26.9404   44.0557 H   0  0  0  0  0  0  0  0  0  0  0  0
   35.8839   29.6886   40.4559 C   0  0  0  0  0  0  0  0  0  0  0  0
   34.5238   30.1221   40.9103 C   0  0  0  0  0  0  0  0  0  0  0  0
   34.6890   29.0948   39.7970 C   0  0  0  0  0  0  0  0  0  0  0  0
   36.4927   30.4319   39.9002 H   0  0  0  0  0  0  0  0  0  0  0  0
   34.1429   31.1186   40.5771 H   0  0  0  0  0  0  0  0  0  0  0  0
   34.1457   29.7992   41.9004 H   0  0  0  0  0  0  0  0  0  0  0  0
   34.4161   28.0331   40.0384 H   0  0  0  0  0  0  0  0  0  0  0  0
   34.4078   29.4208   38.7797 H   0  0  0  0  0  0  0  0  0  0  0  0
  2  1  2  0
  3  2  1  0
  4  5  1  0
  4  3  2  0
  5  6  2  0
  6  1  1  0
  7  3  1  0
  7 10  1  0
  7  9  1  0
  8  7  1  0
  1 11  1  0
  2 12  1  0
 13 14  1  0
 14 15  1  0
 15 13  1  0
 13 16  1  0
 14 17  1  0
 14 18  1  0
 15 19  1  0
 15 20  1  0
  5 13  1  0
M  ISO  2  11  14  12  14
M  END
>  <DihAtoms>  (1) 
3,4,12,13

>  <DihDeg>  (1) 
-138.85515052691565

$$$$
