
     RDKit          3D

 38 42  0  0  1  0  0  0  0  0999 V2000
   36.1120   30.5980   40.8770 C   0  0  0  0  0  0  0  0  0  0  0  0
   36.5100   29.3620   41.4000 C   0  0  0  0  0  0  0  0  0  0  0  0
   37.8380   29.1960   41.7870 C   0  0  0  0  0  0  0  0  0  0  0  0
   38.6570   30.2600   41.6270 N   0  0  0  0  0  0  0  0  0  0  0  0
   38.2620   31.4460   41.1220 C   0  0  0  0  0  0  0  0  0  0  0  0
   36.9740   31.6130   40.7440 N   0  0  0  0  0  0  0  0  0  0  0  0
   38.2700   27.9160   42.3210 C   0  0  0  0  0  0  0  0  0  0  0  0
   39.1320   27.6840   43.3700 C   0  0  0  0  0  0  0  0  0  0  0  0
   39.2680   26.3440   43.5350 N   0  0  0  0  0  0  0  0  0  0  0  0
   38.5180   25.6850   42.6260 C   0  0  0  0  0  0  0  0  0  0  0  0
   38.2920   24.3450   42.3520 C   0  0  0  0  0  0  0  0  0  0  0  0
   37.4490   23.9510   41.3270 C   0  0  0  0  0  0  0  0  0  0  0  0
   36.8410   24.9420   40.5870 C   0  0  0  0  0  0  0  0  0  0  0  0
   37.0620   26.2660   40.8550 C   0  0  0  0  0  0  0  0  0  0  0  0
   37.8970   26.6630   41.8690 C   0  0  0  0  0  0  0  0  0  0  0  0
   39.2470   32.5620   40.9990 C   0  0  1  0  0  0  0  0  0  0  0  0
   40.7250   32.2210   41.1010 C   0  0  0  0  0  0  0  0  0  0  0  0
   40.1190   32.6480   39.8000 C   0  0  1  0  0  0  0  0  0  0  0  0
   40.1600   31.6240   38.7210 C   0  0  0  0  0  0  0  0  0  0  0  0
   39.1480   31.7630   37.5960 C   0  0  0  0  0  0  0  0  0  0  0  0
   40.5710   32.1850   37.3640 C   0  0  0  0  0  0  0  0  0  0  0  0
   35.0657   30.7383   40.5680 H   0  0  0  0  0  0  0  0  0  0  0  0
   35.7885   28.5381   41.5034 H   0  0  0  0  0  0  0  0  0  0  0  0
   39.6284   28.4575   43.9744 H   0  0  0  0  0  0  0  0  0  0  0  0
   39.8578   25.8947   44.2500 H   0  0  0  0  0  0  0  0  0  0  0  0
   38.7930   23.5787   42.9618 H   0  0  0  0  0  0  0  0  0  0  0  0
   37.2712   22.8871   41.1113 H   0  0  0  0  0  0  0  0  0  0  0  0
   36.1650   24.6636   39.7651 H   0  0  0  0  0  0  0  0  0  0  0  0
   36.5587   27.0293   40.2435 H   0  0  0  0  0  0  0  0  0  0  0  0
   38.5602   33.2592   41.5011 H   0  0  0  0  0  0  0  0  0  0  0  0
   41.4115   32.8922   41.6379 H   0  0  0  0  0  0  0  0  0  0  0  0
   41.3075   31.3546   41.4476 H   0  0  0  0  0  0  0  0  0  0  0  0
   40.2397   33.4517   39.0587 H   0  0  0  0  0  0  0  0  0  0  0  0
   40.4665   30.7946   39.3753 H   0  0  0  0  0  0  0  0  0  0  0  0
   38.7545   30.8644   37.0983 H   0  0  0  0  0  0  0  0  0  0  0  0
   38.1685   32.2526   37.4919 H   0  0  0  0  0  0  0  0  0  0  0  0
   41.2176   31.5943   36.6984 H   0  0  0  0  0  0  0  0  0  0  0  0
   41.0609   33.1086   37.0219 H   0  0  0  0  0  0  0  0  0  0  0  0
  1  2  2  0
  2  3  1  0
  3  7  1  0
  4  3  2  0
  5  4  1  0
  6  1  1  0
  6  5  2  0
  7  8  2  0
  8  9  1  0
 10  9  1  0
 11 10  2  0
 12 11  1  0
 13 14  1  0
 13 12  2  0
 14 15  2  0
 15  7  1  0
 15 10  1  0
 16 17  1  0
 16  5  1  0
 18 16  1  0
 18 17  1  0
 19 18  1  0
 20 19  1  0
 21 20  1  0
 21 19  1  0
  1 22  1  0
  2 23  1  0
  8 24  1  0
  9 25  1  0
 11 26  1  0
 12 27  1  0
 13 28  1  0
 14 29  1  0
 16 30  1  1
 17 31  1  0
 17 32  1  0
 18 33  1  6
 19 34  1  0
 20 35  1  0
 20 36  1  0
 21 37  1  0
 21 38  1  0
M  ISO  8  22  14  23  14  24  14  25   9  26  14  27  14  28  14  29  14
M  ISO  8  30  13  31  13  32  13  33  13  34  13  35  13  36  13  37  13
M  ISO  1  38  13
M  END
>  <minimizedAffinity>  (1) 
-5.43105793

>  <minimizedRMSD>  (1) 
2.02288151

$$$$
