
     RDKit          3D

 24 26  0  0  1  0  0  0  0  0999 V2000
   37.8580   28.2800   42.9150 C   0  0  1  0  0  0  0  0  0  0  0  0
   36.7270   27.7550   43.6480 C   0  0  0  0  0  0  0  0  0  0  0  0
   37.0010   27.1000   42.3320 C   0  0  2  0  0  0  0  0  0  0  0  0
   37.7480   29.5590   42.1190 C   0  0  0  0  0  0  0  0  0  0  0  0
   38.9290   30.3140   42.0050 C   0  0  0  0  0  0  0  0  0  0  0  0
   38.8310   31.5100   41.2860 C   0  0  0  0  0  0  0  0  0  0  0  0
   37.6290   31.8650   40.7540 N   0  0  0  0  0  0  0  0  0  0  0  0
   36.5110   31.1030   40.8890 C   0  0  0  0  0  0  0  0  0  0  0  0
   36.5790   29.9370   41.5820 N   0  0  0  0  0  0  0  0  0  0  0  0
   37.6390   25.7360   42.4360 C   0  0  0  0  0  0  0  0  0  0  0  0
   37.8740   25.0310   41.0960 C   0  0  0  0  0  0  0  0  0  0  0  0
   36.9060   24.5060   42.1110 C   0  0  0  0  0  0  0  0  0  0  0  0
   38.8999   28.4790   43.2062 H   0  0  0  0  0  0  0  0  0  0  0  0
   36.9033   27.1909   44.5757 H   0  0  0  0  0  0  0  0  0  0  0  0
   35.8307   28.2232   44.0808 H   0  0  0  0  0  0  0  0  0  0  0  0
   36.4482   26.8989   41.4025 H   0  0  0  0  0  0  0  0  0  0  0  0
   39.8762   29.9828   42.4557 H   0  0  0  0  0  0  0  0  0  0  0  0
   39.7124   32.1544   41.1524 H   0  0  0  0  0  0  0  0  0  0  0  0
   35.5603   31.4279   40.4411 H   0  0  0  0  0  0  0  0  0  0  0  0
   38.2220   26.0350   43.3196 H   0  0  0  0  0  0  0  0  0  0  0  0
   38.8195   24.5025   40.9046 H   0  0  0  0  0  0  0  0  0  0  0  0
   37.8279   25.3166   40.0347 H   0  0  0  0  0  0  0  0  0  0  0  0
   35.8259   24.5541   41.9082 H   0  0  0  0  0  0  0  0  0  0  0  0
   36.7772   23.5368   42.6151 H   0  0  0  0  0  0  0  0  0  0  0  0
  1  2  1  0
  3 10  1  0
  3  1  1  0
  3  2  1  0
  4  1  1  0
  5  4  2  0
  6  5  1  0
  7  8  1  0
  7  6  2  0
  8  9  2  0
  9  4  1  0
 11 12  1  0
 11 10  1  0
 12 10  1  0
  1 13  1  1
  2 14  1  0
  2 15  1  0
  3 16  1  6
  5 17  1  0
  6 18  1  0
  8 19  1  0
 10 20  1  0
 11 21  1  0
 11 22  1  0
 12 23  1  0
 12 24  1  0
M  ISO  8  13  13  14  13  15  13  16  13  17  14  18  14  19  14  20  13
M  ISO  4  21  13  22  13  23  13  24  13
M  END
>  <minimizedAffinity>  (1) 
-4.17909765

>  <minimizedRMSD>  (1) 
2.38441062

$$$$
