
     RDKit          3D

 29 30  0  0  0  0  0  0  0  0999 V2000
   37.9734   28.8834   43.3716 C   0  0  0  0  0  0  0  0  0  0  0  0
   38.0832   27.4745   43.3083 C   0  0  0  0  0  0  0  0  0  0  0  0
   37.4376   26.8165   42.2582 C   0  0  0  0  0  0  0  0  0  0  0  0
   36.7290   27.5714   41.3408 N   0  0  0  0  0  0  0  0  0  0  0  0
   36.6519   28.9190   41.4424 C   0  0  0  0  0  0  0  0  0  0  0  0
   37.2776   29.5470   42.4584 N   0  0  0  0  0  0  0  0  0  0  0  0
   37.5319   25.3362   42.1608 C   0  0  0  0  0  0  0  0  0  0  0  0
   37.6584   25.0510   40.8084 F   0  0  0  0  0  0  0  0  0  0  0  0
   38.6291   24.8423   42.7877 F   0  0  0  0  0  0  0  0  0  0  0  0
   36.3738   24.7136   42.6366 F   0  0  0  0  0  0  0  0  0  0  0  0
   38.4871   29.3575   44.1993 H   0  0  0  0  0  0  0  0  0  0  0  0
   38.6513   26.9297   44.0533 H   0  0  0  0  0  0  0  0  0  0  0  0
   35.8928   29.6824   40.4523 C   0  0  0  0  0  0  0  0  0  0  0  0
   36.6990   30.7186   39.7319 C   0  0  0  0  0  0  0  0  0  0  0  0
   35.9171   31.3529   38.6420 C   0  0  0  0  0  0  0  0  0  0  0  0
   34.4449   31.3448   38.7445 C   0  0  0  0  0  0  0  0  0  0  0  0
   33.8032   30.7485   39.9369 C   0  0  0  0  0  0  0  0  0  0  0  0
   34.7427   30.4698   41.0831 C   0  0  0  0  0  0  0  0  0  0  0  0
   35.4490   28.9906   39.6921 H   0  0  0  0  0  0  0  0  0  0  0  0
   37.0234   31.4911   40.4621 H   0  0  0  0  0  0  0  0  0  0  0  0
   37.6630   30.2944   39.3414 H   0  0  0  0  0  0  0  0  0  0  0  0
   36.2907   32.4151   38.5402 H   0  0  0  0  0  0  0  0  0  0  0  0
   36.2711   30.8923   37.6718 H   0  0  0  0  0  0  0  0  0  0  0  0
   34.0381   32.3847   38.6325 H   0  0  0  0  0  0  0  0  0  0  0  0
   34.0245   30.8160   37.8410 H   0  0  0  0  0  0  0  0  0  0  0  0
   33.3345   29.7480   39.7027 H   0  0  0  0  0  0  0  0  0  0  0  0
   32.9781   31.3702   40.3448 H   0  0  0  0  0  0  0  0  0  0  0  0
   35.1533   31.4064   41.5081 H   0  0  0  0  0  0  0  0  0  0  0  0
   34.1931   29.8452   41.8066 H   0  0  0  0  0  0  0  0  0  0  0  0
  2  1  2  0
  3  2  1  0
  4  5  1  0
  4  3  2  0
  5  6  2  0
  6  1  1  0
  7  3  1  0
  7 10  1  0
  7  9  1  0
  8  7  1  0
  1 11  1  0
  2 12  1  0
 13 14  1  0
 14 15  1  0
 15 16  1  0
 16 17  1  0
 17 18  1  0
 18 13  1  0
 13 19  1  0
 14 20  1  0
 14 21  1  0
 15 22  1  0
 15 23  1  0
 16 24  1  0
 16 25  1  0
 17 26  1  0
 17 27  1  0
 18 28  1  0
 18 29  1  0
  5 13  1  0
M  ISO  2  11  14  12  14
M  END
>  <DihAtoms>  (1) 
3,4,12,13

>  <DihDeg>  (1) 
58.043291173857746

$$$$
