
     RDKit          3D

 29 30  0  0  0  0  0  0  0  0999 V2000
   37.9734   28.8834   43.3716 C   0  0  0  0  0  0  0  0  0  0  0  0
   38.0832   27.4745   43.3083 C   0  0  0  0  0  0  0  0  0  0  0  0
   37.4376   26.8165   42.2582 C   0  0  0  0  0  0  0  0  0  0  0  0
   36.7290   27.5714   41.3408 N   0  0  0  0  0  0  0  0  0  0  0  0
   36.6519   28.9190   41.4424 C   0  0  0  0  0  0  0  0  0  0  0  0
   37.2776   29.5470   42.4584 N   0  0  0  0  0  0  0  0  0  0  0  0
   37.5319   25.3362   42.1608 C   0  0  0  0  0  0  0  0  0  0  0  0
   37.6584   25.0510   40.8084 F   0  0  0  0  0  0  0  0  0  0  0  0
   38.6291   24.8423   42.7877 F   0  0  0  0  0  0  0  0  0  0  0  0
   36.3738   24.7136   42.6366 F   0  0  0  0  0  0  0  0  0  0  0  0
   38.4871   29.3575   44.1993 H   0  0  0  0  0  0  0  0  0  0  0  0
   38.6513   26.9297   44.0533 H   0  0  0  0  0  0  0  0  0  0  0  0
   35.8928   29.6824   40.4523 C   0  0  0  0  0  0  0  0  0  0  0  0
   35.5524   31.0748   40.8856 C   0  0  0  0  0  0  0  0  0  0  0  0
   34.9176   31.8446   39.7875 C   0  0  0  0  0  0  0  0  0  0  0  0
   34.2245   31.0956   38.7213 C   0  0  0  0  0  0  0  0  0  0  0  0
   34.1493   29.6201   38.8016 C   0  0  0  0  0  0  0  0  0  0  0  0
   34.5388   29.0427   40.1390 C   0  0  0  0  0  0  0  0  0  0  0  0
   36.4659   29.7428   39.4924 H   0  0  0  0  0  0  0  0  0  0  0  0
   34.8630   31.0205   41.7556 H   0  0  0  0  0  0  0  0  0  0  0  0
   36.4522   31.6143   41.2874 H   0  0  0  0  0  0  0  0  0  0  0  0
   34.2058   32.5810   40.2665 H   0  0  0  0  0  0  0  0  0  0  0  0
   35.7100   32.5332   39.3672 H   0  0  0  0  0  0  0  0  0  0  0  0
   33.1767   31.4759   38.5923 H   0  0  0  0  0  0  0  0  0  0  0  0
   34.7039   31.3511   37.7326 H   0  0  0  0  0  0  0  0  0  0  0  0
   34.8465   29.1256   38.0635 H   0  0  0  0  0  0  0  0  0  0  0  0
   33.1403   29.2215   38.5637 H   0  0  0  0  0  0  0  0  0  0  0  0
   33.8230   29.3359   40.9316 H   0  0  0  0  0  0  0  0  0  0  0  0
   34.6443   27.9537   40.0023 H   0  0  0  0  0  0  0  0  0  0  0  0
  2  1  2  0
  3  2  1  0
  4  5  1  0
  4  3  2  0
  5  6  2  0
  6  1  1  0
  7  3  1  0
  7 10  1  0
  7  9  1  0
  8  7  1  0
  1 11  1  0
  2 12  1  0
 13 14  1  0
 14 15  1  0
 15 16  1  0
 16 17  1  0
 17 18  1  0
 18 13  1  0
 13 19  1  0
 14 20  1  0
 14 21  1  0
 15 22  1  0
 15 23  1  0
 16 24  1  0
 16 25  1  0
 17 26  1  0
 17 27  1  0
 18 28  1  0
 18 29  1  0
  5 13  1  0
M  ISO  2  11  14  12  14
M  END
>  <DihAtoms>  (1) 
3,4,12,13

>  <DihDeg>  (1) 
58.043291173857746

$$$$
