
     RDKit          3D

 34 36  0  0  0  0  0  0  0  0999 V2000
   37.1500   30.1700   40.4000 C   0  0  0  0  0  0  0  0  0  0  0  0
   37.0940   31.5360   40.5170 C   0  0  0  0  0  0  0  0  0  0  0  0
   37.1040   32.2690   39.3560 C   0  0  0  0  0  0  0  0  0  0  0  0
   37.1660   31.6930   38.1370 N   0  0  0  0  0  0  0  0  0  0  0  0
   37.2230   30.3230   38.0370 C   0  0  0  0  0  0  0  0  0  0  0  0
   37.2130   29.5880   39.1900 N   0  0  0  0  0  0  0  0  0  0  0  0
   37.9780   28.8410   43.7200 C   0  0  0  0  0  0  0  0  0  0  0  0
   37.1260   27.6950   43.8120 C   0  0  0  0  0  0  0  0  0  0  0  0
   36.3040   27.4260   42.7310 C   0  0  0  0  0  0  0  0  0  0  0  0
   36.3410   28.2520   41.6430 N   0  0  0  0  0  0  0  0  0  0  0  0
   37.1450   29.3150   41.5840 C   0  0  0  0  0  0  0  0  0  0  0  0
   37.9610   29.6120   42.6160 N   0  0  0  0  0  0  0  0  0  0  0  0
   37.2920   29.6890   36.6870 C   0  0  0  0  0  0  0  0  0  0  0  0
   38.2250   28.5400   36.5940 C   0  0  0  0  0  0  0  0  0  0  0  0
   37.5900   27.1850   36.6870 C   0  0  0  0  0  0  0  0  0  0  0  0
   36.3170   27.0830   35.8820 C   0  0  0  0  0  0  0  0  0  0  0  0
   35.3550   28.0730   36.5530 C   0  0  0  0  0  0  0  0  0  0  0  0
   35.8960   29.4330   36.1920 C   0  0  0  0  0  0  0  0  0  0  0  0
   37.0431   32.0243   41.5014 H   0  0  0  0  0  0  0  0  0  0  0  0
   37.0599   33.3661   39.4218 H   0  0  0  0  0  0  0  0  0  0  0  0
   38.6493   29.0931   44.5541 H   0  0  0  0  0  0  0  0  0  0  0  0
   37.1243   27.0536   44.7057 H   0  0  0  0  0  0  0  0  0  0  0  0
   35.6290   26.5576   42.7477 H   0  0  0  0  0  0  0  0  0  0  0  0
   37.7628   30.3976   35.9897 H   0  0  0  0  0  0  0  0  0  0  0  0
   38.9552   28.6291   37.4118 H   0  0  0  0  0  0  0  0  0  0  0  0
   38.6740   28.5954   35.5913 H   0  0  0  0  0  0  0  0  0  0  0  0
   38.3035   26.4354   36.3141 H   0  0  0  0  0  0  0  0  0  0  0  0
   37.3316   27.0103   37.7418 H   0  0  0  0  0  0  0  0  0  0  0  0
   35.9128   26.0607   35.9223 H   0  0  0  0  0  0  0  0  0  0  0  0
   36.4765   27.3120   34.8180 H   0  0  0  0  0  0  0  0  0  0  0  0
   34.3337   27.9458   36.1647 H   0  0  0  0  0  0  0  0  0  0  0  0
   35.2946   27.9235   37.6411 H   0  0  0  0  0  0  0  0  0  0  0  0
   35.8958   29.5251   35.0959 H   0  0  0  0  0  0  0  0  0  0  0  0
   35.2453   30.1733   36.6805 H   0  0  0  0  0  0  0  0  0  0  0  0
  1  2  2  0
  1 11  1  0
  3  2  1  0
  4  3  2  0
  5  4  1  0
  5  6  2  0
  6  1  1  0
  7  8  2  0
  9  8  1  0
 10  9  2  0
 11 10  1  0
 11 12  2  0
 12  7  1  0
 13  5  1  0
 14 15  1  0
 14 13  1  0
 16 17  1  0
 16 15  1  0
 18 17  1  0
 18 13  1  0
  2 19  1  0
  3 20  1  0
  7 21  1  0
  8 22  1  0
  9 23  1  0
 13 24  1  0
 14 25  1  0
 14 26  1  0
 15 27  1  0
 15 28  1  0
 16 29  1  0
 16 30  1  0
 17 31  1  0
 17 32  1  0
 18 33  1  0
 18 34  1  0
M  ISO  8  19  14  20  14  21  14  22  14  23  14  24  13  25  13  26  13
M  ISO  8  27  13  28  13  29  13  30  13  31  13  32  13  33  13  34  13
M  END
>  <minimizedAffinity>  (1) 
-4.4134388

>  <minimizedRMSD>  (1) 
0.58637023

$$$$
