
     RDKit          3D

 29 30  0  0  0  0  0  0  0  0999 V2000
   37.9734   28.8834   43.3716 C   0  0  0  0  0  0  0  0  0  0  0  0
   38.0832   27.4745   43.3083 C   0  0  0  0  0  0  0  0  0  0  0  0
   37.4376   26.8165   42.2582 C   0  0  0  0  0  0  0  0  0  0  0  0
   36.7290   27.5714   41.3408 N   0  0  0  0  0  0  0  0  0  0  0  0
   36.6519   28.9190   41.4424 C   0  0  0  0  0  0  0  0  0  0  0  0
   37.2776   29.5470   42.4584 N   0  0  0  0  0  0  0  0  0  0  0  0
   37.5319   25.3362   42.1608 C   0  0  0  0  0  0  0  0  0  0  0  0
   37.6584   25.0510   40.8084 F   0  0  0  0  0  0  0  0  0  0  0  0
   38.6291   24.8423   42.7877 F   0  0  0  0  0  0  0  0  0  0  0  0
   36.3738   24.7136   42.6366 F   0  0  0  0  0  0  0  0  0  0  0  0
   38.4871   29.3575   44.1993 H   0  0  0  0  0  0  0  0  0  0  0  0
   38.6513   26.9297   44.0533 H   0  0  0  0  0  0  0  0  0  0  0  0
   35.8928   29.6824   40.4523 C   0  0  0  0  0  0  0  0  0  0  0  0
   36.1400   31.1586   40.4998 C   0  0  0  0  0  0  0  0  0  0  0  0
   35.4616   31.8583   39.3809 C   0  0  0  0  0  0  0  0  0  0  0  0
   34.2817   31.2158   38.7702 C   0  0  0  0  0  0  0  0  0  0  0  0
   33.7926   29.9294   39.3134 C   0  0  0  0  0  0  0  0  0  0  0  0
   34.3816   29.5460   40.6477 C   0  0  0  0  0  0  0  0  0  0  0  0
   36.1324   29.3185   39.4210 H   0  0  0  0  0  0  0  0  0  0  0  0
   35.7696   31.5525   41.4707 H   0  0  0  0  0  0  0  0  0  0  0  0
   37.2384   31.3935   40.5144 H   0  0  0  0  0  0  0  0  0  0  0  0
   35.1896   32.8912   39.7515 H   0  0  0  0  0  0  0  0  0  0  0  0
   36.2551   32.0936   38.6104 H   0  0  0  0  0  0  0  0  0  0  0  0
   33.4115   31.9244   38.7580 H   0  0  0  0  0  0  0  0  0  0  0  0
   34.4868   31.0569   37.6723 H   0  0  0  0  0  0  0  0  0  0  0  0
   34.0449   29.0651   38.6315 H   0  0  0  0  0  0  0  0  0  0  0  0
   32.6887   29.8972   39.4309 H   0  0  0  0  0  0  0  0  0  0  0  0
   34.0685   30.2470   41.4458 H   0  0  0  0  0  0  0  0  0  0  0  0
   34.1055   28.4946   40.8324 H   0  0  0  0  0  0  0  0  0  0  0  0
  2  1  2  0
  3  2  1  0
  4  5  1  0
  4  3  2  0
  5  6  2  0
  6  1  1  0
  7  3  1  0
  7 10  1  0
  7  9  1  0
  8  7  1  0
  1 11  1  0
  2 12  1  0
 13 14  1  0
 14 15  1  0
 15 16  1  0
 16 17  1  0
 17 18  1  0
 18 13  1  0
 13 19  1  0
 14 20  1  0
 14 21  1  0
 15 22  1  0
 15 23  1  0
 16 24  1  0
 16 25  1  0
 17 26  1  0
 17 27  1  0
 18 28  1  0
 18 29  1  0
  5 13  1  0
M  ISO  2  11  14  12  14
M  END
>  <DihAtoms>  (1) 
3,4,12,13

>  <DihDeg>  (1) 
58.043291173857746

$$$$
