
     RDKit          3D

 56 60  0  0  1  0  0  0  0  0999 V2000
   38.8580   35.5790   40.1030 C   0  0  0  0  0  0  0  0  0  0  0  0
   40.1830   35.9970   40.3130 C   0  0  0  0  0  0  0  0  0  0  0  0
   41.1120   34.9850   40.6410 C   0  0  0  0  0  0  0  0  0  0  0  0
   40.6360   33.7580   40.7130 N   0  0  0  0  0  0  0  0  0  0  0  0
   39.4120   33.3240   40.5240 C   0  0  0  0  0  0  0  0  0  0  0  0
   38.5470   34.2940   40.2160 N   0  0  0  0  0  0  0  0  0  0  0  0
   38.7820   32.0170   40.5790 C   0  0  0  0  0  0  0  0  0  0  0  0
   38.7050   31.2710   41.7010 N   0  0  0  0  0  0  0  0  0  0  0  0
   38.1400   30.0790   41.7870 C   0  0  0  0  0  0  0  0  0  0  0  0
   37.5890   29.5110   40.7320 N   0  0  0  0  0  0  0  0  0  0  0  0
   37.6020   30.1560   39.5450 C   0  0  0  0  0  0  0  0  0  0  0  0
   37.0240   29.5700   38.4260 C   0  0  0  0  0  0  0  0  0  0  0  0
   37.0190   30.1890   37.2260 C   0  0  0  0  0  0  0  0  0  0  0  0
   37.6230   31.4690   37.1290 C   0  0  0  0  0  0  0  0  0  0  0  0
   38.1770   31.9920   38.2780 C   0  0  0  0  0  0  0  0  0  0  0  0
   38.1990   31.3960   39.4960 C   0  0  0  0  0  0  0  0  0  0  0  0
   42.3800   35.2700   40.8630 O   0  0  0  0  0  0  0  0  0  0  0  0
   43.0490   35.1240   42.1020 C   0  0  2  0  0  0  0  0  0  0  0  0
   42.8420   36.5230   42.8070 C   0  0  0  0  0  0  0  0  0  0  0  0
   44.5060   34.8930   41.9370 C   0  0  0  0  0  0  0  0  0  0  0  0
   44.9640   34.1580   43.1110 N   0  0  0  0  0  0  0  0  0  0  0  0
   46.0260   34.5290   43.8800 C   0  0  0  0  0  0  0  0  0  0  0  0
   46.1900   33.6460   44.8830 N   0  0  0  0  0  0  0  0  0  0  0  0
   45.2060   32.7110   44.7270 C   0  0  0  0  0  0  0  0  0  0  0  0
   44.4720   33.0540   43.6320 N   0  0  0  0  0  0  0  0  0  0  0  0
   44.9160   31.5010   45.5590 C   0  0  0  0  0  0  0  0  0  0  0  0
   44.2850   31.8650   46.8780 C   0  0  0  0  0  0  0  0  0  0  0  0
   44.3080   30.6270   47.7510 C   0  0  0  0  0  0  0  0  0  0  0  0
   44.5600   29.3830   46.9590 C   0  0  0  0  0  0  0  0  0  0  0  0
   43.8300   29.3110   45.6560 C   0  0  0  0  0  0  0  0  0  0  0  0
   43.9460   30.5780   44.8470 C   0  0  0  0  0  0  0  0  0  0  0  0
   38.0814   36.3144   39.8459 H   0  0  0  0  0  0  0  0  0  0  0  0
   40.4799   37.0527   40.2268 H   0  0  0  0  0  0  0  0  0  0  0  0
   38.1293   29.5530   42.7530 H   0  0  0  0  0  0  0  0  0  0  0  0
   36.5590   28.5775   38.5198 H   0  0  0  0  0  0  0  0  0  0  0  0
   36.5589   29.7136   36.3472 H   0  0  0  0  0  0  0  0  0  0  0  0
   37.6482   32.0206   36.1776 H   0  0  0  0  0  0  0  0  0  0  0  0
   38.6445   32.9846   38.1996 H   0  0  0  0  0  0  0  0  0  0  0  0
   42.6576   34.2616   42.6615 H   0  0  0  0  0  0  0  0  0  0  0  0
   42.8617   36.3899   43.8987 H   0  0  0  0  0  0  0  0  0  0  0  0
   43.6486   37.2079   42.5065 H   0  0  0  0  0  0  0  0  0  0  0  0
   41.8716   36.9450   42.5065 H   0  0  0  0  0  0  0  0  0  0  0  0
   44.6931   34.3037   41.0272 H   0  0  0  0  0  0  0  0  0  0  0  0
   45.0435   35.8479   41.8410 H   0  0  0  0  0  0  0  0  0  0  0  0
   46.6540   35.4155   43.7075 H   0  0  0  0  0  0  0  0  0  0  0  0
   45.8843   31.0068   45.7270 H   0  0  0  0  0  0  0  0  0  0  0  0
   44.8567   32.6733   47.3574 H   0  0  0  0  0  0  0  0  0  0  0  0
   43.2529   32.2156   46.7300 H   0  0  0  0  0  0  0  0  0  0  0  0
   45.1049   30.7371   48.5012 H   0  0  0  0  0  0  0  0  0  0  0  0
   43.3211   30.5306   48.2272 H   0  0  0  0  0  0  0  0  0  0  0  0
   45.6384   29.3223   46.7509 H   0  0  0  0  0  0  0  0  0  0  0  0
   44.1881   28.5466   47.5691 H   0  0  0  0  0  0  0  0  0  0  0  0
   44.2445   28.4795   45.0671 H   0  0  0  0  0  0  0  0  0  0  0  0
   42.7642   29.1610   45.8829 H   0  0  0  0  0  0  0  0  0  0  0  0
   42.9611   31.0613   44.7669 H   0  0  0  0  0  0  0  0  0  0  0  0
   44.3075   30.3523   43.8329 H   0  0  0  0  0  0  0  0  0  0  0  0
  1  6  2  0
  1  2  1  0
  2  3  2  0
  3  4  1  0
  3 17  1  0
  5  7  1  0
  5  4  2  0
  6  5  1  0
  7  8  2  0
  8  9  1  0
 10  9  2  0
 11 10  1  0
 12 11  2  0
 13 12  1  0
 14 13  2  0
 14 15  1  0
 15 16  2  0
 16 11  1  0
 16  7  1  0
 17 18  1  0
 18 19  1  0
 20 18  1  0
 20 21  1  0
 21 25  1  0
 21 22  1  0
 22 23  2  0
 24 23  1  0
 24 26  1  0
 25 24  2  0
 26 27  1  0
 27 28  1  0
 29 28  1  0
 30 29  1  0
 31 26  1  0
 31 30  1  0
  1 32  1  0
  2 33  1  0
  9 34  1  0
 12 35  1  0
 13 36  1  0
 14 37  1  0
 15 38  1  0
 18 39  1  1
 19 40  1  0
 19 41  1  0
 19 42  1  0
 20 43  1  0
 20 44  1  0
 22 45  1  0
 26 46  1  0
 27 47  1  0
 27 48  1  0
 28 49  1  0
 28 50  1  0
 29 51  1  0
 29 52  1  0
 30 53  1  0
 30 54  1  0
 31 55  1  0
 31 56  1  0
M  END
>  <minimizedAffinity>  (1) 
-7.05096912

>  <minimizedRMSD>  (1) 
0.520780385

$$$$
