
     RDKit          3D

 29 30  0  0  0  0  0  0  0  0999 V2000
   37.9734   28.8834   43.3716 C   0  0  0  0  0  0  0  0  0  0  0  0
   38.0832   27.4745   43.3083 C   0  0  0  0  0  0  0  0  0  0  0  0
   37.4376   26.8165   42.2582 C   0  0  0  0  0  0  0  0  0  0  0  0
   36.7290   27.5714   41.3408 N   0  0  0  0  0  0  0  0  0  0  0  0
   36.6519   28.9190   41.4424 C   0  0  0  0  0  0  0  0  0  0  0  0
   37.2776   29.5470   42.4584 N   0  0  0  0  0  0  0  0  0  0  0  0
   37.5319   25.3362   42.1608 C   0  0  0  0  0  0  0  0  0  0  0  0
   37.6584   25.0510   40.8084 F   0  0  0  0  0  0  0  0  0  0  0  0
   38.6291   24.8423   42.7877 F   0  0  0  0  0  0  0  0  0  0  0  0
   36.3738   24.7136   42.6366 F   0  0  0  0  0  0  0  0  0  0  0  0
   38.4871   29.3575   44.1993 H   0  0  0  0  0  0  0  0  0  0  0  0
   38.6513   26.9297   44.0533 H   0  0  0  0  0  0  0  0  0  0  0  0
   35.8928   29.6824   40.4523 C   0  0  0  0  0  0  0  0  0  0  0  0
   34.4074   29.5455   40.5844 C   0  0  0  0  0  0  0  0  0  0  0  0
   33.6942   30.4553   39.6543 C   0  0  0  0  0  0  0  0  0  0  0  0
   34.3993   30.8999   38.4364 C   0  0  0  0  0  0  0  0  0  0  0  0
   35.7638   30.3974   38.1630 C   0  0  0  0  0  0  0  0  0  0  0  0
   36.1879   29.2316   39.0204 C   0  0  0  0  0  0  0  0  0  0  0  0
   36.1537   30.7689   40.5229 H   0  0  0  0  0  0  0  0  0  0  0  0
   34.1248   28.4919   40.3719 H   0  0  0  0  0  0  0  0  0  0  0  0
   34.0700   29.7073   41.6435 H   0  0  0  0  0  0  0  0  0  0  0  0
   32.7228   29.9491   39.3743 H   0  0  0  0  0  0  0  0  0  0  0  0
   33.3267   31.3313   40.2678 H   0  0  0  0  0  0  0  0  0  0  0  0
   33.7786   30.6906   37.5253 H   0  0  0  0  0  0  0  0  0  0  0  0
   34.4550   32.0266   38.4443 H   0  0  0  0  0  0  0  0  0  0  0  0
   36.5463   31.1896   38.3518 H   0  0  0  0  0  0  0  0  0  0  0  0
   35.9105   30.0866   37.1068 H   0  0  0  0  0  0  0  0  0  0  0  0
   35.5820   28.3295   38.8070 H   0  0  0  0  0  0  0  0  0  0  0  0
   37.2717   29.0971   38.8694 H   0  0  0  0  0  0  0  0  0  0  0  0
  2  1  2  0
  3  2  1  0
  4  5  1  0
  4  3  2  0
  5  6  2  0
  6  1  1  0
  7  3  1  0
  7 10  1  0
  7  9  1  0
  8  7  1  0
  1 11  1  0
  2 12  1  0
 13 14  1  0
 14 15  1  0
 15 16  1  0
 16 17  1  0
 17 18  1  0
 18 13  1  0
 13 19  1  0
 14 20  1  0
 14 21  1  0
 15 22  1  0
 15 23  1  0
 16 24  1  0
 16 25  1  0
 17 26  1  0
 17 27  1  0
 18 28  1  0
 18 29  1  0
  5 13  1  0
M  ISO  2  11  14  12  14
M  END
>  <DihAtoms>  (1) 
3,4,12,13

>  <DihDeg>  (1) 
58.043291173857746

$$$$
