
     RDKit          3D

 29 30  0  0  0  0  0  0  0  0999 V2000
   37.9734   28.8834   43.3716 C   0  0  0  0  0  0  0  0  0  0  0  0
   38.0832   27.4745   43.3083 C   0  0  0  0  0  0  0  0  0  0  0  0
   37.4376   26.8165   42.2582 C   0  0  0  0  0  0  0  0  0  0  0  0
   36.7290   27.5714   41.3408 N   0  0  0  0  0  0  0  0  0  0  0  0
   36.6519   28.9190   41.4424 C   0  0  0  0  0  0  0  0  0  0  0  0
   37.2776   29.5470   42.4584 N   0  0  0  0  0  0  0  0  0  0  0  0
   37.5319   25.3362   42.1608 C   0  0  0  0  0  0  0  0  0  0  0  0
   37.6584   25.0510   40.8084 F   0  0  0  0  0  0  0  0  0  0  0  0
   38.6291   24.8423   42.7877 F   0  0  0  0  0  0  0  0  0  0  0  0
   36.3738   24.7136   42.6366 F   0  0  0  0  0  0  0  0  0  0  0  0
   38.4871   29.3575   44.1993 H   0  0  0  0  0  0  0  0  0  0  0  0
   38.6513   26.9297   44.0533 H   0  0  0  0  0  0  0  0  0  0  0  0
   35.8928   29.6824   40.4523 C   0  0  0  0  0  0  0  0  0  0  0  0
   35.5999   28.9268   39.1930 C   0  0  0  0  0  0  0  0  0  0  0  0
   34.7042   29.6963   38.2947 C   0  0  0  0  0  0  0  0  0  0  0  0
   34.6805   31.1661   38.4261 C   0  0  0  0  0  0  0  0  0  0  0  0
   35.5709   31.8218   39.4091 C   0  0  0  0  0  0  0  0  0  0  0  0
   36.6438   30.9285   39.9792 C   0  0  0  0  0  0  0  0  0  0  0  0
   34.9213   30.0227   40.8925 H   0  0  0  0  0  0  0  0  0  0  0  0
   36.5586   28.7103   38.6743 H   0  0  0  0  0  0  0  0  0  0  0  0
   35.1750   27.9099   39.4105 H   0  0  0  0  0  0  0  0  0  0  0  0
   34.9701   29.4082   37.2343 H   0  0  0  0  0  0  0  0  0  0  0  0
   33.6703   29.2506   38.4000 H   0  0  0  0  0  0  0  0  0  0  0  0
   34.8671   31.6519   37.4318 H   0  0  0  0  0  0  0  0  0  0  0  0
   33.6262   31.4888   38.6650 H   0  0  0  0  0  0  0  0  0  0  0  0
   34.9986   32.1907   40.3102 H   0  0  0  0  0  0  0  0  0  0  0  0
   36.0852   32.7180   39.0017 H   0  0  0  0  0  0  0  0  0  0  0  0
   37.3721   30.6228   39.2028 H   0  0  0  0  0  0  0  0  0  0  0  0
   37.0891   31.4636   40.8342 H   0  0  0  0  0  0  0  0  0  0  0  0
  2  1  2  0
  3  2  1  0
  4  5  1  0
  4  3  2  0
  5  6  2  0
  6  1  1  0
  7  3  1  0
  7 10  1  0
  7  9  1  0
  8  7  1  0
  1 11  1  0
  2 12  1  0
 13 14  1  0
 14 15  1  0
 15 16  1  0
 16 17  1  0
 17 18  1  0
 18 13  1  0
 13 19  1  0
 14 20  1  0
 14 21  1  0
 15 22  1  0
 15 23  1  0
 16 24  1  0
 16 25  1  0
 17 26  1  0
 17 27  1  0
 18 28  1  0
 18 29  1  0
  5 13  1  0
M  ISO  2  11  14  12  14
M  END
>  <DihAtoms>  (1) 
3,4,12,13

>  <DihDeg>  (1) 
58.043291173857746

$$$$
