
     RDKit          3D

 29 30  0  0  0  0  0  0  0  0999 V2000
   37.9734   28.8834   43.3716 C   0  0  0  0  0  0  0  0  0  0  0  0
   38.0832   27.4745   43.3083 C   0  0  0  0  0  0  0  0  0  0  0  0
   37.4376   26.8165   42.2582 C   0  0  0  0  0  0  0  0  0  0  0  0
   36.7290   27.5714   41.3408 N   0  0  0  0  0  0  0  0  0  0  0  0
   36.6519   28.9190   41.4424 C   0  0  0  0  0  0  0  0  0  0  0  0
   37.2776   29.5470   42.4584 N   0  0  0  0  0  0  0  0  0  0  0  0
   37.5319   25.3362   42.1608 C   0  0  0  0  0  0  0  0  0  0  0  0
   37.6584   25.0510   40.8084 F   0  0  0  0  0  0  0  0  0  0  0  0
   38.6291   24.8423   42.7877 F   0  0  0  0  0  0  0  0  0  0  0  0
   36.3738   24.7136   42.6366 F   0  0  0  0  0  0  0  0  0  0  0  0
   38.4871   29.3575   44.1993 H   0  0  0  0  0  0  0  0  0  0  0  0
   38.6513   26.9297   44.0533 H   0  0  0  0  0  0  0  0  0  0  0  0
   35.8928   29.6824   40.4523 C   0  0  0  0  0  0  0  0  0  0  0  0
   36.1811   29.2983   39.0339 C   0  0  0  0  0  0  0  0  0  0  0  0
   35.2768   29.9978   38.0882 C   0  0  0  0  0  0  0  0  0  0  0  0
   34.6765   31.2768   38.5145 C   0  0  0  0  0  0  0  0  0  0  0  0
   35.0238   31.8361   39.8396 C   0  0  0  0  0  0  0  0  0  0  0  0
   36.2045   31.1791   40.5092 C   0  0  0  0  0  0  0  0  0  0  0  0
   34.7947   29.5609   40.6335 H   0  0  0  0  0  0  0  0  0  0  0  0
   37.2381   29.5518   38.8022 H   0  0  0  0  0  0  0  0  0  0  0  0
   36.1323   28.1854   38.8889 H   0  0  0  0  0  0  0  0  0  0  0  0
   35.8515   30.1436   37.1255 H   0  0  0  0  0  0  0  0  0  0  0  0
   34.4886   29.2508   37.7728 H   0  0  0  0  0  0  0  0  0  0  0  0
   34.8756   32.0767   37.7530 H   0  0  0  0  0  0  0  0  0  0  0  0
   33.5534   31.1762   38.4798 H   0  0  0  0  0  0  0  0  0  0  0  0
   34.1766   31.7196   40.5772 H   0  0  0  0  0  0  0  0  0  0  0  0
   35.2390   32.9253   39.8103 H   0  0  0  0  0  0  0  0  0  0  0  0
   37.1421   31.3615   39.9487 H   0  0  0  0  0  0  0  0  0  0  0  0
   36.2228   31.5343   41.5528 H   0  0  0  0  0  0  0  0  0  0  0  0
  2  1  2  0
  3  2  1  0
  4  5  1  0
  4  3  2  0
  5  6  2  0
  6  1  1  0
  7  3  1  0
  7 10  1  0
  7  9  1  0
  8  7  1  0
  1 11  1  0
  2 12  1  0
 13 14  1  0
 14 15  1  0
 15 16  1  0
 16 17  1  0
 17 18  1  0
 18 13  1  0
 13 19  1  0
 14 20  1  0
 14 21  1  0
 15 22  1  0
 15 23  1  0
 16 24  1  0
 16 25  1  0
 17 26  1  0
 17 27  1  0
 18 28  1  0
 18 29  1  0
  5 13  1  0
M  ISO  2  11  14  12  14
M  END
>  <DihAtoms>  (1) 
3,4,12,13

>  <DihDeg>  (1) 
58.043291173857746

$$$$
