
     RDKit          3D

 29 30  0  0  0  0  0  0  0  0999 V2000
   37.9734   28.8834   43.3716 C   0  0  0  0  0  0  0  0  0  0  0  0
   38.0832   27.4745   43.3083 C   0  0  0  0  0  0  0  0  0  0  0  0
   37.4376   26.8165   42.2582 C   0  0  0  0  0  0  0  0  0  0  0  0
   36.7290   27.5714   41.3408 N   0  0  0  0  0  0  0  0  0  0  0  0
   36.6519   28.9190   41.4424 C   0  0  0  0  0  0  0  0  0  0  0  0
   37.2776   29.5470   42.4584 N   0  0  0  0  0  0  0  0  0  0  0  0
   37.5319   25.3362   42.1608 C   0  0  0  0  0  0  0  0  0  0  0  0
   37.6584   25.0510   40.8084 F   0  0  0  0  0  0  0  0  0  0  0  0
   38.6291   24.8423   42.7877 F   0  0  0  0  0  0  0  0  0  0  0  0
   36.3738   24.7136   42.6366 F   0  0  0  0  0  0  0  0  0  0  0  0
   38.4871   29.3575   44.1993 H   0  0  0  0  0  0  0  0  0  0  0  0
   38.6513   26.9297   44.0533 H   0  0  0  0  0  0  0  0  0  0  0  0
   35.8928   29.6824   40.4523 C   0  0  0  0  0  0  0  0  0  0  0  0
   35.2966   28.8456   39.3629 C   0  0  0  0  0  0  0  0  0  0  0  0
   34.4188   29.6513   38.4789 C   0  0  0  0  0  0  0  0  0  0  0  0
   34.6589   31.1051   38.3956 C   0  0  0  0  0  0  0  0  0  0  0  0
   35.7806   31.7005   39.1549 C   0  0  0  0  0  0  0  0  0  0  0  0
   36.7623   30.7012   39.7130 C   0  0  0  0  0  0  0  0  0  0  0  0
   35.0667   30.2473   40.9542 H   0  0  0  0  0  0  0  0  0  0  0  0
   36.1193   28.3942   38.7674 H   0  0  0  0  0  0  0  0  0  0  0  0
   34.7454   27.9588   39.7775 H   0  0  0  0  0  0  0  0  0  0  0  0
   34.4743   29.1917   37.4474 H   0  0  0  0  0  0  0  0  0  0  0  0
   33.3521   29.4202   38.7748 H   0  0  0  0  0  0  0  0  0  0  0  0
   34.7754   31.4228   37.3256 H   0  0  0  0  0  0  0  0  0  0  0  0
   33.7196   31.6435   38.7127 H   0  0  0  0  0  0  0  0  0  0  0  0
   35.4163   32.2760   40.0558 H   0  0  0  0  0  0  0  0  0  0  0  0
   36.3709   32.4298   38.5605 H   0  0  0  0  0  0  0  0  0  0  0  0
   37.3076   30.1739   38.9061 H   0  0  0  0  0  0  0  0  0  0  0  0
   37.4111   31.2455   40.4191 H   0  0  0  0  0  0  0  0  0  0  0  0
  2  1  2  0
  3  2  1  0
  4  5  1  0
  4  3  2  0
  5  6  2  0
  6  1  1  0
  7  3  1  0
  7 10  1  0
  7  9  1  0
  8  7  1  0
  1 11  1  0
  2 12  1  0
 13 14  1  0
 14 15  1  0
 15 16  1  0
 16 17  1  0
 17 18  1  0
 18 13  1  0
 13 19  1  0
 14 20  1  0
 14 21  1  0
 15 22  1  0
 15 23  1  0
 16 24  1  0
 16 25  1  0
 17 26  1  0
 17 27  1  0
 18 28  1  0
 18 29  1  0
  5 13  1  0
M  ISO  2  11  14  12  14
M  END
>  <DihAtoms>  (1) 
3,4,12,13

>  <DihDeg>  (1) 
58.043291173857746

$$$$
