
     RDKit          3D

 29 30  0  0  0  0  0  0  0  0999 V2000
   37.9734   28.8834   43.3716 C   0  0  0  0  0  0  0  0  0  0  0  0
   38.0832   27.4745   43.3083 C   0  0  0  0  0  0  0  0  0  0  0  0
   37.4376   26.8165   42.2582 C   0  0  0  0  0  0  0  0  0  0  0  0
   36.7290   27.5714   41.3408 N   0  0  0  0  0  0  0  0  0  0  0  0
   36.6519   28.9190   41.4424 C   0  0  0  0  0  0  0  0  0  0  0  0
   37.2776   29.5470   42.4584 N   0  0  0  0  0  0  0  0  0  0  0  0
   37.5319   25.3362   42.1608 C   0  0  0  0  0  0  0  0  0  0  0  0
   37.6584   25.0510   40.8084 F   0  0  0  0  0  0  0  0  0  0  0  0
   38.6291   24.8423   42.7877 F   0  0  0  0  0  0  0  0  0  0  0  0
   36.3738   24.7136   42.6366 F   0  0  0  0  0  0  0  0  0  0  0  0
   38.4871   29.3575   44.1993 H   0  0  0  0  0  0  0  0  0  0  0  0
   38.6513   26.9297   44.0533 H   0  0  0  0  0  0  0  0  0  0  0  0
   35.8928   29.6824   40.4523 C   0  0  0  0  0  0  0  0  0  0  0  0
   35.0124   28.8430   39.5789 C   0  0  0  0  0  0  0  0  0  0  0  0
   34.1601   29.6826   38.7013 C   0  0  0  0  0  0  0  0  0  0  0  0
   34.6233   31.0459   38.3772 C   0  0  0  0  0  0  0  0  0  0  0  0
   35.9276   31.5125   38.8973 C   0  0  0  0  0  0  0  0  0  0  0  0
   36.8011   30.4252   39.4705 C   0  0  0  0  0  0  0  0  0  0  0  0
   35.2548   30.4470   40.9639 H   0  0  0  0  0  0  0  0  0  0  0  0
   35.6520   28.1783   38.9592 H   0  0  0  0  0  0  0  0  0  0  0  0
   34.3887   28.1307   40.1835 H   0  0  0  0  0  0  0  0  0  0  0  0
   33.9863   29.0980   37.7493 H   0  0  0  0  0  0  0  0  0  0  0  0
   33.1252   29.6902   39.1569 H   0  0  0  0  0  0  0  0  0  0  0  0
   34.6322   31.2034   37.2662 H   0  0  0  0  0  0  0  0  0  0  0  0
   33.8434   31.7829   38.7253 H   0  0  0  0  0  0  0  0  0  0  0  0
   35.8003   32.2511   39.7422 H   0  0  0  0  0  0  0  0  0  0  0  0
   36.5368   32.0422   38.1345 H   0  0  0  0  0  0  0  0  0  0  0  0
   37.1266   29.7117   38.6886 H   0  0  0  0  0  0  0  0  0  0  0  0
   37.6278   30.9227   40.0040 H   0  0  0  0  0  0  0  0  0  0  0  0
  2  1  2  0
  3  2  1  0
  4  5  1  0
  4  3  2  0
  5  6  2  0
  6  1  1  0
  7  3  1  0
  7 10  1  0
  7  9  1  0
  8  7  1  0
  1 11  1  0
  2 12  1  0
 13 14  1  0
 14 15  1  0
 15 16  1  0
 16 17  1  0
 17 18  1  0
 18 13  1  0
 13 19  1  0
 14 20  1  0
 14 21  1  0
 15 22  1  0
 15 23  1  0
 16 24  1  0
 16 25  1  0
 17 26  1  0
 17 27  1  0
 18 28  1  0
 18 29  1  0
  5 13  1  0
M  ISO  2  11  14  12  14
M  END
>  <DihAtoms>  (1) 
3,4,12,13

>  <DihDeg>  (1) 
58.043291173857746

$$$$
