
     RDKit          3D

 39 41  0  0  1  0  0  0  0  0999 V2000
   38.5410   28.0930   42.6820 C   0  0  2  0  0  0  0  0  0  0  0  0
   39.9710   28.3230   42.5000 C   0  0  0  0  0  0  0  0  0  0  0  0
   40.6390   27.4000   43.5280 C   0  0  0  0  0  0  0  0  0  0  0  0
   39.5810   26.4480   43.9900 C   0  0  0  0  0  0  0  0  0  0  0  0
   38.4080   26.6690   43.0970 C   0  0  2  0  0  0  0  0  0  0  0  0
   38.1410   28.5880   40.2060 C   0  0  0  0  0  0  0  0  0  0  0  0
   37.6700   28.4020   41.5320 C   0  0  0  0  0  0  0  0  0  0  0  0
   36.2980   28.5000   41.8000 C   0  0  0  0  0  0  0  0  0  0  0  0
   35.4780   28.7770   40.7400 N   0  0  0  0  0  0  0  0  0  0  0  0
   35.9490   28.9530   39.4700 C   0  0  0  0  0  0  0  0  0  0  0  0
   37.2920   28.8560   39.2080 N   0  0  0  0  0  0  0  0  0  0  0  0
   38.2430   25.6660   42.0130 C   0  0  0  0  0  0  0  0  0  0  0  0
   36.9410   24.8940   42.2980 C   0  0  0  0  0  0  0  0  0  0  0  0
   36.4640   24.3200   40.9680 C   0  0  0  0  0  0  0  0  0  0  0  0
   37.6590   23.8870   40.1410 C   0  0  0  0  0  0  0  0  0  0  0  0
   38.8250   23.5090   41.0250 C   0  0  0  0  0  0  0  0  0  0  0  0
   39.3260   24.6490   41.8840 C   0  0  0  0  0  0  0  0  0  0  0  0
   38.1785   28.8051   43.4380 H   0  0  0  0  0  0  0  0  0  0  0  0
   40.2812   28.0574   41.4786 H   0  0  0  0  0  0  0  0  0  0  0  0
   40.2476   29.3782   42.6413 H   0  0  0  0  0  0  0  0  0  0  0  0
   41.4694   26.8492   43.0621 H   0  0  0  0  0  0  0  0  0  0  0  0
   41.0544   27.9741   44.3694 H   0  0  0  0  0  0  0  0  0  0  0  0
   39.9366   25.4107   43.9035 H   0  0  0  0  0  0  0  0  0  0  0  0
   39.3206   26.6176   45.0452 H   0  0  0  0  0  0  0  0  0  0  0  0
   37.4491   26.5023   43.6097 H   0  0  0  0  0  0  0  0  0  0  0  0
   39.2181   28.5107   39.9966 H   0  0  0  0  0  0  0  0  0  0  0  0
   35.8986   28.3607   42.8154 H   0  0  0  0  0  0  0  0  0  0  0  0
   35.2471   29.1739   38.6524 H   0  0  0  0  0  0  0  0  0  0  0  0
   38.2521   26.2414   41.0756 H   0  0  0  0  0  0  0  0  0  0  0  0
   37.1327   24.0809   43.0136 H   0  0  0  0  0  0  0  0  0  0  0  0
   36.1795   25.5560   42.7361 H   0  0  0  0  0  0  0  0  0  0  0  0
   35.8153   23.4517   41.1560 H   0  0  0  0  0  0  0  0  0  0  0  0
   35.9009   25.0896   40.4198 H   0  0  0  0  0  0  0  0  0  0  0  0
   37.3761   23.0181   39.5286 H   0  0  0  0  0  0  0  0  0  0  0  0
   37.9642   24.7283   39.5014 H   0  0  0  0  0  0  0  0  0  0  0  0
   38.5092   22.6881   41.6856 H   0  0  0  0  0  0  0  0  0  0  0  0
   39.6522   23.2163   40.3616 H   0  0  0  0  0  0  0  0  0  0  0  0
   39.5973   24.2696   42.8802 H   0  0  0  0  0  0  0  0  0  0  0  0
   40.2130   25.1047   41.4198 H   0  0  0  0  0  0  0  0  0  0  0  0
  1  5  1  0
  2  1  1  0
  2  3  1  0
  3  4  1  0
  5  4  1  0
  6  7  2  0
  7  8  1  0
  7  1  1  0
  9  8  2  0
 10  9  1  0
 11 10  2  0
 11  6  1  0
 12 13  1  0
 12  5  1  0
 14 13  1  0
 15 14  1  0
 15 16  1  0
 16 17  1  0
 17 12  1  0
  1 18  1  1
  2 19  1  0
  2 20  1  0
  3 21  1  0
  3 22  1  0
  4 23  1  0
  4 24  1  0
  5 25  1  1
  6 26  1  0
  8 27  1  0
 10 28  1  0
 12 29  1  0
 13 30  1  0
 13 31  1  0
 14 32  1  0
 14 33  1  0
 15 34  1  0
 15 35  1  0
 16 36  1  0
 16 37  1  0
 17 38  1  0
 17 39  1  0
M  ISO  8  18  13  19  13  20  13  21  13  22  13  23  13  24  13  25  13
M  ISO  8  26  14  27  14  28  14  29  13  30  13  31  13  32  13  33  13
M  ISO  6  34  13  35  13  36  13  37  13  38  13  39  13
M  END
>  <minimizedAffinity>  (1) 
-4.86077309

>  <minimizedRMSD>  (1) 
2.0059545

$$$$
