
     RDKit          3D

 29 30  0  0  0  0  0  0  0  0999 V2000
   37.9734   28.8834   43.3716 C   0  0  0  0  0  0  0  0  0  0  0  0
   38.0832   27.4745   43.3083 C   0  0  0  0  0  0  0  0  0  0  0  0
   37.4376   26.8165   42.2582 C   0  0  0  0  0  0  0  0  0  0  0  0
   36.7290   27.5714   41.3408 N   0  0  0  0  0  0  0  0  0  0  0  0
   36.6519   28.9190   41.4424 C   0  0  0  0  0  0  0  0  0  0  0  0
   37.2776   29.5470   42.4584 N   0  0  0  0  0  0  0  0  0  0  0  0
   37.5319   25.3362   42.1608 C   0  0  0  0  0  0  0  0  0  0  0  0
   37.6584   25.0510   40.8084 F   0  0  0  0  0  0  0  0  0  0  0  0
   38.6291   24.8423   42.7877 F   0  0  0  0  0  0  0  0  0  0  0  0
   36.3738   24.7136   42.6366 F   0  0  0  0  0  0  0  0  0  0  0  0
   38.4871   29.3575   44.1993 H   0  0  0  0  0  0  0  0  0  0  0  0
   38.6513   26.9297   44.0533 H   0  0  0  0  0  0  0  0  0  0  0  0
   35.8928   29.6824   40.4523 C   0  0  0  0  0  0  0  0  0  0  0  0
   34.4534   29.2831   40.3468 C   0  0  0  0  0  0  0  0  0  0  0  0
   33.7046   30.1881   39.4403 C   0  0  0  0  0  0  0  0  0  0  0  0
   34.4601   30.9169   38.4029 C   0  0  0  0  0  0  0  0  0  0  0  0
   35.9170   30.6933   38.2737 C   0  0  0  0  0  0  0  0  0  0  0  0
   36.4399   29.5013   39.0351 C   0  0  0  0  0  0  0  0  0  0  0  0
   35.9382   30.7749   40.6928 H   0  0  0  0  0  0  0  0  0  0  0  0
   34.3982   28.2398   39.9679 H   0  0  0  0  0  0  0  0  0  0  0  0
   33.9641   29.2299   41.3566 H   0  0  0  0  0  0  0  0  0  0  0  0
   32.8852   29.5742   38.9607 H   0  0  0  0  0  0  0  0  0  0  0  0
   33.1092   30.8916   40.0955 H   0  0  0  0  0  0  0  0  0  0  0  0
   34.0056   30.7431   37.3917 H   0  0  0  0  0  0  0  0  0  0  0  0
   34.3057   32.0238   38.5566 H   0  0  0  0  0  0  0  0  0  0  0  0
   36.5107   31.5681   38.6709 H   0  0  0  0  0  0  0  0  0  0  0  0
   36.2473   30.5691   37.2206 H   0  0  0  0  0  0  0  0  0  0  0  0
   36.0417   28.5522   38.6263 H   0  0  0  0  0  0  0  0  0  0  0  0
   37.5402   29.5720   39.0298 H   0  0  0  0  0  0  0  0  0  0  0  0
  2  1  2  0
  3  2  1  0
  4  5  1  0
  4  3  2  0
  5  6  2  0
  6  1  1  0
  7  3  1  0
  7 10  1  0
  7  9  1  0
  8  7  1  0
  1 11  1  0
  2 12  1  0
 13 14  1  0
 14 15  1  0
 15 16  1  0
 16 17  1  0
 17 18  1  0
 18 13  1  0
 13 19  1  0
 14 20  1  0
 14 21  1  0
 15 22  1  0
 15 23  1  0
 16 24  1  0
 16 25  1  0
 17 26  1  0
 17 27  1  0
 18 28  1  0
 18 29  1  0
  5 13  1  0
M  ISO  2  11  14  12  14
M  END
>  <DihAtoms>  (1) 
3,4,12,13

>  <DihDeg>  (1) 
58.043291173857746

$$$$
