
     RDKit          3D

 44 47  0  0  1  0  0  0  0  0999 V2000
   38.7330   26.8320   42.4140 C   0  0  2  0  0  0  0  0  0  0  0  0
   39.4430   27.4590   43.5150 C   0  0  0  0  0  0  0  0  0  0  0  0
   40.1640   26.3150   44.2240 C   0  0  0  0  0  0  0  0  0  0  0  0
   40.1530   25.1580   43.2580 C   0  0  0  0  0  0  0  0  0  0  0  0
   39.6670   25.7140   41.9340 C   0  0  1  0  0  0  0  0  0  0  0  0
   39.2300   28.4570   40.5210 C   0  0  0  0  0  0  0  0  0  0  0  0
   38.3160   27.6860   41.3090 C   0  0  0  0  0  0  0  0  0  0  0  0
   36.9690   27.7410   41.0180 C   0  0  0  0  0  0  0  0  0  0  0  0
   36.5680   28.5420   39.9740 N   0  0  0  0  0  0  0  0  0  0  0  0
   37.4710   29.2770   39.2260 C   0  0  0  0  0  0  0  0  0  0  0  0
   38.8210   29.2250   39.5150 N   0  0  0  0  0  0  0  0  0  0  0  0
   37.0280   30.1230   38.1210 C   0  0  0  0  0  0  0  0  0  0  0  0
   38.0390   31.1600   37.6830 C   0  0  0  0  0  0  0  0  0  0  0  0
   37.3830   31.6900   36.4230 C   0  0  0  0  0  0  0  0  0  0  0  0
   36.7150   30.4860   35.7990 C   0  0  0  0  0  0  0  0  0  0  0  0
   36.8300   29.3670   36.8150 C   0  0  0  0  0  0  0  0  0  0  0  0
   38.9390   24.5460   41.3530 C   0  0  0  0  0  0  0  0  0  0  0  0
   37.7770   24.0820   41.8760 N   0  0  0  0  0  0  0  0  0  0  0  0
   37.4030   23.0590   41.1370 O   0  0  0  0  0  0  0  0  0  0  0  0
   38.2900   22.8820   40.1840 C   0  0  0  0  0  0  0  0  0  0  0  0
   39.2630   23.7920   40.2880 N   0  0  0  0  0  0  0  0  0  0  0  0
   38.1380   21.7850   39.1740 C   0  0  0  0  0  0  0  0  0  0  0  0
   37.0480   21.0110   39.5040 F   0  0  0  0  0  0  0  0  0  0  0  0
   37.9690   22.3200   37.9040 F   0  0  0  0  0  0  0  0  0  0  0  0
   39.2710   20.9790   39.1750 F   0  0  0  0  0  0  0  0  0  0  0  0
   37.7589   26.4855   42.7897 H   0  0  0  0  0  0  0  0  0  0  0  0
   40.1663   28.1971   43.1381 H   0  0  0  0  0  0  0  0  0  0  0  0
   38.7633   27.9999   44.1899 H   0  0  0  0  0  0  0  0  0  0  0  0
   41.1981   26.6041   44.4629 H   0  0  0  0  0  0  0  0  0  0  0  0
   39.6721   26.0538   45.1726 H   0  0  0  0  0  0  0  0  0  0  0  0
   41.1661   24.7437   43.1483 H   0  0  0  0  0  0  0  0  0  0  0  0
   39.5018   24.3461   43.6139 H   0  0  0  0  0  0  0  0  0  0  0  0
   40.3846   26.1023   41.1963 H   0  0  0  0  0  0  0  0  0  0  0  0
   40.3039   28.4127   40.7550 H   0  0  0  0  0  0  0  0  0  0  0  0
   36.2383   27.1625   41.6023 H   0  0  0  0  0  0  0  0  0  0  0  0
   36.1086   30.5498   38.5482 H   0  0  0  0  0  0  0  0  0  0  0  0
   38.1601   31.9503   38.4384 H   0  0  0  0  0  0  0  0  0  0  0  0
   39.0557   30.7673   37.5340 H   0  0  0  0  0  0  0  0  0  0  0  0
   36.6388   32.4618   36.6689 H   0  0  0  0  0  0  0  0  0  0  0  0
   38.1090   32.1604   35.7435 H   0  0  0  0  0  0  0  0  0  0  0  0
   35.6574   30.7029   35.5882 H   0  0  0  0  0  0  0  0  0  0  0  0
   37.1898   30.2127   34.8451 H   0  0  0  0  0  0  0  0  0  0  0  0
   35.9130   28.7601   36.8427 H   0  0  0  0  0  0  0  0  0  0  0  0
   37.6403   28.6568   36.5936 H   0  0  0  0  0  0  0  0  0  0  0  0
  1  2  1  0
  2  3  1  0
  4  3  1  0
  5  1  1  0
  5  4  1  0
  6  7  2  0
  7  1  1  0
  8  7  1  0
  9  8  2  0
 10 11  2  0
 10  9  1  0
 11  6  1  0
 12 10  1  0
 13 12  1  0
 14 13  1  0
 15 14  1  0
 15 16  1  0
 16 12  1  0
 17 18  2  0
 17  5  1  0
 19 18  1  0
 20 21  2  0
 20 19  1  0
 21 17  1  0
 22 25  1  0
 22 23  1  0
 22 20  1  0
 24 22  1  0
  1 26  1  1
  2 27  1  0
  2 28  1  0
  3 29  1  0
  3 30  1  0
  4 31  1  0
  4 32  1  0
  5 33  1  6
  6 34  1  0
  8 35  1  0
 12 36  1  0
 13 37  1  0
 13 38  1  0
 14 39  1  0
 14 40  1  0
 15 41  1  0
 15 42  1  0
 16 43  1  0
 16 44  1  0
M  ISO  8  26  13  27  13  28  13  29  13  30  13  31  13  32  13  33  13
M  ISO  8  34  14  35  14  36  13  37  13  38  13  39  13  40  13  41  13
M  ISO  3  42  13  43  13  44  13
M  END
>  <minimizedAffinity>  (1) 
-4.72723293

>  <minimizedRMSD>  (1) 
2.69648576

$$$$
