
     RDKit          3D

 26 27  0  0  0  0  0  0  0  0999 V2000
   37.9684   28.8793   43.3676 C   0  0  0  0  0  0  0  0  0  0  0  0
   38.0774   27.4739   43.3102 C   0  0  0  0  0  0  0  0  0  0  0  0
   37.4359   26.8144   42.2624 C   0  0  0  0  0  0  0  0  0  0  0  0
   36.7413   27.5729   41.3561 N   0  0  0  0  0  0  0  0  0  0  0  0
   36.6579   28.9130   41.4410 C   0  0  0  0  0  0  0  0  0  0  0  0
   37.2743   29.5546   42.4492 N   0  0  0  0  0  0  0  0  0  0  0  0
   37.5199   25.3325   42.1558 C   0  0  0  0  0  0  0  0  0  0  0  0
   37.6527   25.0600   40.8012 F   0  0  0  0  0  0  0  0  0  0  0  0
   38.6343   24.8389   42.7897 F   0  0  0  0  0  0  0  0  0  0  0  0
   36.3839   24.7155   42.6398 F   0  0  0  0  0  0  0  0  0  0  0  0
   38.4797   29.3869   44.2000 H   0  0  0  0  0  0  0  0  0  0  0  0
   38.6370   26.9318   44.0510 H   0  0  0  0  0  0  0  0  0  0  0  0
   35.8764   29.6656   40.4058 C   0  0  0  0  0  0  0  0  0  0  0  0
   34.4229   29.7764   40.7666 C   0  0  0  0  0  0  0  0  0  0  0  0
   33.9675   31.1539   40.4179 C   0  0  0  0  0  0  0  0  0  0  0  0
   35.1999   31.9966   40.4587 C   0  0  0  0  0  0  0  0  0  0  0  0
   36.3641   31.0645   40.2004 C   0  0  0  0  0  0  0  0  0  0  0  0
   35.9315   29.0910   39.4444 H   0  0  0  0  0  0  0  0  0  0  0  0
   33.7696   29.0523   40.2353 H   0  0  0  0  0  0  0  0  0  0  0  0
   34.3373   29.6471   41.8580 H   0  0  0  0  0  0  0  0  0  0  0  0
   33.4951   31.1410   39.3962 H   0  0  0  0  0  0  0  0  0  0  0  0
   33.1983   31.5438   41.1393 H   0  0  0  0  0  0  0  0  0  0  0  0
   35.1001   32.7589   39.6464 H   0  0  0  0  0  0  0  0  0  0  0  0
   35.3370   32.4625   41.4534 H   0  0  0  0  0  0  0  0  0  0  0  0
   37.1931   31.3074   40.8979 H   0  0  0  0  0  0  0  0  0  0  0  0
   36.6620   31.2077   39.1359 H   0  0  0  0  0  0  0  0  0  0  0  0
  2  1  2  0
  3  2  1  0
  4  5  1  0
  4  3  2  0
  5  6  2  0
  6  1  1  0
  7  3  1  0
  7 10  1  0
  7  9  1  0
  8  7  1  0
  1 11  1  0
  2 12  1  0
 13 14  1  0
 14 15  1  0
 15 16  1  0
 16 17  1  0
 17 13  1  0
 13 18  1  0
 14 19  1  0
 14 20  1  0
 15 21  1  0
 15 22  1  0
 16 23  1  0
 16 24  1  0
 17 25  1  0
 17 26  1  0
  5 13  1  0
M  ISO  2  11  14  12  14
M  END
>  <DihAtoms>  (1) 
3,4,12,13

>  <DihDeg>  (1) 
-62.47135660387491

$$$$
