
     RDKit          3D

 40 43  0  0  1  0  0  0  0  0999 V2000
   38.6730   29.8230   42.7350 C   0  0  1  0  0  0  0  0  0  0  0  0
   39.9750   30.5460   42.7270 C   0  0  0  0  0  0  0  0  0  0  0  0
   39.2840   30.4440   41.4470 C   0  0  2  0  0  0  0  0  0  0  0  0
   38.5910   31.5960   40.8770 C   0  0  0  0  0  0  0  0  0  0  0  0
   39.0550   32.8810   41.1340 C   0  0  0  0  0  0  0  0  0  0  0  0
   38.5510   33.9720   40.4970 C   0  0  0  0  0  0  0  0  0  0  0  0
   37.5490   33.7690   39.5740 C   0  0  0  0  0  0  0  0  0  0  0  0
   37.0960   32.5110   39.3280 C   0  0  0  0  0  0  0  0  0  0  0  0
   37.6170   31.3810   39.9850 C   0  0  0  0  0  0  0  0  0  0  0  0
   36.9360   30.2060   39.5230 C   0  0  0  0  0  0  0  0  0  0  0  0
   36.3720   30.2740   38.1160 C   0  0  0  0  0  0  0  0  0  0  0  0
   35.3790   29.1270   38.0440 C   0  0  0  0  0  0  0  0  0  0  0  0
   35.2350   28.6260   39.4830 C   0  0  0  0  0  0  0  0  0  0  0  0
   35.5920   29.9270   40.2500 C   0  0  0  0  0  0  0  0  0  0  0  0
   38.7010   28.3280   42.7670 C   0  0  0  0  0  0  0  0  0  0  0  0
   39.8000   27.7180   43.3520 C   0  0  0  0  0  0  0  0  0  0  0  0
   39.8990   26.3290   43.4100 C   0  0  0  0  0  0  0  0  0  0  0  0
   38.8460   25.6190   42.8580 N   0  0  0  0  0  0  0  0  0  0  0  0
   37.7830   26.2530   42.2950 C   0  0  0  0  0  0  0  0  0  0  0  0
   37.7210   27.6330   42.2550 N   0  0  0  0  0  0  0  0  0  0  0  0
   37.7456   29.9058   43.3208 H   0  0  0  0  0  0  0  0  0  0  0  0
   40.0515   31.5252   43.2223 H   0  0  0  0  0  0  0  0  0  0  0  0
   40.9887   30.2806   43.0617 H   0  0  0  0  0  0  0  0  0  0  0  0
   39.5830   30.0950   40.4476 H   0  0  0  0  0  0  0  0  0  0  0  0
   39.8551   33.0199   41.8760 H   0  0  0  0  0  0  0  0  0  0  0  0
   38.9306   34.9819   40.7116 H   0  0  0  0  0  0  0  0  0  0  0  0
   37.1153   34.6248   39.0359 H   0  0  0  0  0  0  0  0  0  0  0  0
   36.2934   32.3715   38.5888 H   0  0  0  0  0  0  0  0  0  0  0  0
   37.7473   29.4777   39.6690 H   0  0  0  0  0  0  0  0  0  0  0  0
   35.8665   31.2362   37.9466 H   0  0  0  0  0  0  0  0  0  0  0  0
   37.1561   30.1950   37.3486 H   0  0  0  0  0  0  0  0  0  0  0  0
   34.4103   29.4796   37.6601 H   0  0  0  0  0  0  0  0  0  0  0  0
   35.7201   28.3315   37.3652 H   0  0  0  0  0  0  0  0  0  0  0  0
   34.2097   28.2913   39.6994 H   0  0  0  0  0  0  0  0  0  0  0  0
   35.8522   27.7514   39.7361 H   0  0  0  0  0  0  0  0  0  0  0  0
   35.7234   29.7578   41.3289 H   0  0  0  0  0  0  0  0  0  0  0  0
   34.8435   30.7329   40.2316 H   0  0  0  0  0  0  0  0  0  0  0  0
   40.6038   28.3380   43.7756 H   0  0  0  0  0  0  0  0  0  0  0  0
   40.7635   25.8259   43.8677 H   0  0  0  0  0  0  0  0  0  0  0  0
   36.9619   25.6599   41.8659 H   0  0  0  0  0  0  0  0  0  0  0  0
  1 15  1  0
  2  1  1  0
  3  2  1  0
  3  1  1  0
  4  5  2  0
  4  3  1  0
  6  5  1  0
  7  6  2  0
  8  7  1  0
  8  9  2  0
  9  4  1  0
 10  9  1  0
 10 14  1  0
 11 10  1  0
 12 11  1  0
 12 13  1  0
 13 14  1  0
 15 16  2  0
 16 17  1  0
 18 17  2  0
 19 18  1  0
 20 19  2  0
 20 15  1  0
  1 21  1  1
  2 22  1  0
  2 23  1  0
  3 24  1  6
  5 25  1  0
  6 26  1  0
  7 27  1  0
  8 28  1  0
 10 29  1  0
 11 30  1  0
 11 31  1  0
 12 32  1  0
 12 33  1  0
 13 34  1  0
 13 35  1  0
 14 36  1  0
 14 37  1  0
 16 38  1  0
 17 39  1  0
 19 40  1  0
M  ISO  8  21  13  22  13  23  13  24  13  25  14  26  14  27  14  28  14
M  ISO  8  29  13  30  13  31  13  32  13  33  13  34  13  35  13  36  13
M  ISO  4  37  13  38  14  39  14  40  14
M  END
>  <minimizedAffinity>  (1) 
-5.68719435

>  <minimizedRMSD>  (1) 
5.35483551

$$$$
