
     RDKit          3D

 47 50  0  0  1  0  0  0  0  0999 V2000
   39.1580   33.8580   39.7710 C   0  0  0  0  0  0  0  0  0  0  0  0
   38.7450   35.0320   40.3460 C   0  0  0  0  0  0  0  0  0  0  0  0
   39.6360   36.1000   40.3630 C   0  0  0  0  0  0  0  0  0  0  0  0
   40.8910   35.9410   39.8020 C   0  0  0  0  0  0  0  0  0  0  0  0
   41.2820   34.7460   39.2270 C   0  0  0  0  0  0  0  0  0  0  0  0
   40.4250   33.7010   39.2100 C   0  0  0  0  0  0  0  0  0  0  0  0
   41.0130   32.5430   38.6260 N   0  0  0  0  0  0  0  0  0  0  0  0
   41.3790   32.1750   37.2740 C   0  0  0  0  0  0  0  0  0  0  0  0
   42.6010   31.3720   37.1280 C   0  0  0  0  0  0  0  0  0  0  0  0
   42.9920   30.6850   38.3410 N   0  0  0  0  0  0  0  0  0  0  0  0
   41.8240   30.3680   39.0910 C   0  0  0  0  0  0  0  0  0  0  0  0
   41.2200   31.6000   39.7020 C   0  0  1  0  0  0  0  0  0  0  0  0
   41.7760   31.9770   40.9900 C   0  0  0  0  0  0  0  0  0  0  0  0
   41.7580   30.6540   41.8310 C   0  0  0  0  0  0  0  0  0  0  0  0
   42.2010   31.3200   43.1490 C   0  0  0  0  0  0  0  0  0  0  0  0
   43.2960   32.2930   42.6870 C   0  0  0  0  0  0  0  0  0  0  0  0
   43.2500   32.1770   41.1490 C   0  0  0  0  0  0  0  0  0  0  0  0
   36.8980   31.1650   40.7970 C   0  0  0  0  0  0  0  0  0  0  0  0
   36.4250   30.6300   39.6050 C   0  0  0  0  0  0  0  0  0  0  0  0
   36.8950   31.2130   38.4320 C   0  0  0  0  0  0  0  0  0  0  0  0
   37.7560   32.2310   38.5580 N   0  0  0  0  0  0  0  0  0  0  0  0
   38.2090   32.7430   39.7230 C   0  0  0  0  0  0  0  0  0  0  0  0
   37.7530   32.1770   40.8090 N   0  0  0  0  0  0  0  0  0  0  0  0
   37.7391   35.1266   40.7809 H   0  0  0  0  0  0  0  0  0  0  0  0
   39.3466   37.0593   40.8168 H   0  0  0  0  0  0  0  0  0  0  0  0
   41.5949   36.7862   39.8138 H   0  0  0  0  0  0  0  0  0  0  0  0
   42.2847   34.6463   38.7859 H   0  0  0  0  0  0  0  0  0  0  0  0
   40.5456   31.5986   36.8459 H   0  0  0  0  0  0  0  0  0  0  0  0
   41.5867   33.1234   36.7570 H   0  0  0  0  0  0  0  0  0  0  0  0
   42.4317   30.6210   36.3423 H   0  0  0  0  0  0  0  0  0  0  0  0
   43.4151   32.0670   36.8744 H   0  0  0  0  0  0  0  0  0  0  0  0
   43.4939   29.8183   38.1006 H   0  0  0  0  0  0  0  0  0  0  0  0
   41.0855   29.8993   38.4240 H   0  0  0  0  0  0  0  0  0  0  0  0
   42.1065   29.6799   39.9014 H   0  0  0  0  0  0  0  0  0  0  0  0
   40.2117   31.4561   40.1175 H   0  0  0  0  0  0  0  0  0  0  0  0
   41.2162   32.8953   41.2210 H   0  0  0  0  0  0  0  0  0  0  0  0
   40.7577   30.2010   41.8952 H   0  0  0  0  0  0  0  0  0  0  0  0
   42.3560   29.8077   41.4619 H   0  0  0  0  0  0  0  0  0  0  0  0
   41.3660   31.8584   43.6212 H   0  0  0  0  0  0  0  0  0  0  0  0
   42.5482   30.6007   43.9053 H   0  0  0  0  0  0  0  0  0  0  0  0
   43.0726   33.3201   43.0113 H   0  0  0  0  0  0  0  0  0  0  0  0
   44.2852   32.0576   43.1065 H   0  0  0  0  0  0  0  0  0  0  0  0
   43.8279   31.3168   40.7801 H   0  0  0  0  0  0  0  0  0  0  0  0
   43.6820   33.0212   40.5915 H   0  0  0  0  0  0  0  0  0  0  0  0
   36.5551   30.7390   41.7514 H   0  0  0  0  0  0  0  0  0  0  0  0
   35.7158   29.7893   39.5894 H   0  0  0  0  0  0  0  0  0  0  0  0
   36.5731   30.8531   37.4437 H   0  0  0  0  0  0  0  0  0  0  0  0
  1  2  2  0
  2  3  1  0
  4  3  2  0
  5  4  1  0
  6  5  2  0
  6  1  1  0
  7  6  1  0
  7 12  1  0
  8  7  1  0
  9  8  1  0
  9 10  1  0
 10 11  1  0
 11 12  1  0
 12 13  1  0
 13 17  1  0
 13 14  1  0
 14 15  1  0
 16 15  1  0
 17 16  1  0
 18 23  2  0
 19 18  1  0
 20 21  1  0
 20 19  2  0
 21 22  2  0
 22  1  1  0
 22 23  1  0
  2 24  1  0
  3 25  1  0
  4 26  1  0
  5 27  1  0
  8 28  1  0
  8 29  1  0
  9 30  1  0
  9 31  1  0
 10 32  1  0
 11 33  1  0
 11 34  1  0
 12 35  1  1
 13 36  1  0
 14 37  1  0
 14 38  1  0
 15 39  1  0
 15 40  1  0
 16 41  1  0
 16 42  1  0
 17 43  1  0
 17 44  1  0
 18 45  1  0
 19 46  1  0
 20 47  1  0
M  ISO  8  24  14  25  14  26  14  27  14  28  13  29  13  30  13  31  13
M  ISO  8  32   5  33  13  34  13  35  13  36  13  37  13  38  13  39  13
M  ISO  8  40  13  41  13  42  13  43  13  44  13  45  14  46  14  47  14
M  END
>  <minimizedAffinity>  (1) 
-5.47592497

>  <minimizedRMSD>  (1) 
4.16947365

$$$$
