
     RDKit          3D

 46 50  0  0  0  0  0  0  0  0999 V2000
   44.5850   26.4030   44.3920 C   0  0  0  0  0  0  0  0  0  0  0  0
   43.4240   26.4330   43.6100 C   0  0  0  0  0  0  0  0  0  0  0  0
   42.2450   26.9290   44.1700 C   0  0  0  0  0  0  0  0  0  0  0  0
   42.2890   27.3680   45.4840 N   0  0  0  0  0  0  0  0  0  0  0  0
   43.4340   27.3140   46.1830 C   0  0  0  0  0  0  0  0  0  0  0  0
   44.5750   26.8400   45.6560 N   0  0  0  0  0  0  0  0  0  0  0  0
   43.3860   25.9690   42.2290 C   0  0  0  0  0  0  0  0  0  0  0  0
   44.4190   26.1240   41.3340 C   0  0  0  0  0  0  0  0  0  0  0  0
   44.4010   25.6910   40.0230 C   0  0  0  0  0  0  0  0  0  0  0  0
   43.2650   25.0620   39.5930 N   0  0  0  0  0  0  0  0  0  0  0  0
   42.2510   24.9050   40.4560 C   0  0  0  0  0  0  0  0  0  0  0  0
   42.2920   25.3390   41.7350 N   0  0  0  0  0  0  0  0  0  0  0  0
   43.4070   27.8060   47.5970 C   0  0  0  0  0  0  0  0  0  0  0  0
   43.3720   29.1900   47.6350 F   0  0  0  0  0  0  0  0  0  0  0  0
   42.2230   27.4180   48.2320 F   0  0  0  0  0  0  0  0  0  0  0  0
   44.5270   27.4030   48.3140 F   0  0  0  0  0  0  0  0  0  0  0  0
   41.1210   26.9550   43.4050 O   0  0  0  0  0  0  0  0  0  0  0  0
   37.1350   29.0870   43.3010 N   0  0  0  0  0  0  0  0  0  0  0  0
   37.0060   27.8040   43.7110 C   0  0  0  0  0  0  0  0  0  0  0  0
   38.2480   27.2590   43.7060 N   0  0  0  0  0  0  0  0  0  0  0  0
   39.1670   28.1810   43.2990 C   0  0  0  0  0  0  0  0  0  0  0  0
   40.5290   28.1630   43.1170 C   0  0  0  0  0  0  0  0  0  0  0  0
   41.1510   29.2910   42.6860 N   0  0  0  0  0  0  0  0  0  0  0  0
   40.4090   30.3980   42.4510 C   0  0  0  0  0  0  0  0  0  0  0  0
   39.0790   30.4570   42.6150 N   0  0  0  0  0  0  0  0  0  0  0  0
   38.4180   29.3360   43.0490 C   0  0  0  0  0  0  0  0  0  0  0  0
   41.1110   31.6310   41.9770 C   0  0  0  0  0  0  0  0  0  0  0  0
   41.5120   31.5360   40.5180 C   0  0  0  0  0  0  0  0  0  0  0  0
   42.4520   32.7160   40.3850 C   0  0  0  0  0  0  0  0  0  0  0  0
   43.0100   32.9650   41.7840 C   0  0  0  0  0  0  0  0  0  0  0  0
   42.4760   31.7920   42.6180 C   0  0  0  0  0  0  0  0  0  0  0  0
   45.5191   26.0143   43.9604 H   0  0  0  0  0  0  0  0  0  0  0  0
   45.3280   26.6312   41.6895 H   0  0  0  0  0  0  0  0  0  0  0  0
   45.2611   25.8449   39.3548 H   0  0  0  0  0  0  0  0  0  0  0  0
   41.3402   24.3975   40.1053 H   0  0  0  0  0  0  0  0  0  0  0  0
   36.3641   29.7626   43.2001 H   0  0  0  0  0  0  0  0  0  0  0  0
   36.0710   27.2987   43.9946 H   0  0  0  0  0  0  0  0  0  0  0  0
   40.3955   32.4344   42.2063 H   0  0  0  0  0  0  0  0  0  0  0  0
   42.0255   30.5872   40.3035 H   0  0  0  0  0  0  0  0  0  0  0  0
   40.6639   31.5574   39.8178 H   0  0  0  0  0  0  0  0  0  0  0  0
   43.2665   32.4795   39.6845 H   0  0  0  0  0  0  0  0  0  0  0  0
   41.9338   33.6034   39.9926 H   0  0  0  0  0  0  0  0  0  0  0  0
   44.1099   32.9652   41.7708 H   0  0  0  0  0  0  0  0  0  0  0  0
   42.7081   33.9418   42.1898 H   0  0  0  0  0  0  0  0  0  0  0  0
   42.4007   32.0479   43.6852 H   0  0  0  0  0  0  0  0  0  0  0  0
   43.1049   30.8895   42.6137 H   0  0  0  0  0  0  0  0  0  0  0  0
  1  6  2  0
  2  3  2  0
  2  1  1  0
  3  4  1  0
  4  5  2  0
  5 13  1  0
  6  5  1  0
  7  2  1  0
  8  7  2  0
  9  8  1  0
 10  9  2  0
 10 11  1  0
 11 12  2  0
 12  7  1  0
 13 14  1  0
 13 15  1  0
 13 16  1  0
 17  3  1  0
 18 19  1  0
 20 19  2  0
 21 20  1  0
 22 21  2  0
 22 17  1  0
 23 22  1  0
 24 25  1  0
 24 23  2  0
 25 26  2  0
 26 21  1  0
 26 18  1  0
 27 24  1  0
 27 31  1  0
 28 27  1  0
 29 28  1  0
 29 30  1  0
 30 31  1  0
  1 32  1  0
  8 33  1  0
  9 34  1  0
 11 35  1  0
 18 36  1  0
 19 37  1  0
 27 38  1  0
 28 39  1  0
 28 40  1  0
 29 41  1  0
 29 42  1  0
 30 43  1  0
 30 44  1  0
 31 45  1  0
 31 46  1  0
M  ISO  8  32  14  33  14  34  14  35  14  36   9  37  14  38  13  39  13
M  ISO  7  40  13  41  13  42  13  43  13  44  13  45  13  46  13
M  END
>  <minimizedAffinity>  (1) 
-5.97635651

>  <minimizedRMSD>  (1) 
0.157939419

$$$$
