
     RDKit          3D

 35 37  0  0  0  0  0  0  0  0999 V2000
   36.6780   30.0750   40.7510 C   0  0  0  0  0  0  0  0  0  0  0  0
   37.8300   30.1310   41.5390 C   0  0  0  0  0  0  0  0  0  0  0  0
   38.6500   31.2780   41.3910 C   0  0  0  0  0  0  0  0  0  0  0  0
   38.2790   32.2420   40.5090 N   0  0  0  0  0  0  0  0  0  0  0  0
   37.1400   32.1300   39.7680 C   0  0  0  0  0  0  0  0  0  0  0  0
   36.3360   31.0350   39.8930 N   0  0  0  0  0  0  0  0  0  0  0  0
   38.2080   29.1550   42.4510 N   0  0  0  0  0  0  0  0  0  0  0  0
   39.2790   28.1840   42.3200 C   0  0  0  0  0  0  0  0  0  0  0  0
   38.7940   26.9770   43.0920 C   0  0  0  0  0  0  0  0  0  0  0  0
   37.5200   27.4170   43.7700 C   0  0  0  0  0  0  0  0  0  0  0  0
   37.6320   28.9080   43.7380 C   0  0  0  0  0  0  0  0  0  0  0  0
   35.7150   28.9500   40.7720 C   0  0  0  0  0  0  0  0  0  0  0  0
   34.5230   29.2170   39.8790 C   0  0  0  0  0  0  0  0  0  0  0  0
   34.7970   28.6540   38.5280 C   0  0  0  0  0  0  0  0  0  0  0  0
   35.8980   27.6770   38.7300 C   0  0  0  0  0  0  0  0  0  0  0  0
   36.3200   27.6950   40.1590 C   0  0  0  0  0  0  0  0  0  0  0  0
   39.5721   31.3855   41.9811 H   0  0  0  0  0  0  0  0  0  0  0  0
   36.8670   32.9294   39.0634 H   0  0  0  0  0  0  0  0  0  0  0  0
   39.4447   27.9284   41.2630 H   0  0  0  0  0  0  0  0  0  0  0  0
   40.2379   28.5657   42.7005 H   0  0  0  0  0  0  0  0  0  0  0  0
   38.5958   26.1380   42.4088 H   0  0  0  0  0  0  0  0  0  0  0  0
   39.5434   26.6291   43.8182 H   0  0  0  0  0  0  0  0  0  0  0  0
   36.6352   27.0732   43.2143 H   0  0  0  0  0  0  0  0  0  0  0  0
   37.4006   27.0088   44.7844 H   0  0  0  0  0  0  0  0  0  0  0  0
   38.2875   29.2735   44.5422 H   0  0  0  0  0  0  0  0  0  0  0  0
   36.6707   29.4204   43.8906 H   0  0  0  0  0  0  0  0  0  0  0  0
   35.4417   28.8327   41.8310 H   0  0  0  0  0  0  0  0  0  0  0  0
   33.6285   28.7383   40.3041 H   0  0  0  0  0  0  0  0  0  0  0  0
   34.3494   30.3006   39.8031 H   0  0  0  0  0  0  0  0  0  0  0  0
   35.1089   29.4490   37.8347 H   0  0  0  0  0  0  0  0  0  0  0  0
   33.9046   28.1834   38.0896 H   0  0  0  0  0  0  0  0  0  0  0  0
   35.5476   26.6689   38.4635 H   0  0  0  0  0  0  0  0  0  0  0  0
   36.7516   27.9483   38.0915 H   0  0  0  0  0  0  0  0  0  0  0  0
   35.9451   26.8001   40.6773 H   0  0  0  0  0  0  0  0  0  0  0  0
   37.4162   27.6962   40.2503 H   0  0  0  0  0  0  0  0  0  0  0  0
  1 12  1  0
  1  2  1  0
  2  7  1  0
  3  2  2  0
  4  3  1  0
  5  6  1  0
  5  4  2  0
  6  1  2  0
  7 11  1  0
  8  7  1  0
  8  9  1  0
  9 10  1  0
 11 10  1  0
 13 12  1  0
 14 15  1  0
 14 13  1  0
 15 16  1  0
 16 12  1  0
  3 17  1  0
  5 18  1  0
  8 19  1  0
  8 20  1  0
  9 21  1  0
  9 22  1  0
 10 23  1  0
 10 24  1  0
 11 25  1  0
 11 26  1  0
 12 27  1  0
 13 28  1  0
 13 29  1  0
 14 30  1  0
 14 31  1  0
 15 32  1  0
 15 33  1  0
 16 34  1  0
 16 35  1  0
M  ISO  8  17  14  18  14  19  13  20  13  21  13  22  13  23  13  24  13
M  ISO  8  25  13  26  13  27  13  28  13  29  13  30  13  31  13  32  13
M  ISO  3  33  13  34  13  35  13
M  END
>  <minimizedAffinity>  (1) 
-4.68430901

>  <minimizedRMSD>  (1) 
3.91158652

$$$$
