
     RDKit          3D

 44 48  0  0  1  0  0  0  0  0999 V2000
   36.1700   30.7840   41.1890 C   0  0  0  0  0  0  0  0  0  0  0  0
   36.7230   29.6890   41.8790 C   0  0  0  0  0  0  0  0  0  0  0  0
   37.6740   28.9080   41.2290 C   0  0  0  0  0  0  0  0  0  0  0  0
   38.0030   29.2590   39.9660 N   0  0  0  0  0  0  0  0  0  0  0  0
   37.4610   30.3160   39.3160 C   0  0  0  0  0  0  0  0  0  0  0  0
   36.5380   31.0820   39.9350 N   0  0  0  0  0  0  0  0  0  0  0  0
   38.2510   27.7690   41.9200 C   0  0  0  0  0  0  0  0  0  0  0  0
   39.1850   27.7640   42.9290 C   0  0  0  0  0  0  0  0  0  0  0  0
   39.4460   26.4810   43.2830 N   0  0  0  0  0  0  0  0  0  0  0  0
   38.7100   25.6320   42.5370 C   0  0  0  0  0  0  0  0  0  0  0  0
   38.5870   24.2540   42.4810 C   0  0  0  0  0  0  0  0  0  0  0  0
   37.7260   23.6360   41.5840 C   0  0  0  0  0  0  0  0  0  0  0  0
   36.9990   24.4550   40.7530 C   0  0  0  0  0  0  0  0  0  0  0  0
   37.1110   25.8160   40.7980 C   0  0  0  0  0  0  0  0  0  0  0  0
   37.9650   26.4330   41.6870 C   0  0  0  0  0  0  0  0  0  0  0  0
   37.9000   30.6290   37.9240 C   0  0  1  0  0  0  0  0  0  0  0  0
   37.7750   32.0580   37.4430 C   0  0  0  0  0  0  0  0  0  0  0  0
   39.1170   31.4350   37.6980 C   0  0  1  0  0  0  0  0  0  0  0  0
   39.9150   32.1330   38.7220 C   0  0  0  0  0  0  0  0  0  0  0  0
   39.2120   33.2790   39.4180 C   0  0  0  0  0  0  0  0  0  0  0  0
   40.3350   34.0570   40.0820 C   0  0  0  0  0  0  0  0  0  0  0  0
   41.3580   34.0610   38.9720 C   0  0  0  0  0  0  0  0  0  0  0  0
   41.0600   32.9000   38.0540 C   0  0  0  0  0  0  0  0  0  0  0  0
   35.4177   31.4103   41.6909 H   0  0  0  0  0  0  0  0  0  0  0  0
   36.4109   29.4560   42.9077 H   0  0  0  0  0  0  0  0  0  0  0  0
   39.6462   28.6566   43.3769 H   0  0  0  0  0  0  0  0  0  0  0  0
   40.1108   26.1960   44.0163 H   0  0  0  0  0  0  0  0  0  0  0  0
   39.1861   23.6337   43.1639 H   0  0  0  0  0  0  0  0  0  0  0  0
   37.6300   22.5411   41.5403 H   0  0  0  0  0  0  0  0  0  0  0  0
   36.3059   24.0007   40.0297 H   0  0  0  0  0  0  0  0  0  0  0  0
   36.5089   26.4304   40.1125 H   0  0  0  0  0  0  0  0  0  0  0  0
   37.5566   29.6459   37.5696 H   0  0  0  0  0  0  0  0  0  0  0  0
   37.3893   32.8372   38.1169 H   0  0  0  0  0  0  0  0  0  0  0  0
   37.2914   32.5611   36.5927 H   0  0  0  0  0  0  0  0  0  0  0  0
   40.0411   31.1657   37.1655 H   0  0  0  0  0  0  0  0  0  0  0  0
   40.1819   31.3222   39.4159 H   0  0  0  0  0  0  0  0  0  0  0  0
   38.6782   33.9085   38.6908 H   0  0  0  0  0  0  0  0  0  0  0  0
   38.4554   32.9341   40.1381 H   0  0  0  0  0  0  0  0  0  0  0  0
   40.0206   35.0768   40.3486 H   0  0  0  0  0  0  0  0  0  0  0  0
   40.6898   33.6305   41.0319 H   0  0  0  0  0  0  0  0  0  0  0  0
   41.2956   35.0052   38.4111 H   0  0  0  0  0  0  0  0  0  0  0  0
   42.3718   33.9667   39.3883 H   0  0  0  0  0  0  0  0  0  0  0  0
   41.9452   32.2553   37.9499 H   0  0  0  0  0  0  0  0  0  0  0  0
   40.7891   33.2385   37.0430 H   0  0  0  0  0  0  0  0  0  0  0  0
  1  2  2  0
  3  2  1  0
  3  7  1  0
  4  3  2  0
  5  6  2  0
  5  4  1  0
  6  1  1  0
  7  8  2  0
  8  9  1  0
 10  9  1  0
 11 10  2  0
 12 11  1  0
 13 14  1  0
 13 12  2  0
 14 15  2  0
 15  7  1  0
 15 10  1  0
 16  5  1  0
 17 18  1  0
 17 16  1  0
 18 16  1  0
 18 19  1  0
 19 20  1  0
 20 21  1  0
 22 21  1  0
 23 19  1  0
 23 22  1  0
  1 24  1  0
  2 25  1  0
  8 26  1  0
  9 27  1  0
 11 28  1  0
 12 29  1  0
 13 30  1  0
 14 31  1  0
 16 32  1  6
 17 33  1  0
 17 34  1  0
 18 35  1  6
 19 36  1  0
 20 37  1  0
 20 38  1  0
 21 39  1  0
 21 40  1  0
 22 41  1  0
 22 42  1  0
 23 43  1  0
 23 44  1  0
M  ISO  8  24  14  25  14  26  14  27   9  28  14  29  14  30  14  31  14
M  ISO  8  32  13  33  13  34  13  35  13  36  13  37  13  38  13  39  13
M  ISO  5  40  13  41  13  42  13  43  13  44  13
M  END
>  <minimizedAffinity>  (1) 
-5.53764009

>  <minimizedRMSD>  (1) 
2.53358436

$$$$
