
     RDKit          3D

 45 48  0  0  1  0  0  0  0  0999 V2000
   33.2820   26.9690   36.9510 N   0  0  0  0  0  0  0  0  0  0  0  0
   33.2670   28.4070   37.0130 C   0  0  0  0  0  0  0  0  0  0  0  0
   34.4160   29.0470   36.2710 C   0  0  0  0  0  0  0  0  0  0  0  0
   35.6280   28.1440   36.2240 C   0  0  2  0  0  0  0  0  0  0  0  0
   35.6690   27.2080   37.4220 C   0  0  0  0  0  0  0  0  0  0  0  0
   34.4570   26.3670   37.5560 C   0  0  2  0  0  0  0  0  0  0  0  0
   34.5760   24.9730   37.1320 C   0  0  0  0  0  0  0  0  0  0  0  0
   34.2540   24.3440   35.9500 C   0  0  0  0  0  0  0  0  0  0  0  0
   34.4290   23.0120   35.6990 C   0  0  0  0  0  0  0  0  0  0  0  0
   34.9660   22.2180   36.6900 C   0  0  0  0  0  0  0  0  0  0  0  0
   35.3090   22.7990   37.9000 C   0  0  0  0  0  0  0  0  0  0  0  0
   35.1220   24.1660   38.1380 C   0  0  0  0  0  0  0  0  0  0  0  0
   37.1070   29.1840   36.3500 S   0  0  0  0  0  0  0  0  0  0  0  0
   37.1870   30.0820   40.2710 C   0  0  0  0  0  0  0  0  0  0  0  0
   37.2030   31.4570   40.3240 C   0  0  0  0  0  0  0  0  0  0  0  0
   37.1880   32.1500   39.1210 C   0  0  0  0  0  0  0  0  0  0  0  0
   37.1590   31.4240   37.9390 C   0  0  0  0  0  0  0  0  0  0  0  0
   37.1440   30.0440   37.9050 C   0  0  0  0  0  0  0  0  0  0  0  0
   37.1580   29.4030   39.0910 N   0  0  0  0  0  0  0  0  0  0  0  0
   38.1190   28.9910   43.6380 C   0  0  0  0  0  0  0  0  0  0  0  0
   37.2840   27.8780   43.8610 C   0  0  0  0  0  0  0  0  0  0  0  0
   36.3950   27.5050   42.8390 C   0  0  0  0  0  0  0  0  0  0  0  0
   36.4010   28.2450   41.7050 N   0  0  0  0  0  0  0  0  0  0  0  0
   37.2010   29.2970   41.5130 C   0  0  0  0  0  0  0  0  0  0  0  0
   38.0430   29.6450   42.4890 N   0  0  0  0  0  0  0  0  0  0  0  0
   32.4476   26.6144   37.4399 H   0  0  0  0  0  0  0  0  0  0  0  0
   32.3243   28.7659   36.5742 H   0  0  0  0  0  0  0  0  0  0  0  0
   33.3642   28.6893   38.0717 H   0  0  0  0  0  0  0  0  0  0  0  0
   34.0963   29.2674   35.2418 H   0  0  0  0  0  0  0  0  0  0  0  0
   34.6964   29.9674   36.8041 H   0  0  0  0  0  0  0  0  0  0  0  0
   35.5845   27.5612   35.2921 H   0  0  0  0  0  0  0  0  0  0  0  0
   36.5419   26.5468   37.3176 H   0  0  0  0  0  0  0  0  0  0  0  0
   35.7277   27.8371   38.3225 H   0  0  0  0  0  0  0  0  0  0  0  0
   34.3329   26.3276   38.6483 H   0  0  0  0  0  0  0  0  0  0  0  0
   33.8233   24.9603   35.1471 H   0  0  0  0  0  0  0  0  0  0  0  0
   34.1472   22.5823   34.7264 H   0  0  0  0  0  0  0  0  0  0  0  0
   35.1195   21.1417   36.5228 H   0  0  0  0  0  0  0  0  0  0  0  0
   35.7391   22.1705   38.6937 H   0  0  0  0  0  0  0  0  0  0  0  0
   35.4019   24.6029   39.1079 H   0  0  0  0  0  0  0  0  0  0  0  0
   37.2269   31.9889   41.2866 H   0  0  0  0  0  0  0  0  0  0  0  0
   37.1989   33.2498   39.1054 H   0  0  0  0  0  0  0  0  0  0  0  0
   37.1474   31.9729   36.9858 H   0  0  0  0  0  0  0  0  0  0  0  0
   38.8292   29.3144   44.4132 H   0  0  0  0  0  0  0  0  0  0  0  0
   37.3269   27.3180   44.8068 H   0  0  0  0  0  0  0  0  0  0  0  0
   35.7197   26.6445   42.9556 H   0  0  0  0  0  0  0  0  0  0  0  0
  1  2  1  0
  1  6  1  0
  3  2  1  0
  4  3  1  0
  4 13  1  0
  4  5  1  0
  5  6  1  0
  7  6  1  0
  7 12  1  0
  8  7  2  0
  9  8  1  0
  9 10  2  0
 10 11  1  0
 11 12  2  0
 13 18  1  0
 14 15  2  0
 14 24  1  0
 16 15  1  0
 17 16  2  0
 18 17  1  0
 18 19  2  0
 19 14  1  0
 20 21  2  0
 22 21  1  0
 23 22  2  0
 24 23  1  0
 24 25  2  0
 25 20  1  0
  1 26  1  0
  2 27  1  0
  2 28  1  0
  3 29  1  0
  3 30  1  0
  4 31  1  6
  5 32  1  0
  5 33  1  0
  6 34  1  1
  8 35  1  0
  9 36  1  0
 10 37  1  0
 11 38  1  0
 12 39  1  0
 15 40  1  0
 16 41  1  0
 17 42  1  0
 20 43  1  0
 21 44  1  0
 22 45  1  0
M  ISO  8  26   5  27  13  28  13  29  13  30  13  31  13  32  13  33  13
M  ISO  8  34  13  35  14  36  14  37  14  38  14  39  14  40  14  41  14
M  ISO  4  42  14  43  14  44  14  45  14
M  END
>  <minimizedAffinity>  (1) 
-4.90778303

>  <minimizedRMSD>  (1) 
0.777599037

$$$$
