
     RDKit          3D

 44 47  0  0  0  0  0  0  0  0999 V2000
   37.5280   29.5380   38.0200 N   0  0  0  0  0  0  0  0  0  0  0  0
   38.2210   28.3650   37.9850 C   0  0  0  0  0  0  0  0  0  0  0  0
   39.5630   28.3980   37.6280 C   0  0  0  0  0  0  0  0  0  0  0  0
   40.1620   29.5950   37.3220 C   0  0  0  0  0  0  0  0  0  0  0  0
   41.5180   29.6760   36.9560 N   0  0  0  0  0  0  0  0  0  0  0  0
   39.4300   30.7350   37.3710 N   0  0  0  0  0  0  0  0  0  0  0  0
   38.1260   30.6920   37.7190 C   0  0  0  0  0  0  0  0  0  0  0  0
   37.3640   31.7100   37.7930 O   0  0  0  0  0  0  0  0  0  0  0  0
   37.3400   28.6730   43.0050 C   0  0  0  0  0  0  0  0  0  0  0  0
   38.4010   29.6190   43.0420 C   0  0  0  0  0  0  0  0  0  0  0  0
   38.5900   30.4490   41.9210 C   0  0  0  0  0  0  0  0  0  0  0  0
   37.7420   30.2880   40.8770 N   0  0  0  0  0  0  0  0  0  0  0  0
   36.7430   29.3760   40.8770 C   0  0  0  0  0  0  0  0  0  0  0  0
   36.5450   28.5740   41.9370 N   0  0  0  0  0  0  0  0  0  0  0  0
   35.9030   29.2860   39.7240 N   0  0  0  0  0  0  0  0  0  0  0  0
   34.6070   29.1100   39.8520 N   0  0  0  0  0  0  0  0  0  0  0  0
   33.9900   29.0510   38.6710 C   0  0  0  0  0  0  0  0  0  0  0  0
   34.9610   29.2000   37.7250 C   0  0  0  0  0  0  0  0  0  0  0  0
   36.1600   29.3480   38.4030 C   0  0  0  0  0  0  0  0  0  0  0  0
   37.1300   27.7960   44.1750 C   0  0  0  0  0  0  0  0  0  0  0  0
   36.6840   28.5000   45.2680 F   0  0  0  0  0  0  0  0  0  0  0  0
   38.3040   27.0990   44.4820 F   0  0  0  0  0  0  0  0  0  0  0  0
   36.1490   26.8780   43.8290 F   0  0  0  0  0  0  0  0  0  0  0  0
   41.8060   24.8180   37.9080 C   0  0  0  0  0  0  0  0  0  0  0  0
   41.5800   25.6260   39.0110 C   0  0  0  0  0  0  0  0  0  0  0  0
   40.8320   26.7870   38.8390 C   0  0  0  0  0  0  0  0  0  0  0  0
   40.3190   27.1380   37.5870 C   0  0  0  0  0  0  0  0  0  0  0  0
   40.5540   26.3210   36.4930 C   0  0  0  0  0  0  0  0  0  0  0  0
   41.2970   25.1720   36.6750 C   0  0  0  0  0  0  0  0  0  0  0  0
   42.7460   23.3380   38.0700 S   0  0  0  0  0  0  0  0  0  0  0  0
   41.7800   22.2070   37.8290 O   0  0  0  0  0  0  0  0  0  0  0  0
   43.8710   23.3370   37.0720 O   0  0  0  0  0  0  0  0  0  0  0  0
   37.7286   27.4134   38.2339 H   0  0  0  0  0  0  0  0  0  0  0  0
   42.0917   28.8216   36.9127 H   0  0  0  0  0  0  0  0  0  0  0  0
   41.9371   30.5897   36.7313 H   0  0  0  0  0  0  0  0  0  0  0  0
   39.0558   29.6999   43.9222 H   0  0  0  0  0  0  0  0  0  0  0  0
   39.3945   31.1987   41.8938 H   0  0  0  0  0  0  0  0  0  0  0  0
   32.9133   28.9103   38.4952 H   0  0  0  0  0  0  0  0  0  0  0  0
   34.8195   29.2022   36.6341 H   0  0  0  0  0  0  0  0  0  0  0  0
   41.9821   25.3562   39.9987 H   0  0  0  0  0  0  0  0  0  0  0  0
   40.6412   27.4399   39.7035 H   0  0  0  0  0  0  0  0  0  0  0  0
   40.1571   26.5823   35.5009 H   0  0  0  0  0  0  0  0  0  0  0  0
   41.4892   24.5187   35.8111 H   0  0  0  0  0  0  0  0  0  0  0  0
   43.3227   23.2174   39.3068 H   0  0  0  0  0  0  0  0  0  0  0  0
  1 19  1  0
  2  1  1  0
  3  2  2  0
  4  6  2  0
  4  3  1  0
  5  4  1  0
  6  7  1  0
  7  8  2  0
  7  1  1  0
  9 10  2  0
  9 20  1  0
 11 10  1  0
 12 13  1  0
 12 11  2  0
 13 14  2  0
 14  9  1  0
 15 16  1  0
 15 13  1  0
 17 16  2  0
 18 19  2  0
 18 17  1  0
 19 15  1  0
 20 22  1  0
 20 21  1  0
 23 20  1  0
 24 30  1  0
 24 25  2  0
 26 25  1  0
 27  3  1  0
 27 26  2  0
 28 29  2  0
 28 27  1  0
 29 24  1  0
 31 30  2  0
 32 30  2  0
  2 33  1  0
  5 34  1  0
  5 35  1  0
 10 36  1  0
 11 37  1  0
 17 38  1  0
 18 39  1  0
 25 40  1  0
 26 41  1  0
 28 42  1  0
 29 43  1  0
 30 44  1  0
M  ISO  8  33  14  36  14  37  14  38  14  39  14  40  14  41  14  42  14
M  ISO  2  43  14  44  11
M  END
>  <minimizedAffinity>  (1) 
-6.14729786

>  <minimizedRMSD>  (1) 
0.913986206

$$$$
