
     RDKit          3D

 26 27  0  0  0  0  0  0  0  0999 V2000
   37.9712   28.8835   43.3668 C   0  0  0  0  0  0  0  0  0  0  0  0
   38.0876   27.4739   43.3169 C   0  0  0  0  0  0  0  0  0  0  0  0
   37.4361   26.8172   42.2604 C   0  0  0  0  0  0  0  0  0  0  0  0
   36.7262   27.5728   41.3391 N   0  0  0  0  0  0  0  0  0  0  0  0
   36.6562   28.9129   41.4459 C   0  0  0  0  0  0  0  0  0  0  0  0
   37.2771   29.5496   42.4545 N   0  0  0  0  0  0  0  0  0  0  0  0
   37.5180   25.3398   42.1495 C   0  0  0  0  0  0  0  0  0  0  0  0
   37.6603   25.0560   40.8065 F   0  0  0  0  0  0  0  0  0  0  0  0
   38.6256   24.8369   42.7932 F   0  0  0  0  0  0  0  0  0  0  0  0
   36.3877   24.7125   42.6402 F   0  0  0  0  0  0  0  0  0  0  0  0
   38.4824   29.3545   44.1888 H   0  0  0  0  0  0  0  0  0  0  0  0
   38.6480   26.9259   44.0518 H   0  0  0  0  0  0  0  0  0  0  0  0
   34.4084   31.9808   36.1788 H   0  0  0  0  0  0  0  0  0  0  0  0
   33.6180   32.0759   37.3162 S   0  0  0  0  0  0  0  0  0  0  0  0
   33.4485   33.5027   37.7466 O   0  0  0  0  0  0  0  0  0  0  0  0
   32.2818   31.3965   37.0665 O   0  0  0  0  0  0  0  0  0  0  0  0
   34.4778   31.2279   38.5816 C   0  0  0  0  0  0  0  0  0  0  0  0
   34.6039   31.6460   39.8840 C   0  0  0  0  0  0  0  0  0  0  0  0
   35.3072   30.9002   40.8123 C   0  0  0  0  0  0  0  0  0  0  0  0
   35.9165   29.7057   40.4869 C   0  0  0  0  0  0  0  0  0  0  0  0
   35.7692   29.3151   39.1671 C   0  0  0  0  0  0  0  0  0  0  0  0
   35.0762   30.0360   38.2238 C   0  0  0  0  0  0  0  0  0  0  0  0
   34.1172   32.5829   40.1083 H   0  0  0  0  0  0  0  0  0  0  0  0
   35.3712   31.2817   41.8216 H   0  0  0  0  0  0  0  0  0  0  0  0
   36.2519   28.3666   38.9049 H   0  0  0  0  0  0  0  0  0  0  0  0
   35.0398   29.6185   37.2367 H   0  0  0  0  0  0  0  0  0  0  0  0
  2  1  2  0
  3  2  1  0
  4  5  1  0
  4  3  2  0
  5  6  2  0
  6  1  1  0
  7  3  1  0
  7 10  1  0
  7  9  1  0
  8  7  1  0
  1 11  1  0
  2 12  1  0
 13 14  1  0
 14 15  2  0
 14 16  2  0
 14 17  1  0
 17 18  2  0
 18 19  1  0
 19 20  2  0
 20 21  1  0
 21 22  2  0
 22 17  1  0
 18 23  1  0
 19 24  1  0
 21 25  1  0
 22 26  1  0
  5 20  1  0
M  ISO  3  11  14  12  14  13  12
M  END
>  <DihAtoms>  (1) 
3,4,19,18

>  <DihDeg>  (1) 
-0.003068586327730006

$$$$
