
     RDKit          3D

 48 51  0  0  1  0  0  0  0  0999 V2000
   33.4050   27.0590   37.0220 N   0  0  0  0  0  0  0  0  0  0  0  0
   33.2730   28.4920   36.8940 C   0  0  0  0  0  0  0  0  0  0  0  0
   34.4110   29.1480   36.1650 C   0  0  0  0  0  0  0  0  0  0  0  0
   35.6870   28.3710   36.3070 C   0  0  2  0  0  0  0  0  0  0  0  0
   35.7280   27.5840   37.6100 C   0  0  0  0  0  0  0  0  0  0  0  0
   34.5820   26.6630   37.7790 C   0  0  2  0  0  0  0  0  0  0  0  0
   35.6440   22.5270   37.6060 C   0  0  0  0  0  0  0  0  0  0  0  0
   36.1670   23.4220   38.5130 C   0  0  0  0  0  0  0  0  0  0  0  0
   35.7850   24.7690   38.5280 C   0  0  0  0  0  0  0  0  0  0  0  0
   34.8490   25.2360   37.6020 C   0  0  0  0  0  0  0  0  0  0  0  0
   34.3490   24.3110   36.7120 C   0  0  0  0  0  0  0  0  0  0  0  0
   34.7240   22.9860   36.6970 C   0  0  0  0  0  0  0  0  0  0  0  0
   36.0970   20.8370   37.5580 S   0  0  0  0  0  0  0  0  0  0  0  0
   35.0410   19.9640   36.9930 O   0  0  0  0  0  0  0  0  0  0  0  0
   36.5800   20.3840   38.9010 O   0  0  0  0  0  0  0  0  0  0  0  0
   37.0730   29.5430   36.4090 S   0  0  0  0  0  0  0  0  0  0  0  0
   37.1690   30.2300   40.3750 C   0  0  0  0  0  0  0  0  0  0  0  0
   37.1760   31.5960   40.5010 C   0  0  0  0  0  0  0  0  0  0  0  0
   37.1510   32.3550   39.3430 C   0  0  0  0  0  0  0  0  0  0  0  0
   37.1200   31.6990   38.1190 C   0  0  0  0  0  0  0  0  0  0  0  0
   37.1140   30.3210   38.0020 C   0  0  0  0  0  0  0  0  0  0  0  0
   37.1390   29.6200   39.1540 N   0  0  0  0  0  0  0  0  0  0  0  0
   38.1450   28.9490   43.6540 C   0  0  0  0  0  0  0  0  0  0  0  0
   37.3000   27.8320   43.8340 C   0  0  0  0  0  0  0  0  0  0  0  0
   36.3880   27.5250   42.8110 C   0  0  0  0  0  0  0  0  0  0  0  0
   36.3800   28.3210   41.7190 N   0  0  0  0  0  0  0  0  0  0  0  0
   37.1960   29.3780   41.5730 C   0  0  0  0  0  0  0  0  0  0  0  0
   38.0550   29.6650   42.5420 N   0  0  0  0  0  0  0  0  0  0  0  0
   33.4679   26.6495   36.0790 H   0  0  0  0  0  0  0  0  0  0  0  0
   32.3428   28.7062   36.3473 H   0  0  0  0  0  0  0  0  0  0  0  0
   33.2693   28.9035   37.9141 H   0  0  0  0  0  0  0  0  0  0  0  0
   34.5616   30.1575   36.5752 H   0  0  0  0  0  0  0  0  0  0  0  0
   34.1534   29.1892   35.0964 H   0  0  0  0  0  0  0  0  0  0  0  0
   35.7513   27.6902   35.4454 H   0  0  0  0  0  0  0  0  0  0  0  0
   36.6557   26.9932   37.6310 H   0  0  0  0  0  0  0  0  0  0  0  0
   35.6802   28.3144   38.4311 H   0  0  0  0  0  0  0  0  0  0  0  0
   34.3722   26.7782   38.8526 H   0  0  0  0  0  0  0  0  0  0  0  0
   36.9062   23.0683   39.2468 H   0  0  0  0  0  0  0  0  0  0  0  0
   36.2207   25.4576   39.2669 H   0  0  0  0  0  0  0  0  0  0  0  0
   33.6089   24.6496   35.9720 H   0  0  0  0  0  0  0  0  0  0  0  0
   34.2874   22.2975   35.9585 H   0  0  0  0  0  0  0  0  0  0  0  0
   37.1435   20.7177   36.6819 H   0  0  0  0  0  0  0  0  0  0  0  0
   37.2007   32.0738   41.4915 H   0  0  0  0  0  0  0  0  0  0  0  0
   37.1556   33.4539   39.3914 H   0  0  0  0  0  0  0  0  0  0  0  0
   37.0993   32.3035   37.2002 H   0  0  0  0  0  0  0  0  0  0  0  0
   38.8732   29.2232   44.4315 H   0  0  0  0  0  0  0  0  0  0  0  0
   37.3544   27.2212   44.7472 H   0  0  0  0  0  0  0  0  0  0  0  0
   35.7046   26.6672   42.8956 H   0  0  0  0  0  0  0  0  0  0  0  0
  1  6  1  0
  2  1  1  0
  3  4  1  0
  3  2  1  0
  4 16  1  0
  4  5  1  0
  5  6  1  0
  7  8  2  0
  8  9  1  0
 10  6  1  0
 10  9  2  0
 11 10  1  0
 12 11  2  0
 12  7  1  0
 13  7  1  0
 13 15  2  0
 14 13  2  0
 16 21  1  0
 17 18  2  0
 17 27  1  0
 19 18  1  0
 20 19  2  0
 21 20  1  0
 21 22  2  0
 22 17  1  0
 23 24  2  0
 25 24  1  0
 26 25  2  0
 27 26  1  0
 27 28  2  0
 28 23  1  0
  1 29  1  0
  2 30  1  0
  2 31  1  0
  3 32  1  0
  3 33  1  0
  4 34  1  6
  5 35  1  0
  5 36  1  0
  6 37  1  1
  8 38  1  0
  9 39  1  0
 11 40  1  0
 12 41  1  0
 13 42  1  0
 18 43  1  0
 19 44  1  0
 20 45  1  0
 23 46  1  0
 24 47  1  0
 25 48  1  0
M  ISO  8  29   5  30  13  31  13  32  13  33  13  34  13  35  13  36  13
M  ISO  8  37  13  38  14  39  14  40  14  41  14  42  11  43  14  44  14
M  ISO  4  45  14  46  14  47  14  48  14
M  END
>  <minimizedAffinity>  (1) 
-4.96265316

>  <minimizedRMSD>  (1) 
1.9795022

$$$$
