
     RDKit          3D

 52 56  0  0  0  0  0  0  0  0999 V2000
   37.5390   28.9950   37.2060 C   0  0  0  0  0  0  0  0  0  0  0  0
   38.8970   29.2170   37.3830 C   0  0  0  0  0  0  0  0  0  0  0  0
   39.9090   28.3610   37.0740 C   0  0  0  0  0  0  0  0  0  0  0  0
   39.5920   27.1460   36.5310 C   0  0  0  0  0  0  0  0  0  0  0  0
   38.2520   26.8500   36.3230 C   0  0  0  0  0  0  0  0  0  0  0  0
   38.0080   25.6140   35.7750 C   0  0  0  0  0  0  0  0  0  0  0  0
   36.7320   25.2200   35.5340 C   0  0  0  0  0  0  0  0  0  0  0  0
   35.6970   26.0900   35.8520 C   0  0  0  0  0  0  0  0  0  0  0  0
   36.0080   27.3190   36.4000 C   0  0  0  0  0  0  0  0  0  0  0  0
   37.2750   27.7510   36.6540 C   0  0  0  0  0  0  0  0  0  0  0  0
   32.4200   29.6070   36.4010 C   0  0  0  0  0  0  0  0  0  0  0  0
   33.1810   29.3290   35.2870 C   0  0  0  0  0  0  0  0  0  0  0  0
   34.3310   28.5380   35.4070 C   0  0  0  0  0  0  0  0  0  0  0  0
   34.7510   28.0010   36.6590 C   0  0  0  0  0  0  0  0  0  0  0  0
   33.9330   28.3260   37.7270 C   0  0  0  0  0  0  0  0  0  0  0  0
   32.8070   29.1010   37.6070 C   0  0  0  0  0  0  0  0  0  0  0  0
   30.9630   30.5740   36.4170 S   0  0  0  0  0  0  0  0  0  0  0  0
   31.0770   31.6980   35.4090 O   0  0  0  0  0  0  0  0  0  0  0  0
   29.7550   29.7630   36.0550 O   0  0  0  0  0  0  0  0  0  0  0  0
   36.4290   29.9230   37.4740 C   0  0  0  0  0  0  0  0  0  0  0  0
   36.5470   30.6440   38.8010 C   0  0  0  0  0  0  0  0  0  0  0  0
   37.7140   28.6480   41.4760 C   0  0  0  0  0  0  0  0  0  0  0  0
   36.3650   28.4390   41.5570 C   0  0  0  0  0  0  0  0  0  0  0  0
   35.7890   29.1870   40.5310 C   0  0  0  0  0  0  0  0  0  0  0  0
   36.8390   29.7930   39.9060 N   0  0  0  0  0  0  0  0  0  0  0  0
   37.9510   29.4830   40.4490 N   0  0  0  0  0  0  0  0  0  0  0  0
   39.4270   26.5190   44.0210 C   0  0  0  0  0  0  0  0  0  0  0  0
   38.4090   27.0200   43.1980 C   0  0  0  0  0  0  0  0  0  0  0  0
   38.7310   28.0880   42.3390 C   0  0  0  0  0  0  0  0  0  0  0  0
   39.9870   28.5920   42.3310 N   0  0  0  0  0  0  0  0  0  0  0  0
   40.9400   28.0590   43.1600 C   0  0  0  0  0  0  0  0  0  0  0  0
   40.6640   27.0490   43.9820 N   0  0  0  0  0  0  0  0  0  0  0  0
   39.1857   30.1851   37.8182 H   0  0  0  0  0  0  0  0  0  0  0  0
   40.9573   28.6396   37.2566 H   0  0  0  0  0  0  0  0  0  0  0  0
   40.3778   26.4232   36.2664 H   0  0  0  0  0  0  0  0  0  0  0  0
   38.8462   24.9444   35.5318 H   0  0  0  0  0  0  0  0  0  0  0  0
   36.5219   24.2330   35.0963 H   0  0  0  0  0  0  0  0  0  0  0  0
   34.6499   25.8057   35.6709 H   0  0  0  0  0  0  0  0  0  0  0  0
   32.8863   29.7274   34.3049 H   0  0  0  0  0  0  0  0  0  0  0  0
   34.9279   28.3248   34.5080 H   0  0  0  0  0  0  0  0  0  0  0  0
   34.1992   27.9433   38.7234 H   0  0  0  0  0  0  0  0  0  0  0  0
   32.2045   29.3185   38.5012 H   0  0  0  0  0  0  0  0  0  0  0  0
   30.8203   31.0620   37.6892 H   0  0  0  0  0  0  0  0  0  0  0  0
   36.4028   30.6746   36.6712 H   0  0  0  0  0  0  0  0  0  0  0  0
   35.5089   29.3215   37.5149 H   0  0  0  0  0  0  0  0  0  0  0  0
   37.3517   31.3893   38.7179 H   0  0  0  0  0  0  0  0  0  0  0  0
   35.5648   31.0965   39.0024 H   0  0  0  0  0  0  0  0  0  0  0  0
   35.8387   27.8063   42.2868 H   0  0  0  0  0  0  0  0  0  0  0  0
   34.7212   29.2702   40.2804 H   0  0  0  0  0  0  0  0  0  0  0  0
   39.2132   25.6848   44.7053 H   0  0  0  0  0  0  0  0  0  0  0  0
   37.3951   26.5941   43.2224 H   0  0  0  0  0  0  0  0  0  0  0  0
   41.9577   28.4762   43.1455 H   0  0  0  0  0  0  0  0  0  0  0  0
  1  2  2  0
  1 20  1  0
  3  2  1  0
  4  3  2  0
  5  4  1  0
  5 10  2  0
  6  5  1  0
  7  6  2  0
  7  8  1  0
  8  9  2  0
  9 10  1  0
  9 14  1  0
 10  1  1  0
 11 17  1  0
 11 16  2  0
 12 13  2  0
 12 11  1  0
 13 14  1  0
 14 15  2  0
 16 15  1  0
 18 17  2  0
 19 17  2  0
 20 21  1  0
 21 25  1  0
 22 23  1  0
 22 29  1  0
 24 23  2  0
 25 26  1  0
 25 24  1  0
 26 22  2  0
 28 27  2  0
 29 28  1  0
 30 29  2  0
 30 31  1  0
 31 32  2  0
 32 27  1  0
  2 33  1  0
  3 34  1  0
  4 35  1  0
  6 36  1  0
  7 37  1  0
  8 38  1  0
 12 39  1  0
 13 40  1  0
 15 41  1  0
 16 42  1  0
 17 43  1  0
 20 44  1  0
 20 45  1  0
 21 46  1  0
 21 47  1  0
 23 48  1  0
 24 49  1  0
 27 50  1  0
 28 51  1  0
 31 52  1  0
M  ISO  8  33  14  34  14  35  14  36  14  37  14  38  14  39  14  40  14
M  ISO  8  41  14  42  14  43  11  44   8  45   8  46   8  47   8  48  14
M  ISO  4  49  14  50  14  51  14  52  14
M  END
>  <minimizedAffinity>  (1) 
-5.54680967

>  <minimizedRMSD>  (1) 
3.66450095

$$$$
