
     RDKit          3D

 26 27  0  0  0  0  0  0  0  0999 V2000
   37.9712   28.8835   43.3668 C   0  0  0  0  0  0  0  0  0  0  0  0
   38.0876   27.4739   43.3169 C   0  0  0  0  0  0  0  0  0  0  0  0
   37.4361   26.8172   42.2604 C   0  0  0  0  0  0  0  0  0  0  0  0
   36.7262   27.5728   41.3391 N   0  0  0  0  0  0  0  0  0  0  0  0
   36.6562   28.9129   41.4459 C   0  0  0  0  0  0  0  0  0  0  0  0
   37.2771   29.5496   42.4545 N   0  0  0  0  0  0  0  0  0  0  0  0
   37.5180   25.3398   42.1495 C   0  0  0  0  0  0  0  0  0  0  0  0
   37.6603   25.0560   40.8065 F   0  0  0  0  0  0  0  0  0  0  0  0
   38.6256   24.8369   42.7932 F   0  0  0  0  0  0  0  0  0  0  0  0
   36.3877   24.7125   42.6402 F   0  0  0  0  0  0  0  0  0  0  0  0
   38.4824   29.3545   44.1888 H   0  0  0  0  0  0  0  0  0  0  0  0
   38.6480   26.9259   44.0518 H   0  0  0  0  0  0  0  0  0  0  0  0
   32.1989   31.5285   37.5091 H   0  0  0  0  0  0  0  0  0  0  0  0
   33.4162   32.1932   37.5688 S   0  0  0  0  0  0  0  0  0  0  0  0
   34.0770   32.2465   36.2233 O   0  0  0  0  0  0  0  0  0  0  0  0
   33.2112   33.5803   38.1549 O   0  0  0  0  0  0  0  0  0  0  0  0
   34.4354   31.2527   38.6348 C   0  0  0  0  0  0  0  0  0  0  0  0
   35.7652   30.9741   38.4328 C   0  0  0  0  0  0  0  0  0  0  0  0
   36.4860   30.2181   39.3392 C   0  0  0  0  0  0  0  0  0  0  0  0
   35.9165   29.7057   40.4869 C   0  0  0  0  0  0  0  0  0  0  0  0
   34.5761   30.0059   40.6584 C   0  0  0  0  0  0  0  0  0  0  0  0
   33.8357   30.7542   39.7744 C   0  0  0  0  0  0  0  0  0  0  0  0
   36.1825   31.3879   37.5274 H   0  0  0  0  0  0  0  0  0  0  0  0
   37.5291   30.0328   39.1248 H   0  0  0  0  0  0  0  0  0  0  0  0
   34.1203   29.6004   41.5690 H   0  0  0  0  0  0  0  0  0  0  0  0
   32.8059   30.9117   40.0289 H   0  0  0  0  0  0  0  0  0  0  0  0
  2  1  2  0
  3  2  1  0
  4  5  1  0
  4  3  2  0
  5  6  2  0
  6  1  1  0
  7  3  1  0
  7 10  1  0
  7  9  1  0
  8  7  1  0
  1 11  1  0
  2 12  1  0
 13 14  1  0
 14 15  2  0
 14 16  2  0
 14 17  1  0
 17 18  2  0
 18 19  1  0
 19 20  2  0
 20 21  1  0
 21 22  2  0
 22 17  1  0
 18 23  1  0
 19 24  1  0
 21 25  1  0
 22 26  1  0
  5 20  1  0
M  ISO  3  11  14  12  14  13  12
M  END
>  <DihAtoms>  (1) 
3,4,19,18

>  <DihDeg>  (1) 
-0.003068586327730006

$$$$
