
     RDKit          3D

 26 27  0  0  0  0  0  0  0  0999 V2000
   37.9712   28.8835   43.3668 C   0  0  0  0  0  0  0  0  0  0  0  0
   38.0876   27.4739   43.3169 C   0  0  0  0  0  0  0  0  0  0  0  0
   37.4361   26.8172   42.2604 C   0  0  0  0  0  0  0  0  0  0  0  0
   36.7262   27.5728   41.3391 N   0  0  0  0  0  0  0  0  0  0  0  0
   36.6562   28.9129   41.4459 C   0  0  0  0  0  0  0  0  0  0  0  0
   37.2771   29.5496   42.4545 N   0  0  0  0  0  0  0  0  0  0  0  0
   37.5180   25.3398   42.1495 C   0  0  0  0  0  0  0  0  0  0  0  0
   37.6603   25.0560   40.8065 F   0  0  0  0  0  0  0  0  0  0  0  0
   38.6256   24.8369   42.7932 F   0  0  0  0  0  0  0  0  0  0  0  0
   36.3877   24.7125   42.6402 F   0  0  0  0  0  0  0  0  0  0  0  0
   38.4824   29.3545   44.1888 H   0  0  0  0  0  0  0  0  0  0  0  0
   38.6480   26.9259   44.0518 H   0  0  0  0  0  0  0  0  0  0  0  0
   32.8581   31.1104   36.6550 H   0  0  0  0  0  0  0  0  0  0  0  0
   33.4289   32.0814   37.4666 S   0  0  0  0  0  0  0  0  0  0  0  0
   34.3050   33.0083   36.6772 O   0  0  0  0  0  0  0  0  0  0  0  0
   32.3358   32.8307   38.2104 O   0  0  0  0  0  0  0  0  0  0  0  0
   34.4380   31.2292   38.6133 C   0  0  0  0  0  0  0  0  0  0  0  0
   35.6916   31.6161   39.0203 C   0  0  0  0  0  0  0  0  0  0  0  0
   36.4114   30.8698   39.9356 C   0  0  0  0  0  0  0  0  0  0  0  0
   35.9165   29.7057   40.4869 C   0  0  0  0  0  0  0  0  0  0  0  0
   34.6515   29.3461   40.0547 C   0  0  0  0  0  0  0  0  0  0  0  0
   33.9142   30.0682   39.1468 C   0  0  0  0  0  0  0  0  0  0  0  0
   36.0517   32.5297   38.5722 H   0  0  0  0  0  0  0  0  0  0  0  0
   37.3925   31.2259   40.2165 H   0  0  0  0  0  0  0  0  0  0  0  0
   34.2552   28.4217   40.4906 H   0  0  0  0  0  0  0  0  0  0  0  0
   32.9472   29.6764   38.8987 H   0  0  0  0  0  0  0  0  0  0  0  0
  2  1  2  0
  3  2  1  0
  4  5  1  0
  4  3  2  0
  5  6  2  0
  6  1  1  0
  7  3  1  0
  7 10  1  0
  7  9  1  0
  8  7  1  0
  1 11  1  0
  2 12  1  0
 13 14  1  0
 14 15  2  0
 14 16  2  0
 14 17  1  0
 17 18  2  0
 18 19  1  0
 19 20  2  0
 20 21  1  0
 21 22  2  0
 22 17  1  0
 18 23  1  0
 19 24  1  0
 21 25  1  0
 22 26  1  0
  5 20  1  0
M  ISO  3  11  14  12  14  13  12
M  END
>  <DihAtoms>  (1) 
3,4,19,18

>  <DihDeg>  (1) 
-0.003068586327730006

$$$$
