
     RDKit          3D

 31 33  0  0  0  0  0  0  0  0999 V2000
   38.4290   29.8290   41.5160 C   0  0  0  0  0  0  0  0  0  0  0  0
   39.2430   29.7340   42.6250 C   0  0  0  0  0  0  0  0  0  0  0  0
   39.3960   28.4690   43.1520 C   0  0  0  0  0  0  0  0  0  0  0  0
   38.8140   27.3800   42.6550 N   0  0  0  0  0  0  0  0  0  0  0  0
   38.0290   27.5070   41.5780 C   0  0  0  0  0  0  0  0  0  0  0  0
   37.8410   28.7170   41.0180 N   0  0  0  0  0  0  0  0  0  0  0  0
   37.0390   32.4320   39.3190 C   0  0  0  0  0  0  0  0  0  0  0  0
   37.7840   33.5810   39.6950 C   0  0  0  0  0  0  0  0  0  0  0  0
   38.7500   33.4320   40.6980 C   0  0  0  0  0  0  0  0  0  0  0  0
   38.9360   32.1990   41.2710 N   0  0  0  0  0  0  0  0  0  0  0  0
   38.2000   31.1400   40.8760 C   0  0  0  0  0  0  0  0  0  0  0  0
   37.2610   31.2490   39.9120 N   0  0  0  0  0  0  0  0  0  0  0  0
   36.0560   24.1880   39.8600 C   0  0  0  0  0  0  0  0  0  0  0  0
   36.5320   24.1030   41.1360 C   0  0  0  0  0  0  0  0  0  0  0  0
   37.1810   25.2180   41.6760 C   0  0  0  0  0  0  0  0  0  0  0  0
   37.3390   26.3740   40.9480 C   0  0  0  0  0  0  0  0  0  0  0  0
   36.8430   26.4260   39.6560 C   0  0  0  0  0  0  0  0  0  0  0  0
   36.2000   25.3430   39.0960 C   0  0  0  0  0  0  0  0  0  0  0  0
   35.2250   22.8820   39.0470 S   0  0  0  0  0  0  0  0  0  0  0  0
   35.0580   23.2030   37.5920 O   0  0  0  0  0  0  0  0  0  0  0  0
   33.8870   22.6080   39.6210 O   0  0  0  0  0  0  0  0  0  0  0  0
   39.7395   30.6129   43.0621 H   0  0  0  0  0  0  0  0  0  0  0  0
   40.0384   28.3527   44.0374 H   0  0  0  0  0  0  0  0  0  0  0  0
   36.2726   32.5126   38.5341 H   0  0  0  0  0  0  0  0  0  0  0  0
   37.6083   34.5549   39.2148 H   0  0  0  0  0  0  0  0  0  0  0  0
   39.3525   34.2931   41.0227 H   0  0  0  0  0  0  0  0  0  0  0  0
   36.4085   23.1818   41.7244 H   0  0  0  0  0  0  0  0  0  0  0  0
   37.5726   25.1694   42.7028 H   0  0  0  0  0  0  0  0  0  0  0  0
   36.9642   27.3470   39.0668 H   0  0  0  0  0  0  0  0  0  0  0  0
   35.8095   25.3902   38.0687 H   0  0  0  0  0  0  0  0  0  0  0  0
   36.0007   21.7656   39.2168 H   0  0  0  0  0  0  0  0  0  0  0  0
  1  2  2  0
  2  3  1  0
  4  3  2  0
  5  4  1  0
  6  1  1  0
  6  5  2  0
  7  8  2  0
  7 12  1  0
  8  9  1  0
  9 10  2  0
 11 10  1  0
 11  1  1  0
 12 11  2  0
 13 14  2  0
 14 15  1  0
 16  5  1  0
 16 15  2  0
 17 16  1  0
 18 17  2  0
 18 13  1  0
 19 21  2  0
 19 13  1  0
 20 19  2  0
  2 22  1  0
  3 23  1  0
  7 24  1  0
  8 25  1  0
  9 26  1  0
 14 27  1  0
 15 28  1  0
 17 29  1  0
 18 30  1  0
 19 31  1  0
M  ISO  8  22  14  23  14  24  14  25  14  26  14  27  14  28  14  29  14
M  ISO  2  30  14  31  11
M  END
>  <minimizedAffinity>  (1) 
-5.08195019

>  <minimizedRMSD>  (1) 
7.94944763

$$$$
