
     RDKit          3D

 26 27  0  0  0  0  0  0  0  0999 V2000
   37.9712   28.8835   43.3668 C   0  0  0  0  0  0  0  0  0  0  0  0
   38.0876   27.4739   43.3169 C   0  0  0  0  0  0  0  0  0  0  0  0
   37.4361   26.8172   42.2604 C   0  0  0  0  0  0  0  0  0  0  0  0
   36.7262   27.5728   41.3391 N   0  0  0  0  0  0  0  0  0  0  0  0
   36.6562   28.9129   41.4459 C   0  0  0  0  0  0  0  0  0  0  0  0
   37.2771   29.5496   42.4545 N   0  0  0  0  0  0  0  0  0  0  0  0
   37.5180   25.3398   42.1495 C   0  0  0  0  0  0  0  0  0  0  0  0
   37.6603   25.0560   40.8065 F   0  0  0  0  0  0  0  0  0  0  0  0
   38.6256   24.8369   42.7932 F   0  0  0  0  0  0  0  0  0  0  0  0
   36.3877   24.7125   42.6402 F   0  0  0  0  0  0  0  0  0  0  0  0
   38.4824   29.3545   44.1888 H   0  0  0  0  0  0  0  0  0  0  0  0
   38.6480   26.9259   44.0518 H   0  0  0  0  0  0  0  0  0  0  0  0
   33.0040   33.3145   38.3646 H   0  0  0  0  0  0  0  0  0  0  0  0
   33.6293   32.3757   37.5553 S   0  0  0  0  0  0  0  0  0  0  0  0
   32.6299   31.5696   36.7799 O   0  0  0  0  0  0  0  0  0  0  0  0
   34.6259   33.0720   36.6435 O   0  0  0  0  0  0  0  0  0  0  0  0
   34.4803   31.2911   38.6319 C   0  0  0  0  0  0  0  0  0  0  0  0
   34.5420   29.9244   38.5085 C   0  0  0  0  0  0  0  0  0  0  0  0
   35.2443   29.1527   39.4162 C   0  0  0  0  0  0  0  0  0  0  0  0
   35.9165   29.7057   40.4869 C   0  0  0  0  0  0  0  0  0  0  0  0
   35.8332   31.0843   40.5803 C   0  0  0  0  0  0  0  0  0  0  0  0
   35.1428   31.8755   39.6932 C   0  0  0  0  0  0  0  0  0  0  0  0
   34.0070   29.5212   37.6622 H   0  0  0  0  0  0  0  0  0  0  0  0
   35.2558   28.0824   39.2658 H   0  0  0  0  0  0  0  0  0  0  0  0
   36.3660   31.5271   41.4297 H   0  0  0  0  0  0  0  0  0  0  0  0
   35.1596   32.9309   39.8827 H   0  0  0  0  0  0  0  0  0  0  0  0
  2  1  2  0
  3  2  1  0
  4  5  1  0
  4  3  2  0
  5  6  2  0
  6  1  1  0
  7  3  1  0
  7 10  1  0
  7  9  1  0
  8  7  1  0
  1 11  1  0
  2 12  1  0
 13 14  1  0
 14 15  2  0
 14 16  2  0
 14 17  1  0
 17 18  2  0
 18 19  1  0
 19 20  2  0
 20 21  1  0
 21 22  2  0
 22 17  1  0
 18 23  1  0
 19 24  1  0
 21 25  1  0
 22 26  1  0
  5 20  1  0
M  ISO  3  11  14  12  14  13  12
M  END
>  <DihAtoms>  (1) 
3,4,19,18

>  <DihDeg>  (1) 
-0.003068586327730006

$$$$
