
     RDKit          3D

 44 47  0  0  0  0  0  0  0  0999 V2000
   36.7550   31.0560   40.6740 C   0  0  0  0  0  0  0  0  0  0  0  0
   36.4710   31.3660   39.3610 N   0  0  0  0  0  0  0  0  0  0  0  0
   37.3590   32.2410   38.9430 O   0  0  0  0  0  0  0  0  0  0  0  0
   38.1700   32.4810   39.9360 C   0  0  0  0  0  0  0  0  0  0  0  0
   37.8290   31.7680   41.0180 N   0  0  0  0  0  0  0  0  0  0  0  0
   39.2970   33.4050   39.8610 C   0  0  0  0  0  0  0  0  0  0  0  0
   39.2860   34.7590   40.1390 C   0  0  0  0  0  0  0  0  0  0  0  0
   40.5460   35.2870   39.9520 C   0  0  0  0  0  0  0  0  0  0  0  0
   41.3030   34.2070   39.5540 C   0  0  0  0  0  0  0  0  0  0  0  0
   40.5410   33.1640   39.5200 O   0  0  0  0  0  0  0  0  0  0  0  0
   42.6900   34.2780   39.2440 N   0  0  0  0  0  0  0  0  0  0  0  0
   43.6930   34.2140   40.2890 C   0  0  0  0  0  0  0  0  0  0  0  0
   44.6280   33.0760   39.8860 C   0  0  0  0  0  0  0  0  0  0  0  0
   45.1530   33.2850   38.5610 N   0  0  0  0  0  0  0  0  0  0  0  0
   44.0540   33.2170   37.6160 C   0  0  0  0  0  0  0  0  0  0  0  0
   43.1600   34.4170   37.8780 C   0  0  0  0  0  0  0  0  0  0  0  0
   36.1050   30.1810   41.5560 O   0  0  0  0  0  0  0  0  0  0  0  0
   38.1610   27.8600   43.4670 C   0  0  0  0  0  0  0  0  0  0  0  0
   37.9540   26.6970   42.6590 C   0  0  0  0  0  0  0  0  0  0  0  0
   37.1390   26.8200   41.5510 C   0  0  0  0  0  0  0  0  0  0  0  0
   36.5900   28.0250   41.3000 N   0  0  0  0  0  0  0  0  0  0  0  0
   36.7830   29.0970   42.0480 C   0  0  0  0  0  0  0  0  0  0  0  0
   37.5710   29.0310   43.1420 N   0  0  0  0  0  0  0  0  0  0  0  0
   37.0110   25.5760   40.8210 C   0  0  0  0  0  0  0  0  0  0  0  0
   37.1350   24.3360   41.6050 C   0  0  0  0  0  0  0  0  0  0  0  0
   37.9220   22.9970   40.6330 S   0  0  0  0  0  0  0  0  0  0  0  0
   38.4032   35.3305   40.4615 H   0  0  0  0  0  0  0  0  0  0  0  0
   40.8713   36.3289   40.0889 H   0  0  0  0  0  0  0  0  0  0  0  0
   44.2460   35.1629   40.3500 H   0  0  0  0  0  0  0  0  0  0  0  0
   43.2426   34.0421   41.2777 H   0  0  0  0  0  0  0  0  0  0  0  0
   45.4631   33.0263   40.6003 H   0  0  0  0  0  0  0  0  0  0  0  0
   44.0586   32.1349   39.8933 H   0  0  0  0  0  0  0  0  0  0  0  0
   45.6015   34.2106   38.5067 H   0  0  0  0  0  0  0  0  0  0  0  0
   43.4874   32.2858   37.7636 H   0  0  0  0  0  0  0  0  0  0  0  0
   44.4279   33.2276   36.5815 H   0  0  0  0  0  0  0  0  0  0  0  0
   43.7307   35.3504   37.7637 H   0  0  0  0  0  0  0  0  0  0  0  0
   42.3219   34.4567   37.1667 H   0  0  0  0  0  0  0  0  0  0  0  0
   38.8040   27.8000   44.3575 H   0  0  0  0  0  0  0  0  0  0  0  0
   38.4282   25.7373   42.9121 H   0  0  0  0  0  0  0  0  0  0  0  0
   36.0207   25.5704   40.3421 H   0  0  0  0  0  0  0  0  0  0  0  0
   37.8589   25.5622   40.1204 H   0  0  0  0  0  0  0  0  0  0  0  0
   37.7476   24.5372   42.4962 H   0  0  0  0  0  0  0  0  0  0  0  0
   36.1245   24.0063   41.8882 H   0  0  0  0  0  0  0  0  0  0  0  0
   38.4654   22.0725   41.4857 H   0  0  0  0  0  0  0  0  0  0  0  0
  1  5  1  0
  1 17  1  0
  2  1  2  0
  3  2  1  0
  3  4  1  0
  4  5  2  0
  6  4  1  0
  6  7  2  0
  8  7  1  0
  9  8  2  0
 10  9  1  0
 10  6  1  0
 11  9  1  0
 11 12  1  0
 13 12  1  0
 14 13  1  0
 15 16  1  0
 15 14  1  0
 16 11  1  0
 17 22  1  0
 19 18  2  0
 20 19  1  0
 21 20  2  0
 21 22  1  0
 22 23  2  0
 23 18  1  0
 24 20  1  0
 24 25  1  0
 26 25  1  0
  7 27  1  0
  8 28  1  0
 12 29  1  0
 12 30  1  0
 13 31  1  0
 13 32  1  0
 14 33  1  0
 15 34  1  0
 15 35  1  0
 16 36  1  0
 16 37  1  0
 18 38  1  0
 19 39  1  0
 24 40  1  0
 24 41  1  0
 25 42  1  0
 25 43  1  0
 26 44  1  0
M  ISO  8  27  14  28  14  29  13  30  13  31  13  32  13  33   5  34  13
M  ISO  8  35  13  36  13  37  13  38  14  39  14  40   8  41   8  42   8
M  ISO  2  43   8  44  11
M  END
>  <minimizedAffinity>  (1) 
-5.60682487

>  <minimizedRMSD>  (1) 
0.906952024

$$$$
