
     RDKit          3D

 31 33  0  0  0  0  0  0  0  0999 V2000
   38.5990   28.0540   42.5590 N   0  0  0  0  0  0  0  0  0  0  0  0
   38.4580   27.0000   43.3700 C   0  0  0  0  0  0  0  0  0  0  0  0
   39.7100   26.7670   43.9200 C   0  0  0  0  0  0  0  0  0  0  0  0
   40.5930   27.6880   43.4330 N   0  0  0  0  0  0  0  0  0  0  0  0
   39.8540   28.4510   42.6010 C   0  0  0  0  0  0  0  0  0  0  0  0
   40.6330   29.4780   42.0130 N   0  0  0  0  0  0  0  0  0  0  0  0
   40.3880   30.3400   40.8590 C   0  0  0  0  0  0  0  0  0  0  0  0
   41.3490   31.4820   40.8110 C   0  0  0  0  0  0  0  0  0  0  0  0
   41.5690   32.1400   42.0790 N   0  0  0  0  0  0  0  0  0  0  0  0
   41.9630   31.2080   43.1160 C   0  0  0  0  0  0  0  0  0  0  0  0
   41.9220   29.7770   42.6180 C   0  0  0  0  0  0  0  0  0  0  0  0
   37.1260   29.9250   41.9800 C   0  0  0  0  0  0  0  0  0  0  0  0
   37.6040   28.6370   41.7830 C   0  0  0  0  0  0  0  0  0  0  0  0
   37.0160   27.9070   40.7150 C   0  0  0  0  0  0  0  0  0  0  0  0
   36.0450   28.4940   39.9670 N   0  0  0  0  0  0  0  0  0  0  0  0
   35.6190   29.7710   40.2140 C   0  0  0  0  0  0  0  0  0  0  0  0
   36.1660   30.4990   41.2350 N   0  0  0  0  0  0  0  0  0  0  0  0
   37.5355   26.4324   43.5621 H   0  0  0  0  0  0  0  0  0  0  0  0
   39.9530   25.9672   44.6350 H   0  0  0  0  0  0  0  0  0  0  0  0
   40.4948   29.7449   39.9400 H   0  0  0  0  0  0  0  0  0  0  0  0
   39.3710   30.7500   40.9460 H   0  0  0  0  0  0  0  0  0  0  0  0
   42.3159   31.1012   40.4503 H   0  0  0  0  0  0  0  0  0  0  0  0
   40.9040   32.2346   40.1435 H   0  0  0  0  0  0  0  0  0  0  0  0
   42.3133   32.8426   41.9638 H   0  0  0  0  0  0  0  0  0  0  0  0
   42.9871   31.4450   43.4400 H   0  0  0  0  0  0  0  0  0  0  0  0
   41.2567   31.3034   43.9539 H   0  0  0  0  0  0  0  0  0  0  0  0
   42.0899   29.0953   43.4649 H   0  0  0  0  0  0  0  0  0  0  0  0
   42.7072   29.6448   41.8591 H   0  0  0  0  0  0  0  0  0  0  0  0
   37.5616   30.5149   42.7999 H   0  0  0  0  0  0  0  0  0  0  0  0
   37.3427   26.8796   40.4964 H   0  0  0  0  0  0  0  0  0  0  0  0
   34.8315   30.2150   39.5873 H   0  0  0  0  0  0  0  0  0  0  0  0
  1  5  1  0
  1  2  1  0
  2  3  2  0
  4  3  1  0
  5  4  2  0
  6  5  1  0
  6 11  1  0
  7  6  1  0
  8  7  1  0
  8  9  1  0
  9 10  1  0
 11 10  1  0
 13 12  2  0
 13  1  1  0
 14 13  1  0
 15 16  1  0
 15 14  2  0
 16 17  2  0
 17 12  1  0
  2 18  1  0
  3 19  1  0
  7 20  1  0
  7 21  1  0
  8 22  1  0
  8 23  1  0
  9 24  1  0
 10 25  1  0
 10 26  1  0
 11 27  1  0
 11 28  1  0
 12 29  1  0
 14 30  1  0
 16 31  1  0
M  ISO  8  18  14  19  14  20  13  21  13  22  13  23  13  24   5  25  13
M  ISO  6  26  13  27  13  28  13  29  14  30  14  31  14
M  END
>  <minimizedAffinity>  (1) 
-4.29366112

>  <minimizedRMSD>  (1) 
0.55400604

$$$$
