
     RDKit          3D

 41 44  0  0  1  0  0  0  0  0999 V2000
   36.9930   27.2250   41.5180 C   0  0  0  0  0  0  0  0  0  0  0  0
   37.1390   26.2330   42.4570 C   0  0  0  0  0  0  0  0  0  0  0  0
   36.9960   24.9090   42.1530 C   0  0  0  0  0  0  0  0  0  0  0  0
   36.6950   24.5690   40.8490 C   0  0  0  0  0  0  0  0  0  0  0  0
   36.5490   25.5350   39.8990 C   0  0  0  0  0  0  0  0  0  0  0  0
   36.7070   26.8920   40.2660 C   0  0  0  0  0  0  0  0  0  0  0  0
   38.3450   29.3680   41.8560 C   0  0  1  0  0  0  0  0  0  0  0  0
   37.6250   29.0660   43.1140 C   0  0  0  0  0  0  0  0  0  0  0  0
   36.9530   28.6390   41.8910 C   0  0  2  0  0  0  0  0  0  0  0  0
   38.2610   30.7690   41.2920 C   0  0  0  0  0  0  0  0  0  0  0  0
   37.0770   31.1290   40.5850 C   0  0  0  0  0  0  0  0  0  0  0  0
   36.9980   32.4080   40.0940 C   0  0  0  0  0  0  0  0  0  0  0  0
   38.0490   33.2740   40.3030 N   0  0  0  0  0  0  0  0  0  0  0  0
   39.1590   32.8890   40.9830 C   0  0  0  0  0  0  0  0  0  0  0  0
   39.2450   31.6230   41.4730 N   0  0  0  0  0  0  0  0  0  0  0  0
   36.5540   27.5820   39.0350 N   0  0  0  0  0  0  0  0  0  0  0  0
   35.3140   28.3340   38.7510 C   0  0  0  0  0  0  0  0  0  0  0  0
   35.3630   28.9680   37.4040 C   0  0  0  0  0  0  0  0  0  0  0  0
   36.5340   29.8260   37.3580 N   0  0  0  0  0  0  0  0  0  0  0  0
   37.7520   29.1470   37.6670 C   0  0  0  0  0  0  0  0  0  0  0  0
   37.5270   27.6560   37.9590 C   0  0  0  0  0  0  0  0  0  0  0  0
   37.3801   26.5154   43.4924 H   0  0  0  0  0  0  0  0  0  0  0  0
   37.1172   24.1353   42.9254 H   0  0  0  0  0  0  0  0  0  0  0  0
   36.5722   23.5108   40.5751 H   0  0  0  0  0  0  0  0  0  0  0  0
   36.3113   25.2630   38.8600 H   0  0  0  0  0  0  0  0  0  0  0  0
   39.3685   29.1827   41.4982 H   0  0  0  0  0  0  0  0  0  0  0  0
   38.0323   28.3053   43.7962 H   0  0  0  0  0  0  0  0  0  0  0  0
   37.3093   29.6878   43.9647 H   0  0  0  0  0  0  0  0  0  0  0  0
   35.9447   28.7933   41.4793 H   0  0  0  0  0  0  0  0  0  0  0  0
   36.2581   30.4093   40.4386 H   0  0  0  0  0  0  0  0  0  0  0  0
   36.1065   32.7378   39.5404 H   0  0  0  0  0  0  0  0  0  0  0  0
   39.9857   33.5981   41.1372 H   0  0  0  0  0  0  0  0  0  0  0  0
   34.4588   27.6434   38.7913 H   0  0  0  0  0  0  0  0  0  0  0  0
   35.2085   29.1278   39.5051 H   0  0  0  0  0  0  0  0  0  0  0  0
   35.4373   28.1920   36.6279 H   0  0  0  0  0  0  0  0  0  0  0  0
   34.4503   29.5545   37.2226 H   0  0  0  0  0  0  0  0  0  0  0  0
   36.6122   30.2199   36.4095 H   0  0  0  0  0  0  0  0  0  0  0  0
   38.4369   29.2410   36.8114 H   0  0  0  0  0  0  0  0  0  0  0  0
   38.1756   29.6081   38.5714 H   0  0  0  0  0  0  0  0  0  0  0  0
   37.1402   27.1487   37.0629 H   0  0  0  0  0  0  0  0  0  0  0  0
   38.4683   27.1627   38.2430 H   0  0  0  0  0  0  0  0  0  0  0  0
  1  9  1  0
  1  2  2  0
  3  2  1  0
  4  3  2  0
  5  6  2  0
  5  4  1  0
  6  1  1  0
  7  9  1  0
  7  8  1  0
  9  8  1  0
 10 15  1  0
 10  7  1  0
 11 10  2  0
 12 13  2  0
 12 11  1  0
 13 14  1  0
 14 15  2  0
 16  6  1  0
 17 16  1  0
 18 17  1  0
 19 18  1  0
 19 20  1  0
 20 21  1  0
 21 16  1  0
  2 22  1  0
  3 23  1  0
  4 24  1  0
  5 25  1  0
  7 26  1  1
  8 27  1  0
  8 28  1  0
  9 29  1  6
 11 30  1  0
 12 31  1  0
 14 32  1  0
 17 33  1  0
 17 34  1  0
 18 35  1  0
 18 36  1  0
 19 37  1  0
 20 38  1  0
 20 39  1  0
 21 40  1  0
 21 41  1  0
M  ISO  8  22  14  23  14  24  14  25  14  26  13  27  13  28  13  29  13
M  ISO  8  30  14  31  14  32  14  33  13  34  13  35  13  36  13  37   5
M  ISO  4  38  13  39  13  40  13  41  13
M  END
>  <minimizedAffinity>  (1) 
-5.44226217

>  <minimizedRMSD>  (1) 
0.902879953

$$$$
