
     RDKit          3D

 27 28  0  0  0  0  0  0  0  0999 V2000
   37.9656   28.8844   43.3700 C   0  0  0  0  0  0  0  0  0  0  0  0
   38.0820   27.4659   43.3150 C   0  0  0  0  0  0  0  0  0  0  0  0
   37.4360   26.8206   42.2562 C   0  0  0  0  0  0  0  0  0  0  0  0
   36.7346   27.5852   41.3413 N   0  0  0  0  0  0  0  0  0  0  0  0
   36.6629   28.9155   41.4481 C   0  0  0  0  0  0  0  0  0  0  0  0
   37.2709   29.5466   42.4486 N   0  0  0  0  0  0  0  0  0  0  0  0
   37.5245   25.3328   42.1489 C   0  0  0  0  0  0  0  0  0  0  0  0
   37.6484   25.0524   40.8058 F   0  0  0  0  0  0  0  0  0  0  0  0
   38.6351   24.8381   42.7943 F   0  0  0  0  0  0  0  0  0  0  0  0
   36.3860   24.7133   42.6449 F   0  0  0  0  0  0  0  0  0  0  0  0
   38.4754   29.3505   44.1988 H   0  0  0  0  0  0  0  0  0  0  0  0
   38.6475   26.9319   44.0659 H   0  0  0  0  0  0  0  0  0  0  0  0
   35.9315   29.6689   40.4870 N   0  0  0  0  0  0  0  0  0  0  0  0
   36.2385   29.6769   39.0810 C   0  0  0  0  0  0  0  0  0  0  0  0
   36.0297   31.0340   38.4504 C   0  0  0  0  0  0  0  0  0  0  0  0
   34.7571   31.6188   38.8071 N   0  0  0  0  0  0  0  0  0  0  0  0
   34.9720   32.4853   39.3748 H   0  0  0  0  0  0  0  0  0  0  0  0
   33.9724   30.7567   39.6632 C   0  0  0  0  0  0  0  0  0  0  0  0
   34.8062   30.4914   40.8875 C   0  0  0  0  0  0  0  0  0  0  0  0
   37.2911   29.3882   38.8794 H   0  0  0  0  0  0  0  0  0  0  0  0
   35.6080   28.9175   38.5419 H   0  0  0  0  0  0  0  0  0  0  0  0
   36.0636   30.8978   37.3505 H   0  0  0  0  0  0  0  0  0  0  0  0
   36.8856   31.6910   38.6982 H   0  0  0  0  0  0  0  0  0  0  0  0
   33.7020   29.8096   39.1693 H   0  0  0  0  0  0  0  0  0  0  0  0
   33.0718   31.3022   39.9734 H   0  0  0  0  0  0  0  0  0  0  0  0
   35.2408   31.4802   41.1816 H   0  0  0  0  0  0  0  0  0  0  0  0
   34.2346   30.0474   41.7161 H   0  0  0  0  0  0  0  0  0  0  0  0
  2  1  2  0
  3  2  1  0
  4  5  1  0
  4  3  2  0
  5  6  2  0
  6  1  1  0
  7  3  1  0
  7 10  1  0
  7  9  1  0
  8  7  1  0
  1 11  1  0
  2 12  1  0
 13 14  1  0
 14 15  1  0
 15 16  1  0
 16 17  1  0
 16 18  1  0
 18 19  1  0
 19 13  1  0
 14 20  1  0
 14 21  1  0
 15 22  1  0
 15 23  1  0
 18 24  1  0
 18 25  1  0
 19 26  1  0
 19 27  1  0
  5 13  1  0
M  ISO  3  11  14  12  14  17   5
M  END
>  <DihAtoms>  (1) 
3,4,12,13

>  <DihDeg>  (1) 
2.3640597577603067e-05

$$$$
