
     RDKit          3D

 49 52  0  0  0  0  0  0  0  0999 V2000
   39.4860   27.9400   43.4180 C   0  0  0  0  0  0  0  0  0  0  0  0
   38.7810   26.7190   43.4430 C   0  0  0  0  0  0  0  0  0  0  0  0
   37.8380   26.5120   42.4270 C   0  0  0  0  0  0  0  0  0  0  0  0
   37.6560   27.4630   41.5020 N   0  0  0  0  0  0  0  0  0  0  0  0
   38.3480   28.6210   41.5090 C   0  0  0  0  0  0  0  0  0  0  0  0
   39.2540   28.8560   42.4600 N   0  0  0  0  0  0  0  0  0  0  0  0
   37.0770   25.3530   42.3370 N   0  0  0  0  0  0  0  0  0  0  0  0
   38.1530   29.6450   40.5200 N   0  0  0  0  0  0  0  0  0  0  0  0
   37.3200   29.3590   39.5060 C   0  0  0  0  0  0  0  0  0  0  0  0
   37.0160   30.2220   38.4710 C   0  0  0  0  0  0  0  0  0  0  0  0
   37.6270   31.4560   38.5090 C   0  0  0  0  0  0  0  0  0  0  0  0
   37.4000   32.2970   37.6010 O   0  0  0  0  0  0  0  0  0  0  0  0
   38.4520   31.7190   39.5280 N   0  0  0  0  0  0  0  0  0  0  0  0
   38.7240   30.8590   40.5140 C   0  0  0  0  0  0  0  0  0  0  0  0
   39.4980   31.0980   41.4750 O   0  0  0  0  0  0  0  0  0  0  0  0
   39.1110   32.9780   39.6250 C   0  0  0  0  0  0  0  0  0  0  0  0
   38.4410   34.0240   40.2490 C   0  0  0  0  0  0  0  0  0  0  0  0
   39.0560   35.2460   40.3560 C   0  0  0  0  0  0  0  0  0  0  0  0
   40.3220   35.3720   39.8300 C   0  0  0  0  0  0  0  0  0  0  0  0
   40.9990   34.3580   39.2120 C   0  0  0  0  0  0  0  0  0  0  0  0
   40.3780   33.1160   39.1030 C   0  0  0  0  0  0  0  0  0  0  0  0
   36.0780   29.8340   37.3910 C   0  0  0  0  0  0  0  0  0  0  0  0
   35.9970   28.4030   37.2260 N   0  0  0  0  0  0  0  0  0  0  0  0
   35.3090   28.2020   35.9370 C   0  0  0  0  0  0  0  0  0  0  0  0
   36.0320   28.8500   34.8020 C   0  0  0  0  0  0  0  0  0  0  0  0
   37.4750   28.7130   34.9210 N   0  0  0  0  0  0  0  0  0  0  0  0
   37.6810   27.4890   35.6940 C   0  0  0  0  0  0  0  0  0  0  0  0
   37.3150   27.7950   37.1350 C   0  0  0  0  0  0  0  0  0  0  0  0
   40.2376   28.1470   44.1940 H   0  0  0  0  0  0  0  0  0  0  0  0
   38.9625   25.9648   44.2229 H   0  0  0  0  0  0  0  0  0  0  0  0
   36.3949   25.2428   41.5731 H   0  0  0  0  0  0  0  0  0  0  0  0
   37.1949   24.6041   43.0342 H   0  0  0  0  0  0  0  0  0  0  0  0
   36.8459   28.3665   39.4992 H   0  0  0  0  0  0  0  0  0  0  0  0
   37.4288   33.8738   40.6526 H   0  0  0  0  0  0  0  0  0  0  0  0
   38.5552   36.0948   40.8447 H   0  0  0  0  0  0  0  0  0  0  0  0
   40.8197   36.3495   39.9122 H   0  0  0  0  0  0  0  0  0  0  0  0
   42.0103   34.5190   38.8103 H   0  0  0  0  0  0  0  0  0  0  0  0
   40.8845   32.2705   38.6145 H   0  0  0  0  0  0  0  0  0  0  0  0
   35.0772   30.2193   37.6359 H   0  0  0  0  0  0  0  0  0  0  0  0
   36.4528   30.2613   36.4492 H   0  0  0  0  0  0  0  0  0  0  0  0
   35.2358   27.1223   35.7396 H   0  0  0  0  0  0  0  0  0  0  0  0
   34.3139   28.6651   36.0106 H   0  0  0  0  0  0  0  0  0  0  0  0
   35.7778   29.9201   34.7847 H   0  0  0  0  0  0  0  0  0  0  0  0
   35.7204   28.3498   33.8731 H   0  0  0  0  0  0  0  0  0  0  0  0
   37.9080   28.6296   33.9901 H   0  0  0  0  0  0  0  0  0  0  0  0
   37.0376   26.6860   35.3051 H   0  0  0  0  0  0  0  0  0  0  0  0
   38.7266   27.1552   35.6214 H   0  0  0  0  0  0  0  0  0  0  0  0
   37.3187   26.8588   37.7125 H   0  0  0  0  0  0  0  0  0  0  0  0
   38.0535   28.5032   37.5387 H   0  0  0  0  0  0  0  0  0  0  0  0
  1  2  2  0
  3  2  1  0
  4  5  1  0
  4  3  2  0
  5  6  2  0
  6  1  1  0
  7  3  1  0
  8  5  1  0
  9  8  1  0
 10 11  1  0
 10  9  2  0
 11 13  1  0
 12 11  2  0
 13 16  1  0
 13 14  1  0
 14  8  1  0
 14 15  2  0
 16 17  2  0
 17 18  1  0
 19 18  2  0
 20 19  1  0
 21 20  2  0
 21 16  1  0
 22 10  1  0
 23 22  1  0
 24 23  1  0
 25 26  1  0
 25 24  1  0
 26 27  1  0
 27 28  1  0
 28 23  1  0
  1 29  1  0
  2 30  1  0
  7 31  1  0
  7 32  1  0
  9 33  1  0
 17 34  1  0
 18 35  1  0
 19 36  1  0
 20 37  1  0
 21 38  1  0
 22 39  1  0
 22 40  1  0
 24 41  1  0
 24 42  1  0
 25 43  1  0
 25 44  1  0
 26 45  1  0
 27 46  1  0
 27 47  1  0
 28 48  1  0
 28 49  1  0
M  ISO  8  29  14  30  14  33  14  34  14  35  14  36  14  37  14  38  14
M  ISO  8  39   8  40   8  41  13  42  13  43  13  44  13  45   5  46  13
M  ISO  3  47  13  48  13  49  13
M  END
>  <minimizedAffinity>  (1) 
-6.57971144

>  <minimizedRMSD>  (1) 
0.594751835

$$$$
