
     RDKit          3D

 27 29  0  0  0  0  0  0  0  0999 V2000
   37.9739   28.8789   43.3740 C   0  0  0  0  0  0  0  0  0  0  0  0
   38.0797   27.4662   43.3024 C   0  0  0  0  0  0  0  0  0  0  0  0
   37.4346   26.8215   42.2522 C   0  0  0  0  0  0  0  0  0  0  0  0
   36.7296   27.5784   41.3391 N   0  0  0  0  0  0  0  0  0  0  0  0
   36.6579   28.9089   41.4475 C   0  0  0  0  0  0  0  0  0  0  0  0
   37.2752   29.5509   42.4565 N   0  0  0  0  0  0  0  0  0  0  0  0
   37.5322   25.3419   42.1579 C   0  0  0  0  0  0  0  0  0  0  0  0
   37.6500   25.0508   40.8130 F   0  0  0  0  0  0  0  0  0  0  0  0
   38.6342   24.8450   42.7960 F   0  0  0  0  0  0  0  0  0  0  0  0
   36.3787   24.7125   42.6345 F   0  0  0  0  0  0  0  0  0  0  0  0
   38.4549   29.4275   44.1680 H   0  0  0  0  0  0  0  0  0  0  0  0
   38.6486   26.9175   44.0493 H   0  0  0  0  0  0  0  0  0  0  0  0
   35.9093   29.6982   40.4755 C   0  0  0  0  0  0  0  0  0  0  0  0
   35.9126   29.5930   39.1192 C   0  0  0  0  0  0  0  0  0  0  0  0
   35.0900   30.4984   38.5597 N   0  0  0  0  0  0  0  0  0  0  0  0
   34.5403   31.2075   39.5770 C   0  0  0  0  0  0  0  0  0  0  0  0
   33.6322   32.2511   39.5488 C   0  0  0  0  0  0  0  0  0  0  0  0
   33.2092   32.8265   40.7290 C   0  0  0  0  0  0  0  0  0  0  0  0
   33.6860   32.3696   41.9621 C   0  0  0  0  0  0  0  0  0  0  0  0
   34.5991   31.3192   41.9756 C   0  0  0  0  0  0  0  0  0  0  0  0
   35.0307   30.7335   40.7909 C   0  0  0  0  0  0  0  0  0  0  0  0
   36.5073   28.8676   38.5770 H   0  0  0  0  0  0  0  0  0  0  0  0
   34.9493   30.5832   37.5274 H   0  0  0  0  0  0  0  0  0  0  0  0
   33.2308   32.6438   38.6199 H   0  0  0  0  0  0  0  0  0  0  0  0
   32.4946   33.6521   40.7642 H   0  0  0  0  0  0  0  0  0  0  0  0
   33.3779   32.7962   42.9210 H   0  0  0  0  0  0  0  0  0  0  0  0
   34.9873   30.9427   42.9188 H   0  0  0  0  0  0  0  0  0  0  0  0
  2  1  2  0
  3  2  1  0
  4  5  1  0
  4  3  2  0
  5  6  2  0
  6  1  1  0
  7  3  1  0
  7 10  1  0
  7  9  1  0
  8  7  1  0
  1 11  1  0
  2 12  1  0
 13 14  2  0
 14 15  1  0
 15 16  1  0
 16 17  2  0
 17 18  1  0
 18 19  2  0
 19 20  1  0
 20 21  2  0
 21 13  1  0
 21 16  1  0
 14 22  1  0
 15 23  1  0
 17 24  1  0
 18 25  1  0
 19 26  1  0
 20 27  1  0
  5 13  1  0
M  ISO  2  11  14  12  14
M  END
>  <DihAtoms>  (1) 
3,4,12,13

>  <DihDeg>  (1) 
179.9999779568062

$$$$
