
     RDKit          3D

 27 29  0  0  0  0  0  0  0  0999 V2000
   37.9739   28.8789   43.3740 C   0  0  0  0  0  0  0  0  0  0  0  0
   38.0797   27.4662   43.3024 C   0  0  0  0  0  0  0  0  0  0  0  0
   37.4346   26.8215   42.2522 C   0  0  0  0  0  0  0  0  0  0  0  0
   36.7296   27.5784   41.3391 N   0  0  0  0  0  0  0  0  0  0  0  0
   36.6579   28.9089   41.4475 C   0  0  0  0  0  0  0  0  0  0  0  0
   37.2752   29.5509   42.4565 N   0  0  0  0  0  0  0  0  0  0  0  0
   37.5322   25.3419   42.1579 C   0  0  0  0  0  0  0  0  0  0  0  0
   37.6500   25.0508   40.8130 F   0  0  0  0  0  0  0  0  0  0  0  0
   38.6342   24.8450   42.7960 F   0  0  0  0  0  0  0  0  0  0  0  0
   36.3787   24.7125   42.6345 F   0  0  0  0  0  0  0  0  0  0  0  0
   38.4549   29.4275   44.1680 H   0  0  0  0  0  0  0  0  0  0  0  0
   38.6486   26.9175   44.0493 H   0  0  0  0  0  0  0  0  0  0  0  0
   35.9093   29.6982   40.4755 C   0  0  0  0  0  0  0  0  0  0  0  0
   35.4521   29.3193   39.2516 C   0  0  0  0  0  0  0  0  0  0  0  0
   34.8016   30.3270   38.6426 N   0  0  0  0  0  0  0  0  0  0  0  0
   34.8379   31.3844   39.4915 C   0  0  0  0  0  0  0  0  0  0  0  0
   34.3193   32.6594   39.3512 C   0  0  0  0  0  0  0  0  0  0  0  0
   34.4817   33.5828   40.3632 C   0  0  0  0  0  0  0  0  0  0  0  0
   35.1663   33.2495   41.5365 C   0  0  0  0  0  0  0  0  0  0  0  0
   35.6826   31.9632   41.6641 C   0  0  0  0  0  0  0  0  0  0  0  0
   35.5236   31.0264   40.6492 C   0  0  0  0  0  0  0  0  0  0  0  0
   35.6019   28.3294   38.8373 H   0  0  0  0  0  0  0  0  0  0  0  0
   34.3734   30.2408   37.6929 H   0  0  0  0  0  0  0  0  0  0  0  0
   33.7799   32.9702   38.4620 H   0  0  0  0  0  0  0  0  0  0  0  0
   34.0931   34.6021   40.3046 H   0  0  0  0  0  0  0  0  0  0  0  0
   35.3182   33.9494   42.3632 H   0  0  0  0  0  0  0  0  0  0  0  0
   36.2195   31.6751   42.5645 H   0  0  0  0  0  0  0  0  0  0  0  0
  2  1  2  0
  3  2  1  0
  4  5  1  0
  4  3  2  0
  5  6  2  0
  6  1  1  0
  7  3  1  0
  7 10  1  0
  7  9  1  0
  8  7  1  0
  1 11  1  0
  2 12  1  0
 13 14  2  0
 14 15  1  0
 15 16  1  0
 16 17  2  0
 17 18  1  0
 18 19  2  0
 19 20  1  0
 20 21  2  0
 21 13  1  0
 21 16  1  0
 14 22  1  0
 15 23  1  0
 17 24  1  0
 18 25  1  0
 19 26  1  0
 20 27  1  0
  5 13  1  0
M  ISO  2  11  14  12  14
M  END
>  <DihAtoms>  (1) 
3,4,12,13

>  <DihDeg>  (1) 
179.9999779568062

$$$$
