
     RDKit          3D

 27 29  0  0  0  0  0  0  0  0999 V2000
   37.9739   28.8789   43.3740 C   0  0  0  0  0  0  0  0  0  0  0  0
   38.0797   27.4662   43.3024 C   0  0  0  0  0  0  0  0  0  0  0  0
   37.4346   26.8215   42.2522 C   0  0  0  0  0  0  0  0  0  0  0  0
   36.7296   27.5784   41.3391 N   0  0  0  0  0  0  0  0  0  0  0  0
   36.6579   28.9089   41.4475 C   0  0  0  0  0  0  0  0  0  0  0  0
   37.2752   29.5509   42.4565 N   0  0  0  0  0  0  0  0  0  0  0  0
   37.5322   25.3419   42.1579 C   0  0  0  0  0  0  0  0  0  0  0  0
   37.6500   25.0508   40.8130 F   0  0  0  0  0  0  0  0  0  0  0  0
   38.6342   24.8450   42.7960 F   0  0  0  0  0  0  0  0  0  0  0  0
   36.3787   24.7125   42.6345 F   0  0  0  0  0  0  0  0  0  0  0  0
   38.4549   29.4275   44.1680 H   0  0  0  0  0  0  0  0  0  0  0  0
   38.6486   26.9175   44.0493 H   0  0  0  0  0  0  0  0  0  0  0  0
   35.9093   29.6982   40.4755 C   0  0  0  0  0  0  0  0  0  0  0  0
   34.8122   29.3355   39.7575 C   0  0  0  0  0  0  0  0  0  0  0  0
   34.4010   30.3372   38.9594 N   0  0  0  0  0  0  0  0  0  0  0  0
   35.2513   31.3738   39.1645 C   0  0  0  0  0  0  0  0  0  0  0  0
   35.2740   32.6352   38.5962 C   0  0  0  0  0  0  0  0  0  0  0  0
   36.2498   33.5379   38.9650 C   0  0  0  0  0  0  0  0  0  0  0  0
   37.2232   33.1973   39.9100 C   0  0  0  0  0  0  0  0  0  0  0  0
   37.1882   31.9250   40.4735 C   0  0  0  0  0  0  0  0  0  0  0  0
   36.2084   31.0091   40.1076 C   0  0  0  0  0  0  0  0  0  0  0  0
   34.3438   28.3613   39.8321 H   0  0  0  0  0  0  0  0  0  0  0  0
   33.5731   30.2611   38.3257 H   0  0  0  0  0  0  0  0  0  0  0  0
   34.5429   32.9508   37.8586 H   0  0  0  0  0  0  0  0  0  0  0  0
   36.3141   34.5457   38.5482 H   0  0  0  0  0  0  0  0  0  0  0  0
   38.0141   33.8810   40.2313 H   0  0  0  0  0  0  0  0  0  0  0  0
   37.9316   31.6316   41.2106 H   0  0  0  0  0  0  0  0  0  0  0  0
  2  1  2  0
  3  2  1  0
  4  5  1  0
  4  3  2  0
  5  6  2  0
  6  1  1  0
  7  3  1  0
  7 10  1  0
  7  9  1  0
  8  7  1  0
  1 11  1  0
  2 12  1  0
 13 14  2  0
 14 15  1  0
 15 16  1  0
 16 17  2  0
 17 18  1  0
 18 19  2  0
 19 20  1  0
 20 21  2  0
 21 13  1  0
 21 16  1  0
 14 22  1  0
 15 23  1  0
 17 24  1  0
 18 25  1  0
 19 26  1  0
 20 27  1  0
  5 13  1  0
M  ISO  2  11  14  12  14
M  END
>  <DihAtoms>  (1) 
3,4,12,13

>  <DihDeg>  (1) 
179.9999779568062

$$$$
