
     RDKit          3D

 49 54  0  0  0  0  0  0  0  0999 V2000
   40.0710   32.8980   40.8380 C   0  0  0  0  0  0  0  0  0  0  0  0
   41.1850   32.2730   41.4340 C   0  0  0  0  0  0  0  0  0  0  0  0
   41.1450   31.0090   42.0050 C   0  0  0  0  0  0  0  0  0  0  0  0
   39.9400   30.3180   41.9920 C   0  0  0  0  0  0  0  0  0  0  0  0
   38.8410   30.8800   41.4280 C   0  0  0  0  0  0  0  0  0  0  0  0
   37.6920   30.1680   41.4280 C   0  0  0  0  0  0  0  0  0  0  0  0
   36.5090   30.6890   40.8430 C   0  0  0  0  0  0  0  0  0  0  0  0
   36.6320   31.9740   40.2830 C   0  0  0  0  0  0  0  0  0  0  0  0
   37.8260   32.6330   40.3230 C   0  0  0  0  0  0  0  0  0  0  0  0
   38.9700   32.1160   40.8940 C   0  0  0  0  0  0  0  0  0  0  0  0
   40.3050   34.2020   40.3200 C   0  0  0  0  0  0  0  0  0  0  0  0
   39.7020   35.4370   40.6640 C   0  0  0  0  0  0  0  0  0  0  0  0
   40.0670   36.6390   40.0680 C   0  0  0  0  0  0  0  0  0  0  0  0
   41.0450   36.5590   39.1280 N   0  0  0  0  0  0  0  0  0  0  0  0
   41.6230   35.4160   38.7910 C   0  0  0  0  0  0  0  0  0  0  0  0
   41.2570   34.2720   39.3750 N   0  0  0  0  0  0  0  0  0  0  0  0
   37.4210   28.8580   41.9770 C   0  0  0  0  0  0  0  0  0  0  0  0
   37.2190   28.4770   43.2640 C   0  0  0  0  0  0  0  0  0  0  0  0
   36.9240   27.1980   43.6730 C   0  0  0  0  0  0  0  0  0  0  0  0
   36.8120   26.1780   42.7600 C   0  0  0  0  0  0  0  0  0  0  0  0
   37.0180   26.5650   41.4720 C   0  0  0  0  0  0  0  0  0  0  0  0
   37.2990   27.8160   41.1280 N   0  0  0  0  0  0  0  0  0  0  0  0
   36.9080   25.6480   40.3470 C   0  0  0  0  0  0  0  0  0  0  0  0
   36.3560   26.0010   39.1080 C   0  0  0  0  0  0  0  0  0  0  0  0
   36.3890   24.9950   38.2190 N   0  0  0  0  0  0  0  0  0  0  0  0
   36.9610   23.9430   38.8260 C   0  0  0  0  0  0  0  0  0  0  0  0
   37.2560   22.6760   38.3910 C   0  0  0  0  0  0  0  0  0  0  0  0
   37.8750   21.7650   39.2210 C   0  0  0  0  0  0  0  0  0  0  0  0
   38.1950   22.1700   40.5210 C   0  0  0  0  0  0  0  0  0  0  0  0
   37.8790   23.4460   40.9090 C   0  0  0  0  0  0  0  0  0  0  0  0
   37.2670   24.3510   40.0980 C   0  0  0  0  0  0  0  0  0  0  0  0
   42.1403   32.8182   41.4472 H   0  0  0  0  0  0  0  0  0  0  0  0
   42.0446   30.5654   42.4565 H   0  0  0  0  0  0  0  0  0  0  0  0
   39.8766   29.3149   42.4390 H   0  0  0  0  0  0  0  0  0  0  0  0
   35.5628   30.1282   40.8283 H   0  0  0  0  0  0  0  0  0  0  0  0
   35.7603   32.4501   39.8102 H   0  0  0  0  0  0  0  0  0  0  0  0
   37.8793   33.6355   39.8734 H   0  0  0  0  0  0  0  0  0  0  0  0
   38.9147   35.4453   41.4322 H   0  0  0  0  0  0  0  0  0  0  0  0
   39.5941   37.5941   40.3402 H   0  0  0  0  0  0  0  0  0  0  0  0
   42.4111   35.4088   38.0237 H   0  0  0  0  0  0  0  0  0  0  0  0
   37.2975   29.2522   44.0405 H   0  0  0  0  0  0  0  0  0  0  0  0
   36.7761   26.9893   44.7429 H   0  0  0  0  0  0  0  0  0  0  0  0
   36.5770   25.1417   43.0445 H   0  0  0  0  0  0  0  0  0  0  0  0
   35.9404   26.9953   38.8875 H   0  0  0  0  0  0  0  0  0  0  0  0
   36.0400   25.0250   37.2504 H   0  0  0  0  0  0  0  0  0  0  0  0
   36.9947   22.3819   37.3638 H   0  0  0  0  0  0  0  0  0  0  0  0
   38.1103   20.7491   38.8707 H   0  0  0  0  0  0  0  0  0  0  0  0
   38.6904   21.4782   41.2181 H   0  0  0  0  0  0  0  0  0  0  0  0
   38.1344   23.7557   41.9331 H   0  0  0  0  0  0  0  0  0  0  0  0
  1 10  1  0
  1  2  2  0
  2  3  1  0
  4  3  2  0
  5  4  1  0
  6  5  2  0
  6 17  1  0
  7  6  1  0
  8  9  1  0
  8  7  2  0
  9 10  2  0
 10  5  1  0
 11 12  2  0
 11  1  1  0
 13 12  1  0
 14 13  2  0
 15 14  1  0
 15 16  2  0
 16 11  1  0
 17 18  2  0
 18 19  1  0
 20 19  2  0
 21 20  1  0
 22 21  2  0
 22 17  1  0
 23 21  1  0
 24 23  2  0
 25 26  1  0
 25 24  1  0
 26 31  2  0
 27 26  1  0
 27 28  2  0
 28 29  1  0
 29 30  2  0
 31 23  1  0
 31 30  1  0
  2 32  1  0
  3 33  1  0
  4 34  1  0
  7 35  1  0
  8 36  1  0
  9 37  1  0
 12 38  1  0
 13 39  1  0
 15 40  1  0
 18 41  1  0
 19 42  1  0
 20 43  1  0
 24 44  1  0
 25 45  1  0
 27 46  1  0
 28 47  1  0
 29 48  1  0
 30 49  1  0
M  END
>  <minimizedAffinity>  (1) 
-7.38237238

>  <minimizedRMSD>  (1) 
2.50276136

$$$$
