
     RDKit          3D

 43 47  0  0  0  0  0  0  0  0999 V2000
   39.3500   31.9000   38.3020 C   0  0  0  0  0  0  0  0  0  0  0  0
   37.1560   29.5780   40.0720 C   0  0  0  0  0  0  0  0  0  0  0  0
   36.1390   29.3210   39.1860 C   0  0  0  0  0  0  0  0  0  0  0  0
   36.2110   29.9560   37.9670 C   0  0  0  0  0  0  0  0  0  0  0  0
   37.2000   30.7810   37.6300 N   0  0  0  0  0  0  0  0  0  0  0  0
   38.1850   31.0160   38.5170 C   0  0  0  0  0  0  0  0  0  0  0  0
   38.1570   30.4190   39.7180 N   0  0  0  0  0  0  0  0  0  0  0  0
   37.7670   28.9980   43.6500 C   0  0  0  0  0  0  0  0  0  0  0  0
   37.1680   27.7540   43.8540 C   0  0  0  0  0  0  0  0  0  0  0  0
   36.5570   27.1150   42.7580 C   0  0  0  0  0  0  0  0  0  0  0  0
   36.5820   27.7510   41.5590 N   0  0  0  0  0  0  0  0  0  0  0  0
   37.1650   28.9460   41.4000 C   0  0  0  0  0  0  0  0  0  0  0  0
   37.7640   29.5860   42.4380 N   0  0  0  0  0  0  0  0  0  0  0  0
   40.4340   31.5740   39.3030 C   0  0  0  0  0  0  0  0  0  0  0  0
   40.9750   32.8200   39.9080 C   0  0  0  0  0  0  0  0  0  0  0  0
   40.3740   33.9400   40.2480 N   0  0  0  0  0  0  0  0  0  0  0  0
   41.2450   34.7670   40.7460 O   0  0  0  0  0  0  0  0  0  0  0  0
   42.4260   34.2410   40.7550 C   0  0  0  0  0  0  0  0  0  0  0  0
   42.2540   33.0250   40.2320 N   0  0  0  0  0  0  0  0  0  0  0  0
   43.7330   34.7300   41.1990 C   0  0  0  0  0  0  0  0  0  0  0  0
   44.9880   34.4140   40.7420 C   0  0  0  0  0  0  0  0  0  0  0  0
   45.9120   35.1020   41.4380 N   0  0  0  0  0  0  0  0  0  0  0  0
   45.2480   35.8510   42.3350 C   0  0  0  0  0  0  0  0  0  0  0  0
   45.7650   36.7230   43.2730 C   0  0  0  0  0  0  0  0  0  0  0  0
   44.9390   37.4220   44.1280 C   0  0  0  0  0  0  0  0  0  0  0  0
   43.5550   37.2350   44.0300 C   0  0  0  0  0  0  0  0  0  0  0  0
   43.0660   36.3590   43.0850 C   0  0  0  0  0  0  0  0  0  0  0  0
   43.8850   35.6560   42.2270 C   0  0  0  0  0  0  0  0  0  0  0  0
   39.7375   31.7516   37.2833 H   0  0  0  0  0  0  0  0  0  0  0  0
   39.0393   32.9471   38.4325 H   0  0  0  0  0  0  0  0  0  0  0  0
   35.3100   28.6430   39.4373 H   0  0  0  0  0  0  0  0  0  0  0  0
   35.4112   29.7726   37.2344 H   0  0  0  0  0  0  0  0  0  0  0  0
   38.2511   29.5084   44.4956 H   0  0  0  0  0  0  0  0  0  0  0  0
   37.1731   27.2835   44.8483 H   0  0  0  0  0  0  0  0  0  0  0  0
   36.0752   26.1325   42.8698 H   0  0  0  0  0  0  0  0  0  0  0  0
   40.0146   30.9385   40.0969 H   0  0  0  0  0  0  0  0  0  0  0  0
   41.2490   31.0462   38.7861 H   0  0  0  0  0  0  0  0  0  0  0  0
   45.2058   33.7053   39.9294 H   0  0  0  0  0  0  0  0  0  0  0  0
   46.9330   35.0621   41.3080 H   0  0  0  0  0  0  0  0  0  0  0  0
   46.8541   36.8623   43.3392 H   0  0  0  0  0  0  0  0  0  0  0  0
   45.3597   38.1134   44.8729 H   0  0  0  0  0  0  0  0  0  0  0  0
   42.8690   37.7784   44.6964 H   0  0  0  0  0  0  0  0  0  0  0  0
   41.9779   36.2148   43.0123 H   0  0  0  0  0  0  0  0  0  0  0  0
  1  6  1  0
  1 14  1  0
  2 12  1  0
  3  2  2  0
  4  3  1  0
  5  4  2  0
  5  6  1  0
  6  7  2  0
  7  2  1  0
  8  9  2  0
 10  9  1  0
 11 10  2  0
 12 11  1  0
 12 13  2  0
 13  8  1  0
 14 15  1  0
 15 19  1  0
 15 16  2  0
 16 17  1  0
 17 18  1  0
 18 20  1  0
 19 18  2  0
 20 28  1  0
 21 20  2  0
 21 22  1  0
 22 23  1  0
 23 24  2  0
 24 25  1  0
 26 25  2  0
 27 26  1  0
 28 23  1  0
 28 27  2  0
  1 29  1  0
  1 30  1  0
  3 31  1  0
  4 32  1  0
  8 33  1  0
  9 34  1  0
 10 35  1  0
 14 36  1  0
 14 37  1  0
 21 38  1  0
 22 39  1  0
 24 40  1  0
 25 41  1  0
 26 42  1  0
 27 43  1  0
M  END
>  <minimizedAffinity>  (1) 
-7.08865261

>  <minimizedRMSD>  (1) 
2.802001

$$$$
