
     RDKit          3D

 27 29  0  0  0  0  0  0  0  0999 V2000
   37.9739   28.8789   43.3740 C   0  0  0  0  0  0  0  0  0  0  0  0
   38.0797   27.4662   43.3024 C   0  0  0  0  0  0  0  0  0  0  0  0
   37.4346   26.8215   42.2522 C   0  0  0  0  0  0  0  0  0  0  0  0
   36.7296   27.5784   41.3391 N   0  0  0  0  0  0  0  0  0  0  0  0
   36.6579   28.9089   41.4475 C   0  0  0  0  0  0  0  0  0  0  0  0
   37.2752   29.5509   42.4565 N   0  0  0  0  0  0  0  0  0  0  0  0
   37.5322   25.3419   42.1579 C   0  0  0  0  0  0  0  0  0  0  0  0
   37.6500   25.0508   40.8130 F   0  0  0  0  0  0  0  0  0  0  0  0
   38.6342   24.8450   42.7960 F   0  0  0  0  0  0  0  0  0  0  0  0
   36.3787   24.7125   42.6345 F   0  0  0  0  0  0  0  0  0  0  0  0
   38.4549   29.4275   44.1680 H   0  0  0  0  0  0  0  0  0  0  0  0
   38.6486   26.9175   44.0493 H   0  0  0  0  0  0  0  0  0  0  0  0
   35.9093   29.6982   40.4755 C   0  0  0  0  0  0  0  0  0  0  0  0
   35.0387   30.7179   40.7056 C   0  0  0  0  0  0  0  0  0  0  0  0
   34.5427   31.2027   39.5531 N   0  0  0  0  0  0  0  0  0  0  0  0
   35.1048   30.4805   38.5519 C   0  0  0  0  0  0  0  0  0  0  0  0
   34.9359   30.5725   37.1817 C   0  0  0  0  0  0  0  0  0  0  0  0
   35.6237   29.7180   36.3452 C   0  0  0  0  0  0  0  0  0  0  0  0
   36.4949   28.7535   36.8624 C   0  0  0  0  0  0  0  0  0  0  0  0
   36.6552   28.6723   38.2426 C   0  0  0  0  0  0  0  0  0  0  0  0
   35.9659   29.5295   39.0929 C   0  0  0  0  0  0  0  0  0  0  0  0
   34.7892   31.0793   41.6962 H   0  0  0  0  0  0  0  0  0  0  0  0
   33.8563   31.9900   39.5115 H   0  0  0  0  0  0  0  0  0  0  0  0
   34.2726   31.3024   36.7282 H   0  0  0  0  0  0  0  0  0  0  0  0
   35.5276   29.7472   35.2574 H   0  0  0  0  0  0  0  0  0  0  0  0
   37.0596   28.0565   36.2367 H   0  0  0  0  0  0  0  0  0  0  0  0
   37.3254   27.9327   38.6738 H   0  0  0  0  0  0  0  0  0  0  0  0
  2  1  2  0
  3  2  1  0
  4  5  1  0
  4  3  2  0
  5  6  2  0
  6  1  1  0
  7  3  1  0
  7 10  1  0
  7  9  1  0
  8  7  1  0
  1 11  1  0
  2 12  1  0
 13 14  2  0
 14 15  1  0
 15 16  1  0
 16 17  2  0
 17 18  1  0
 18 19  2  0
 19 20  1  0
 20 21  2  0
 21 13  1  0
 21 16  1  0
 14 22  1  0
 15 23  1  0
 17 24  1  0
 18 25  1  0
 19 26  1  0
 20 27  1  0
  5 13  1  0
M  ISO  2  11  14  12  14
M  END
>  <DihAtoms>  (1) 
3,4,12,13

>  <DihDeg>  (1) 
179.9999779568062

$$$$
