
     RDKit          3D

 37 40  0  0  1  0  0  0  0  0999 V2000
   39.0440   28.0780   42.8760 C   0  0  2  0  0  0  0  0  0  0  0  0
   40.4750   28.3870   42.6630 C   0  0  0  0  0  0  0  0  0  0  0  0
   41.1680   27.5420   43.7080 C   0  0  0  0  0  0  0  0  0  0  0  0
   40.1940   26.4930   44.1470 C   0  0  0  0  0  0  0  0  0  0  0  0
   39.0410   26.6200   43.1710 C   0  0  2  0  0  0  0  0  0  0  0  0
   39.1500   25.7060   42.0300 C   0  0  0  0  0  0  0  0  0  0  0  0
   40.3870   25.5500   41.4070 C   0  0  0  0  0  0  0  0  0  0  0  0
   40.2550   24.6790   40.3620 N   0  0  0  0  0  0  0  0  0  0  0  0
   38.9810   24.2580   40.2790 C   0  0  0  0  0  0  0  0  0  0  0  0
   38.2220   23.4110   39.4890 C   0  0  0  0  0  0  0  0  0  0  0  0
   36.8770   23.1980   39.7000 C   0  0  0  0  0  0  0  0  0  0  0  0
   36.2400   23.8480   40.7360 C   0  0  0  0  0  0  0  0  0  0  0  0
   36.9800   24.6870   41.5190 C   0  0  0  0  0  0  0  0  0  0  0  0
   38.3230   24.8840   41.2900 C   0  0  0  0  0  0  0  0  0  0  0  0
   38.4370   29.0800   40.6630 C   0  0  0  0  0  0  0  0  0  0  0  0
   38.0880   28.4820   41.9010 C   0  0  0  0  0  0  0  0  0  0  0  0
   36.7420   28.2950   42.2150 C   0  0  0  0  0  0  0  0  0  0  0  0
   35.8210   28.7100   41.2860 N   0  0  0  0  0  0  0  0  0  0  0  0
   36.1800   29.2850   40.0990 C   0  0  0  0  0  0  0  0  0  0  0  0
   37.5050   29.4640   39.7980 N   0  0  0  0  0  0  0  0  0  0  0  0
   38.6634   28.7094   43.6923 H   0  0  0  0  0  0  0  0  0  0  0  0
   40.7939   28.1018   41.6496 H   0  0  0  0  0  0  0  0  0  0  0  0
   40.7037   29.4592   42.7530 H   0  0  0  0  0  0  0  0  0  0  0  0
   42.0627   27.0688   43.2772 H   0  0  0  0  0  0  0  0  0  0  0  0
   41.4870   28.1596   44.5605 H   0  0  0  0  0  0  0  0  0  0  0  0
   40.6463   25.4921   44.0876 H   0  0  0  0  0  0  0  0  0  0  0  0
   39.8765   26.6254   45.1918 H   0  0  0  0  0  0  0  0  0  0  0  0
   38.0628   26.3010   43.5600 H   0  0  0  0  0  0  0  0  0  0  0  0
   41.3203   26.0482   41.7082 H   0  0  0  0  0  0  0  0  0  0  0  0
   41.0170   24.3888   39.7327 H   0  0  0  0  0  0  0  0  0  0  0  0
   38.7139   22.8856   38.6572 H   0  0  0  0  0  0  0  0  0  0  0  0
   36.3154   22.5142   39.0465 H   0  0  0  0  0  0  0  0  0  0  0  0
   35.1674   23.6951   40.9261 H   0  0  0  0  0  0  0  0  0  0  0  0
   36.4925   25.2168   42.3506 H   0  0  0  0  0  0  0  0  0  0  0  0
   39.4983   29.2284   40.4149 H   0  0  0  0  0  0  0  0  0  0  0  0
   36.4324   27.8353   43.1651 H   0  0  0  0  0  0  0  0  0  0  0  0
   35.4057   29.6039   39.3857 H   0  0  0  0  0  0  0  0  0  0  0  0
  1  5  1  0
  2  1  1  0
  2  3  1  0
  3  4  1  0
  5  4  1  0
  6  5  1  0
  7  6  2  0
  8  7  1  0
  9  8  1  0
  9 14  2  0
 10 11  2  0
 10  9  1  0
 11 12  1  0
 12 13  2  0
 14 13  1  0
 14  6  1  0
 15 16  2  0
 16 17  1  0
 16  1  1  0
 18 17  2  0
 19 18  1  0
 20 19  2  0
 20 15  1  0
  1 21  1  1
  2 22  1  0
  2 23  1  0
  3 24  1  0
  3 25  1  0
  4 26  1  0
  4 27  1  0
  5 28  1  1
  7 29  1  0
  8 30  1  0
 10 31  1  0
 11 32  1  0
 12 33  1  0
 13 34  1  0
 15 35  1  0
 17 36  1  0
 19 37  1  0
M  ISO  8  21  13  22  13  23  13  24  13  25  13  26  13  27  13  28  13
M  ISO  8  29  14  30   9  31  14  32  14  33  14  34  14  35  14  36  14
M  ISO  1  37  14
M  END
>  <minimizedAffinity>  (1) 
-5.14590502

>  <minimizedRMSD>  (1) 
2.50536418

$$$$
