
     RDKit          3D

 41 45  0  0  1  0  0  0  0  0999 V2000
   38.3970   28.6050   42.3800 C   0  0  0  0  0  0  0  0  0  0  0  0
   39.1170   27.7900   43.2190 C   0  0  0  0  0  0  0  0  0  0  0  0
   38.9570   26.4390   43.2860 C   0  0  0  0  0  0  0  0  0  0  0  0
   38.0160   25.8650   42.4570 C   0  0  0  0  0  0  0  0  0  0  0  0
   37.2850   26.6430   41.6100 C   0  0  0  0  0  0  0  0  0  0  0  0
   37.4960   28.0470   41.5860 C   0  0  0  0  0  0  0  0  0  0  0  0
   36.5610   28.5060   40.5710 C   0  0  0  0  0  0  0  0  0  0  0  0
   35.2290   28.9040   40.7620 C   0  0  0  0  0  0  0  0  0  0  0  0
   34.7640   29.2350   39.5220 N   0  0  0  0  0  0  0  0  0  0  0  0
   35.7240   29.0700   38.5660 C   0  0  0  0  0  0  0  0  0  0  0  0
   35.6790   29.2840   37.2160 C   0  0  0  0  0  0  0  0  0  0  0  0
   36.8120   29.0310   36.4750 C   0  0  0  0  0  0  0  0  0  0  0  0
   37.9350   28.5740   37.1310 C   0  0  0  0  0  0  0  0  0  0  0  0
   38.0270   28.3440   38.4860 C   0  0  0  0  0  0  0  0  0  0  0  0
   36.8720   28.6080   39.2020 C   0  0  0  0  0  0  0  0  0  0  0  0
   39.3730   30.7120   41.2950 C   0  0  1  0  0  0  0  0  0  0  0  0
   39.7830   30.6750   42.7150 C   0  0  0  0  0  0  0  0  0  0  0  0
   38.4780   30.0660   42.4410 C   0  0  2  0  0  0  0  0  0  0  0  0
   38.7900   31.9750   40.7360 C   0  0  0  0  0  0  0  0  0  0  0  0
   37.7760   31.8420   39.7900 C   0  0  0  0  0  0  0  0  0  0  0  0
   37.2060   32.9940   39.2610 C   0  0  0  0  0  0  0  0  0  0  0  0
   37.6750   34.2120   39.7020 N   0  0  0  0  0  0  0  0  0  0  0  0
   38.6520   34.2990   40.6120 C   0  0  0  0  0  0  0  0  0  0  0  0
   39.1880   33.1670   41.1080 N   0  0  0  0  0  0  0  0  0  0  0  0
   39.8669   28.2557   43.8754 H   0  0  0  0  0  0  0  0  0  0  0  0
   39.5567   25.8278   43.9764 H   0  0  0  0  0  0  0  0  0  0  0  0
   37.8552   24.7770   42.4796 H   0  0  0  0  0  0  0  0  0  0  0  0
   36.5350   26.1855   40.9480 H   0  0  0  0  0  0  0  0  0  0  0  0
   34.6755   28.9414   41.7119 H   0  0  0  0  0  0  0  0  0  0  0  0
   33.8080   29.5677   39.3316 H   0  0  0  0  0  0  0  0  0  0  0  0
   34.7603   29.6493   36.7338 H   0  0  0  0  0  0  0  0  0  0  0  0
   36.8206   29.1897   35.3865 H   0  0  0  0  0  0  0  0  0  0  0  0
   38.8303   28.3770   36.5230 H   0  0  0  0  0  0  0  0  0  0  0  0
   38.9483   27.9783   38.9629 H   0  0  0  0  0  0  0  0  0  0  0  0
   39.8583   30.4158   40.3534 H   0  0  0  0  0  0  0  0  0  0  0  0
   40.6223   30.0291   43.0122 H   0  0  0  0  0  0  0  0  0  0  0  0
   40.1068   31.4575   43.4171 H   0  0  0  0  0  0  0  0  0  0  0  0
   37.4676   30.1934   42.8568 H   0  0  0  0  0  0  0  0  0  0  0  0
   37.4340   30.8471   39.4688 H   0  0  0  0  0  0  0  0  0  0  0  0
   36.4031   32.9349   38.5114 H   0  0  0  0  0  0  0  0  0  0  0  0
   39.0126   35.2815   40.9505 H   0  0  0  0  0  0  0  0  0  0  0  0
  1 18  1  0
  1  2  2  0
  2  3  1  0
  4  3  2  0
  5  4  1  0
  6  5  2  0
  6  1  1  0
  7  8  2  0
  7  6  1  0
  9  8  1  0
 10 15  2  0
 10  9  1  0
 11 10  1  0
 12 13  1  0
 12 11  2  0
 13 14  2  0
 14 15  1  0
 15  7  1  0
 16 18  1  0
 16 17  1  0
 18 17  1  0
 19 24  1  0
 19 16  1  0
 20 19  2  0
 21 22  2  0
 21 20  1  0
 22 23  1  0
 23 24  2  0
  2 25  1  0
  3 26  1  0
  4 27  1  0
  5 28  1  0
  8 29  1  0
  9 30  1  0
 11 31  1  0
 12 32  1  0
 13 33  1  0
 14 34  1  0
 16 35  1  6
 17 36  1  0
 17 37  1  0
 18 38  1  1
 20 39  1  0
 21 40  1  0
 23 41  1  0
M  ISO  8  25  14  26  14  27  14  28  14  29  14  30   9  31  14  32  14
M  ISO  8  33  14  34  14  35  13  36  13  37  13  38  13  39  14  40  14
M  ISO  1  41  14
M  END
>  <minimizedAffinity>  (1) 
-6.05640316

>  <minimizedRMSD>  (1) 
1.83794713

$$$$
