
     RDKit          3D

 29 31  0  0  0  0  0  0  0  0999 V2000
   37.9547   28.8852   43.3625 C   0  0  0  0  0  0  0  0  0  0  0  0
   38.0843   27.4702   43.3125 C   0  0  0  0  0  0  0  0  0  0  0  0
   37.4541   26.8172   42.2662 C   0  0  0  0  0  0  0  0  0  0  0  0
   36.7696   27.5941   41.3836 N   0  0  0  0  0  0  0  0  0  0  0  0
   36.6508   28.9201   41.4342 C   0  0  0  0  0  0  0  0  0  0  0  0
   37.2582   29.5317   42.4403 N   0  0  0  0  0  0  0  0  0  0  0  0
   37.5325   25.3358   42.1400 C   0  0  0  0  0  0  0  0  0  0  0  0
   37.6324   25.0460   40.8069 F   0  0  0  0  0  0  0  0  0  0  0  0
   38.6330   24.8360   42.7916 F   0  0  0  0  0  0  0  0  0  0  0  0
   36.3764   24.7186   42.6351 F   0  0  0  0  0  0  0  0  0  0  0  0
   38.4194   29.4528   44.1488 H   0  0  0  0  0  0  0  0  0  0  0  0
   38.6460   26.9479   44.0559 H   0  0  0  0  0  0  0  0  0  0  0  0
   35.8451   29.4226   40.3290 C   0  0  0  0  0  0  0  0  0  0  0  0
   35.2753   28.5976   39.3939 C   0  0  0  0  0  0  0  0  0  0  0  0
   34.5084   29.0263   38.3335 C   0  0  0  0  0  0  0  0  0  0  0  0
   34.2677   30.3591   38.1547 C   0  0  0  0  0  0  0  0  0  0  0  0
   34.8116   31.2432   39.0594 C   0  0  0  0  0  0  0  0  0  0  0  0
   34.5634   32.5838   38.8673 C   0  0  0  0  0  0  0  0  0  0  0  0
   35.0798   33.5215   39.7354 C   0  0  0  0  0  0  0  0  0  0  0  0
   35.8558   33.0579   40.8039 C   0  0  0  0  0  0  0  0  0  0  0  0
   36.0653   31.7039   40.9379 C   0  0  0  0  0  0  0  0  0  0  0  0
   35.5671   30.7472   40.0946 C   0  0  0  0  0  0  0  0  0  0  0  0
   35.4063   27.5065   39.4444 H   0  0  0  0  0  0  0  0  0  0  0  0
   34.0893   28.3312   37.6347 H   0  0  0  0  0  0  0  0  0  0  0  0
   33.6639   30.6718   37.3167 H   0  0  0  0  0  0  0  0  0  0  0  0
   33.9580   32.8990   38.0278 H   0  0  0  0  0  0  0  0  0  0  0  0
   34.8444   34.5538   39.5234 H   0  0  0  0  0  0  0  0  0  0  0  0
   36.2444   33.8205   41.4642 H   0  0  0  0  0  0  0  0  0  0  0  0
   36.6694   31.4806   41.7836 H   0  0  0  0  0  0  0  0  0  0  0  0
  2  1  2  0
  3  2  1  0
  4  5  1  0
  4  3  2  0
  5  6  2  0
  6  1  1  0
  7  3  1  0
  7 10  1  0
  7  9  1  0
  8  7  1  0
  1 11  1  0
  2 12  1  0
 13 14  2  0
 14 15  1  0
 15 16  2  0
 16 17  1  0
 17 18  2  0
 18 19  1  0
 19 20  2  0
 20 21  1  0
 21 22  2  0
 22 13  1  0
 22 17  1  0
 14 23  1  0
 15 24  1  0
 16 25  1  0
 18 26  1  0
 19 27  1  0
 20 28  1  0
 21 29  1  0
  5 13  1  0
M  ISO  2  11  14  12  14
M  END
>  <DihAtoms>  (1) 
3,4,12,13

>  <DihDeg>  (1) 
1.3277395588830718

$$$$
