
     RDKit          3D

 45 50  0  0  1  0  0  0  0  0999 V2000
   39.2550   27.8540   42.9970 C   0  0  0  0  0  0  0  0  0  0  0  0
   38.8300   26.6460   43.4240 N   0  0  0  0  0  0  0  0  0  0  0  0
   39.8060   26.0480   44.0400 O   0  0  0  0  0  0  0  0  0  0  0  0
   40.8490   26.8900   43.9970 C   0  0  0  0  0  0  0  0  0  0  0  0
   40.5390   28.0430   43.3460 N   0  0  0  0  0  0  0  0  0  0  0  0
   37.6470   30.6180   41.1940 C   0  0  0  0  0  0  0  0  0  0  0  0
   36.4220   29.9810   40.9470 C   0  0  0  0  0  0  0  0  0  0  0  0
   36.5760   28.3160   41.7010 S   0  0  0  0  0  0  0  0  0  0  0  0
   38.3480   28.7530   42.2580 C   0  0  0  0  0  0  0  0  0  0  0  0
   38.4020   29.7960   41.8480 N   0  0  0  0  0  0  0  0  0  0  0  0
   39.0380   32.6540   41.1540 C   0  0  0  0  0  0  0  0  0  0  0  0
   37.9030   31.9800   40.7440 C   0  0  0  0  0  0  0  0  0  0  0  0
   36.9900   32.6230   39.8900 C   0  0  0  0  0  0  0  0  0  0  0  0
   37.2900   33.8920   39.5150 N   0  0  0  0  0  0  0  0  0  0  0  0
   38.4180   34.5280   39.9410 C   0  0  0  0  0  0  0  0  0  0  0  0
   39.2660   33.9010   40.7460 N   0  0  0  0  0  0  0  0  0  0  0  0
   42.5260   26.7020   44.6560 S   0  0  0  0  0  0  0  0  0  0  0  0
   43.3880   25.6150   43.4630 C   0  0  2  0  0  0  0  0  0  0  0  0
   44.8560   25.5430   43.4300 C   0  0  0  0  0  0  0  0  0  0  0  0
   44.0460   26.2080   42.2880 C   0  0  1  0  0  0  0  0  0  0  0  0
   43.9060   25.4450   41.0230 C   0  0  0  0  0  0  0  0  0  0  0  0
   44.9620   24.8920   40.3290 C   0  0  0  0  0  0  0  0  0  0  0  0
   44.8260   24.1850   39.1570 C   0  0  0  0  0  0  0  0  0  0  0  0
   43.5880   23.9980   38.6180 C   0  0  0  0  0  0  0  0  0  0  0  0
   42.5090   24.5270   39.2700 C   0  0  0  0  0  0  0  0  0  0  0  0
   41.2420   24.3570   38.7520 C   0  0  0  0  0  0  0  0  0  0  0  0
   40.0950   24.8570   39.3430 C   0  0  0  0  0  0  0  0  0  0  0  0
   40.2520   25.5620   40.5180 C   0  0  0  0  0  0  0  0  0  0  0  0
   41.5270   25.7400   41.0480 C   0  0  0  0  0  0  0  0  0  0  0  0
   42.6580   25.2410   40.4560 C   0  0  0  0  0  0  0  0  0  0  0  0
   35.5526   30.3930   40.4137 H   0  0  0  0  0  0  0  0  0  0  0  0
   39.7575   32.1572   41.8215 H   0  0  0  0  0  0  0  0  0  0  0  0
   36.0752   32.1208   39.5421 H   0  0  0  0  0  0  0  0  0  0  0  0
   38.6247   35.5590   39.6180 H   0  0  0  0  0  0  0  0  0  0  0  0
   42.6056   24.8538   43.5986 H   0  0  0  0  0  0  0  0  0  0  0  0
   45.4572   26.1587   44.1151 H   0  0  0  0  0  0  0  0  0  0  0  0
   45.6075   24.7428   43.5005 H   0  0  0  0  0  0  0  0  0  0  0  0
   44.0598   27.1889   41.7905 H   0  0  0  0  0  0  0  0  0  0  0  0
   45.9746   25.0245   40.7377 H   0  0  0  0  0  0  0  0  0  0  0  0
   45.7138   23.7716   38.6561 H   0  0  0  0  0  0  0  0  0  0  0  0
   43.4603   23.4353   37.6815 H   0  0  0  0  0  0  0  0  0  0  0  0
   41.1372   23.7911   37.8146 H   0  0  0  0  0  0  0  0  0  0  0  0
   39.1025   24.6993   38.8957 H   0  0  0  0  0  0  0  0  0  0  0  0
   39.3751   25.9811   41.0332 H   0  0  0  0  0  0  0  0  0  0  0  0
   41.6315   26.3071   41.9848 H   0  0  0  0  0  0  0  0  0  0  0  0
  1  5  1  0
  1  2  2  0
  2  3  1  0
  4  3  1  0
  4 17  1  0
  5  4  2  0
  6 10  1  0
  7  6  2  0
  7  8  1  0
  8  9  1  0
  9  1  1  0
 10  9  2  0
 12 11  2  0
 12  6  1  0
 13 12  1  0
 14 13  2  0
 14 15  1  0
 15 16  2  0
 16 11  1  0
 18 17  1  0
 19 18  1  0
 20 19  1  0
 20 18  1  0
 21 20  1  0
 22 21  2  0
 23 22  1  0
 24 23  2  0
 24 25  1  0
 25 30  2  0
 26 25  1  0
 26 27  2  0
 27 28  1  0
 28 29  2  0
 30 21  1  0
 30 29  1  0
  7 31  1  0
 11 32  1  0
 13 33  1  0
 15 34  1  0
 18 35  1  6
 19 36  1  0
 19 37  1  0
 20 38  1  6
 22 39  1  0
 23 40  1  0
 24 41  1  0
 26 42  1  0
 27 43  1  0
 28 44  1  0
 29 45  1  0
M  ISO  8  31  14  32  14  33  14  34  14  35  13  36  13  37  13  38  13
M  ISO  7  39  14  40  14  41  14  42  14  43  14  44  14  45  14
M  END
>  <minimizedAffinity>  (1) 
-5.57615089

>  <minimizedRMSD>  (1) 
0.916949689

$$$$
