
     RDKit          3D

 29 31  0  0  0  0  0  0  0  0999 V2000
   37.9547   28.8852   43.3625 C   0  0  0  0  0  0  0  0  0  0  0  0
   38.0843   27.4702   43.3125 C   0  0  0  0  0  0  0  0  0  0  0  0
   37.4541   26.8172   42.2662 C   0  0  0  0  0  0  0  0  0  0  0  0
   36.7696   27.5941   41.3836 N   0  0  0  0  0  0  0  0  0  0  0  0
   36.6508   28.9201   41.4342 C   0  0  0  0  0  0  0  0  0  0  0  0
   37.2582   29.5317   42.4403 N   0  0  0  0  0  0  0  0  0  0  0  0
   37.5325   25.3358   42.1400 C   0  0  0  0  0  0  0  0  0  0  0  0
   37.6324   25.0460   40.8069 F   0  0  0  0  0  0  0  0  0  0  0  0
   38.6330   24.8360   42.7916 F   0  0  0  0  0  0  0  0  0  0  0  0
   36.3764   24.7186   42.6351 F   0  0  0  0  0  0  0  0  0  0  0  0
   38.4194   29.4528   44.1488 H   0  0  0  0  0  0  0  0  0  0  0  0
   38.6460   26.9479   44.0559 H   0  0  0  0  0  0  0  0  0  0  0  0
   35.8451   29.4226   40.3290 C   0  0  0  0  0  0  0  0  0  0  0  0
   35.1011   30.5708   40.4180 C   0  0  0  0  0  0  0  0  0  0  0  0
   34.3250   31.0828   39.4022 C   0  0  0  0  0  0  0  0  0  0  0  0
   34.2565   30.4391   38.1992 C   0  0  0  0  0  0  0  0  0  0  0  0
   34.9805   29.2783   38.0429 C   0  0  0  0  0  0  0  0  0  0  0  0
   34.9019   28.6380   36.8265 C   0  0  0  0  0  0  0  0  0  0  0  0
   35.6003   27.4707   36.6049 C   0  0  0  0  0  0  0  0  0  0  0  0
   36.3806   26.9727   37.6546 C   0  0  0  0  0  0  0  0  0  0  0  0
   36.4150   27.6625   38.8455 C   0  0  0  0  0  0  0  0  0  0  0  0
   35.7344   28.8234   39.0980 C   0  0  0  0  0  0  0  0  0  0  0  0
   35.0851   31.1665   41.3427 H   0  0  0  0  0  0  0  0  0  0  0  0
   33.7652   31.9864   39.5330 H   0  0  0  0  0  0  0  0  0  0  0  0
   33.6419   30.8589   37.4178 H   0  0  0  0  0  0  0  0  0  0  0  0
   34.2863   29.0577   36.0419 H   0  0  0  0  0  0  0  0  0  0  0  0
   35.4915   27.0237   35.6280 H   0  0  0  0  0  0  0  0  0  0  0  0
   36.9142   26.0561   37.4457 H   0  0  0  0  0  0  0  0  0  0  0  0
   37.0390   27.1833   39.5603 H   0  0  0  0  0  0  0  0  0  0  0  0
  2  1  2  0
  3  2  1  0
  4  5  1  0
  4  3  2  0
  5  6  2  0
  6  1  1  0
  7  3  1  0
  7 10  1  0
  7  9  1  0
  8  7  1  0
  1 11  1  0
  2 12  1  0
 13 14  2  0
 14 15  1  0
 15 16  2  0
 16 17  1  0
 17 18  2  0
 18 19  1  0
 19 20  2  0
 20 21  1  0
 21 22  2  0
 22 13  1  0
 22 17  1  0
 14 23  1  0
 15 24  1  0
 16 25  1  0
 18 26  1  0
 19 27  1  0
 20 28  1  0
 21 29  1  0
  5 13  1  0
M  ISO  2  11  14  12  14
M  END
>  <DihAtoms>  (1) 
3,4,12,13

>  <DihDeg>  (1) 
1.3277395588830718

$$$$
