
     RDKit          3D

 29 31  0  0  0  0  0  0  0  0999 V2000
   37.9547   28.8852   43.3625 C   0  0  0  0  0  0  0  0  0  0  0  0
   38.0843   27.4702   43.3125 C   0  0  0  0  0  0  0  0  0  0  0  0
   37.4541   26.8172   42.2662 C   0  0  0  0  0  0  0  0  0  0  0  0
   36.7696   27.5941   41.3836 N   0  0  0  0  0  0  0  0  0  0  0  0
   36.6508   28.9201   41.4342 C   0  0  0  0  0  0  0  0  0  0  0  0
   37.2582   29.5317   42.4403 N   0  0  0  0  0  0  0  0  0  0  0  0
   37.5325   25.3358   42.1400 C   0  0  0  0  0  0  0  0  0  0  0  0
   37.6324   25.0460   40.8069 F   0  0  0  0  0  0  0  0  0  0  0  0
   38.6330   24.8360   42.7916 F   0  0  0  0  0  0  0  0  0  0  0  0
   36.3764   24.7186   42.6351 F   0  0  0  0  0  0  0  0  0  0  0  0
   38.4194   29.4528   44.1488 H   0  0  0  0  0  0  0  0  0  0  0  0
   38.6460   26.9479   44.0559 H   0  0  0  0  0  0  0  0  0  0  0  0
   35.8451   29.4226   40.3290 C   0  0  0  0  0  0  0  0  0  0  0  0
   35.8367   30.7430   39.9601 C   0  0  0  0  0  0  0  0  0  0  0  0
   35.0919   31.2632   38.9251 C   0  0  0  0  0  0  0  0  0  0  0  0
   34.2870   30.4479   38.1811 C   0  0  0  0  0  0  0  0  0  0  0  0
   34.2487   29.1089   38.4993 C   0  0  0  0  0  0  0  0  0  0  0  0
   33.4323   28.2979   37.7432 C   0  0  0  0  0  0  0  0  0  0  0  0
   33.3466   26.9486   38.0105 C   0  0  0  0  0  0  0  0  0  0  0  0
   34.1139   26.4470   39.0680 C   0  0  0  0  0  0  0  0  0  0  0  0
   34.9094   27.3128   39.7841 C   0  0  0  0  0  0  0  0  0  0  0  0
   35.0175   28.6566   39.5447 C   0  0  0  0  0  0  0  0  0  0  0  0
   36.4493   31.4852   40.4931 H   0  0  0  0  0  0  0  0  0  0  0  0
   35.1281   32.3063   38.6848 H   0  0  0  0  0  0  0  0  0  0  0  0
   33.7125   30.8777   37.3749 H   0  0  0  0  0  0  0  0  0  0  0  0
   32.8558   28.7272   36.9344 H   0  0  0  0  0  0  0  0  0  0  0  0
   32.6869   26.3742   37.3773 H   0  0  0  0  0  0  0  0  0  0  0  0
   34.0220   25.3853   39.2491 H   0  0  0  0  0  0  0  0  0  0  0  0
   35.4384   26.8125   40.5586 H   0  0  0  0  0  0  0  0  0  0  0  0
  2  1  2  0
  3  2  1  0
  4  5  1  0
  4  3  2  0
  5  6  2  0
  6  1  1  0
  7  3  1  0
  7 10  1  0
  7  9  1  0
  8  7  1  0
  1 11  1  0
  2 12  1  0
 13 14  2  0
 14 15  1  0
 15 16  2  0
 16 17  1  0
 17 18  2  0
 18 19  1  0
 19 20  2  0
 20 21  1  0
 21 22  2  0
 22 13  1  0
 22 17  1  0
 14 23  1  0
 15 24  1  0
 16 25  1  0
 18 26  1  0
 19 27  1  0
 20 28  1  0
 21 29  1  0
  5 13  1  0
M  ISO  2  11  14  12  14
M  END
>  <DihAtoms>  (1) 
3,4,12,13

>  <DihDeg>  (1) 
1.3277395588830718

$$$$
