
     RDKit          3D

 49 54  0  0  0  0  0  0  0  0999 V2000
   41.0830   26.9210   43.3130 O   0  0  0  0  0  0  0  0  0  0  0  0
   37.0880   29.0750   43.3190 N   0  0  0  0  0  0  0  0  0  0  0  0
   36.9570   27.7720   43.6920 C   0  0  0  0  0  0  0  0  0  0  0  0
   38.1970   27.2200   43.6590 N   0  0  0  0  0  0  0  0  0  0  0  0
   39.1150   28.1520   43.2700 C   0  0  0  0  0  0  0  0  0  0  0  0
   40.4730   28.1360   43.0740 C   0  0  0  0  0  0  0  0  0  0  0  0
   41.0800   29.2690   42.6750 N   0  0  0  0  0  0  0  0  0  0  0  0
   40.3620   30.4070   42.4720 C   0  0  0  0  0  0  0  0  0  0  0  0
   39.0280   30.4300   42.6630 N   0  0  0  0  0  0  0  0  0  0  0  0
   38.3820   29.3150   43.0630 C   0  0  0  0  0  0  0  0  0  0  0  0
   41.2400   31.4920   42.0510 C   0  0  0  0  0  0  0  0  0  0  0  0
   40.9720   32.3240   40.9620 C   0  0  0  0  0  0  0  0  0  0  0  0
   41.7710   33.3490   40.5360 C   0  0  0  0  0  0  0  0  0  0  0  0
   42.9420   33.6180   41.2020 C   0  0  0  0  0  0  0  0  0  0  0  0
   43.2750   32.8490   42.2760 C   0  0  0  0  0  0  0  0  0  0  0  0
   44.4520   33.1520   42.9090 C   0  0  0  0  0  0  0  0  0  0  0  0
   44.8550   32.4170   44.0020 C   0  0  0  0  0  0  0  0  0  0  0  0
   44.0230   31.3840   44.4100 C   0  0  0  0  0  0  0  0  0  0  0  0
   42.8610   31.1290   43.7380 C   0  0  0  0  0  0  0  0  0  0  0  0
   42.4260   31.8390   42.6450 C   0  0  0  0  0  0  0  0  0  0  0  0
   44.5410   26.2730   44.2670 C   0  0  0  0  0  0  0  0  0  0  0  0
   43.3670   26.3350   43.5120 C   0  0  0  0  0  0  0  0  0  0  0  0
   42.2180   26.8700   44.0710 C   0  0  0  0  0  0  0  0  0  0  0  0
   42.2840   27.3220   45.3650 N   0  0  0  0  0  0  0  0  0  0  0  0
   43.4290   27.2480   46.0660 C   0  0  0  0  0  0  0  0  0  0  0  0
   44.5530   26.7290   45.5270 N   0  0  0  0  0  0  0  0  0  0  0  0
   43.2980   25.8510   42.1330 C   0  0  0  0  0  0  0  0  0  0  0  0
   44.3410   25.9090   41.2380 C   0  0  0  0  0  0  0  0  0  0  0  0
   44.2980   25.4570   39.9340 C   0  0  0  0  0  0  0  0  0  0  0  0
   43.1220   24.9120   39.5060 N   0  0  0  0  0  0  0  0  0  0  0  0
   42.0880   24.8490   40.3730 C   0  0  0  0  0  0  0  0  0  0  0  0
   42.1680   25.2990   41.6370 N   0  0  0  0  0  0  0  0  0  0  0  0
   43.4320   27.7600   47.4710 C   0  0  0  0  0  0  0  0  0  0  0  0
   43.4640   29.1500   47.4840 F   0  0  0  0  0  0  0  0  0  0  0  0
   42.2450   27.4300   48.1200 F   0  0  0  0  0  0  0  0  0  0  0  0
   44.5410   27.3290   48.1880 F   0  0  0  0  0  0  0  0  0  0  0  0
   36.3225   29.7603   43.2459 H   0  0  0  0  0  0  0  0  0  0  0  0
   36.0221   27.2623   43.9682 H   0  0  0  0  0  0  0  0  0  0  0  0
   40.0434   32.1402   40.4016 H   0  0  0  0  0  0  0  0  0  0  0  0
   41.4778   33.9542   39.6655 H   0  0  0  0  0  0  0  0  0  0  0  0
   43.5978   34.4382   40.8745 H   0  0  0  0  0  0  0  0  0  0  0  0
   45.0749   33.9821   42.5443 H   0  0  0  0  0  0  0  0  0  0  0  0
   45.7950   32.6391   44.5283 H   0  0  0  0  0  0  0  0  0  0  0  0
   44.3002   30.7679   45.2781 H   0  0  0  0  0  0  0  0  0  0  0  0
   42.2321   30.3004   44.0957 H   0  0  0  0  0  0  0  0  0  0  0  0
   45.4559   25.8496   43.8269 H   0  0  0  0  0  0  0  0  0  0  0  0
   45.2851   26.3509   41.5893 H   0  0  0  0  0  0  0  0  0  0  0  0
   45.1718   25.5327   39.2702 H   0  0  0  0  0  0  0  0  0  0  0  0
   41.1394   24.4104   40.0297 H   0  0  0  0  0  0  0  0  0  0  0  0
  1 23  1  0
  2  3  1  0
  4  3  2  0
  5  4  1  0
  6  5  2  0
  6  1  1  0
  7  6  1  0
  8  9  1  0
  8  7  2  0
  9 10  2  0
 10  5  1  0
 10  2  1  0
 11  8  1  0
 11 20  1  0
 12 11  2  0
 13 12  1  0
 13 14  2  0
 14 15  1  0
 15 20  2  0
 15 16  1  0
 16 17  2  0
 17 18  1  0
 19 18  2  0
 20 19  1  0
 21 26  2  0
 22 23  2  0
 22 21  1  0
 23 24  1  0
 24 25  2  0
 25 33  1  0
 26 25  1  0
 27 22  1  0
 28 27  2  0
 29 28  1  0
 30 29  2  0
 30 31  1  0
 31 32  2  0
 32 27  1  0
 33 34  1  0
 33 35  1  0
 33 36  1  0
  2 37  1  0
  3 38  1  0
 12 39  1  0
 13 40  1  0
 14 41  1  0
 16 42  1  0
 17 43  1  0
 18 44  1  0
 19 45  1  0
 21 46  1  0
 28 47  1  0
 29 48  1  0
 31 49  1  0
M  END
>  <minimizedAffinity>  (1) 
-7.09151745

>  <minimizedRMSD>  (1) 
0.248734683

$$$$
