
     RDKit          3D

 29 31  0  0  0  0  0  0  0  0999 V2000
   37.9547   28.8852   43.3625 C   0  0  0  0  0  0  0  0  0  0  0  0
   38.0843   27.4702   43.3125 C   0  0  0  0  0  0  0  0  0  0  0  0
   37.4541   26.8172   42.2662 C   0  0  0  0  0  0  0  0  0  0  0  0
   36.7696   27.5941   41.3836 N   0  0  0  0  0  0  0  0  0  0  0  0
   36.6508   28.9201   41.4342 C   0  0  0  0  0  0  0  0  0  0  0  0
   37.2582   29.5317   42.4403 N   0  0  0  0  0  0  0  0  0  0  0  0
   37.5325   25.3358   42.1400 C   0  0  0  0  0  0  0  0  0  0  0  0
   37.6324   25.0460   40.8069 F   0  0  0  0  0  0  0  0  0  0  0  0
   38.6330   24.8360   42.7916 F   0  0  0  0  0  0  0  0  0  0  0  0
   36.3764   24.7186   42.6351 F   0  0  0  0  0  0  0  0  0  0  0  0
   38.4194   29.4528   44.1488 H   0  0  0  0  0  0  0  0  0  0  0  0
   38.6460   26.9479   44.0559 H   0  0  0  0  0  0  0  0  0  0  0  0
   35.8451   29.4226   40.3290 C   0  0  0  0  0  0  0  0  0  0  0  0
   35.3459   30.6991   40.2980 C   0  0  0  0  0  0  0  0  0  0  0  0
   34.5801   31.2169   39.2772 C   0  0  0  0  0  0  0  0  0  0  0  0
   34.2665   30.4449   38.1946 C   0  0  0  0  0  0  0  0  0  0  0  0
   34.7369   29.1512   38.1627 C   0  0  0  0  0  0  0  0  0  0  0  0
   34.4126   28.3828   37.0672 C   0  0  0  0  0  0  0  0  0  0  0  0
   34.8499   27.0792   36.9739 C   0  0  0  0  0  0  0  0  0  0  0  0
   35.6260   26.5788   38.0256 C   0  0  0  0  0  0  0  0  0  0  0  0
   35.9138   27.4007   39.0918 C   0  0  0  0  0  0  0  0  0  0  0  0
   35.4958   28.6986   39.2152 C   0  0  0  0  0  0  0  0  0  0  0  0
   35.5391   31.4043   41.1199 H   0  0  0  0  0  0  0  0  0  0  0  0
   34.2186   32.2244   39.3107 H   0  0  0  0  0  0  0  0  0  0  0  0
   33.6652   30.8719   37.4067 H   0  0  0  0  0  0  0  0  0  0  0  0
   33.8099   28.8095   36.2763 H   0  0  0  0  0  0  0  0  0  0  0  0
   34.5577   26.5365   36.0872 H   0  0  0  0  0  0  0  0  0  0  0  0
   35.9514   25.5534   37.9191 H   0  0  0  0  0  0  0  0  0  0  0  0
   36.5061   26.9052   39.8224 H   0  0  0  0  0  0  0  0  0  0  0  0
  2  1  2  0
  3  2  1  0
  4  5  1  0
  4  3  2  0
  5  6  2  0
  6  1  1  0
  7  3  1  0
  7 10  1  0
  7  9  1  0
  8  7  1  0
  1 11  1  0
  2 12  1  0
 13 14  2  0
 14 15  1  0
 15 16  2  0
 16 17  1  0
 17 18  2  0
 18 19  1  0
 19 20  2  0
 20 21  1  0
 21 22  2  0
 22 13  1  0
 22 17  1  0
 14 23  1  0
 15 24  1  0
 16 25  1  0
 18 26  1  0
 19 27  1  0
 20 28  1  0
 21 29  1  0
  5 13  1  0
M  ISO  2  11  14  12  14
M  END
>  <DihAtoms>  (1) 
3,4,12,13

>  <DihDeg>  (1) 
1.3277395588830718

$$$$
