
     RDKit          3D

 29 31  0  0  0  0  0  0  0  0999 V2000
   37.9547   28.8852   43.3625 C   0  0  0  0  0  0  0  0  0  0  0  0
   38.0843   27.4702   43.3125 C   0  0  0  0  0  0  0  0  0  0  0  0
   37.4541   26.8172   42.2662 C   0  0  0  0  0  0  0  0  0  0  0  0
   36.7696   27.5941   41.3836 N   0  0  0  0  0  0  0  0  0  0  0  0
   36.6508   28.9201   41.4342 C   0  0  0  0  0  0  0  0  0  0  0  0
   37.2582   29.5317   42.4403 N   0  0  0  0  0  0  0  0  0  0  0  0
   37.5325   25.3358   42.1400 C   0  0  0  0  0  0  0  0  0  0  0  0
   37.6324   25.0460   40.8069 F   0  0  0  0  0  0  0  0  0  0  0  0
   38.6330   24.8360   42.7916 F   0  0  0  0  0  0  0  0  0  0  0  0
   36.3764   24.7186   42.6351 F   0  0  0  0  0  0  0  0  0  0  0  0
   38.4194   29.4528   44.1488 H   0  0  0  0  0  0  0  0  0  0  0  0
   38.6460   26.9479   44.0559 H   0  0  0  0  0  0  0  0  0  0  0  0
   35.8451   29.4226   40.3290 C   0  0  0  0  0  0  0  0  0  0  0  0
   34.6952   30.1443   40.5201 C   0  0  0  0  0  0  0  0  0  0  0  0
   33.9021   30.6379   39.5082 C   0  0  0  0  0  0  0  0  0  0  0  0
   34.2404   30.4207   38.2026 C   0  0  0  0  0  0  0  0  0  0  0  0
   35.3851   29.7017   37.9405 C   0  0  0  0  0  0  0  0  0  0  0  0
   35.7143   29.4881   36.6208 C   0  0  0  0  0  0  0  0  0  0  0  0
   36.8461   28.7746   36.2895 C   0  0  0  0  0  0  0  0  0  0  0  0
   37.6334   28.2845   37.3377 C   0  0  0  0  0  0  0  0  0  0  0  0
   37.2470   28.5340   38.6352 C   0  0  0  0  0  0  0  0  0  0  0  0
   36.1303   29.2384   38.9980 C   0  0  0  0  0  0  0  0  0  0  0  0
   34.3320   30.3760   41.5323 H   0  0  0  0  0  0  0  0  0  0  0  0
   33.0133   31.1961   39.7217 H   0  0  0  0  0  0  0  0  0  0  0  0
   33.6039   30.8170   37.4265 H   0  0  0  0  0  0  0  0  0  0  0  0
   35.0773   29.8849   35.8413 H   0  0  0  0  0  0  0  0  0  0  0  0
   37.0419   28.6462   35.2354 H   0  0  0  0  0  0  0  0  0  0  0  0
   38.5127   27.7299   37.0414 H   0  0  0  0  0  0  0  0  0  0  0  0
   37.9238   28.1093   39.3364 H   0  0  0  0  0  0  0  0  0  0  0  0
  2  1  2  0
  3  2  1  0
  4  5  1  0
  4  3  2  0
  5  6  2  0
  6  1  1  0
  7  3  1  0
  7 10  1  0
  7  9  1  0
  8  7  1  0
  1 11  1  0
  2 12  1  0
 13 14  2  0
 14 15  1  0
 15 16  2  0
 16 17  1  0
 17 18  2  0
 18 19  1  0
 19 20  2  0
 20 21  1  0
 21 22  2  0
 22 13  1  0
 22 17  1  0
 14 23  1  0
 15 24  1  0
 16 25  1  0
 18 26  1  0
 19 27  1  0
 20 28  1  0
 21 29  1  0
  5 13  1  0
M  ISO  2  11  14  12  14
M  END
>  <DihAtoms>  (1) 
3,4,12,13

>  <DihDeg>  (1) 
1.3277395588830718

$$$$
