
     RDKit          3D

 50 56  0  0  1  0  0  0  0  0999 V2000
   39.3490   27.8290   43.4440 C   0  0  0  0  0  0  0  0  0  0  0  0
   38.0510   27.2990   43.6260 C   0  0  0  0  0  0  0  0  0  0  0  0
   36.9910   27.9350   43.0090 C   0  0  0  0  0  0  0  0  0  0  0  0
   37.2690   29.0380   42.2600 N   0  0  0  0  0  0  0  0  0  0  0  0
   38.5040   29.5320   42.0930 C   0  0  0  0  0  0  0  0  0  0  0  0
   39.5810   28.9350   42.6860 N   0  0  0  0  0  0  0  0  0  0  0  0
   38.6380   30.6810   41.2780 N   0  0  0  0  0  0  0  0  0  0  0  0
   37.6370   30.9850   40.4320 C   0  0  0  0  0  0  0  0  0  0  0  0
   37.9880   32.0930   39.7750 N   0  0  0  0  0  0  0  0  0  0  0  0
   39.1880   32.5230   40.1660 C   0  0  0  0  0  0  0  0  0  0  0  0
   40.0740   33.5400   39.9030 C   0  0  0  0  0  0  0  0  0  0  0  0
   41.2660   33.6440   40.5410 N   0  0  0  0  0  0  0  0  0  0  0  0
   41.6030   32.7240   41.4650 C   0  0  0  0  0  0  0  0  0  0  0  0
   40.7610   31.7110   41.7530 N   0  0  0  0  0  0  0  0  0  0  0  0
   39.5860   31.6150   41.1210 C   0  0  0  0  0  0  0  0  0  0  0  0
   42.8320   32.7420   42.1610 N   0  0  0  0  0  0  0  0  0  0  0  0
   43.9440   33.5140   42.1330 C   0  0  0  0  0  0  0  0  0  0  0  0
   44.8380   33.0530   43.0160 N   0  0  0  0  0  0  0  0  0  0  0  0
   44.2850   31.9980   43.5910 C   0  0  0  0  0  0  0  0  0  0  0  0
   43.0470   31.7870   43.0810 N   0  0  0  0  0  0  0  0  0  0  0  0
   44.8920   31.1110   44.6250 C   0  0  1  0  0  0  0  0  0  0  0  0
   44.8970   31.5790   46.0610 C   0  0  0  0  0  0  0  0  0  0  0  0
   44.0000   30.3880   45.6060 C   0  0  2  0  0  0  0  0  0  0  0  0
   44.5000   29.0650   46.0770 C   0  0  0  0  0  0  0  0  0  0  0  0
   45.4980   28.4210   45.3400 C   0  0  0  0  0  0  0  0  0  0  0  0
   46.0100   27.1830   45.6730 C   0  0  0  0  0  0  0  0  0  0  0  0
   45.5370   26.5110   46.7870 C   0  0  0  0  0  0  0  0  0  0  0  0
   44.5520   27.1290   47.5280 C   0  0  0  0  0  0  0  0  0  0  0  0
   44.0950   26.4620   48.6440 C   0  0  0  0  0  0  0  0  0  0  0  0
   43.1350   26.9960   49.4480 C   0  0  0  0  0  0  0  0  0  0  0  0
   42.6650   28.2350   49.0610 C   0  0  0  0  0  0  0  0  0  0  0  0
   43.0870   28.9550   47.9450 C   0  0  0  0  0  0  0  0  0  0  0  0
   44.0570   28.3640   47.1750 C   0  0  0  0  0  0  0  0  0  0  0  0
   40.1999   27.3306   43.9315 H   0  0  0  0  0  0  0  0  0  0  0  0
   37.8892   26.4030   44.2432 H   0  0  0  0  0  0  0  0  0  0  0  0
   35.9611   27.5644   43.1186 H   0  0  0  0  0  0  0  0  0  0  0  0
   36.7000   30.4230   40.3048 H   0  0  0  0  0  0  0  0  0  0  0  0
   39.8072   34.2954   39.1493 H   0  0  0  0  0  0  0  0  0  0  0  0
   44.0906   34.3887   41.4823 H   0  0  0  0  0  0  0  0  0  0  0  0
   45.6668   30.7792   43.9182 H   0  0  0  0  0  0  0  0  0  0  0  0
   45.7749   31.3980   46.6985 H   0  0  0  0  0  0  0  0  0  0  0  0
   44.7272   32.5371   46.5740 H   0  0  0  0  0  0  0  0  0  0  0  0
   42.9299   30.1348   45.6357 H   0  0  0  0  0  0  0  0  0  0  0  0
   45.8961   28.9271   44.4482 H   0  0  0  0  0  0  0  0  0  0  0  0
   46.7960   26.7293   45.0514 H   0  0  0  0  0  0  0  0  0  0  0  0
   45.9311   25.5237   47.0697 H   0  0  0  0  0  0  0  0  0  0  0  0
   44.5154   25.4759   48.8907 H   0  0  0  0  0  0  0  0  0  0  0  0
   42.7603   26.4770   50.3426 H   0  0  0  0  0  0  0  0  0  0  0  0
   41.8882   28.6949   49.6896 H   0  0  0  0  0  0  0  0  0  0  0  0
   42.6667   29.9405   47.6956 H   0  0  0  0  0  0  0  0  0  0  0  0
  1  2  2  0
  3  2  1  0
  4  3  2  0
  5  4  1  0
  5  6  2  0
  6  1  1  0
  7  5  1  0
  8  7  1  0
  9 10  1  0
  9  8  2  0
 10 15  2  0
 11 10  1  0
 11 12  2  0
 12 13  1  0
 13 14  2  0
 13 16  1  0
 15  7  1  0
 15 14  1  0
 16 20  1  0
 17 16  1  0
 17 18  2  0
 18 19  1  0
 19 21  1  0
 20 19  2  0
 21 23  1  0
 21 22  1  0
 23 22  1  0
 23 24  1  0
 24 33  2  0
 25 26  2  0
 25 24  1  0
 26 27  1  0
 27 28  2  0
 28 29  1  0
 29 30  2  0
 31 30  1  0
 32 31  2  0
 33 28  1  0
 33 32  1  0
  1 34  1  0
  2 35  1  0
  3 36  1  0
  8 37  1  0
 11 38  1  0
 17 39  1  0
 21 40  1  6
 22 41  1  0
 22 42  1  0
 23 43  1  6
 25 44  1  0
 26 45  1  0
 27 46  1  0
 29 47  1  0
 30 48  1  0
 31 49  1  0
 32 50  1  0
M  END
>  <minimizedAffinity>  (1) 
-8.42792416

>  <minimizedRMSD>  (1) 
2.92449403

$$$$
