
     RDKit          3D

 29 31  0  0  0  0  0  0  0  0999 V2000
   37.9547   28.8852   43.3625 C   0  0  0  0  0  0  0  0  0  0  0  0
   38.0843   27.4702   43.3125 C   0  0  0  0  0  0  0  0  0  0  0  0
   37.4541   26.8172   42.2662 C   0  0  0  0  0  0  0  0  0  0  0  0
   36.7696   27.5941   41.3836 N   0  0  0  0  0  0  0  0  0  0  0  0
   36.6508   28.9201   41.4342 C   0  0  0  0  0  0  0  0  0  0  0  0
   37.2582   29.5317   42.4403 N   0  0  0  0  0  0  0  0  0  0  0  0
   37.5325   25.3358   42.1400 C   0  0  0  0  0  0  0  0  0  0  0  0
   37.6324   25.0460   40.8069 F   0  0  0  0  0  0  0  0  0  0  0  0
   38.6330   24.8360   42.7916 F   0  0  0  0  0  0  0  0  0  0  0  0
   36.3764   24.7186   42.6351 F   0  0  0  0  0  0  0  0  0  0  0  0
   38.4194   29.4528   44.1488 H   0  0  0  0  0  0  0  0  0  0  0  0
   38.6460   26.9479   44.0559 H   0  0  0  0  0  0  0  0  0  0  0  0
   35.8451   29.4226   40.3290 C   0  0  0  0  0  0  0  0  0  0  0  0
   36.2202   30.5015   39.5707 C   0  0  0  0  0  0  0  0  0  0  0  0
   35.4921   31.0119   38.5192 C   0  0  0  0  0  0  0  0  0  0  0  0
   34.3035   30.4391   38.1650 C   0  0  0  0  0  0  0  0  0  0  0  0
   33.8679   29.3504   38.8867 C   0  0  0  0  0  0  0  0  0  0  0  0
   32.6678   28.7831   38.5212 C   0  0  0  0  0  0  0  0  0  0  0  0
   32.1738   27.6922   39.2035 C   0  0  0  0  0  0  0  0  0  0  0  0
   32.9342   27.1946   40.2680 C   0  0  0  0  0  0  0  0  0  0  0  0
   34.1256   27.8090   40.5811 C   0  0  0  0  0  0  0  0  0  0  0  0
   34.6443   28.8926   39.9242 C   0  0  0  0  0  0  0  0  0  0  0  0
   37.1602   31.0368   39.7710 H   0  0  0  0  0  0  0  0  0  0  0  0
   35.8388   31.8592   37.9634 H   0  0  0  0  0  0  0  0  0  0  0  0
   33.7501   30.8560   37.3376 H   0  0  0  0  0  0  0  0  0  0  0  0
   32.1118   29.1998   37.6917 H   0  0  0  0  0  0  0  0  0  0  0  0
   31.2276   27.2998   38.8620 H   0  0  0  0  0  0  0  0  0  0  0  0
   32.5167   26.3391   40.7802 H   0  0  0  0  0  0  0  0  0  0  0  0
   34.6055   27.3406   41.4059 H   0  0  0  0  0  0  0  0  0  0  0  0
  2  1  2  0
  3  2  1  0
  4  5  1  0
  4  3  2  0
  5  6  2  0
  6  1  1  0
  7  3  1  0
  7 10  1  0
  7  9  1  0
  8  7  1  0
  1 11  1  0
  2 12  1  0
 13 14  2  0
 14 15  1  0
 15 16  2  0
 16 17  1  0
 17 18  2  0
 18 19  1  0
 19 20  2  0
 20 21  1  0
 21 22  2  0
 22 13  1  0
 22 17  1  0
 14 23  1  0
 15 24  1  0
 16 25  1  0
 18 26  1  0
 19 27  1  0
 20 28  1  0
 21 29  1  0
  5 13  1  0
M  ISO  2  11  14  12  14
M  END
>  <DihAtoms>  (1) 
3,4,12,13

>  <DihDeg>  (1) 
1.3277395588830718

$$$$
