
     RDKit          3D

 29 31  0  0  0  0  0  0  0  0999 V2000
   37.9547   28.8852   43.3625 C   0  0  0  0  0  0  0  0  0  0  0  0
   38.0843   27.4702   43.3125 C   0  0  0  0  0  0  0  0  0  0  0  0
   37.4541   26.8172   42.2662 C   0  0  0  0  0  0  0  0  0  0  0  0
   36.7696   27.5941   41.3836 N   0  0  0  0  0  0  0  0  0  0  0  0
   36.6508   28.9201   41.4342 C   0  0  0  0  0  0  0  0  0  0  0  0
   37.2582   29.5317   42.4403 N   0  0  0  0  0  0  0  0  0  0  0  0
   37.5325   25.3358   42.1400 C   0  0  0  0  0  0  0  0  0  0  0  0
   37.6324   25.0460   40.8069 F   0  0  0  0  0  0  0  0  0  0  0  0
   38.6330   24.8360   42.7916 F   0  0  0  0  0  0  0  0  0  0  0  0
   36.3764   24.7186   42.6351 F   0  0  0  0  0  0  0  0  0  0  0  0
   38.4194   29.4528   44.1488 H   0  0  0  0  0  0  0  0  0  0  0  0
   38.6460   26.9479   44.0559 H   0  0  0  0  0  0  0  0  0  0  0  0
   35.8451   29.4226   40.3290 C   0  0  0  0  0  0  0  0  0  0  0  0
   36.3103   29.4801   39.0406 C   0  0  0  0  0  0  0  0  0  0  0  0
   35.5870   29.9473   37.9660 C   0  0  0  0  0  0  0  0  0  0  0  0
   34.3093   30.3977   38.1419 C   0  0  0  0  0  0  0  0  0  0  0  0
   33.7805   30.3675   39.4129 C   0  0  0  0  0  0  0  0  0  0  0  0
   32.4926   30.8256   39.5776 C   0  0  0  0  0  0  0  0  0  0  0  0
   31.9044   30.8244   40.8240 C   0  0  0  0  0  0  0  0  0  0  0  0
   32.6625   30.3445   41.8982 C   0  0  0  0  0  0  0  0  0  0  0  0
   33.9446   29.9010   41.6642 C   0  0  0  0  0  0  0  0  0  0  0  0
   34.5577   29.8885   40.4400 C   0  0  0  0  0  0  0  0  0  0  0  0
   37.3264   29.1423   38.7884 H   0  0  0  0  0  0  0  0  0  0  0  0
   36.0066   29.9671   36.9808 H   0  0  0  0  0  0  0  0  0  0  0  0
   33.7615   30.7592   37.2853 H   0  0  0  0  0  0  0  0  0  0  0  0
   31.9419   31.1882   38.7196 H   0  0  0  0  0  0  0  0  0  0  0  0
   30.8927   31.1977   40.8784 H   0  0  0  0  0  0  0  0  0  0  0  0
   32.1700   30.3583   42.8604 H   0  0  0  0  0  0  0  0  0  0  0  0
   34.4142   29.5651   42.5568 H   0  0  0  0  0  0  0  0  0  0  0  0
  2  1  2  0
  3  2  1  0
  4  5  1  0
  4  3  2  0
  5  6  2  0
  6  1  1  0
  7  3  1  0
  7 10  1  0
  7  9  1  0
  8  7  1  0
  1 11  1  0
  2 12  1  0
 13 14  2  0
 14 15  1  0
 15 16  2  0
 16 17  1  0
 17 18  2  0
 18 19  1  0
 19 20  2  0
 20 21  1  0
 21 22  2  0
 22 13  1  0
 22 17  1  0
 14 23  1  0
 15 24  1  0
 16 25  1  0
 18 26  1  0
 19 27  1  0
 20 28  1  0
 21 29  1  0
  5 13  1  0
M  ISO  2  11  14  12  14
M  END
>  <DihAtoms>  (1) 
3,4,12,13

>  <DihDeg>  (1) 
1.3277395588830718

$$$$
