
     RDKit          3D

 29 31  0  0  0  0  0  0  0  0999 V2000
   37.9547   28.8852   43.3625 C   0  0  0  0  0  0  0  0  0  0  0  0
   38.0843   27.4702   43.3125 C   0  0  0  0  0  0  0  0  0  0  0  0
   37.4541   26.8172   42.2662 C   0  0  0  0  0  0  0  0  0  0  0  0
   36.7696   27.5941   41.3836 N   0  0  0  0  0  0  0  0  0  0  0  0
   36.6508   28.9201   41.4342 C   0  0  0  0  0  0  0  0  0  0  0  0
   37.2582   29.5317   42.4403 N   0  0  0  0  0  0  0  0  0  0  0  0
   37.5325   25.3358   42.1400 C   0  0  0  0  0  0  0  0  0  0  0  0
   37.6324   25.0460   40.8069 F   0  0  0  0  0  0  0  0  0  0  0  0
   38.6330   24.8360   42.7916 F   0  0  0  0  0  0  0  0  0  0  0  0
   36.3764   24.7186   42.6351 F   0  0  0  0  0  0  0  0  0  0  0  0
   38.4194   29.4528   44.1488 H   0  0  0  0  0  0  0  0  0  0  0  0
   38.6460   26.9479   44.0559 H   0  0  0  0  0  0  0  0  0  0  0  0
   35.8451   29.4226   40.3290 C   0  0  0  0  0  0  0  0  0  0  0  0
   36.3376   30.2913   39.3895 C   0  0  0  0  0  0  0  0  0  0  0  0
   35.6147   30.7929   38.3302 C   0  0  0  0  0  0  0  0  0  0  0  0
   34.3088   30.4308   38.1573 C   0  0  0  0  0  0  0  0  0  0  0  0
   33.7516   29.5600   39.0668 C   0  0  0  0  0  0  0  0  0  0  0  0
   32.4344   29.2041   38.8828 C   0  0  0  0  0  0  0  0  0  0  0  0
   31.8157   28.3377   39.7581 C   0  0  0  0  0  0  0  0  0  0  0  0
   32.5738   27.8437   40.8258 C   0  0  0  0  0  0  0  0  0  0  0  0
   33.8861   28.2400   40.9516 C   0  0  0  0  0  0  0  0  0  0  0  0
   34.5301   29.0978   40.1006 C   0  0  0  0  0  0  0  0  0  0  0  0
   37.3777   30.6468   39.4351 H   0  0  0  0  0  0  0  0  0  0  0  0
   36.0565   31.4698   37.6277 H   0  0  0  0  0  0  0  0  0  0  0  0
   33.7620   30.8364   37.3200 H   0  0  0  0  0  0  0  0  0  0  0  0
   31.8848   29.6097   38.0436 H   0  0  0  0  0  0  0  0  0  0  0  0
   30.7820   28.1032   39.5521 H   0  0  0  0  0  0  0  0  0  0  0  0
   32.0569   27.1673   41.4920 H   0  0  0  0  0  0  0  0  0  0  0  0
   34.3512   27.7991   41.7998 H   0  0  0  0  0  0  0  0  0  0  0  0
  2  1  2  0
  3  2  1  0
  4  5  1  0
  4  3  2  0
  5  6  2  0
  6  1  1  0
  7  3  1  0
  7 10  1  0
  7  9  1  0
  8  7  1  0
  1 11  1  0
  2 12  1  0
 13 14  2  0
 14 15  1  0
 15 16  2  0
 16 17  1  0
 17 18  2  0
 18 19  1  0
 19 20  2  0
 20 21  1  0
 21 22  2  0
 22 13  1  0
 22 17  1  0
 14 23  1  0
 15 24  1  0
 16 25  1  0
 18 26  1  0
 19 27  1  0
 20 28  1  0
 21 29  1  0
  5 13  1  0
M  ISO  2  11  14  12  14
M  END
>  <DihAtoms>  (1) 
3,4,12,13

>  <DihDeg>  (1) 
1.3277395588830718

$$$$
