
     RDKit          3D

 29 31  0  0  0  0  0  0  0  0999 V2000
   37.9547   28.8852   43.3625 C   0  0  0  0  0  0  0  0  0  0  0  0
   38.0843   27.4702   43.3125 C   0  0  0  0  0  0  0  0  0  0  0  0
   37.4541   26.8172   42.2662 C   0  0  0  0  0  0  0  0  0  0  0  0
   36.7696   27.5941   41.3836 N   0  0  0  0  0  0  0  0  0  0  0  0
   36.6508   28.9201   41.4342 C   0  0  0  0  0  0  0  0  0  0  0  0
   37.2582   29.5317   42.4403 N   0  0  0  0  0  0  0  0  0  0  0  0
   37.5325   25.3358   42.1400 C   0  0  0  0  0  0  0  0  0  0  0  0
   37.6324   25.0460   40.8069 F   0  0  0  0  0  0  0  0  0  0  0  0
   38.6330   24.8360   42.7916 F   0  0  0  0  0  0  0  0  0  0  0  0
   36.3764   24.7186   42.6351 F   0  0  0  0  0  0  0  0  0  0  0  0
   38.4194   29.4528   44.1488 H   0  0  0  0  0  0  0  0  0  0  0  0
   38.6460   26.9479   44.0559 H   0  0  0  0  0  0  0  0  0  0  0  0
   35.8451   29.4226   40.3290 C   0  0  0  0  0  0  0  0  0  0  0  0
   36.3935   30.0392   39.2342 C   0  0  0  0  0  0  0  0  0  0  0  0
   35.6732   30.5302   38.1681 C   0  0  0  0  0  0  0  0  0  0  0  0
   34.3117   30.4207   38.1506 C   0  0  0  0  0  0  0  0  0  0  0  0
   33.6965   29.8111   39.2211 C   0  0  0  0  0  0  0  0  0  0  0  0
   32.3238   29.7083   39.1926 C   0  0  0  0  0  0  0  0  0  0  0  0
   31.6460   29.1109   40.2334 C   0  0  0  0  0  0  0  0  0  0  0  0
   32.4029   28.6212   41.3039 C   0  0  0  0  0  0  0  0  0  0  0  0
   33.7725   28.7564   41.2693 C   0  0  0  0  0  0  0  0  0  0  0  0
   34.4759   29.3436   40.2519 C   0  0  0  0  0  0  0  0  0  0  0  0
   37.4812   30.1792   39.1470 H   0  0  0  0  0  0  0  0  0  0  0  0
   36.1604   31.0030   37.3397 H   0  0  0  0  0  0  0  0  0  0  0  0
   33.7681   30.8126   37.3048 H   0  0  0  0  0  0  0  0  0  0  0  0
   31.7773   30.1006   38.3451 H   0  0  0  0  0  0  0  0  0  0  0  0
   30.5709   29.0654   40.1435 H   0  0  0  0  0  0  0  0  0  0  0  0
   31.8388   28.1594   42.1020 H   0  0  0  0  0  0  0  0  0  0  0  0
   34.2306   28.3482   42.1373 H   0  0  0  0  0  0  0  0  0  0  0  0
  2  1  2  0
  3  2  1  0
  4  5  1  0
  4  3  2  0
  5  6  2  0
  6  1  1  0
  7  3  1  0
  7 10  1  0
  7  9  1  0
  8  7  1  0
  1 11  1  0
  2 12  1  0
 13 14  2  0
 14 15  1  0
 15 16  2  0
 16 17  1  0
 17 18  2  0
 18 19  1  0
 19 20  2  0
 20 21  1  0
 21 22  2  0
 22 13  1  0
 22 17  1  0
 14 23  1  0
 15 24  1  0
 16 25  1  0
 18 26  1  0
 19 27  1  0
 20 28  1  0
 21 29  1  0
  5 13  1  0
M  ISO  2  11  14  12  14
M  END
>  <DihAtoms>  (1) 
3,4,12,13

>  <DihDeg>  (1) 
1.3277395588830718

$$$$
