
     RDKit          3D

 29 31  0  0  0  0  0  0  0  0999 V2000
   37.9547   28.8852   43.3625 C   0  0  0  0  0  0  0  0  0  0  0  0
   38.0843   27.4702   43.3125 C   0  0  0  0  0  0  0  0  0  0  0  0
   37.4541   26.8172   42.2662 C   0  0  0  0  0  0  0  0  0  0  0  0
   36.7696   27.5941   41.3836 N   0  0  0  0  0  0  0  0  0  0  0  0
   36.6508   28.9201   41.4342 C   0  0  0  0  0  0  0  0  0  0  0  0
   37.2582   29.5317   42.4403 N   0  0  0  0  0  0  0  0  0  0  0  0
   37.5325   25.3358   42.1400 C   0  0  0  0  0  0  0  0  0  0  0  0
   37.6324   25.0460   40.8069 F   0  0  0  0  0  0  0  0  0  0  0  0
   38.6330   24.8360   42.7916 F   0  0  0  0  0  0  0  0  0  0  0  0
   36.3764   24.7186   42.6351 F   0  0  0  0  0  0  0  0  0  0  0  0
   38.4194   29.4528   44.1488 H   0  0  0  0  0  0  0  0  0  0  0  0
   38.6460   26.9479   44.0559 H   0  0  0  0  0  0  0  0  0  0  0  0
   35.8451   29.4226   40.3290 C   0  0  0  0  0  0  0  0  0  0  0  0
   35.9928   28.9739   39.0419 C   0  0  0  0  0  0  0  0  0  0  0  0
   35.2563   29.4194   37.9670 C   0  0  0  0  0  0  0  0  0  0  0  0
   34.2970   30.3762   38.1411 C   0  0  0  0  0  0  0  0  0  0  0  0
   34.0973   30.8705   39.4107 C   0  0  0  0  0  0  0  0  0  0  0  0
   33.1288   31.8357   39.5730 C   0  0  0  0  0  0  0  0  0  0  0  0
   32.8799   32.3736   40.8172 C   0  0  0  0  0  0  0  0  0  0  0  0
   33.6434   31.9029   41.8916 C   0  0  0  0  0  0  0  0  0  0  0  0
   34.5958   30.9362   41.6601 C   0  0  0  0  0  0  0  0  0  0  0  0
   34.8676   30.3814   40.4382 C   0  0  0  0  0  0  0  0  0  0  0  0
   36.7373   28.2038   38.7912 H   0  0  0  0  0  0  0  0  0  0  0  0
   35.4187   29.0291   36.9829 H   0  0  0  0  0  0  0  0  0  0  0  0
   33.7322   30.7100   37.2843 H   0  0  0  0  0  0  0  0  0  0  0  0
   32.5615   32.1712   38.7149 H   0  0  0  0  0  0  0  0  0  0  0  0
   32.1068   33.1256   40.8698 H   0  0  0  0  0  0  0  0  0  0  0  0
   33.4215   32.3466   42.8521 H   0  0  0  0  0  0  0  0  0  0  0  0
   35.1070   30.6654   42.5520 H   0  0  0  0  0  0  0  0  0  0  0  0
  2  1  2  0
  3  2  1  0
  4  5  1  0
  4  3  2  0
  5  6  2  0
  6  1  1  0
  7  3  1  0
  7 10  1  0
  7  9  1  0
  8  7  1  0
  1 11  1  0
  2 12  1  0
 13 14  2  0
 14 15  1  0
 15 16  2  0
 16 17  1  0
 17 18  2  0
 18 19  1  0
 19 20  2  0
 20 21  1  0
 21 22  2  0
 22 13  1  0
 22 17  1  0
 14 23  1  0
 15 24  1  0
 16 25  1  0
 18 26  1  0
 19 27  1  0
 20 28  1  0
 21 29  1  0
  5 13  1  0
M  ISO  2  11  14  12  14
M  END
>  <DihAtoms>  (1) 
3,4,12,13

>  <DihDeg>  (1) 
1.3277395588830718

$$$$
