
     RDKit          3D

 29 31  0  0  0  0  0  0  0  0999 V2000
   37.9547   28.8852   43.3625 C   0  0  0  0  0  0  0  0  0  0  0  0
   38.0843   27.4702   43.3125 C   0  0  0  0  0  0  0  0  0  0  0  0
   37.4541   26.8172   42.2662 C   0  0  0  0  0  0  0  0  0  0  0  0
   36.7696   27.5941   41.3836 N   0  0  0  0  0  0  0  0  0  0  0  0
   36.6508   28.9201   41.4342 C   0  0  0  0  0  0  0  0  0  0  0  0
   37.2582   29.5317   42.4403 N   0  0  0  0  0  0  0  0  0  0  0  0
   37.5325   25.3358   42.1400 C   0  0  0  0  0  0  0  0  0  0  0  0
   37.6324   25.0460   40.8069 F   0  0  0  0  0  0  0  0  0  0  0  0
   38.6330   24.8360   42.7916 F   0  0  0  0  0  0  0  0  0  0  0  0
   36.3764   24.7186   42.6351 F   0  0  0  0  0  0  0  0  0  0  0  0
   38.4194   29.4528   44.1488 H   0  0  0  0  0  0  0  0  0  0  0  0
   38.6460   26.9479   44.0559 H   0  0  0  0  0  0  0  0  0  0  0  0
   35.8451   29.4226   40.3290 C   0  0  0  0  0  0  0  0  0  0  0  0
   35.5262   28.6564   39.2377 C   0  0  0  0  0  0  0  0  0  0  0  0
   34.7700   29.0878   38.1708 C   0  0  0  0  0  0  0  0  0  0  0  0
   34.2781   30.3621   38.1485 C   0  0  0  0  0  0  0  0  0  0  0  0
   34.5620   31.1854   39.2151 C   0  0  0  0  0  0  0  0  0  0  0  0
   34.0621   32.4678   39.1800 C   0  0  0  0  0  0  0  0  0  0  0  0
   34.3111   33.3434   40.2148 C   0  0  0  0  0  0  0  0  0  0  0  0
   35.0827   32.8786   41.2860 C   0  0  0  0  0  0  0  0  0  0  0  0
   35.5517   31.5846   41.2581 C   0  0  0  0  0  0  0  0  0  0  0  0
   35.3226   30.6903   40.2469 C   0  0  0  0  0  0  0  0  0  0  0  0
   35.8716   27.6152   39.1547 H   0  0  0  0  0  0  0  0  0  0  0  0
   34.5542   28.4403   37.3455 H   0  0  0  0  0  0  0  0  0  0  0  0
   33.6880   30.6782   37.3021 H   0  0  0  0  0  0  0  0  0  0  0  0
   33.4701   32.7863   38.3322 H   0  0  0  0  0  0  0  0  0  0  0  0
   33.8878   34.3323   40.1201 H   0  0  0  0  0  0  0  0  0  0  0  0
   35.2580   33.5917   42.0793 H   0  0  0  0  0  0  0  0  0  0  0  0
   36.1234   31.3541   42.1241 H   0  0  0  0  0  0  0  0  0  0  0  0
  2  1  2  0
  3  2  1  0
  4  5  1  0
  4  3  2  0
  5  6  2  0
  6  1  1  0
  7  3  1  0
  7 10  1  0
  7  9  1  0
  8  7  1  0
  1 11  1  0
  2 12  1  0
 13 14  2  0
 14 15  1  0
 15 16  2  0
 16 17  1  0
 17 18  2  0
 18 19  1  0
 19 20  2  0
 20 21  1  0
 21 22  2  0
 22 13  1  0
 22 17  1  0
 14 23  1  0
 15 24  1  0
 16 25  1  0
 18 26  1  0
 19 27  1  0
 20 28  1  0
 21 29  1  0
  5 13  1  0
M  ISO  2  11  14  12  14
M  END
>  <DihAtoms>  (1) 
3,4,12,13

>  <DihDeg>  (1) 
1.3277395588830718

$$$$
