
     RDKit          3D

 29 31  0  0  0  0  0  0  0  0999 V2000
   37.9547   28.8852   43.3625 C   0  0  0  0  0  0  0  0  0  0  0  0
   38.0843   27.4702   43.3125 C   0  0  0  0  0  0  0  0  0  0  0  0
   37.4541   26.8172   42.2662 C   0  0  0  0  0  0  0  0  0  0  0  0
   36.7696   27.5941   41.3836 N   0  0  0  0  0  0  0  0  0  0  0  0
   36.6508   28.9201   41.4342 C   0  0  0  0  0  0  0  0  0  0  0  0
   37.2582   29.5317   42.4403 N   0  0  0  0  0  0  0  0  0  0  0  0
   37.5325   25.3358   42.1400 C   0  0  0  0  0  0  0  0  0  0  0  0
   37.6324   25.0460   40.8069 F   0  0  0  0  0  0  0  0  0  0  0  0
   38.6330   24.8360   42.7916 F   0  0  0  0  0  0  0  0  0  0  0  0
   36.3764   24.7186   42.6351 F   0  0  0  0  0  0  0  0  0  0  0  0
   38.4194   29.4528   44.1488 H   0  0  0  0  0  0  0  0  0  0  0  0
   38.6460   26.9479   44.0559 H   0  0  0  0  0  0  0  0  0  0  0  0
   35.8451   29.4226   40.3290 C   0  0  0  0  0  0  0  0  0  0  0  0
   36.1768   29.2111   39.0156 C   0  0  0  0  0  0  0  0  0  0  0  0
   35.4480   29.6668   37.9398 C   0  0  0  0  0  0  0  0  0  0  0  0
   34.3042   30.3864   38.1405 C   0  0  0  0  0  0  0  0  0  0  0  0
   33.9138   30.6349   39.4373 C   0  0  0  0  0  0  0  0  0  0  0  0
   32.7604   31.3626   39.6265 C   0  0  0  0  0  0  0  0  0  0  0  0
   32.3150   31.6479   40.8992 C   0  0  0  0  0  0  0  0  0  0  0  0
   33.0753   31.1729   41.9739 C   0  0  0  0  0  0  0  0  0  0  0  0
   34.2186   30.4513   41.7146 C   0  0  0  0  0  0  0  0  0  0  0  0
   34.6881   30.1505   40.4641 C   0  0  0  0  0  0  0  0  0  0  0  0
   37.0787   28.6435   38.7423 H   0  0  0  0  0  0  0  0  0  0  0  0
   35.7595   29.4686   36.9344 H   0  0  0  0  0  0  0  0  0  0  0  0
   33.7493   30.7331   37.2823 H   0  0  0  0  0  0  0  0  0  0  0  0
   32.2027   31.7108   38.7671 H   0  0  0  0  0  0  0  0  0  0  0  0
   31.4036   32.2226   40.9718 H   0  0  0  0  0  0  0  0  0  0  0  0
   32.6966   31.4152   42.9570 H   0  0  0  0  0  0  0  0  0  0  0  0
   34.7058   30.1500   42.6101 H   0  0  0  0  0  0  0  0  0  0  0  0
  2  1  2  0
  3  2  1  0
  4  5  1  0
  4  3  2  0
  5  6  2  0
  6  1  1  0
  7  3  1  0
  7 10  1  0
  7  9  1  0
  8  7  1  0
  1 11  1  0
  2 12  1  0
 13 14  2  0
 14 15  1  0
 15 16  2  0
 16 17  1  0
 17 18  2  0
 18 19  1  0
 19 20  2  0
 20 21  1  0
 21 22  2  0
 22 13  1  0
 22 17  1  0
 14 23  1  0
 15 24  1  0
 16 25  1  0
 18 26  1  0
 19 27  1  0
 20 28  1  0
 21 29  1  0
  5 13  1  0
M  ISO  2  11  14  12  14
M  END
>  <DihAtoms>  (1) 
3,4,12,13

>  <DihDeg>  (1) 
1.3277395588830718

$$$$
