
     RDKit          3D

 37 41  0  0  0  0  0  0  0  0999 V2000
   40.6560   29.4380   41.9720 C   0  0  0  0  0  0  0  0  0  0  0  0
   39.5700   28.6110   42.3100 C   0  0  0  0  0  0  0  0  0  0  0  0
   38.2740   29.1220   42.1240 C   0  0  0  0  0  0  0  0  0  0  0  0
   38.1570   30.3930   41.6240 N   0  0  0  0  0  0  0  0  0  0  0  0
   39.2180   31.1510   41.3130 C   0  0  0  0  0  0  0  0  0  0  0  0
   40.4600   30.6770   41.4850 N   0  0  0  0  0  0  0  0  0  0  0  0
   38.8780   32.4460   40.8070 N   0  0  0  0  0  0  0  0  0  0  0  0
   37.6270   32.6870   40.3900 C   0  0  0  0  0  0  0  0  0  0  0  0
   37.5760   33.9860   39.9630 N   0  0  0  0  0  0  0  0  0  0  0  0
   38.7850   34.5630   40.1100 C   0  0  0  0  0  0  0  0  0  0  0  0
   39.4010   35.7680   39.8950 C   0  0  0  0  0  0  0  0  0  0  0  0
   40.6920   35.9800   40.1790 N   0  0  0  0  0  0  0  0  0  0  0  0
   41.4450   34.9860   40.6990 C   0  0  0  0  0  0  0  0  0  0  0  0
   40.8640   33.7950   40.9190 N   0  0  0  0  0  0  0  0  0  0  0  0
   39.5820   33.5820   40.6370 C   0  0  0  0  0  0  0  0  0  0  0  0
   42.8610   34.9680   41.0890 C   0  0  0  0  0  0  0  0  0  0  0  0
   43.8230   34.1770   40.4560 C   0  0  0  0  0  0  0  0  0  0  0  0
   45.1430   34.1490   40.8060 C   0  0  0  0  0  0  0  0  0  0  0  0
   45.6080   34.9270   41.8370 C   0  0  0  0  0  0  0  0  0  0  0  0
   44.7110   35.7290   42.5020 C   0  0  0  0  0  0  0  0  0  0  0  0
   45.1950   36.5030   43.5330 C   0  0  0  0  0  0  0  0  0  0  0  0
   44.3530   37.3290   44.2410 C   0  0  0  0  0  0  0  0  0  0  0  0
   43.0100   37.3520   43.8780 C   0  0  0  0  0  0  0  0  0  0  0  0
   42.5980   36.5540   42.8400 C   0  0  0  0  0  0  0  0  0  0  0  0
   43.3970   35.7160   42.1060 C   0  0  0  0  0  0  0  0  0  0  0  0
   41.6823   29.0661   42.1079 H   0  0  0  0  0  0  0  0  0  0  0  0
   39.7296   27.5976   42.7069 H   0  0  0  0  0  0  0  0  0  0  0  0
   37.3849   28.5232   42.3709 H   0  0  0  0  0  0  0  0  0  0  0  0
   36.7925   31.9703   40.3909 H   0  0  0  0  0  0  0  0  0  0  0  0
   38.8110   36.5944   39.4720 H   0  0  0  0  0  0  0  0  0  0  0  0
   43.4969   33.5364   39.6233 H   0  0  0  0  0  0  0  0  0  0  0  0
   45.8391   33.4977   40.2572 H   0  0  0  0  0  0  0  0  0  0  0  0
   46.6699   34.9092   42.1234 H   0  0  0  0  0  0  0  0  0  0  0  0
   46.2631   36.4605   43.7924 H   0  0  0  0  0  0  0  0  0  0  0  0
   44.7291   37.9508   45.0668 H   0  0  0  0  0  0  0  0  0  0  0  0
   42.2944   37.9953   44.4110 H   0  0  0  0  0  0  0  0  0  0  0  0
   41.5314   36.5901   42.5733 H   0  0  0  0  0  0  0  0  0  0  0  0
  1  2  2  0
  3  2  1  0
  4  3  2  0
  5  6  2  0
  5  4  1  0
  6  1  1  0
  7  5  1  0
  8  7  1  0
  9 10  1  0
  9  8  2  0
 10 15  2  0
 11 10  1  0
 11 12  2  0
 12 13  1  0
 13 14  2  0
 13 16  1  0
 15  7  1  0
 15 14  1  0
 16 25  2  0
 17 18  2  0
 17 16  1  0
 18 19  1  0
 19 20  2  0
 20 21  1  0
 21 22  2  0
 23 22  1  0
 24 23  2  0
 25 20  1  0
 25 24  1  0
  1 26  1  0
  2 27  1  0
  3 28  1  0
  8 29  1  0
 11 30  1  0
 17 31  1  0
 18 32  1  0
 19 33  1  0
 21 34  1  0
 22 35  1  0
 23 36  1  0
 24 37  1  0
M  END
>  <minimizedAffinity>  (1) 
-7.51466846

>  <minimizedRMSD>  (1) 
2.3153491

$$$$
