
     RDKit          3D

 39 41  0  0  1  0  0  0  0  0999 V2000
   36.8970   31.7050   40.5210 N   0  0  0  0  0  0  0  0  0  0  0  0
   37.2100   32.9200   39.8470 C   0  0  0  0  0  0  0  0  0  0  0  0
   38.5440   32.8540   39.0860 C   0  0  0  0  0  0  0  0  0  0  0  0
   39.5500   32.4570   40.1730 C   0  0  1  0  0  0  0  0  0  0  0  0
   39.2310   31.0190   40.5280 C   0  0  0  0  0  0  0  0  0  0  0  0
   37.9260   31.1020   41.3120 C   0  0  2  0  0  0  0  0  0  0  0  0
   37.4990   29.8150   41.8380 C   0  0  0  0  0  0  0  0  0  0  0  0
   38.2040   29.4270   42.9760 C   0  0  0  0  0  0  0  0  0  0  0  0
   37.9490   28.2320   43.6320 C   0  0  0  0  0  0  0  0  0  0  0  0
   36.9540   27.4040   43.1240 C   0  0  0  0  0  0  0  0  0  0  0  0
   36.2350   27.7720   41.9830 C   0  0  0  0  0  0  0  0  0  0  0  0
   36.5210   28.9650   41.3680 C   0  0  0  0  0  0  0  0  0  0  0  0
   40.8120   32.6340   39.7350 O   0  0  0  0  0  0  0  0  0  0  0  0
   41.4630   33.7850   39.3510 C   0  0  0  0  0  0  0  0  0  0  0  0
   41.7090   33.9590   38.1580 O   0  0  0  0  0  0  0  0  0  0  0  0
   41.8440   34.7720   40.3750 C   0  0  0  0  0  0  0  0  0  0  0  0
   40.9940   35.8300   40.5410 C   0  0  0  0  0  0  0  0  0  0  0  0
   41.2820   36.7410   41.5810 C   0  0  0  0  0  0  0  0  0  0  0  0
   42.3970   36.5010   42.3550 N   0  0  0  0  0  0  0  0  0  0  0  0
   43.1840   35.4340   42.1300 C   0  0  0  0  0  0  0  0  0  0  0  0
   42.9170   34.5370   41.1210 N   0  0  0  0  0  0  0  0  0  0  0  0
   44.6120   35.1790   43.1680 S   0  0  0  0  0  0  0  0  0  0  0  0
   36.6165   31.0192   39.8056 H   0  0  0  0  0  0  0  0  0  0  0  0
   36.4065   33.1403   39.1288 H   0  0  0  0  0  0  0  0  0  0  0  0
   37.3032   33.7068   40.6100 H   0  0  0  0  0  0  0  0  0  0  0  0
   38.5060   32.0971   38.2887 H   0  0  0  0  0  0  0  0  0  0  0  0
   38.8014   33.7989   38.5852 H   0  0  0  0  0  0  0  0  0  0  0  0
   39.4714   33.0855   41.0723 H   0  0  0  0  0  0  0  0  0  0  0  0
   39.1010   30.4134   39.6190 H   0  0  0  0  0  0  0  0  0  0  0  0
   40.0367   30.5411   41.1046 H   0  0  0  0  0  0  0  0  0  0  0  0
   38.1199   31.7429   42.1847 H   0  0  0  0  0  0  0  0  0  0  0  0
   38.9891   30.0909   43.3670 H   0  0  0  0  0  0  0  0  0  0  0  0
   38.5180   27.9471   44.5292 H   0  0  0  0  0  0  0  0  0  0  0  0
   36.7305   26.4504   43.6247 H   0  0  0  0  0  0  0  0  0  0  0  0
   35.4498   27.1135   41.5831 H   0  0  0  0  0  0  0  0  0  0  0  0
   35.9517   29.2520   40.4716 H   0  0  0  0  0  0  0  0  0  0  0  0
   40.1187   35.9665   39.8890 H   0  0  0  0  0  0  0  0  0  0  0  0
   40.6379   37.6131   41.7672 H   0  0  0  0  0  0  0  0  0  0  0  0
   44.2376   35.2458   44.4842 H   0  0  0  0  0  0  0  0  0  0  0  0
  1  6  1  0
  2  1  1  0
  3  2  1  0
  3  4  1  0
  4  5  1  0
  5  6  1  0
  6  7  1  0
  7  8  2  0
  8  9  1  0
 10  9  2  0
 11 10  1  0
 12  7  1  0
 12 11  2  0
 13  4  1  0
 14 13  1  0
 14 16  1  0
 15 14  2  0
 16 17  2  0
 16 21  1  0
 17 18  1  0
 18 19  2  0
 20 19  1  0
 20 22  1  0
 21 20  2  0
  1 23  1  0
  2 24  1  0
  2 25  1  0
  3 26  1  0
  3 27  1  0
  4 28  1  1
  5 29  1  0
  5 30  1  0
  6 31  1  1
  8 32  1  0
  9 33  1  0
 10 34  1  0
 11 35  1  0
 12 36  1  0
 17 37  1  0
 18 38  1  0
 22 39  1  0
M  ISO  8  23   5  24  13  25  13  26  13  27  13  28  13  29  13  30  13
M  ISO  8  31  13  32  14  33  14  34  14  35  14  36  14  37  14  38  14
M  ISO  1  39  11
M  END
>  <minimizedAffinity>  (1) 
-6.02982092

>  <minimizedRMSD>  (1) 
7.18618011

$$$$
