
     RDKit          3D

 27 29  0  0  1  0  0  0  0  0999 V2000
   36.3120   31.0320   40.8240 C   0  0  1  0  0  0  0  0  0  0  0  0
   37.2820   32.0860   40.3950 C   0  0  0  0  0  0  0  0  0  0  0  0
   36.8100   31.1710   39.3630 C   0  0  1  0  0  0  0  0  0  0  0  0
   38.5910   29.0780   42.9740 C   0  0  0  0  0  0  0  0  0  0  0  0
   37.9440   27.8180   43.0100 C   0  0  0  0  0  0  0  0  0  0  0  0
   36.7350   27.6570   42.2880 C   0  0  0  0  0  0  0  0  0  0  0  0
   36.2500   28.7130   41.5960 N   0  0  0  0  0  0  0  0  0  0  0  0
   36.8980   29.9060   41.5830 C   0  0  0  0  0  0  0  0  0  0  0  0
   38.0320   30.0770   42.2530 N   0  0  0  0  0  0  0  0  0  0  0  0
   37.5420   30.0040   38.8590 C   0  0  0  0  0  0  0  0  0  0  0  0
   38.8950   29.7590   38.9560 C   0  0  0  0  0  0  0  0  0  0  0  0
   39.5440   28.6550   38.4890 C   0  0  0  0  0  0  0  0  0  0  0  0
   38.8130   27.6730   37.8580 C   0  0  0  0  0  0  0  0  0  0  0  0
   37.4550   27.8490   37.7230 C   0  0  0  0  0  0  0  0  0  0  0  0
   36.8390   28.9820   38.2110 C   0  0  0  0  0  0  0  0  0  0  0  0
   35.3380   31.0083   41.3347 H   0  0  0  0  0  0  0  0  0  0  0  0
   36.9620   33.1382   40.3721 H   0  0  0  0  0  0  0  0  0  0  0  0
   38.2816   32.3835   40.7446 H   0  0  0  0  0  0  0  0  0  0  0  0
   36.4225   31.3700   38.3529 H   0  0  0  0  0  0  0  0  0  0  0  0
   39.5306   29.2410   43.5222 H   0  0  0  0  0  0  0  0  0  0  0  0
   38.3705   26.9832   43.5855 H   0  0  0  0  0  0  0  0  0  0  0  0
   36.2028   26.6943   42.2904 H   0  0  0  0  0  0  0  0  0  0  0  0
   39.5069   30.5243   39.4559 H   0  0  0  0  0  0  0  0  0  0  0  0
   40.6319   28.5503   38.6139 H   0  0  0  0  0  0  0  0  0  0  0  0
   39.3039   26.7681   37.4705 H   0  0  0  0  0  0  0  0  0  0  0  0
   36.8540   27.0771   37.2201 H   0  0  0  0  0  0  0  0  0  0  0  0
   35.7512   29.0868   38.0859 H   0  0  0  0  0  0  0  0  0  0  0  0
  1  8  1  0
  2  1  1  0
  3  2  1  0
  3  1  1  0
  4  5  2  0
  6  5  1  0
  7  6  2  0
  8  7  1  0
  8  9  2  0
  9  4  1  0
 10 11  2  0
 10  3  1  0
 12 11  1  0
 13 12  2  0
 14 13  1  0
 14 15  2  0
 15 10  1  0
  1 16  1  6
  2 17  1  0
  2 18  1  0
  3 19  1  6
  4 20  1  0
  5 21  1  0
  6 22  1  0
 11 23  1  0
 12 24  1  0
 13 25  1  0
 14 26  1  0
 15 27  1  0
M  ISO  8  16  13  17  13  18  13  19  13  20  14  21  14  22  14  23  14
M  ISO  4  24  14  25  14  26  14  27  14
M  END
>  <minimizedAffinity>  (1) 
-3.96956778

>  <minimizedRMSD>  (1) 
0.96269387

$$$$
