
     RDKit          3D

 23 24  0  0  0  0  0  0  0  0999 V2000
   37.9690   28.8857   43.3714 C   0  0  0  0  0  0  0  0  0  0  0  0
   38.0887   27.4750   43.3108 C   0  0  0  0  0  0  0  0  0  0  0  0
   37.4408   26.8157   42.2503 C   0  0  0  0  0  0  0  0  0  0  0  0
   36.7373   27.5819   41.3468 N   0  0  0  0  0  0  0  0  0  0  0  0
   36.6500   28.9143   41.4419 C   0  0  0  0  0  0  0  0  0  0  0  0
   37.2703   29.5422   42.4567 N   0  0  0  0  0  0  0  0  0  0  0  0
   37.5394   25.3364   42.1492 C   0  0  0  0  0  0  0  0  0  0  0  0
   37.6480   25.0517   40.8153 F   0  0  0  0  0  0  0  0  0  0  0  0
   38.6214   24.8339   42.7942 F   0  0  0  0  0  0  0  0  0  0  0  0
   36.3811   24.7181   42.6363 F   0  0  0  0  0  0  0  0  0  0  0  0
   38.4515   29.4400   44.1717 H   0  0  0  0  0  0  0  0  0  0  0  0
   38.6605   26.9430   44.0602 H   0  0  0  0  0  0  0  0  0  0  0  0
   35.8964   29.6968   40.4676 C   0  0  0  0  0  0  0  0  0  0  0  0
   34.8105   29.1646   39.8318 C   0  0  0  0  0  0  0  0  0  0  0  0
   34.0808   29.8883   38.9042 C   0  0  0  0  0  0  0  0  0  0  0  0
   33.2337   29.3913   38.4460 H   0  0  0  0  0  0  0  0  0  0  0  0
   34.4516   31.1771   38.6088 C   0  0  0  0  0  0  0  0  0  0  0  0
   35.5534   31.7298   39.2482 C   0  0  0  0  0  0  0  0  0  0  0  0
   35.8143   32.7509   38.9875 H   0  0  0  0  0  0  0  0  0  0  0  0
   36.2712   30.9913   40.1731 C   0  0  0  0  0  0  0  0  0  0  0  0
   34.5252   28.1624   40.0639 H   0  0  0  0  0  0  0  0  0  0  0  0
   33.8370   31.7038   37.8659 H   0  0  0  0  0  0  0  0  0  0  0  0
   37.1184   31.4638   40.6426 H   0  0  0  0  0  0  0  0  0  0  0  0
  2  1  2  0
  3  2  1  0
  4  5  1  0
  4  3  2  0
  5  6  2  0
  6  1  1  0
  7  3  1  0
  7 10  1  0
  7  9  1  0
  8  7  1  0
  1 11  1  0
  2 12  1  0
 13 14  2  0
 14 15  1  0
 15 16  1  0
 15 17  2  0
 17 18  1  0
 18 19  1  0
 18 20  2  0
 20 13  1  0
 14 21  1  0
 17 22  1  0
 20 23  1  0
  5 13  1  0
M  ISO  4  11  14  12  14  16  16  19  16
M  END
>  <DihAtoms>  (1) 
3,4,12,13

>  <DihDeg>  (1) 
-179.9992939922386

$$$$
