
     RDKit          3D

 36 39  0  0  0  0  0  0  0  0999 V2000
   38.5740   27.8790   41.5950 C   0  0  0  0  0  0  0  0  0  0  0  0
   38.8000   28.4350   42.8720 C   0  0  0  0  0  0  0  0  0  0  0  0
   39.0040   29.7840   43.1180 C   0  0  0  0  0  0  0  0  0  0  0  0
   38.9870   30.6500   42.0450 C   0  0  0  0  0  0  0  0  0  0  0  0
   38.7750   30.1770   40.7810 C   0  0  0  0  0  0  0  0  0  0  0  0
   38.7550   31.0500   39.7300 C   0  0  0  0  0  0  0  0  0  0  0  0
   38.5310   30.6170   38.4150 C   0  0  0  0  0  0  0  0  0  0  0  0
   38.3330   29.2380   38.2630 C   0  0  0  0  0  0  0  0  0  0  0  0
   38.3640   28.4100   39.3480 C   0  0  0  0  0  0  0  0  0  0  0  0
   38.5810   28.8290   40.6240 C   0  0  0  0  0  0  0  0  0  0  0  0
   38.3840   26.4680   41.5550 C   0  0  0  0  0  0  0  0  0  0  0  0
   39.2630   25.4450   41.1720 C   0  0  0  0  0  0  0  0  0  0  0  0
   38.9220   24.0980   41.2290 C   0  0  0  0  0  0  0  0  0  0  0  0
   37.6820   23.8260   41.6780 N   0  0  0  0  0  0  0  0  0  0  0  0
   36.8160   24.7710   42.0520 C   0  0  0  0  0  0  0  0  0  0  0  0
   37.1790   26.0540   41.9830 N   0  0  0  0  0  0  0  0  0  0  0  0
   38.9840   32.4700   39.8290 C   0  0  0  0  0  0  0  0  0  0  0  0
   40.2960   32.8800   39.5590 C   0  0  0  0  0  0  0  0  0  0  0  0
   40.7270   34.1880   39.6120 C   0  0  0  0  0  0  0  0  0  0  0  0
   39.8390   35.1850   39.9460 C   0  0  0  0  0  0  0  0  0  0  0  0
   38.5440   34.8020   40.2150 C   0  0  0  0  0  0  0  0  0  0  0  0
   38.1200   33.4890   40.1610 C   0  0  0  0  0  0  0  0  0  0  0  0
   38.8154   27.7501   43.7326 H   0  0  0  0  0  0  0  0  0  0  0  0
   39.1746   30.1531   44.1401 H   0  0  0  0  0  0  0  0  0  0  0  0
   39.1448   31.7264   42.2075 H   0  0  0  0  0  0  0  0  0  0  0  0
   38.5120   31.3115   37.5622 H   0  0  0  0  0  0  0  0  0  0  0  0
   38.1513   28.8196   37.2620 H   0  0  0  0  0  0  0  0  0  0  0  0
   38.2032   27.3349   39.1797 H   0  0  0  0  0  0  0  0  0  0  0  0
   40.2651   25.7196   40.8110 H   0  0  0  0  0  0  0  0  0  0  0  0
   39.6213   23.3046   40.9263 H   0  0  0  0  0  0  0  0  0  0  0  0
   35.8142   24.4954   42.4131 H   0  0  0  0  0  0  0  0  0  0  0  0
   41.0303   32.1075   39.2869 H   0  0  0  0  0  0  0  0  0  0  0  0
   41.7756   34.4339   39.3884 H   0  0  0  0  0  0  0  0  0  0  0  0
   40.1494   36.2391   39.9958 H   0  0  0  0  0  0  0  0  0  0  0  0
   37.8131   35.5783   40.4855 H   0  0  0  0  0  0  0  0  0  0  0  0
   37.0700   33.2523   40.3880 H   0  0  0  0  0  0  0  0  0  0  0  0
  1  2  2  0
  2  3  1  0
  4  3  2  0
  5  4  1  0
  6 17  1  0
  6  5  2  0
  7  6  1  0
  8  7  2  0
  8  9  1  0
  9 10  2  0
 10  5  1  0
 10  1  1  0
 11  1  1  0
 11 16  2  0
 12 13  2  0
 12 11  1  0
 13 14  1  0
 14 15  2  0
 16 15  1  0
 17 22  2  0
 18 19  2  0
 18 17  1  0
 19 20  1  0
 20 21  2  0
 22 21  1  0
  2 23  1  0
  3 24  1  0
  4 25  1  0
  7 26  1  0
  8 27  1  0
  9 28  1  0
 12 29  1  0
 13 30  1  0
 15 31  1  0
 18 32  1  0
 19 33  1  0
 20 34  1  0
 21 35  1  0
 22 36  1  0
M  ISO  8  23  14  24  14  25  14  26  14  27  14  28  14  29  14  30  14
M  ISO  6  31  14  32  14  33  14  34  14  35  14  36  14
M  END
>  <minimizedAffinity>  (1) 
-5.56352329

>  <minimizedRMSD>  (1) 
7.61646461

$$$$
