
     RDKit          3D

 14 14  0  0  0  0  0  0  0  0999 V2000
   38.6740   28.7790   43.1860 C   0  0  0  0  0  0  0  0  0  0  0  0
   38.1250   27.4820   43.4000 C   0  0  0  0  0  0  0  0  0  0  0  0
   36.9020   27.2190   42.7650 C   0  0  0  0  0  0  0  0  0  0  0  0
   36.3170   28.1750   42.0020 N   0  0  0  0  0  0  0  0  0  0  0  0
   36.8880   29.3930   41.8350 C   0  0  0  0  0  0  0  0  0  0  0  0
   38.0580   29.6930   42.4220 N   0  0  0  0  0  0  0  0  0  0  0  0
   36.0910   30.1730   41.0180 O   0  0  0  0  0  0  0  0  0  0  0  0
   36.6500   31.3350   40.4500 C   0  0  0  0  0  0  0  0  0  0  0  0
   39.6314   29.0385   43.6614 H   0  0  0  0  0  0  0  0  0  0  0  0
   38.6299   26.7314   44.0259 H   0  0  0  0  0  0  0  0  0  0  0  0
   36.4183   26.2385   42.8860 H   0  0  0  0  0  0  0  0  0  0  0  0
   36.9767   32.0141   41.2513 H   0  0  0  0  0  0  0  0  0  0  0  0
   37.5142   31.0597   39.8276 H   0  0  0  0  0  0  0  0  0  0  0  0
   35.8955   31.8384   39.8276 H   0  0  0  0  0  0  0  0  0  0  0  0
  1  2  2  0
  3  2  1  0
  4  3  2  0
  5  4  1  0
  5  6  2  0
  6  1  1  0
  7  5  1  0
  8  7  1  0
  1  9  1  0
  2 10  1  0
  3 11  1  0
  8 12  1  0
  8 13  1  0
  8 14  1  0
M  ISO  6   9  14  10  14  11  14  12   8  13   8  14   8
M  END
>  <minimizedAffinity>  (1) 
-2.77136612

>  <minimizedRMSD>  (1) 
0.505364776

$$$$
