
     RDKit          3D

 28 29  0  0  0  0  0  0  0  0999 V2000
   37.9744   28.8846   43.3768 C   0  0  0  0  0  0  0  0  0  0  0  0
   38.0829   27.4757   43.3016 C   0  0  0  0  0  0  0  0  0  0  0  0
   37.4428   26.8159   42.2553 C   0  0  0  0  0  0  0  0  0  0  0  0
   36.7350   27.5728   41.3454 N   0  0  0  0  0  0  0  0  0  0  0  0
   36.6551   28.9126   41.4509 C   0  0  0  0  0  0  0  0  0  0  0  0
   37.2668   29.5563   42.4530 N   0  0  0  0  0  0  0  0  0  0  0  0
   37.5325   25.3362   42.1408 C   0  0  0  0  0  0  0  0  0  0  0  0
   37.6550   25.0492   40.8055 F   0  0  0  0  0  0  0  0  0  0  0  0
   38.6202   24.8348   42.7998 F   0  0  0  0  0  0  0  0  0  0  0  0
   36.3812   24.7169   42.6440 F   0  0  0  0  0  0  0  0  0  0  0  0
   38.4624   29.4214   44.1799 H   0  0  0  0  0  0  0  0  0  0  0  0
   38.6539   26.9314   44.0466 H   0  0  0  0  0  0  0  0  0  0  0  0
   35.9311   29.6616   40.5159 N   0  0  0  0  0  0  0  0  0  0  0  0
   35.2243   29.1043   39.3895 C   0  0  0  0  0  0  0  0  0  0  0  0
   35.9374   29.6067   38.1595 C   0  0  0  0  0  0  0  0  0  0  0  0
   36.1416   31.0856   38.1429 C   0  0  0  0  0  0  0  0  0  0  0  0
   35.6081   31.4875   37.2541 H   0  0  0  0  0  0  0  0  0  0  0  0
   35.6535   31.8219   39.3424 C   0  0  0  0  0  0  0  0  0  0  0  0
   35.8555   31.1199   40.6473 C   0  0  0  0  0  0  0  0  0  0  0  0
   35.1938   28.0147   39.3471 H   0  0  0  0  0  0  0  0  0  0  0  0
   34.1681   29.4740   39.3392 H   0  0  0  0  0  0  0  0  0  0  0  0
   35.3716   29.2186   37.2855 H   0  0  0  0  0  0  0  0  0  0  0  0
   36.9150   29.0788   38.1136 H   0  0  0  0  0  0  0  0  0  0  0  0
   37.2191   31.3183   37.9797 H   0  0  0  0  0  0  0  0  0  0  0  0
   34.5911   32.1266   39.2269 H   0  0  0  0  0  0  0  0  0  0  0  0
   36.2036   32.7944   39.4012 H   0  0  0  0  0  0  0  0  0  0  0  0
   36.7356   31.4860   41.2158 H   0  0  0  0  0  0  0  0  0  0  0  0
   34.9659   31.2938   41.3121 H   0  0  0  0  0  0  0  0  0  0  0  0
  2  1  2  0
  3  2  1  0
  4  5  1  0
  4  3  2  0
  5  6  2  0
  6  1  1  0
  7  3  1  0
  7 10  1  0
  7  9  1  0
  8  7  1  0
  1 11  1  0
  2 12  1  0
 13 14  1  0
 14 15  1  0
 15 16  1  0
 16 17  1  0
 16 18  1  0
 18 19  1  0
 19 13  1  0
 14 20  1  0
 14 21  1  0
 15 22  1  0
 15 23  1  0
 16 24  1  0
 18 25  1  0
 18 26  1  0
 19 27  1  0
 19 28  1  0
  5 13  1  0
M  ISO  3  11  14  12  14  17  15
M  END
>  <DihAtoms>  (1) 
3,4,12,13

>  <DihDeg>  (1) 
-179.99036623504807

$$$$
