
     RDKit          3D

 28 29  0  0  0  0  0  0  0  0999 V2000
   37.9744   28.8846   43.3768 C   0  0  0  0  0  0  0  0  0  0  0  0
   38.0829   27.4757   43.3016 C   0  0  0  0  0  0  0  0  0  0  0  0
   37.4428   26.8159   42.2553 C   0  0  0  0  0  0  0  0  0  0  0  0
   36.7350   27.5728   41.3454 N   0  0  0  0  0  0  0  0  0  0  0  0
   36.6551   28.9126   41.4509 C   0  0  0  0  0  0  0  0  0  0  0  0
   37.2668   29.5563   42.4530 N   0  0  0  0  0  0  0  0  0  0  0  0
   37.5325   25.3362   42.1408 C   0  0  0  0  0  0  0  0  0  0  0  0
   37.6550   25.0492   40.8055 F   0  0  0  0  0  0  0  0  0  0  0  0
   38.6202   24.8348   42.7998 F   0  0  0  0  0  0  0  0  0  0  0  0
   36.3812   24.7169   42.6440 F   0  0  0  0  0  0  0  0  0  0  0  0
   38.4624   29.4214   44.1799 H   0  0  0  0  0  0  0  0  0  0  0  0
   38.6539   26.9314   44.0466 H   0  0  0  0  0  0  0  0  0  0  0  0
   35.9311   29.6616   40.5159 N   0  0  0  0  0  0  0  0  0  0  0  0
   36.2396   31.0180   40.1364 C   0  0  0  0  0  0  0  0  0  0  0  0
   35.0868   31.8596   40.6229 C   0  0  0  0  0  0  0  0  0  0  0  0
   33.7480   31.3471   40.2059 C   0  0  0  0  0  0  0  0  0  0  0  0
   33.2666   32.1337   39.5848 H   0  0  0  0  0  0  0  0  0  0  0  0
   33.7532   30.0817   39.4198 C   0  0  0  0  0  0  0  0  0  0  0  0
   34.7682   29.0700   39.8471 C   0  0  0  0  0  0  0  0  0  0  0  0
   37.1613   31.4243   40.5549 H   0  0  0  0  0  0  0  0  0  0  0  0
   36.2936   31.1346   39.0236 H   0  0  0  0  0  0  0  0  0  0  0  0
   35.2947   32.9006   40.2945 H   0  0  0  0  0  0  0  0  0  0  0  0
   35.1598   31.8989   41.7318 H   0  0  0  0  0  0  0  0  0  0  0  0
   33.0933   31.2244   41.0992 H   0  0  0  0  0  0  0  0  0  0  0  0
   33.8402   30.2813   38.3301 H   0  0  0  0  0  0  0  0  0  0  0  0
   32.7466   29.6043   39.5226 H   0  0  0  0  0  0  0  0  0  0  0  0
   34.3484   28.2618   40.4814 H   0  0  0  0  0  0  0  0  0  0  0  0
   35.1974   28.5593   38.9423 H   0  0  0  0  0  0  0  0  0  0  0  0
  2  1  2  0
  3  2  1  0
  4  5  1  0
  4  3  2  0
  5  6  2  0
  6  1  1  0
  7  3  1  0
  7 10  1  0
  7  9  1  0
  8  7  1  0
  1 11  1  0
  2 12  1  0
 13 14  1  0
 14 15  1  0
 15 16  1  0
 16 17  1  0
 16 18  1  0
 18 19  1  0
 19 13  1  0
 14 20  1  0
 14 21  1  0
 15 22  1  0
 15 23  1  0
 16 24  1  0
 18 25  1  0
 18 26  1  0
 19 27  1  0
 19 28  1  0
  5 13  1  0
M  ISO  3  11  14  12  14  17  15
M  END
>  <DihAtoms>  (1) 
3,4,12,13

>  <DihDeg>  (1) 
-179.99036623504807

$$$$
