
     RDKit          3D

 44 47  0  0  0  0  0  0  0  0999 V2000
   37.7400   28.2500   43.4600 C   0  0  0  0  0  0  0  0  0  0  0  0
   38.6170   27.0870   43.3490 C   0  0  0  0  0  0  0  0  0  0  0  0
   39.8300   26.9930   44.0420 C   0  0  0  0  0  0  0  0  0  0  0  0
   40.6300   25.8810   43.9150 C   0  0  0  0  0  0  0  0  0  0  0  0
   40.2260   24.8490   43.0900 C   0  0  0  0  0  0  0  0  0  0  0  0
   39.0340   24.9310   42.4020 C   0  0  0  0  0  0  0  0  0  0  0  0
   38.6230   23.8930   41.5740 C   0  0  0  0  0  0  0  0  0  0  0  0
   37.4420   23.9750   40.8960 C   0  0  0  0  0  0  0  0  0  0  0  0
   36.6100   25.0780   40.9990 C   0  0  0  0  0  0  0  0  0  0  0  0
   37.0520   26.1020   41.8390 C   0  0  0  0  0  0  0  0  0  0  0  0
   38.2280   26.0610   42.5370 C   0  0  0  0  0  0  0  0  0  0  0  0
   39.3680   30.0880   42.8470 C   0  0  0  0  0  0  0  0  0  0  0  0
   38.1550   29.4300   42.6680 C   0  0  0  0  0  0  0  0  0  0  0  0
   37.3200   29.9530   41.6770 C   0  0  0  0  0  0  0  0  0  0  0  0
   37.7280   31.0260   40.9820 N   0  0  0  0  0  0  0  0  0  0  0  0
   38.8960   31.6260   41.1840 C   0  0  0  0  0  0  0  0  0  0  0  0
   39.7340   31.1480   42.1360 N   0  0  0  0  0  0  0  0  0  0  0  0
   39.2480   32.7600   40.3990 N   0  0  0  0  0  0  0  0  0  0  0  0
   38.3000   33.8000   40.1650 C   0  0  0  0  0  0  0  0  0  0  0  0
   38.8520   35.1850   40.3340 C   0  0  0  0  0  0  0  0  0  0  0  0
   40.2690   35.3310   39.8570 C   0  0  0  0  0  0  0  0  0  0  0  0
   41.1490   34.1780   40.2270 C   0  0  0  0  0  0  0  0  0  0  0  0
   40.5910   32.8330   39.8450 C   0  0  0  0  0  0  0  0  0  0  0  0
   36.7354   27.9519   43.1256 H   0  0  0  0  0  0  0  0  0  0  0  0
   37.7776   28.5613   44.5144 H   0  0  0  0  0  0  0  0  0  0  0  0
   40.1472   27.8185   44.6961 H   0  0  0  0  0  0  0  0  0  0  0  0
   41.5808   25.8143   44.4642 H   0  0  0  0  0  0  0  0  0  0  0  0
   40.8594   23.9562   42.9814 H   0  0  0  0  0  0  0  0  0  0  0  0
   39.2545   22.9990   41.4646 H   0  0  0  0  0  0  0  0  0  0  0  0
   37.1409   23.1392   40.2473 H   0  0  0  0  0  0  0  0  0  0  0  0
   35.6580   25.1431   40.4517 H   0  0  0  0  0  0  0  0  0  0  0  0
   36.4174   26.9941   41.9459 H   0  0  0  0  0  0  0  0  0  0  0  0
   40.0583   29.7111   43.6161 H   0  0  0  0  0  0  0  0  0  0  0  0
   36.3430   29.4921   41.4697 H   0  0  0  0  0  0  0  0  0  0  0  0
   37.4665   33.6723   40.8713 H   0  0  0  0  0  0  0  0  0  0  0  0
   37.9860   33.7109   39.1145 H   0  0  0  0  0  0  0  0  0  0  0  0
   38.2201   35.8828   39.7650 H   0  0  0  0  0  0  0  0  0  0  0  0
   38.8510   35.4029   41.4122 H   0  0  0  0  0  0  0  0  0  0  0  0
   40.6915   36.2460   40.2977 H   0  0  0  0  0  0  0  0  0  0  0  0
   40.2363   35.3715   38.7582 H   0  0  0  0  0  0  0  0  0  0  0  0
   42.1177   34.3065   39.7219 H   0  0  0  0  0  0  0  0  0  0  0  0
   41.2380   34.1853   41.3234 H   0  0  0  0  0  0  0  0  0  0  0  0
   40.5543   32.7359   38.7499 H   0  0  0  0  0  0  0  0  0  0  0  0
   41.2220   32.0201   40.2336 H   0  0  0  0  0  0  0  0  0  0  0  0
  2  1  1  0
  2  3  2  0
  4  3  1  0
  5  4  2  0
  6 11  2  0
  6  5  1  0
  7  6  1  0
  8  9  1  0
  8  7  2  0
  9 10  2  0
 10 11  1  0
 11  2  1  0
 13 12  2  0
 13  1  1  0
 14 13  1  0
 15 16  1  0
 15 14  2  0
 16 17  2  0
 17 12  1  0
 18 16  1  0
 19 20  1  0
 19 18  1  0
 21 22  1  0
 21 20  1  0
 23 22  1  0
 23 18  1  0
  1 24  1  0
  1 25  1  0
  3 26  1  0
  4 27  1  0
  5 28  1  0
  7 29  1  0
  8 30  1  0
  9 31  1  0
 10 32  1  0
 12 33  1  0
 14 34  1  0
 19 35  1  0
 19 36  1  0
 20 37  1  0
 20 38  1  0
 21 39  1  0
 21 40  1  0
 22 41  1  0
 22 42  1  0
 23 43  1  0
 23 44  1  0
M  END
>  <minimizedAffinity>  (1) 
-7.32081985

>  <minimizedRMSD>  (1) 
0.771369457

$$$$
