
     RDKit          3D

 45 48  0  0  1  0  0  0  0  0999 V2000
   37.9710   30.6350   39.2150 N   0  0  0  0  0  0  0  0  0  0  0  0
   38.1300   29.7260   38.0450 C   0  0  0  0  0  0  0  0  0  0  0  0
   39.5790   29.4640   37.7620 C   0  0  0  0  0  0  0  0  0  0  0  0
   40.3280   30.6250   37.8530 O   0  0  0  0  0  0  0  0  0  0  0  0
   39.4740   31.6930   37.6270 C   0  0  0  0  0  0  0  0  0  0  0  0
   38.4970   31.8720   38.8010 C   0  0  2  0  0  0  0  0  0  0  0  0
   36.1240   29.5920   40.7040 C   0  0  1  0  0  0  0  0  0  0  0  0
   36.0920   31.0550   40.9270 C   0  0  0  0  0  0  0  0  0  0  0  0
   36.6170   30.5930   39.6380 C   0  0  1  0  0  0  0  0  0  0  0  0
   38.6430   28.7400   43.2440 C   0  0  0  0  0  0  0  0  0  0  0  0
   39.0520   27.4490   42.8620 C   0  0  0  0  0  0  0  0  0  0  0  0
   38.4520   26.8960   41.7150 C   0  0  0  0  0  0  0  0  0  0  0  0
   37.5050   27.6300   41.0260 N   0  0  0  0  0  0  0  0  0  0  0  0
   37.1700   28.8600   41.4600 C   0  0  0  0  0  0  0  0  0  0  0  0
   37.7220   29.4280   42.5550 N   0  0  0  0  0  0  0  0  0  0  0  0
   39.2200   32.6840   39.7270 N   0  0  0  0  0  0  0  0  0  0  0  0
   38.4010   33.6670   40.3820 C   0  0  0  0  0  0  0  0  0  0  0  0
   38.7940   35.0840   40.2890 C   0  0  0  0  0  0  0  0  0  0  0  0
   40.2630   35.3800   40.2240 C   0  0  0  0  0  0  0  0  0  0  0  0
   41.0380   34.0860   40.3670 C   0  0  0  0  0  0  0  0  0  0  0  0
   40.4750   33.1800   39.2780 C   0  0  0  0  0  0  0  0  0  0  0  0
   37.6270   28.7716   38.2598 H   0  0  0  0  0  0  0  0  0  0  0  0
   37.6819   30.2075   37.1633 H   0  0  0  0  0  0  0  0  0  0  0  0
   39.6770   29.0532   36.7463 H   0  0  0  0  0  0  0  0  0  0  0  0
   39.9547   28.7494   38.5091 H   0  0  0  0  0  0  0  0  0  0  0  0
   40.0685   32.6111   37.5100 H   0  0  0  0  0  0  0  0  0  0  0  0
   38.8938   31.4922   36.7143 H   0  0  0  0  0  0  0  0  0  0  0  0
   37.5553   32.3962   38.5810 H   0  0  0  0  0  0  0  0  0  0  0  0
   35.3989   28.7651   40.7261 H   0  0  0  0  0  0  0  0  0  0  0  0
   35.1238   31.5760   40.9615 H   0  0  0  0  0  0  0  0  0  0  0  0
   36.4878   31.7110   41.7163 H   0  0  0  0  0  0  0  0  0  0  0  0
   36.3893   30.8432   38.5913 H   0  0  0  0  0  0  0  0  0  0  0  0
   39.0934   29.1991   44.1364 H   0  0  0  0  0  0  0  0  0  0  0  0
   39.8093   26.8948   43.4360 H   0  0  0  0  0  0  0  0  0  0  0  0
   38.7339   25.8901   41.3706 H   0  0  0  0  0  0  0  0  0  0  0  0
   37.3897   33.5819   39.9578 H   0  0  0  0  0  0  0  0  0  0  0  0
   38.4990   33.4299   41.4517 H   0  0  0  0  0  0  0  0  0  0  0  0
   38.3315   35.4978   39.3807 H   0  0  0  0  0  0  0  0  0  0  0  0
   38.4524   35.5378   41.2310 H   0  0  0  0  0  0  0  0  0  0  0  0
   40.5019   35.8472   39.2572 H   0  0  0  0  0  0  0  0  0  0  0  0
   40.5381   36.0677   41.0373 H   0  0  0  0  0  0  0  0  0  0  0  0
   42.1134   34.2579   40.2119 H   0  0  0  0  0  0  0  0  0  0  0  0
   40.9358   33.6465   41.3702 H   0  0  0  0  0  0  0  0  0  0  0  0
   41.1642   32.3423   39.0955 H   0  0  0  0  0  0  0  0  0  0  0  0
   40.3518   33.7403   38.3394 H   0  0  0  0  0  0  0  0  0  0  0  0
  1  2  1  0
  1  9  1  0
  3  4  1  0
  3  2  1  0
  5  4  1  0
  5  6  1  0
  6  1  1  0
  6 16  1  0
  7  8  1  0
  7 14  1  0
  9  7  1  0
  9  8  1  0
 11 10  2  0
 12 11  1  0
 13 14  1  0
 13 12  2  0
 14 15  2  0
 15 10  1  0
 16 17  1  0
 18 17  1  0
 19 18  1  0
 19 20  1  0
 21 16  1  0
 21 20  1  0
  2 22  1  0
  2 23  1  0
  3 24  1  0
  3 25  1  0
  5 26  1  0
  5 27  1  0
  6 28  1  6
  7 29  1  6
  8 30  1  0
  8 31  1  0
  9 32  1  6
 10 33  1  0
 11 34  1  0
 12 35  1  0
 17 36  1  0
 17 37  1  0
 18 38  1  0
 18 39  1  0
 19 40  1  0
 19 41  1  0
 20 42  1  0
 20 43  1  0
 21 44  1  0
 21 45  1  0
M  ISO  8  22  13  23  13  24  13  25  13  26  13  27  13  28  13  29  13
M  ISO  8  30  13  31  13  32  13  33  14  34  14  35  14  36  13  37  13
M  ISO  8  38  13  39  13  40  13  41  13  42  13  43  13  44  13  45  13
M  END
>  <minimizedAffinity>  (1) 
-5.25386143

>  <minimizedRMSD>  (1) 
2.49545884

$$$$
