
     RDKit          3D

 28 29  0  0  0  0  0  0  0  0999 V2000
   37.9744   28.8846   43.3768 C   0  0  0  0  0  0  0  0  0  0  0  0
   38.0829   27.4757   43.3016 C   0  0  0  0  0  0  0  0  0  0  0  0
   37.4428   26.8159   42.2553 C   0  0  0  0  0  0  0  0  0  0  0  0
   36.7350   27.5728   41.3454 N   0  0  0  0  0  0  0  0  0  0  0  0
   36.6551   28.9126   41.4509 C   0  0  0  0  0  0  0  0  0  0  0  0
   37.2668   29.5563   42.4530 N   0  0  0  0  0  0  0  0  0  0  0  0
   37.5325   25.3362   42.1408 C   0  0  0  0  0  0  0  0  0  0  0  0
   37.6550   25.0492   40.8055 F   0  0  0  0  0  0  0  0  0  0  0  0
   38.6202   24.8348   42.7998 F   0  0  0  0  0  0  0  0  0  0  0  0
   36.3812   24.7169   42.6440 F   0  0  0  0  0  0  0  0  0  0  0  0
   38.4624   29.4214   44.1799 H   0  0  0  0  0  0  0  0  0  0  0  0
   38.6539   26.9314   44.0466 H   0  0  0  0  0  0  0  0  0  0  0  0
   35.9311   29.6616   40.5159 N   0  0  0  0  0  0  0  0  0  0  0  0
   36.5221   30.4647   39.4744 C   0  0  0  0  0  0  0  0  0  0  0  0
   36.1792   31.8953   39.8056 C   0  0  0  0  0  0  0  0  0  0  0  0
   34.7271   32.1219   40.0684 C   0  0  0  0  0  0  0  0  0  0  0  0
   34.3590   32.8484   39.3114 H   0  0  0  0  0  0  0  0  0  0  0  0
   33.8591   30.9129   40.0036 C   0  0  0  0  0  0  0  0  0  0  0  0
   34.4655   29.6626   40.5562 C   0  0  0  0  0  0  0  0  0  0  0  0
   37.6057   30.3852   39.3784 H   0  0  0  0  0  0  0  0  0  0  0  0
   36.0766   30.2365   38.4723 H   0  0  0  0  0  0  0  0  0  0  0  0
   36.5924   32.5179   38.9832 H   0  0  0  0  0  0  0  0  0  0  0  0
   36.7837   32.1755   40.6959 H   0  0  0  0  0  0  0  0  0  0  0  0
   34.5933   32.6204   41.0560 H   0  0  0  0  0  0  0  0  0  0  0  0
   33.4831   30.7382   38.9727 H   0  0  0  0  0  0  0  0  0  0  0  0
   32.9310   31.1192   40.5933 H   0  0  0  0  0  0  0  0  0  0  0  0
   34.1237   29.4212   41.5841 H   0  0  0  0  0  0  0  0  0  0  0  0
   34.1689   28.7849   39.9195 H   0  0  0  0  0  0  0  0  0  0  0  0
  2  1  2  0
  3  2  1  0
  4  5  1  0
  4  3  2  0
  5  6  2  0
  6  1  1  0
  7  3  1  0
  7 10  1  0
  7  9  1  0
  8  7  1  0
  1 11  1  0
  2 12  1  0
 13 14  1  0
 14 15  1  0
 15 16  1  0
 16 17  1  0
 16 18  1  0
 18 19  1  0
 19 13  1  0
 14 20  1  0
 14 21  1  0
 15 22  1  0
 15 23  1  0
 16 24  1  0
 18 25  1  0
 18 26  1  0
 19 27  1  0
 19 28  1  0
  5 13  1  0
M  ISO  3  11  14  12  14  17  15
M  END
>  <DihAtoms>  (1) 
3,4,12,13

>  <DihDeg>  (1) 
-179.99036623504807

$$$$
