
     RDKit          3D

 42 45  0  0  0  0  0  0  0  0999 V2000
   37.4160   28.0810   43.1150 C   0  0  0  0  0  0  0  0  0  0  0  0
   38.3470   26.9510   43.1010 C   0  0  0  0  0  0  0  0  0  0  0  0
   39.4850   26.9000   43.9170 C   0  0  0  0  0  0  0  0  0  0  0  0
   40.3340   25.8230   43.8740 C   0  0  0  0  0  0  0  0  0  0  0  0
   40.0550   24.7780   43.0100 C   0  0  0  0  0  0  0  0  0  0  0  0
   38.9410   24.8130   42.2030 C   0  0  0  0  0  0  0  0  0  0  0  0
   38.6480   23.7710   41.3340 C   0  0  0  0  0  0  0  0  0  0  0  0
   37.5520   23.8030   40.5410 C   0  0  0  0  0  0  0  0  0  0  0  0
   36.6700   24.8750   40.5570 C   0  0  0  0  0  0  0  0  0  0  0  0
   36.9890   25.9070   41.4370 C   0  0  0  0  0  0  0  0  0  0  0  0
   38.0850   25.9110   42.2540 C   0  0  0  0  0  0  0  0  0  0  0  0
   39.1810   29.8660   42.8640 C   0  0  0  0  0  0  0  0  0  0  0  0
   37.9340   29.3320   42.5260 C   0  0  0  0  0  0  0  0  0  0  0  0
   37.1760   30.0530   41.5850 C   0  0  0  0  0  0  0  0  0  0  0  0
   37.6970   31.1890   41.0820 N   0  0  0  0  0  0  0  0  0  0  0  0
   38.8890   31.6600   41.4330 C   0  0  0  0  0  0  0  0  0  0  0  0
   39.6490   31.0010   42.3330 N   0  0  0  0  0  0  0  0  0  0  0  0
   39.3420   32.8710   40.8400 N   0  0  0  0  0  0  0  0  0  0  0  0
   40.7730   33.0540   40.6640 C   0  0  0  0  0  0  0  0  0  0  0  0
   41.1030   34.3810   40.0620 C   0  0  0  0  0  0  0  0  0  0  0  0
   40.2440   35.3190   40.6120 O   0  0  0  0  0  0  0  0  0  0  0  0
   38.9990   35.1460   40.0140 C   0  0  0  0  0  0  0  0  0  0  0  0
   38.3570   33.8740   40.4340 C   0  0  0  0  0  0  0  0  0  0  0  0
   36.5169   27.7876   42.5533 H   0  0  0  0  0  0  0  0  0  0  0  0
   37.2208   28.3015   44.1748 H   0  0  0  0  0  0  0  0  0  0  0  0
   39.7005   27.7342   44.6009 H   0  0  0  0  0  0  0  0  0  0  0  0
   41.2252   25.7903   44.5180 H   0  0  0  0  0  0  0  0  0  0  0  0
   40.7306   23.9109   42.9682 H   0  0  0  0  0  0  0  0  0  0  0  0
   39.3204   22.9016   41.2891 H   0  0  0  0  0  0  0  0  0  0  0  0
   37.3547   22.9573   39.8659 H   0  0  0  0  0  0  0  0  0  0  0  0
   35.7766   24.9075   39.9160 H   0  0  0  0  0  0  0  0  0  0  0  0
   36.3149   26.7753   41.4770 H   0  0  0  0  0  0  0  0  0  0  0  0
   39.8029   29.3308   43.5967 H   0  0  0  0  0  0  0  0  0  0  0  0
   36.1840   29.6984   41.2684 H   0  0  0  0  0  0  0  0  0  0  0  0
   41.2630   32.9789   41.6459 H   0  0  0  0  0  0  0  0  0  0  0  0
   41.1310   32.2733   39.9768 H   0  0  0  0  0  0  0  0  0  0  0  0
   40.9661   34.3419   38.9712 H   0  0  0  0  0  0  0  0  0  0  0  0
   42.1495   34.6486   40.2699 H   0  0  0  0  0  0  0  0  0  0  0  0
   39.1270   35.1364   38.9215 H   0  0  0  0  0  0  0  0  0  0  0  0
   38.3502   35.9766   40.3289 H   0  0  0  0  0  0  0  0  0  0  0  0
   37.6870   34.0775   41.2823 H   0  0  0  0  0  0  0  0  0  0  0  0
   37.7997   33.4744   39.5739 H   0  0  0  0  0  0  0  0  0  0  0  0
  2  1  1  0
  2  3  2  0
  4  3  1  0
  5  4  2  0
  6 11  2  0
  6  5  1  0
  7  6  1  0
  8  9  1  0
  8  7  2  0
  9 10  2  0
 10 11  1  0
 11  2  1  0
 13 12  2  0
 13  1  1  0
 14 13  1  0
 15 16  1  0
 15 14  2  0
 16 17  2  0
 17 12  1  0
 18 16  1  0
 19 18  1  0
 20 21  1  0
 20 19  1  0
 22 23  1  0
 22 21  1  0
 23 18  1  0
  1 24  1  0
  1 25  1  0
  3 26  1  0
  4 27  1  0
  5 28  1  0
  7 29  1  0
  8 30  1  0
  9 31  1  0
 10 32  1  0
 12 33  1  0
 14 34  1  0
 19 35  1  0
 19 36  1  0
 20 37  1  0
 20 38  1  0
 22 39  1  0
 22 40  1  0
 23 41  1  0
 23 42  1  0
M  END
>  <minimizedAffinity>  (1) 
-7.09652948

>  <minimizedRMSD>  (1) 
1.10704494

$$$$
