
     RDKit          3D

 49 54  0  0  1  0  0  0  0  0999 V2000
   35.9080   30.4990   40.8540 C   0  0  0  0  0  0  0  0  0  0  0  0
   36.4530   29.3590   41.4750 C   0  0  0  0  0  0  0  0  0  0  0  0
   37.8240   29.2410   41.5780 C   0  0  0  0  0  0  0  0  0  0  0  0
   38.5510   30.2640   41.0580 N   0  0  0  0  0  0  0  0  0  0  0  0
   38.0300   31.3550   40.4650 C   0  0  0  0  0  0  0  0  0  0  0  0
   36.6950   31.4640   40.3660 N   0  0  0  0  0  0  0  0  0  0  0  0
   38.3830   28.0740   42.1910 C   0  0  0  0  0  0  0  0  0  0  0  0
   39.3550   28.0180   43.1820 C   0  0  0  0  0  0  0  0  0  0  0  0
   39.6020   26.7240   43.4900 N   0  0  0  0  0  0  0  0  0  0  0  0
   38.8350   25.9130   42.7420 C   0  0  0  0  0  0  0  0  0  0  0  0
   38.6860   24.5450   42.6510 C   0  0  0  0  0  0  0  0  0  0  0  0
   37.7730   23.9640   41.7480 C   0  0  0  0  0  0  0  0  0  0  0  0
   37.0390   24.8290   40.9600 C   0  0  0  0  0  0  0  0  0  0  0  0
   37.1960   26.1830   41.0600 C   0  0  0  0  0  0  0  0  0  0  0  0
   38.0840   26.7480   41.9400 C   0  0  0  0  0  0  0  0  0  0  0  0
   38.9330   32.4420   39.9520 C   0  0  1  0  0  0  0  0  0  0  0  0
   38.9470   33.7520   40.7640 C   0  0  0  0  0  0  0  0  0  0  0  0
   40.1040   32.8250   40.7730 C   0  0  2  0  0  0  0  0  0  0  0  0
   41.3920   33.1740   40.1260 C   0  0  0  0  0  0  0  0  0  0  0  0
   41.9310   34.4090   40.0190 N   0  0  0  0  0  0  0  0  0  0  0  0
   43.0660   34.3280   39.3790 O   0  0  0  0  0  0  0  0  0  0  0  0
   43.3040   33.0660   39.0520 C   0  0  0  0  0  0  0  0  0  0  0  0
   42.2470   32.3400   39.5240 N   0  0  0  0  0  0  0  0  0  0  0  0
   44.2980   32.2960   38.3830 N   0  0  0  0  0  0  0  0  0  0  0  0
   45.5580   31.8490   38.9470 C   0  0  0  0  0  0  0  0  0  0  0  0
   46.2440   30.9970   37.8970 C   0  0  0  0  0  0  0  0  0  0  0  0
   45.4190   29.9520   37.4960 O   0  0  0  0  0  0  0  0  0  0  0  0
   44.1930   30.3690   37.0180 C   0  0  0  0  0  0  0  0  0  0  0  0
   44.0910   31.8860   36.9920 C   0  0  0  0  0  0  0  0  0  0  0  0
   34.8158   30.5977   40.7687 H   0  0  0  0  0  0  0  0  0  0  0  0
   35.7946   28.5727   41.8728 H   0  0  0  0  0  0  0  0  0  0  0  0
   39.8459   28.8877   43.6431 H   0  0  0  0  0  0  0  0  0  0  0  0
   40.2807   26.4061   44.1966 H   0  0  0  0  0  0  0  0  0  0  0  0
   39.2927   23.8934   43.2970 H   0  0  0  0  0  0  0  0  0  0  0  0
   37.6508   22.8733   41.6743 H   0  0  0  0  0  0  0  0  0  0  0  0
   36.3152   24.4209   40.2392 H   0  0  0  0  0  0  0  0  0  0  0  0
   36.5924   26.8392   40.4158 H   0  0  0  0  0  0  0  0  0  0  0  0
   38.7856   32.1568   38.8999 H   0  0  0  0  0  0  0  0  0  0  0  0
   39.0182   34.7217   40.2496 H   0  0  0  0  0  0  0  0  0  0  0  0
   38.3012   34.2105   41.5274 H   0  0  0  0  0  0  0  0  0  0  0  0
   40.6724   32.3382   41.5792 H   0  0  0  0  0  0  0  0  0  0  0  0
   46.1868   32.7159   39.1982 H   0  0  0  0  0  0  0  0  0  0  0  0
   45.3898   31.2719   39.8682 H   0  0  0  0  0  0  0  0  0  0  0  0
   46.4840   31.6227   37.0247 H   0  0  0  0  0  0  0  0  0  0  0  0
   47.1636   30.5756   38.3291 H   0  0  0  0  0  0  0  0  0  0  0  0
   44.0581   29.9842   35.9964 H   0  0  0  0  0  0  0  0  0  0  0  0
   43.4116   29.9822   37.6887 H   0  0  0  0  0  0  0  0  0  0  0  0
   44.8667   32.3159   36.3412 H   0  0  0  0  0  0  0  0  0  0  0  0
   43.1250   32.2316   36.5954 H   0  0  0  0  0  0  0  0  0  0  0  0
  1  2  2  0
  2  3  1  0
  3  7  1  0
  4  3  2  0
  5  4  1  0
  6  5  2  0
  6  1  1  0
  7  8  2  0
  8  9  1  0
 10  9  1  0
 11 10  2  0
 12 11  1  0
 13 14  1  0
 13 12  2  0
 14 15  2  0
 15  7  1  0
 15 10  1  0
 16  5  1  0
 16 17  1  0
 16 18  1  0
 17 18  1  0
 19 18  1  0
 20 19  2  0
 21 20  1  0
 22 21  1  0
 22 23  2  0
 23 19  1  0
 24 25  1  0
 24 22  1  0
 26 25  1  0
 27 26  1  0
 28 27  1  0
 29 28  1  0
 29 24  1  0
  1 30  1  0
  2 31  1  0
  8 32  1  0
  9 33  1  0
 11 34  1  0
 12 35  1  0
 13 36  1  0
 14 37  1  0
 16 38  1  6
 17 39  1  0
 17 40  1  0
 18 41  1  1
 25 42  1  0
 25 43  1  0
 26 44  1  0
 26 45  1  0
 28 46  1  0
 28 47  1  0
 29 48  1  0
 29 49  1  0
M  ISO  8  30  14  31  14  32  14  33   9  34  14  35  14  36  14  37  14
M  ISO  8  38  13  39  13  40  13  41  13  42  13  43  13  44  13  45  13
M  ISO  4  46  13  47  13  48  13  49  13
M  END
>  <minimizedAffinity>  (1) 
-6.36757803

>  <minimizedRMSD>  (1) 
1.74264908

$$$$
