
     RDKit          3D

 26 27  0  0  0  0  0  0  0  0999 V2000
   37.9703   28.8829   43.3693 C   0  0  0  0  0  0  0  0  0  0  0  0
   38.0822   27.4711   43.3066 C   0  0  0  0  0  0  0  0  0  0  0  0
   37.4349   26.8189   42.2535 C   0  0  0  0  0  0  0  0  0  0  0  0
   36.7369   27.5825   41.3531 N   0  0  0  0  0  0  0  0  0  0  0  0
   36.6584   28.9132   41.4518 C   0  0  0  0  0  0  0  0  0  0  0  0
   37.2683   29.5490   42.4475 N   0  0  0  0  0  0  0  0  0  0  0  0
   37.5314   25.3303   42.1560 C   0  0  0  0  0  0  0  0  0  0  0  0
   37.6489   25.0488   40.8045 F   0  0  0  0  0  0  0  0  0  0  0  0
   38.6336   24.8378   42.7988 F   0  0  0  0  0  0  0  0  0  0  0  0
   36.3811   24.7203   42.6321 F   0  0  0  0  0  0  0  0  0  0  0  0
   38.4663   29.3975   44.1786 H   0  0  0  0  0  0  0  0  0  0  0  0
   38.6631   26.9363   44.0719 H   0  0  0  0  0  0  0  0  0  0  0  0
   35.9227   29.6583   40.4932 N   0  0  0  0  0  0  0  0  0  0  0  0
   34.4720   29.6939   40.4771 C   0  0  0  0  0  0  0  0  0  0  0  0
   34.1199   30.8564   39.5428 C   0  0  0  0  0  0  0  0  0  0  0  0
   34.8296   31.9969   39.8868 O   0  0  0  0  0  0  0  0  0  0  0  0
   36.1897   31.8811   39.6852 C   0  0  0  0  0  0  0  0  0  0  0  0
   36.5962   30.4318   39.4681 C   0  0  0  0  0  0  0  0  0  0  0  0
   34.0333   29.8803   41.4815 H   0  0  0  0  0  0  0  0  0  0  0  0
   34.1156   28.7615   39.9996 H   0  0  0  0  0  0  0  0  0  0  0  0
   33.0493   31.0808   39.7034 H   0  0  0  0  0  0  0  0  0  0  0  0
   34.2622   30.5222   38.5110 H   0  0  0  0  0  0  0  0  0  0  0  0
   36.6961   32.2532   40.6034 H   0  0  0  0  0  0  0  0  0  0  0  0
   36.5269   32.5180   38.8230 H   0  0  0  0  0  0  0  0  0  0  0  0
   36.3057   30.1018   38.4452 H   0  0  0  0  0  0  0  0  0  0  0  0
   37.6962   30.3351   39.5560 H   0  0  0  0  0  0  0  0  0  0  0  0
  2  1  2  0
  3  2  1  0
  4  5  1  0
  4  3  2  0
  5  6  2  0
  6  1  1  0
  7  3  1  0
  7 10  1  0
  7  9  1  0
  8  7  1  0
  1 11  1  0
  2 12  1  0
 13 14  1  0
 14 15  1  0
 15 16  1  0
 16 17  1  0
 17 18  1  0
 18 13  1  0
 14 19  1  0
 14 20  1  0
 15 21  1  0
 15 22  1  0
 17 23  1  0
 17 24  1  0
 18 25  1  0
 18 26  1  0
  5 13  1  0
M  ISO  2  11  14  12  14
M  END
>  <DihAtoms>  (1) 
3,4,12,13

>  <DihDeg>  (1) 
-0.0042601742006946955

$$$$
