
     RDKit          3D

 43 47  0  0  0  0  0  0  0  0999 V2000
   36.7540   28.3010   42.1950 N   0  0  0  0  0  0  0  0  0  0  0  0
   36.3500   27.4800   43.1810 C   0  0  0  0  0  0  0  0  0  0  0  0
   37.0770   27.8910   44.2790 C   0  0  0  0  0  0  0  0  0  0  0  0
   37.8930   28.9310   43.9540 N   0  0  0  0  0  0  0  0  0  0  0  0
   37.6760   29.1670   42.6610 C   0  0  0  0  0  0  0  0  0  0  0  0
   38.4290   30.2260   42.0910 N   0  0  0  0  0  0  0  0  0  0  0  0
   39.7250   30.4780   42.4660 C   0  0  0  0  0  0  0  0  0  0  0  0
   40.2340   31.5470   41.7760 N   0  0  0  0  0  0  0  0  0  0  0  0
   39.2650   31.9790   40.9640 C   0  0  0  0  0  0  0  0  0  0  0  0
   39.1990   33.0050   40.0510 C   0  0  0  0  0  0  0  0  0  0  0  0
   38.0370   33.1460   39.4010 N   0  0  0  0  0  0  0  0  0  0  0  0
   36.9600   32.3560   39.5910 C   0  0  0  0  0  0  0  0  0  0  0  0
   37.0080   31.3380   40.4870 N   0  0  0  0  0  0  0  0  0  0  0  0
   38.1500   31.1720   41.1510 C   0  0  0  0  0  0  0  0  0  0  0  0
   35.1430   28.9210   40.4420 C   0  0  0  0  0  0  0  0  0  0  0  0
   36.2960   28.2720   40.8830 C   0  0  0  0  0  0  0  0  0  0  0  0
   37.0210   27.5460   39.9030 C   0  0  0  0  0  0  0  0  0  0  0  0
   36.5670   27.5210   38.6240 N   0  0  0  0  0  0  0  0  0  0  0  0
   35.4290   28.1770   38.2550 C   0  0  0  0  0  0  0  0  0  0  0  0
   34.7100   28.8830   39.1660 N   0  0  0  0  0  0  0  0  0  0  0  0
   34.9980   28.1190   36.9010 N   0  0  0  0  0  0  0  0  0  0  0  0
   34.3850   26.8990   36.4170 C   0  0  0  0  0  0  0  0  0  0  0  0
   33.1860   27.3900   35.5930 C   0  0  0  0  0  0  0  0  0  0  0  0
   33.7800   28.0060   34.4860 O   0  0  0  0  0  0  0  0  0  0  0  0
   34.3370   29.2350   34.8100 C   0  0  0  0  0  0  0  0  0  0  0  0
   35.1730   29.2530   36.0400 C   0  0  0  0  0  0  0  0  0  0  0  0
   40.2950   33.8720   39.8030 N   0  0  0  0  0  0  0  0  0  0  0  0
   35.6102   26.6679   43.1247 H   0  0  0  0  0  0  0  0  0  0  0  0
   37.0069   27.4402   45.2799 H   0  0  0  0  0  0  0  0  0  0  0  0
   40.2804   29.8997   43.2191 H   0  0  0  0  0  0  0  0  0  0  0  0
   36.0392   32.5378   39.0173 H   0  0  0  0  0  0  0  0  0  0  0  0
   34.5557   29.4944   41.1744 H   0  0  0  0  0  0  0  0  0  0  0  0
   37.9412   27.0091   40.1768 H   0  0  0  0  0  0  0  0  0  0  0  0
   35.0864   26.3316   35.7876 H   0  0  0  0  0  0  0  0  0  0  0  0
   34.0909   26.2201   37.2310 H   0  0  0  0  0  0  0  0  0  0  0  0
   32.5521   26.5470   35.2806 H   0  0  0  0  0  0  0  0  0  0  0  0
   32.5270   28.0665   36.1570 H   0  0  0  0  0  0  0  0  0  0  0  0
   34.9671   29.5547   33.9669 H   0  0  0  0  0  0  0  0  0  0  0  0
   33.4901   29.9080   35.0097 H   0  0  0  0  0  0  0  0  0  0  0  0
   36.2293   29.2922   35.7357 H   0  0  0  0  0  0  0  0  0  0  0  0
   34.8559   30.1335   36.6180 H   0  0  0  0  0  0  0  0  0  0  0  0
   40.2061   34.6294   39.1107 H   0  0  0  0  0  0  0  0  0  0  0  0
   41.1793   33.7437   40.3153 H   0  0  0  0  0  0  0  0  0  0  0  0
  1  5  1  0
  1  2  1  0
  2  3  2  0
  4  3  1  0
  5  4  2  0
  6  7  1  0
  6  5  1  0
  8  7  2  0
  9 14  2  0
  9  8  1  0
 10  9  1  0
 11 12  1  0
 11 10  2  0
 12 13  2  0
 13 14  1  0
 14  6  1  0
 15 16  2  0
 16  1  1  0
 17 16  1  0
 18 17  2  0
 19 18  1  0
 19 20  2  0
 20 15  1  0
 21 19  1  0
 22 21  1  0
 23 22  1  0
 24 25  1  0
 24 23  1  0
 25 26  1  0
 26 21  1  0
 27 10  1  0
  2 28  1  0
  3 29  1  0
  7 30  1  0
 12 31  1  0
 15 32  1  0
 17 33  1  0
 22 34  1  0
 22 35  1  0
 23 36  1  0
 23 37  1  0
 25 38  1  0
 25 39  1  0
 26 40  1  0
 26 41  1  0
 27 42  1  0
 27 43  1  0
M  ISO  8  28  14  29  14  30  14  31  14  32  14  33  14  34  13  35  13
M  ISO  6  36  13  37  13  38  13  39  13  40  13  41  13
M  END
>  <minimizedAffinity>  (1) 
-6.24597597

>  <minimizedRMSD>  (1) 
2.041852

$$$$
