
     RDKit          3D

 47 50  0  0  0  0  0  0  0  0999 V2000
   39.6560   27.7520   43.4320 C   0  0  0  0  0  0  0  0  0  0  0  0
   39.0760   26.4570   43.4070 C   0  0  0  0  0  0  0  0  0  0  0  0
   38.2320   26.1750   42.3460 C   0  0  0  0  0  0  0  0  0  0  0  0
   38.0110   27.1160   41.4200 N   0  0  0  0  0  0  0  0  0  0  0  0
   38.5620   28.3330   41.4540 C   0  0  0  0  0  0  0  0  0  0  0  0
   39.3890   28.6560   42.4630 N   0  0  0  0  0  0  0  0  0  0  0  0
   37.5990   24.9410   42.1930 N   0  0  0  0  0  0  0  0  0  0  0  0
   38.3450   29.3480   40.4730 N   0  0  0  0  0  0  0  0  0  0  0  0
   37.6220   28.9740   39.3870 C   0  0  0  0  0  0  0  0  0  0  0  0
   37.3090   29.8090   38.3190 C   0  0  0  0  0  0  0  0  0  0  0  0
   37.7830   31.0930   38.4140 C   0  0  0  0  0  0  0  0  0  0  0  0
   37.5450   31.9140   37.4850 O   0  0  0  0  0  0  0  0  0  0  0  0
   38.4940   31.4400   39.4950 N   0  0  0  0  0  0  0  0  0  0  0  0
   38.7810   30.6070   40.5090 C   0  0  0  0  0  0  0  0  0  0  0  0
   39.4450   30.9250   41.5190 O   0  0  0  0  0  0  0  0  0  0  0  0
   39.0120   32.7580   39.6320 C   0  0  0  0  0  0  0  0  0  0  0  0
   38.2210   33.7300   40.1840 C   0  0  0  0  0  0  0  0  0  0  0  0
   38.7400   35.0030   40.3070 C   0  0  0  0  0  0  0  0  0  0  0  0
   40.0320   35.2420   39.8700 C   0  0  0  0  0  0  0  0  0  0  0  0
   40.8240   34.2840   39.3200 C   0  0  0  0  0  0  0  0  0  0  0  0
   40.3150   33.0010   39.1900 C   0  0  0  0  0  0  0  0  0  0  0  0
   36.5000   29.3070   37.1980 C   0  0  0  0  0  0  0  0  0  0  0  0
   35.1120   29.4590   37.2390 N   0  0  0  0  0  0  0  0  0  0  0  0
   34.5800   28.5270   38.2440 C   0  0  0  0  0  0  0  0  0  0  0  0
   34.6360   27.2010   37.5230 C   0  0  0  0  0  0  0  0  0  0  0  0
   34.3490   27.5690   36.0900 C   0  0  0  0  0  0  0  0  0  0  0  0
   34.3900   29.0860   36.0900 C   0  0  0  0  0  0  0  0  0  0  0  0
   40.3344   28.0248   44.2538 H   0  0  0  0  0  0  0  0  0  0  0  0
   39.2863   25.7146   44.1910 H   0  0  0  0  0  0  0  0  0  0  0  0
   36.9792   24.7766   41.3870 H   0  0  0  0  0  0  0  0  0  0  0  0
   37.7516   24.1945   42.8861 H   0  0  0  0  0  0  0  0  0  0  0  0
   37.2575   27.9369   39.3484 H   0  0  0  0  0  0  0  0  0  0  0  0
   37.1988   33.5022   40.5205 H   0  0  0  0  0  0  0  0  0  0  0  0
   38.1380   35.8132   40.7443 H   0  0  0  0  0  0  0  0  0  0  0  0
   40.4381   36.2590   39.9732 H   0  0  0  0  0  0  0  0  0  0  0  0
   41.8449   34.5211   38.9859 H   0  0  0  0  0  0  0  0  0  0  0  0
   40.9212   32.1953   38.7503 H   0  0  0  0  0  0  0  0  0  0  0  0
   36.7031   28.2293   37.1120 H   0  0  0  0  0  0  0  0  0  0  0  0
   36.8078   29.9365   36.3500 H   0  0  0  0  0  0  0  0  0  0  0  0
   35.2081   28.5152   39.1470 H   0  0  0  0  0  0  0  0  0  0  0  0
   33.5724   28.7916   38.5972 H   0  0  0  0  0  0  0  0  0  0  0  0
   35.6311   26.7423   37.6197 H   0  0  0  0  0  0  0  0  0  0  0  0
   33.9272   26.4629   37.9266 H   0  0  0  0  0  0  0  0  0  0  0  0
   35.1162   27.1564   35.4184 H   0  0  0  0  0  0  0  0  0  0  0  0
   33.3883   27.1697   35.7327 H   0  0  0  0  0  0  0  0  0  0  0  0
   34.8963   29.4538   35.1853 H   0  0  0  0  0  0  0  0  0  0  0  0
   33.3769   29.5145   36.0964 H   0  0  0  0  0  0  0  0  0  0  0  0
  2  1  2  0
  3  2  1  0
  4  5  1  0
  4  3  2  0
  5  6  2  0
  6  1  1  0
  7  3  1  0
  8 14  1  0
  8  5  1  0
  9  8  1  0
 10 11  1  0
 10  9  2  0
 11 13  1  0
 12 11  2  0
 13 16  1  0
 13 14  1  0
 14 15  2  0
 16 17  2  0
 17 18  1  0
 19 18  2  0
 20 19  1  0
 21 20  2  0
 21 16  1  0
 22 23  1  0
 22 10  1  0
 23 24  1  0
 25 24  1  0
 26 25  1  0
 27 26  1  0
 27 23  1  0
  1 28  1  0
  2 29  1  0
  7 30  1  0
  7 31  1  0
  9 32  1  0
 17 33  1  0
 18 34  1  0
 19 35  1  0
 20 36  1  0
 21 37  1  0
 22 38  1  0
 22 39  1  0
 24 40  1  0
 24 41  1  0
 25 42  1  0
 25 43  1  0
 26 44  1  0
 26 45  1  0
 27 46  1  0
 27 47  1  0
M  ISO  8  28  14  29  14  32  14  33  14  34  14  35  14  36  14  37  14
M  ISO  8  38   8  39   8  40  13  41  13  42  13  43  13  44  13  45  13
M  ISO  2  46  13  47  13
M  END
>  <minimizedAffinity>  (1) 
-6.01672888

>  <minimizedRMSD>  (1) 
0.47697565

$$$$
