
     RDKit          3D

 37 39  0  0  0  0  0  0  0  0999 V2000
   37.6500   28.2120   41.5480 C   0  0  0  0  0  0  0  0  0  0  0  0
   36.3660   27.9820   41.0920 C   0  0  0  0  0  0  0  0  0  0  0  0
   35.9000   29.1450   40.5970 N   0  0  0  0  0  0  0  0  0  0  0  0
   36.8190   30.1260   40.7080 C   0  0  0  0  0  0  0  0  0  0  0  0
   36.7290   31.4350   40.3270 C   0  0  0  0  0  0  0  0  0  0  0  0
   37.8320   32.2460   40.5590 C   0  0  0  0  0  0  0  0  0  0  0  0
   38.9760   31.7190   41.1590 C   0  0  0  0  0  0  0  0  0  0  0  0
   39.0550   30.3970   41.5390 C   0  0  0  0  0  0  0  0  0  0  0  0
   37.9450   29.5750   41.3060 C   0  0  0  0  0  0  0  0  0  0  0  0
   39.7310   26.5870   44.0810 C   0  0  0  0  0  0  0  0  0  0  0  0
   40.2730   25.4760   43.3690 C   0  0  0  0  0  0  0  0  0  0  0  0
   39.9100   25.3140   42.0270 C   0  0  0  0  0  0  0  0  0  0  0  0
   39.0670   26.2160   41.4810 N   0  0  0  0  0  0  0  0  0  0  0  0
   38.5640   27.2580   42.1670 C   0  0  0  0  0  0  0  0  0  0  0  0
   38.8980   27.4390   43.4640 N   0  0  0  0  0  0  0  0  0  0  0  0
   34.5780   29.2190   40.0410 C   0  0  0  0  0  0  0  0  0  0  0  0
   34.5290   28.8380   38.5790 C   0  0  0  0  0  0  0  0  0  0  0  0
   33.1760   28.8180   38.0660 N   0  0  0  0  0  0  0  0  0  0  0  0
   33.0590   28.1900   36.7760 C   0  0  0  0  0  0  0  0  0  0  0  0
   34.0550   28.0770   35.9910 N   0  0  0  0  0  0  0  0  0  0  0  0
   31.8030   27.6620   36.3320 N   0  0  0  0  0  0  0  0  0  0  0  0
   33.9760   27.6310   35.0690 H   0  0  0  0  0  0  0  0  0  0  0  0
   35.8241   27.0254   41.1268 H   0  0  0  0  0  0  0  0  0  0  0  0
   35.8179   31.8311   39.8547 H   0  0  0  0  0  0  0  0  0  0  0  0
   37.8037   33.3067   40.2690 H   0  0  0  0  0  0  0  0  0  0  0  0
   39.8395   32.3777   41.3337 H   0  0  0  0  0  0  0  0  0  0  0  0
   39.9644   29.9982   42.0122 H   0  0  0  0  0  0  0  0  0  0  0  0
   39.9962   26.7454   45.1367 H   0  0  0  0  0  0  0  0  0  0  0  0
   40.9561   24.7675   43.8602 H   0  0  0  0  0  0  0  0  0  0  0  0
   40.3010   24.4745   41.4334 H   0  0  0  0  0  0  0  0  0  0  0  0
   33.9229   28.5370   40.6029 H   0  0  0  0  0  0  0  0  0  0  0  0
   34.2466   30.2650   40.1193 H   0  0  0  0  0  0  0  0  0  0  0  0
   35.1160   29.5681   38.0025 H   0  0  0  0  0  0  0  0  0  0  0  0
   34.9437   27.8240   38.4794 H   0  0  0  0  0  0  0  0  0  0  0  0
   32.3735   29.2151   38.5752 H   0  0  0  0  0  0  0  0  0  0  0  0
   31.7305   27.2146   35.4071 H   0  0  0  0  0  0  0  0  0  0  0  0
   30.9728   27.7299   36.9378 H   0  0  0  0  0  0  0  0  0  0  0  0
  1 14  1  0
  2  1  2  0
  3  4  1  0
  3  2  1  0
  4  9  2  0
  5  6  2  0
  5  4  1  0
  6  7  1  0
  7  8  2  0
  9  8  1  0
  9  1  1  0
 11 10  2  0
 12 11  1  0
 13 12  2  0
 13 14  1  0
 14 15  2  0
 15 10  1  0
 16  3  1  0
 17 16  1  0
 18 17  1  0
 19 18  1  0
 20 19  2  0
 21 19  1  0
 22 20  1  0
  2 23  1  0
  5 24  1  0
  6 25  1  0
  7 26  1  0
  8 27  1  0
 10 28  1  0
 11 29  1  0
 12 30  1  0
 16 31  1  0
 16 32  1  0
 17 33  1  0
 17 34  1  0
 18 35  1  0
 21 36  1  0
 21 37  1  0
M  ISO  8  23  14  24  14  25  14  26  14  27  14  28  14  29  14  30  14
M  ISO  4  31   8  32   8  33   8  34   8
M  END
>  <minimizedAffinity>  (1) 
-4.85064697

>  <minimizedRMSD>  (1) 
0.440173149

$$$$
