
     RDKit          3D

 46 49  0  0  0  0  0  0  0  0999 V2000
   35.8920   29.5360   38.5570 C   0  0  0  0  0  0  0  0  0  0  0  0
   37.2200   29.8570   38.4520 C   0  0  0  0  0  0  0  0  0  0  0  0
   37.9320   30.0220   37.2980 C   0  0  0  0  0  0  0  0  0  0  0  0
   37.2830   29.8570   36.0940 C   0  0  0  0  0  0  0  0  0  0  0  0
   35.9340   29.5300   36.1280 C   0  0  0  0  0  0  0  0  0  0  0  0
   35.3390   29.3770   34.9040 C   0  0  0  0  0  0  0  0  0  0  0  0
   34.0230   29.0530   34.8200 C   0  0  0  0  0  0  0  0  0  0  0  0
   33.3230   28.8900   35.9700 C   0  0  0  0  0  0  0  0  0  0  0  0
   33.9380   29.0480   37.1840 C   0  0  0  0  0  0  0  0  0  0  0  0
   35.2520   29.3720   37.3300 C   0  0  0  0  0  0  0  0  0  0  0  0
   33.0930   28.8570   38.2990 N   0  0  0  0  0  0  0  0  0  0  0  0
   31.6940   29.2940   38.2880 C   0  0  0  0  0  0  0  0  0  0  0  0
   30.9820   29.0080   37.1940 N   0  0  0  0  0  0  0  0  0  0  0  0
   30.9860   30.0130   39.3530 N   0  0  0  0  0  0  0  0  0  0  0  0
   30.0140   29.3130   37.1930 H   0  0  0  0  0  0  0  0  0  0  0  0
   35.1150   29.3980   39.7930 C   0  0  0  0  0  0  0  0  0  0  0  0
   35.7760   29.9540   41.0270 C   0  0  0  0  0  0  0  0  0  0  0  0
   38.3250   28.0460   42.5710 C   0  0  0  0  0  0  0  0  0  0  0  0
   37.2800   27.1690   42.6390 C   0  0  0  0  0  0  0  0  0  0  0  0
   36.2030   27.8200   42.0480 C   0  0  0  0  0  0  0  0  0  0  0  0
   36.6660   29.0380   41.6640 N   0  0  0  0  0  0  0  0  0  0  0  0
   37.9050   29.1830   41.9630 N   0  0  0  0  0  0  0  0  0  0  0  0
   41.2580   26.5530   44.3200 C   0  0  0  0  0  0  0  0  0  0  0  0
   39.9470   26.7060   43.8580 C   0  0  0  0  0  0  0  0  0  0  0  0
   39.6720   27.8390   43.0630 C   0  0  0  0  0  0  0  0  0  0  0  0
   40.6530   28.7260   42.7740 N   0  0  0  0  0  0  0  0  0  0  0  0
   41.9160   28.5070   43.2650 C   0  0  0  0  0  0  0  0  0  0  0  0
   42.2070   27.4360   44.0240 N   0  0  0  0  0  0  0  0  0  0  0  0
   37.7696   29.9962   39.3946 H   0  0  0  0  0  0  0  0  0  0  0  0
   39.0006   30.2811   37.3293 H   0  0  0  0  0  0  0  0  0  0  0  0
   37.8150   29.9800   35.1391 H   0  0  0  0  0  0  0  0  0  0  0  0
   35.9289   29.5170   33.9862 H   0  0  0  0  0  0  0  0  0  0  0  0
   33.5361   28.9257   33.8419 H   0  0  0  0  0  0  0  0  0  0  0  0
   32.2551   28.6294   35.9278 H   0  0  0  0  0  0  0  0  0  0  0  0
   33.4692   28.3990   39.1414 H   0  0  0  0  0  0  0  0  0  0  0  0
   29.9959   30.2693   39.2312 H   0  0  0  0  0  0  0  0  0  0  0  0
   31.4791   30.2615   40.2225 H   0  0  0  0  0  0  0  0  0  0  0  0
   34.1573   29.9211   39.6540 H   0  0  0  0  0  0  0  0  0  0  0  0
   35.0021   28.3175   39.9656 H   0  0  0  0  0  0  0  0  0  0  0  0
   36.3462   30.8503   40.7415 H   0  0  0  0  0  0  0  0  0  0  0  0
   34.9752   30.1773   41.7473 H   0  0  0  0  0  0  0  0  0  0  0  0
   37.2887   26.1577   43.0715 H   0  0  0  0  0  0  0  0  0  0  0  0
   35.1833   27.4284   41.9178 H   0  0  0  0  0  0  0  0  0  0  0  0
   41.5100   25.6820   44.9427 H   0  0  0  0  0  0  0  0  0  0  0  0
   39.1634   25.9742   44.1039 H   0  0  0  0  0  0  0  0  0  0  0  0
   42.7128   29.2283   43.0308 H   0  0  0  0  0  0  0  0  0  0  0  0
  1 16  1  0
  2  1  2  0
  3  2  1  0
  4  5  1  0
  4  3  2  0
  5 10  2  0
  6  5  1  0
  7  6  2  0
  7  8  1  0
  8  9  2  0
  9 10  1  0
  9 11  1  0
 10  1  1  0
 12 11  1  0
 12 14  1  0
 13 12  2  0
 15 13  1  0
 16 17  1  0
 17 21  1  0
 18 19  1  0
 18 25  1  0
 20 19  2  0
 21 22  1  0
 21 20  1  0
 22 18  2  0
 24 23  2  0
 25 24  1  0
 26 25  2  0
 26 27  1  0
 27 28  2  0
 28 23  1  0
  2 29  1  0
  3 30  1  0
  4 31  1  0
  6 32  1  0
  7 33  1  0
  8 34  1  0
 11 35  1  0
 14 36  1  0
 14 37  1  0
 16 38  1  0
 16 39  1  0
 17 40  1  0
 17 41  1  0
 19 42  1  0
 20 43  1  0
 23 44  1  0
 24 45  1  0
 27 46  1  0
M  ISO  8  29  14  30  14  31  14  32  14  33  14  34  14  38   8  39   8
M  ISO  7  40   8  41   8  42  14  43  14  44  14  45  14  46  14
M  END
>  <minimizedAffinity>  (1) 
-5.54418707

>  <minimizedRMSD>  (1) 
0.666595101

$$$$
