
     RDKit          3D

 32 35  0  0  0  0  0  0  0  0999 V2000
   38.9950   32.3190   40.1810 C   0  0  0  0  0  0  0  0  0  0  0  0
   39.0960   31.4800   41.2930 C   0  0  0  0  0  0  0  0  0  0  0  0
   38.5080   30.3270   40.9660 N   0  0  0  0  0  0  0  0  0  0  0  0
   38.0270   30.3530   39.7120 C   0  0  0  0  0  0  0  0  0  0  0  0
   37.3600   29.3650   39.0150 C   0  0  0  0  0  0  0  0  0  0  0  0
   36.9690   29.6780   37.7010 C   0  0  0  0  0  0  0  0  0  0  0  0
   37.2480   30.9110   37.1580 C   0  0  0  0  0  0  0  0  0  0  0  0
   37.9190   31.8960   37.8670 C   0  0  0  0  0  0  0  0  0  0  0  0
   38.3190   31.6180   39.1730 C   0  0  0  0  0  0  0  0  0  0  0  0
   39.0780   35.9730   40.1310 C   0  0  0  0  0  0  0  0  0  0  0  0
   40.4100   36.2640   39.7570 C   0  0  0  0  0  0  0  0  0  0  0  0
   41.2560   35.1750   39.5300 C   0  0  0  0  0  0  0  0  0  0  0  0
   40.7520   33.9290   39.6790 N   0  0  0  0  0  0  0  0  0  0  0  0
   39.4840   33.6900   40.0350 C   0  0  0  0  0  0  0  0  0  0  0  0
   38.6540   34.7070   40.2580 N   0  0  0  0  0  0  0  0  0  0  0  0
   38.4970   29.3150   41.9670 C   0  0  0  0  0  0  0  0  0  0  0  0
   37.4070   29.0900   42.7840 C   0  0  0  0  0  0  0  0  0  0  0  0
   37.3390   28.1260   43.7680 C   0  0  0  0  0  0  0  0  0  0  0  0
   38.4350   27.3510   43.9310 N   0  0  0  0  0  0  0  0  0  0  0  0
   39.5160   27.5440   43.1520 C   0  0  0  0  0  0  0  0  0  0  0  0
   39.5490   28.4850   42.2080 N   0  0  0  0  0  0  0  0  0  0  0  0
   39.5700   31.7231   42.2554 H   0  0  0  0  0  0  0  0  0  0  0  0
   37.1457   28.3841   39.4643 H   0  0  0  0  0  0  0  0  0  0  0  0
   36.4337   28.9281   37.1001 H   0  0  0  0  0  0  0  0  0  0  0  0
   36.9281   31.1226   36.1270 H   0  0  0  0  0  0  0  0  0  0  0  0
   38.1306   32.8737   37.4095 H   0  0  0  0  0  0  0  0  0  0  0  0
   38.3772   36.7993   40.3211 H   0  0  0  0  0  0  0  0  0  0  0  0
   40.7642   37.2999   39.6496 H   0  0  0  0  0  0  0  0  0  0  0  0
   42.3054   35.3275   39.2375 H   0  0  0  0  0  0  0  0  0  0  0  0
   36.5239   29.7295   42.6388 H   0  0  0  0  0  0  0  0  0  0  0  0
   36.4399   27.9944   44.3880 H   0  0  0  0  0  0  0  0  0  0  0  0
   40.3995   26.9054   43.2989 H   0  0  0  0  0  0  0  0  0  0  0  0
  1  2  2  0
  3  2  1  0
  3 16  1  0
  4  3  1  0
  5  4  2  0
  6  5  1  0
  7  6  2  0
  7  8  1  0
  8  9  2  0
  9  4  1  0
  9  1  1  0
 10 15  2  0
 11 10  1  0
 12 13  1  0
 12 11  2  0
 13 14  2  0
 14  1  1  0
 14 15  1  0
 16 21  1  0
 16 17  2  0
 17 18  1  0
 18 19  2  0
 20 19  1  0
 21 20  2  0
  2 22  1  0
  5 23  1  0
  6 24  1  0
  7 25  1  0
  8 26  1  0
 10 27  1  0
 11 28  1  0
 12 29  1  0
 17 30  1  0
 18 31  1  0
 20 32  1  0
M  ISO  8  22  14  23  14  24  14  25  14  26  14  27  14  28  14  29  14
M  ISO  3  30  14  31  14  32  14
M  END
>  <minimizedAffinity>  (1) 
-6.01766205

>  <minimizedRMSD>  (1) 
6.32024527

$$$$
