
     RDKit          3D

 20 20  0  0  0  0  0  0  0  0999 V2000
   38.7140   29.3080   42.5040 C   0  0  0  0  0  0  0  0  0  0  0  0
   37.8720   29.1670   41.3780 C   0  0  0  0  0  0  0  0  0  0  0  0
   37.3100   27.9020   41.2160 C   0  0  0  0  0  0  0  0  0  0  0  0
   37.5700   26.9000   42.0890 N   0  0  0  0  0  0  0  0  0  0  0  0
   38.3880   27.0950   43.1530 C   0  0  0  0  0  0  0  0  0  0  0  0
   38.9510   28.3030   43.3470 N   0  0  0  0  0  0  0  0  0  0  0  0
   37.6320   30.2570   40.4910 N   0  0  0  0  0  0  0  0  0  0  0  0
   36.7370   31.3240   40.7840 C   0  0  0  0  0  0  0  0  0  0  0  0
   35.6100   30.9780   41.3690 N   0  0  0  0  0  0  0  0  0  0  0  0
   37.1880   32.6460   40.4010 N   0  0  0  0  0  0  0  0  0  0  0  0
   34.8930   31.6800   41.5990 H   0  0  0  0  0  0  0  0  0  0  0  0
   36.4280   27.6690   40.0780 C   0  0  0  0  0  0  0  0  0  0  0  0
   35.4300   28.3560   39.8010 O   0  0  0  0  0  0  0  0  0  0  0  0
   36.6520   26.6310   39.2040 O   0  0  0  0  0  0  0  0  0  0  0  0
   39.1907   30.2814   42.6915 H   0  0  0  0  0  0  0  0  0  0  0  0
   38.5905   26.2714   43.8534 H   0  0  0  0  0  0  0  0  0  0  0  0
   38.1326   30.2731   39.5910 H   0  0  0  0  0  0  0  0  0  0  0  0
   36.5918   33.4661   40.5823 H   0  0  0  0  0  0  0  0  0  0  0  0
   38.1049   32.7660   39.9473 H   0  0  0  0  0  0  0  0  0  0  0  0
   36.0420   26.4891   38.4373 H   0  0  0  0  0  0  0  0  0  0  0  0
  1  6  2  0
  2  1  1  0
  3  2  2  0
  3  4  1  0
  4  5  2  0
  5  6  1  0
  7  8  1  0
  7  2  1  0
  8  9  2  0
  9 11  1  0
 10  8  1  0
 12  3  1  0
 13 12  2  0
 14 12  1  0
  1 15  1  0
  5 16  1  0
  7 17  1  0
 10 18  1  0
 10 19  1  0
 14 20  1  0
M  ISO  3  15  14  16  14  20   3
M  END
>  <minimizedAffinity>  (1) 
-4.28018045

>  <minimizedRMSD>  (1) 
0.31661126

$$$$
