
     RDKit          3D

 33 35  0  0  1  0  0  0  0  0999 V2000
   37.9770   30.5160   39.5910 N   0  0  0  0  0  0  0  0  0  0  0  0
   38.2750   29.9510   38.2510 C   0  0  0  0  0  0  0  0  0  0  0  0
   39.7320   29.6480   38.0900 C   0  0  0  0  0  0  0  0  0  0  0  0
   40.5230   30.6700   38.5960 O   0  0  0  0  0  0  0  0  0  0  0  0
   39.7720   31.8430   38.5950 C   0  0  0  0  0  0  0  0  0  0  0  0
   38.6340   31.7800   39.6290 C   0  0  1  0  0  0  0  0  0  0  0  0
   35.9420   29.4080   40.7390 C   0  0  1  0  0  0  0  0  0  0  0  0
   35.9200   30.8440   41.0930 C   0  0  0  0  0  0  0  0  0  0  0  0
   36.5990   30.4840   39.8440 C   0  0  1  0  0  0  0  0  0  0  0  0
   38.1260   28.2400   43.4620 C   0  0  0  0  0  0  0  0  0  0  0  0
   38.5010   26.9450   43.0280 C   0  0  0  0  0  0  0  0  0  0  0  0
   37.9910   26.5050   41.7770 C   0  0  0  0  0  0  0  0  0  0  0  0
   37.1610   27.3510   41.0500 N   0  0  0  0  0  0  0  0  0  0  0  0
   36.8590   28.5580   41.5350 C   0  0  0  0  0  0  0  0  0  0  0  0
   37.3220   29.0160   42.7180 N   0  0  0  0  0  0  0  0  0  0  0  0
   37.7620   32.9320   39.4030 C   0  0  0  0  0  0  0  0  0  0  0  0
   38.0770   33.8910   40.1880 O   0  0  0  0  0  0  0  0  0  0  0  0
   36.9470   34.0370   39.2060 O   0  0  0  0  0  0  0  0  0  0  0  0
   37.7010   29.0218   38.1201 H   0  0  0  0  0  0  0  0  0  0  0  0
   37.9941   30.6976   37.4936 H   0  0  0  0  0  0  0  0  0  0  0  0
   39.9648   28.7166   38.6269 H   0  0  0  0  0  0  0  0  0  0  0  0
   39.9465   29.5450   37.0160 H   0  0  0  0  0  0  0  0  0  0  0  0
   40.4304   32.6900   38.8381 H   0  0  0  0  0  0  0  0  0  0  0  0
   39.3272   31.9693   37.5969 H   0  0  0  0  0  0  0  0  0  0  0  0
   39.0172   31.8503   40.6577 H   0  0  0  0  0  0  0  0  0  0  0  0
   35.1946   28.6137   40.5955 H   0  0  0  0  0  0  0  0  0  0  0  0
   34.9697   31.3964   41.0519 H   0  0  0  0  0  0  0  0  0  0  0  0
   36.2255   31.4091   41.9859 H   0  0  0  0  0  0  0  0  0  0  0  0
   36.5198   30.8391   38.8059 H   0  0  0  0  0  0  0  0  0  0  0  0
   38.5001   28.6165   44.4255 H   0  0  0  0  0  0  0  0  0  0  0  0
   39.1599   26.3062   43.6345 H   0  0  0  0  0  0  0  0  0  0  0  0
   38.2493   25.5087   41.3889 H   0  0  0  0  0  0  0  0  0  0  0  0
   36.2276   34.0066   38.5266 H   0  0  0  0  0  0  0  0  0  0  0  0
  1  2  1  0
  1  6  1  0
  1  9  1  0
  3  2  1  0
  3  4  1  0
  5  4  1  0
  5  6  1  0
  7  8  1  0
  7 14  1  0
  9  7  1  0
  9  8  1  0
 11 10  2  0
 12 11  1  0
 13 14  1  0
 13 12  2  0
 14 15  2  0
 15 10  1  0
 16  6  1  0
 16 17  2  0
 18 16  1  0
  2 19  1  0
  2 20  1  0
  3 21  1  0
  3 22  1  0
  5 23  1  0
  5 24  1  0
  6 25  1  1
  7 26  1  6
  8 27  1  0
  8 28  1  0
  9 29  1  6
 10 30  1  0
 11 31  1  0
 12 32  1  0
 18 33  1  0
M  ISO  8  19  13  20  13  21  13  22  13  23  13  24  13  25  13  26  13
M  ISO  7  27  13  28  13  29  13  30  14  31  14  32  14  33   3
M  END
>  <minimizedAffinity>  (1) 
-4.60898781

>  <minimizedRMSD>  (1) 
1.60330653

$$$$
