
     RDKit          3D

 39 42  0  0  0  0  0  0  0  0999 V2000
   36.7930   29.8070   39.8400 C   0  0  0  0  0  0  0  0  0  0  0  0
   37.6610   30.8990   39.8710 C   0  0  0  0  0  0  0  0  0  0  0  0
   38.2850   30.8460   41.0450 N   0  0  0  0  0  0  0  0  0  0  0  0
   37.8900   29.8020   41.7810 C   0  0  0  0  0  0  0  0  0  0  0  0
   38.2990   29.4050   43.0450 C   0  0  0  0  0  0  0  0  0  0  0  0
   37.7080   28.2640   43.5670 C   0  0  0  0  0  0  0  0  0  0  0  0
   36.7380   27.5510   42.8340 C   0  0  0  0  0  0  0  0  0  0  0  0
   36.3560   27.9710   41.5850 C   0  0  0  0  0  0  0  0  0  0  0  0
   36.9350   29.1090   41.0450 C   0  0  0  0  0  0  0  0  0  0  0  0
   33.7590   28.7920   38.0710 C   0  0  0  0  0  0  0  0  0  0  0  0
   34.1750   28.7340   36.7210 C   0  0  0  0  0  0  0  0  0  0  0  0
   35.4990   29.0460   36.4410 C   0  0  0  0  0  0  0  0  0  0  0  0
   36.3060   29.3840   37.4710 N   0  0  0  0  0  0  0  0  0  0  0  0
   35.8810   29.4310   38.7540 C   0  0  0  0  0  0  0  0  0  0  0  0
   34.6190   29.1370   39.0390 N   0  0  0  0  0  0  0  0  0  0  0  0
   39.2550   31.8560   41.3830 C   0  0  0  0  0  0  0  0  0  0  0  0
   38.8510   33.2540   41.0220 C   0  0  0  0  0  0  0  0  0  0  0  0
   40.0160   33.7960   40.2830 N   0  0  0  0  0  0  0  0  0  0  0  0
   41.0790   33.0740   39.9360 N   0  0  0  0  0  0  0  0  0  0  0  0
   41.9570   33.8410   39.2830 C   0  0  0  0  0  0  0  0  0  0  0  0
   41.4140   35.1400   39.2110 C   0  0  0  0  0  0  0  0  0  0  0  0
   40.1850   35.0590   39.8580 C   0  0  0  0  0  0  0  0  0  0  0  0
   39.2510   36.1550   40.0390 C   0  0  0  0  0  0  0  0  0  0  0  0
   39.6330   37.3480   40.0150 O   0  0  0  0  0  0  0  0  0  0  0  0
   37.8014   31.6530   39.0825 H   0  0  0  0  0  0  0  0  0  0  0  0
   39.0573   29.9690   43.6079 H   0  0  0  0  0  0  0  0  0  0  0  0
   38.0003   27.9107   44.5668 H   0  0  0  0  0  0  0  0  0  0  0  0
   36.2826   26.6485   43.2678 H   0  0  0  0  0  0  0  0  0  0  0  0
   35.5981   27.4106   41.0179 H   0  0  0  0  0  0  0  0  0  0  0  0
   32.7173   28.5511   38.3297 H   0  0  0  0  0  0  0  0  0  0  0  0
   33.4749   28.4518   35.9209 H   0  0  0  0  0  0  0  0  0  0  0  0
   35.8802   29.0188   35.4095 H   0  0  0  0  0  0  0  0  0  0  0  0
   39.4262   31.8178   42.4689 H   0  0  0  0  0  0  0  0  0  0  0  0
   40.1577   31.6306   40.7961 H   0  0  0  0  0  0  0  0  0  0  0  0
   37.9545   33.2477   40.3846 H   0  0  0  0  0  0  0  0  0  0  0  0
   38.5973   33.8582   41.9055 H   0  0  0  0  0  0  0  0  0  0  0  0
   42.9265   33.5178   38.8759 H   0  0  0  0  0  0  0  0  0  0  0  0
   41.8653   36.0275   38.7434 H   0  0  0  0  0  0  0  0  0  0  0  0
   38.1857   35.9337   40.2006 H   0  0  0  0  0  0  0  0  0  0  0  0
  1  2  2  0
  1  9  1  0
  2  3  1  0
  3 16  1  0
  3  4  1  0
  4  5  2  0
  5  6  1  0
  7  6  2  0
  8  7  1  0
  9  8  2  0
  9  4  1  0
 10 15  2  0
 11 10  1  0
 12 11  2  0
 12 13  1  0
 13 14  2  0
 14 15  1  0
 14  1  1  0
 17 16  1  0
 18 17  1  0
 19 18  1  0
 20 19  2  0
 21 20  1  0
 21 22  2  0
 22 23  1  0
 22 18  1  0
 24 23  2  0
  2 25  1  0
  5 26  1  0
  6 27  1  0
  7 28  1  0
  8 29  1  0
 10 30  1  0
 11 31  1  0
 12 32  1  0
 16 33  1  0
 16 34  1  0
 17 35  1  0
 17 36  1  0
 20 37  1  0
 21 38  1  0
 23 39  1  0
M  ISO  8  25  14  26  14  27  14  28  14  29  14  30  14  31  14  32  14
M  ISO  7  33   8  34   8  35   8  36   8  37  14  38  14  39   6
M  END
>  <minimizedAffinity>  (1) 
-5.94907427

>  <minimizedRMSD>  (1) 
1.01679862

$$$$
