
     RDKit          3D

 15 15  0  0  0  0  0  0  0  0999 V2000
   37.9705   28.8775   43.3741 C   0  0  0  0  0  0  0  0  0  0  0  0
   38.0816   27.4719   43.3125 C   0  0  0  0  0  0  0  0  0  0  0  0
   37.4372   26.8204   42.2567 C   0  0  0  0  0  0  0  0  0  0  0  0
   36.7416   27.5746   41.3508 N   0  0  0  0  0  0  0  0  0  0  0  0
   36.6579   28.9155   41.4424 C   0  0  0  0  0  0  0  0  0  0  0  0
   37.2682   29.5512   42.4454 N   0  0  0  0  0  0  0  0  0  0  0  0
   37.5266   25.3322   42.1498 C   0  0  0  0  0  0  0  0  0  0  0  0
   37.6488   25.0594   40.8053 F   0  0  0  0  0  0  0  0  0  0  0  0
   38.6301   24.8387   42.7923 F   0  0  0  0  0  0  0  0  0  0  0  0
   36.3834   24.7136   42.6436 F   0  0  0  0  0  0  0  0  0  0  0  0
   38.4907   29.2865   44.2077 H   0  0  0  0  0  0  0  0  0  0  0  0
   38.6407   26.8955   44.0454 H   0  0  0  0  0  0  0  0  0  0  0  0
   35.8866   29.6092   40.4150 C   0  0  0  0  0  0  0  0  0  0  0  0
   35.9730   29.3870   39.3617 H   0  0  0  0  0  0  0  0  0  0  0  0
   35.0851   30.5075   40.7810 O   0  0  0  0  0  0  0  0  0  0  0  0
  2  1  2  0
  3  2  1  0
  4  5  1  0
  4  3  2  0
  5  6  2  0
  6  1  1  0
  7  3  1  0
  7 10  1  0
  7  9  1  0
  8  7  1  0
  1 11  1  0
  2 12  1  0
 13 14  1  0
 13 15  2  0
  5 13  1  0
M  ISO  3  11  14  12  14  14   6
M  END
>  <DihAtoms>  (1) 
3,4,12,13

>  <DihDeg>  (1) 
179.99978819376227

$$$$
