
     RDKit          3D

 26 28  0  0  0  0  0  0  0  0999 V2000
   42.4010   27.5040   44.4700 C   0  0  0  0  0  0  0  0  0  0  0  0
   43.1560   28.6520   44.3910 C   0  0  0  0  0  0  0  0  0  0  0  0
   44.2560   28.4620   45.2120 C   0  0  0  0  0  0  0  0  0  0  0  0
   44.1100   27.2060   45.7450 N   0  0  0  0  0  0  0  0  0  0  0  0
   43.0230   26.6490   45.3100 N   0  0  0  0  0  0  0  0  0  0  0  0
   39.3430   27.9290   42.3900 C   0  0  0  0  0  0  0  0  0  0  0  0
   40.5510   28.2250   43.0400 C   0  0  0  0  0  0  0  0  0  0  0  0
   41.1600   27.2340   43.7900 C   0  0  0  0  0  0  0  0  0  0  0  0
   40.5710   26.0210   43.8680 N   0  0  0  0  0  0  0  0  0  0  0  0
   39.4010   25.7550   43.2300 C   0  0  0  0  0  0  0  0  0  0  0  0
   38.7890   26.7010   42.4950 N   0  0  0  0  0  0  0  0  0  0  0  0
   45.1390   26.7870   46.6320 C   0  0  0  0  0  0  0  0  0  0  0  0
   45.0530   27.0610   48.0010 C   0  0  0  0  0  0  0  0  0  0  0  0
   46.0710   26.6450   48.8630 C   0  0  0  0  0  0  0  0  0  0  0  0
   47.1520   25.9680   48.3570 C   0  0  0  0  0  0  0  0  0  0  0  0
   47.1770   25.7300   46.9960 C   0  0  0  0  0  0  0  0  0  0  0  0
   46.2070   26.1210   46.1400 N   0  0  0  0  0  0  0  0  0  0  0  0
   42.9301   29.5467   43.7923 H   0  0  0  0  0  0  0  0  0  0  0  0
   45.0762   29.1710   45.3979 H   0  0  0  0  0  0  0  0  0  0  0  0
   38.8428   28.7033   41.7898 H   0  0  0  0  0  0  0  0  0  0  0  0
   41.0043   29.2237   42.9552 H   0  0  0  0  0  0  0  0  0  0  0  0
   38.9496   24.7555   43.3155 H   0  0  0  0  0  0  0  0  0  0  0  0
   44.1834   27.6043   48.3992 H   0  0  0  0  0  0  0  0  0  0  0  0
   46.0063   26.8588   49.9401 H   0  0  0  0  0  0  0  0  0  0  0  0
   47.9685   25.6273   49.0106 H   0  0  0  0  0  0  0  0  0  0  0  0
   48.0408   25.1882   46.5833 H   0  0  0  0  0  0  0  0  0  0  0  0
  1  5  2  0
  2  1  1  0
  2  3  2  0
  3  4  1  0
  4 12  1  0
  5  4  1  0
  6 11  2  0
  6  7  1  0
  7  8  2  0
  8  9  1  0
  8  1  1  0
 10  9  2  0
 11 10  1  0
 12 13  2  0
 13 14  1  0
 15 14  2  0
 16 15  1  0
 17 12  1  0
 17 16  2  0
  2 18  1  0
  3 19  1  0
  6 20  1  0
  7 21  1  0
 10 22  1  0
 13 23  1  0
 14 24  1  0
 15 25  1  0
 16 26  1  0
M  ISO  8  18  14  19  14  20  14  21  14  22  14  23  14  24  14  25  14
M  ISO  1  26  14
M  END
>  <minimizedAffinity>  (1) 
-3.95736551

>  <minimizedRMSD>  (1) 
4.34468651

$$$$
