
     RDKit          3D

 51 56  0  0  0  0  0  0  0  0999 V2000
   42.8060   32.8220   40.9350 C   0  0  0  0  0  0  0  0  0  0  0  0
   43.9310   33.5330   41.4100 C   0  0  0  0  0  0  0  0  0  0  0  0
   43.8310   34.8530   41.6400 C   0  0  0  0  0  0  0  0  0  0  0  0
   42.6300   35.4390   41.3990 N   0  0  0  0  0  0  0  0  0  0  0  0
   41.5600   34.7720   40.9480 C   0  0  0  0  0  0  0  0  0  0  0  0
   41.6550   33.4840   40.7240 N   0  0  0  0  0  0  0  0  0  0  0  0
   45.0320   35.5240   42.1690 C   0  0  0  0  0  0  0  0  0  0  0  0
   44.8990   36.2890   43.3870 C   0  0  0  0  0  0  0  0  0  0  0  0
   45.0270   35.6140   44.6380 N   0  0  0  0  0  0  0  0  0  0  0  0
   44.6230   35.4880   45.9400 C   0  0  0  0  0  0  0  0  0  0  0  0
   45.3070   34.6110   46.6740 N   0  0  0  0  0  0  0  0  0  0  0  0
   46.2630   34.0590   45.8870 C   0  0  0  0  0  0  0  0  0  0  0  0
   47.1810   33.1120   46.2500 C   0  0  0  0  0  0  0  0  0  0  0  0
   48.0070   32.7570   45.2380 N   0  0  0  0  0  0  0  0  0  0  0  0
   47.8770   33.3230   44.0260 C   0  0  0  0  0  0  0  0  0  0  0  0
   46.9610   34.2440   43.7230 N   0  0  0  0  0  0  0  0  0  0  0  0
   46.0760   34.6840   44.6470 C   0  0  0  0  0  0  0  0  0  0  0  0
   47.2070   32.5980   47.5730 N   0  0  0  0  0  0  0  0  0  0  0  0
   40.0020   35.6110   40.6420 S   0  0  0  0  0  0  0  0  0  0  0  0
   36.9370   33.2650   39.8140 N   0  0  0  0  0  0  0  0  0  0  0  0
   37.4860   34.4510   39.7470 N   0  0  0  0  0  0  0  0  0  0  0  0
   38.7200   34.3910   40.3170 C   0  0  0  0  0  0  0  0  0  0  0  0
   38.8450   33.0670   40.7180 C   0  0  0  0  0  0  0  0  0  0  0  0
   37.6710   32.3610   40.3800 C   0  0  0  0  0  0  0  0  0  0  0  0
   37.5530   31.0010   40.7450 C   0  0  0  0  0  0  0  0  0  0  0  0
   38.0580   30.5790   41.9410 N   0  0  0  0  0  0  0  0  0  0  0  0
   37.9790   29.3570   42.4300 C   0  0  0  0  0  0  0  0  0  0  0  0
   37.3670   28.3630   41.7770 N   0  0  0  0  0  0  0  0  0  0  0  0
   36.8270   28.6530   40.5810 C   0  0  0  0  0  0  0  0  0  0  0  0
   36.1900   27.6860   39.8630 C   0  0  0  0  0  0  0  0  0  0  0  0
   35.6220   27.9540   38.6160 C   0  0  0  0  0  0  0  0  0  0  0  0
   35.7420   29.2620   38.1430 C   0  0  0  0  0  0  0  0  0  0  0  0
   36.3970   30.1670   38.9320 C   0  0  0  0  0  0  0  0  0  0  0  0
   36.9550   29.9510   40.1390 C   0  0  0  0  0  0  0  0  0  0  0  0
   42.8711   31.7413   40.7405 H   0  0  0  0  0  0  0  0  0  0  0  0
   44.8816   33.0097   41.5901 H   0  0  0  0  0  0  0  0  0  0  0  0
   45.7878   34.7460   42.3520 H   0  0  0  0  0  0  0  0  0  0  0  0
   45.2909   36.2694   41.4026 H   0  0  0  0  0  0  0  0  0  0  0  0
   45.6695   37.0737   43.3622 H   0  0  0  0  0  0  0  0  0  0  0  0
   43.8538   36.6317   43.3743 H   0  0  0  0  0  0  0  0  0  0  0  0
   43.7880   36.0727   46.3534 H   0  0  0  0  0  0  0  0  0  0  0  0
   48.5705   33.0064   43.2330 H   0  0  0  0  0  0  0  0  0  0  0  0
   47.9028   31.8851   47.8350 H   0  0  0  0  0  0  0  0  0  0  0  0
   46.5301   32.9379   48.2710 H   0  0  0  0  0  0  0  0  0  0  0  0
   35.9958   33.0665   39.4457 H   0  0  0  0  0  0  0  0  0  0  0  0
   39.7231   32.6358   41.2210 H   0  0  0  0  0  0  0  0  0  0  0  0
   38.4326   29.1476   43.4100 H   0  0  0  0  0  0  0  0  0  0  0  0
   36.1215   26.6688   40.2761 H   0  0  0  0  0  0  0  0  0  0  0  0
   35.1064   27.1745   38.0360 H   0  0  0  0  0  0  0  0  0  0  0  0
   35.3239   29.5549   37.1686 H   0  0  0  0  0  0  0  0  0  0  0  0
   36.4775   31.1897   38.5350 H   0  0  0  0  0  0  0  0  0  0  0  0
  1  2  2  0
  2  3  1  0
  3  7  1  0
  4  3  2  0
  5  4  1  0
  6  1  1  0
  6  5  2  0
  7  8  1  0
  8  9  1  0
  9 17  1  0
  9 10  1  0
 10 11  2  0
 12 13  2  0
 12 11  1  0
 13 18  1  0
 14 13  1  0
 15 14  2  0
 16 15  1  0
 16 17  2  0
 17 12  1  0
 19  5  1  0
 20 24  1  0
 21 20  1  0
 21 22  2  0
 22 19  1  0
 22 23  1  0
 24 23  2  0
 24 25  1  0
 25 26  2  0
 26 27  1  0
 28 27  2  0
 29 28  1  0
 30 29  2  0
 31 30  1  0
 32 31  2  0
 32 33  1  0
 33 34  2  0
 34 29  1  0
 34 25  1  0
  1 35  1  0
  2 36  1  0
  7 37  1  0
  7 38  1  0
  8 39  1  0
  8 40  1  0
 10 41  1  0
 15 42  1  0
 18 43  1  0
 18 44  1  0
 20 45  1  0
 23 46  1  0
 27 47  1  0
 30 48  1  0
 31 49  1  0
 32 50  1  0
 33 51  1  0
M  END
>  <minimizedAffinity>  (1) 
-7.95945835

>  <minimizedRMSD>  (1) 
2.99263954

$$$$
