
     RDKit          3D

 37 40  0  0  0  0  0  0  0  0999 V2000
   37.5820   32.2460   38.2420 C   0  0  0  0  0  0  0  0  0  0  0  0
   36.6540   29.3010   40.1660 C   0  0  0  0  0  0  0  0  0  0  0  0
   35.8710   28.5360   39.3230 C   0  0  0  0  0  0  0  0  0  0  0  0
   35.6750   29.0740   38.0620 C   0  0  0  0  0  0  0  0  0  0  0  0
   36.1770   30.2270   37.6480 N   0  0  0  0  0  0  0  0  0  0  0  0
   36.9280   30.9330   38.5000 C   0  0  0  0  0  0  0  0  0  0  0  0
   37.1750   30.4890   39.7520 N   0  0  0  0  0  0  0  0  0  0  0  0
   38.0850   29.0370   43.5380 C   0  0  0  0  0  0  0  0  0  0  0  0
   37.4180   27.9180   44.0650 C   0  0  0  0  0  0  0  0  0  0  0  0
   36.4870   27.2700   43.2600 C   0  0  0  0  0  0  0  0  0  0  0  0
   36.2600   27.7410   41.9990 N   0  0  0  0  0  0  0  0  0  0  0  0
   36.9280   28.8190   41.5410 C   0  0  0  0  0  0  0  0  0  0  0  0
   37.8340   29.4740   42.2870 N   0  0  0  0  0  0  0  0  0  0  0  0
   37.5130   33.0810   39.5140 C   0  0  0  0  0  0  0  0  0  0  0  0
   38.8160   33.4940   39.9570 N   0  0  0  0  0  0  0  0  0  0  0  0
   39.7830   32.5940   40.3030 C   0  0  0  0  0  0  0  0  0  0  0  0
   40.8920   33.2810   40.6750 N   0  0  0  0  0  0  0  0  0  0  0  0
   40.6870   34.5900   40.5840 C   0  0  0  0  0  0  0  0  0  0  0  0
   41.4140   35.7570   40.8160 C   0  0  0  0  0  0  0  0  0  0  0  0
   40.8100   36.9390   40.5890 N   0  0  0  0  0  0  0  0  0  0  0  0
   39.5400   37.0340   40.1510 C   0  0  0  0  0  0  0  0  0  0  0  0
   38.8310   35.9140   39.9240 N   0  0  0  0  0  0  0  0  0  0  0  0
   39.3860   34.7000   40.1340 C   0  0  0  0  0  0  0  0  0  0  0  0
   42.7540   35.6260   41.2790 N   0  0  0  0  0  0  0  0  0  0  0  0
   38.6332   32.0873   37.9593 H   0  0  0  0  0  0  0  0  0  0  0  0
   37.0675   32.7676   37.4215 H   0  0  0  0  0  0  0  0  0  0  0  0
   35.4365   27.5732   39.6300 H   0  0  0  0  0  0  0  0  0  0  0  0
   35.0578   28.5022   37.3534 H   0  0  0  0  0  0  0  0  0  0  0  0
   38.8249   29.5659   44.1567 H   0  0  0  0  0  0  0  0  0  0  0  0
   37.6263   27.5644   45.0856 H   0  0  0  0  0  0  0  0  0  0  0  0
   35.9417   26.3909   43.6340 H   0  0  0  0  0  0  0  0  0  0  0  0
   36.9038   33.9759   39.3190 H   0  0  0  0  0  0  0  0  0  0  0  0
   37.0658   32.4604   40.3045 H   0  0  0  0  0  0  0  0  0  0  0  0
   39.6802   31.4990   40.2834 H   0  0  0  0  0  0  0  0  0  0  0  0
   39.0857   38.0211   39.9801 H   0  0  0  0  0  0  0  0  0  0  0  0
   43.3206   36.4667   41.4609 H   0  0  0  0  0  0  0  0  0  0  0  0
   43.1568   34.6905   41.4321 H   0  0  0  0  0  0  0  0  0  0  0  0
  1  6  1  0
  1 14  1  0
  2 12  1  0
  3  2  2  0
  4  3  1  0
  5  4  2  0
  5  6  1  0
  6  7  2  0
  7  2  1  0
  8  9  2  0
 10  9  1  0
 11 10  2  0
 12 11  1  0
 12 13  2  0
 13  8  1  0
 14 15  1  0
 15 23  1  0
 15 16  1  0
 16 17  2  0
 18 17  1  0
 18 19  2  0
 19 24  1  0
 20 19  1  0
 21 20  2  0
 22 23  2  0
 22 21  1  0
 23 18  1  0
  1 25  1  0
  1 26  1  0
  3 27  1  0
  4 28  1  0
  8 29  1  0
  9 30  1  0
 10 31  1  0
 14 32  1  0
 14 33  1  0
 16 34  1  0
 21 35  1  0
 24 36  1  0
 24 37  1  0
M  ISO  8  25   8  26   8  27  14  28  14  29  14  30  14  31  14  32   8
M  ISO  3  33   8  34  14  35  14
M  END
>  <minimizedAffinity>  (1) 
-6.42638731

>  <minimizedRMSD>  (1) 
1.57180977

$$$$
