
     RDKit          3D

 27 28  0  0  0  0  0  0  0  0999 V2000
   37.2780   31.4330   48.5400 C   0  0  0  0  0  0  0  0  0  0  0  0
   37.7980   32.3370   49.5100 C   0  0  0  0  0  0  0  0  0  0  0  0
   38.7720   33.2450   49.0810 C   0  0  0  0  0  0  0  0  0  0  0  0
   39.1590   33.1990   47.7570 N   0  0  0  0  0  0  0  0  0  0  0  0
   38.6440   32.3390   46.8960 C   0  0  0  0  0  0  0  0  0  0  0  0
   37.6860   31.4330   47.2760 N   0  0  0  0  0  0  0  0  0  0  0  0
   39.0760   32.3210   45.5100 C   0  0  0  0  0  0  0  0  0  0  0  0
   40.2160   31.6490   45.0730 C   0  0  0  0  0  0  0  0  0  0  0  0
   40.3230   31.8490   43.6870 C   0  0  0  0  0  0  0  0  0  0  0  0
   39.2170   32.6430   43.3810 C   0  0  0  0  0  0  0  0  0  0  0  0
   38.5160   32.8950   44.4720 O   0  0  0  0  0  0  0  0  0  0  0  0
   38.9470   33.0930   41.9940 C   0  0  0  0  0  0  0  0  0  0  0  0
   39.3810   34.3970   41.7900 F   0  0  0  0  0  0  0  0  0  0  0  0
   39.5920   32.2550   41.0870 F   0  0  0  0  0  0  0  0  0  0  0  0
   37.6050   33.0280   41.7360 F   0  0  0  0  0  0  0  0  0  0  0  0
   36.2620   30.4930   49.0010 C   0  0  0  0  0  0  0  0  0  0  0  0
   35.0540   30.6670   48.6810 O   0  0  0  0  0  0  0  0  0  0  0  0
   36.6400   29.4140   49.7900 O   0  0  0  0  0  0  0  0  0  0  0  0
   36.5730   29.4540   51.1920 C   0  0  0  0  0  0  0  0  0  0  0  0
   37.7020   29.7430   52.0000 N   0  0  0  0  0  0  0  0  0  0  0  0
   35.4240   29.2130   51.6380 O   0  0  0  0  0  0  0  0  0  0  0  0
   37.4484   32.3219   50.5529 H   0  0  0  0  0  0  0  0  0  0  0  0
   39.2153   33.9725   49.7768 H   0  0  0  0  0  0  0  0  0  0  0  0
   40.9072   31.0670   45.7003 H   0  0  0  0  0  0  0  0  0  0  0  0
   41.0966   31.4691   43.0035 H   0  0  0  0  0  0  0  0  0  0  0  0
   37.6098   29.7624   53.0257 H   0  0  0  0  0  0  0  0  0  0  0  0
   38.6142   29.9335   51.5612 H   0  0  0  0  0  0  0  0  0  0  0  0
  1 16  1  0
  1  2  2  0
  3  2  1  0
  4  3  2  0
  5  6  2  0
  5  4  1  0
  6  1  1  0
  7  5  1  0
  8  7  2  0
  9  8  1  0
 10  9  2  0
 10 11  1  0
 11  7  1  0
 12 10  1  0
 13 12  1  0
 14 12  1  0
 15 12  1  0
 16 18  1  0
 17 16  2  0
 18 19  1  0
 19 21  2  0
 19 20  1  0
  2 22  1  0
  3 23  1  0
  8 24  1  0
  9 25  1  0
 20 26  1  0
 20 27  1  0
M  ISO  4  22  14  23  14  24  14  25  14
M  END
>  <minimizedAffinity>  (1) 
-5.73205376

>  <minimizedRMSD>  (1) 
0.746534228

$$$$
