
     RDKit          3D

 40 43  0  0  0  0  0  0  0  0999 V2000
   29.9440   27.7370   47.4360 C   0  0  0  0  0  0  0  0  0  0  0  0
   30.7800   28.3340   46.5520 C   0  0  0  0  0  0  0  0  0  0  0  0
   32.0800   28.6730   46.8750 C   0  0  0  0  0  0  0  0  0  0  0  0
   32.5560   28.3990   48.1350 C   0  0  0  0  0  0  0  0  0  0  0  0
   31.6960   27.7920   49.0240 C   0  0  0  0  0  0  0  0  0  0  0  0
   30.4050   27.4570   48.7020 C   0  0  0  0  0  0  0  0  0  0  0  0
   35.6370   29.9720   48.6950 C   0  0  0  0  0  0  0  0  0  0  0  0
   35.8440   28.8330   49.4770 C   0  0  0  0  0  0  0  0  0  0  0  0
   34.7220   28.0370   49.4060 C   0  0  0  0  0  0  0  0  0  0  0  0
   33.8660   28.6920   48.5970 N   0  0  0  0  0  0  0  0  0  0  0  0
   34.4000   29.8040   48.1930 N   0  0  0  0  0  0  0  0  0  0  0  0
   37.9530   32.7770   49.3490 C   0  0  0  0  0  0  0  0  0  0  0  0
   38.6240   32.8380   48.1170 C   0  0  0  0  0  0  0  0  0  0  0  0
   38.2760   31.9370   47.1120 C   0  0  0  0  0  0  0  0  0  0  0  0
   37.2970   31.0390   47.3810 N   0  0  0  0  0  0  0  0  0  0  0  0
   36.6610   30.9990   48.5800 C   0  0  0  0  0  0  0  0  0  0  0  0
   36.9740   31.8560   49.5730 N   0  0  0  0  0  0  0  0  0  0  0  0
   28.2860   27.3180   47.0640 S   0  0  0  0  0  0  0  0  0  0  0  0
   27.6630   26.6680   48.2700 O   0  0  0  0  0  0  0  0  0  0  0  0
   27.5670   28.5680   46.7070 O   0  0  0  0  0  0  0  0  0  0  0  0
   28.1690   26.1820   45.7690 C   0  0  0  0  0  0  0  0  0  0  0  0
   28.6290   24.8980   45.9510 C   0  0  0  0  0  0  0  0  0  0  0  0
   28.5730   23.9300   44.9710 C   0  0  0  0  0  0  0  0  0  0  0  0
   28.0240   24.2810   43.7490 C   0  0  0  0  0  0  0  0  0  0  0  0
   27.5320   25.5640   43.4820 C   0  0  0  0  0  0  0  0  0  0  0  0
   27.6390   26.4440   44.5270 C   0  0  0  0  0  0  0  0  0  0  0  0
   30.4101   28.5568   45.5403 H   0  0  0  0  0  0  0  0  0  0  0  0
   32.7283   29.1579   46.1303 H   0  0  0  0  0  0  0  0  0  0  0  0
   32.0606   27.5659   50.0369 H   0  0  0  0  0  0  0  0  0  0  0  0
   29.7505   26.9735   49.4422 H   0  0  0  0  0  0  0  0  0  0  0  0
   36.7531   28.6088   50.0543 H   0  0  0  0  0  0  0  0  0  0  0  0
   34.5590   27.0702   49.9047 H   0  0  0  0  0  0  0  0  0  0  0  0
   38.2222   33.4847   50.1469 H   0  0  0  0  0  0  0  0  0  0  0  0
   39.4127   33.5858   47.9475 H   0  0  0  0  0  0  0  0  0  0  0  0
   38.7788   31.9542   46.1338 H   0  0  0  0  0  0  0  0  0  0  0  0
   29.0626   24.6309   46.9260 H   0  0  0  0  0  0  0  0  0  0  0  0
   28.9515   22.9134   45.1535 H   0  0  0  0  0  0  0  0  0  0  0  0
   27.9725   23.5206   42.9558 H   0  0  0  0  0  0  0  0  0  0  0  0
   27.0949   25.8432   42.5120 H   0  0  0  0  0  0  0  0  0  0  0  0
   27.2629   27.4633   44.3552 H   0  0  0  0  0  0  0  0  0  0  0  0
  1  6  2  0
  2  3  2  0
  2  1  1  0
  3  4  1  0
  4 10  1  0
  4  5  2  0
  6  5  1  0
  7  8  1  0
  9  8  2  0
 10  9  1  0
 11 10  1  0
 11  7  2  0
 12 17  2  0
 13 12  1  0
 14 15  1  0
 14 13  2  0
 15 16  2  0
 16  7  1  0
 16 17  1  0
 18  1  1  0
 18 19  2  0
 20 18  2  0
 21 22  2  0
 21 18  1  0
 23 22  1  0
 24 23  2  0
 25 24  1  0
 25 26  2  0
 26 21  1  0
  2 27  1  0
  3 28  1  0
  5 29  1  0
  6 30  1  0
  8 31  1  0
  9 32  1  0
 12 33  1  0
 13 34  1  0
 14 35  1  0
 22 36  1  0
 23 37  1  0
 24 38  1  0
 25 39  1  0
 26 40  1  0
M  ISO  8  27  14  28  14  29  14  30  14  31  14  32  14  33  14  34  14
M  ISO  6  35  14  36  14  37  14  38  14  39  14  40  14
M  END
>  <minimizedAffinity>  (1) 
-5.97765255

>  <minimizedRMSD>  (1) 
1.59711635

$$$$
