
     RDKit          3D

 27 28  0  0  0  0  0  0  0  0999 V2000
   37.2790   31.4410   48.5460 C   0  0  0  0  0  0  0  0  0  0  0  0
   37.7670   32.3480   49.5020 C   0  0  0  0  0  0  0  0  0  0  0  0
   38.7410   33.2590   49.0950 C   0  0  0  0  0  0  0  0  0  0  0  0
   39.1630   33.2060   47.7760 N   0  0  0  0  0  0  0  0  0  0  0  0
   38.6550   32.3150   46.9160 C   0  0  0  0  0  0  0  0  0  0  0  0
   37.7080   31.4210   47.2900 N   0  0  0  0  0  0  0  0  0  0  0  0
   39.1280   32.2940   45.5320 C   0  0  0  0  0  0  0  0  0  0  0  0
   40.2160   31.5490   45.1230 C   0  0  0  0  0  0  0  0  0  0  0  0
   40.3690   31.7770   43.7460 C   0  0  0  0  0  0  0  0  0  0  0  0
   39.3410   32.6610   43.4140 C   0  0  0  0  0  0  0  0  0  0  0  0
   38.6530   32.9260   44.4940 O   0  0  0  0  0  0  0  0  0  0  0  0
   39.0790   33.2090   42.0500 C   0  0  0  0  0  0  0  0  0  0  0  0
   36.2620   30.5020   49.0010 C   0  0  0  0  0  0  0  0  0  0  0  0
   35.0500   30.6730   48.6730 O   0  0  0  0  0  0  0  0  0  0  0  0
   36.6250   29.4200   49.7930 O   0  0  0  0  0  0  0  0  0  0  0  0
   36.5740   29.4560   51.1830 C   0  0  0  0  0  0  0  0  0  0  0  0
   37.6970   29.7410   52.0030 N   0  0  0  0  0  0  0  0  0  0  0  0
   35.4320   29.2120   51.6460 O   0  0  0  0  0  0  0  0  0  0  0  0
   37.3932   32.3396   50.5365 H   0  0  0  0  0  0  0  0  0  0  0  0
   39.1602   33.9948   49.7970 H   0  0  0  0  0  0  0  0  0  0  0  0
   40.8423   30.9015   45.7543 H   0  0  0  0  0  0  0  0  0  0  0  0
   41.1313   31.3524   43.0762 H   0  0  0  0  0  0  0  0  0  0  0  0
   38.6060   34.1983   42.1369 H   0  0  0  0  0  0  0  0  0  0  0  0
   40.0293   33.3036   41.5041 H   0  0  0  0  0  0  0  0  0  0  0  0
   38.4087   32.5288   41.5041 H   0  0  0  0  0  0  0  0  0  0  0  0
   37.5964   29.7531   53.0280 H   0  0  0  0  0  0  0  0  0  0  0  0
   38.6125   29.9357   51.5730 H   0  0  0  0  0  0  0  0  0  0  0  0
  1 13  1  0
  1  2  2  0
  3  2  1  0
  4  3  2  0
  5  6  2  0
  5  4  1  0
  6  1  1  0
  7  5  1  0
  8  7  2  0
  9  8  1  0
 10  9  2  0
 10 11  1  0
 11  7  1  0
 12 10  1  0
 13 15  1  0
 14 13  2  0
 15 16  1  0
 16 18  2  0
 16 17  1  0
  2 19  1  0
  3 20  1  0
  8 21  1  0
  9 22  1  0
 12 23  1  0
 12 24  1  0
 12 25  1  0
 17 26  1  0
 17 27  1  0
M  ISO  7  19  14  20  14  21  14  22  14  23   8  24   8  25   8
M  END
>  <minimizedAffinity>  (1) 
-5.55604315

>  <minimizedRMSD>  (1) 
0.396866739

$$$$
