
     RDKit          3D

 25 26  0  0  0  0  0  0  0  0999 V2000
   37.2830   31.4400   48.5520 C   0  0  0  0  0  0  0  0  0  0  0  0
   37.7800   32.3470   49.5020 C   0  0  0  0  0  0  0  0  0  0  0  0
   38.7520   33.2590   49.0860 C   0  0  0  0  0  0  0  0  0  0  0  0
   39.1540   33.2020   47.7690 N   0  0  0  0  0  0  0  0  0  0  0  0
   38.6490   32.3230   46.9130 C   0  0  0  0  0  0  0  0  0  0  0  0
   37.6920   31.4090   47.2840 N   0  0  0  0  0  0  0  0  0  0  0  0
   39.1050   32.2980   45.5220 C   0  0  0  0  0  0  0  0  0  0  0  0
   40.2200   31.6150   45.0960 C   0  0  0  0  0  0  0  0  0  0  0  0
   40.3530   31.8090   43.7240 C   0  0  0  0  0  0  0  0  0  0  0  0
   39.2720   32.6280   43.3900 C   0  0  0  0  0  0  0  0  0  0  0  0
   38.5920   32.8720   44.4740 O   0  0  0  0  0  0  0  0  0  0  0  0
   38.8370   33.2680   41.7590 S   0  0  0  0  0  0  0  0  0  0  0  0
   36.2720   30.4990   49.0080 C   0  0  0  0  0  0  0  0  0  0  0  0
   35.0490   30.6820   48.6800 O   0  0  0  0  0  0  0  0  0  0  0  0
   36.6430   29.4090   49.7990 O   0  0  0  0  0  0  0  0  0  0  0  0
   36.5690   29.4540   51.1910 C   0  0  0  0  0  0  0  0  0  0  0  0
   37.7030   29.7470   52.0030 N   0  0  0  0  0  0  0  0  0  0  0  0
   35.4210   29.2130   51.6410 O   0  0  0  0  0  0  0  0  0  0  0  0
   37.4155   32.3392   50.5398 H   0  0  0  0  0  0  0  0  0  0  0  0
   39.1804   33.9947   49.7826 H   0  0  0  0  0  0  0  0  0  0  0  0
   40.8915   31.0179   45.7305 H   0  0  0  0  0  0  0  0  0  0  0  0
   41.1305   31.4093   43.0564 H   0  0  0  0  0  0  0  0  0  0  0  0
   38.0710   34.3950   41.9001 H   0  0  0  0  0  0  0  0  0  0  0  0
   37.6097   29.7714   53.0285 H   0  0  0  0  0  0  0  0  0  0  0  0
   38.6159   29.9344   51.5644 H   0  0  0  0  0  0  0  0  0  0  0  0
  1 13  1  0
  1  2  2  0
  3  2  1  0
  4  3  2  0
  5  6  2  0
  5  4  1  0
  6  1  1  0
  7  5  1  0
  8  7  2  0
  9  8  1  0
 10  9  2  0
 10 11  1  0
 11  7  1  0
 12 10  1  0
 13 15  1  0
 14 13  2  0
 15 16  1  0
 16 18  2  0
 16 17  1  0
  2 19  1  0
  3 20  1  0
  8 21  1  0
  9 22  1  0
 12 23  1  0
 17 24  1  0
 17 25  1  0
M  ISO  5  19  14  20  14  21  14  22  14  23  11
M  END
>  <minimizedAffinity>  (1) 
-5.53137827

>  <minimizedRMSD>  (1) 
0.459078133

$$$$
