
     RDKit          3D

 36 37  0  0  0  0  0  0  0  0999 V2000
   37.1600   31.3700   48.5930 C   0  0  0  0  0  0  0  0  0  0  0  0
   37.5990   32.4150   49.4380 C   0  0  0  0  0  0  0  0  0  0  0  0
   38.6070   33.2500   48.9680 C   0  0  0  0  0  0  0  0  0  0  0  0
   39.1070   32.9970   47.7090 N   0  0  0  0  0  0  0  0  0  0  0  0
   38.6550   31.9930   46.9480 C   0  0  0  0  0  0  0  0  0  0  0  0
   37.6730   31.1590   47.3760 N   0  0  0  0  0  0  0  0  0  0  0  0
   39.2240   31.7770   45.6270 C   0  0  0  0  0  0  0  0  0  0  0  0
   40.5230   31.3030   45.4420 C   0  0  0  0  0  0  0  0  0  0  0  0
   40.7250   31.2210   44.0480 C   0  0  0  0  0  0  0  0  0  0  0  0
   39.5210   31.6560   43.4890 C   0  0  0  0  0  0  0  0  0  0  0  0
   38.6970   31.9620   44.4550 O   0  0  0  0  0  0  0  0  0  0  0  0
   39.2050   31.7630   42.0260 C   0  0  0  0  0  0  0  0  0  0  0  0
   40.3120   31.1350   41.2100 C   0  0  0  0  0  0  0  0  0  0  0  0
   38.9660   33.1840   41.6340 C   0  0  0  0  0  0  0  0  0  0  0  0
   37.9350   30.9820   41.7020 C   0  0  0  0  0  0  0  0  0  0  0  0
   36.1040   30.5030   49.0990 C   0  0  0  0  0  0  0  0  0  0  0  0
   34.8950   30.7580   48.8370 O   0  0  0  0  0  0  0  0  0  0  0  0
   36.4380   29.3970   49.8690 O   0  0  0  0  0  0  0  0  0  0  0  0
   36.5010   29.4440   51.2610 C   0  0  0  0  0  0  0  0  0  0  0  0
   37.6840   29.7320   51.9730 N   0  0  0  0  0  0  0  0  0  0  0  0
   35.4020   29.2060   51.8110 O   0  0  0  0  0  0  0  0  0  0  0  0
   37.1577   32.5628   50.4347 H   0  0  0  0  0  0  0  0  0  0  0  0
   38.9907   34.0810   49.5782 H   0  0  0  0  0  0  0  0  0  0  0  0
   41.2473   31.0441   46.2283 H   0  0  0  0  0  0  0  0  0  0  0  0
   41.6300   30.8883   43.5187 H   0  0  0  0  0  0  0  0  0  0  0  0
   41.0673   30.7065   41.8852 H   0  0  0  0  0  0  0  0  0  0  0  0
   39.8939   30.3396   40.5756 H   0  0  0  0  0  0  0  0  0  0  0  0
   40.7802   31.9020   40.5756 H   0  0  0  0  0  0  0  0  0  0  0  0
   38.8622   33.8014   42.5385 H   0  0  0  0  0  0  0  0  0  0  0  0
   39.8156   33.5476   41.0374 H   0  0  0  0  0  0  0  0  0  0  0  0
   38.0442   33.2497   41.0374 H   0  0  0  0  0  0  0  0  0  0  0  0
   37.4422   30.6789   42.6376 H   0  0  0  0  0  0  0  0  0  0  0  0
   37.2531   31.6170   41.1174 H   0  0  0  0  0  0  0  0  0  0  0  0
   38.1941   30.0869   41.1174 H   0  0  0  0  0  0  0  0  0  0  0  0
   37.6730   29.7536   53.0027 H   0  0  0  0  0  0  0  0  0  0  0  0
   38.5589   29.9208   51.4632 H   0  0  0  0  0  0  0  0  0  0  0  0
  1 16  1  0
  1  2  2  0
  3  2  1  0
  4  3  2  0
  5  6  2  0
  5  4  1  0
  6  1  1  0
  7  5  1  0
  8  7  2  0
  9  8  1  0
 10  9  2  0
 10 11  1  0
 11  7  1  0
 12 10  1  0
 13 12  1  0
 14 12  1  0
 15 12  1  0
 16 18  1  0
 17 16  2  0
 18 19  1  0
 19 21  2  0
 19 20  1  0
  2 22  1  0
  3 23  1  0
  8 24  1  0
  9 25  1  0
 13 26  1  0
 13 27  1  0
 13 28  1  0
 14 29  1  0
 14 30  1  0
 14 31  1  0
 15 32  1  0
 15 33  1  0
 15 34  1  0
 20 35  1  0
 20 36  1  0
M  ISO  8  22  14  23  14  24  14  25  14  26   8  27   8  28   8  29   8
M  ISO  5  30   8  31   8  32   8  33   8  34   8
M  END
>  <minimizedAffinity>  (1) 
-5.52915382

>  <minimizedRMSD>  (1) 
1.0795927

$$$$
