
     RDKit          3D

 38 41  0  0  0  0  0  0  0  0999 V2000
   39.3240   31.8590   45.6910 C   0  0  0  0  0  0  0  0  0  0  0  0
   40.6090   31.3560   45.5210 C   0  0  0  0  0  0  0  0  0  0  0  0
   40.8740   31.3110   44.1550 C   0  0  0  0  0  0  0  0  0  0  0  0
   39.6980   31.8030   43.5650 C   0  0  0  0  0  0  0  0  0  0  0  0
   38.8410   32.1020   44.5030 O   0  0  0  0  0  0  0  0  0  0  0  0
   39.4770   31.9540   42.1380 C   0  0  0  0  0  0  0  0  0  0  0  0
   40.0660   31.2030   41.1550 C   0  0  0  0  0  0  0  0  0  0  0  0
   39.5620   31.6990   39.9780 C   0  0  0  0  0  0  0  0  0  0  0  0
   38.7030   32.7070   40.2290 N   0  0  0  0  0  0  0  0  0  0  0  0
   38.6670   32.8450   41.5480 N   0  0  0  0  0  0  0  0  0  0  0  0
   36.3810   34.8710   38.5460 N   0  0  0  0  0  0  0  0  0  0  0  0
   36.6050   34.0100   39.5170 N   0  0  0  0  0  0  0  0  0  0  0  0
   37.8850   33.5960   39.4780 C   0  0  0  0  0  0  0  0  0  0  0  0
   38.4470   34.2740   38.3930 C   0  0  0  0  0  0  0  0  0  0  0  0
   37.4780   35.0910   37.7990 C   0  0  0  0  0  0  0  0  0  0  0  0
   37.1700   31.3680   48.5840 C   0  0  0  0  0  0  0  0  0  0  0  0
   37.5520   32.4200   49.4640 C   0  0  0  0  0  0  0  0  0  0  0  0
   38.5570   33.2800   49.0250 C   0  0  0  0  0  0  0  0  0  0  0  0
   39.1090   33.0600   47.7840 N   0  0  0  0  0  0  0  0  0  0  0  0
   38.7090   32.0460   46.9900 C   0  0  0  0  0  0  0  0  0  0  0  0
   37.7380   31.1970   47.3880 N   0  0  0  0  0  0  0  0  0  0  0  0
   36.1280   30.4810   49.0500 C   0  0  0  0  0  0  0  0  0  0  0  0
   34.9270   30.7160   48.7370 O   0  0  0  0  0  0  0  0  0  0  0  0
   36.4740   29.3740   49.8420 O   0  0  0  0  0  0  0  0  0  0  0  0
   36.5100   29.4410   51.2330 C   0  0  0  0  0  0  0  0  0  0  0  0
   37.6820   29.7360   51.9630 N   0  0  0  0  0  0  0  0  0  0  0  0
   35.3990   29.2140   51.7650 O   0  0  0  0  0  0  0  0  0  0  0  0
   41.2950   31.0480   46.3239 H   0  0  0  0  0  0  0  0  0  0  0  0
   41.7917   30.9693   43.6538 H   0  0  0  0  0  0  0  0  0  0  0  0
   40.7862   30.3812   41.2813 H   0  0  0  0  0  0  0  0  0  0  0  0
   39.8216   31.3276   38.9756 H   0  0  0  0  0  0  0  0  0  0  0  0
   35.4712   35.3236   38.3779 H   0  0  0  0  0  0  0  0  0  0  0  0
   39.4903   34.1801   38.0574 H   0  0  0  0  0  0  0  0  0  0  0  0
   37.5874   35.7548   36.9287 H   0  0  0  0  0  0  0  0  0  0  0  0
   37.0750   32.5483   50.4469 H   0  0  0  0  0  0  0  0  0  0  0  0
   38.9004   34.1139   49.6549 H   0  0  0  0  0  0  0  0  0  0  0  0
   37.6523   29.7729   52.9919 H   0  0  0  0  0  0  0  0  0  0  0  0
   38.5667   29.9143   51.4666 H   0  0  0  0  0  0  0  0  0  0  0  0
  1 20  1  0
  2  1  2  0
  3  2  1  0
  4  3  2  0
  4  5  1  0
  5  1  1  0
  6  4  1  0
  7  6  1  0
  8  9  1  0
  8  7  2  0
  9 10  1  0
 10  6  2  0
 11 12  1  0
 13 12  2  0
 13  9  1  0
 14 13  1  0
 15 14  2  0
 15 11  1  0
 16 22  1  0
 16 17  2  0
 18 17  1  0
 19 18  2  0
 20 21  2  0
 20 19  1  0
 21 16  1  0
 22 24  1  0
 23 22  2  0
 24 25  1  0
 25 27  2  0
 25 26  1  0
  2 28  1  0
  3 29  1  0
  7 30  1  0
  8 31  1  0
 11 32  1  0
 14 33  1  0
 15 34  1  0
 17 35  1  0
 18 36  1  0
 26 37  1  0
 26 38  1  0
M  ISO  8  28  14  29  14  30  14  31  14  32   9  33  14  34  14  35  14
M  ISO  1  36  14
M  END
>  <minimizedAffinity>  (1) 
-6.16327047

>  <minimizedRMSD>  (1) 
0.926677525

$$$$
