
     RDKit          3D

 39 42  0  0  0  0  0  0  0  0999 V2000
   39.1380   32.1420   45.5620 C   0  0  0  0  0  0  0  0  0  0  0  0
   40.3880   31.6400   45.2460 C   0  0  0  0  0  0  0  0  0  0  0  0
   40.5290   31.6980   43.8600 C   0  0  0  0  0  0  0  0  0  0  0  0
   39.3160   32.2490   43.4190 C   0  0  0  0  0  0  0  0  0  0  0  0
   38.5360   32.4910   44.4530 O   0  0  0  0  0  0  0  0  0  0  0  0
   37.2300   31.4440   48.5910 C   0  0  0  0  0  0  0  0  0  0  0  0
   37.7130   32.4070   49.5120 C   0  0  0  0  0  0  0  0  0  0  0  0
   38.6950   33.2830   49.0650 C   0  0  0  0  0  0  0  0  0  0  0  0
   39.1360   33.1650   47.7650 N   0  0  0  0  0  0  0  0  0  0  0  0
   38.6460   32.2350   46.9280 C   0  0  0  0  0  0  0  0  0  0  0  0
   37.6800   31.3530   47.3270 N   0  0  0  0  0  0  0  0  0  0  0  0
   36.2070   30.5370   49.0670 C   0  0  0  0  0  0  0  0  0  0  0  0
   34.9870   30.7550   48.7780 O   0  0  0  0  0  0  0  0  0  0  0  0
   36.5690   29.4260   49.8400 O   0  0  0  0  0  0  0  0  0  0  0  0
   36.5520   29.4570   51.2390 C   0  0  0  0  0  0  0  0  0  0  0  0
   37.6930   29.7430   52.0160 N   0  0  0  0  0  0  0  0  0  0  0  0
   35.4350   29.2060   51.7250 O   0  0  0  0  0  0  0  0  0  0  0  0
   38.9750   32.5110   42.0240 C   0  0  0  0  0  0  0  0  0  0  0  0
   39.5250   31.8810   40.9390 C   0  0  0  0  0  0  0  0  0  0  0  0
   38.8830   32.4710   39.8650 C   0  0  0  0  0  0  0  0  0  0  0  0
   37.9990   33.4010   40.2740 N   0  0  0  0  0  0  0  0  0  0  0  0
   38.0680   33.4130   41.5990 N   0  0  0  0  0  0  0  0  0  0  0  0
   37.1610   34.2090   39.4600 C   0  0  0  0  0  0  0  0  0  0  0  0
   35.8540   34.4290   39.8450 C   0  0  0  0  0  0  0  0  0  0  0  0
   34.9880   35.2040   39.0960 C   0  0  0  0  0  0  0  0  0  0  0  0
   35.4950   35.7410   37.9590 N   0  0  0  0  0  0  0  0  0  0  0  0
   36.7800   35.5140   37.6010 C   0  0  0  0  0  0  0  0  0  0  0  0
   37.6440   34.7500   38.3310 N   0  0  0  0  0  0  0  0  0  0  0  0
   41.1356   31.2631   45.9594 H   0  0  0  0  0  0  0  0  0  0  0  0
   41.3911   31.3845   43.2530 H   0  0  0  0  0  0  0  0  0  0  0  0
   37.3258   32.4590   50.5403 H   0  0  0  0  0  0  0  0  0  0  0  0
   39.1102   34.0520   49.7330 H   0  0  0  0  0  0  0  0  0  0  0  0
   37.6268   29.7532   53.0438 H   0  0  0  0  0  0  0  0  0  0  0  0
   38.5928   29.9417   51.5559 H   0  0  0  0  0  0  0  0  0  0  0  0
   40.2935   31.0941   40.9251 H   0  0  0  0  0  0  0  0  0  0  0  0
   39.0705   32.2136   38.8121 H   0  0  0  0  0  0  0  0  0  0  0  0
   35.4897   33.9732   40.7775 H   0  0  0  0  0  0  0  0  0  0  0  0
   33.9463   35.3753   39.4052 H   0  0  0  0  0  0  0  0  0  0  0  0
   37.1486   35.9703   36.6704 H   0  0  0  0  0  0  0  0  0  0  0  0
  1 10  1  0
  2  1  2  0
  3  2  1  0
  4  3  2  0
  4  5  1  0
  5  1  1  0
  6 12  1  0
  6  7  2  0
  8  7  1  0
  9  8  2  0
 10 11  2  0
 10  9  1  0
 11  6  1  0
 12 14  1  0
 13 12  2  0
 14 15  1  0
 15 17  2  0
 15 16  1  0
 18  4  1  0
 19 18  1  0
 20 21  1  0
 20 19  2  0
 21 22  1  0
 22 18  2  0
 23 24  2  0
 23 21  1  0
 25 24  1  0
 26 25  2  0
 27 26  1  0
 27 28  2  0
 28 23  1  0
  2 29  1  0
  3 30  1  0
  7 31  1  0
  8 32  1  0
 16 33  1  0
 16 34  1  0
 19 35  1  0
 20 36  1  0
 24 37  1  0
 25 38  1  0
 27 39  1  0
M  ISO  8  29  14  30  14  31  14  32  14  35  14  36  14  37  14  38  14
M  ISO  1  39  14
M  END
>  <minimizedAffinity>  (1) 
-6.03091335

>  <minimizedRMSD>  (1) 
0.920016885

$$$$
