
     RDKit          3D

 40 43  0  0  0  0  0  0  0  0999 V2000
   39.2490   31.8970   45.5710 C   0  0  0  0  0  0  0  0  0  0  0  0
   40.5120   31.3250   45.3510 C   0  0  0  0  0  0  0  0  0  0  0  0
   40.7410   31.3060   43.9780 C   0  0  0  0  0  0  0  0  0  0  0  0
   39.5990   31.8720   43.4360 C   0  0  0  0  0  0  0  0  0  0  0  0
   38.7620   32.1980   44.4090 O   0  0  0  0  0  0  0  0  0  0  0  0
   37.2070   31.3900   48.5360 C   0  0  0  0  0  0  0  0  0  0  0  0
   37.6430   32.4320   49.4180 C   0  0  0  0  0  0  0  0  0  0  0  0
   38.6440   33.2830   48.9510 C   0  0  0  0  0  0  0  0  0  0  0  0
   39.1340   33.0620   47.6810 N   0  0  0  0  0  0  0  0  0  0  0  0
   38.6880   32.0740   46.8990 C   0  0  0  0  0  0  0  0  0  0  0  0
   37.7210   31.2270   47.3150 N   0  0  0  0  0  0  0  0  0  0  0  0
   36.1660   30.5110   49.0320 C   0  0  0  0  0  0  0  0  0  0  0  0
   34.9660   30.7340   48.7520 O   0  0  0  0  0  0  0  0  0  0  0  0
   36.5150   29.4090   49.8240 O   0  0  0  0  0  0  0  0  0  0  0  0
   36.5310   29.4620   51.2250 C   0  0  0  0  0  0  0  0  0  0  0  0
   37.6790   29.7700   51.9780 N   0  0  0  0  0  0  0  0  0  0  0  0
   35.4300   29.2120   51.7380 O   0  0  0  0  0  0  0  0  0  0  0  0
   39.3270   32.0870   42.0230 C   0  0  0  0  0  0  0  0  0  0  0  0
   39.9430   31.4160   41.0000 C   0  0  0  0  0  0  0  0  0  0  0  0
   39.3920   31.9260   39.8490 C   0  0  0  0  0  0  0  0  0  0  0  0
   38.4830   32.8650   40.1640 N   0  0  0  0  0  0  0  0  0  0  0  0
   38.4480   32.9590   41.4790 N   0  0  0  0  0  0  0  0  0  0  0  0
   37.5890   33.7460   39.4800 C   0  0  0  0  0  0  0  0  0  0  0  0
   36.3140   33.9020   39.9830 C   0  0  0  0  0  0  0  0  0  0  0  0
   35.4090   34.7530   39.3460 C   0  0  0  0  0  0  0  0  0  0  0  0
   35.8500   35.4160   38.2100 C   0  0  0  0  0  0  0  0  0  0  0  0
   37.1310   35.2610   37.7020 C   0  0  0  0  0  0  0  0  0  0  0  0
   37.9580   34.4290   38.3570 N   0  0  0  0  0  0  0  0  0  0  0  0
   41.1995   30.9567   46.1267 H   0  0  0  0  0  0  0  0  0  0  0  0
   41.6262   30.9280   43.4455 H   0  0  0  0  0  0  0  0  0  0  0  0
   37.2068   32.5552   50.4203 H   0  0  0  0  0  0  0  0  0  0  0  0
   39.0298   34.1030   49.5746 H   0  0  0  0  0  0  0  0  0  0  0  0
   37.6292   29.7938   53.0065 H   0  0  0  0  0  0  0  0  0  0  0  0
   38.5692   29.9717   51.5007 H   0  0  0  0  0  0  0  0  0  0  0  0
   40.7140   30.6357   41.0822 H   0  0  0  0  0  0  0  0  0  0  0  0
   39.6543   31.6140   38.8273 H   0  0  0  0  0  0  0  0  0  0  0  0
   36.0099   33.3549   40.8876 H   0  0  0  0  0  0  0  0  0  0  0  0
   34.3874   34.8922   39.7294 H   0  0  0  0  0  0  0  0  0  0  0  0
   35.1550   36.0924   37.6909 H   0  0  0  0  0  0  0  0  0  0  0  0
   37.4570   35.7978   36.7989 H   0  0  0  0  0  0  0  0  0  0  0  0
  1 10  1  0
  2  1  2  0
  3  2  1  0
  4  3  2  0
  4  5  1  0
  5  1  1  0
  6 12  1  0
  6  7  2  0
  8  7  1  0
  9  8  2  0
 10 11  2  0
 10  9  1  0
 11  6  1  0
 12 14  1  0
 13 12  2  0
 14 15  1  0
 15 17  2  0
 15 16  1  0
 18  4  1  0
 19 18  1  0
 20 21  1  0
 20 19  2  0
 21 22  1  0
 22 18  2  0
 23 24  2  0
 23 21  1  0
 25 24  1  0
 26 25  2  0
 27 26  1  0
 27 28  2  0
 28 23  1  0
  2 29  1  0
  3 30  1  0
  7 31  1  0
  8 32  1  0
 16 33  1  0
 16 34  1  0
 19 35  1  0
 20 36  1  0
 24 37  1  0
 25 38  1  0
 26 39  1  0
 27 40  1  0
M  ISO  8  29  14  30  14  31  14  32  14  35  14  36  14  37  14  38  14
M  ISO  2  39  14  40  14
M  END
>  <minimizedAffinity>  (1) 
-5.96581841

>  <minimizedRMSD>  (1) 
0.991858184

$$$$
