
     RDKit          3D

 47 50  0  0  0  0  0  0  0  0999 V2000
   39.3320   31.8650   45.7220 C   0  0  0  0  0  0  0  0  0  0  0  0
   40.5890   31.2950   45.5650 C   0  0  0  0  0  0  0  0  0  0  0  0
   40.8780   31.2640   44.2020 C   0  0  0  0  0  0  0  0  0  0  0  0
   39.7610   31.8250   43.6060 C   0  0  0  0  0  0  0  0  0  0  0  0
   38.8980   32.1540   44.5430 O   0  0  0  0  0  0  0  0  0  0  0  0
   37.1620   31.3760   48.6090 C   0  0  0  0  0  0  0  0  0  0  0  0
   37.5400   32.4230   49.4870 C   0  0  0  0  0  0  0  0  0  0  0  0
   38.5460   33.2830   49.0580 C   0  0  0  0  0  0  0  0  0  0  0  0
   39.1050   33.0550   47.8080 N   0  0  0  0  0  0  0  0  0  0  0  0
   38.7100   32.0550   47.0260 C   0  0  0  0  0  0  0  0  0  0  0  0
   37.7310   31.2000   47.4170 N   0  0  0  0  0  0  0  0  0  0  0  0
   36.1090   30.4820   49.0670 C   0  0  0  0  0  0  0  0  0  0  0  0
   34.9040   30.7160   48.7570 O   0  0  0  0  0  0  0  0  0  0  0  0
   36.4260   29.3740   49.8450 O   0  0  0  0  0  0  0  0  0  0  0  0
   36.4820   29.4300   51.2390 C   0  0  0  0  0  0  0  0  0  0  0  0
   37.6710   29.7130   51.9510 N   0  0  0  0  0  0  0  0  0  0  0  0
   35.3920   29.2100   51.7940 O   0  0  0  0  0  0  0  0  0  0  0  0
   39.5500   32.0290   42.1790 C   0  0  0  0  0  0  0  0  0  0  0  0
   40.0350   31.1890   41.2000 C   0  0  0  0  0  0  0  0  0  0  0  0
   39.5980   31.7680   40.0210 C   0  0  0  0  0  0  0  0  0  0  0  0
   38.8860   32.9020   40.2820 N   0  0  0  0  0  0  0  0  0  0  0  0
   38.8820   33.0210   41.5870 N   0  0  0  0  0  0  0  0  0  0  0  0
   38.2570   33.8020   39.3500 C   0  0  0  0  0  0  0  0  0  0  0  0
   36.8740   34.2220   39.7960 C   0  0  0  0  0  0  0  0  0  0  0  0
   35.7800   33.3330   39.2600 C   0  0  0  0  0  0  0  0  0  0  0  0
   35.6160   33.5350   37.7640 C   0  0  0  0  0  0  0  0  0  0  0  0
   36.9720   33.8740   37.2100 C   0  0  0  0  0  0  0  0  0  0  0  0
   38.0810   33.1680   37.9920 C   0  0  0  0  0  0  0  0  0  0  0  0
   41.2409   30.9323   46.3734 H   0  0  0  0  0  0  0  0  0  0  0  0
   41.7855   30.8815   43.7119 H   0  0  0  0  0  0  0  0  0  0  0  0
   37.0576   32.5502   50.4674 H   0  0  0  0  0  0  0  0  0  0  0  0
   38.8874   34.1168   49.6890 H   0  0  0  0  0  0  0  0  0  0  0  0
   37.6601   29.7429   52.9805 H   0  0  0  0  0  0  0  0  0  0  0  0
   38.5478   29.8892   51.4400 H   0  0  0  0  0  0  0  0  0  0  0  0
   40.6303   30.2726   41.3260 H   0  0  0  0  0  0  0  0  0  0  0  0
   39.7969   31.3697   39.0151 H   0  0  0  0  0  0  0  0  0  0  0  0
   38.9298   34.6709   39.3024 H   0  0  0  0  0  0  0  0  0  0  0  0
   36.8384   34.1958   40.8951 H   0  0  0  0  0  0  0  0  0  0  0  0
   36.6964   35.2328   39.4001 H   0  0  0  0  0  0  0  0  0  0  0  0
   36.0383   32.2821   39.4573 H   0  0  0  0  0  0  0  0  0  0  0  0
   34.8347   33.5913   39.7597 H   0  0  0  0  0  0  0  0  0  0  0  0
   35.2384   32.6127   37.2983 H   0  0  0  0  0  0  0  0  0  0  0  0
   34.8964   34.3403   37.5552 H   0  0  0  0  0  0  0  0  0  0  0  0
   37.0186   33.5586   36.1572 H   0  0  0  0  0  0  0  0  0  0  0  0
   37.1221   34.9603   37.2963 H   0  0  0  0  0  0  0  0  0  0  0  0
   37.8157   32.1081   38.1191 H   0  0  0  0  0  0  0  0  0  0  0  0
   39.0237   33.2589   37.4324 H   0  0  0  0  0  0  0  0  0  0  0  0
  1 10  1  0
  2  1  2  0
  3  2  1  0
  4  3  2  0
  4  5  1  0
  5  1  1  0
  6 12  1  0
  6  7  2  0
  8  7  1  0
  9  8  2  0
 10 11  2  0
 10  9  1  0
 11  6  1  0
 12 14  1  0
 13 12  2  0
 14 15  1  0
 15 17  2  0
 15 16  1  0
 18  4  1  0
 19 18  1  0
 20 21  1  0
 20 19  2  0
 21 22  1  0
 22 18  2  0
 23 24  1  0
 23 21  1  0
 25 24  1  0
 26 25  1  0
 27 26  1  0
 27 28  1  0
 28 23  1  0
  2 29  1  0
  3 30  1  0
  7 31  1  0
  8 32  1  0
 16 33  1  0
 16 34  1  0
 19 35  1  0
 20 36  1  0
 23 37  1  0
 24 38  1  0
 24 39  1  0
 25 40  1  0
 25 41  1  0
 26 42  1  0
 26 43  1  0
 27 44  1  0
 27 45  1  0
 28 46  1  0
 28 47  1  0
M  ISO  8  29  14  30  14  31  14  32  14  35  14  36  14  37  13  38  13
M  ISO  8  39  13  40  13  41  13  42  13  43  13  44  13  45  13  46  13
M  ISO  1  47  13
M  END
>  <minimizedAffinity>  (1) 
-5.84293509

>  <minimizedRMSD>  (1) 
0.989126503

$$$$
