
     RDKit          3D

 38 41  0  0  0  0  0  0  0  0999 V2000
   39.3270   31.8730   45.7250 C   0  0  0  0  0  0  0  0  0  0  0  0
   40.5960   31.3000   45.5600 C   0  0  0  0  0  0  0  0  0  0  0  0
   40.8720   31.2740   44.2030 C   0  0  0  0  0  0  0  0  0  0  0  0
   39.7520   31.8350   43.6020 C   0  0  0  0  0  0  0  0  0  0  0  0
   38.8950   32.1600   44.5400 O   0  0  0  0  0  0  0  0  0  0  0  0
   37.1510   31.3580   48.5960 C   0  0  0  0  0  0  0  0  0  0  0  0
   37.5340   32.4140   49.4840 C   0  0  0  0  0  0  0  0  0  0  0  0
   38.5400   33.2750   49.0540 C   0  0  0  0  0  0  0  0  0  0  0  0
   39.1000   33.0610   47.8160 N   0  0  0  0  0  0  0  0  0  0  0  0
   38.7090   32.0600   47.0230 C   0  0  0  0  0  0  0  0  0  0  0  0
   37.7250   31.1920   47.4050 N   0  0  0  0  0  0  0  0  0  0  0  0
   36.1060   30.4750   49.0560 C   0  0  0  0  0  0  0  0  0  0  0  0
   34.9010   30.7080   48.7370 O   0  0  0  0  0  0  0  0  0  0  0  0
   36.4520   29.3710   49.8520 O   0  0  0  0  0  0  0  0  0  0  0  0
   36.4870   29.4310   51.2380 C   0  0  0  0  0  0  0  0  0  0  0  0
   37.6730   29.7160   51.9510 N   0  0  0  0  0  0  0  0  0  0  0  0
   35.3860   29.2120   51.7880 O   0  0  0  0  0  0  0  0  0  0  0  0
   39.5480   32.0370   42.1710 C   0  0  0  0  0  0  0  0  0  0  0  0
   39.9970   31.1860   41.1940 C   0  0  0  0  0  0  0  0  0  0  0  0
   39.5780   31.7760   40.0230 C   0  0  0  0  0  0  0  0  0  0  0  0
   38.9110   32.9190   40.2820 N   0  0  0  0  0  0  0  0  0  0  0  0
   38.9030   33.0610   41.5840 N   0  0  0  0  0  0  0  0  0  0  0  0
   38.3010   33.8510   39.3510 C   0  0  0  0  0  0  0  0  0  0  0  0
   37.2900   33.3440   38.3670 C   0  0  0  0  0  0  0  0  0  0  0  0
   36.8850   34.2080   39.5330 C   0  0  0  0  0  0  0  0  0  0  0  0
   41.2537   30.9367   46.3634 H   0  0  0  0  0  0  0  0  0  0  0  0
   41.7784   30.8931   43.7097 H   0  0  0  0  0  0  0  0  0  0  0  0
   37.0532   32.5397   50.4654 H   0  0  0  0  0  0  0  0  0  0  0  0
   38.8790   34.1067   49.6892 H   0  0  0  0  0  0  0  0  0  0  0  0
   37.6591   29.7519   52.9803 H   0  0  0  0  0  0  0  0  0  0  0  0
   38.5515   29.8879   51.4415 H   0  0  0  0  0  0  0  0  0  0  0  0
   40.5609   30.2496   41.3173 H   0  0  0  0  0  0  0  0  0  0  0  0
   39.7616   31.3716   39.0166 H   0  0  0  0  0  0  0  0  0  0  0  0
   39.2389   34.4197   39.2673 H   0  0  0  0  0  0  0  0  0  0  0  0
   37.2629   33.7466   37.3437 H   0  0  0  0  0  0  0  0  0  0  0  0
   36.9957   32.3570   37.9808 H   0  0  0  0  0  0  0  0  0  0  0  0
   36.3120   33.7733   40.3653 H   0  0  0  0  0  0  0  0  0  0  0  0
   36.3315   35.1522   39.6429 H   0  0  0  0  0  0  0  0  0  0  0  0
  1 10  1  0
  2  1  2  0
  3  2  1  0
  4  3  2  0
  4  5  1  0
  5  1  1  0
  6 12  1  0
  6  7  2  0
  8  7  1  0
  9  8  2  0
 10 11  2  0
 10  9  1  0
 11  6  1  0
 12 14  1  0
 13 12  2  0
 14 15  1  0
 15 17  2  0
 15 16  1  0
 18  4  1  0
 19 18  1  0
 20 21  1  0
 20 19  2  0
 21 22  1  0
 22 18  2  0
 23 25  1  0
 23 21  1  0
 24 23  1  0
 24 25  1  0
  2 26  1  0
  3 27  1  0
  7 28  1  0
  8 29  1  0
 16 30  1  0
 16 31  1  0
 19 32  1  0
 20 33  1  0
 23 34  1  0
 24 35  1  0
 24 36  1  0
 25 37  1  0
 25 38  1  0
M  ISO  8  26  14  27  14  28  14  29  14  32  14  33  14  34  13  35  13
M  ISO  3  36  13  37  13  38  13
M  END
>  <minimizedAffinity>  (1) 
-5.73647594

>  <minimizedRMSD>  (1) 
0.60850656

$$$$
