
     RDKit          3D

 27 29  0  0  0  0  0  0  0  0999 V2000
   38.1280   33.1240   49.3210 C   0  0  0  0  0  0  0  0  0  0  0  0
   38.9480   33.0980   48.1760 C   0  0  0  0  0  0  0  0  0  0  0  0
   38.8530   31.9900   47.3230 C   0  0  0  0  0  0  0  0  0  0  0  0
   37.9820   31.0130   47.6460 N   0  0  0  0  0  0  0  0  0  0  0  0
   37.2060   31.0600   48.7490 C   0  0  0  0  0  0  0  0  0  0  0  0
   37.2810   32.1150   49.5810 N   0  0  0  0  0  0  0  0  0  0  0  0
   36.2970   29.9840   49.0350 N   0  0  0  0  0  0  0  0  0  0  0  0
   36.2780   28.9650   49.9130 C   0  0  0  0  0  0  0  0  0  0  0  0
   35.1520   28.2510   49.7240 N   0  0  0  0  0  0  0  0  0  0  0  0
   34.4780   28.8250   48.7340 C   0  0  0  0  0  0  0  0  0  0  0  0
   33.2590   28.4390   48.1910 C   0  0  0  0  0  0  0  0  0  0  0  0
   32.6310   27.4360   48.6150 O   0  0  0  0  0  0  0  0  0  0  0  0
   32.7120   29.1510   47.1710 N   0  0  0  0  0  0  0  0  0  0  0  0
   33.4170   30.2170   46.7480 C   0  0  0  0  0  0  0  0  0  0  0  0
   32.8180   30.9420   45.6800 N   0  0  0  0  0  0  0  0  0  0  0  0
   34.5990   30.6220   47.2480 N   0  0  0  0  0  0  0  0  0  0  0  0
   35.1790   29.9310   48.2720 C   0  0  0  0  0  0  0  0  0  0  0  0
   39.6880   31.8820   46.0860 C   0  0  0  0  0  0  0  0  0  0  0  0
   38.9010   31.8560   44.9310 F   0  0  0  0  0  0  0  0  0  0  0  0
   40.5350   32.9680   45.9480 F   0  0  0  0  0  0  0  0  0  0  0  0
   40.3850   30.6820   46.1140 F   0  0  0  0  0  0  0  0  0  0  0  0
   38.1821   33.9801   50.0096 H   0  0  0  0  0  0  0  0  0  0  0  0
   39.6423   33.9228   47.9578 H   0  0  0  0  0  0  0  0  0  0  0  0
   37.0544   28.7503   50.6620 H   0  0  0  0  0  0  0  0  0  0  0  0
   31.8106   28.8903   46.7463 H   0  0  0  0  0  0  0  0  0  0  0  0
   33.2888   31.7726   45.2936 H   0  0  0  0  0  0  0  0  0  0  0  0
   31.9136   30.6361   45.2934 H   0  0  0  0  0  0  0  0  0  0  0  0
  1  6  2  0
  2  1  1  0
  3  4  1  0
  3  2  2  0
  4  5  2  0
  5  7  1  0
  5  6  1  0
  7  8  1  0
  9  8  2  0
 10  9  1  0
 11 12  2  0
 11 10  1  0
 13 11  1  0
 14 13  1  0
 14 16  2  0
 15 14  1  0
 16 17  1  0
 17 10  2  0
 17  7  1  0
 18 21  1  0
 18  3  1  0
 19 18  1  0
 20 18  1  0
  1 22  1  0
  2 23  1  0
  8 24  1  0
 13 25  1  0
 15 26  1  0
 15 27  1  0
M  ISO  4  22  14  23  14  24  14  25   9
M  END
>  <minimizedAffinity>  (1) 
-6.73680735

>  <minimizedRMSD>  (1) 
2.17879462

$$$$
