
     RDKit          3D

 26 27  0  0  0  0  0  0  0  0999 V2000
   38.1680   33.1320   49.6640 C   0  0  0  0  0  0  0  0  0  0  0  0
   38.9620   33.2890   48.5100 C   0  0  0  0  0  0  0  0  0  0  0  0
   38.7750   32.4000   47.4350 C   0  0  0  0  0  0  0  0  0  0  0  0
   37.8280   31.4320   47.5740 N   0  0  0  0  0  0  0  0  0  0  0  0
   37.0830   31.3070   48.6910 C   0  0  0  0  0  0  0  0  0  0  0  0
   37.2490   32.1450   49.7250 N   0  0  0  0  0  0  0  0  0  0  0  0
   36.1150   30.2370   48.7070 N   0  0  0  0  0  0  0  0  0  0  0  0
   35.2030   30.3190   47.6930 C   0  0  0  0  0  0  0  0  0  0  0  0
   34.2200   29.3890   47.5620 C   0  0  0  0  0  0  0  0  0  0  0  0
   33.2300   29.4900   46.4480 C   0  0  0  0  0  0  0  0  0  0  0  0
   34.1880   28.3710   48.4920 C   0  0  0  0  0  0  0  0  0  0  0  0
   33.2920   27.4930   48.4020 O   0  0  0  0  0  0  0  0  0  0  0  0
   35.0940   28.3060   49.4860 N   0  0  0  0  0  0  0  0  0  0  0  0
   36.0600   29.2320   49.6020 C   0  0  0  0  0  0  0  0  0  0  0  0
   36.9560   29.2760   50.4820 O   0  0  0  0  0  0  0  0  0  0  0  0
   39.5740   32.4980   46.1770 C   0  0  0  0  0  0  0  0  0  0  0  0
   38.7740   32.6630   45.0690 F   0  0  0  0  0  0  0  0  0  0  0  0
   40.4310   33.5910   46.2170 F   0  0  0  0  0  0  0  0  0  0  0  0
   40.2680   31.3040   46.0010 F   0  0  0  0  0  0  0  0  0  0  0  0
   38.2974   33.8150   50.5165 H   0  0  0  0  0  0  0  0  0  0  0  0
   39.7130   34.0905   48.4508 H   0  0  0  0  0  0  0  0  0  0  0  0
   35.2649   31.1484   46.9731 H   0  0  0  0  0  0  0  0  0  0  0  0
   32.2175   29.5933   46.8655 H   0  0  0  0  0  0  0  0  0  0  0  0
   33.4629   30.3691   45.8291 H   0  0  0  0  0  0  0  0  0  0  0  0
   33.2806   28.5820   45.8291 H   0  0  0  0  0  0  0  0  0  0  0  0
   35.0456   27.5350   50.1673 H   0  0  0  0  0  0  0  0  0  0  0  0
  1  6  2  0
  2  1  1  0
  3  4  1  0
  3  2  2  0
  4  5  2  0
  5  7  1  0
  5  6  1  0
  7 14  1  0
  8  7  1  0
  9  8  2  0
  9 11  1  0
 10  9  1  0
 11 13  1  0
 12 11  2  0
 13 14  1  0
 14 15  2  0
 16 18  1  0
 16  3  1  0
 17 16  1  0
 19 16  1  0
  1 20  1  0
  2 21  1  0
  8 22  1  0
 10 23  1  0
 10 24  1  0
 10 25  1  0
 13 26  1  0
M  ISO  7  20  14  21  14  22  14  23   8  24   8  25   8  26   9
M  END
>  <minimizedAffinity>  (1) 
-6.47834921

>  <minimizedRMSD>  (1) 
2.27442622

$$$$
