
     RDKit          3D

 24 25  0  0  0  0  0  0  0  0999 V2000
   37.9010   32.7990   49.7160 C   0  0  0  0  0  0  0  0  0  0  0  0
   38.8100   33.1290   48.6810 C   0  0  0  0  0  0  0  0  0  0  0  0
   38.7140   32.4020   47.4800 C   0  0  0  0  0  0  0  0  0  0  0  0
   37.7640   31.4340   47.3820 N   0  0  0  0  0  0  0  0  0  0  0  0
   36.9230   31.1560   48.3950 C   0  0  0  0  0  0  0  0  0  0  0  0
   36.9890   31.8330   49.5550 N   0  0  0  0  0  0  0  0  0  0  0  0
   35.9300   30.1390   48.2830 N   0  0  0  0  0  0  0  0  0  0  0  0
   35.0560   30.1290   47.2610 C   0  0  0  0  0  0  0  0  0  0  0  0
   34.1090   29.1000   47.2150 C   0  0  0  0  0  0  0  0  0  0  0  0
   34.1000   28.1420   48.2020 C   0  0  0  0  0  0  0  0  0  0  0  0
   33.1660   27.0940   48.1920 N   0  0  0  0  0  0  0  0  0  0  0  0
   34.9970   28.2140   49.1860 N   0  0  0  0  0  0  0  0  0  0  0  0
   35.9250   29.2010   49.2520 C   0  0  0  0  0  0  0  0  0  0  0  0
   36.7470   29.2120   50.2110 O   0  0  0  0  0  0  0  0  0  0  0  0
   39.6240   32.6730   46.3300 C   0  0  0  0  0  0  0  0  0  0  0  0
   38.9090   32.9640   45.1670 F   0  0  0  0  0  0  0  0  0  0  0  0
   40.3930   33.8120   46.5540 F   0  0  0  0  0  0  0  0  0  0  0  0
   40.3930   31.5660   46.0670 F   0  0  0  0  0  0  0  0  0  0  0  0
   37.9455   33.3465   50.6690 H   0  0  0  0  0  0  0  0  0  0  0  0
   39.5611   33.9221   48.8109 H   0  0  0  0  0  0  0  0  0  0  0  0
   35.0847   30.9070   46.4839 H   0  0  0  0  0  0  0  0  0  0  0  0
   33.3768   29.0575   46.3952 H   0  0  0  0  0  0  0  0  0  0  0  0
   33.1770   26.3872   48.9411 H   0  0  0  0  0  0  0  0  0  0  0  0
   32.4697   27.0319   47.4356 H   0  0  0  0  0  0  0  0  0  0  0  0
  2  1  2  0
  3  2  1  0
  4  3  2  0
  4  5  1  0
  5  6  2  0
  6  1  1  0
  7  5  1  0
  7 13  1  0
  8  7  1  0
  9  8  2  0
  9 10  1  0
 10 12  2  0
 11 10  1  0
 12 13  1  0
 13 14  2  0
 15 17  1  0
 15  3  1  0
 16 15  1  0
 18 15  1  0
  1 19  1  0
  2 20  1  0
  8 21  1  0
  9 22  1  0
 11 23  1  0
 11 24  1  0
M  ISO  4  19  14  20  14  21  14  22  14
M  END
>  <minimizedAffinity>  (1) 
-6.26673746

>  <minimizedRMSD>  (1) 
2.18564892

$$$$
