
     RDKit          3D

 23 24  0  0  0  0  0  0  0  0999 V2000
   37.4950   29.4080   50.9270 C   0  0  0  0  0  0  0  0  0  0  0  0
   38.0850   30.6780   50.6880 C   0  0  0  0  0  0  0  0  0  0  0  0
   37.5150   31.4730   49.6870 C   0  0  0  0  0  0  0  0  0  0  0  0
   36.4480   30.9900   49.0150 N   0  0  0  0  0  0  0  0  0  0  0  0
   35.9140   29.7800   49.2660 C   0  0  0  0  0  0  0  0  0  0  0  0
   36.4290   28.9970   50.2100 N   0  0  0  0  0  0  0  0  0  0  0  0
   34.7590   29.3410   48.4870 C   0  0  0  0  0  0  0  0  0  0  0  0
   34.3200   30.0690   47.4010 C   0  0  0  0  0  0  0  0  0  0  0  0
   33.2530   29.7140   46.6350 C   0  0  0  0  0  0  0  0  0  0  0  0
   32.5850   28.5480   46.9890 C   0  0  0  0  0  0  0  0  0  0  0  0
   32.9610   27.7640   48.0590 C   0  0  0  0  0  0  0  0  0  0  0  0
   34.0530   28.1910   48.7870 C   0  0  0  0  0  0  0  0  0  0  0  0
   38.0450   32.8240   49.3440 C   0  0  0  0  0  0  0  0  0  0  0  0
   38.2220   32.9990   47.9780 F   0  0  0  0  0  0  0  0  0  0  0  0
   37.1290   33.8120   49.7160 F   0  0  0  0  0  0  0  0  0  0  0  0
   39.2750   33.0120   49.9470 F   0  0  0  0  0  0  0  0  0  0  0  0
   37.9122   28.7524   51.7056 H   0  0  0  0  0  0  0  0  0  0  0  0
   38.9548   31.0227   51.2664 H   0  0  0  0  0  0  0  0  0  0  0  0
   34.8634   30.9889   47.1392 H   0  0  0  0  0  0  0  0  0  0  0  0
   32.9340   30.3217   45.7754 H   0  0  0  0  0  0  0  0  0  0  0  0
   31.7174   28.2366   46.3887 H   0  0  0  0  0  0  0  0  0  0  0  0
   32.4176   26.8438   48.3195 H   0  0  0  0  0  0  0  0  0  0  0  0
   34.3772   27.5871   49.6474 H   0  0  0  0  0  0  0  0  0  0  0  0
  2  1  2  0
  3  2  1  0
  4  5  1  0
  4  3  2  0
  5  6  2  0
  6  1  1  0
  7 12  1  0
  7  5  1  0
  8  7  2  0
  9 10  2  0
  9  8  1  0
 10 11  1  0
 11 12  2  0
 13  3  1  0
 13 15  1  0
 13 16  1  0
 14 13  1  0
  1 17  1  0
  2 18  1  0
  8 19  1  0
  9 20  1  0
 10 21  1  0
 11 22  1  0
 12 23  1  0
M  ISO  7  17  14  18  14  19  14  20  14  21  14  22  14  23  14
M  END
>  <minimizedAffinity>  (1) 
-5.68600893

>  <minimizedRMSD>  (1) 
2.04169583

$$$$
