
     RDKit          3D

 37 40  0  0  0  0  0  0  0  0999 V2000
   30.0750   27.9040   47.0990 C   0  0  0  0  0  0  0  0  0  0  0  0
   30.9180   28.6240   46.3170 C   0  0  0  0  0  0  0  0  0  0  0  0
   32.2020   28.9470   46.7070 C   0  0  0  0  0  0  0  0  0  0  0  0
   32.6560   28.5320   47.9290 C   0  0  0  0  0  0  0  0  0  0  0  0
   31.7910   27.8020   48.7130 C   0  0  0  0  0  0  0  0  0  0  0  0
   30.5130   27.4770   48.3320 C   0  0  0  0  0  0  0  0  0  0  0  0
   35.7390   30.0350   48.6480 C   0  0  0  0  0  0  0  0  0  0  0  0
   35.8810   28.8840   49.4470 C   0  0  0  0  0  0  0  0  0  0  0  0
   34.7450   28.1120   49.3200 C   0  0  0  0  0  0  0  0  0  0  0  0
   33.9480   28.7850   48.4660 N   0  0  0  0  0  0  0  0  0  0  0  0
   34.5250   29.8980   48.0800 N   0  0  0  0  0  0  0  0  0  0  0  0
   38.0930   32.7660   49.4190 C   0  0  0  0  0  0  0  0  0  0  0  0
   38.8200   32.8270   48.2360 C   0  0  0  0  0  0  0  0  0  0  0  0
   38.4950   31.9400   47.2050 C   0  0  0  0  0  0  0  0  0  0  0  0
   37.4760   31.0680   47.4340 N   0  0  0  0  0  0  0  0  0  0  0  0
   36.7890   31.0320   48.5890 C   0  0  0  0  0  0  0  0  0  0  0  0
   37.0810   31.8740   49.5980 N   0  0  0  0  0  0  0  0  0  0  0  0
   28.4370   27.5030   46.6230 S   0  0  0  0  0  0  0  0  0  0  0  0
   28.4870   26.4080   45.5960 O   0  0  0  0  0  0  0  0  0  0  0  0
   27.7040   27.0570   47.8400 O   0  0  0  0  0  0  0  0  0  0  0  0
   27.7140   28.9260   45.9900 C   0  0  0  0  0  0  0  0  0  0  0  0
   27.4510   30.1310   46.5570 C   0  0  0  0  0  0  0  0  0  0  0  0
   26.8560   31.1470   45.8580 C   0  0  0  0  0  0  0  0  0  0  0  0
   26.5380   30.8130   44.4550 C   0  0  0  0  0  0  0  0  0  0  0  0
   27.1520   29.0400   44.3390 S   0  0  0  0  0  0  0  0  0  0  0  0
   30.5640   28.9640   45.3326 H   0  0  0  0  0  0  0  0  0  0  0  0
   32.8538   29.5323   46.0418 H   0  0  0  0  0  0  0  0  0  0  0  0
   32.1431   27.4609   49.6977 H   0  0  0  0  0  0  0  0  0  0  0  0
   29.8573   26.8917   48.9935 H   0  0  0  0  0  0  0  0  0  0  0  0
   36.7543   28.6406   50.0700 H   0  0  0  0  0  0  0  0  0  0  0  0
   34.5340   27.1508   49.8115 H   0  0  0  0  0  0  0  0  0  0  0  0
   38.3432   33.4597   50.2352 H   0  0  0  0  0  0  0  0  0  0  0  0
   39.6335   33.5572   48.1134 H   0  0  0  0  0  0  0  0  0  0  0  0
   39.0400   31.9469   46.2495 H   0  0  0  0  0  0  0  0  0  0  0  0
   27.7241   30.2962   47.6097 H   0  0  0  0  0  0  0  0  0  0  0  0
   26.6339   32.1280   46.3033 H   0  0  0  0  0  0  0  0  0  0  0  0
   26.0662   31.4371   43.6818 H   0  0  0  0  0  0  0  0  0  0  0  0
  1  6  2  0
  2  3  2  0
  2  1  1  0
  3  4  1  0
  4 10  1  0
  4  5  2  0
  6  5  1  0
  7  8  1  0
  9  8  2  0
 10  9  1  0
 11 10  1  0
 11  7  2  0
 12 17  2  0
 13 12  1  0
 14 15  1  0
 14 13  2  0
 15 16  2  0
 16  7  1  0
 16 17  1  0
 18  1  1  0
 18 20  2  0
 19 18  2  0
 21 22  2  0
 21 18  1  0
 23 22  1  0
 24 23  2  0
 25 24  1  0
 25 21  1  0
  2 26  1  0
  3 27  1  0
  5 28  1  0
  6 29  1  0
  8 30  1  0
  9 31  1  0
 12 32  1  0
 13 33  1  0
 14 34  1  0
 22 35  1  0
 23 36  1  0
 24 37  1  0
M  ISO  8  26  14  27  14  28  14  29  14  30  14  31  14  32  14  33  14
M  ISO  4  34  14  35  14  36  14  37  14
M  END
>  <minimizedAffinity>  (1) 
-5.76926088

>  <minimizedRMSD>  (1) 
1.46076226

$$$$
