
     RDKit          3D

 26 27  0  0  0  0  0  0  0  0999 V2000
   37.5910   30.5450   51.0550 C   0  0  0  0  0  0  0  0  0  0  0  0
   38.3910   31.2410   50.1200 C   0  0  0  0  0  0  0  0  0  0  0  0
   37.8970   31.3950   48.8110 C   0  0  0  0  0  0  0  0  0  0  0  0
   36.6720   30.8590   48.5260 N   0  0  0  0  0  0  0  0  0  0  0  0
   35.9420   30.2000   49.4540 C   0  0  0  0  0  0  0  0  0  0  0  0
   36.3980   30.0460   50.7030 N   0  0  0  0  0  0  0  0  0  0  0  0
   34.6090   29.6460   49.0530 C   0  0  0  0  0  0  0  0  0  0  0  0
   34.4130   29.7900   47.5630 C   0  0  0  0  0  0  0  0  0  0  0  0
   34.0400   28.4030   47.0460 C   0  0  0  0  0  0  0  0  0  0  0  0
   33.4660   27.7380   48.2880 C   0  0  0  0  0  0  0  0  0  0  0  0
   34.4810   28.1680   49.3330 C   0  0  0  0  0  0  0  0  0  0  0  0
   38.6520   32.1080   47.7470 C   0  0  0  0  0  0  0  0  0  0  0  0
   37.8340   32.5570   46.7210 F   0  0  0  0  0  0  0  0  0  0  0  0
   39.2560   33.2510   48.2580 F   0  0  0  0  0  0  0  0  0  0  0  0
   39.5790   31.2510   47.1910 F   0  0  0  0  0  0  0  0  0  0  0  0
   37.9526   30.4112   52.0852 H   0  0  0  0  0  0  0  0  0  0  0  0
   39.3709   31.6502   50.4071 H   0  0  0  0  0  0  0  0  0  0  0  0
   33.8681   30.2099   49.6388 H   0  0  0  0  0  0  0  0  0  0  0  0
   33.6046   30.5055   47.3522 H   0  0  0  0  0  0  0  0  0  0  0  0
   35.3227   30.1686   47.0740 H   0  0  0  0  0  0  0  0  0  0  0  0
   33.2893   28.4652   46.2444 H   0  0  0  0  0  0  0  0  0  0  0  0
   34.8855   27.8555   46.6039 H   0  0  0  0  0  0  0  0  0  0  0  0
   32.4595   28.1155   48.5213 H   0  0  0  0  0  0  0  0  0  0  0  0
   33.3324   26.6495   48.2024 H   0  0  0  0  0  0  0  0  0  0  0  0
   35.4415   27.6499   49.1948 H   0  0  0  0  0  0  0  0  0  0  0  0
   34.1816   27.9355   50.3656 H   0  0  0  0  0  0  0  0  0  0  0  0
  2  1  2  0
  3  2  1  0
  4  3  2  0
  4  5  1  0
  5  6  2  0
  6  1  1  0
  7 11  1  0
  7  5  1  0
  8  7  1  0
  9  8  1  0
  9 10  1  0
 10 11  1  0
 12 14  1  0
 12  3  1  0
 13 12  1  0
 15 12  1  0
  1 16  1  0
  2 17  1  0
  7 18  1  0
  8 19  1  0
  8 20  1  0
  9 21  1  0
  9 22  1  0
 10 23  1  0
 10 24  1  0
 11 25  1  0
 11 26  1  0
M  ISO  8  16  14  17  14  18  13  19  13  20  13  21  13  22  13  23  13
M  ISO  3  24  13  25  13  26  13
M  END
>  <minimizedAffinity>  (1) 
-5.50350809

>  <minimizedRMSD>  (1) 
1.15860605

$$$$
