
     RDKit          3D

 27 28  0  0  0  0  0  0  0  0999 V2000
   37.5820   29.4730   50.8260 C   0  0  0  0  0  0  0  0  0  0  0  0
   38.1790   30.7260   50.5580 C   0  0  0  0  0  0  0  0  0  0  0  0
   37.5980   31.5470   49.5830 C   0  0  0  0  0  0  0  0  0  0  0  0
   36.4890   31.0870   48.9490 N   0  0  0  0  0  0  0  0  0  0  0  0
   35.9430   29.8860   49.2270 C   0  0  0  0  0  0  0  0  0  0  0  0
   36.4880   29.0920   50.1560 N   0  0  0  0  0  0  0  0  0  0  0  0
   34.7820   29.4640   48.5280 N   0  0  0  0  0  0  0  0  0  0  0  0
   34.5420   29.9060   47.1690 C   0  0  0  0  0  0  0  0  0  0  0  0
   33.1580   29.5530   46.7140 C   0  0  0  0  0  0  0  0  0  0  0  0
   32.7990   28.1850   46.9310 N   0  0  0  0  0  0  0  0  0  0  0  0
   33.3700   27.5780   48.0960 C   0  0  0  0  0  0  0  0  0  0  0  0
   33.8040   28.5890   49.1270 C   0  0  0  0  0  0  0  0  0  0  0  0
   38.1600   32.8810   49.2380 C   0  0  0  0  0  0  0  0  0  0  0  0
   37.2860   33.9130   49.5280 F   0  0  0  0  0  0  0  0  0  0  0  0
   39.3130   33.1520   49.9740 F   0  0  0  0  0  0  0  0  0  0  0  0
   38.4110   32.9350   47.8750 F   0  0  0  0  0  0  0  0  0  0  0  0
   38.0179   28.8094   51.5873 H   0  0  0  0  0  0  0  0  0  0  0  0
   39.0787   31.0488   51.1023 H   0  0  0  0  0  0  0  0  0  0  0  0
   34.6668   30.9978   47.1207 H   0  0  0  0  0  0  0  0  0  0  0  0
   35.2623   29.4006   46.5089 H   0  0  0  0  0  0  0  0  0  0  0  0
   33.0857   29.7616   45.6364 H   0  0  0  0  0  0  0  0  0  0  0  0
   32.4642   30.1603   47.3139 H   0  0  0  0  0  0  0  0  0  0  0  0
   31.7738   28.1351   47.0167 H   0  0  0  0  0  0  0  0  0  0  0  0
   32.6202   26.9130   48.5494 H   0  0  0  0  0  0  0  0  0  0  0  0
   34.2654   27.0246   47.7766 H   0  0  0  0  0  0  0  0  0  0  0  0
   34.2485   28.0714   49.9898 H   0  0  0  0  0  0  0  0  0  0  0  0
   32.9370   29.1724   49.4704 H   0  0  0  0  0  0  0  0  0  0  0  0
  2  1  2  0
  3  2  1  0
  4  5  1  0
  4  3  2  0
  5  6  2  0
  6  1  1  0
  7 12  1  0
  7  5  1  0
  8  7  1  0
  9 10  1  0
  9  8  1  0
 10 11  1  0
 11 12  1  0
 13 14  1  0
 13  3  1  0
 13 15  1  0
 16 13  1  0
  1 17  1  0
  2 18  1  0
  8 19  1  0
  8 20  1  0
  9 21  1  0
  9 22  1  0
 10 23  1  0
 11 24  1  0
 11 25  1  0
 12 26  1  0
 12 27  1  0
M  ISO  8  17  14  18  14  19  13  20  13  21  13  22  13  23   5  24  13
M  ISO  3  25  13  26  13  27  13
M  END
>  <minimizedAffinity>  (1) 
-5.46365929

>  <minimizedRMSD>  (1) 
1.8193574

$$$$
