
     RDKit          3D

 20 21  0  0  0  0  0  0  0  0999 V2000
   37.5080   30.4100   50.9210 C   0  0  0  0  0  0  0  0  0  0  0  0
   38.3050   31.1970   50.0610 C   0  0  0  0  0  0  0  0  0  0  0  0
   37.9590   31.2540   48.7030 C   0  0  0  0  0  0  0  0  0  0  0  0
   36.8750   30.5460   48.3010 N   0  0  0  0  0  0  0  0  0  0  0  0
   36.1400   29.8100   49.1460 C   0  0  0  0  0  0  0  0  0  0  0  0
   36.4500   29.7410   50.4370 N   0  0  0  0  0  0  0  0  0  0  0  0
   34.9910   29.0830   48.6190 C   0  0  0  0  0  0  0  0  0  0  0  0
   34.1890   29.4010   47.5420 C   0  0  0  0  0  0  0  0  0  0  0  0
   33.2390   28.4480   47.4100 N   0  0  0  0  0  0  0  0  0  0  0  0
   33.4190   27.5290   48.3830 C   0  0  0  0  0  0  0  0  0  0  0  0
   34.4700   27.9350   49.0870 N   0  0  0  0  0  0  0  0  0  0  0  0
   38.7320   32.0550   47.7010 C   0  0  0  0  0  0  0  0  0  0  0  0
   37.9330   32.5540   46.6930 F   0  0  0  0  0  0  0  0  0  0  0  0
   39.3130   33.1670   48.3150 F   0  0  0  0  0  0  0  0  0  0  0  0
   39.6820   31.2430   47.1060 F   0  0  0  0  0  0  0  0  0  0  0  0
   37.7551   30.3451   51.9909 H   0  0  0  0  0  0  0  0  0  0  0  0
   39.1741   31.7506   50.4459 H   0  0  0  0  0  0  0  0  0  0  0  0
   34.3037   30.2846   46.8969 H   0  0  0  0  0  0  0  0  0  0  0  0
   32.8163   26.6255   48.5576 H   0  0  0  0  0  0  0  0  0  0  0  0
   34.8443   27.4268   49.9010 H   0  0  0  0  0  0  0  0  0  0  0  0
  2  1  2  0
  3  2  1  0
  4  3  2  0
  4  5  1  0
  5  6  2  0
  6  1  1  0
  7 11  1  0
  7  5  1  0
  8  7  2  0
  9  8  1  0
  9 10  2  0
 10 11  1  0
 12 14  1  0
 12  3  1  0
 13 12  1  0
 15 12  1  0
  1 16  1  0
  2 17  1  0
  8 18  1  0
 10 19  1  0
 11 20  1  0
M  ISO  5  16  14  17  14  18  14  19  14  20   9
M  END
>  <minimizedAffinity>  (1) 
-4.95451307

>  <minimizedRMSD>  (1) 
0.867044151

$$$$
