
     RDKit          3D

 37 40  0  0  0  0  0  0  0  0999 V2000
   30.0460   27.8960   47.1770 C   0  0  0  0  0  0  0  0  0  0  0  0
   30.8920   28.5620   46.3520 C   0  0  0  0  0  0  0  0  0  0  0  0
   32.1870   28.8740   46.7210 C   0  0  0  0  0  0  0  0  0  0  0  0
   32.6480   28.5070   47.9570 C   0  0  0  0  0  0  0  0  0  0  0  0
   31.7670   27.8280   48.7820 C   0  0  0  0  0  0  0  0  0  0  0  0
   30.4790   27.5120   48.4270 C   0  0  0  0  0  0  0  0  0  0  0  0
   35.7230   30.0140   48.6600 C   0  0  0  0  0  0  0  0  0  0  0  0
   35.8670   28.8690   49.4610 C   0  0  0  0  0  0  0  0  0  0  0  0
   34.7420   28.0970   49.3420 C   0  0  0  0  0  0  0  0  0  0  0  0
   33.9410   28.7450   48.5010 N   0  0  0  0  0  0  0  0  0  0  0  0
   34.5110   29.8570   48.1060 N   0  0  0  0  0  0  0  0  0  0  0  0
   38.0710   32.7720   49.4130 C   0  0  0  0  0  0  0  0  0  0  0  0
   38.8000   32.8010   48.2280 C   0  0  0  0  0  0  0  0  0  0  0  0
   38.4850   31.9030   47.2210 C   0  0  0  0  0  0  0  0  0  0  0  0
   37.4660   31.0270   47.4430 N   0  0  0  0  0  0  0  0  0  0  0  0
   36.7750   31.0140   48.5950 C   0  0  0  0  0  0  0  0  0  0  0  0
   37.0540   31.8770   49.6020 N   0  0  0  0  0  0  0  0  0  0  0  0
   28.4010   27.5040   46.7420 S   0  0  0  0  0  0  0  0  0  0  0  0
   28.4000   26.3560   45.7720 O   0  0  0  0  0  0  0  0  0  0  0  0
   27.6600   27.1420   47.9820 O   0  0  0  0  0  0  0  0  0  0  0  0
   26.5880   30.1240   44.5250 N   0  0  0  0  0  0  0  0  0  0  0  0
   27.0800   28.9050   44.7780 N   0  0  0  0  0  0  0  0  0  0  0  0
   27.6390   28.9130   46.0220 C   0  0  0  0  0  0  0  0  0  0  0  0
   27.4970   30.1720   46.5680 C   0  0  0  0  0  0  0  0  0  0  0  0
   26.8290   30.9080   45.5950 C   0  0  0  0  0  0  0  0  0  0  0  0
   30.5356   28.8639   45.3561 H   0  0  0  0  0  0  0  0  0  0  0  0
   32.8446   29.4149   46.0246 H   0  0  0  0  0  0  0  0  0  0  0  0
   32.1194   27.5245   49.7788 H   0  0  0  0  0  0  0  0  0  0  0  0
   29.8154   26.9706   49.1173 H   0  0  0  0  0  0  0  0  0  0  0  0
   36.7422   28.6309   50.0834 H   0  0  0  0  0  0  0  0  0  0  0  0
   34.5418   27.1370   49.8403 H   0  0  0  0  0  0  0  0  0  0  0  0
   38.3178   33.4838   50.2146 H   0  0  0  0  0  0  0  0  0  0  0  0
   39.6152   33.5270   48.0926 H   0  0  0  0  0  0  0  0  0  0  0  0
   39.0407   31.8977   46.2717 H   0  0  0  0  0  0  0  0  0  0  0  0
   26.1077   30.4133   43.6610 H   0  0  0  0  0  0  0  0  0  0  0  0
   27.8371   30.5176   47.5553 H   0  0  0  0  0  0  0  0  0  0  0  0
   26.5418   31.9660   45.6847 H   0  0  0  0  0  0  0  0  0  0  0  0
  1  6  2  0
  2  3  2  0
  2  1  1  0
  3  4  1  0
  4 10  1  0
  4  5  2  0
  6  5  1  0
  7  8  1  0
  9  8  2  0
 10  9  1  0
 11 10  1  0
 11  7  2  0
 12 17  2  0
 13 12  1  0
 14 15  1  0
 14 13  2  0
 15 16  2  0
 16  7  1  0
 16 17  1  0
 18  1  1  0
 18 20  2  0
 19 18  2  0
 21 22  1  0
 21 25  1  0
 22 23  2  0
 23 24  1  0
 23 18  1  0
 25 24  2  0
  2 26  1  0
  3 27  1  0
  5 28  1  0
  6 29  1  0
  8 30  1  0
  9 31  1  0
 12 32  1  0
 13 33  1  0
 14 34  1  0
 21 35  1  0
 24 36  1  0
 25 37  1  0
M  ISO  8  26  14  27  14  28  14  29  14  30  14  31  14  32  14  33  14
M  ISO  4  34  14  35   9  36  14  37  14
M  END
>  <minimizedAffinity>  (1) 
-5.75379896

>  <minimizedRMSD>  (1) 
1.33550644

$$$$
