
     RDKit          3D

 42 45  0  0  0  0  0  0  0  0999 V2000
   33.1210   28.5210   47.8430 C   0  0  0  0  0  0  0  0  0  0  0  0
   33.5630   29.3550   46.8170 C   0  0  0  0  0  0  0  0  0  0  0  0
   34.6750   30.1310   47.0650 C   0  0  0  0  0  0  0  0  0  0  0  0
   35.3870   30.1590   48.2340 C   0  0  0  0  0  0  0  0  0  0  0  0
   34.8930   29.3080   49.2090 C   0  0  0  0  0  0  0  0  0  0  0  0
   33.7860   28.4960   49.0430 C   0  0  0  0  0  0  0  0  0  0  0  0
   37.8870   32.1740   49.9400 C   0  0  0  0  0  0  0  0  0  0  0  0
   38.7560   32.5560   48.8710 C   0  0  0  0  0  0  0  0  0  0  0  0
   38.4420   32.0970   47.5770 C   0  0  0  0  0  0  0  0  0  0  0  0
   37.3390   31.3180   47.3970 N   0  0  0  0  0  0  0  0  0  0  0  0
   36.5420   30.9810   48.4470 C   0  0  0  0  0  0  0  0  0  0  0  0
   36.8170   31.4050   49.6960 N   0  0  0  0  0  0  0  0  0  0  0  0
   39.2820   32.4380   46.3970 C   0  0  0  0  0  0  0  0  0  0  0  0
   38.5450   32.7740   45.2930 F   0  0  0  0  0  0  0  0  0  0  0  0
   40.0860   33.5450   46.6720 F   0  0  0  0  0  0  0  0  0  0  0  0
   40.0590   31.3440   46.0380 F   0  0  0  0  0  0  0  0  0  0  0  0
   31.6960   27.5400   47.6570 S   0  0  0  0  0  0  0  0  0  0  0  0
   30.7470   28.1780   46.7470 O   0  0  0  0  0  0  0  0  0  0  0  0
   31.0600   27.4390   49.0620 O   0  0  0  0  0  0  0  0  0  0  0  0
   32.0020   25.9080   47.1470 C   0  0  0  0  0  0  0  0  0  0  0  0
   33.2030   25.2340   47.2440 C   0  0  0  0  0  0  0  0  0  0  0  0
   33.4200   23.9360   46.8350 C   0  0  0  0  0  0  0  0  0  0  0  0
   32.3680   23.2360   46.2800 C   0  0  0  0  0  0  0  0  0  0  0  0
   31.1560   23.8860   46.1710 C   0  0  0  0  0  0  0  0  0  0  0  0
   30.1460   23.1300   45.6100 C   0  0  0  0  0  0  0  0  0  0  0  0
   28.8810   23.6530   45.4420 C   0  0  0  0  0  0  0  0  0  0  0  0
   28.6520   24.9510   45.8500 C   0  0  0  0  0  0  0  0  0  0  0  0
   29.6880   25.6730   46.4050 C   0  0  0  0  0  0  0  0  0  0  0  0
   30.9660   25.1860   46.5900 C   0  0  0  0  0  0  0  0  0  0  0  0
   33.0447   29.3924   45.8475 H   0  0  0  0  0  0  0  0  0  0  0  0
   35.0209   30.7857   46.2516 H   0  0  0  0  0  0  0  0  0  0  0  0
   35.4145   29.2761   50.1770 H   0  0  0  0  0  0  0  0  0  0  0  0
   33.4446   27.8416   49.8586 H   0  0  0  0  0  0  0  0  0  0  0  0
   38.0972   32.5122   50.9654 H   0  0  0  0  0  0  0  0  0  0  0  0
   39.6390   33.1863   49.0527 H   0  0  0  0  0  0  0  0  0  0  0  0
   34.0540   25.7759   47.6824 H   0  0  0  0  0  0  0  0  0  0  0  0
   34.4092   23.4685   46.9483 H   0  0  0  0  0  0  0  0  0  0  0  0
   32.4913   22.1981   45.9372 H   0  0  0  0  0  0  0  0  0  0  0  0
   30.3530   22.0972   45.2930 H   0  0  0  0  0  0  0  0  0  0  0  0
   28.0761   23.0514   44.9947 H   0  0  0  0  0  0  0  0  0  0  0  0
   27.6564   25.4041   45.7342 H   0  0  0  0  0  0  0  0  0  0  0  0
   29.4817   26.7061   46.7213 H   0  0  0  0  0  0  0  0  0  0  0  0
  1  6  2  0
  2  3  2  0
  2  1  1  0
  3  4  1  0
  4 11  1  0
  4  5  2  0
  6  5  1  0
  8  7  2  0
  9  8  1  0
 10  9  2  0
 10 11  1  0
 11 12  2  0
 12  7  1  0
 13 15  1  0
 13  9  1  0
 14 13  1  0
 16 13  1  0
 17  1  1  0
 17 19  2  0
 18 17  2  0
 20 21  2  0
 20 17  1  0
 22 21  1  0
 23 22  2  0
 24 23  1  0
 24 29  2  0
 25 24  1  0
 26 25  2  0
 26 27  1  0
 27 28  2  0
 28 29  1  0
 29 20  1  0
  2 30  1  0
  3 31  1  0
  5 32  1  0
  6 33  1  0
  7 34  1  0
  8 35  1  0
 21 36  1  0
 22 37  1  0
 23 38  1  0
 25 39  1  0
 26 40  1  0
 27 41  1  0
 28 42  1  0
M  ISO  8  30  14  31  14  32  14  33  14  34  14  35  14  36  14  37  14
M  ISO  5  38  14  39  14  40  14  41  14  42  14
M  END
>  <minimizedAffinity>  (1) 
-6.76296902

>  <minimizedRMSD>  (1) 
1.83363223

$$$$
