
     RDKit          3D

 37 40  0  0  0  0  0  0  0  0999 V2000
   32.5150   28.3100   47.6990 C   0  0  0  0  0  0  0  0  0  0  0  0
   33.1830   29.1790   46.8390 C   0  0  0  0  0  0  0  0  0  0  0  0
   34.3430   29.7600   47.3020 C   0  0  0  0  0  0  0  0  0  0  0  0
   34.8950   29.5460   48.5600 C   0  0  0  0  0  0  0  0  0  0  0  0
   34.1780   28.6790   49.3480 C   0  0  0  0  0  0  0  0  0  0  0  0
   33.0100   28.0560   48.9550 C   0  0  0  0  0  0  0  0  0  0  0  0
   37.5950   30.6210   50.7280 C   0  0  0  0  0  0  0  0  0  0  0  0
   38.4330   31.3650   49.8490 C   0  0  0  0  0  0  0  0  0  0  0  0
   38.0320   31.4780   48.4940 C   0  0  0  0  0  0  0  0  0  0  0  0
   36.8740   30.8750   48.1020 N   0  0  0  0  0  0  0  0  0  0  0  0
   36.1100   30.1730   48.9910 C   0  0  0  0  0  0  0  0  0  0  0  0
   36.4720   30.0560   50.2720 N   0  0  0  0  0  0  0  0  0  0  0  0
   38.8350   32.2280   47.5010 C   0  0  0  0  0  0  0  0  0  0  0  0
   38.0950   32.6710   46.4370 F   0  0  0  0  0  0  0  0  0  0  0  0
   39.4130   33.3560   48.0730 F   0  0  0  0  0  0  0  0  0  0  0  0
   39.8130   31.3930   46.9760 F   0  0  0  0  0  0  0  0  0  0  0  0
   31.0130   27.5550   47.2480 S   0  0  0  0  0  0  0  0  0  0  0  0
   30.2990   28.3490   46.2520 O   0  0  0  0  0  0  0  0  0  0  0  0
   30.1650   27.4090   48.5170 O   0  0  0  0  0  0  0  0  0  0  0  0
   29.7510   23.1670   45.3500 N   0  0  0  0  0  0  0  0  0  0  0  0
   28.6920   24.0040   45.5530 C   0  0  0  0  0  0  0  0  0  0  0  0
   29.1520   25.1630   46.0690 N   0  0  0  0  0  0  0  0  0  0  0  0
   30.4890   25.0190   46.1750 C   0  0  0  0  0  0  0  0  0  0  0  0
   31.3930   25.9430   46.6530 C   0  0  0  0  0  0  0  0  0  0  0  0
   32.6950   25.6120   46.6810 N   0  0  0  0  0  0  0  0  0  0  0  0
   33.1110   24.3980   46.2500 C   0  0  0  0  0  0  0  0  0  0  0  0
   32.2090   23.5260   45.7930 N   0  0  0  0  0  0  0  0  0  0  0  0
   30.8930   23.7900   45.7360 C   0  0  0  0  0  0  0  0  0  0  0  0
   32.7994   29.3927   45.8304 H   0  0  0  0  0  0  0  0  0  0  0  0
   34.8731   30.4457   46.6246 H   0  0  0  0  0  0  0  0  0  0  0  0
   34.5591   28.4672   50.3579 H   0  0  0  0  0  0  0  0  0  0  0  0
   32.4855   27.3689   49.6353 H   0  0  0  0  0  0  0  0  0  0  0  0
   37.8727   30.5106   51.7866 H   0  0  0  0  0  0  0  0  0  0  0  0
   39.3596   31.8358   50.2092 H   0  0  0  0  0  0  0  0  0  0  0  0
   29.6925   22.2135   44.9648 H   0  0  0  0  0  0  0  0  0  0  0  0
   27.6394   23.7724   45.3328 H   0  0  0  0  0  0  0  0  0  0  0  0
   34.1784   24.1333   46.2759 H   0  0  0  0  0  0  0  0  0  0  0  0
  1  6  2  0
  2  3  2  0
  2  1  1  0
  3  4  1  0
  4 11  1  0
  4  5  2  0
  6  5  1  0
  8  7  2  0
  9  8  1  0
 10  9  2  0
 10 11  1  0
 11 12  2  0
 12  7  1  0
 13 15  1  0
 13  9  1  0
 14 13  1  0
 16 13  1  0
 17  1  1  0
 17 19  2  0
 18 17  2  0
 20 21  1  0
 20 28  1  0
 21 22  2  0
 22 23  1  0
 23 24  2  0
 24 25  1  0
 24 17  1  0
 26 25  2  0
 27 26  1  0
 28 27  2  0
 28 23  1  0
  2 29  1  0
  3 30  1  0
  5 31  1  0
  6 32  1  0
  7 33  1  0
  8 34  1  0
 20 35  1  0
 21 36  1  0
 26 37  1  0
M  ISO  8  29  14  30  14  31  14  32  14  33  14  34  14  35   9  36  14
M  ISO  1  37  14
M  END
>  <minimizedAffinity>  (1) 
-6.28340769

>  <minimizedRMSD>  (1) 
1.61257529

$$$$
