
     RDKit          3D

 38 40  0  0  1  0  0  0  0  0999 V2000
   33.1790   28.5260   48.0120 C   0  0  0  0  0  0  0  0  0  0  0  0
   33.5950   29.3040   46.9390 C   0  0  0  0  0  0  0  0  0  0  0  0
   34.6990   30.1080   47.1220 C   0  0  0  0  0  0  0  0  0  0  0  0
   35.4250   30.2090   48.2790 C   0  0  0  0  0  0  0  0  0  0  0  0
   34.9550   29.4060   49.3120 C   0  0  0  0  0  0  0  0  0  0  0  0
   33.8560   28.5740   49.2040 C   0  0  0  0  0  0  0  0  0  0  0  0
   37.8570   32.4350   49.8060 C   0  0  0  0  0  0  0  0  0  0  0  0
   38.7770   32.6620   48.7470 C   0  0  0  0  0  0  0  0  0  0  0  0
   38.5280   32.0280   47.5060 C   0  0  0  0  0  0  0  0  0  0  0  0
   37.4250   31.2370   47.3900 N   0  0  0  0  0  0  0  0  0  0  0  0
   36.5740   31.0510   48.4320 C   0  0  0  0  0  0  0  0  0  0  0  0
   36.7930   31.6430   49.6140 N   0  0  0  0  0  0  0  0  0  0  0  0
   39.4270   32.1990   46.3390 C   0  0  0  0  0  0  0  0  0  0  0  0
   38.7540   32.2480   45.1420 F   0  0  0  0  0  0  0  0  0  0  0  0
   40.1350   33.3940   46.4280 F   0  0  0  0  0  0  0  0  0  0  0  0
   40.2950   31.1250   46.2570 F   0  0  0  0  0  0  0  0  0  0  0  0
   31.7770   27.5010   47.9150 S   0  0  0  0  0  0  0  0  0  0  0  0
   30.9220   27.8820   46.7980 O   0  0  0  0  0  0  0  0  0  0  0  0
   31.0120   27.6290   49.2380 O   0  0  0  0  0  0  0  0  0  0  0  0
   31.5060   25.1150   46.7420 N   0  0  0  0  0  0  0  0  0  0  0  0
   32.1860   25.4210   45.5140 C   0  0  0  0  0  0  0  0  0  0  0  0
   33.5960   25.8040   45.8480 C   0  0  0  0  0  0  0  0  0  0  0  0
   33.6580   25.6850   47.3540 C   0  0  0  0  0  0  0  0  0  0  0  0
   32.2290   25.7830   47.8110 C   0  0  1  0  0  0  0  0  0  0  0  0
   33.0619   29.2791   45.9771 H   0  0  0  0  0  0  0  0  0  0  0  0
   35.0244   30.7197   46.2676 H   0  0  0  0  0  0  0  0  0  0  0  0
   35.4896   29.4343   50.2730 H   0  0  0  0  0  0  0  0  0  0  0  0
   33.5306   27.9619   50.0581 H   0  0  0  0  0  0  0  0  0  0  0  0
   38.0184   32.9101   50.7849 H   0  0  0  0  0  0  0  0  0  0  0  0
   39.6549   33.3099   48.8871 H   0  0  0  0  0  0  0  0  0  0  0  0
   31.5035   24.0972   46.8999 H   0  0  0  0  0  0  0  0  0  0  0  0
   31.6823   26.2571   45.0068 H   0  0  0  0  0  0  0  0  0  0  0  0
   32.1756   24.5487   44.8440 H   0  0  0  0  0  0  0  0  0  0  0  0
   34.3114   25.1176   45.3714 H   0  0  0  0  0  0  0  0  0  0  0  0
   33.8581   26.8108   45.4908 H   0  0  0  0  0  0  0  0  0  0  0  0
   34.0925   24.7181   47.6479 H   0  0  0  0  0  0  0  0  0  0  0  0
   34.2903   26.4643   47.8045 H   0  0  0  0  0  0  0  0  0  0  0  0
   32.0289   25.3399   48.7977 H   0  0  0  0  0  0  0  0  0  0  0  0
  1  6  2  0
  2  3  2  0
  2  1  1  0
  3  4  1  0
  4 11  1  0
  4  5  2  0
  6  5  1  0
  8  7  2  0
  9  8  1  0
 10  9  2  0
 10 11  1  0
 11 12  2  0
 12  7  1  0
 13 15  1  0
 13  9  1  0
 14 13  1  0
 16 13  1  0
 17  1  1  0
 17 19  2  0
 18 17  2  0
 20 24  1  0
 21 22  1  0
 21 20  1  0
 22 23  1  0
 23 24  1  0
 24 17  1  0
  2 25  1  0
  3 26  1  0
  5 27  1  0
  6 28  1  0
  7 29  1  0
  8 30  1  0
 20 31  1  0
 21 32  1  0
 21 33  1  0
 22 34  1  0
 22 35  1  0
 23 36  1  0
 23 37  1  0
 24 38  1  1
M  ISO  8  25  14  26  14  27  14  28  14  29  14  30  14  31   5  32  13
M  ISO  6  33  13  34  13  35  13  36  13  37  13  38  13
M  END
>  <minimizedAffinity>  (1) 
-6.15921926

>  <minimizedRMSD>  (1) 
1.6225307

$$$$
