
     RDKit          3D

 35 37  0  0  0  0  0  0  0  0999 V2000
   32.5530   28.1570   47.7130 C   0  0  0  0  0  0  0  0  0  0  0  0
   33.3320   28.8340   46.7900 C   0  0  0  0  0  0  0  0  0  0  0  0
   34.4780   29.4480   47.2450 C   0  0  0  0  0  0  0  0  0  0  0  0
   34.9110   29.4410   48.5500 C   0  0  0  0  0  0  0  0  0  0  0  0
   34.0920   28.7530   49.4140 C   0  0  0  0  0  0  0  0  0  0  0  0
   32.9240   28.1110   49.0340 C   0  0  0  0  0  0  0  0  0  0  0  0
   37.5660   30.6100   50.7450 C   0  0  0  0  0  0  0  0  0  0  0  0
   38.4010   31.3490   49.8550 C   0  0  0  0  0  0  0  0  0  0  0  0
   38.0180   31.4220   48.5000 C   0  0  0  0  0  0  0  0  0  0  0  0
   36.8790   30.7900   48.1100 N   0  0  0  0  0  0  0  0  0  0  0  0
   36.1150   30.1010   48.9800 C   0  0  0  0  0  0  0  0  0  0  0  0
   36.4560   30.0110   50.2910 N   0  0  0  0  0  0  0  0  0  0  0  0
   38.8140   32.1650   47.4900 C   0  0  0  0  0  0  0  0  0  0  0  0
   38.0510   32.6260   46.4350 F   0  0  0  0  0  0  0  0  0  0  0  0
   39.3860   33.3080   48.0550 F   0  0  0  0  0  0  0  0  0  0  0  0
   39.7800   31.3520   46.9600 F   0  0  0  0  0  0  0  0  0  0  0  0
   31.0600   27.3850   47.2680 S   0  0  0  0  0  0  0  0  0  0  0  0
   30.4930   27.9750   46.0610 O   0  0  0  0  0  0  0  0  0  0  0  0
   30.0860   27.5310   48.4420 O   0  0  0  0  0  0  0  0  0  0  0  0
   31.3650   25.6690   47.0180 C   0  0  0  0  0  0  0  0  0  0  0  0
   32.3070   24.9040   47.6240 C   0  0  0  0  0  0  0  0  0  0  0  0
   32.4300   23.5630   47.3260 C   0  0  0  0  0  0  0  0  0  0  0  0
   31.6050   22.9530   46.4050 C   0  0  0  0  0  0  0  0  0  0  0  0
   30.6550   23.7720   45.8090 C   0  0  0  0  0  0  0  0  0  0  0  0
   30.5370   25.0860   46.1040 N   0  0  0  0  0  0  0  0  0  0  0  0
   33.0453   28.8800   45.7290 H   0  0  0  0  0  0  0  0  0  0  0  0
   35.0936   29.9848   46.5082 H   0  0  0  0  0  0  0  0  0  0  0  0
   34.3823   28.7094   50.4741 H   0  0  0  0  0  0  0  0  0  0  0  0
   32.3088   27.5772   49.7733 H   0  0  0  0  0  0  0  0  0  0  0  0
   37.8343   30.5314   51.8089 H   0  0  0  0  0  0  0  0  0  0  0  0
   39.3142   31.8459   50.2144 H   0  0  0  0  0  0  0  0  0  0  0  0
   32.9822   25.3595   48.3634 H   0  0  0  0  0  0  0  0  0  0  0  0
   33.2028   22.9674   47.8340 H   0  0  0  0  0  0  0  0  0  0  0  0
   31.6937   21.8848   46.1579 H   0  0  0  0  0  0  0  0  0  0  0  0
   29.9711   23.3340   45.0671 H   0  0  0  0  0  0  0  0  0  0  0  0
  1  6  2  0
  2  3  2  0
  2  1  1  0
  3  4  1  0
  4 11  1  0
  4  5  2  0
  6  5  1  0
  8  7  2  0
  9  8  1  0
 10  9  2  0
 10 11  1  0
 11 12  2  0
 12  7  1  0
 13 15  1  0
 13  9  1  0
 14 13  1  0
 16 13  1  0
 17  1  1  0
 17 19  2  0
 18 17  2  0
 20 17  1  0
 20 21  2  0
 22 21  1  0
 23 22  2  0
 24 25  2  0
 24 23  1  0
 25 20  1  0
  2 26  1  0
  3 27  1  0
  5 28  1  0
  6 29  1  0
  7 30  1  0
  8 31  1  0
 21 32  1  0
 22 33  1  0
 23 34  1  0
 24 35  1  0
M  ISO  8  26  14  27  14  28  14  29  14  30  14  31  14  32  14  33  14
M  ISO  2  34  14  35  14
M  END
>  <minimizedAffinity>  (1) 
-6.11089087

>  <minimizedRMSD>  (1) 
1.82454383

$$$$
