
     RDKit          3D

 29 30  0  0  0  0  0  0  0  0999 V2000
   32.6140   28.3280   47.7140 C   0  0  0  0  0  0  0  0  0  0  0  0
   33.1590   29.3050   46.8940 C   0  0  0  0  0  0  0  0  0  0  0  0
   34.3170   29.9250   47.3210 C   0  0  0  0  0  0  0  0  0  0  0  0
   34.9640   29.6450   48.4950 C   0  0  0  0  0  0  0  0  0  0  0  0
   34.3690   28.6620   49.2660 C   0  0  0  0  0  0  0  0  0  0  0  0
   33.2170   28.0020   48.9030 C   0  0  0  0  0  0  0  0  0  0  0  0
   37.6750   30.8410   50.6120 C   0  0  0  0  0  0  0  0  0  0  0  0
   38.5110   31.5300   49.6950 C   0  0  0  0  0  0  0  0  0  0  0  0
   38.1070   31.5680   48.3430 C   0  0  0  0  0  0  0  0  0  0  0  0
   36.9480   30.9500   47.9810 N   0  0  0  0  0  0  0  0  0  0  0  0
   36.1850   30.3020   48.9070 C   0  0  0  0  0  0  0  0  0  0  0  0
   36.5470   30.2530   50.1930 N   0  0  0  0  0  0  0  0  0  0  0  0
   38.9090   32.2600   47.3090 C   0  0  0  0  0  0  0  0  0  0  0  0
   38.1530   32.6810   46.2340 F   0  0  0  0  0  0  0  0  0  0  0  0
   39.5080   33.4080   47.8210 F   0  0  0  0  0  0  0  0  0  0  0  0
   39.8660   31.3980   46.7880 F   0  0  0  0  0  0  0  0  0  0  0  0
   31.1370   27.5090   47.2980 S   0  0  0  0  0  0  0  0  0  0  0  0
   29.9760   28.3510   47.5470 O   0  0  0  0  0  0  0  0  0  0  0  0
   31.0590   26.2290   48.1340 O   0  0  0  0  0  0  0  0  0  0  0  0
   31.2740   26.9670   45.5930 C   0  0  0  0  0  0  0  0  0  0  0  0
   32.6862   29.5761   45.9385 H   0  0  0  0  0  0  0  0  0  0  0  0
   34.7507   30.6994   46.6713 H   0  0  0  0  0  0  0  0  0  0  0  0
   34.8428   28.3932   50.2217 H   0  0  0  0  0  0  0  0  0  0  0  0
   32.7872   27.2268   49.5544 H   0  0  0  0  0  0  0  0  0  0  0  0
   37.9555   30.7896   51.6744 H   0  0  0  0  0  0  0  0  0  0  0  0
   39.4402   32.0168   50.0260 H   0  0  0  0  0  0  0  0  0  0  0  0
   31.5435   25.9008   45.5677 H   0  0  0  0  0  0  0  0  0  0  0  0
   30.3105   27.1139   45.0830 H   0  0  0  0  0  0  0  0  0  0  0  0
   32.0520   27.5541   45.0830 H   0  0  0  0  0  0  0  0  0  0  0  0
  1  6  2  0
  2  3  2  0
  2  1  1  0
  3  4  1  0
  4 11  1  0
  4  5  2  0
  6  5  1  0
  8  7  2  0
  9  8  1  0
 10  9  2  0
 10 11  1  0
 11 12  2  0
 12  7  1  0
 13 15  1  0
 13  9  1  0
 14 13  1  0
 16 13  1  0
 17 18  2  0
 17  1  1  0
 17 19  2  0
 20 17  1  0
  2 21  1  0
  3 22  1  0
  5 23  1  0
  6 24  1  0
  7 25  1  0
  8 26  1  0
 20 27  1  0
 20 28  1  0
 20 29  1  0
M  ISO  8  21  14  22  14  23  14  24  14  25  14  26  14  27   8  28   8
M  ISO  1  29   8
M  END
>  <minimizedAffinity>  (1) 
-5.83319712

>  <minimizedRMSD>  (1) 
0.034146715

$$$$
