
     RDKit          3D

 37 40  0  0  0  0  0  0  0  0999 V2000
   35.6480   29.9570   48.7030 C   0  0  0  0  0  0  0  0  0  0  0  0
   35.8280   28.8750   49.5560 C   0  0  0  0  0  0  0  0  0  0  0  0
   34.7160   28.0720   49.4750 C   0  0  0  0  0  0  0  0  0  0  0  0
   33.8930   28.6610   48.5950 N   0  0  0  0  0  0  0  0  0  0  0  0
   34.4370   29.7510   48.1510 N   0  0  0  0  0  0  0  0  0  0  0  0
   30.0340   27.5910   47.3270 C   0  0  0  0  0  0  0  0  0  0  0  0
   30.8550   28.2720   46.4860 C   0  0  0  0  0  0  0  0  0  0  0  0
   32.1340   28.6580   46.8300 C   0  0  0  0  0  0  0  0  0  0  0  0
   32.6060   28.3430   48.0770 C   0  0  0  0  0  0  0  0  0  0  0  0
   31.7630   27.6520   48.9190 C   0  0  0  0  0  0  0  0  0  0  0  0
   30.4880   27.2640   48.5840 C   0  0  0  0  0  0  0  0  0  0  0  0
   28.4050   27.1200   46.8970 S   0  0  0  0  0  0  0  0  0  0  0  0
   28.4260   25.7030   46.4040 O   0  0  0  0  0  0  0  0  0  0  0  0
   27.5480   27.2540   48.1050 O   0  0  0  0  0  0  0  0  0  0  0  0
   27.7930   28.2160   45.6390 C   0  0  0  0  0  0  0  0  0  0  0  0
   26.8610   29.2990   46.0340 C   0  0  0  0  0  0  0  0  0  0  0  0
   26.3670   28.1730   45.2200 C   0  0  0  0  0  0  0  0  0  0  0  0
   37.9480   32.7910   49.3190 C   0  0  0  0  0  0  0  0  0  0  0  0
   38.6080   32.8570   48.0840 C   0  0  0  0  0  0  0  0  0  0  0  0
   38.2550   31.9420   47.0860 C   0  0  0  0  0  0  0  0  0  0  0  0
   37.2840   31.0370   47.3740 N   0  0  0  0  0  0  0  0  0  0  0  0
   36.6660   30.9950   48.5680 C   0  0  0  0  0  0  0  0  0  0  0  0
   36.9810   31.8630   49.5560 N   0  0  0  0  0  0  0  0  0  0  0  0
   36.7097   28.6925   50.1879 H   0  0  0  0  0  0  0  0  0  0  0  0
   34.5368   27.1346   50.0219 H   0  0  0  0  0  0  0  0  0  0  0  0
   30.4824   28.5278   45.4831 H   0  0  0  0  0  0  0  0  0  0  0  0
   32.7636   29.2089   46.1158 H   0  0  0  0  0  0  0  0  0  0  0  0
   32.1335   27.3947   49.9223 H   0  0  0  0  0  0  0  0  0  0  0  0
   29.8542   26.7127   49.2941 H   0  0  0  0  0  0  0  0  0  0  0  0
   28.7523   28.1505   45.1047 H   0  0  0  0  0  0  0  0  0  0  0  0
   26.5467   29.3971   47.0836 H   0  0  0  0  0  0  0  0  0  0  0  0
   26.8548   30.3939   45.9283 H   0  0  0  0  0  0  0  0  0  0  0  0
   26.0988   28.3331   44.1653 H   0  0  0  0  0  0  0  0  0  0  0  0
   25.5498   27.4431   45.3173 H   0  0  0  0  0  0  0  0  0  0  0  0
   38.2171   33.5036   50.1126 H   0  0  0  0  0  0  0  0  0  0  0  0
   39.3870   33.6123   47.9033 H   0  0  0  0  0  0  0  0  0  0  0  0
   38.7469   31.9552   46.1022 H   0  0  0  0  0  0  0  0  0  0  0  0
  1  2  1  0
  3  2  2  0
  4  3  1  0
  5  4  1  0
  5  1  2  0
  6 11  2  0
  7  8  2  0
  7  6  1  0
  8  9  1  0
  9  4  1  0
  9 10  2  0
 11 10  1  0
 12  6  1  0
 12 14  2  0
 13 12  2  0
 15 16  1  0
 15 12  1  0
 17 15  1  0
 17 16  1  0
 18 23  2  0
 19 18  1  0
 20 21  1  0
 20 19  2  0
 21 22  2  0
 22  1  1  0
 22 23  1  0
  2 24  1  0
  3 25  1  0
  7 26  1  0
  8 27  1  0
 10 28  1  0
 11 29  1  0
 15 30  1  0
 16 31  1  0
 16 32  1  0
 17 33  1  0
 17 34  1  0
 18 35  1  0
 19 36  1  0
 20 37  1  0
M  ISO  8  24  14  25  14  26  14  27  14  28  14  29  14  30  13  31  13
M  ISO  6  32  13  33  13  34  13  35  14  36  14  37  14
M  END
>  <minimizedAffinity>  (1) 
-5.56473303

>  <minimizedRMSD>  (1) 
0.724207282

$$$$
