
     RDKit          3D

 35 36  0  0  0  0  0  0  0  0999 V2000
   32.5560   28.3210   47.6840 C   0  0  0  0  0  0  0  0  0  0  0  0
   33.1380   29.2620   46.8630 C   0  0  0  0  0  0  0  0  0  0  0  0
   34.2960   29.8720   47.2940 C   0  0  0  0  0  0  0  0  0  0  0  0
   34.9290   29.6230   48.4840 C   0  0  0  0  0  0  0  0  0  0  0  0
   34.2910   28.6640   49.2660 C   0  0  0  0  0  0  0  0  0  0  0  0
   33.1310   28.0140   48.8960 C   0  0  0  0  0  0  0  0  0  0  0  0
   37.6110   30.8060   50.6280 C   0  0  0  0  0  0  0  0  0  0  0  0
   38.4540   31.5040   49.7110 C   0  0  0  0  0  0  0  0  0  0  0  0
   38.0600   31.5460   48.3530 C   0  0  0  0  0  0  0  0  0  0  0  0
   36.9050   30.9210   47.9920 N   0  0  0  0  0  0  0  0  0  0  0  0
   36.1340   30.2660   48.9050 C   0  0  0  0  0  0  0  0  0  0  0  0
   36.4870   30.2140   50.2000 N   0  0  0  0  0  0  0  0  0  0  0  0
   38.8620   32.2430   47.3180 C   0  0  0  0  0  0  0  0  0  0  0  0
   38.1140   32.6620   46.2520 F   0  0  0  0  0  0  0  0  0  0  0  0
   39.4590   33.3840   47.8460 F   0  0  0  0  0  0  0  0  0  0  0  0
   39.8310   31.3870   46.8140 F   0  0  0  0  0  0  0  0  0  0  0  0
   31.0630   27.5260   47.2700 S   0  0  0  0  0  0  0  0  0  0  0  0
   30.2920   28.3280   46.3190 O   0  0  0  0  0  0  0  0  0  0  0  0
   30.2530   27.3510   48.5690 O   0  0  0  0  0  0  0  0  0  0  0  0
   31.3200   25.8920   46.6180 C   0  0  0  0  0  0  0  0  0  0  0  0
   32.0530   24.9900   47.5590 C   0  0  0  0  0  0  0  0  0  0  0  0
   32.2230   26.0950   45.3830 C   0  0  0  0  0  0  0  0  0  0  0  0
   32.6911   29.5190   45.8913 H   0  0  0  0  0  0  0  0  0  0  0  0
   34.7499   30.6206   46.6280 H   0  0  0  0  0  0  0  0  0  0  0  0
   34.7386   28.4088   50.2379 H   0  0  0  0  0  0  0  0  0  0  0  0
   32.6742   27.2638   49.5582 H   0  0  0  0  0  0  0  0  0  0  0  0
   37.8855   30.7537   51.6919 H   0  0  0  0  0  0  0  0  0  0  0  0
   39.3794   31.9930   50.0494 H   0  0  0  0  0  0  0  0  0  0  0  0
   30.3459   25.4238   46.4131 H   0  0  0  0  0  0  0  0  0  0  0  0
   31.8212   25.2753   48.5958 H   0  0  0  0  0  0  0  0  0  0  0  0
   31.7415   23.9492   47.3867 H   0  0  0  0  0  0  0  0  0  0  0  0
   33.1355   25.0820   47.3867 H   0  0  0  0  0  0  0  0  0  0  0  0
   33.2472   26.3253   45.7115 H   0  0  0  0  0  0  0  0  0  0  0  0
   32.2297   25.1759   44.7786 H   0  0  0  0  0  0  0  0  0  0  0  0
   31.8357   26.9285   44.7786 H   0  0  0  0  0  0  0  0  0  0  0  0
  1  6  2  0
  2  3  2  0
  2  1  1  0
  3  4  1  0
  4 11  1  0
  4  5  2  0
  6  5  1  0
  8  7  2  0
  9  8  1  0
 10  9  2  0
 10 11  1  0
 11 12  2  0
 12  7  1  0
 13 15  1  0
 13  9  1  0
 14 13  1  0
 16 13  1  0
 17  1  1  0
 17 19  2  0
 18 17  2  0
 20 17  1  0
 20 21  1  0
 22 20  1  0
  2 23  1  0
  3 24  1  0
  5 25  1  0
  6 26  1  0
  7 27  1  0
  8 28  1  0
 20 29  1  0
 21 30  1  0
 21 31  1  0
 21 32  1  0
 22 33  1  0
 22 34  1  0
 22 35  1  0
M  ISO  8  23  14  24  14  25  14  26  14  27  14  28  14  29   8  30   8
M  ISO  5  31   8  32   8  33   8  34   8  35   8
M  END
>  <minimizedAffinity>  (1) 
-5.77118063

>  <minimizedRMSD>  (1) 
0.821606219

$$$$
