
     RDKit          3D

 12 12  0  0  0  0  0  0  0  0999 V2000
   37.6240   30.4210   49.6940 C   0  0  0  0  0  0  0  0  0  0  0  0
   38.3260   31.6180   49.8840 C   0  0  0  0  0  0  0  0  0  0  0  0
   38.5650   32.4160   48.7460 C   0  0  0  0  0  0  0  0  0  0  0  0
   38.0990   31.9810   47.5420 N   0  0  0  0  0  0  0  0  0  0  0  0
   37.4290   30.8220   47.4140 C   0  0  0  0  0  0  0  0  0  0  0  0
   37.1880   30.0400   48.4780 N   0  0  0  0  0  0  0  0  0  0  0  0
   37.3800   29.6000   50.8660 C   0  0  0  0  0  0  0  0  0  0  0  0
   37.4130   30.0100   52.0550 O   0  0  0  0  0  0  0  0  0  0  0  0
   38.6768   31.9234   50.8808 H   0  0  0  0  0  0  0  0  0  0  0  0
   39.1138   33.3657   48.8285 H   0  0  0  0  0  0  0  0  0  0  0  0
   37.0727   30.5098   46.4212 H   0  0  0  0  0  0  0  0  0  0  0  0
   37.1483   28.5373   50.7019 H   0  0  0  0  0  0  0  0  0  0  0  0
  1  2  2  0
  1  7  1  0
  3  2  1  0
  4  3  2  0
  5  4  1  0
  5  6  2  0
  6  1  1  0
  7  8  2  0
  2  9  1  0
  3 10  1  0
  5 11  1  0
  7 12  1  0
M  ISO  4   9  14  10  14  11  14  12   6
M  END
>  <minimizedAffinity>  (1) 
-3.30458546

>  <minimizedRMSD>  (1) 
2.41775513

$$$$
