
     RDKit          3D

 25 26  0  0  0  0  0  0  0  0999 V2000
   38.0870   31.1810   49.2390 C   0  0  0  0  0  0  0  0  0  0  0  0
   38.3150   32.4940   49.6490 C   0  0  0  0  0  0  0  0  0  0  0  0
   38.9060   33.4060   48.7560 C   0  0  0  0  0  0  0  0  0  0  0  0
   39.2220   32.9260   47.5260 N   0  0  0  0  0  0  0  0  0  0  0  0
   38.9920   31.6590   47.1570 C   0  0  0  0  0  0  0  0  0  0  0  0
   38.4310   30.7870   47.9950 N   0  0  0  0  0  0  0  0  0  0  0  0
   37.4760   30.3110   50.2140 C   0  0  0  0  0  0  0  0  0  0  0  0
   37.7020   30.3620   51.4620 O   0  0  0  0  0  0  0  0  0  0  0  0
   36.5150   29.2780   49.7380 C   0  0  0  0  0  0  0  0  0  0  0  0
   35.4820   29.0050   50.8140 C   0  0  0  0  0  0  0  0  0  0  0  0
   34.2230   29.6700   50.2910 C   0  0  0  0  0  0  0  0  0  0  0  0
   34.3040   29.2870   48.8200 C   0  0  0  0  0  0  0  0  0  0  0  0
   35.7340   29.7600   48.5320 C   0  0  0  0  0  0  0  0  0  0  0  0
   38.0348   32.8143   50.6633 H   0  0  0  0  0  0  0  0  0  0  0  0
   39.1014   34.4509   49.0387 H   0  0  0  0  0  0  0  0  0  0  0  0
   39.2710   31.3322   46.1444 H   0  0  0  0  0  0  0  0  0  0  0  0
   37.1067   28.3852   49.4874 H   0  0  0  0  0  0  0  0  0  0  0  0
   35.3282   27.9235   50.9430 H   0  0  0  0  0  0  0  0  0  0  0  0
   35.7854   29.3885   51.7993 H   0  0  0  0  0  0  0  0  0  0  0  0
   33.3194   29.2630   50.7684 H   0  0  0  0  0  0  0  0  0  0  0  0
   34.1600   30.7514   50.4824 H   0  0  0  0  0  0  0  0  0  0  0  0
   34.1887   28.2036   48.6682 H   0  0  0  0  0  0  0  0  0  0  0  0
   33.5232   29.7153   48.1743 H   0  0  0  0  0  0  0  0  0  0  0  0
   36.1194   29.3065   47.6069 H   0  0  0  0  0  0  0  0  0  0  0  0
   35.8039   30.8476   48.3827 H   0  0  0  0  0  0  0  0  0  0  0  0
  1  2  2  0
  1  7  1  0
  3  2  1  0
  4  3  2  0
  5  4  1  0
  5  6  2  0
  6  1  1  0
  7  8  2  0
  9  7  1  0
  9 10  1  0
 11 10  1  0
 12 11  1  0
 13 12  1  0
 13  9  1  0
  2 14  1  0
  3 15  1  0
  5 16  1  0
  9 17  1  0
 10 18  1  0
 10 19  1  0
 11 20  1  0
 11 21  1  0
 12 22  1  0
 12 23  1  0
 13 24  1  0
 13 25  1  0
M  ISO  8  14  14  15  14  16  14  17  13  18  13  19  13  20  13  21  13
M  ISO  4  22  13  23  13  24  13  25  13
M  END
>  <minimizedAffinity>  (1) 
-5.10493708

>  <minimizedRMSD>  (1) 
1.85862291

$$$$
