
     RDKit          3D

 19 20  0  0  0  0  0  0  0  0999 V2000
   37.8960   31.2760   49.3030 C   0  0  0  0  0  0  0  0  0  0  0  0
   38.2980   32.5710   49.6200 C   0  0  0  0  0  0  0  0  0  0  0  0
   38.9690   33.3000   48.6290 C   0  0  0  0  0  0  0  0  0  0  0  0
   39.1900   32.7090   47.4240 N   0  0  0  0  0  0  0  0  0  0  0  0
   38.7870   31.4570   47.1570 C   0  0  0  0  0  0  0  0  0  0  0  0
   38.1450   30.7530   48.0950 N   0  0  0  0  0  0  0  0  0  0  0  0
   37.1980   30.4810   50.2970 C   0  0  0  0  0  0  0  0  0  0  0  0
   37.5890   30.3840   51.4970 O   0  0  0  0  0  0  0  0  0  0  0  0
   35.9850   29.7530   49.9130 C   0  0  0  0  0  0  0  0  0  0  0  0
   34.7070   30.3040   49.8570 C   0  0  0  0  0  0  0  0  0  0  0  0
   33.9210   29.2440   49.4520 C   0  0  0  0  0  0  0  0  0  0  0  0
   34.6970   28.1220   49.2770 C   0  0  0  0  0  0  0  0  0  0  0  0
   35.9050   28.4980   49.5680 O   0  0  0  0  0  0  0  0  0  0  0  0
   38.0965   33.0051   50.6104 H   0  0  0  0  0  0  0  0  0  0  0  0
   39.3097   34.3281   48.8215 H   0  0  0  0  0  0  0  0  0  0  0  0
   38.9841   31.0119   46.1706 H   0  0  0  0  0  0  0  0  0  0  0  0
   34.3983   31.3357   50.0815 H   0  0  0  0  0  0  0  0  0  0  0  0
   32.8336   29.2899   49.2926 H   0  0  0  0  0  0  0  0  0  0  0  0
   34.3657   27.1224   48.9592 H   0  0  0  0  0  0  0  0  0  0  0  0
  1  2  2  0
  1  7  1  0
  3  2  1  0
  4  3  2  0
  5  4  1  0
  5  6  2  0
  6  1  1  0
  7  8  2  0
  9  7  1  0
 10  9  2  0
 11 10  1  0
 12 11  2  0
 12 13  1  0
 13  9  1  0
  2 14  1  0
  3 15  1  0
  5 16  1  0
 10 17  1  0
 11 18  1  0
 12 19  1  0
M  ISO  6  14  14  15  14  16  14  17  14  18  14  19  14
M  END
>  <minimizedAffinity>  (1) 
-4.6568656

>  <minimizedRMSD>  (1) 
2.04585242

$$$$
