
     RDKit          3D

 20 21  0  0  0  0  0  0  0  0999 V2000
   38.4310   32.3660   47.7990 C   0  0  0  0  0  0  0  0  0  0  0  0
   38.3610   33.0410   49.0130 C   0  0  0  0  0  0  0  0  0  0  0  0
   39.2670   34.0960   49.1890 C   0  0  0  0  0  0  0  0  0  0  0  0
   40.1360   34.3800   48.1780 N   0  0  0  0  0  0  0  0  0  0  0  0
   40.1610   33.7000   47.0300 C   0  0  0  0  0  0  0  0  0  0  0  0
   39.3030   32.6820   46.8350 N   0  0  0  0  0  0  0  0  0  0  0  0
   37.4970   31.2730   47.6100 C   0  0  0  0  0  0  0  0  0  0  0  0
   37.1210   30.8020   46.5090 O   0  0  0  0  0  0  0  0  0  0  0  0
   36.9100   30.6220   48.7820 C   0  0  0  0  0  0  0  0  0  0  0  0
   37.7180   29.9910   49.7040 C   0  0  0  0  0  0  0  0  0  0  0  0
   37.1750   29.3640   50.8300 C   0  0  0  0  0  0  0  0  0  0  0  0
   35.8400   29.3690   51.0330 N   0  0  0  0  0  0  0  0  0  0  0  0
   35.0720   29.9880   50.1250 C   0  0  0  0  0  0  0  0  0  0  0  0
   35.5840   30.6000   49.0280 N   0  0  0  0  0  0  0  0  0  0  0  0
   37.6353   32.7626   49.7914 H   0  0  0  0  0  0  0  0  0  0  0  0
   39.2765   34.6807   50.1207 H   0  0  0  0  0  0  0  0  0  0  0  0
   40.8818   33.9712   46.2445 H   0  0  0  0  0  0  0  0  0  0  0  0
   38.8073   29.9806   49.5514 H   0  0  0  0  0  0  0  0  0  0  0  0
   37.8375   28.8651   51.5526 H   0  0  0  0  0  0  0  0  0  0  0  0
   33.9824   30.0001   50.2757 H   0  0  0  0  0  0  0  0  0  0  0  0
  1  2  2  0
  2  3  1  0
  4  3  2  0
  5  4  1  0
  6  5  2  0
  6  1  1  0
  7  1  1  0
  7  9  1  0
  8  7  2  0
  9 14  1  0
  9 10  2  0
 10 11  1  0
 11 12  2  0
 13 12  1  0
 14 13  2  0
  2 15  1  0
  3 16  1  0
  5 17  1  0
 10 18  1  0
 11 19  1  0
 13 20  1  0
M  ISO  6  15  14  16  14  17  14  18  14  19  14  20  14
M  END
>  <minimizedAffinity>  (1) 
-4.54969883

>  <minimizedRMSD>  (1) 
3.7149117

$$$$
