
     RDKit          3D

 19 20  0  0  0  0  0  0  0  0999 V2000
   37.8890   31.2820   49.2150 C   0  0  0  0  0  0  0  0  0  0  0  0
   38.3130   32.5730   49.5130 C   0  0  0  0  0  0  0  0  0  0  0  0
   38.9880   33.2450   48.4860 C   0  0  0  0  0  0  0  0  0  0  0  0
   39.1820   32.6160   47.3030 N   0  0  0  0  0  0  0  0  0  0  0  0
   38.7540   31.3720   47.0680 C   0  0  0  0  0  0  0  0  0  0  0  0
   38.1000   30.6810   48.0180 N   0  0  0  0  0  0  0  0  0  0  0  0
   37.1870   30.5390   50.2380 C   0  0  0  0  0  0  0  0  0  0  0  0
   37.5210   30.5010   51.4610 O   0  0  0  0  0  0  0  0  0  0  0  0
   35.9840   29.7500   49.8850 C   0  0  0  0  0  0  0  0  0  0  0  0
   34.7030   30.2780   49.8190 C   0  0  0  0  0  0  0  0  0  0  0  0
   33.8830   29.2020   49.4570 C   0  0  0  0  0  0  0  0  0  0  0  0
   34.6510   28.1070   49.3200 N   0  0  0  0  0  0  0  0  0  0  0  0
   35.9040   28.4460   49.5780 N   0  0  0  0  0  0  0  0  0  0  0  0
   38.1297   33.0369   50.4934 H   0  0  0  0  0  0  0  0  0  0  0  0
   39.3557   34.2704   48.6387 H   0  0  0  0  0  0  0  0  0  0  0  0
   38.9386   30.9088   46.0875 H   0  0  0  0  0  0  0  0  0  0  0  0
   34.3973   31.3173   50.0098 H   0  0  0  0  0  0  0  0  0  0  0  0
   32.7938   29.2454   49.3096 H   0  0  0  0  0  0  0  0  0  0  0  0
   34.3212   27.1667   49.0593 H   0  0  0  0  0  0  0  0  0  0  0  0
  1  2  2  0
  1  7  1  0
  3  2  1  0
  4  3  2  0
  5  4  1  0
  5  6  2  0
  6  1  1  0
  7  8  2  0
  9  7  1  0
 10  9  1  0
 11 10  2  0
 12 11  1  0
 12 13  1  0
 13  9  2  0
  2 14  1  0
  3 15  1  0
  5 16  1  0
 10 17  1  0
 11 18  1  0
 12 19  1  0
M  ISO  6  14  14  15  14  16  14  17  14  18  14  19   9
M  END
>  <minimizedAffinity>  (1) 
-4.42262745

>  <minimizedRMSD>  (1) 
2.06557488

$$$$
