
     RDKit          3D

 28 30  0  0  1  0  0  0  0  0999 V2000
   37.5670   31.1130   49.3340 C   0  0  0  0  0  0  0  0  0  0  0  0
   38.0870   30.9400   50.5590 N   0  0  0  0  0  0  0  0  0  0  0  0
   37.5280   30.1040   51.4910 C   0  0  0  0  0  0  0  0  0  0  0  0
   36.4150   29.3970   51.2360 N   0  0  0  0  0  0  0  0  0  0  0  0
   35.8310   29.5120   50.0280 C   0  0  0  0  0  0  0  0  0  0  0  0
   34.7060   28.7850   49.7330 C   0  0  0  0  0  0  0  0  0  0  0  0
   34.1040   28.8650   48.5010 C   0  0  0  0  0  0  0  0  0  0  0  0
   34.6920   29.7160   47.5690 C   0  0  0  0  0  0  0  0  0  0  0  0
   35.8170   30.4250   47.9090 C   0  0  0  0  0  0  0  0  0  0  0  0
   36.4330   30.3620   49.1340 C   0  0  0  0  0  0  0  0  0  0  0  0
   38.2150   32.0170   48.3880 C   0  0  0  0  0  0  0  0  0  0  0  0
   38.0290   33.1950   48.9060 O   0  0  0  0  0  0  0  0  0  0  0  0
   38.9200   31.8130   47.1510 C   0  0  0  0  0  0  0  0  0  0  0  0
   39.6280   32.9410   46.7560 C   0  0  0  0  0  0  0  0  0  0  0  0
   40.3980   32.8990   45.5500 C   0  0  0  0  0  0  0  0  0  0  0  0
   40.3820   31.7180   44.8540 N   0  0  0  0  0  0  0  0  0  0  0  0
   39.6810   30.6540   45.2760 C   0  0  0  0  0  0  0  0  0  0  0  0
   38.9610   30.6770   46.3900 N   0  0  0  0  0  0  0  0  0  0  0  0
   38.0056   30.0095   52.4774 H   0  0  0  0  0  0  0  0  0  0  0  0
   34.2765   28.1235   50.4997 H   0  0  0  0  0  0  0  0  0  0  0  0
   33.2007   28.2846   48.2621 H   0  0  0  0  0  0  0  0  0  0  0  0
   34.2567   29.8197   46.5642 H   0  0  0  0  0  0  0  0  0  0  0  0
   36.2545   31.0885   47.1485 H   0  0  0  0  0  0  0  0  0  0  0  0
   39.1594   31.9217   48.9439 H   0  0  0  0  0  0  0  0  0  0  0  0
   38.0398   33.1267   49.8936 H   0  0  0  0  0  0  0  0  0  0  0  0
   39.5972   33.8573   47.3638 H   0  0  0  0  0  0  0  0  0  0  0  0
   40.9727   33.7691   45.1999 H   0  0  0  0  0  0  0  0  0  0  0  0
   39.7043   29.7313   44.6776 H   0  0  0  0  0  0  0  0  0  0  0  0
  1  2  2  0
  2  3  1  0
  4  3  2  0
  5  4  1  0
  6  5  2  0
  7  6  1  0
  8  9  1  0
  8  7  2  0
  9 10  2  0
 10  1  1  0
 10  5  1  0
 11 12  1  0
 11  1  1  0
 13 11  1  0
 14 13  2  0
 15 14  1  0
 16 17  1  0
 16 15  2  0
 17 18  2  0
 18 13  1  0
  3 19  1  0
  6 20  1  0
  7 21  1  0
  8 22  1  0
  9 23  1  0
 11 24  1  0
 12 25  1  0
 14 26  1  0
 15 27  1  0
 17 28  1  0
M  ISO  8  19  14  20  14  21  14  22  14  23  14  24   8  25   3  26  14
M  ISO  2  27  14  28  14
M  END
>  <minimizedAffinity>  (1) 
-6.48172808

>  <minimizedRMSD>  (1) 
3.82205772

$$$$
