
     RDKit          3D

 43 46  0  0  1  0  0  0  0  0999 V2000
   38.5760   32.2590   48.0800 C   0  0  1  0  0  0  0  0  0  0  0  0
   37.9230   31.2970   48.9620 C   0  0  0  0  0  0  0  0  0  0  0  0
   38.4130   31.1120   50.1860 N   0  0  0  0  0  0  0  0  0  0  0  0
   37.8800   30.2340   51.0730 C   0  0  0  0  0  0  0  0  0  0  0  0
   36.8170   29.4860   50.7780 N   0  0  0  0  0  0  0  0  0  0  0  0
   36.2370   29.5970   49.5570 C   0  0  0  0  0  0  0  0  0  0  0  0
   35.1470   28.8400   49.2190 C   0  0  0  0  0  0  0  0  0  0  0  0
   34.5610   28.9410   47.9940 C   0  0  0  0  0  0  0  0  0  0  0  0
   35.1220   29.8420   47.1210 C   0  0  0  0  0  0  0  0  0  0  0  0
   36.2170   30.5870   47.4890 C   0  0  0  0  0  0  0  0  0  0  0  0
   36.8240   30.5020   48.7120 C   0  0  0  0  0  0  0  0  0  0  0  0
   39.0910   32.1810   46.7420 C   0  0  0  0  0  0  0  0  0  0  0  0
   39.8190   33.3390   46.4180 C   0  0  0  0  0  0  0  0  0  0  0  0
   40.5380   33.4000   45.1750 C   0  0  0  0  0  0  0  0  0  0  0  0
   40.4470   32.2960   44.3920 N   0  0  0  0  0  0  0  0  0  0  0  0
   39.7290   31.1970   44.7420 C   0  0  0  0  0  0  0  0  0  0  0  0
   39.0680   31.1400   45.8840 N   0  0  0  0  0  0  0  0  0  0  0  0
   39.7070   30.0960   43.8340 N   0  0  0  0  0  0  0  0  0  0  0  0
   40.6590   29.9950   42.7440 C   0  0  0  0  0  0  0  0  0  0  0  0
   39.8810   29.5910   41.4890 C   0  0  0  0  0  0  0  0  0  0  0  0
   39.3600   28.1860   41.6890 C   0  0  0  0  0  0  0  0  0  0  0  0
   39.1570   27.8450   43.1320 C   0  0  0  0  0  0  0  0  0  0  0  0
   38.7310   29.0290   43.9590 C   0  0  0  0  0  0  0  0  0  0  0  0
   38.1940   33.4290   48.5930 O   0  0  0  0  0  0  0  0  0  0  0  0
   39.5743   31.8229   47.9278 H   0  0  0  0  0  0  0  0  0  0  0  0
   38.3401   30.1365   52.0674 H   0  0  0  0  0  0  0  0  0  0  0  0
   34.7350   28.1335   49.9546 H   0  0  0  0  0  0  0  0  0  0  0  0
   33.6859   28.3342   47.7181 H   0  0  0  0  0  0  0  0  0  0  0  0
   34.6902   29.9683   46.1172 H   0  0  0  0  0  0  0  0  0  0  0  0
   36.6304   31.2947   46.7553 H   0  0  0  0  0  0  0  0  0  0  0  0
   39.8383   34.1929   47.1112 H   0  0  0  0  0  0  0  0  0  0  0  0
   41.1231   34.2830   44.8784 H   0  0  0  0  0  0  0  0  0  0  0  0
   41.1514   30.9656   42.5843 H   0  0  0  0  0  0  0  0  0  0  0  0
   41.4348   29.2503   42.9752 H   0  0  0  0  0  0  0  0  0  0  0  0
   40.5457   29.6206   40.6130 H   0  0  0  0  0  0  0  0  0  0  0  0
   39.0453   30.2859   41.3195 H   0  0  0  0  0  0  0  0  0  0  0  0
   38.3971   28.0900   41.1659 H   0  0  0  0  0  0  0  0  0  0  0  0
   40.1127   27.4922   41.2864 H   0  0  0  0  0  0  0  0  0  0  0  0
   38.3805   27.0692   43.2035 H   0  0  0  0  0  0  0  0  0  0  0  0
   40.1220   27.4956   43.5278 H   0  0  0  0  0  0  0  0  0  0  0  0
   38.6531   28.7278   45.0141 H   0  0  0  0  0  0  0  0  0  0  0  0
   37.7545   29.3878   43.6015 H   0  0  0  0  0  0  0  0  0  0  0  0
   38.2109   33.3772   49.5815 H   0  0  0  0  0  0  0  0  0  0  0  0
  1 24  1  0
  1  2  1  0
  2  3  2  0
  3  4  1  0
  5  4  2  0
  6  5  1  0
  7  6  2  0
  8  7  1  0
  9 10  1  0
  9  8  2  0
 10 11  2  0
 11  2  1  0
 11  6  1  0
 12  1  1  0
 13 12  2  0
 14 13  1  0
 15 16  1  0
 15 14  2  0
 16 17  2  0
 17 12  1  0
 18 23  1  0
 18 16  1  0
 19 18  1  0
 20 21  1  0
 20 19  1  0
 21 22  1  0
 22 23  1  0
  1 25  1  1
  4 26  1  0
  7 27  1  0
  8 28  1  0
  9 29  1  0
 10 30  1  0
 13 31  1  0
 14 32  1  0
 19 33  1  0
 19 34  1  0
 20 35  1  0
 20 36  1  0
 21 37  1  0
 21 38  1  0
 22 39  1  0
 22 40  1  0
 23 41  1  0
 23 42  1  0
 24 43  1  0
M  ISO  8  25   8  26  14  27  14  28  14  29  14  30  14  31  14  32  14
M  ISO  8  33  13  34  13  35  13  36  13  37  13  38  13  39  13  40  13
M  ISO  3  41  13  42  13  43   3
M  END
>  <minimizedAffinity>  (1) 
-7.43515539

>  <minimizedRMSD>  (1) 
0.763207436

$$$$
