
     RDKit          3D

 40 42  0  0  1  0  0  0  0  0999 V2000
   38.3970   32.1460   48.0110 C   0  0  1  0  0  0  0  0  0  0  0  0
   37.7670   31.2430   48.9730 C   0  0  0  0  0  0  0  0  0  0  0  0
   38.3180   31.1090   50.1800 N   0  0  0  0  0  0  0  0  0  0  0  0
   37.8080   30.2910   51.1360 C   0  0  0  0  0  0  0  0  0  0  0  0
   36.7110   29.5580   50.9380 N   0  0  0  0  0  0  0  0  0  0  0  0
   36.0730   29.6260   49.7410 C   0  0  0  0  0  0  0  0  0  0  0  0
   34.9500   28.8790   49.5090 C   0  0  0  0  0  0  0  0  0  0  0  0
   34.3020   28.9320   48.3090 C   0  0  0  0  0  0  0  0  0  0  0  0
   34.8370   29.7710   47.3580 C   0  0  0  0  0  0  0  0  0  0  0  0
   35.9680   30.5030   47.6310 C   0  0  0  0  0  0  0  0  0  0  0  0
   36.6380   30.4680   48.8240 C   0  0  0  0  0  0  0  0  0  0  0  0
   38.7930   32.0000   46.6400 C   0  0  0  0  0  0  0  0  0  0  0  0
   39.9180   32.7930   46.3590 C   0  0  0  0  0  0  0  0  0  0  0  0
   40.5630   32.6800   45.0750 C   0  0  0  0  0  0  0  0  0  0  0  0
   40.0070   31.7870   44.2210 N   0  0  0  0  0  0  0  0  0  0  0  0
   38.9150   31.0410   44.5310 C   0  0  0  0  0  0  0  0  0  0  0  0
   38.3210   31.1440   45.7080 N   0  0  0  0  0  0  0  0  0  0  0  0
   38.3630   30.0830   43.5330 C   0  0  0  0  0  0  0  0  0  0  0  0
   36.9120   29.7610   43.8140 C   0  0  0  0  0  0  0  0  0  0  0  0
   39.1230   28.7670   43.5450 C   0  0  0  0  0  0  0  0  0  0  0  0
   38.5080   30.6370   42.1100 C   0  0  0  0  0  0  0  0  0  0  0  0
   38.1130   33.3440   48.5100 O   0  0  0  0  0  0  0  0  0  0  0  0
   39.3657   31.6666   47.8065 H   0  0  0  0  0  0  0  0  0  0  0  0
   38.3176   30.2304   52.1089 H   0  0  0  0  0  0  0  0  0  0  0  0
   34.5628   28.2243   50.3037 H   0  0  0  0  0  0  0  0  0  0  0  0
   33.3992   28.3353   48.1121 H   0  0  0  0  0  0  0  0  0  0  0  0
   34.3560   29.8563   46.3724 H   0  0  0  0  0  0  0  0  0  0  0  0
   36.3598   31.1591   46.8398 H   0  0  0  0  0  0  0  0  0  0  0  0
   40.3037   33.4948   47.1131 H   0  0  0  0  0  0  0  0  0  0  0  0
   41.4464   33.2780   44.8067 H   0  0  0  0  0  0  0  0  0  0  0  0
   36.7484   29.7247   44.9012 H   0  0  0  0  0  0  0  0  0  0  0  0
   36.2716   30.5389   43.3726 H   0  0  0  0  0  0  0  0  0  0  0  0
   36.6608   28.7853   43.3726 H   0  0  0  0  0  0  0  0  0  0  0  0
   39.3023   28.4566   44.5850 H   0  0  0  0  0  0  0  0  0  0  0  0
   38.5307   27.9968   43.0294 H   0  0  0  0  0  0  0  0  0  0  0  0
   40.0862   28.8951   43.0294 H   0  0  0  0  0  0  0  0  0  0  0  0
   38.7863   31.7002   42.1570 H   0  0  0  0  0  0  0  0  0  0  0  0
   39.2897   30.0766   41.5763 H   0  0  0  0  0  0  0  0  0  0  0  0
   37.5520   30.5315   41.5763 H   0  0  0  0  0  0  0  0  0  0  0  0
   38.1233   33.3004   49.4990 H   0  0  0  0  0  0  0  0  0  0  0  0
  1 22  1  0
  1  2  1  0
  2  3  2  0
  3  4  1  0
  5  4  2  0
  6  5  1  0
  7  6  2  0
  8  7  1  0
  9 10  1  0
  9  8  2  0
 10 11  2  0
 11  2  1  0
 11  6  1  0
 12  1  1  0
 13 12  2  0
 14 13  1  0
 15 16  1  0
 15 14  2  0
 16 17  2  0
 17 12  1  0
 18 20  1  0
 18 19  1  0
 18 16  1  0
 21 18  1  0
  1 23  1  1
  4 24  1  0
  7 25  1  0
  8 26  1  0
  9 27  1  0
 10 28  1  0
 13 29  1  0
 14 30  1  0
 19 31  1  0
 19 32  1  0
 19 33  1  0
 20 34  1  0
 20 35  1  0
 20 36  1  0
 21 37  1  0
 21 38  1  0
 21 39  1  0
 22 40  1  0
M  ISO  8  23   8  24  14  25  14  26  14  27  14  28  14  29  14  30  14
M  ISO  8  31   8  32   8  33   8  34   8  35   8  36   8  37   8  38   8
M  ISO  2  39   8  40   3
M  END
>  <minimizedAffinity>  (1) 
-6.76563406

>  <minimizedRMSD>  (1) 
1.05147278

$$$$
