
     RDKit          3D

 38 41  0  0  1  0  0  0  0  0999 V2000
   38.3170   31.7750   48.0660 C   0  0  1  0  0  0  0  0  0  0  0  0
   37.7130   30.9040   49.0900 C   0  0  0  0  0  0  0  0  0  0  0  0
   38.2910   30.7900   50.2780 N   0  0  0  0  0  0  0  0  0  0  0  0
   37.7900   30.0180   51.2660 C   0  0  0  0  0  0  0  0  0  0  0  0
   36.6800   29.3080   51.1270 N   0  0  0  0  0  0  0  0  0  0  0  0
   36.0030   29.3430   49.9650 C   0  0  0  0  0  0  0  0  0  0  0  0
   34.8620   28.6110   49.7870 C   0  0  0  0  0  0  0  0  0  0  0  0
   34.1820   28.6300   48.6110 C   0  0  0  0  0  0  0  0  0  0  0  0
   34.7050   29.4310   47.6120 C   0  0  0  0  0  0  0  0  0  0  0  0
   35.8530   30.1530   47.8240 C   0  0  0  0  0  0  0  0  0  0  0  0
   36.5500   30.1430   48.9940 C   0  0  0  0  0  0  0  0  0  0  0  0
   38.8680   31.4930   46.7780 C   0  0  0  0  0  0  0  0  0  0  0  0
   39.9250   32.3960   46.5110 C   0  0  0  0  0  0  0  0  0  0  0  0
   40.7280   32.2290   45.3420 C   0  0  0  0  0  0  0  0  0  0  0  0
   40.4030   31.2000   44.5690 N   0  0  0  0  0  0  0  0  0  0  0  0
   39.3690   30.3410   44.8470 C   0  0  0  0  0  0  0  0  0  0  0  0
   38.6280   30.4910   45.9240 N   0  0  0  0  0  0  0  0  0  0  0  0
   39.0090   29.2160   43.9310 C   0  0  0  0  0  0  0  0  0  0  0  0
   37.6840   32.9440   48.3050 O   0  0  0  0  0  0  0  0  0  0  0  0
   38.3390   33.9910   48.8520 C   0  0  0  0  0  0  0  0  0  0  0  0
   39.2890   33.6380   50.0030 C   0  0  0  0  0  0  0  0  0  0  0  0
   39.8100   34.1700   48.7480 C   0  0  0  0  0  0  0  0  0  0  0  0
   39.4019   31.6052   48.1311 H   0  0  0  0  0  0  0  0  0  0  0  0
   38.3255   29.9768   52.2260 H   0  0  0  0  0  0  0  0  0  0  0  0
   34.4859   27.9924   50.6152 H   0  0  0  0  0  0  0  0  0  0  0  0
   33.2654   28.0405   48.4615 H   0  0  0  0  0  0  0  0  0  0  0  0
   34.1962   29.4900   46.6385 H   0  0  0  0  0  0  0  0  0  0  0  0
   36.2322   30.7762   47.0007 H   0  0  0  0  0  0  0  0  0  0  0  0
   40.1277   33.2260   47.2038 H   0  0  0  0  0  0  0  0  0  0  0  0
   41.5593   32.9070   45.0986 H   0  0  0  0  0  0  0  0  0  0  0  0
   38.7270   28.3347   44.5258 H   0  0  0  0  0  0  0  0  0  0  0  0
   38.1621   29.5164   43.2965 H   0  0  0  0  0  0  0  0  0  0  0  0
   39.8730   28.9690   43.2965 H   0  0  0  0  0  0  0  0  0  0  0  0
   37.4900   34.6588   48.6440 H   0  0  0  0  0  0  0  0  0  0  0  0
   39.3061   34.2555   50.9131 H   0  0  0  0  0  0  0  0  0  0  0  0
   39.4805   32.7412   50.6105 H   0  0  0  0  0  0  0  0  0  0  0  0
   40.3900   33.5154   48.0809 H   0  0  0  0  0  0  0  0  0  0  0  0
   40.4570   35.0222   48.4927 H   0  0  0  0  0  0  0  0  0  0  0  0
  1 19  1  0
  1  2  1  0
  2  3  2  0
  3  4  1  0
  5  4  2  0
  6  5  1  0
  7  6  2  0
  8  7  1  0
  9 10  1  0
  9  8  2  0
 10 11  2  0
 11  2  1  0
 11  6  1  0
 12  1  1  0
 13 12  2  0
 14 13  1  0
 15 16  1  0
 15 14  2  0
 16 17  2  0
 17 12  1  0
 18 16  1  0
 19 20  1  0
 20 21  1  0
 22 20  1  0
 22 21  1  0
  1 23  1  1
  4 24  1  0
  7 25  1  0
  8 26  1  0
  9 27  1  0
 10 28  1  0
 13 29  1  0
 14 30  1  0
 18 31  1  0
 18 32  1  0
 18 33  1  0
 20 34  1  0
 21 35  1  0
 21 36  1  0
 22 37  1  0
 22 38  1  0
M  ISO  8  23   8  24  14  25  14  26  14  27  14  28  14  29  14  30  14
M  ISO  8  31   8  32   8  33   8  34  13  35  13  36  13  37  13  38  13
M  END
>  <minimizedAffinity>  (1) 
-6.27150679

>  <minimizedRMSD>  (1) 
0.541086435

$$$$
