
     RDKit          3D

 51 54  0  0  1  0  0  0  0  0999 V2000
   38.6860   31.7900   48.1700 C   0  0  1  0  0  0  0  0  0  0  0  0
   37.8760   31.0510   49.1260 C   0  0  0  0  0  0  0  0  0  0  0  0
   38.3160   30.8800   50.3660 N   0  0  0  0  0  0  0  0  0  0  0  0
   37.6260   30.1970   51.2950 C   0  0  0  0  0  0  0  0  0  0  0  0
   36.4480   29.6350   51.0520 N   0  0  0  0  0  0  0  0  0  0  0  0
   35.8850   29.7340   49.8380 C   0  0  0  0  0  0  0  0  0  0  0  0
   34.6830   29.1610   49.5450 C   0  0  0  0  0  0  0  0  0  0  0  0
   34.1270   29.2560   48.3150 C   0  0  0  0  0  0  0  0  0  0  0  0
   34.8450   29.9700   47.3660 C   0  0  0  0  0  0  0  0  0  0  0  0
   36.0540   30.5350   47.6980 C   0  0  0  0  0  0  0  0  0  0  0  0
   36.6270   30.4470   48.9140 C   0  0  0  0  0  0  0  0  0  0  0  0
   39.0410   31.5570   46.8030 C   0  0  0  0  0  0  0  0  0  0  0  0
   39.8170   32.6390   46.3100 C   0  0  0  0  0  0  0  0  0  0  0  0
   40.3690   32.5620   44.9880 C   0  0  0  0  0  0  0  0  0  0  0  0
   40.1000   31.4490   44.3110 N   0  0  0  0  0  0  0  0  0  0  0  0
   39.3490   30.4320   44.8200 C   0  0  0  0  0  0  0  0  0  0  0  0
   38.8410   30.4960   46.0310 N   0  0  0  0  0  0  0  0  0  0  0  0
   39.0330   29.2110   44.0150 C   0  0  0  0  0  0  0  0  0  0  0  0
   37.7340   29.5510   43.2790 C   0  0  0  0  0  0  0  0  0  0  0  0
   38.0670   30.3080   42.0190 C   0  0  0  0  0  0  0  0  0  0  0  0
   36.8220   31.0460   41.5560 C   0  0  0  0  0  0  0  0  0  0  0  0
   35.5750   30.2820   41.9450 C   0  0  0  0  0  0  0  0  0  0  0  0
   35.4480   30.3690   43.4490 C   0  0  0  0  0  0  0  0  0  0  0  0
   36.8090   30.3770   44.1290 C   0  0  0  0  0  0  0  0  0  0  0  0
   38.4150   33.0900   48.5600 O   0  0  0  0  0  0  0  0  0  0  0  0
   39.2470   34.0260   49.1350 C   0  0  0  0  0  0  0  0  0  0  0  0
   39.7310   35.1890   48.3920 N   0  0  0  0  0  0  0  0  0  0  0  0
   39.6290   33.9230   50.3270 O   0  0  0  0  0  0  0  0  0  0  0  0
   39.6567   31.2735   48.2008 H   0  0  0  0  0  0  0  0  0  0  0  0
   38.0567   30.0991   52.3024 H   0  0  0  0  0  0  0  0  0  0  0  0
   34.1501   28.6057   50.3309 H   0  0  0  0  0  0  0  0  0  0  0  0
   33.1577   28.7921   48.0799 H   0  0  0  0  0  0  0  0  0  0  0  0
   34.4466   30.0841   46.3471 H   0  0  0  0  0  0  0  0  0  0  0  0
   36.5892   31.0966   46.9181 H   0  0  0  0  0  0  0  0  0  0  0  0
   39.9931   33.5269   46.9350 H   0  0  0  0  0  0  0  0  0  0  0  0
   40.9770   33.3731   44.5607 H   0  0  0  0  0  0  0  0  0  0  0  0
   39.8403   29.0001   43.2982 H   0  0  0  0  0  0  0  0  0  0  0  0
   38.9305   28.3146   44.6443 H   0  0  0  0  0  0  0  0  0  0  0  0
   37.2185   28.6090   43.0405 H   0  0  0  0  0  0  0  0  0  0  0  0
   38.8722   31.0296   42.2216 H   0  0  0  0  0  0  0  0  0  0  0  0
   38.4035   29.6102   41.2381 H   0  0  0  0  0  0  0  0  0  0  0  0
   36.8524   31.1555   40.4619 H   0  0  0  0  0  0  0  0  0  0  0  0
   36.7965   32.0351   42.0366 H   0  0  0  0  0  0  0  0  0  0  0  0
   34.6928   30.7315   41.4657 H   0  0  0  0  0  0  0  0  0  0  0  0
   35.6419   29.2336   41.6189 H   0  0  0  0  0  0  0  0  0  0  0  0
   34.9143   31.2951   43.7087 H   0  0  0  0  0  0  0  0  0  0  0  0
   34.8953   29.4844   43.7983 H   0  0  0  0  0  0  0  0  0  0  0  0
   36.7304   29.9398   45.1353 H   0  0  0  0  0  0  0  0  0  0  0  0
   37.1875   31.4044   44.2342 H   0  0  0  0  0  0  0  0  0  0  0  0
   40.3521   35.8710   48.8503 H   0  0  0  0  0  0  0  0  0  0  0  0
   39.4508   35.3261   47.4104 H   0  0  0  0  0  0  0  0  0  0  0  0
  1 25  1  0
  1  2  1  0
  2  3  2  0
  3  4  1  0
  5  4  2  0
  6  5  1  0
  7  6  2  0
  8  7  1  0
  9 10  1  0
  9  8  2  0
 10 11  2  0
 11  2  1  0
 11  6  1  0
 12  1  1  0
 13 12  2  0
 14 13  1  0
 15 16  1  0
 15 14  2  0
 16 17  2  0
 17 12  1  0
 18 16  1  0
 19 18  1  0
 19 24  1  0
 20 19  1  0
 21 22  1  0
 21 20  1  0
 22 23  1  0
 23 24  1  0
 25 26  1  0
 26 28  2  0
 27 26  1  0
  1 29  1  1
  4 30  1  0
  7 31  1  0
  8 32  1  0
  9 33  1  0
 10 34  1  0
 13 35  1  0
 14 36  1  0
 18 37  1  0
 18 38  1  0
 19 39  1  0
 20 40  1  0
 20 41  1  0
 21 42  1  0
 21 43  1  0
 22 44  1  0
 22 45  1  0
 23 46  1  0
 23 47  1  0
 24 48  1  0
 24 49  1  0
 27 50  1  0
 27 51  1  0
M  ISO  8  29   8  30  14  31  14  32  14  33  14  34  14  35  14  36  14
M  ISO  8  37   8  38   8  39  13  40  13  41  13  42  13  43  13  44  13
M  ISO  5  45  13  46  13  47  13  48  13  49  13
M  END
>  <minimizedAffinity>  (1) 
-6.99912643

>  <minimizedRMSD>  (1) 
0.160580054

$$$$
