
     RDKit          3D

 50 53  0  0  1  0  0  0  0  0999 V2000
   38.7280   31.7470   48.1500 C   0  0  1  0  0  0  0  0  0  0  0  0
   37.9040   31.0190   49.1040 C   0  0  0  0  0  0  0  0  0  0  0  0
   38.3320   30.8440   50.3410 N   0  0  0  0  0  0  0  0  0  0  0  0
   37.6260   30.1700   51.2670 C   0  0  0  0  0  0  0  0  0  0  0  0
   36.4480   29.6260   51.0240 N   0  0  0  0  0  0  0  0  0  0  0  0
   35.8860   29.7290   49.7980 C   0  0  0  0  0  0  0  0  0  0  0  0
   34.6780   29.1770   49.5010 C   0  0  0  0  0  0  0  0  0  0  0  0
   34.1290   29.2840   48.2730 C   0  0  0  0  0  0  0  0  0  0  0  0
   34.8630   29.9840   47.3370 C   0  0  0  0  0  0  0  0  0  0  0  0
   36.0820   30.5300   47.6660 C   0  0  0  0  0  0  0  0  0  0  0  0
   36.6490   30.4320   48.8840 C   0  0  0  0  0  0  0  0  0  0  0  0
   39.1150   31.4930   46.7950 C   0  0  0  0  0  0  0  0  0  0  0  0
   40.0670   32.4550   46.3700 C   0  0  0  0  0  0  0  0  0  0  0  0
   40.6660   32.3140   45.0770 C   0  0  0  0  0  0  0  0  0  0  0  0
   40.2820   31.2790   44.3580 N   0  0  0  0  0  0  0  0  0  0  0  0
   39.3530   30.3600   44.7980 C   0  0  0  0  0  0  0  0  0  0  0  0
   38.8020   30.4880   45.9850 N   0  0  0  0  0  0  0  0  0  0  0  0
   38.9350   29.1980   43.9660 C   0  0  0  0  0  0  0  0  0  0  0  0
   37.9660   29.6340   43.0110 N   0  0  0  0  0  0  0  0  0  0  0  0
   38.1510   31.0270   42.6290 C   0  0  0  0  0  0  0  0  0  0  0  0
   36.9590   31.4360   41.8000 C   0  0  0  0  0  0  0  0  0  0  0  0
   35.8030   31.7080   42.7500 C   0  0  0  0  0  0  0  0  0  0  0  0
   36.0070   30.7810   43.9460 C   0  0  0  0  0  0  0  0  0  0  0  0
   36.5980   29.4880   43.3960 C   0  0  0  0  0  0  0  0  0  0  0  0
   38.4320   33.0510   48.5030 O   0  0  0  0  0  0  0  0  0  0  0  0
   39.2320   34.0060   49.0980 C   0  0  0  0  0  0  0  0  0  0  0  0
   39.7430   35.1560   48.3570 N   0  0  0  0  0  0  0  0  0  0  0  0
   39.5570   33.9280   50.3090 O   0  0  0  0  0  0  0  0  0  0  0  0
   39.7018   31.2400   48.2182 H   0  0  0  0  0  0  0  0  0  0  0  0
   38.0513   30.0672   52.2762 H   0  0  0  0  0  0  0  0  0  0  0  0
   34.1339   28.6283   50.2839 H   0  0  0  0  0  0  0  0  0  0  0  0
   33.1525   28.8388   48.0318 H   0  0  0  0  0  0  0  0  0  0  0  0
   34.4691   30.1066   46.3173 H   0  0  0  0  0  0  0  0  0  0  0  0
   36.6278   31.0810   46.8859 H   0  0  0  0  0  0  0  0  0  0  0  0
   40.3408   33.2963   47.0236 H   0  0  0  0  0  0  0  0  0  0  0  0
   41.4092   33.0335   44.7030 H   0  0  0  0  0  0  0  0  0  0  0  0
   39.8099   28.7861   43.4418 H   0  0  0  0  0  0  0  0  0  0  0  0
   38.4990   28.4188   44.6084 H   0  0  0  0  0  0  0  0  0  0  0  0
   38.2160   31.6569   43.5284 H   0  0  0  0  0  0  0  0  0  0  0  0
   39.0809   31.1492   42.0542 H   0  0  0  0  0  0  0  0  0  0  0  0
   37.1953   32.3455   41.2282 H   0  0  0  0  0  0  0  0  0  0  0  0
   36.6933   30.6390   41.0899 H   0  0  0  0  0  0  0  0  0  0  0  0
   35.8160   32.7587   43.0754 H   0  0  0  0  0  0  0  0  0  0  0  0
   34.8333   31.5268   42.2634 H   0  0  0  0  0  0  0  0  0  0  0  0
   36.6997   31.2386   44.6676 H   0  0  0  0  0  0  0  0  0  0  0  0
   35.0582   30.5932   44.4700 H   0  0  0  0  0  0  0  0  0  0  0  0
   36.0146   29.1794   42.5160 H   0  0  0  0  0  0  0  0  0  0  0  0
   36.5535   28.7330   44.1947 H   0  0  0  0  0  0  0  0  0  0  0  0
   40.3377   35.8509   48.8306 H   0  0  0  0  0  0  0  0  0  0  0  0
   39.5087   35.2722   47.3608 H   0  0  0  0  0  0  0  0  0  0  0  0
  1 25  1  0
  1  2  1  0
  2  3  2  0
  3  4  1  0
  5  4  2  0
  6  5  1  0
  7  6  2  0
  8  7  1  0
  9 10  1  0
  9  8  2  0
 10 11  2  0
 11  2  1  0
 11  6  1  0
 12  1  1  0
 13 12  2  0
 14 13  1  0
 15 16  1  0
 15 14  2  0
 16 17  2  0
 17 12  1  0
 18 16  1  0
 19 24  1  0
 19 18  1  0
 20 19  1  0
 21 20  1  0
 21 22  1  0
 22 23  1  0
 24 23  1  0
 25 26  1  0
 26 28  2  0
 27 26  1  0
  1 29  1  1
  4 30  1  0
  7 31  1  0
  8 32  1  0
  9 33  1  0
 10 34  1  0
 13 35  1  0
 14 36  1  0
 18 37  1  0
 18 38  1  0
 20 39  1  0
 20 40  1  0
 21 41  1  0
 21 42  1  0
 22 43  1  0
 22 44  1  0
 23 45  1  0
 23 46  1  0
 24 47  1  0
 24 48  1  0
 27 49  1  0
 27 50  1  0
M  ISO  8  29   8  30  14  31  14  32  14  33  14  34  14  35  14  36  14
M  ISO  8  37   8  38   8  39  13  40  13  41  13  42  13  43  13  44  13
M  ISO  4  45  13  46  13  47  13  48  13
M  END
>  <minimizedAffinity>  (1) 
-6.93135023

>  <minimizedRMSD>  (1) 
0.677227139

$$$$
