
     RDKit          3D

 30 32  0  0  0  0  0  0  0  0999 V2000
   40.6240   31.9620   45.6560 C   0  0  0  0  0  0  0  0  0  0  0  0
   40.3570   32.6890   44.4640 C   0  0  0  0  0  0  0  0  0  0  0  0
   39.0060   32.8400   44.0850 C   0  0  0  0  0  0  0  0  0  0  0  0
   38.0390   32.2830   44.8790 N   0  0  0  0  0  0  0  0  0  0  0  0
   38.3470   31.6000   46.0030 C   0  0  0  0  0  0  0  0  0  0  0  0
   39.6180   31.4400   46.3910 N   0  0  0  0  0  0  0  0  0  0  0  0
   37.2810   31.0540   46.7710 N   0  0  0  0  0  0  0  0  0  0  0  0
   36.1800   30.5480   46.2200 C   0  0  0  0  0  0  0  0  0  0  0  0
   35.1390   30.0140   46.9560 C   0  0  0  0  0  0  0  0  0  0  0  0
   35.3310   30.0470   48.3110 C   0  0  0  0  0  0  0  0  0  0  0  0
   34.4310   29.5830   49.0520 O   0  0  0  0  0  0  0  0  0  0  0  0
   36.4180   30.5430   48.9450 N   0  0  0  0  0  0  0  0  0  0  0  0
   37.3790   31.0410   48.1290 C   0  0  0  0  0  0  0  0  0  0  0  0
   38.3960   31.5070   48.6890 O   0  0  0  0  0  0  0  0  0  0  0  0
   33.9100   29.4480   46.3660 C   0  0  0  0  0  0  0  0  0  0  0  0
   36.5180   30.5290   50.3720 C   0  0  0  0  0  0  0  0  0  0  0  0
   37.0340   29.2090   51.0240 C   0  0  0  0  0  0  0  0  0  0  0  0
   37.7530   30.5560   51.1350 C   0  0  0  0  0  0  0  0  0  0  0  0
   41.6645   31.8225   45.9845 H   0  0  0  0  0  0  0  0  0  0  0  0
   41.1713   33.1170   43.8608 H   0  0  0  0  0  0  0  0  0  0  0  0
   38.7358   33.3923   43.1729 H   0  0  0  0  0  0  0  0  0  0  0  0
   36.0943   30.5552   45.1234 H   0  0  0  0  0  0  0  0  0  0  0  0
   33.2282   29.1340   47.1701 H   0  0  0  0  0  0  0  0  0  0  0  0
   33.4173   30.2099   45.7441 H   0  0  0  0  0  0  0  0  0  0  0  0
   34.1687   28.5783   45.7441 H   0  0  0  0  0  0  0  0  0  0  0  0
   35.6327   31.1804   50.4151 H   0  0  0  0  0  0  0  0  0  0  0  0
   36.5193   28.7748   51.8938 H   0  0  0  0  0  0  0  0  0  0  0  0
   37.2850   28.1933   50.6843 H   0  0  0  0  0  0  0  0  0  0  0  0
   38.7094   30.7040   50.6121 H   0  0  0  0  0  0  0  0  0  0  0  0
   38.1091   31.1595   51.9829 H   0  0  0  0  0  0  0  0  0  0  0  0
  1  6  2  0
  2  1  1  0
  3  2  2  0
  3  4  1  0
  4  5  2  0
  5  6  1  0
  5  7  1  0
  7 13  1  0
  8  7  1  0
  8  9  2  0
  9 10  1  0
 10 12  1  0
 10 11  2  0
 12 16  1  0
 13 14  2  0
 13 12  1  0
 15  9  1  0
 16 17  1  0
 16 18  1  0
 17 18  1  0
  1 19  1  0
  2 20  1  0
  3 21  1  0
  8 22  1  0
 15 23  1  0
 15 24  1  0
 15 25  1  0
 16 26  1  0
 17 27  1  0
 17 28  1  0
 18 29  1  0
 18 30  1  0
M  ISO  8  19  14  20  14  21  14  22  14  23   8  24   8  25   8  26  13
M  ISO  4  27  13  28  13  29  13  30  13
M  END
>  <minimizedAffinity>  (1) 
-5.86918879

>  <minimizedRMSD>  (1) 
4.57581377

$$$$
