
     RDKit          3D

 48 51  0  0  1  0  0  0  0  0999 V2000
   38.6340   31.4950   47.8330 C   0  0  1  0  0  0  0  0  0  0  0  0
   37.8210   30.7630   48.8010 C   0  0  0  0  0  0  0  0  0  0  0  0
   38.2740   30.5510   50.0310 N   0  0  0  0  0  0  0  0  0  0  0  0
   37.5750   29.8770   50.9600 C   0  0  0  0  0  0  0  0  0  0  0  0
   36.3730   29.3630   50.7250 N   0  0  0  0  0  0  0  0  0  0  0  0
   35.7920   29.5060   49.5200 C   0  0  0  0  0  0  0  0  0  0  0  0
   34.5710   28.9790   49.2440 C   0  0  0  0  0  0  0  0  0  0  0  0
   33.9980   29.1150   48.0170 C   0  0  0  0  0  0  0  0  0  0  0  0
   34.7280   29.8180   47.0770 C   0  0  0  0  0  0  0  0  0  0  0  0
   35.9620   30.3370   47.3930 C   0  0  0  0  0  0  0  0  0  0  0  0
   36.5460   30.2070   48.6030 C   0  0  0  0  0  0  0  0  0  0  0  0
   39.0170   31.2120   46.4850 C   0  0  0  0  0  0  0  0  0  0  0  0
   40.1490   31.9840   46.1420 C   0  0  0  0  0  0  0  0  0  0  0  0
   40.8320   31.7620   44.9060 C   0  0  0  0  0  0  0  0  0  0  0  0
   40.3190   30.8180   44.1620 N   0  0  0  0  0  0  0  0  0  0  0  0
   39.2120   30.0800   44.4990 C   0  0  0  0  0  0  0  0  0  0  0  0
   38.5900   30.2850   45.6390 N   0  0  0  0  0  0  0  0  0  0  0  0
   38.5810   29.1420   43.5470 C   0  0  0  0  0  0  0  0  0  0  0  0
   39.5450   28.2400   42.8480 C   0  0  0  0  0  0  0  0  0  0  0  0
   39.1970   26.7890   43.0570 C   0  0  0  0  0  0  0  0  0  0  0  0
   38.5320   26.3930   41.7820 C   0  0  0  0  0  0  0  0  0  0  0  0
   38.7900   27.4670   40.7540 C   0  0  0  0  0  0  0  0  0  0  0  0
   39.6940   28.4690   41.3910 C   0  0  0  0  0  0  0  0  0  0  0  0
   38.3370   32.7940   48.1850 O   0  0  0  0  0  0  0  0  0  0  0  0
   39.1240   33.7260   48.8270 C   0  0  0  0  0  0  0  0  0  0  0  0
   39.8790   34.7410   48.0920 N   0  0  0  0  0  0  0  0  0  0  0  0
   39.2370   33.7540   50.0790 O   0  0  0  0  0  0  0  0  0  0  0  0
   39.6236   31.0171   47.8817 H   0  0  0  0  0  0  0  0  0  0  0  0
   38.0175   29.7453   51.9584 H   0  0  0  0  0  0  0  0  0  0  0  0
   34.0328   28.4295   50.0304 H   0  0  0  0  0  0  0  0  0  0  0  0
   33.0101   28.6897   47.7865 H   0  0  0  0  0  0  0  0  0  0  0  0
   34.3182   29.9638   46.0667 H   0  0  0  0  0  0  0  0  0  0  0  0
   36.5053   30.8910   46.6133 H   0  0  0  0  0  0  0  0  0  0  0  0
   40.5079   32.7623   46.8315 H   0  0  0  0  0  0  0  0  0  0  0  0
   41.7185   32.3396   44.6052 H   0  0  0  0  0  0  0  0  0  0  0  0
   37.8640   28.5182   44.1009 H   0  0  0  0  0  0  0  0  0  0  0  0
   38.1005   29.7548   42.7701 H   0  0  0  0  0  0  0  0  0  0  0  0
   40.5080   28.4941   43.3150 H   0  0  0  0  0  0  0  0  0  0  0  0
   40.1034   26.1898   43.2283 H   0  0  0  0  0  0  0  0  0  0  0  0
   38.5571   26.6285   43.9372 H   0  0  0  0  0  0  0  0  0  0  0  0
   38.9443   25.4358   41.4301 H   0  0  0  0  0  0  0  0  0  0  0  0
   37.4499   26.2761   41.9417 H   0  0  0  0  0  0  0  0  0  0  0  0
   37.8436   27.9444   40.4601 H   0  0  0  0  0  0  0  0  0  0  0  0
   39.2483   27.0430   39.8484 H   0  0  0  0  0  0  0  0  0  0  0  0
   40.7357   28.3058   41.0775 H   0  0  0  0  0  0  0  0  0  0  0  0
   39.4393   29.5000   41.1042 H   0  0  0  0  0  0  0  0  0  0  0  0
   40.4577   35.4229   48.6029 H   0  0  0  0  0  0  0  0  0  0  0  0
   39.8318   34.7737   47.0636 H   0  0  0  0  0  0  0  0  0  0  0  0
  1 24  1  0
  1  2  1  0
  2  3  2  0
  3  4  1  0
  5  4  2  0
  6  5  1  0
  7  6  2  0
  8  7  1  0
  9 10  1  0
  9  8  2  0
 10 11  2  0
 11  2  1  0
 11  6  1  0
 12  1  1  0
 13 12  2  0
 14 13  1  0
 15 16  1  0
 15 14  2  0
 16 17  2  0
 17 12  1  0
 18 16  1  0
 19 20  1  0
 19 18  1  0
 21 20  1  0
 22 23  1  0
 22 21  1  0
 23 19  1  0
 24 25  1  0
 25 27  2  0
 26 25  1  0
  1 28  1  1
  4 29  1  0
  7 30  1  0
  8 31  1  0
  9 32  1  0
 10 33  1  0
 13 34  1  0
 14 35  1  0
 18 36  1  0
 18 37  1  0
 19 38  1  0
 20 39  1  0
 20 40  1  0
 21 41  1  0
 21 42  1  0
 22 43  1  0
 22 44  1  0
 23 45  1  0
 23 46  1  0
 26 47  1  0
 26 48  1  0
M  ISO  8  28   8  29  14  30  14  31  14  32  14  33  14  34  14  35  14
M  ISO  8  36   8  37   8  38  13  39  13  40  13  41  13  42  13  43  13
M  ISO  3  44  13  45  13  46  13
M  END
>  <minimizedAffinity>  (1) 
-6.91473961

>  <minimizedRMSD>  (1) 
0.980728269

$$$$
