
     RDKit          3D

 43 46  0  0  1  0  0  0  0  0999 V2000
   38.6890   31.7900   48.1590 C   0  0  1  0  0  0  0  0  0  0  0  0
   37.8770   31.0500   49.1130 C   0  0  0  0  0  0  0  0  0  0  0  0
   38.3090   30.8830   50.3550 N   0  0  0  0  0  0  0  0  0  0  0  0
   37.6150   30.1980   51.2800 C   0  0  0  0  0  0  0  0  0  0  0  0
   36.4430   29.6310   51.0300 N   0  0  0  0  0  0  0  0  0  0  0  0
   35.8850   29.7250   49.8100 C   0  0  0  0  0  0  0  0  0  0  0  0
   34.6870   29.1490   49.5150 C   0  0  0  0  0  0  0  0  0  0  0  0
   34.1350   29.2450   48.2810 C   0  0  0  0  0  0  0  0  0  0  0  0
   34.8580   29.9600   47.3460 C   0  0  0  0  0  0  0  0  0  0  0  0
   36.0650   30.5300   47.6750 C   0  0  0  0  0  0  0  0  0  0  0  0
   36.6330   30.4410   48.8950 C   0  0  0  0  0  0  0  0  0  0  0  0
   39.0460   31.5620   46.7930 C   0  0  0  0  0  0  0  0  0  0  0  0
   39.8480   32.6290   46.3140 C   0  0  0  0  0  0  0  0  0  0  0  0
   40.4180   32.5390   45.0010 C   0  0  0  0  0  0  0  0  0  0  0  0
   40.1470   31.4450   44.3230 N   0  0  0  0  0  0  0  0  0  0  0  0
   39.3620   30.4280   44.8140 C   0  0  0  0  0  0  0  0  0  0  0  0
   38.8390   30.5070   46.0130 N   0  0  0  0  0  0  0  0  0  0  0  0
   39.0540   29.2170   43.9980 C   0  0  0  0  0  0  0  0  0  0  0  0
   37.9760   29.4490   43.0280 C   0  0  0  0  0  0  0  0  0  0  0  0
   36.6320   29.4230   43.3360 C   0  0  0  0  0  0  0  0  0  0  0  0
   35.6020   29.6370   42.4440 C   0  0  0  0  0  0  0  0  0  0  0  0
   36.0060   29.8890   41.1710 N   0  0  0  0  0  0  0  0  0  0  0  0
   37.3260   29.9200   40.8430 C   0  0  0  0  0  0  0  0  0  0  0  0
   38.3130   29.7070   41.7340 N   0  0  0  0  0  0  0  0  0  0  0  0
   38.4190   33.0880   48.5500 O   0  0  0  0  0  0  0  0  0  0  0  0
   39.2450   34.0260   49.1310 C   0  0  0  0  0  0  0  0  0  0  0  0
   39.7270   35.1900   48.3920 N   0  0  0  0  0  0  0  0  0  0  0  0
   39.6190   33.9210   50.3270 O   0  0  0  0  0  0  0  0  0  0  0  0
   39.6573   31.2690   48.1909 H   0  0  0  0  0  0  0  0  0  0  0  0
   38.0388   30.1035   52.2907 H   0  0  0  0  0  0  0  0  0  0  0  0
   34.1533   28.5912   50.2987 H   0  0  0  0  0  0  0  0  0  0  0  0
   33.1678   28.7807   48.0382 H   0  0  0  0  0  0  0  0  0  0  0  0
   34.4631   30.0747   46.3257 H   0  0  0  0  0  0  0  0  0  0  0  0
   36.6000   31.0928   46.8959 H   0  0  0  0  0  0  0  0  0  0  0  0
   40.0305   33.5140   46.9412 H   0  0  0  0  0  0  0  0  0  0  0  0
   41.0465   33.3399   44.5844 H   0  0  0  0  0  0  0  0  0  0  0  0
   39.9615   28.9200   43.4519 H   0  0  0  0  0  0  0  0  0  0  0  0
   38.7184   28.4276   44.6867 H   0  0  0  0  0  0  0  0  0  0  0  0
   36.3585   29.2141   44.3808 H   0  0  0  0  0  0  0  0  0  0  0  0
   34.5425   29.6063   42.7382 H   0  0  0  0  0  0  0  0  0  0  0  0
   37.6005   30.1294   39.7986 H   0  0  0  0  0  0  0  0  0  0  0  0
   40.3434   35.8740   48.8536 H   0  0  0  0  0  0  0  0  0  0  0  0
   39.4505   35.3268   47.4093 H   0  0  0  0  0  0  0  0  0  0  0  0
  1 25  1  0
  1  2  1  0
  2  3  2  0
  3  4  1  0
  5  4  2  0
  6  5  1  0
  7  6  2  0
  8  7  1  0
  9 10  1  0
  9  8  2  0
 10 11  2  0
 11  2  1  0
 11  6  1  0
 12  1  1  0
 13 12  2  0
 14 13  1  0
 15 16  1  0
 15 14  2  0
 16 17  2  0
 17 12  1  0
 18 16  1  0
 19 20  2  0
 19 18  1  0
 21 20  1  0
 22 21  2  0
 23 22  1  0
 23 24  2  0
 24 19  1  0
 25 26  1  0
 26 28  2  0
 27 26  1  0
  1 29  1  1
  4 30  1  0
  7 31  1  0
  8 32  1  0
  9 33  1  0
 10 34  1  0
 13 35  1  0
 14 36  1  0
 18 37  1  0
 18 38  1  0
 20 39  1  0
 21 40  1  0
 23 41  1  0
 27 42  1  0
 27 43  1  0
M  ISO  8  29   8  30  14  31  14  32  14  33  14  34  14  35  14  36  14
M  ISO  5  37   8  38   8  39  14  40  14  41  14
M  END
>  <minimizedAffinity>  (1) 
-6.90151739

>  <minimizedRMSD>  (1) 
0.429244399

$$$$
