
     RDKit          3D

 37 39  0  0  1  0  0  0  0  0999 V2000
   38.6950   31.7810   48.1430 C   0  0  1  0  0  0  0  0  0  0  0  0
   37.8850   31.0400   49.0970 C   0  0  0  0  0  0  0  0  0  0  0  0
   38.3240   30.8690   50.3350 N   0  0  0  0  0  0  0  0  0  0  0  0
   37.6330   30.1810   51.2640 C   0  0  0  0  0  0  0  0  0  0  0  0
   36.4550   29.6180   51.0150 N   0  0  0  0  0  0  0  0  0  0  0  0
   35.8930   29.7160   49.7970 C   0  0  0  0  0  0  0  0  0  0  0  0
   34.6940   29.1500   49.5150 C   0  0  0  0  0  0  0  0  0  0  0  0
   34.1290   29.2550   48.2760 C   0  0  0  0  0  0  0  0  0  0  0  0
   34.8480   29.9690   47.3490 C   0  0  0  0  0  0  0  0  0  0  0  0
   36.0600   30.5320   47.6650 C   0  0  0  0  0  0  0  0  0  0  0  0
   36.6360   30.4340   48.8770 C   0  0  0  0  0  0  0  0  0  0  0  0
   39.0470   31.5550   46.7740 C   0  0  0  0  0  0  0  0  0  0  0  0
   39.8420   32.6290   46.2920 C   0  0  0  0  0  0  0  0  0  0  0  0
   40.3890   32.5490   44.9700 C   0  0  0  0  0  0  0  0  0  0  0  0
   40.1100   31.4580   44.2810 N   0  0  0  0  0  0  0  0  0  0  0  0
   39.3360   30.4370   44.7780 C   0  0  0  0  0  0  0  0  0  0  0  0
   38.8310   30.5060   45.9890 N   0  0  0  0  0  0  0  0  0  0  0  0
   39.0180   29.2180   43.9740 C   0  0  0  0  0  0  0  0  0  0  0  0
   37.6720   29.2690   43.4470 N   0  0  0  0  0  0  0  0  0  0  0  0
   38.4190   33.0820   48.5310 O   0  0  0  0  0  0  0  0  0  0  0  0
   39.2400   34.0200   49.1180 C   0  0  0  0  0  0  0  0  0  0  0  0
   39.7330   35.1840   48.3850 N   0  0  0  0  0  0  0  0  0  0  0  0
   39.6010   33.9150   50.3170 O   0  0  0  0  0  0  0  0  0  0  0  0
   39.6653   31.2643   48.1817 H   0  0  0  0  0  0  0  0  0  0  0  0
   38.0619   30.0807   52.2720 H   0  0  0  0  0  0  0  0  0  0  0  0
   34.1640   28.5934   50.3020 H   0  0  0  0  0  0  0  0  0  0  0  0
   33.1585   28.7963   48.0356 H   0  0  0  0  0  0  0  0  0  0  0  0
   34.4449   30.0924   46.3330 H   0  0  0  0  0  0  0  0  0  0  0  0
   36.5901   31.0951   46.8828 H   0  0  0  0  0  0  0  0  0  0  0  0
   40.0348   33.5085   46.9239 H   0  0  0  0  0  0  0  0  0  0  0  0
   41.0093   33.3550   44.5509 H   0  0  0  0  0  0  0  0  0  0  0  0
   39.7276   29.1466   43.1366 H   0  0  0  0  0  0  0  0  0  0  0  0
   39.0992   28.3394   44.6309 H   0  0  0  0  0  0  0  0  0  0  0  0
   36.9989   29.2945   44.2262 H   0  0  0  0  0  0  0  0  0  0  0  0
   37.5611   30.1148   42.8697 H   0  0  0  0  0  0  0  0  0  0  0  0
   40.3455   35.8665   48.8541 H   0  0  0  0  0  0  0  0  0  0  0  0
   39.4681   35.3220   47.3993 H   0  0  0  0  0  0  0  0  0  0  0  0
  1 20  1  0
  1  2  1  0
  2  3  2  0
  3  4  1  0
  5  4  2  0
  6  5  1  0
  7  6  2  0
  8  7  1  0
  9 10  1  0
  9  8  2  0
 10 11  2  0
 11  2  1  0
 11  6  1  0
 12  1  1  0
 13 12  2  0
 14 13  1  0
 15 16  1  0
 15 14  2  0
 16 17  2  0
 17 12  1  0
 18 16  1  0
 19 18  1  0
 20 21  1  0
 21 23  2  0
 22 21  1  0
  1 24  1  1
  4 25  1  0
  7 26  1  0
  8 27  1  0
  9 28  1  0
 10 29  1  0
 13 30  1  0
 14 31  1  0
 18 32  1  0
 18 33  1  0
 19 34  1  0
 19 35  1  0
 22 36  1  0
 22 37  1  0
M  ISO  8  24   8  25  14  26  14  27  14  28  14  29  14  30  14  31  14
M  ISO  4  32   8  33   8  34   5  35   5
M  END
>  <minimizedAffinity>  (1) 
-6.72498274

>  <minimizedRMSD>  (1) 
0.130576119

$$$$
