
     RDKit          3D

 39 42  0  0  0  0  0  0  0  0999 V2000
   35.5530   29.4130   49.2400 C   0  0  0  0  0  0  0  0  0  0  0  0
   35.6170   29.1580   50.6110 C   0  0  0  0  0  0  0  0  0  0  0  0
   36.5410   29.6770   51.4650 C   0  0  0  0  0  0  0  0  0  0  0  0
   37.4990   30.5190   50.9880 C   0  0  0  0  0  0  0  0  0  0  0  0
   37.5110   30.8240   49.6610 C   0  0  0  0  0  0  0  0  0  0  0  0
   38.4950   31.6800   49.2120 C   0  0  0  0  0  0  0  0  0  0  0  0
   38.5700   32.0300   47.8990 C   0  0  0  0  0  0  0  0  0  0  0  0
   37.6250   31.4960   47.0370 C   0  0  0  0  0  0  0  0  0  0  0  0
   36.6630   30.6470   47.5320 C   0  0  0  0  0  0  0  0  0  0  0  0
   36.5520   30.2730   48.8290 C   0  0  0  0  0  0  0  0  0  0  0  0
   33.5930   26.7680   47.8150 C   0  0  0  0  0  0  0  0  0  0  0  0
   32.7550   27.3360   46.8450 C   0  0  0  0  0  0  0  0  0  0  0  0
   32.8750   28.7060   46.6760 C   0  0  0  0  0  0  0  0  0  0  0  0
   33.7610   29.3680   47.4330 N   0  0  0  0  0  0  0  0  0  0  0  0
   34.5600   28.8480   48.3540 C   0  0  0  0  0  0  0  0  0  0  0  0
   34.4270   27.5360   48.4960 N   0  0  0  0  0  0  0  0  0  0  0  0
   32.0930   29.5190   45.7110 C   0  0  0  0  0  0  0  0  0  0  0  0
   32.4440   30.9760   45.7440 C   0  0  0  0  0  0  0  0  0  0  0  0
   31.2850   31.6050   44.9970 C   0  0  0  0  0  0  0  0  0  0  0  0
   30.1400   30.5970   45.0480 C   0  0  0  0  0  0  0  0  0  0  0  0
   30.6200   29.5440   46.0550 C   0  0  0  0  0  0  0  0  0  0  0  0
   34.8593   28.4829   51.0355 H   0  0  0  0  0  0  0  0  0  0  0  0
   36.5141   29.4179   52.5337 H   0  0  0  0  0  0  0  0  0  0  0  0
   38.2528   30.9469   51.6653 H   0  0  0  0  0  0  0  0  0  0  0  0
   39.2287   32.0850   49.9245 H   0  0  0  0  0  0  0  0  0  0  0  0
   39.3524   32.7121   47.5349 H   0  0  0  0  0  0  0  0  0  0  0  0
   37.6443   31.7490   45.9667 H   0  0  0  0  0  0  0  0  0  0  0  0
   35.9283   30.2411   46.8210 H   0  0  0  0  0  0  0  0  0  0  0  0
   33.5569   25.6859   48.0092 H   0  0  0  0  0  0  0  0  0  0  0  0
   32.0480   26.7330   46.2562 H   0  0  0  0  0  0  0  0  0  0  0  0
   32.3215   29.0455   44.7448 H   0  0  0  0  0  0  0  0  0  0  0  0
   32.5010   31.3486   46.7774 H   0  0  0  0  0  0  0  0  0  0  0  0
   33.4263   31.2023   45.3037 H   0  0  0  0  0  0  0  0  0  0  0  0
   31.5691   31.8052   43.9534 H   0  0  0  0  0  0  0  0  0  0  0  0
   30.9923   32.5636   45.4503 H   0  0  0  0  0  0  0  0  0  0  0  0
   29.2123   31.0757   45.3946 H   0  0  0  0  0  0  0  0  0  0  0  0
   29.9092   30.1670   44.0622 H   0  0  0  0  0  0  0  0  0  0  0  0
   30.1429   28.5674   45.8857 H   0  0  0  0  0  0  0  0  0  0  0  0
   30.3897   29.7650   47.1077 H   0  0  0  0  0  0  0  0  0  0  0  0
  1  2  2  0
  2  3  1  0
  4  3  2  0
  5  4  1  0
  6  5  2  0
  7  6  1  0
  8  9  1  0
  8  7  2  0
  9 10  2  0
 10  1  1  0
 10  5  1  0
 11 16  2  0
 12 11  1  0
 13 12  2  0
 13 14  1  0
 14 15  2  0
 15 16  1  0
 15  1  1  0
 17 18  1  0
 17 21  1  0
 17 13  1  0
 19 20  1  0
 19 18  1  0
 20 21  1  0
  2 22  1  0
  3 23  1  0
  4 24  1  0
  6 25  1  0
  7 26  1  0
  8 27  1  0
  9 28  1  0
 11 29  1  0
 12 30  1  0
 17 31  1  0
 18 32  1  0
 18 33  1  0
 19 34  1  0
 19 35  1  0
 20 36  1  0
 20 37  1  0
 21 38  1  0
 21 39  1  0
M  ISO  8  22  14  23  14  24  14  25  14  26  14  27  14  28  14  29  14
M  ISO  8  30  14  31  13  32  13  33  13  34  13  35  13  36  13  37  13
M  ISO  2  38  13  39  13
M  END
>  <minimizedAffinity>  (1) 
-6.73804045

>  <minimizedRMSD>  (1) 
0.443032205

$$$$
