
     RDKit          3D

 33 36  0  0  0  0  0  0  0  0999 V2000
   35.5930   29.4710   49.3070 C   0  0  0  0  0  0  0  0  0  0  0  0
   35.6880   29.1960   50.6820 C   0  0  0  0  0  0  0  0  0  0  0  0
   36.6630   29.6920   51.4980 C   0  0  0  0  0  0  0  0  0  0  0  0
   37.6260   30.5120   50.9880 C   0  0  0  0  0  0  0  0  0  0  0  0
   37.5930   30.8210   49.6640 C   0  0  0  0  0  0  0  0  0  0  0  0
   38.5880   31.6560   49.1840 C   0  0  0  0  0  0  0  0  0  0  0  0
   38.6270   32.0130   47.8690 C   0  0  0  0  0  0  0  0  0  0  0  0
   37.6290   31.5060   47.0330 C   0  0  0  0  0  0  0  0  0  0  0  0
   36.6680   30.6820   47.5590 C   0  0  0  0  0  0  0  0  0  0  0  0
   36.5990   30.3070   48.8640 C   0  0  0  0  0  0  0  0  0  0  0  0
   33.6090   26.8620   47.8190 C   0  0  0  0  0  0  0  0  0  0  0  0
   32.6750   27.4840   46.9770 C   0  0  0  0  0  0  0  0  0  0  0  0
   32.7320   28.8680   46.9200 C   0  0  0  0  0  0  0  0  0  0  0  0
   33.6520   29.4930   47.6560 N   0  0  0  0  0  0  0  0  0  0  0  0
   34.5480   28.9320   48.4600 C   0  0  0  0  0  0  0  0  0  0  0  0
   34.4680   27.6100   48.4920 N   0  0  0  0  0  0  0  0  0  0  0  0
   31.8840   29.6970   46.1360 N   0  0  0  0  0  0  0  0  0  0  0  0
   30.6170   29.5360   45.7720 N   0  0  0  0  0  0  0  0  0  0  0  0
   30.2390   30.6100   45.0160 C   0  0  0  0  0  0  0  0  0  0  0  0
   31.3500   31.4500   44.9310 C   0  0  0  0  0  0  0  0  0  0  0  0
   32.3800   30.8480   45.6500 C   0  0  0  0  0  0  0  0  0  0  0  0
   34.9277   28.5388   51.1292 H   0  0  0  0  0  0  0  0  0  0  0  0
   36.6721   29.4305   52.5664 H   0  0  0  0  0  0  0  0  0  0  0  0
   38.4165   30.9169   51.6369 H   0  0  0  0  0  0  0  0  0  0  0  0
   39.3568   32.0361   49.8728 H   0  0  0  0  0  0  0  0  0  0  0  0
   39.4147   32.6754   47.4806 H   0  0  0  0  0  0  0  0  0  0  0  0
   37.6145   31.7653   45.9641 H   0  0  0  0  0  0  0  0  0  0  0  0
   35.8969   30.2963   46.8758 H   0  0  0  0  0  0  0  0  0  0  0  0
   33.6269   25.7666   47.9183 H   0  0  0  0  0  0  0  0  0  0  0  0
   31.9403   26.9072   46.3960 H   0  0  0  0  0  0  0  0  0  0  0  0
   29.2511   30.7793   44.5627 H   0  0  0  0  0  0  0  0  0  0  0  0
   31.4026   32.4095   44.3956 H   0  0  0  0  0  0  0  0  0  0  0  0
   33.3988   31.2378   45.7921 H   0  0  0  0  0  0  0  0  0  0  0  0
  1  2  2  0
  2  3  1  0
  4  3  2  0
  5  4  1  0
  6  5  2  0
  7  6  1  0
  8  9  1  0
  8  7  2  0
  9 10  2  0
 10  1  1  0
 10  5  1  0
 11 16  2  0
 12 11  1  0
 13 12  2  0
 13 14  1  0
 14 15  2  0
 15 16  1  0
 15  1  1  0
 17 13  1  0
 18 17  1  0
 19 18  2  0
 20 19  1  0
 20 21  2  0
 21 17  1  0
  2 22  1  0
  3 23  1  0
  4 24  1  0
  6 25  1  0
  7 26  1  0
  8 27  1  0
  9 28  1  0
 11 29  1  0
 12 30  1  0
 19 31  1  0
 20 32  1  0
 21 33  1  0
M  ISO  8  22  14  23  14  24  14  25  14  26  14  27  14  28  14  29  14
M  ISO  4  30  14  31  14  32  14  33  14
M  END
>  <minimizedAffinity>  (1) 
-6.69002581

>  <minimizedRMSD>  (1) 
0.558448076

$$$$
