
     RDKit          3D

 21 22  0  0  0  0  0  0  0  0999 V2000
   38.0560   32.9660   49.4500 C   0  0  0  0  0  0  0  0  0  0  0  0
   38.9440   32.9490   48.3640 C   0  0  0  0  0  0  0  0  0  0  0  0
   38.7310   31.9880   47.3750 C   0  0  0  0  0  0  0  0  0  0  0  0
   37.6880   31.1290   47.5180 N   0  0  0  0  0  0  0  0  0  0  0  0
   36.8560   31.1750   48.5760 C   0  0  0  0  0  0  0  0  0  0  0  0
   37.0360   32.0910   49.5430 N   0  0  0  0  0  0  0  0  0  0  0  0
   35.8320   30.1790   48.5170 N   0  0  0  0  0  0  0  0  0  0  0  0
   34.8310   30.2780   47.6200 C   0  0  0  0  0  0  0  0  0  0  0  0
   33.8570   29.2930   47.5940 C   0  0  0  0  0  0  0  0  0  0  0  0
   33.9730   28.2580   48.4990 C   0  0  0  0  0  0  0  0  0  0  0  0
   32.9640   27.2760   48.4430 N   0  0  0  0  0  0  0  0  0  0  0  0
   34.9940   28.2220   49.3650 N   0  0  0  0  0  0  0  0  0  0  0  0
   35.9510   29.1760   49.4020 C   0  0  0  0  0  0  0  0  0  0  0  0
   36.8490   29.0380   50.2460 O   0  0  0  0  0  0  0  0  0  0  0  0
   38.1962   33.7126   50.2456 H   0  0  0  0  0  0  0  0  0  0  0  0
   39.7758   33.6654   48.2948 H   0  0  0  0  0  0  0  0  0  0  0  0
   39.3931   31.9272   46.4987 H   0  0  0  0  0  0  0  0  0  0  0  0
   34.7881   31.1260   46.9207 H   0  0  0  0  0  0  0  0  0  0  0  0
   33.0224   29.3346   46.8786 H   0  0  0  0  0  0  0  0  0  0  0  0
   32.9885   26.4750   49.0900 H   0  0  0  0  0  0  0  0  0  0  0  0
   32.2020   27.3592   47.7550 H   0  0  0  0  0  0  0  0  0  0  0  0
  1  6  2  0
  2  1  1  0
  3  4  1  0
  3  2  2  0
  4  5  2  0
  5  6  1  0
  7  5  1  0
  7 13  1  0
  8  7  1  0
  9  8  2  0
  9 10  1  0
 10 12  2  0
 11 10  1  0
 12 13  1  0
 13 14  2  0
  1 15  1  0
  2 16  1  0
  3 17  1  0
  8 18  1  0
  9 19  1  0
 11 20  1  0
 11 21  1  0
M  ISO  5  15  14  16  14  17  14  18  14  19  14
M  END
>  <minimizedAffinity>  (1) 
-5.0474267

>  <minimizedRMSD>  (1) 
2.5382781

$$$$
