
     RDKit          3D

 33 36  0  0  0  0  0  0  0  0999 V2000
   35.5590   29.5640   49.2950 C   0  0  0  0  0  0  0  0  0  0  0  0
   35.5720   29.1720   50.6480 C   0  0  0  0  0  0  0  0  0  0  0  0
   36.5140   29.5780   51.5550 C   0  0  0  0  0  0  0  0  0  0  0  0
   37.5170   30.4120   51.1680 C   0  0  0  0  0  0  0  0  0  0  0  0
   37.5640   30.8300   49.8730 C   0  0  0  0  0  0  0  0  0  0  0  0
   38.6020   31.6780   49.5210 C   0  0  0  0  0  0  0  0  0  0  0  0
   38.7120   32.1370   48.2390 C   0  0  0  0  0  0  0  0  0  0  0  0
   37.7570   31.7260   47.3160 C   0  0  0  0  0  0  0  0  0  0  0  0
   36.7490   30.8820   47.7280 C   0  0  0  0  0  0  0  0  0  0  0  0
   36.6010   30.4030   48.9850 C   0  0  0  0  0  0  0  0  0  0  0  0
   33.6400   27.1240   47.4830 C   0  0  0  0  0  0  0  0  0  0  0  0
   32.7480   27.8240   46.6530 C   0  0  0  0  0  0  0  0  0  0  0  0
   32.8320   29.1940   46.7380 C   0  0  0  0  0  0  0  0  0  0  0  0
   33.7120   29.7460   47.5660 N   0  0  0  0  0  0  0  0  0  0  0  0
   34.5560   29.1240   48.3530 C   0  0  0  0  0  0  0  0  0  0  0  0
   34.4680   27.7980   48.2640 N   0  0  0  0  0  0  0  0  0  0  0  0
   31.9540   30.0200   45.9210 C   0  0  0  0  0  0  0  0  0  0  0  0
   32.2000   31.1400   45.1860 C   0  0  0  0  0  0  0  0  0  0  0  0
   31.2130   31.7440   44.4990 C   0  0  0  0  0  0  0  0  0  0  0  0
   29.9060   31.1070   44.6180 C   0  0  0  0  0  0  0  0  0  0  0  0
   30.2810   29.6430   45.7610 S   0  0  0  0  0  0  0  0  0  0  0  0
   34.7761   28.4980   50.9975 H   0  0  0  0  0  0  0  0  0  0  0  0
   36.4599   29.2298   52.5970 H   0  0  0  0  0  0  0  0  0  0  0  0
   38.2779   30.7433   51.8900 H   0  0  0  0  0  0  0  0  0  0  0  0
   39.3405   31.9828   50.2771 H   0  0  0  0  0  0  0  0  0  0  0  0
   39.5307   32.8108   47.9461 H   0  0  0  0  0  0  0  0  0  0  0  0
   37.8055   32.0696   46.2722 H   0  0  0  0  0  0  0  0  0  0  0  0
   36.0069   30.5735   46.9769 H   0  0  0  0  0  0  0  0  0  0  0  0
   33.6497   26.0240   47.4833 H   0  0  0  0  0  0  0  0  0  0  0  0
   32.0367   27.3149   45.9860 H   0  0  0  0  0  0  0  0  0  0  0  0
   33.2178   31.5559   45.1536 H   0  0  0  0  0  0  0  0  0  0  0  0
   31.3789   32.6480   43.8946 H   0  0  0  0  0  0  0  0  0  0  0  0
   28.9492   31.4009   44.1617 H   0  0  0  0  0  0  0  0  0  0  0  0
  1  2  2  0
  2  3  1  0
  4  3  2  0
  5  4  1  0
  6  5  2  0
  7  6  1  0
  8  9  1  0
  8  7  2  0
  9 10  2  0
 10  1  1  0
 10  5  1  0
 11 16  2  0
 12 13  2  0
 12 11  1  0
 13 14  1  0
 14 15  2  0
 15  1  1  0
 16 15  1  0
 17 13  1  0
 18 17  2  0
 19 20  2  0
 19 18  1  0
 20 21  1  0
 21 17  1  0
  2 22  1  0
  3 23  1  0
  4 24  1  0
  6 25  1  0
  7 26  1  0
  8 27  1  0
  9 28  1  0
 11 29  1  0
 12 30  1  0
 18 31  1  0
 19 32  1  0
 20 33  1  0
M  ISO  8  22  14  23  14  24  14  25  14  26  14  27  14  28  14  29  14
M  ISO  4  30  14  31  14  32  14  33  14
M  END
>  <minimizedAffinity>  (1) 
-6.65005207

>  <minimizedRMSD>  (1) 
0.478682697

$$$$
