
     RDKit          3D

 35 37  0  0  0  0  0  0  0  0999 V2000
   35.5280   29.4300   49.2300 C   0  0  0  0  0  0  0  0  0  0  0  0
   35.5760   29.1530   50.6000 C   0  0  0  0  0  0  0  0  0  0  0  0
   36.5230   29.6640   51.4510 C   0  0  0  0  0  0  0  0  0  0  0  0
   37.4930   30.4940   50.9810 C   0  0  0  0  0  0  0  0  0  0  0  0
   37.5070   30.8070   49.6570 C   0  0  0  0  0  0  0  0  0  0  0  0
   38.5020   31.6500   49.2200 C   0  0  0  0  0  0  0  0  0  0  0  0
   38.5820   32.0090   47.9090 C   0  0  0  0  0  0  0  0  0  0  0  0
   37.6260   31.4980   47.0290 C   0  0  0  0  0  0  0  0  0  0  0  0
   36.6550   30.6610   47.5230 C   0  0  0  0  0  0  0  0  0  0  0  0
   36.5410   30.2780   48.8290 C   0  0  0  0  0  0  0  0  0  0  0  0
   33.5720   26.8170   47.7260 C   0  0  0  0  0  0  0  0  0  0  0  0
   32.7100   27.4010   46.8080 C   0  0  0  0  0  0  0  0  0  0  0  0
   32.8070   28.7850   46.6970 C   0  0  0  0  0  0  0  0  0  0  0  0
   33.7000   29.4360   47.4640 N   0  0  0  0  0  0  0  0  0  0  0  0
   34.5260   28.8870   48.3430 C   0  0  0  0  0  0  0  0  0  0  0  0
   34.4200   27.5570   48.4360 N   0  0  0  0  0  0  0  0  0  0  0  0
   31.9710   29.5610   45.7760 C   0  0  0  0  0  0  0  0  0  0  0  0
   30.5250   29.4050   46.2380 C   0  0  0  0  0  0  0  0  0  0  0  0
   32.2860   31.0300   45.8320 C   0  0  0  0  0  0  0  0  0  0  0  0
   34.8089   28.4858   51.0201 H   0  0  0  0  0  0  0  0  0  0  0  0
   36.4979   29.4012   52.5189 H   0  0  0  0  0  0  0  0  0  0  0  0
   38.2538   30.9055   51.6605 H   0  0  0  0  0  0  0  0  0  0  0  0
   39.2406   32.0381   49.9368 H   0  0  0  0  0  0  0  0  0  0  0  0
   39.3764   32.6818   47.5537 H   0  0  0  0  0  0  0  0  0  0  0  0
   37.6498   31.7605   45.9610 H   0  0  0  0  0  0  0  0  0  0  0  0
   35.9125   30.2693   46.8122 H   0  0  0  0  0  0  0  0  0  0  0  0
   33.5538   25.7264   47.8687 H   0  0  0  0  0  0  0  0  0  0  0  0
   31.9998   26.8111   46.2100 H   0  0  0  0  0  0  0  0  0  0  0  0
   32.1482   29.1961   44.7535 H   0  0  0  0  0  0  0  0  0  0  0  0
   30.4897   29.4012   47.3374 H   0  0  0  0  0  0  0  0  0  0  0  0
   29.9251   30.2436   45.8548 H   0  0  0  0  0  0  0  0  0  0  0  0
   30.1178   28.4577   45.8548 H   0  0  0  0  0  0  0  0  0  0  0  0
   32.3547   31.3505   46.8820 H   0  0  0  0  0  0  0  0  0  0  0  0
   33.2451   31.2188   45.3275 H   0  0  0  0  0  0  0  0  0  0  0  0
   31.4887   31.5955   45.3275 H   0  0  0  0  0  0  0  0  0  0  0  0
  1  2  2  0
  2  3  1  0
  4  3  2  0
  5  4  1  0
  6  5  2  0
  7  6  1  0
  8  9  1  0
  8  7  2  0
  9 10  2  0
 10  1  1  0
 10  5  1  0
 11 16  2  0
 12 11  1  0
 13 12  2  0
 13 14  1  0
 14 15  2  0
 15 16  1  0
 15  1  1  0
 17 19  1  0
 17 18  1  0
 17 13  1  0
  2 20  1  0
  3 21  1  0
  4 22  1  0
  6 23  1  0
  7 24  1  0
  8 25  1  0
  9 26  1  0
 11 27  1  0
 12 28  1  0
 17 29  1  0
 18 30  1  0
 18 31  1  0
 18 32  1  0
 19 33  1  0
 19 34  1  0
 19 35  1  0
M  ISO  8  20  14  21  14  22  14  23  14  24  14  25  14  26  14  27  14
M  ISO  8  28  14  29   8  30   8  31   8  32   8  33   8  34   8  35   8
M  END
>  <minimizedAffinity>  (1) 
-6.49659109

>  <minimizedRMSD>  (1) 
0.393185139

$$$$
