
     RDKit          3D

 30 32  0  0  0  0  0  0  0  0999 V2000
   36.4060   28.9850   49.8250 C   0  0  0  0  0  0  0  0  0  0  0  0
   36.6370   29.7010   51.0160 C   0  0  0  0  0  0  0  0  0  0  0  0
   37.2540   30.9650   50.8960 C   0  0  0  0  0  0  0  0  0  0  0  0
   37.5790   31.3920   49.6430 N   0  0  0  0  0  0  0  0  0  0  0  0
   37.3490   30.6930   48.5350 C   0  0  0  0  0  0  0  0  0  0  0  0
   36.7680   29.5030   48.6330 N   0  0  0  0  0  0  0  0  0  0  0  0
   37.7160   31.2050   47.2620 N   0  0  0  0  0  0  0  0  0  0  0  0
   38.8290   31.9470   47.1090 C   0  0  0  0  0  0  0  0  0  0  0  0
   39.2180   32.4610   45.8890 C   0  0  0  0  0  0  0  0  0  0  0  0
   38.3730   32.1530   44.8440 C   0  0  0  0  0  0  0  0  0  0  0  0
   38.6600   32.5850   43.6980 O   0  0  0  0  0  0  0  0  0  0  0  0
   37.2570   31.4210   44.9400 N   0  0  0  0  0  0  0  0  0  0  0  0
   36.9550   30.9580   46.1810 C   0  0  0  0  0  0  0  0  0  0  0  0
   35.9100   30.2690   46.2880 O   0  0  0  0  0  0  0  0  0  0  0  0
   36.4140   31.1260   43.8330 C   0  0  0  0  0  0  0  0  0  0  0  0
   35.3240   31.6780   43.2030 C   0  0  0  0  0  0  0  0  0  0  0  0
   35.0160   30.8210   42.1560 C   0  0  0  0  0  0  0  0  0  0  0  0
   35.9370   29.7910   42.2060 C   0  0  0  0  0  0  0  0  0  0  0  0
   36.7420   30.0180   43.2160 O   0  0  0  0  0  0  0  0  0  0  0  0
   40.4300   33.2800   45.6720 C   0  0  0  0  0  0  0  0  0  0  0  0
   35.9267   27.9958   49.8672 H   0  0  0  0  0  0  0  0  0  0  0  0
   36.3493   29.2931   51.9962 H   0  0  0  0  0  0  0  0  0  0  0  0
   37.4648   31.5828   51.7814 H   0  0  0  0  0  0  0  0  0  0  0  0
   39.4529   32.1516   47.9915 H   0  0  0  0  0  0  0  0  0  0  0  0
   34.8029   32.6082   43.4734 H   0  0  0  0  0  0  0  0  0  0  0  0
   34.1991   30.9382   41.4287 H   0  0  0  0  0  0  0  0  0  0  0  0
   35.9859   28.9327   41.5198 H   0  0  0  0  0  0  0  0  0  0  0  0
   40.8566   33.5683   46.6441 H   0  0  0  0  0  0  0  0  0  0  0  0
   41.1703   32.6963   45.1053 H   0  0  0  0  0  0  0  0  0  0  0  0
   40.1646   34.1846   45.1053 H   0  0  0  0  0  0  0  0  0  0  0  0
  1  2  2  0
  3  2  1  0
  4  3  2  0
  5  6  2  0
  5  4  1  0
  6  1  1  0
  7  5  1  0
  8  7  1  0
  9  8  2  0
 10 12  1  0
 10  9  1  0
 11 10  2  0
 12 13  1  0
 13 14  2  0
 13  7  1  0
 15 12  1  0
 16 15  2  0
 17 18  2  0
 17 16  1  0
 18 19  1  0
 19 15  1  0
 20  9  1  0
  1 21  1  0
  2 22  1  0
  3 23  1  0
  8 24  1  0
 16 25  1  0
 17 26  1  0
 18 27  1  0
 20 28  1  0
 20 29  1  0
 20 30  1  0
M  ISO  8  21  14  22  14  23  14  24  14  25  14  26  14  27  14  28   8
M  ISO  2  29   8  30   8
M  END
>  <minimizedAffinity>  (1) 
-5.27639914

>  <minimizedRMSD>  (1) 
6.80684471

$$$$
