
     RDKit          3D

 28 30  0  0  0  0  0  0  0  0999 V2000
   35.5520   29.5420   49.3280 C   0  0  0  0  0  0  0  0  0  0  0  0
   35.5930   29.1870   50.6830 C   0  0  0  0  0  0  0  0  0  0  0  0
   36.5440   29.6080   51.5750 C   0  0  0  0  0  0  0  0  0  0  0  0
   37.5450   30.4370   51.1500 C   0  0  0  0  0  0  0  0  0  0  0  0
   37.5700   30.8250   49.8430 C   0  0  0  0  0  0  0  0  0  0  0  0
   38.5970   31.6610   49.4580 C   0  0  0  0  0  0  0  0  0  0  0  0
   38.6910   32.0940   48.1640 C   0  0  0  0  0  0  0  0  0  0  0  0
   37.7220   31.6600   47.2740 C   0  0  0  0  0  0  0  0  0  0  0  0
   36.7200   30.8280   47.7050 C   0  0  0  0  0  0  0  0  0  0  0  0
   36.5940   30.3790   48.9770 C   0  0  0  0  0  0  0  0  0  0  0  0
   33.6700   27.0800   47.5250 C   0  0  0  0  0  0  0  0  0  0  0  0
   32.7310   27.7410   46.7520 C   0  0  0  0  0  0  0  0  0  0  0  0
   32.7450   29.1170   46.8560 C   0  0  0  0  0  0  0  0  0  0  0  0
   33.6380   29.7000   47.6730 N   0  0  0  0  0  0  0  0  0  0  0  0
   34.5360   29.0820   48.4130 C   0  0  0  0  0  0  0  0  0  0  0  0
   34.5030   27.7620   48.2950 N   0  0  0  0  0  0  0  0  0  0  0  0
   31.8750   30.0020   46.1590 N   0  0  0  0  0  0  0  0  0  0  0  0
   34.8026   28.5205   51.0586 H   0  0  0  0  0  0  0  0  0  0  0  0
   36.5026   29.2817   52.6247 H   0  0  0  0  0  0  0  0  0  0  0  0
   38.3177   30.7853   51.8512 H   0  0  0  0  0  0  0  0  0  0  0  0
   39.3460   31.9819   50.1969 H   0  0  0  0  0  0  0  0  0  0  0  0
   39.5045   32.7610   47.8424 H   0  0  0  0  0  0  0  0  0  0  0  0
   37.7560   31.9822   46.2228 H   0  0  0  0  0  0  0  0  0  0  0  0
   35.9693   30.5040   46.9692 H   0  0  0  0  0  0  0  0  0  0  0  0
   33.7242   25.9816   47.4992 H   0  0  0  0  0  0  0  0  0  0  0  0
   32.0234   27.2070   46.1007 H   0  0  0  0  0  0  0  0  0  0  0  0
   31.9563   31.0194   46.2976 H   0  0  0  0  0  0  0  0  0  0  0  0
   31.1641   29.6250   45.5160 H   0  0  0  0  0  0  0  0  0  0  0  0
  1  2  2  0
  2  3  1  0
  4  3  2  0
  5  4  1  0
  6  5  2  0
  7  6  1  0
  8  9  1  0
  8  7  2  0
  9 10  2  0
 10  1  1  0
 10  5  1  0
 11 16  2  0
 12 13  2  0
 12 11  1  0
 13 14  1  0
 14 15  2  0
 15  1  1  0
 16 15  1  0
 17 13  1  0
  2 18  1  0
  3 19  1  0
  4 20  1  0
  6 21  1  0
  7 22  1  0
  8 23  1  0
  9 24  1  0
 11 25  1  0
 12 26  1  0
 17 27  1  0
 17 28  1  0
M  ISO  8  18  14  19  14  20  14  21  14  22  14  23  14  24  14  25  14
M  ISO  1  26  14
M  END
>  <minimizedAffinity>  (1) 
-6.36932468

>  <minimizedRMSD>  (1) 
0.268929869

$$$$
