
     RDKit          3D

 27 29  0  0  0  0  0  0  0  0999 V2000
   35.5260   29.5390   49.2540 C   0  0  0  0  0  0  0  0  0  0  0  0
   35.5130   29.1560   50.6040 C   0  0  0  0  0  0  0  0  0  0  0  0
   36.4300   29.5640   51.5280 C   0  0  0  0  0  0  0  0  0  0  0  0
   37.4440   30.4000   51.1610 C   0  0  0  0  0  0  0  0  0  0  0  0
   37.5220   30.8150   49.8680 C   0  0  0  0  0  0  0  0  0  0  0  0
   38.5620   31.6610   49.5310 C   0  0  0  0  0  0  0  0  0  0  0  0
   38.7000   32.1160   48.2510 C   0  0  0  0  0  0  0  0  0  0  0  0
   37.7610   31.6970   47.3120 C   0  0  0  0  0  0  0  0  0  0  0  0
   36.7490   30.8570   47.6950 C   0  0  0  0  0  0  0  0  0  0  0  0
   36.5770   30.3850   48.9520 C   0  0  0  0  0  0  0  0  0  0  0  0
   33.6200   27.0920   47.4400 C   0  0  0  0  0  0  0  0  0  0  0  0
   32.7740   27.7890   46.5650 C   0  0  0  0  0  0  0  0  0  0  0  0
   32.8700   29.1640   46.6070 C   0  0  0  0  0  0  0  0  0  0  0  0
   33.7380   29.7220   47.4560 N   0  0  0  0  0  0  0  0  0  0  0  0
   34.5430   29.0960   48.2870 C   0  0  0  0  0  0  0  0  0  0  0  0
   34.4370   27.7670   48.2330 N   0  0  0  0  0  0  0  0  0  0  0  0
   32.1070   30.0020   45.8100 O   0  0  0  0  0  0  0  0  0  0  0  0
   34.7106   28.4824   50.9392 H   0  0  0  0  0  0  0  0  0  0  0  0
   36.3519   29.2188   52.5695 H   0  0  0  0  0  0  0  0  0  0  0  0
   38.1875   30.7335   51.8999 H   0  0  0  0  0  0  0  0  0  0  0  0
   39.2846   31.9703   50.3006 H   0  0  0  0  0  0  0  0  0  0  0  0
   39.5236   32.7895   47.9716 H   0  0  0  0  0  0  0  0  0  0  0  0
   37.8315   32.0386   46.2687 H   0  0  0  0  0  0  0  0  0  0  0  0
   36.0257   30.5442   46.9276 H   0  0  0  0  0  0  0  0  0  0  0  0
   33.6046   25.9924   47.4670 H   0  0  0  0  0  0  0  0  0  0  0  0
   32.0781   27.2717   45.8882 H   0  0  0  0  0  0  0  0  0  0  0  0
   32.2144   30.9837   45.8789 H   0  0  0  0  0  0  0  0  0  0  0  0
  1  2  2  0
  2  3  1  0
  4  3  2  0
  5  4  1  0
  6  5  2  0
  7  6  1  0
  8  9  1  0
  8  7  2  0
  9 10  2  0
 10  1  1  0
 10  5  1  0
 11 16  2  0
 12 13  2  0
 12 11  1  0
 13 14  1  0
 14 15  2  0
 15  1  1  0
 16 15  1  0
 17 13  1  0
  2 18  1  0
  3 19  1  0
  4 20  1  0
  6 21  1  0
  7 22  1  0
  8 23  1  0
  9 24  1  0
 11 25  1  0
 12 26  1  0
 17 27  1  0
M  ISO  8  18  14  19  14  20  14  21  14  22  14  23  14  24  14  25  14
M  ISO  2  26  14  27   3
M  END
>  <minimizedAffinity>  (1) 
-6.34563828

>  <minimizedRMSD>  (1) 
0.102890074

$$$$
