
     RDKit          3D

 28 30  0  0  0  0  0  0  0  0999 V2000
   35.6110   29.5230   49.3880 C   0  0  0  0  0  0  0  0  0  0  0  0
   35.6730   29.1860   50.7540 C   0  0  0  0  0  0  0  0  0  0  0  0
   36.6180   29.6440   51.6290 C   0  0  0  0  0  0  0  0  0  0  0  0
   37.5930   30.4910   51.1870 C   0  0  0  0  0  0  0  0  0  0  0  0
   37.6040   30.8660   49.8770 C   0  0  0  0  0  0  0  0  0  0  0  0
   38.6140   31.7260   49.4720 C   0  0  0  0  0  0  0  0  0  0  0  0
   38.6890   32.1390   48.1770 C   0  0  0  0  0  0  0  0  0  0  0  0
   37.7250   31.6660   47.3060 C   0  0  0  0  0  0  0  0  0  0  0  0
   36.7450   30.8170   47.7490 C   0  0  0  0  0  0  0  0  0  0  0  0
   36.6340   30.3830   49.0270 C   0  0  0  0  0  0  0  0  0  0  0  0
   33.6170   27.0010   47.8130 C   0  0  0  0  0  0  0  0  0  0  0  0
   32.7610   27.6460   46.9060 C   0  0  0  0  0  0  0  0  0  0  0  0
   32.8900   29.0160   46.8460 C   0  0  0  0  0  0  0  0  0  0  0  0
   33.7910   29.6140   47.6300 N   0  0  0  0  0  0  0  0  0  0  0  0
   34.6040   29.0290   48.4870 C   0  0  0  0  0  0  0  0  0  0  0  0
   34.4660   27.7190   48.5310 N   0  0  0  0  0  0  0  0  0  0  0  0
   32.0680   29.8180   45.9510 C   0  0  0  0  0  0  0  0  0  0  0  0
   32.1980   31.0700   45.9330 O   0  0  0  0  0  0  0  0  0  0  0  0
   34.9041   28.5038   51.1457 H   0  0  0  0  0  0  0  0  0  0  0  0
   36.5929   29.3318   52.6835 H   0  0  0  0  0  0  0  0  0  0  0  0
   38.3605   30.8663   51.8799 H   0  0  0  0  0  0  0  0  0  0  0  0
   39.3589   32.0764   50.2016 H   0  0  0  0  0  0  0  0  0  0  0  0
   39.4832   32.8204   47.8378 H   0  0  0  0  0  0  0  0  0  0  0  0
   37.7449   31.9734   46.2500 H   0  0  0  0  0  0  0  0  0  0  0  0
   36.0005   30.4653   47.0196 H   0  0  0  0  0  0  0  0  0  0  0  0
   33.5823   25.9074   47.9260 H   0  0  0  0  0  0  0  0  0  0  0  0
   32.0377   27.0955   46.2865 H   0  0  0  0  0  0  0  0  0  0  0  0
   31.3346   29.3307   45.2917 H   0  0  0  0  0  0  0  0  0  0  0  0
  1  2  2  0
  2  3  1  0
  4  3  2  0
  5  4  1  0
  6  5  2  0
  7  6  1  0
  8  9  1  0
  8  7  2  0
  9 10  2  0
 10  1  1  0
 10  5  1  0
 11 16  2  0
 12 11  1  0
 13 12  2  0
 13 14  1  0
 14 15  2  0
 15 16  1  0
 15  1  1  0
 17 13  1  0
 18 17  2  0
  2 19  1  0
  3 20  1  0
  4 21  1  0
  6 22  1  0
  7 23  1  0
  8 24  1  0
  9 25  1  0
 11 26  1  0
 12 27  1  0
 17 28  1  0
M  ISO  8  19  14  20  14  21  14  22  14  23  14  24  14  25  14  26  14
M  ISO  2  27  14  28   6
M  END
>  <minimizedAffinity>  (1) 
-6.32566023

>  <minimizedRMSD>  (1) 
0.347696215

$$$$
