
     RDKit          3D

 26 27  0  0  0  0  0  0  0  0999 V2000
   37.5970   30.7810   49.6390 C   0  0  0  0  0  0  0  0  0  0  0  0
   37.8410   32.1200   49.9670 C   0  0  0  0  0  0  0  0  0  0  0  0
   38.2110   33.0060   48.9440 C   0  0  0  0  0  0  0  0  0  0  0  0
   38.3100   32.5010   47.6860 N   0  0  0  0  0  0  0  0  0  0  0  0
   38.0680   31.2010   47.4020 C   0  0  0  0  0  0  0  0  0  0  0  0
   37.7130   30.3400   48.3710 N   0  0  0  0  0  0  0  0  0  0  0  0
   38.1920   30.7430   46.0620 N   0  0  0  0  0  0  0  0  0  0  0  0
   37.0800   30.4610   45.3370 C   0  0  0  0  0  0  0  0  0  0  0  0
   37.2120   30.0180   44.0360 C   0  0  0  0  0  0  0  0  0  0  0  0
   36.0720   29.6750   43.1360 C   0  0  0  0  0  0  0  0  0  0  0  0
   38.5000   29.8910   43.5590 C   0  0  0  0  0  0  0  0  0  0  0  0
   38.6530   29.4850   42.3650 O   0  0  0  0  0  0  0  0  0  0  0  0
   39.6280   30.1580   44.2420 N   0  0  0  0  0  0  0  0  0  0  0  0
   39.4250   30.5920   45.5160 C   0  0  0  0  0  0  0  0  0  0  0  0
   40.4640   30.8580   46.2030 O   0  0  0  0  0  0  0  0  0  0  0  0
   37.2010   29.8390   50.7420 C   0  0  0  0  0  0  0  0  0  0  0  0
   35.8250   29.8150   50.8470 F   0  0  0  0  0  0  0  0  0  0  0  0
   37.7580   28.6260   50.4790 F   0  0  0  0  0  0  0  0  0  0  0  0
   37.6880   30.3670   51.9250 F   0  0  0  0  0  0  0  0  0  0  0  0
   37.7446   32.4702   51.0053 H   0  0  0  0  0  0  0  0  0  0  0  0
   38.4129   34.0672   49.1518 H   0  0  0  0  0  0  0  0  0  0  0  0
   36.0817   30.5843   45.7822 H   0  0  0  0  0  0  0  0  0  0  0  0
   35.1930   29.4105   43.7422 H   0  0  0  0  0  0  0  0  0  0  0  0
   35.8326   30.5409   42.5012 H   0  0  0  0  0  0  0  0  0  0  0  0
   36.3501   28.8208   42.5012 H   0  0  0  0  0  0  0  0  0  0  0  0
   40.5671   30.0435   43.8347 H   0  0  0  0  0  0  0  0  0  0  0  0
  1  2  2  0
  1 16  1  0
  3  2  1  0
  4  3  2  0
  5  4  1  0
  5  6  2  0
  6  1  1  0
  7  5  1  0
  8  7  1  0
  9  8  2  0
 10  9  1  0
 11  9  1  0
 11 13  1  0
 12 11  2  0
 13 14  1  0
 14  7  1  0
 14 15  2  0
 16 17  1  0
 16 19  1  0
 18 16  1  0
  2 20  1  0
  3 21  1  0
  8 22  1  0
 10 23  1  0
 10 24  1  0
 10 25  1  0
 13 26  1  0
M  ISO  7  20  14  21  14  22  14  23   8  24   8  25   8  26   9
M  END
>  <minimizedAffinity>  (1) 
-6.12611866

>  <minimizedRMSD>  (1) 
2.41098738

$$$$
