
     RDKit          3D

 19 20  0  0  0  0  0  0  0  0999 V2000
   37.3830   30.2880   49.9960 C   0  0  0  0  0  0  0  0  0  0  0  0
   38.2970   31.3410   50.0860 C   0  0  0  0  0  0  0  0  0  0  0  0
   38.5480   32.1090   48.9500 C   0  0  0  0  0  0  0  0  0  0  0  0
   37.8850   31.7890   47.8080 N   0  0  0  0  0  0  0  0  0  0  0  0
   37.0040   30.7630   47.7500 C   0  0  0  0  0  0  0  0  0  0  0  0
   36.7580   30.0240   48.8320 N   0  0  0  0  0  0  0  0  0  0  0  0
   36.3250   30.4600   46.5230 N   0  0  0  0  0  0  0  0  0  0  0  0
   36.6070   30.5710   45.2060 C   0  0  0  0  0  0  0  0  0  0  0  0
   35.5380   30.1030   44.5270 N   0  0  0  0  0  0  0  0  0  0  0  0
   34.6200   29.7130   45.4430 C   0  0  0  0  0  0  0  0  0  0  0  0
   35.1160   29.9360   46.6700 N   0  0  0  0  0  0  0  0  0  0  0  0
   37.1040   29.4520   51.2140 C   0  0  0  0  0  0  0  0  0  0  0  0
   35.7540   29.1970   51.3100 F   0  0  0  0  0  0  0  0  0  0  0  0
   37.8720   28.3340   51.1320 F   0  0  0  0  0  0  0  0  0  0  0  0
   37.4760   30.2190   52.3160 F   0  0  0  0  0  0  0  0  0  0  0  0
   38.8086   31.5597   51.0349 H   0  0  0  0  0  0  0  0  0  0  0  0
   39.2599   32.9471   48.9773 H   0  0  0  0  0  0  0  0  0  0  0  0
   37.5347   30.9686   44.7687 H   0  0  0  0  0  0  0  0  0  0  0  0
   33.6320   29.2846   45.2187 H   0  0  0  0  0  0  0  0  0  0  0  0
  1  2  2  0
  1 12  1  0
  3  2  1  0
  4  3  2  0
  5  4  1  0
  5  6  2  0
  6  1  1  0
  7 11  1  0
  7  5  1  0
  8  7  1  0
  9  8  2  0
  9 10  1  0
 10 11  2  0
 12 13  1  0
 12 15  1  0
 14 12  1  0
  2 16  1  0
  3 17  1  0
  8 18  1  0
 10 19  1  0
M  ISO  4  16  14  17  14  18  14  19  14
M  END
>  <minimizedAffinity>  (1) 
-5.34984589

>  <minimizedRMSD>  (1) 
0.180230737

$$$$
