
     RDKit          3D

 20 21  0  0  0  0  0  0  0  0999 V2000
   37.3890   30.2680   50.0270 C   0  0  0  0  0  0  0  0  0  0  0  0
   38.2900   31.3430   50.1360 C   0  0  0  0  0  0  0  0  0  0  0  0
   38.5310   32.1320   49.0010 C   0  0  0  0  0  0  0  0  0  0  0  0
   37.8750   31.8040   47.8560 N   0  0  0  0  0  0  0  0  0  0  0  0
   37.0160   30.7580   47.7980 C   0  0  0  0  0  0  0  0  0  0  0  0
   36.7790   30.0060   48.8660 N   0  0  0  0  0  0  0  0  0  0  0  0
   36.3700   30.4950   46.5320 C   0  0  0  0  0  0  0  0  0  0  0  0
   35.1620   29.9570   46.2380 C   0  0  0  0  0  0  0  0  0  0  0  0
   34.8000   29.8230   44.9340 C   0  0  0  0  0  0  0  0  0  0  0  0
   35.6870   30.2450   43.9640 C   0  0  0  0  0  0  0  0  0  0  0  0
   37.0920   30.8560   44.9810 S   0  0  0  0  0  0  0  0  0  0  0  0
   37.1460   29.4410   51.2480 C   0  0  0  0  0  0  0  0  0  0  0  0
   35.7830   29.1980   51.3720 F   0  0  0  0  0  0  0  0  0  0  0  0
   37.9020   28.3050   51.1470 F   0  0  0  0  0  0  0  0  0  0  0  0
   37.5150   30.1870   52.3570 F   0  0  0  0  0  0  0  0  0  0  0  0
   38.7941   31.5600   51.0893 H   0  0  0  0  0  0  0  0  0  0  0  0
   39.2251   32.9846   49.0362 H   0  0  0  0  0  0  0  0  0  0  0  0
   34.4843   29.6335   47.0417 H   0  0  0  0  0  0  0  0  0  0  0  0
   33.8267   29.3901   44.6596 H   0  0  0  0  0  0  0  0  0  0  0  0
   35.5811   30.2218   42.8694 H   0  0  0  0  0  0  0  0  0  0  0  0
  1  2  2  0
  1 12  1  0
  3  2  1  0
  4  3  2  0
  5  4  1  0
  5  6  2  0
  6  1  1  0
  7  5  1  0
  8  7  2  0
  9  8  1  0
 10  9  2  0
 10 11  1  0
 11  7  1  0
 12 13  1  0
 12 15  1  0
 14 12  1  0
  2 16  1  0
  3 17  1  0
  8 18  1  0
  9 19  1  0
 10 20  1  0
M  ISO  5  16  14  17  14  18  14  19  14  20  14
M  END
>  <minimizedAffinity>  (1) 
-5.07145262

>  <minimizedRMSD>  (1) 
0.364111155

$$$$
