
     RDKit          3D

 29 31  0  0  0  0  0  0  0  0999 V2000
   36.4220   29.1490   49.7670 C   0  0  0  0  0  0  0  0  0  0  0  0
   36.8260   29.8720   50.9130 C   0  0  0  0  0  0  0  0  0  0  0  0
   37.6440   30.9860   50.7070 C   0  0  0  0  0  0  0  0  0  0  0  0
   38.0060   31.3170   49.4260 N   0  0  0  0  0  0  0  0  0  0  0  0
   37.5950   30.5970   48.3650 C   0  0  0  0  0  0  0  0  0  0  0  0
   36.8180   29.5350   48.5420 N   0  0  0  0  0  0  0  0  0  0  0  0
   38.0030   30.9860   47.0550 N   0  0  0  0  0  0  0  0  0  0  0  0
   39.2300   31.5010   46.8350 C   0  0  0  0  0  0  0  0  0  0  0  0
   39.6560   31.8870   45.5850 C   0  0  0  0  0  0  0  0  0  0  0  0
   38.7310   31.7050   44.5890 C   0  0  0  0  0  0  0  0  0  0  0  0
   39.0290   32.0310   43.4010 O   0  0  0  0  0  0  0  0  0  0  0  0
   37.5010   31.1990   44.7520 N   0  0  0  0  0  0  0  0  0  0  0  0
   37.1540   30.8400   46.0210 C   0  0  0  0  0  0  0  0  0  0  0  0
   36.0080   30.3660   46.1980 O   0  0  0  0  0  0  0  0  0  0  0  0
   36.5980   31.0450   43.6500 C   0  0  0  0  0  0  0  0  0  0  0  0
   35.7070   32.1530   43.1470 C   0  0  0  0  0  0  0  0  0  0  0  0
   34.8610   31.3740   41.8200 S   0  0  0  0  0  0  0  0  0  0  0  0
   35.7700   29.6970   42.0770 C   0  0  0  0  0  0  0  0  0  0  0  0
   36.4870   29.9000   42.9900 N   0  0  0  0  0  0  0  0  0  0  0  0
   40.9850   32.4560   45.2790 C   0  0  0  0  0  0  0  0  0  0  0  0
   35.7786   28.2638   49.8789 H   0  0  0  0  0  0  0  0  0  0  0  0
   36.5101   29.5707   51.9227 H   0  0  0  0  0  0  0  0  0  0  0  0
   37.9923   31.5883   51.5590 H   0  0  0  0  0  0  0  0  0  0  0  0
   39.9160   31.6168   47.6871 H   0  0  0  0  0  0  0  0  0  0  0  0
   35.6116   33.1846   43.5166 H   0  0  0  0  0  0  0  0  0  0  0  0
   35.6485   28.7655   41.5047 H   0  0  0  0  0  0  0  0  0  0  0  0
   41.5122   32.6817   46.2177 H   0  0  0  0  0  0  0  0  0  0  0  0
   41.5696   31.7293   44.6958 H   0  0  0  0  0  0  0  0  0  0  0  0
   40.8626   33.3806   44.6958 H   0  0  0  0  0  0  0  0  0  0  0  0
  1  2  2  0
  3  2  1  0
  4  3  2  0
  5  6  2  0
  5  4  1  0
  6  1  1  0
  7  5  1  0
  8  7  1  0
  9  8  2  0
 10 12  1  0
 10  9  1  0
 11 10  2  0
 12 13  1  0
 13 14  2  0
 13  7  1  0
 15 12  1  0
 16 15  2  0
 17 18  1  0
 17 16  1  0
 18 19  2  0
 19 15  1  0
 20  9  1  0
  1 21  1  0
  2 22  1  0
  3 23  1  0
  8 24  1  0
 16 25  1  0
 18 26  1  0
 20 27  1  0
 20 28  1  0
 20 29  1  0
M  ISO  8  21  14  22  14  23  14  24  14  25  14  26  14  27   8  28   8
M  ISO  1  29   8
M  END
>  <minimizedAffinity>  (1) 
-5.20207024

>  <minimizedRMSD>  (1) 
6.94777346

$$$$
