
     RDKit          3D

 15 15  0  0  0  0  0  0  0  0999 V2000
   37.4070   30.2840   49.9860 C   0  0  0  0  0  0  0  0  0  0  0  0
   38.2940   31.3580   50.1160 C   0  0  0  0  0  0  0  0  0  0  0  0
   38.5370   32.1430   48.9770 C   0  0  0  0  0  0  0  0  0  0  0  0
   37.8970   31.8120   47.8180 N   0  0  0  0  0  0  0  0  0  0  0  0
   37.0500   30.7640   47.7470 C   0  0  0  0  0  0  0  0  0  0  0  0
   36.8030   30.0030   48.8150 N   0  0  0  0  0  0  0  0  0  0  0  0
   37.1360   29.4350   51.1930 C   0  0  0  0  0  0  0  0  0  0  0  0
   35.7710   29.1960   51.3050 F   0  0  0  0  0  0  0  0  0  0  0  0
   37.8940   28.3170   51.1170 F   0  0  0  0  0  0  0  0  0  0  0  0
   37.4840   30.1910   52.3110 F   0  0  0  0  0  0  0  0  0  0  0  0
   36.4190   30.4960   46.4620 C   0  0  0  0  0  0  0  0  0  0  0  0
   35.2170   30.0640   46.4830 O   0  0  0  0  0  0  0  0  0  0  0  0
   38.7835   31.5797   51.0758 H   0  0  0  0  0  0  0  0  0  0  0  0
   39.2242   33.0009   49.0180 H   0  0  0  0  0  0  0  0  0  0  0  0
   36.9541   30.6585   45.5148 H   0  0  0  0  0  0  0  0  0  0  0  0
  1  2  2  0
  1  7  1  0
  3  2  1  0
  4  3  2  0
  5  4  1  0
  5  6  2  0
  6  1  1  0
  7  8  1  0
  7 10  1  0
  9  7  1  0
 11 12  2  0
 11  5  1  0
  2 13  1  0
  3 14  1  0
 11 15  1  0
M  ISO  3  13  14  14  14  15   6
M  END
>  <minimizedAffinity>  (1) 
-4.51228285

>  <minimizedRMSD>  (1) 
0.158057928

$$$$
