
     RDKit          3D

 30 32  0  0  0  0  0  0  0  0999 V2000
   37.3390   30.0650   50.2850 C   0  0  0  0  0  0  0  0  0  0  0  0
   38.2930   31.0900   50.3880 C   0  0  0  0  0  0  0  0  0  0  0  0
   38.5030   31.8870   49.2580 C   0  0  0  0  0  0  0  0  0  0  0  0
   37.7760   31.6300   48.1240 N   0  0  0  0  0  0  0  0  0  0  0  0
   36.8760   30.6390   48.0730 C   0  0  0  0  0  0  0  0  0  0  0  0
   36.6630   29.8720   49.1360 N   0  0  0  0  0  0  0  0  0  0  0  0
   36.1420   30.4130   46.8640 N   0  0  0  0  0  0  0  0  0  0  0  0
   36.7200   30.5790   45.6540 C   0  0  0  0  0  0  0  0  0  0  0  0
   36.0330   30.3660   44.4870 C   0  0  0  0  0  0  0  0  0  0  0  0
   34.7320   29.9770   44.6320 C   0  0  0  0  0  0  0  0  0  0  0  0
   34.0380   29.7640   43.6040 O   0  0  0  0  0  0  0  0  0  0  0  0
   34.1140   29.7990   45.8040 N   0  0  0  0  0  0  0  0  0  0  0  0
   34.8560   30.0270   46.9240 C   0  0  0  0  0  0  0  0  0  0  0  0
   34.2960   29.8670   48.0380 O   0  0  0  0  0  0  0  0  0  0  0  0
   31.0170   28.0830   46.2010 N   0  0  0  0  0  0  0  0  0  0  0  0
   32.3360   28.1310   46.1110 N   0  0  0  0  0  0  0  0  0  0  0  0
   32.7570   29.3920   45.9380 C   0  0  0  0  0  0  0  0  0  0  0  0
   31.6110   30.1640   45.9230 C   0  0  0  0  0  0  0  0  0  0  0  0
   30.5180   29.3430   46.0880 C   0  0  0  0  0  0  0  0  0  0  0  0
   36.6260   30.5360   43.1340 C   0  0  0  0  0  0  0  0  0  0  0  0
   37.1420   29.4142   51.1497 H   0  0  0  0  0  0  0  0  0  0  0  0
   38.8526   31.2594   51.3197 H   0  0  0  0  0  0  0  0  0  0  0  0
   39.2380   32.7051   49.2785 H   0  0  0  0  0  0  0  0  0  0  0  0
   37.7727   30.8943   45.6039 H   0  0  0  0  0  0  0  0  0  0  0  0
   30.4578   27.2285   46.3351 H   0  0  0  0  0  0  0  0  0  0  0  0
   31.5774   31.2565   45.7994 H   0  0  0  0  0  0  0  0  0  0  0  0
   29.4605   29.6439   46.1215 H   0  0  0  0  0  0  0  0  0  0  0  0
   37.6793   30.8380   43.2306 H   0  0  0  0  0  0  0  0  0  0  0  0
   36.5662   29.5845   42.5853 H   0  0  0  0  0  0  0  0  0  0  0  0
   36.0712   31.3113   42.5853 H   0  0  0  0  0  0  0  0  0  0  0  0
  1  2  2  0
  3  2  1  0
  4  3  2  0
  5  4  1  0
  5  6  2  0
  6  1  1  0
  7 13  1  0
  7  5  1  0
  8  7  1  0
  9 10  1  0
  9  8  2  0
 10 12  1  0
 11 10  2  0
 12 17  1  0
 12 13  1  0
 13 14  2  0
 16 15  1  0
 17 16  2  0
 18 17  1  0
 18 19  2  0
 19 15  1  0
 20  9  1  0
  1 21  1  0
  2 22  1  0
  3 23  1  0
  8 24  1  0
 15 25  1  0
 18 26  1  0
 19 27  1  0
 20 28  1  0
 20 29  1  0
 20 30  1  0
M  ISO  8  21  14  22  14  23  14  24  14  25   9  26  14  27  14  28   8
M  ISO  2  29   8  30   8
M  END
>  <minimizedAffinity>  (1) 
-5.11344528

>  <minimizedRMSD>  (1) 
3.73725915

$$$$
