
     RDKit          3D

 30 32  0  0  0  0  0  0  0  0999 V2000
   36.6510   30.6550   46.5060 C   0  0  0  0  0  0  0  0  0  0  0  0
   35.3820   30.1140   46.3910 C   0  0  0  0  0  0  0  0  0  0  0  0
   34.7920   29.8030   45.1810 C   0  0  0  0  0  0  0  0  0  0  0  0
   35.4900   30.0390   44.0160 C   0  0  0  0  0  0  0  0  0  0  0  0
   36.7670   30.5830   44.1060 C   0  0  0  0  0  0  0  0  0  0  0  0
   37.3370   30.8860   45.3440 C   0  0  0  0  0  0  0  0  0  0  0  0
   37.4710   30.3900   50.0610 C   0  0  0  0  0  0  0  0  0  0  0  0
   38.2060   31.5510   50.2940 C   0  0  0  0  0  0  0  0  0  0  0  0
   38.4210   32.4260   49.2310 C   0  0  0  0  0  0  0  0  0  0  0  0
   37.9000   32.0960   48.0240 N   0  0  0  0  0  0  0  0  0  0  0  0
   37.1830   30.9490   47.8290 C   0  0  0  0  0  0  0  0  0  0  0  0
   36.9840   30.1220   48.8490 N   0  0  0  0  0  0  0  0  0  0  0  0
   37.2350   29.4420   51.2070 C   0  0  0  0  0  0  0  0  0  0  0  0
   35.8810   29.2140   51.3470 F   0  0  0  0  0  0  0  0  0  0  0  0
   37.9540   28.3150   50.9760 F   0  0  0  0  0  0  0  0  0  0  0  0
   37.6630   30.0950   52.3630 F   0  0  0  0  0  0  0  0  0  0  0  0
   38.6780   31.4550   45.4120 C   0  0  0  0  0  0  0  0  0  0  0  0
   39.9690   30.9690   45.5630 C   0  0  0  0  0  0  0  0  0  0  0  0
   40.8290   32.0200   45.5500 N   0  0  0  0  0  0  0  0  0  0  0  0
   40.0570   33.1340   45.3910 C   0  0  0  0  0  0  0  0  0  0  0  0
   38.7370   32.8140   45.3040 N   0  0  0  0  0  0  0  0  0  0  0  0
   34.8128   29.9214   47.3124 H   0  0  0  0  0  0  0  0  0  0  0  0
   33.7799   29.3733   45.1478 H   0  0  0  0  0  0  0  0  0  0  0  0
   35.0471   29.8025   43.0373 H   0  0  0  0  0  0  0  0  0  0  0  0
   37.3376   30.7778   43.1860 H   0  0  0  0  0  0  0  0  0  0  0  0
   38.6072   31.7716   51.2942 H   0  0  0  0  0  0  0  0  0  0  0  0
   38.9950   33.3545   49.3670 H   0  0  0  0  0  0  0  0  0  0  0  0
   40.2486   29.9110   45.6744 H   0  0  0  0  0  0  0  0  0  0  0  0
   40.4512   34.1596   45.3397 H   0  0  0  0  0  0  0  0  0  0  0  0
   37.9466   33.4630   45.1820 H   0  0  0  0  0  0  0  0  0  0  0  0
  1 11  1  0
  2  1  2  0
  3  2  1  0
  4  5  1  0
  4  3  2  0
  5  6  2  0
  6 17  1  0
  6  1  1  0
  7  8  2  0
  7 13  1  0
  9  8  1  0
 10  9  2  0
 11 10  1  0
 11 12  2  0
 12  7  1  0
 13 14  1  0
 13 16  1  0
 15 13  1  0
 17 18  2  0
 19 18  1  0
 20 19  2  0
 21 20  1  0
 21 17  1  0
  2 22  1  0
  3 23  1  0
  4 24  1  0
  5 25  1  0
  8 26  1  0
  9 27  1  0
 18 28  1  0
 20 29  1  0
 21 30  1  0
M  ISO  8  22  14  23  14  24  14  25  14  26  14  27  14  28  14  29  14
M  ISO  1  30   9
M  END
>  <minimizedAffinity>  (1) 
-6.67788839

>  <minimizedRMSD>  (1) 
0.487502962

$$$$
