
     RDKit          3D

 30 32  0  0  0  0  0  0  0  0999 V2000
   36.6750   30.6280   46.4440 C   0  0  0  0  0  0  0  0  0  0  0  0
   35.3750   30.1550   46.3260 C   0  0  0  0  0  0  0  0  0  0  0  0
   34.7950   29.8380   45.1140 C   0  0  0  0  0  0  0  0  0  0  0  0
   35.5250   29.9910   43.9550 C   0  0  0  0  0  0  0  0  0  0  0  0
   36.8200   30.4610   44.0530 C   0  0  0  0  0  0  0  0  0  0  0  0
   37.4040   30.7800   45.2790 C   0  0  0  0  0  0  0  0  0  0  0  0
   37.5010   30.3970   49.9920 C   0  0  0  0  0  0  0  0  0  0  0  0
   38.2450   31.5480   50.2210 C   0  0  0  0  0  0  0  0  0  0  0  0
   38.4650   32.4100   49.1430 C   0  0  0  0  0  0  0  0  0  0  0  0
   37.9420   32.0780   47.9440 N   0  0  0  0  0  0  0  0  0  0  0  0
   37.2170   30.9400   47.7560 C   0  0  0  0  0  0  0  0  0  0  0  0
   37.0060   30.1150   48.7870 N   0  0  0  0  0  0  0  0  0  0  0  0
   37.2650   29.4660   51.1610 C   0  0  0  0  0  0  0  0  0  0  0  0
   35.8930   29.2520   51.2900 F   0  0  0  0  0  0  0  0  0  0  0  0
   37.9620   28.3260   50.9490 F   0  0  0  0  0  0  0  0  0  0  0  0
   37.6920   30.1270   52.3150 F   0  0  0  0  0  0  0  0  0  0  0  0
   38.7370   31.2600   45.3320 N   0  0  0  0  0  0  0  0  0  0  0  0
   39.9030   30.7490   45.6960 N   0  0  0  0  0  0  0  0  0  0  0  0
   40.8470   31.6940   45.5250 C   0  0  0  0  0  0  0  0  0  0  0  0
   40.2770   32.8520   45.0360 C   0  0  0  0  0  0  0  0  0  0  0  0
   38.9360   32.5450   44.9240 C   0  0  0  0  0  0  0  0  0  0  0  0
   34.7790   30.0268   47.2416 H   0  0  0  0  0  0  0  0  0  0  0  0
   33.7603   29.4669   45.0737 H   0  0  0  0  0  0  0  0  0  0  0  0
   35.0871   29.7449   42.9764 H   0  0  0  0  0  0  0  0  0  0  0  0
   37.4105   30.5880   43.1337 H   0  0  0  0  0  0  0  0  0  0  0  0
   38.6481   31.7737   51.2193 H   0  0  0  0  0  0  0  0  0  0  0  0
   39.0486   33.3339   49.2685 H   0  0  0  0  0  0  0  0  0  0  0  0
   41.9170   31.5622   45.7433 H   0  0  0  0  0  0  0  0  0  0  0  0
   40.7765   33.8011   44.7917 H   0  0  0  0  0  0  0  0  0  0  0  0
   38.1531   33.2283   44.5631 H   0  0  0  0  0  0  0  0  0  0  0  0
  1 11  1  0
  2  1  2  0
  3  2  1  0
  4  5  1  0
  4  3  2  0
  5  6  2  0
  6 17  1  0
  6  1  1  0
  7  8  2  0
  7 13  1  0
  9  8  1  0
 10  9  2  0
 11 10  1  0
 11 12  2  0
 12  7  1  0
 13 14  1  0
 13 16  1  0
 15 13  1  0
 17 18  1  0
 19 18  2  0
 20 19  1  0
 21 20  2  0
 21 17  1  0
  2 22  1  0
  3 23  1  0
  4 24  1  0
  5 25  1  0
  8 26  1  0
  9 27  1  0
 19 28  1  0
 20 29  1  0
 21 30  1  0
M  ISO  8  22  14  23  14  24  14  25  14  26  14  27  14  28  14  29  14
M  ISO  1  30  14
M  END
>  <minimizedAffinity>  (1) 
-6.57178354

>  <minimizedRMSD>  (1) 
0.579439878

$$$$
