
     RDKit          3D

 37 40  0  0  0  0  0  0  0  0999 V2000
   35.8180   30.3710   46.1240 C   0  0  0  0  0  0  0  0  0  0  0  0
   34.5360   29.8930   46.3960 C   0  0  0  0  0  0  0  0  0  0  0  0
   33.6140   29.6160   45.4100 C   0  0  0  0  0  0  0  0  0  0  0  0
   33.9340   29.8050   44.1020 C   0  0  0  0  0  0  0  0  0  0  0  0
   35.1970   30.2760   43.8080 C   0  0  0  0  0  0  0  0  0  0  0  0
   36.1250   30.5560   44.8020 C   0  0  0  0  0  0  0  0  0  0  0  0
   37.4480   31.0540   44.4380 C   0  0  0  0  0  0  0  0  0  0  0  0
   37.6460   32.3640   44.7050 N   0  0  0  0  0  0  0  0  0  0  0  0
   38.8170   32.9860   44.4300 C   0  0  0  0  0  0  0  0  0  0  0  0
   39.8270   32.2850   43.8690 N   0  0  0  0  0  0  0  0  0  0  0  0
   39.6570   30.9720   43.5900 C   0  0  0  0  0  0  0  0  0  0  0  0
   40.6700   30.2300   43.0170 C   0  0  0  0  0  0  0  0  0  0  0  0
   40.4430   28.8950   42.7530 C   0  0  0  0  0  0  0  0  0  0  0  0
   39.2440   28.2710   43.0390 C   0  0  0  0  0  0  0  0  0  0  0  0
   38.2040   29.0030   43.6190 C   0  0  0  0  0  0  0  0  0  0  0  0
   38.4690   30.3190   43.8640 C   0  0  0  0  0  0  0  0  0  0  0  0
   37.4150   30.2570   49.4000 C   0  0  0  0  0  0  0  0  0  0  0  0
   38.4690   31.1570   49.2610 C   0  0  0  0  0  0  0  0  0  0  0  0
   38.6280   31.8050   48.0320 C   0  0  0  0  0  0  0  0  0  0  0  0
   37.7530   31.5240   47.0480 N   0  0  0  0  0  0  0  0  0  0  0  0
   36.7350   30.6400   47.2170 C   0  0  0  0  0  0  0  0  0  0  0  0
   36.5950   30.0310   48.3870 N   0  0  0  0  0  0  0  0  0  0  0  0
   37.2450   29.5590   50.7260 C   0  0  0  0  0  0  0  0  0  0  0  0
   35.8980   29.3650   50.9730 F   0  0  0  0  0  0  0  0  0  0  0  0
   37.9650   28.4090   50.6900 F   0  0  0  0  0  0  0  0  0  0  0  0
   37.7180   30.4270   51.7130 F   0  0  0  0  0  0  0  0  0  0  0  0
   34.2480   29.7298   47.4450 H   0  0  0  0  0  0  0  0  0  0  0  0
   32.6163   29.2409   45.6818 H   0  0  0  0  0  0  0  0  0  0  0  0
   33.2088   29.5892   43.3035 H   0  0  0  0  0  0  0  0  0  0  0  0
   35.4767   30.4342   42.7560 H   0  0  0  0  0  0  0  0  0  0  0  0
   38.9451   34.0537   44.6615 H   0  0  0  0  0  0  0  0  0  0  0  0
   41.6381   30.6934   42.7759 H   0  0  0  0  0  0  0  0  0  0  0  0
   41.2498   28.3031   42.2960 H   0  0  0  0  0  0  0  0  0  0  0  0
   39.1085   27.2034   42.8114 H   0  0  0  0  0  0  0  0  0  0  0  0
   37.2331   28.5469   43.8626 H   0  0  0  0  0  0  0  0  0  0  0  0
   39.1580   31.3528   50.0958 H   0  0  0  0  0  0  0  0  0  0  0  0
   39.4451   32.5242   47.8736 H   0  0  0  0  0  0  0  0  0  0  0  0
  1  2  2  0
  1 21  1  0
  3  2  1  0
  4  3  2  0
  5  4  1  0
  5  6  2  0
  6  1  1  0
  7  8  2  0
  7  6  1  0
  9  8  1  0
 10  9  2  0
 11 16  2  0
 11 10  1  0
 12 11  1  0
 13 12  2  0
 13 14  1  0
 14 15  2  0
 15 16  1  0
 16  7  1  0
 17 23  1  0
 18 17  2  0
 19 18  1  0
 20 21  1  0
 20 19  2  0
 21 22  2  0
 22 17  1  0
 23 24  1  0
 23 26  1  0
 25 23  1  0
  2 27  1  0
  3 28  1  0
  4 29  1  0
  5 30  1  0
  9 31  1  0
 12 32  1  0
 13 33  1  0
 14 34  1  0
 15 35  1  0
 18 36  1  0
 19 37  1  0
M  ISO  8  27  14  28  14  29  14  30  14  31  14  32  14  33  14  34  14
M  ISO  3  35  14  36  14  37  14
M  END
>  <minimizedAffinity>  (1) 
-6.51668024

>  <minimizedRMSD>  (1) 
1.21202362

$$$$
