
     RDKit          3D

 35 37  0  0  0  0  0  0  0  0999 V2000
   36.6310   30.6340   46.5480 C   0  0  0  0  0  0  0  0  0  0  0  0
   35.3360   30.1100   46.4310 C   0  0  0  0  0  0  0  0  0  0  0  0
   34.7780   29.8040   45.2050 C   0  0  0  0  0  0  0  0  0  0  0  0
   35.4770   30.0050   44.0580 C   0  0  0  0  0  0  0  0  0  0  0  0
   36.7540   30.5200   44.1560 C   0  0  0  0  0  0  0  0  0  0  0  0
   37.3280   30.8320   45.3860 C   0  0  0  0  0  0  0  0  0  0  0  0
   37.4400   30.3490   50.0930 C   0  0  0  0  0  0  0  0  0  0  0  0
   38.1730   31.5130   50.3400 C   0  0  0  0  0  0  0  0  0  0  0  0
   38.3870   32.3980   49.2730 C   0  0  0  0  0  0  0  0  0  0  0  0
   37.8710   32.0710   48.0730 N   0  0  0  0  0  0  0  0  0  0  0  0
   37.1650   30.9370   47.8590 C   0  0  0  0  0  0  0  0  0  0  0  0
   36.9670   30.0990   48.8860 N   0  0  0  0  0  0  0  0  0  0  0  0
   37.2170   29.4100   51.2470 C   0  0  0  0  0  0  0  0  0  0  0  0
   35.8490   29.1770   51.3720 F   0  0  0  0  0  0  0  0  0  0  0  0
   37.9360   28.2880   51.0270 F   0  0  0  0  0  0  0  0  0  0  0  0
   37.6350   30.0640   52.4060 F   0  0  0  0  0  0  0  0  0  0  0  0
   38.6500   31.3530   45.3840 N   0  0  0  0  0  0  0  0  0  0  0  0
   40.0250   30.9190   45.6740 C   0  0  0  0  0  0  0  0  0  0  0  0
   40.6530   31.1990   44.3090 C   0  0  0  0  0  0  0  0  0  0  0  0
   39.9270   32.4530   43.8410 C   0  0  0  0  0  0  0  0  0  0  0  0
   38.9620   32.7390   45.0010 C   0  0  0  0  0  0  0  0  0  0  0  0
   34.7462   29.9372   47.3433 H   0  0  0  0  0  0  0  0  0  0  0  0
   33.7584   29.3939   45.1572 H   0  0  0  0  0  0  0  0  0  0  0  0
   35.0379   29.7642   43.0786 H   0  0  0  0  0  0  0  0  0  0  0  0
   37.3344   30.6887   43.2370 H   0  0  0  0  0  0  0  0  0  0  0  0
   38.5708   31.7290   51.3426 H   0  0  0  0  0  0  0  0  0  0  0  0
   38.9574   33.3282   49.4119 H   0  0  0  0  0  0  0  0  0  0  0  0
   40.4876   31.5181   46.4722 H   0  0  0  0  0  0  0  0  0  0  0  0
   40.1294   29.8875   46.0417 H   0  0  0  0  0  0  0  0  0  0  0  0
   41.7339   31.3809   44.4022 H   0  0  0  0  0  0  0  0  0  0  0  0
   40.5538   30.3569   43.6082 H   0  0  0  0  0  0  0  0  0  0  0  0
   40.6296   33.2867   43.6951 H   0  0  0  0  0  0  0  0  0  0  0  0
   39.4199   32.3275   42.8730 H   0  0  0  0  0  0  0  0  0  0  0  0
   39.4495   33.2930   45.8167 H   0  0  0  0  0  0  0  0  0  0  0  0
   38.0951   33.3689   44.7524 H   0  0  0  0  0  0  0  0  0  0  0  0
  1 11  1  0
  2  1  2  0
  3  2  1  0
  4  5  1  0
  4  3  2  0
  5  6  2  0
  6  1  1  0
  7  8  2  0
  7 13  1  0
  9  8  1  0
 10  9  2  0
 11 10  1  0
 11 12  2  0
 12  7  1  0
 13 14  1  0
 13 16  1  0
 15 13  1  0
 17  6  1  0
 17 18  1  0
 19 18  1  0
 20 19  1  0
 20 21  1  0
 21 17  1  0
  2 22  1  0
  3 23  1  0
  4 24  1  0
  5 25  1  0
  8 26  1  0
  9 27  1  0
 18 28  1  0
 18 29  1  0
 19 30  1  0
 19 31  1  0
 20 32  1  0
 20 33  1  0
 21 34  1  0
 21 35  1  0
M  ISO  8  22  14  23  14  24  14  25  14  26  14  27  14  28  13  29  13
M  ISO  6  30  13  31  13  32  13  33  13  34  13  35  13
M  END
>  <minimizedAffinity>  (1) 
-6.49232626

>  <minimizedRMSD>  (1) 
1.02998555

$$$$
