
     RDKit          3D

 34 37  0  0  0  0  0  0  0  0999 V2000
   35.6360   30.2900   46.3980 C   0  0  0  0  0  0  0  0  0  0  0  0
   34.3740   29.7940   46.6950 C   0  0  0  0  0  0  0  0  0  0  0  0
   33.4130   29.4970   45.7580 C   0  0  0  0  0  0  0  0  0  0  0  0
   33.7100   29.7020   44.4310 C   0  0  0  0  0  0  0  0  0  0  0  0
   34.9700   30.2000   44.0850 C   0  0  0  0  0  0  0  0  0  0  0  0
   35.9110   30.4860   45.0700 C   0  0  0  0  0  0  0  0  0  0  0  0
   37.1880   30.9940   44.6940 N   0  0  0  0  0  0  0  0  0  0  0  0
   37.5040   32.3060   44.8970 C   0  0  0  0  0  0  0  0  0  0  0  0
   38.7540   32.5670   44.4700 N   0  0  0  0  0  0  0  0  0  0  0  0
   39.2600   31.4170   43.9840 C   0  0  0  0  0  0  0  0  0  0  0  0
   40.4540   30.9760   43.4030 C   0  0  0  0  0  0  0  0  0  0  0  0
   40.5970   29.6880   43.0260 N   0  0  0  0  0  0  0  0  0  0  0  0
   39.6020   28.7890   43.1930 C   0  0  0  0  0  0  0  0  0  0  0  0
   38.4170   29.1660   43.7540 N   0  0  0  0  0  0  0  0  0  0  0  0
   38.2860   30.4550   44.1270 C   0  0  0  0  0  0  0  0  0  0  0  0
   37.3510   30.1700   49.6260 C   0  0  0  0  0  0  0  0  0  0  0  0
   38.3640   31.1060   49.4620 C   0  0  0  0  0  0  0  0  0  0  0  0
   38.4650   31.7870   48.2360 C   0  0  0  0  0  0  0  0  0  0  0  0
   37.5630   31.4900   47.2740 N   0  0  0  0  0  0  0  0  0  0  0  0
   36.5880   30.5740   47.4660 C   0  0  0  0  0  0  0  0  0  0  0  0
   36.4920   29.9260   48.6340 N   0  0  0  0  0  0  0  0  0  0  0  0
   37.2550   29.4510   50.9420 C   0  0  0  0  0  0  0  0  0  0  0  0
   35.9170   29.2010   51.2300 F   0  0  0  0  0  0  0  0  0  0  0  0
   37.9970   28.3090   50.8430 F   0  0  0  0  0  0  0  0  0  0  0  0
   37.7490   30.3000   51.9250 F   0  0  0  0  0  0  0  0  0  0  0  0
   34.1257   29.6270   47.7535 H   0  0  0  0  0  0  0  0  0  0  0  0
   32.4311   29.1052   46.0620 H   0  0  0  0  0  0  0  0  0  0  0  0
   32.9664   29.4772   43.6522 H   0  0  0  0  0  0  0  0  0  0  0  0
   35.2194   30.3670   43.0267 H   0  0  0  0  0  0  0  0  0  0  0  0
   36.8296   33.0489   45.3479 H   0  0  0  0  0  0  0  0  0  0  0  0
   41.2821   31.6842   43.2524 H   0  0  0  0  0  0  0  0  0  0  0  0
   39.7485   27.7464   42.8745 H   0  0  0  0  0  0  0  0  0  0  0  0
   39.0744   31.3108   50.2765 H   0  0  0  0  0  0  0  0  0  0  0  0
   39.2518   32.5365   48.0654 H   0  0  0  0  0  0  0  0  0  0  0  0
  1  2  2  0
  1 20  1  0
  3  2  1  0
  4  3  2  0
  5  4  1  0
  5  6  2  0
  6  1  1  0
  7  8  1  0
  7  6  1  0
  9  8  2  0
 10 15  2  0
 10  9  1  0
 11 10  1  0
 12 13  1  0
 12 11  2  0
 13 14  2  0
 14 15  1  0
 15  7  1  0
 16 22  1  0
 17 16  2  0
 18 17  1  0
 19 20  1  0
 19 18  2  0
 20 21  2  0
 21 16  1  0
 22 23  1  0
 22 25  1  0
 24 22  1  0
  2 26  1  0
  3 27  1  0
  4 28  1  0
  5 29  1  0
  8 30  1  0
 11 31  1  0
 13 32  1  0
 17 33  1  0
 18 34  1  0
M  ISO  8  26  14  27  14  28  14  29  14  30  14  31  14  32  14  33  14
M  ISO  1  34  14
M  END
>  <minimizedAffinity>  (1) 
-6.2462244

>  <minimizedRMSD>  (1) 
1.20703161

$$$$
