
     RDKit          3D

 26 27  0  0  0  0  0  0  0  0999 V2000
   37.5940   30.6990   49.7420 C   0  0  0  0  0  0  0  0  0  0  0  0
   37.9690   31.9990   50.1190 C   0  0  0  0  0  0  0  0  0  0  0  0
   38.3260   32.8990   49.1150 C   0  0  0  0  0  0  0  0  0  0  0  0
   38.2930   32.4730   47.8370 N   0  0  0  0  0  0  0  0  0  0  0  0
   37.9250   31.2020   47.4980 C   0  0  0  0  0  0  0  0  0  0  0  0
   37.5860   30.3510   48.4630 N   0  0  0  0  0  0  0  0  0  0  0  0
   37.9080   30.8020   46.0950 C   0  0  0  0  0  0  0  0  0  0  0  0
   36.6770   30.4910   45.5070 C   0  0  0  0  0  0  0  0  0  0  0  0
   36.5760   30.1010   44.1760 C   0  0  0  0  0  0  0  0  0  0  0  0
   37.7070   30.0140   43.4040 C   0  0  0  0  0  0  0  0  0  0  0  0
   38.9170   30.3210   43.9920 C   0  0  0  0  0  0  0  0  0  0  0  0
   39.0440   30.7160   45.3290 C   0  0  0  0  0  0  0  0  0  0  0  0
   40.3540   31.0320   45.9060 C   0  0  0  0  0  0  0  0  0  0  0  0
   37.2130   29.7380   50.8250 C   0  0  0  0  0  0  0  0  0  0  0  0
   35.8270   29.5860   50.8340 F   0  0  0  0  0  0  0  0  0  0  0  0
   37.8670   28.5760   50.6150 F   0  0  0  0  0  0  0  0  0  0  0  0
   37.5740   30.3000   52.0470 F   0  0  0  0  0  0  0  0  0  0  0  0
   37.9808   32.2992   51.1772 H   0  0  0  0  0  0  0  0  0  0  0  0
   38.6263   33.9285   49.3598 H   0  0  0  0  0  0  0  0  0  0  0  0
   35.7628   30.5569   46.1151 H   0  0  0  0  0  0  0  0  0  0  0  0
   35.5929   29.8631   43.7436 H   0  0  0  0  0  0  0  0  0  0  0  0
   37.6508   29.7089   42.3487 H   0  0  0  0  0  0  0  0  0  0  0  0
   39.8278   30.2519   43.3792 H   0  0  0  0  0  0  0  0  0  0  0  0
   40.2848   31.0153   47.0037 H   0  0  0  0  0  0  0  0  0  0  0  0
   41.0907   30.2858   45.5736 H   0  0  0  0  0  0  0  0  0  0  0  0
   40.6695   32.0320   45.5736 H   0  0  0  0  0  0  0  0  0  0  0  0
  1  2  2  0
  1 14  1  0
  3  2  1  0
  4  3  2  0
  5  4  1  0
  5  6  2  0
  6  1  1  0
  7  5  1  0
  8  7  2  0
  9  8  1  0
 10 11  1  0
 10  9  2  0
 11 12  2  0
 12 13  1  0
 12  7  1  0
 14 15  1  0
 14 17  1  0
 16 14  1  0
  2 18  1  0
  3 19  1  0
  8 20  1  0
  9 21  1  0
 10 22  1  0
 11 23  1  0
 13 24  1  0
 13 25  1  0
 13 26  1  0
M  ISO  8  18  14  19  14  20  14  21  14  22  14  23  14  24   8  25   8
M  ISO  1  26   8
M  END
>  <minimizedAffinity>  (1) 
-5.78914022

>  <minimizedRMSD>  (1) 
1.55938113

$$$$
