
     RDKit          3D

 36 38  0  0  0  0  0  0  0  0999 V2000
   34.9740   30.1830   46.5380 C   0  0  0  0  0  0  0  0  0  0  0  0
   33.6950   30.0550   47.0480 C   0  0  0  0  0  0  0  0  0  0  0  0
   32.5730   29.8310   46.2860 C   0  0  0  0  0  0  0  0  0  0  0  0
   32.7040   29.7240   44.9180 C   0  0  0  0  0  0  0  0  0  0  0  0
   33.9700   29.8470   44.3790 C   0  0  0  0  0  0  0  0  0  0  0  0
   35.0840   30.0730   45.1780 C   0  0  0  0  0  0  0  0  0  0  0  0
   37.1360   30.1030   49.4790 C   0  0  0  0  0  0  0  0  0  0  0  0
   38.2190   30.8990   49.0850 C   0  0  0  0  0  0  0  0  0  0  0  0
   38.1950   31.4620   47.7970 C   0  0  0  0  0  0  0  0  0  0  0  0
   37.1310   31.2010   47.0180 N   0  0  0  0  0  0  0  0  0  0  0  0
   36.0920   30.4190   47.4360 C   0  0  0  0  0  0  0  0  0  0  0  0
   36.1100   29.8870   48.6470 N   0  0  0  0  0  0  0  0  0  0  0  0
   37.1620   29.5030   50.8490 C   0  0  0  0  0  0  0  0  0  0  0  0
   35.8770   29.2690   51.2790 F   0  0  0  0  0  0  0  0  0  0  0  0
   37.9220   28.3650   50.7870 F   0  0  0  0  0  0  0  0  0  0  0  0
   37.7390   30.4290   51.7040 F   0  0  0  0  0  0  0  0  0  0  0  0
   38.8880   30.7000   43.3950 C   0  0  0  0  0  0  0  0  0  0  0  0
   38.5900   29.4540   43.9250 C   0  0  0  0  0  0  0  0  0  0  0  0
   37.3670   29.2040   44.5140 C   0  0  0  0  0  0  0  0  0  0  0  0
   36.4190   30.2020   44.5820 C   0  0  0  0  0  0  0  0  0  0  0  0
   36.7470   31.4440   44.0410 C   0  0  0  0  0  0  0  0  0  0  0  0
   37.9390   31.7130   43.4590 C   0  0  0  0  0  0  0  0  0  0  0  0
   40.4360   30.9730   42.6640 S   0  0  0  0  0  0  0  0  0  0  0  0
   41.2760   29.7350   42.6320 O   0  0  0  0  0  0  0  0  0  0  0  0
   40.3080   31.4690   41.2460 O   0  0  0  0  0  0  0  0  0  0  0  0
   33.5667   30.1381   48.1373 H   0  0  0  0  0  0  0  0  0  0  0  0
   31.5851   29.7385   46.7610 H   0  0  0  0  0  0  0  0  0  0  0  0
   31.8286   29.5464   44.2761 H   0  0  0  0  0  0  0  0  0  0  0  0
   34.0994   29.7639   43.2898 H   0  0  0  0  0  0  0  0  0  0  0  0
   39.0651   31.0787   49.7646 H   0  0  0  0  0  0  0  0  0  0  0  0
   39.0198   32.0953   47.4384 H   0  0  0  0  0  0  0  0  0  0  0  0
   39.3406   28.6514   43.8753 H   0  0  0  0  0  0  0  0  0  0  0  0
   37.1491   28.2088   44.9289 H   0  0  0  0  0  0  0  0  0  0  0  0
   35.9977   32.2478   44.0896 H   0  0  0  0  0  0  0  0  0  0  0  0
   38.1515   32.7102   43.0463 H   0  0  0  0  0  0  0  0  0  0  0  0
   41.0390   31.9225   43.4461 H   0  0  0  0  0  0  0  0  0  0  0  0
  1  2  2  0
  1 11  1  0
  3  2  1  0
  4  3  2  0
  5  4  1  0
  5  6  2  0
  6  1  1  0
  7 13  1  0
  8  7  2  0
  9  8  1  0
 10 11  1  0
 10  9  2  0
 11 12  2  0
 12  7  1  0
 13 14  1  0
 13 16  1  0
 15 13  1  0
 17 22  2  0
 17 18  1  0
 18 19  2  0
 19 20  1  0
 20  6  1  0
 21 20  2  0
 22 21  1  0
 23 17  1  0
 24 23  2  0
 25 23  2  0
  2 26  1  0
  3 27  1  0
  4 28  1  0
  5 29  1  0
  8 30  1  0
  9 31  1  0
 18 32  1  0
 19 33  1  0
 21 34  1  0
 22 35  1  0
 23 36  1  0
M  ISO  8  26  14  27  14  28  14  29  14  30  14  31  14  32  14  33  14
M  ISO  3  34  14  35  14  36  11
M  END
>  <minimizedAffinity>  (1) 
-5.50213051

>  <minimizedRMSD>  (1) 
2.33363652

$$$$
