
     RDKit          3D

 24 25  0  0  0  0  0  0  0  0999 V2000
   37.4470   30.2900   50.0660 C   0  0  0  0  0  0  0  0  0  0  0  0
   38.2580   31.4080   50.2310 C   0  0  0  0  0  0  0  0  0  0  0  0
   38.4790   32.2290   49.1260 C   0  0  0  0  0  0  0  0  0  0  0  0
   37.9040   31.9100   47.9450 N   0  0  0  0  0  0  0  0  0  0  0  0
   37.1120   30.7960   47.8290 C   0  0  0  0  0  0  0  0  0  0  0  0
   36.9030   30.0180   48.8810 N   0  0  0  0  0  0  0  0  0  0  0  0
   36.5020   30.4780   46.5340 C   0  0  0  0  0  0  0  0  0  0  0  0
   35.1640   30.1340   46.4740 C   0  0  0  0  0  0  0  0  0  0  0  0
   34.5150   29.8200   45.2880 C   0  0  0  0  0  0  0  0  0  0  0  0
   35.2310   29.8500   44.1100 C   0  0  0  0  0  0  0  0  0  0  0  0
   36.5670   30.1920   44.1590 C   0  0  0  0  0  0  0  0  0  0  0  0
   37.2090   30.5050   45.3490 C   0  0  0  0  0  0  0  0  0  0  0  0
   38.5490   30.8550   45.4520 O   0  0  0  0  0  0  0  0  0  0  0  0
   37.2050   29.4010   51.2560 C   0  0  0  0  0  0  0  0  0  0  0  0
   35.8340   29.1810   51.3880 F   0  0  0  0  0  0  0  0  0  0  0  0
   37.9220   28.2600   51.0810 F   0  0  0  0  0  0  0  0  0  0  0  0
   37.6180   30.1060   52.3840 F   0  0  0  0  0  0  0  0  0  0  0  0
   38.7123   31.6380   51.2061 H   0  0  0  0  0  0  0  0  0  0  0  0
   39.1125   33.1239   49.2141 H   0  0  0  0  0  0  0  0  0  0  0  0
   34.5869   30.1080   47.4101 H   0  0  0  0  0  0  0  0  0  0  0  0
   33.4482   29.5519   45.2878 H   0  0  0  0  0  0  0  0  0  0  0  0
   34.7478   29.6067   43.1522 H   0  0  0  0  0  0  0  0  0  0  0  0
   37.1432   30.2174   43.2223 H   0  0  0  0  0  0  0  0  0  0  0  0
   38.9389   31.0658   46.3372 H   0  0  0  0  0  0  0  0  0  0  0  0
  1  2  2  0
  1 14  1  0
  3  2  1  0
  4  3  2  0
  5  4  1  0
  5  6  2  0
  6  1  1  0
  7  5  1  0
  8  7  2  0
  9  8  1  0
 10 11  1  0
 10  9  2  0
 11 12  2  0
 12 13  1  0
 12  7  1  0
 14 15  1  0
 14 17  1  0
 16 14  1  0
  2 18  1  0
  3 19  1  0
  8 20  1  0
  9 21  1  0
 10 22  1  0
 11 23  1  0
 13 24  1  0
M  ISO  7  18  14  19  14  20  14  21  14  22  14  23  14  24   3
M  END
>  <minimizedAffinity>  (1) 
-5.48692751

>  <minimizedRMSD>  (1) 
0.21556735

$$$$
