
     RDKit          3D

 35 36  0  0  1  0  0  0  0  0999 V2000
   36.5640   30.4450   50.2860 C   0  0  2  0  0  0  0  0  0  0  0  0
   37.4550   31.2090   49.3680 C   0  0  0  0  0  0  0  0  0  0  0  0
   37.7340   32.5490   49.6800 C   0  0  0  0  0  0  0  0  0  0  0  0
   38.5540   33.2550   48.7870 C   0  0  0  0  0  0  0  0  0  0  0  0
   39.0260   32.6130   47.6830 N   0  0  0  0  0  0  0  0  0  0  0  0
   38.7370   31.3120   47.4090 C   0  0  0  0  0  0  0  0  0  0  0  0
   37.9480   30.6330   48.2710 N   0  0  0  0  0  0  0  0  0  0  0  0
   37.3990   29.8690   51.4500 C   0  0  0  0  0  0  0  0  0  0  0  0
   35.8320   29.3520   49.6100 C   0  0  0  0  0  0  0  0  0  0  0  0
   34.3790   29.5200   49.3930 C   0  0  0  0  0  0  0  0  0  0  0  0
   33.6360   28.2300   49.1690 C   0  0  0  0  0  0  0  0  0  0  0  0
   33.0480   28.1980   47.7760 C   0  0  0  0  0  0  0  0  0  0  0  0
   34.2340   28.2710   46.8070 C   0  0  0  0  0  0  0  0  0  0  0  0
   34.7330   29.6970   46.9020 C   0  0  0  0  0  0  0  0  0  0  0  0
   34.2340   30.3920   48.1350 C   0  0  0  0  0  0  0  0  0  0  0  0
   35.8072   31.1495   50.6613 H   0  0  0  0  0  0  0  0  0  0  0  0
   37.3276   33.0245   50.5848 H   0  0  0  0  0  0  0  0  0  0  0  0
   38.8109   34.3079   48.9753 H   0  0  0  0  0  0  0  0  0  0  0  0
   39.1360   30.8244   46.5073 H   0  0  0  0  0  0  0  0  0  0  0  0
   36.9537   30.1762   52.4078 H   0  0  0  0  0  0  0  0  0  0  0  0
   37.4091   28.7709   51.3857 H   0  0  0  0  0  0  0  0  0  0  0  0
   38.4291   30.2495   51.3857 H   0  0  0  0  0  0  0  0  0  0  0  0
   36.2958   29.2093   48.6228 H   0  0  0  0  0  0  0  0  0  0  0  0
   35.9098   28.5003   50.3017 H   0  0  0  0  0  0  0  0  0  0  0  0
   33.9429   29.9656   50.2992 H   0  0  0  0  0  0  0  0  0  0  0  0
   34.3306   27.3856   49.2891 H   0  0  0  0  0  0  0  0  0  0  0  0
   32.8205   28.1546   49.9034 H   0  0  0  0  0  0  0  0  0  0  0  0
   32.4862   27.2650   47.6210 H   0  0  0  0  0  0  0  0  0  0  0  0
   32.3498   29.0331   47.6173 H   0  0  0  0  0  0  0  0  0  0  0  0
   33.9092   28.0430   45.7811 H   0  0  0  0  0  0  0  0  0  0  0  0
   35.0182   27.5420   47.0594 H   0  0  0  0  0  0  0  0  0  0  0  0
   35.8328   29.6867   46.9218 H   0  0  0  0  0  0  0  0  0  0  0  0
   34.3531   30.2463   46.0280 H   0  0  0  0  0  0  0  0  0  0  0  0
   34.8106   31.3178   48.2775 H   0  0  0  0  0  0  0  0  0  0  0  0
   33.1640   30.6042   47.9930 H   0  0  0  0  0  0  0  0  0  0  0  0
  1  8  1  0
  2  3  2  0
  2  1  1  0
  4  3  1  0
  5  4  2  0
  6  5  1  0
  6  7  2  0
  7  2  1  0
  9  1  1  0
 10  9  1  0
 11 10  1  0
 12 11  1  0
 13 14  1  0
 13 12  1  0
 14 15  1  0
 15 10  1  0
  1 16  1  1
  3 17  1  0
  4 18  1  0
  6 19  1  0
  8 20  1  0
  8 21  1  0
  8 22  1  0
  9 23  1  0
  9 24  1  0
 10 25  1  0
 11 26  1  0
 11 27  1  0
 12 28  1  0
 12 29  1  0
 13 30  1  0
 13 31  1  0
 14 32  1  0
 14 33  1  0
 15 34  1  0
 15 35  1  0
M  ISO  8  16   8  17  14  18  14  19  14  20   8  21   8  22   8  23   8
M  ISO  8  24   8  25  13  26  13  27  13  28  13  29  13  30  13  31  13
M  ISO  4  32  13  33  13  34  13  35  13
M  END
>  <minimizedAffinity>  (1) 
-5.30002165

>  <minimizedRMSD>  (1) 
1.42106044

$$$$
