
     RDKit          3D

 26 27  0  0  1  0  0  0  0  0999 V2000
   36.5510   30.3070   50.4420 C   0  0  2  0  0  0  0  0  0  0  0  0
   37.3970   31.1050   49.4850 C   0  0  0  0  0  0  0  0  0  0  0  0
   37.6520   32.4420   49.7850 C   0  0  0  0  0  0  0  0  0  0  0  0
   38.4180   33.1620   48.8630 C   0  0  0  0  0  0  0  0  0  0  0  0
   38.8610   32.5290   47.7500 N   0  0  0  0  0  0  0  0  0  0  0  0
   38.5990   31.2260   47.4780 C   0  0  0  0  0  0  0  0  0  0  0  0
   37.8550   30.5020   48.3600 N   0  0  0  0  0  0  0  0  0  0  0  0
   37.3720   30.0290   51.7170 C   0  0  0  0  0  0  0  0  0  0  0  0
   36.0690   29.0340   49.8610 C   0  0  0  0  0  0  0  0  0  0  0  0
   34.6550   29.0410   49.3990 C   0  0  0  0  0  0  0  0  0  0  0  0
   34.2490   27.7630   48.6660 C   0  0  0  0  0  0  0  0  0  0  0  0
   34.3820   29.0000   47.8720 C   0  0  0  0  0  0  0  0  0  0  0  0
   35.6558   30.9018   50.6761 H   0  0  0  0  0  0  0  0  0  0  0  0
   37.2686   32.9090   50.7042 H   0  0  0  0  0  0  0  0  0  0  0  0
   38.6563   34.2216   49.0379 H   0  0  0  0  0  0  0  0  0  0  0  0
   38.9821   30.7605   46.5579 H   0  0  0  0  0  0  0  0  0  0  0  0
   36.7549   30.2380   52.6033 H   0  0  0  0  0  0  0  0  0  0  0  0
   37.6854   28.9746   51.7287 H   0  0  0  0  0  0  0  0  0  0  0  0
   38.2615   30.6760   51.7287 H   0  0  0  0  0  0  0  0  0  0  0  0
   36.7071   28.7910   48.9986 H   0  0  0  0  0  0  0  0  0  0  0  0
   36.1207   28.2913   50.6708 H   0  0  0  0  0  0  0  0  0  0  0  0
   34.2891   29.6646   50.2280 H   0  0  0  0  0  0  0  0  0  0  0  0
   34.9823   26.9531   48.5380 H   0  0  0  0  0  0  0  0  0  0  0  0
   33.4448   27.0251   48.8034 H   0  0  0  0  0  0  0  0  0  0  0  0
   35.2156   29.1094   47.1627 H   0  0  0  0  0  0  0  0  0  0  0  0
   33.7239   29.5556   47.1877 H   0  0  0  0  0  0  0  0  0  0  0  0
  1  8  1  0
  2  3  2  0
  2  1  1  0
  4  3  1  0
  5  4  2  0
  6  5  1  0
  6  7  2  0
  7  2  1  0
  9  1  1  0
 10  9  1  0
 11 10  1  0
 12 11  1  0
 12 10  1  0
  1 13  1  1
  3 14  1  0
  4 15  1  0
  6 16  1  0
  8 17  1  0
  8 18  1  0
  8 19  1  0
  9 20  1  0
  9 21  1  0
 10 22  1  0
 11 23  1  0
 11 24  1  0
 12 25  1  0
 12 26  1  0
M  ISO  8  13   8  14  14  15  14  16  14  17   8  18   8  19   8  20   8
M  ISO  6  21   8  22  13  23  13  24  13  25  13  26  13
M  END
>  <minimizedAffinity>  (1) 
-4.86888647

>  <minimizedRMSD>  (1) 
1.12815332

$$$$
