
     RDKit          3D

 26 27  0  0  1  0  0  0  0  0999 V2000
   36.5890   30.2910   50.1880 C   0  0  2  0  0  0  0  0  0  0  0  0
   37.4480   31.1640   49.3450 C   0  0  0  0  0  0  0  0  0  0  0  0
   37.6490   32.4880   49.7330 C   0  0  0  0  0  0  0  0  0  0  0  0
   38.4550   33.2790   48.9090 C   0  0  0  0  0  0  0  0  0  0  0  0
   38.9980   32.7230   47.7800 N   0  0  0  0  0  0  0  0  0  0  0  0
   38.7800   31.4250   47.4330 C   0  0  0  0  0  0  0  0  0  0  0  0
   37.9980   30.6670   48.2390 N   0  0  0  0  0  0  0  0  0  0  0  0
   37.2610   30.0810   51.5620 C   0  0  0  0  0  0  0  0  0  0  0  0
   36.2680   28.9850   49.5760 C   0  0  0  0  0  0  0  0  0  0  0  0
   35.1120   28.9310   48.7290 N   0  0  0  0  0  0  0  0  0  0  0  0
   34.5900   29.3500   47.5690 C   0  0  0  0  0  0  0  0  0  0  0  0
   33.3140   28.9200   47.3470 C   0  0  0  0  0  0  0  0  0  0  0  0
   33.0160   28.1840   48.4330 N   0  0  0  0  0  0  0  0  0  0  0  0
   34.0820   28.1900   49.2520 C   0  0  0  0  0  0  0  0  0  0  0  0
   35.6275   30.8139   50.2982 H   0  0  0  0  0  0  0  0  0  0  0  0
   37.1928   32.8929   50.6484 H   0  0  0  0  0  0  0  0  0  0  0  0
   38.6504   34.3313   49.1628 H   0  0  0  0  0  0  0  0  0  0  0  0
   39.2274   31.0022   46.5214 H   0  0  0  0  0  0  0  0  0  0  0  0
   36.5396   30.3064   52.3613 H   0  0  0  0  0  0  0  0  0  0  0  0
   37.5932   29.0362   51.6519 H   0  0  0  0  0  0  0  0  0  0  0  0
   38.1290   30.7507   51.6519 H   0  0  0  0  0  0  0  0  0  0  0  0
   37.1358   28.6783   48.9736 H   0  0  0  0  0  0  0  0  0  0  0  0
   36.0343   28.3220   50.4221 H   0  0  0  0  0  0  0  0  0  0  0  0
   35.1406   29.9841   46.8586 H   0  0  0  0  0  0  0  0  0  0  0  0
   32.6739   29.1281   46.4769 H   0  0  0  0  0  0  0  0  0  0  0  0
   34.1235   27.6672   50.2189 H   0  0  0  0  0  0  0  0  0  0  0  0
  1  8  1  0
  2  3  2  0
  2  1  1  0
  4  3  1  0
  5  4  2  0
  6  5  1  0
  6  7  2  0
  7  2  1  0
  9  1  1  0
 10 14  1  0
 10  9  1  0
 11 10  1  0
 12 11  2  0
 12 13  1  0
 13 14  2  0
  1 15  1  1
  3 16  1  0
  4 17  1  0
  6 18  1  0
  8 19  1  0
  8 20  1  0
  8 21  1  0
  9 22  1  0
  9 23  1  0
 11 24  1  0
 12 25  1  0
 14 26  1  0
M  ISO  8  15   8  16  14  17  14  18  14  19   8  20   8  21   8  22   8
M  ISO  4  23   8  24  14  25  14  26  14
M  END
>  <minimizedAffinity>  (1) 
-4.72087765

>  <minimizedRMSD>  (1) 
0.466418386

$$$$
