
     RDKit          3D

 20 20  0  0  1  0  0  0  0  0999 V2000
   36.4880   30.2680   50.2240 C   0  0  2  0  0  0  0  0  0  0  0  0
   37.3710   31.0860   49.3210 C   0  0  0  0  0  0  0  0  0  0  0  0
   37.6600   32.4030   49.7100 C   0  0  0  0  0  0  0  0  0  0  0  0
   38.4640   33.1540   48.8490 C   0  0  0  0  0  0  0  0  0  0  0  0
   38.9130   32.5790   47.7060 N   0  0  0  0  0  0  0  0  0  0  0  0
   38.6180   31.2990   47.3540 C   0  0  0  0  0  0  0  0  0  0  0  0
   37.8380   30.5390   48.1690 N   0  0  0  0  0  0  0  0  0  0  0  0
   37.2320   30.0210   51.5560 C   0  0  0  0  0  0  0  0  0  0  0  0
   36.1100   28.9710   49.6100 C   0  0  0  0  0  0  0  0  0  0  0  0
   34.8410   28.5440   49.9480 O   0  0  0  0  0  0  0  0  0  0  0  0
   35.5577   30.8286   50.3979 H   0  0  0  0  0  0  0  0  0  0  0  0
   37.2716   32.8243   50.6490 H   0  0  0  0  0  0  0  0  0  0  0  0
   38.7281   34.1933   49.0940 H   0  0  0  0  0  0  0  0  0  0  0  0
   39.0083   30.8802   46.4147 H   0  0  0  0  0  0  0  0  0  0  0  0
   36.5602   30.2440   52.3980 H   0  0  0  0  0  0  0  0  0  0  0  0
   37.5497   28.9692   51.6090 H   0  0  0  0  0  0  0  0  0  0  0  0
   38.1156   30.6740   51.6090 H   0  0  0  0  0  0  0  0  0  0  0  0
   36.8316   28.2084   49.9382 H   0  0  0  0  0  0  0  0  0  0  0  0
   36.1194   29.1174   48.5198 H   0  0  0  0  0  0  0  0  0  0  0  0
   34.7543   28.5148   50.9338 H   0  0  0  0  0  0  0  0  0  0  0  0
  1  8  1  0
  2  3  2  0
  2  1  1  0
  4  3  1  0
  5  4  2  0
  6  5  1  0
  6  7  2  0
  7  2  1  0
  9 10  1  0
  9  1  1  0
  1 11  1  1
  3 12  1  0
  4 13  1  0
  6 14  1  0
  8 15  1  0
  8 16  1  0
  8 17  1  0
  9 18  1  0
  9 19  1  0
 10 20  1  0
M  ISO  8  11   8  12  14  13  14  14  14  15   8  16   8  17   8  18   8
M  ISO  2  19   8  20   3
M  END
>  <minimizedAffinity>  (1) 
-4.07630348

>  <minimizedRMSD>  (1) 
0.367815316

$$$$
