
     RDKit          3D

 43 46  0  0  1  0  0  0  0  0999 V2000
   34.1000   29.3910   47.9050 C   0  0  0  0  0  0  0  0  0  0  0  0
   33.9610   30.4230   47.0170 C   0  0  0  0  0  0  0  0  0  0  0  0
   32.9080   30.2500   46.1750 N   0  0  0  0  0  0  0  0  0  0  0  0
   32.3340   29.0780   46.5100 C   0  0  0  0  0  0  0  0  0  0  0  0
   33.0740   28.5810   47.5570 N   0  0  0  0  0  0  0  0  0  0  0  0
   34.9690   29.0220   48.9640 C   0  0  0  0  0  0  0  0  0  0  0  0
   35.4590   30.0350   49.8900 C   0  0  2  0  0  0  0  0  0  0  0  0
   36.6420   30.7950   49.3400 C   0  0  0  0  0  0  0  0  0  0  0  0
   36.9360   32.0280   49.9090 C   0  0  0  0  0  0  0  0  0  0  0  0
   38.0300   32.7140   49.3460 C   0  0  0  0  0  0  0  0  0  0  0  0
   38.7150   32.1690   48.3230 N   0  0  0  0  0  0  0  0  0  0  0  0
   38.3860   30.9410   47.7910 C   0  0  0  0  0  0  0  0  0  0  0  0
   37.3350   30.2480   48.3090 N   0  0  0  0  0  0  0  0  0  0  0  0
   35.9510   29.2920   51.1920 C   0  0  0  0  0  0  0  0  0  0  0  0
   32.6890   27.2810   48.1340 C   0  0  0  0  0  0  0  0  0  0  0  0
   31.2830   27.4090   48.5730 C   0  0  0  0  0  0  0  0  0  0  0  0
   30.8500   28.0730   49.6600 N   0  0  0  0  0  0  0  0  0  0  0  0
   29.5410   28.1380   49.9930 C   0  0  0  0  0  0  0  0  0  0  0  0
   28.5550   27.5510   49.2790 N   0  0  0  0  0  0  0  0  0  0  0  0
   28.9280   26.8710   48.1780 C   0  0  0  0  0  0  0  0  0  0  0  0
   27.9360   26.2650   47.4260 C   0  0  0  0  0  0  0  0  0  0  0  0
   28.2680   25.5620   46.2870 C   0  0  0  0  0  0  0  0  0  0  0  0
   29.5950   25.4730   45.9110 C   0  0  0  0  0  0  0  0  0  0  0  0
   30.5570   26.0950   46.6930 C   0  0  0  0  0  0  0  0  0  0  0  0
   30.2700   26.8120   47.8460 C   0  0  0  0  0  0  0  0  0  0  0  0
   34.6284   31.2969   46.9878 H   0  0  0  0  0  0  0  0  0  0  0  0
   31.4536   28.6137   46.0418 H   0  0  0  0  0  0  0  0  0  0  0  0
   34.4351   28.2724   49.5665 H   0  0  0  0  0  0  0  0  0  0  0  0
   35.8800   28.6946   48.4416 H   0  0  0  0  0  0  0  0  0  0  0  0
   34.6425   30.7478   50.0777 H   0  0  0  0  0  0  0  0  0  0  0  0
   36.3525   32.4416   50.7447 H   0  0  0  0  0  0  0  0  0  0  0  0
   38.3251   33.6966   49.7428 H   0  0  0  0  0  0  0  0  0  0  0  0
   38.9675   30.5245   46.9553 H   0  0  0  0  0  0  0  0  0  0  0  0
   35.5928   29.8329   52.0803 H   0  0  0  0  0  0  0  0  0  0  0  0
   35.5527   28.2667   51.2017 H   0  0  0  0  0  0  0  0  0  0  0  0
   37.0504   29.2584   51.2017 H   0  0  0  0  0  0  0  0  0  0  0  0
   32.7786   26.4887   47.3762 H   0  0  0  0  0  0  0  0  0  0  0  0
   33.3432   27.0136   48.9769 H   0  0  0  0  0  0  0  0  0  0  0  0
   29.2629   28.7006   50.8964 H   0  0  0  0  0  0  0  0  0  0  0  0
   26.8838   26.3442   47.7368 H   0  0  0  0  0  0  0  0  0  0  0  0
   27.4855   25.0775   45.6845 H   0  0  0  0  0  0  0  0  0  0  0  0
   29.8835   24.9179   45.0062 H   0  0  0  0  0  0  0  0  0  0  0  0
   31.6088   26.0153   46.3810 H   0  0  0  0  0  0  0  0  0  0  0  0
  1  6  1  0
  2  1  2  0
  3  4  2  0
  3  2  1  0
  4  5  1  0
  5  1  1  0
  5 15  1  0
  6  7  1  0
  7 14  1  0
  8  7  1  0
  8  9  2  0
 10  9  1  0
 11 10  2  0
 12 13  2  0
 12 11  1  0
 13  8  1  0
 15 16  1  0
 16 17  2  0
 17 18  1  0
 19 18  2  0
 20 19  1  0
 21 20  2  0
 22 21  1  0
 23 22  2  0
 23 24  1  0
 24 25  2  0
 25 20  1  0
 25 16  1  0
  2 26  1  0
  4 27  1  0
  6 28  1  0
  6 29  1  0
  7 30  1  1
  9 31  1  0
 10 32  1  0
 12 33  1  0
 14 34  1  0
 14 35  1  0
 14 36  1  0
 15 37  1  0
 15 38  1  0
 18 39  1  0
 21 40  1  0
 22 41  1  0
 23 42  1  0
 24 43  1  0
M  ISO  8  26  14  27  14  28   8  29   8  30   8  31  14  32  14  33  14
M  ISO  8  34   8  35   8  36   8  37   8  38   8  39  14  40  14  41  14
M  ISO  2  42  14  43  14
M  END
>  <minimizedAffinity>  (1) 
-6.02893639

>  <minimizedRMSD>  (1) 
2.78638363

$$$$
