
     RDKit          3D

 36 38  0  0  0  0  0  0  0  0999 V2000
   33.7890   30.1280   44.2950 C   0  0  0  0  0  0  0  0  0  0  0  0
   34.1600   31.1930   43.4300 C   0  0  0  0  0  0  0  0  0  0  0  0
   33.1280   31.9460   42.8290 C   0  0  0  0  0  0  0  0  0  0  0  0
   31.8330   31.6050   43.1140 N   0  0  0  0  0  0  0  0  0  0  0  0
   31.5250   30.5860   43.9420 C   0  0  0  0  0  0  0  0  0  0  0  0
   32.4860   29.8690   44.5140 N   0  0  0  0  0  0  0  0  0  0  0  0
   30.1520   30.2940   44.1870 N   0  0  0  0  0  0  0  0  0  0  0  0
   29.2230   30.4110   43.2350 C   0  0  0  0  0  0  0  0  0  0  0  0
   27.8900   30.1320   43.4600 C   0  0  0  0  0  0  0  0  0  0  0  0
   27.5960   29.7280   44.7300 C   0  0  0  0  0  0  0  0  0  0  0  0
   26.4000   29.4460   45.0410 O   0  0  0  0  0  0  0  0  0  0  0  0
   28.4770   29.5900   45.7270 N   0  0  0  0  0  0  0  0  0  0  0  0
   29.7720   29.8830   45.4300 C   0  0  0  0  0  0  0  0  0  0  0  0
   30.6250   29.7660   46.3420 O   0  0  0  0  0  0  0  0  0  0  0  0
   27.6370   27.8660   49.4580 C   0  0  0  0  0  0  0  0  0  0  0  0
   27.4910   29.2300   49.3270 C   0  0  0  0  0  0  0  0  0  0  0  0
   27.7420   29.8900   48.1470 C   0  0  0  0  0  0  0  0  0  0  0  0
   28.1540   29.1680   47.0480 C   0  0  0  0  0  0  0  0  0  0  0  0
   28.3080   27.7830   47.1590 C   0  0  0  0  0  0  0  0  0  0  0  0
   28.0500   27.1220   48.3640 C   0  0  0  0  0  0  0  0  0  0  0  0
   27.3100   27.0680   50.9650 S   0  0  0  0  0  0  0  0  0  0  0  0
   28.4740   27.0280   51.8800 O   0  0  0  0  0  0  0  0  0  0  0  0
   26.1680   27.8160   51.6370 O   0  0  0  0  0  0  0  0  0  0  0  0
   26.8240   30.2450   42.4440 C   0  0  0  0  0  0  0  0  0  0  0  0
   34.5631   29.5179   44.7835 H   0  0  0  0  0  0  0  0  0  0  0  0
   35.2178   31.4233   43.2350 H   0  0  0  0  0  0  0  0  0  0  0  0
   33.3576   32.7819   42.1518 H   0  0  0  0  0  0  0  0  0  0  0  0
   29.5319   30.7425   42.2327 H   0  0  0  0  0  0  0  0  0  0  0  0
   27.1611   29.8130   50.1995 H   0  0  0  0  0  0  0  0  0  0  0  0
   27.6155   30.9807   48.0812 H   0  0  0  0  0  0  0  0  0  0  0  0
   28.6376   27.2036   46.2840 H   0  0  0  0  0  0  0  0  0  0  0  0
   28.1726   26.0316   48.4422 H   0  0  0  0  0  0  0  0  0  0  0  0
   26.9940   25.7627   50.6945 H   0  0  0  0  0  0  0  0  0  0  0  0
   25.8499   30.3483   42.9445 H   0  0  0  0  0  0  0  0  0  0  0  0
   27.0088   31.1286   41.8154 H   0  0  0  0  0  0  0  0  0  0  0  0
   26.8194   29.3423   41.8154 H   0  0  0  0  0  0  0  0  0  0  0  0
  1  6  2  0
  2  1  1  0
  3  4  1  0
  3  2  2  0
  4  5  2  0
  5  7  1  0
  5  6  1  0
  7 13  1  0
  8  9  2  0
  8  7  1  0
  9 10  1  0
 10 11  2  0
 10 12  1  0
 12 18  1  0
 13 12  1  0
 13 14  2  0
 15 21  1  0
 16 15  2  0
 17 16  1  0
 18 19  1  0
 18 17  2  0
 19 20  2  0
 20 15  1  0
 21 23  2  0
 21 22  2  0
 24  9  1  0
  1 25  1  0
  2 26  1  0
  3 27  1  0
  8 28  1  0
 16 29  1  0
 17 30  1  0
 19 31  1  0
 20 32  1  0
 21 33  1  0
 24 34  1  0
 24 35  1  0
 24 36  1  0
M  ISO  8  25  14  26  14  27  14  28  14  29  14  30  14  31  14  32  14
M  ISO  4  33  11  34   8  35   8  36   8
M  END
>  <minimizedAffinity>  (1) 
-4.44101429

>  <minimizedRMSD>  (1) 
6.00831795

$$$$
