
     RDKit          3D

 43 46  0  0  1  0  0  0  0  0999 V2000
   34.9670   29.4410   47.8670 C   0  0  0  0  0  0  0  0  0  0  0  0
   34.9540   30.0690   46.6580 C   0  0  0  0  0  0  0  0  0  0  0  0
   33.7300   30.0070   46.0560 N   0  0  0  0  0  0  0  0  0  0  0  0
   32.9180   29.3230   46.8880 C   0  0  0  0  0  0  0  0  0  0  0  0
   33.6940   28.9940   47.9710 N   0  0  0  0  0  0  0  0  0  0  0  0
   35.8900   29.1740   48.9120 C   0  0  0  0  0  0  0  0  0  0  0  0
   36.2530   30.2230   49.8530 C   0  0  2  0  0  0  0  0  0  0  0  0
   37.2380   31.2060   49.2810 C   0  0  0  0  0  0  0  0  0  0  0  0
   37.2640   32.4870   49.8080 C   0  0  0  0  0  0  0  0  0  0  0  0
   38.1860   33.3780   49.2220 C   0  0  0  0  0  0  0  0  0  0  0  0
   38.9760   32.9520   48.2050 N   0  0  0  0  0  0  0  0  0  0  0  0
   38.9240   31.6760   47.7080 C   0  0  0  0  0  0  0  0  0  0  0  0
   38.0430   30.8060   48.2620 N   0  0  0  0  0  0  0  0  0  0  0  0
   36.9550   29.5300   51.0820 C   0  0  0  0  0  0  0  0  0  0  0  0
   33.0660   28.2080   49.0490 C   0  0  0  0  0  0  0  0  0  0  0  0
   32.0750   27.3680   48.4090 N   0  0  0  0  0  0  0  0  0  0  0  0
   30.7410   27.3340   48.2770 C   0  0  0  0  0  0  0  0  0  0  0  0
   30.3100   26.3100   47.5530 N   0  0  0  0  0  0  0  0  0  0  0  0
   31.3940   25.6180   47.1790 C   0  0  0  0  0  0  0  0  0  0  0  0
   31.4600   24.4770   46.4170 C   0  0  0  0  0  0  0  0  0  0  0  0
   30.4110   23.9380   45.9690 O   0  0  0  0  0  0  0  0  0  0  0  0
   32.6860   23.9700   46.1760 N   0  0  0  0  0  0  0  0  0  0  0  0
   33.7560   24.5940   46.6830 C   0  0  0  0  0  0  0  0  0  0  0  0
   35.0190   24.0060   46.3920 N   0  0  0  0  0  0  0  0  0  0  0  0
   33.6650   25.7100   47.4260 N   0  0  0  0  0  0  0  0  0  0  0  0
   32.4980   26.2810   47.7140 C   0  0  0  0  0  0  0  0  0  0  0  0
   35.8293   30.5687   46.2173 H   0  0  0  0  0  0  0  0  0  0  0  0
   31.8567   29.0799   46.7313 H   0  0  0  0  0  0  0  0  0  0  0  0
   35.4675   28.3492   49.5046 H   0  0  0  0  0  0  0  0  0  0  0  0
   36.8302   28.9834   48.3738 H   0  0  0  0  0  0  0  0  0  0  0  0
   35.3363   30.7696   50.1191 H   0  0  0  0  0  0  0  0  0  0  0  0
   36.6046   32.7907   50.6344 H   0  0  0  0  0  0  0  0  0  0  0  0
   38.2643   34.4126   49.5873 H   0  0  0  0  0  0  0  0  0  0  0  0
   39.5797   31.3653   46.8812 H   0  0  0  0  0  0  0  0  0  0  0  0
   36.5428   29.9370   52.0171 H   0  0  0  0  0  0  0  0  0  0  0  0
   36.7752   28.4455   51.0434 H   0  0  0  0  0  0  0  0  0  0  0  0
   38.0371   29.7238   51.0434 H   0  0  0  0  0  0  0  0  0  0  0  0
   33.8192   27.5892   49.5587 H   0  0  0  0  0  0  0  0  0  0  0  0
   32.6099   28.8602   49.8083 H   0  0  0  0  0  0  0  0  0  0  0  0
   30.0703   28.0819   48.7251 H   0  0  0  0  0  0  0  0  0  0  0  0
   32.7973   23.1162   45.6108 H   0  0  0  0  0  0  0  0  0  0  0  0
   35.8827   24.4364   46.7521 H   0  0  0  0  0  0  0  0  0  0  0  0
   35.0693   23.1500   45.8213 H   0  0  0  0  0  0  0  0  0  0  0  0
  1  5  1  0
  1  6  1  0
  2  1  2  0
  3  2  1  0
  3  4  2  0
  4  5  1  0
  5 15  1  0
  6  7  1  0
  7 14  1  0
  8  9  2  0
  8  7  1  0
 10  9  1  0
 11 10  2  0
 12 11  1  0
 12 13  2  0
 13  8  1  0
 16 15  1  0
 17 16  1  0
 18 17  2  0
 19 18  1  0
 19 26  2  0
 20 19  1  0
 21 20  2  0
 22 20  1  0
 22 23  1  0
 23 25  2  0
 24 23  1  0
 25 26  1  0
 26 16  1  0
  2 27  1  0
  4 28  1  0
  6 29  1  0
  6 30  1  0
  7 31  1  1
  9 32  1  0
 10 33  1  0
 12 34  1  0
 14 35  1  0
 14 36  1  0
 14 37  1  0
 15 38  1  0
 15 39  1  0
 17 40  1  0
 22 41  1  0
 24 42  1  0
 24 43  1  0
M  ISO  8  27  14  28  14  29   8  30   8  31   8  32  14  33  14  34  14
M  ISO  7  35   8  36   8  37   8  38   8  39   8  40  14  41   9
M  END
>  <minimizedAffinity>  (1) 
-5.6370697

>  <minimizedRMSD>  (1) 
2.6391685

$$$$
