
     RDKit          3D

 36 37  0  0  1  0  0  0  0  0999 V2000
   35.8300   29.2160   48.9010 C   0  0  0  0  0  0  0  0  0  0  0  0
   34.9160   29.3890   47.8250 C   0  0  0  0  0  0  0  0  0  0  0  0
   34.9270   29.9330   46.5720 C   0  0  0  0  0  0  0  0  0  0  0  0
   33.7160   29.8030   45.9530 N   0  0  0  0  0  0  0  0  0  0  0  0
   32.9150   29.1720   46.8040 C   0  0  0  0  0  0  0  0  0  0  0  0
   33.6410   28.9250   47.9290 N   0  0  0  0  0  0  0  0  0  0  0  0
   33.0160   28.2240   49.0700 C   0  0  0  0  0  0  0  0  0  0  0  0
   31.8710   27.4490   48.6370 N   0  0  0  0  0  0  0  0  0  0  0  0
   30.5390   27.8270   48.9380 C   0  0  0  0  0  0  0  0  0  0  0  0
   30.3420   28.3220   50.1320 N   0  0  0  0  0  0  0  0  0  0  0  0
   29.5210   27.6430   47.9350 N   0  0  0  0  0  0  0  0  0  0  0  0
   29.3790   28.6170   50.4100 H   0  0  0  0  0  0  0  0  0  0  0  0
   36.1190   30.3230   49.7980 C   0  0  2  0  0  0  0  0  0  0  0  0
   37.1640   31.2620   49.2410 C   0  0  0  0  0  0  0  0  0  0  0  0
   37.2380   32.5360   49.7940 C   0  0  0  0  0  0  0  0  0  0  0  0
   38.2150   33.3820   49.2200 C   0  0  0  0  0  0  0  0  0  0  0  0
   38.9930   32.9300   48.2080 N   0  0  0  0  0  0  0  0  0  0  0  0
   38.8840   31.6540   47.6910 C   0  0  0  0  0  0  0  0  0  0  0  0
   37.9520   30.8240   48.2260 N   0  0  0  0  0  0  0  0  0  0  0  0
   36.7090   29.7110   51.1270 C   0  0  0  0  0  0  0  0  0  0  0  0
   36.7885   28.9097   48.4566 H   0  0  0  0  0  0  0  0  0  0  0  0
   35.3180   28.4920   49.5519 H   0  0  0  0  0  0  0  0  0  0  0  0
   35.8039   30.4167   46.1169 H   0  0  0  0  0  0  0  0  0  0  0  0
   31.8631   28.9001   46.6322 H   0  0  0  0  0  0  0  0  0  0  0  0
   33.7552   27.5496   49.5269 H   0  0  0  0  0  0  0  0  0  0  0  0
   32.6768   28.9739   49.7998 H   0  0  0  0  0  0  0  0  0  0  0  0
   32.0313   26.5912   48.0899 H   0  0  0  0  0  0  0  0  0  0  0  0
   28.5469   27.9116   48.1346 H   0  0  0  0  0  0  0  0  0  0  0  0
   29.7674   27.2429   47.0184 H   0  0  0  0  0  0  0  0  0  0  0  0
   35.1888   30.8897   49.9516 H   0  0  0  0  0  0  0  0  0  0  0  0
   36.5848   32.8615   50.6170 H   0  0  0  0  0  0  0  0  0  0  0  0
   38.3431   34.4079   49.5958 H   0  0  0  0  0  0  0  0  0  0  0  0
   39.5339   31.3195   46.8690 H   0  0  0  0  0  0  0  0  0  0  0  0
   36.2398   30.1977   51.9947 H   0  0  0  0  0  0  0  0  0  0  0  0
   36.5027   28.6309   51.1565 H   0  0  0  0  0  0  0  0  0  0  0  0
   37.7959   29.8776   51.1565 H   0  0  0  0  0  0  0  0  0  0  0  0
  1 13  1  0
  2  6  1  0
  2  1  1  0
  3  2  2  0
  4  3  1  0
  4  5  2  0
  5  6  1  0
  6  7  1  0
  8  9  1  0
  8  7  1  0
  9 10  2  0
 10 12  1  0
 11  9  1  0
 13 20  1  0
 14 15  2  0
 14 13  1  0
 16 15  1  0
 17 16  2  0
 18 17  1  0
 18 19  2  0
 19 14  1  0
  1 21  1  0
  1 22  1  0
  3 23  1  0
  5 24  1  0
  7 25  1  0
  7 26  1  0
  8 27  1  0
 11 28  1  0
 11 29  1  0
 13 30  1  1
 15 31  1  0
 16 32  1  0
 18 33  1  0
 20 34  1  0
 20 35  1  0
 20 36  1  0
M  ISO  8  21   8  22   8  23  14  24  14  25   8  26   8  30   8  31  14
M  ISO  5  32  14  33  14  34   8  35   8  36   8
M  END
>  <minimizedAffinity>  (1) 
-5.42618132

>  <minimizedRMSD>  (1) 
1.36322784

$$$$
