
     RDKit          3D

 36 38  0  0  1  0  0  0  0  0999 V2000
   35.7570   29.2500   48.8240 C   0  0  0  0  0  0  0  0  0  0  0  0
   34.8830   29.5200   47.7380 C   0  0  0  0  0  0  0  0  0  0  0  0
   34.9060   30.2150   46.5640 C   0  0  0  0  0  0  0  0  0  0  0  0
   33.7270   30.1150   45.8800 N   0  0  0  0  0  0  0  0  0  0  0  0
   32.9210   29.3500   46.6080 C   0  0  0  0  0  0  0  0  0  0  0  0
   33.6260   28.9950   47.7270 N   0  0  0  0  0  0  0  0  0  0  0  0
   32.9870   28.1230   48.7380 C   0  0  0  0  0  0  0  0  0  0  0  0
   32.7680   26.7820   48.1470 C   0  0  0  0  0  0  0  0  0  0  0  0
   31.6850   25.9580   47.9320 C   0  0  0  0  0  0  0  0  0  0  0  0
   32.0690   24.7790   47.3260 C   0  0  0  0  0  0  0  0  0  0  0  0
   33.4320   24.9420   47.1930 C   0  0  0  0  0  0  0  0  0  0  0  0
   33.8110   26.1020   47.6720 O   0  0  0  0  0  0  0  0  0  0  0  0
   36.0960   30.3050   49.7660 C   0  0  2  0  0  0  0  0  0  0  0  0
   37.1490   31.2500   49.2320 C   0  0  0  0  0  0  0  0  0  0  0  0
   37.2150   32.5200   49.7830 C   0  0  0  0  0  0  0  0  0  0  0  0
   38.1910   33.3680   49.2370 C   0  0  0  0  0  0  0  0  0  0  0  0
   38.9910   32.9240   48.2360 N   0  0  0  0  0  0  0  0  0  0  0  0
   38.8940   31.6610   47.7200 C   0  0  0  0  0  0  0  0  0  0  0  0
   37.9560   30.8150   48.2300 N   0  0  0  0  0  0  0  0  0  0  0  0
   36.7140   29.6160   51.0440 C   0  0  0  0  0  0  0  0  0  0  0  0
   36.7036   28.8967   48.3891 H   0  0  0  0  0  0  0  0  0  0  0  0
   35.1847   28.5385   49.4374 H   0  0  0  0  0  0  0  0  0  0  0  0
   35.7740   30.7899   46.2088 H   0  0  0  0  0  0  0  0  0  0  0  0
   31.8895   29.0588   46.3605 H   0  0  0  0  0  0  0  0  0  0  0  0
   33.6420   28.0362   49.6175 H   0  0  0  0  0  0  0  0  0  0  0  0
   32.0240   28.5553   49.0472 H   0  0  0  0  0  0  0  0  0  0  0  0
   30.6496   26.2072   48.2073 H   0  0  0  0  0  0  0  0  0  0  0  0
   31.4451   23.9245   47.0249 H   0  0  0  0  0  0  0  0  0  0  0  0
   34.1092   24.1995   46.7457 H   0  0  0  0  0  0  0  0  0  0  0  0
   35.1808   30.8800   49.9704 H   0  0  0  0  0  0  0  0  0  0  0  0
   36.5464   32.8422   50.5949 H   0  0  0  0  0  0  0  0  0  0  0  0
   38.3070   34.3923   49.6208 H   0  0  0  0  0  0  0  0  0  0  0  0
   39.5609   31.3345   46.9084 H   0  0  0  0  0  0  0  0  0  0  0  0
   36.2968   30.0812   51.9493 H   0  0  0  0  0  0  0  0  0  0  0  0
   36.4694   28.5436   51.0368 H   0  0  0  0  0  0  0  0  0  0  0  0
   37.8066   29.7430   51.0368 H   0  0  0  0  0  0  0  0  0  0  0  0
  1 13  1  0
  2  1  1  0
  3  2  2  0
  4  3  1  0
  4  5  2  0
  5  6  1  0
  6  2  1  0
  6  7  1  0
  8  7  1  0
  9  8  2  0
 10  9  1  0
 11 10  2  0
 11 12  1  0
 12  8  1  0
 13 20  1  0
 14 13  1  0
 14 15  2  0
 16 15  1  0
 17 16  2  0
 18 19  2  0
 18 17  1  0
 19 14  1  0
  1 21  1  0
  1 22  1  0
  3 23  1  0
  5 24  1  0
  7 25  1  0
  7 26  1  0
  9 27  1  0
 10 28  1  0
 11 29  1  0
 13 30  1  1
 15 31  1  0
 16 32  1  0
 18 33  1  0
 20 34  1  0
 20 35  1  0
 20 36  1  0
M  ISO  8  21   8  22   8  23  14  24  14  25   8  26   8  27  14  28  14
M  ISO  8  29  14  30   8  31  14  32  14  33  14  34   8  35   8  36   8
M  END
>  <minimizedAffinity>  (1) 
-4.9726181

>  <minimizedRMSD>  (1) 
0.69911325

$$$$
