
     RDKit          3D

 33 35  0  0  0  0  0  0  0  0999 V2000
   36.9340   31.1520   48.0510 C   0  0  0  0  0  0  0  0  0  0  0  0
   36.8070   31.6440   49.3390 C   0  0  0  0  0  0  0  0  0  0  0  0
   37.6970   32.5920   49.8540 C   0  0  0  0  0  0  0  0  0  0  0  0
   38.7270   33.0510   49.0610 C   0  0  0  0  0  0  0  0  0  0  0  0
   38.8520   32.5570   47.7710 C   0  0  0  0  0  0  0  0  0  0  0  0
   39.8580   32.9610   46.9050 C   0  0  0  0  0  0  0  0  0  0  0  0
   39.9190   32.4220   45.6270 C   0  0  0  0  0  0  0  0  0  0  0  0
   39.0120   31.4840   45.1650 C   0  0  0  0  0  0  0  0  0  0  0  0
   38.0160   31.0850   46.0280 C   0  0  0  0  0  0  0  0  0  0  0  0
   37.9690   31.6260   47.2820 C   0  0  0  0  0  0  0  0  0  0  0  0
   35.1590   30.0280   46.5910 C   0  0  0  0  0  0  0  0  0  0  0  0
   35.9080   30.1870   47.7510 C   0  0  0  0  0  0  0  0  0  0  0  0
   35.6100   29.2660   48.7980 C   0  0  0  0  0  0  0  0  0  0  0  0
   34.6470   28.3220   48.6050 N   0  0  0  0  0  0  0  0  0  0  0  0
   33.9630   28.2240   47.4670 C   0  0  0  0  0  0  0  0  0  0  0  0
   34.2250   29.0760   46.4690 N   0  0  0  0  0  0  0  0  0  0  0  0
   32.9480   27.2510   47.2270 N   0  0  0  0  0  0  0  0  0  0  0  0
   31.7970   27.2280   48.0650 C   0  0  0  0  0  0  0  0  0  0  0  0
   31.2590   28.3240   48.4790 N   0  0  0  0  0  0  0  0  0  0  0  0
   31.2040   25.9970   48.4700 N   0  0  0  0  0  0  0  0  0  0  0  0
   31.5660   29.2800   48.2740 H   0  0  0  0  0  0  0  0  0  0  0  0
   35.9853   31.2800   49.9733 H   0  0  0  0  0  0  0  0  0  0  0  0
   37.5764   32.9674   50.8809 H   0  0  0  0  0  0  0  0  0  0  0  0
   39.4383   33.7970   49.4451 H   0  0  0  0  0  0  0  0  0  0  0  0
   40.6023   33.7034   47.2289 H   0  0  0  0  0  0  0  0  0  0  0  0
   40.7222   32.7545   44.9530 H   0  0  0  0  0  0  0  0  0  0  0  0
   39.0841   31.0730   44.1472 H   0  0  0  0  0  0  0  0  0  0  0  0
   37.2691   30.3416   45.7126 H   0  0  0  0  0  0  0  0  0  0  0  0
   35.3395   30.7070   45.7446 H   0  0  0  0  0  0  0  0  0  0  0  0
   36.1530   29.3173   49.7533 H   0  0  0  0  0  0  0  0  0  0  0  0
   33.0464   26.5736   46.4573 H   0  0  0  0  0  0  0  0  0  0  0  0
   30.3715   26.0013   49.0765 H   0  0  0  0  0  0  0  0  0  0  0  0
   31.6079   25.1030   48.1562 H   0  0  0  0  0  0  0  0  0  0  0  0
  1  2  2  0
  2  3  1  0
  4  3  2  0
  5  4  1  0
  6  5  2  0
  7  6  1  0
  8  7  2  0
  8  9  1  0
  9 10  2  0
 10  5  1  0
 10  1  1  0
 11 12  2  0
 12  1  1  0
 12 13  1  0
 14 13  2  0
 15 14  1  0
 16 11  1  0
 16 15  2  0
 17 15  1  0
 17 18  1  0
 18 20  1  0
 18 19  2  0
 21 19  1  0
  2 22  1  0
  3 23  1  0
  4 24  1  0
  6 25  1  0
  7 26  1  0
  8 27  1  0
  9 28  1  0
 11 29  1  0
 13 30  1  0
 17 31  1  0
 20 32  1  0
 20 33  1  0
M  ISO  8  22  14  23  14  24  14  25  14  26  14  27  14  28  14  29  14
M  ISO  1  30  14
M  END
>  <minimizedAffinity>  (1) 
-6.59284735

>  <minimizedRMSD>  (1) 
3.48619223

$$$$
