
     RDKit          3D

 28 30  0  0  0  0  0  0  0  0999 V2000
   38.2030   31.8010   47.7820 C   0  0  0  0  0  0  0  0  0  0  0  0
   38.3040   32.7790   48.7370 C   0  0  0  0  0  0  0  0  0  0  0  0
   39.2350   33.8060   48.6440 C   0  0  0  0  0  0  0  0  0  0  0  0
   40.0910   33.8380   47.5420 C   0  0  0  0  0  0  0  0  0  0  0  0
   39.9860   32.8460   46.5770 C   0  0  0  0  0  0  0  0  0  0  0  0
   40.7940   32.8030   45.4560 C   0  0  0  0  0  0  0  0  0  0  0  0
   40.6290   31.7740   44.5300 C   0  0  0  0  0  0  0  0  0  0  0  0
   39.6830   30.7850   44.6870 C   0  0  0  0  0  0  0  0  0  0  0  0
   38.8800   30.8300   45.8040 C   0  0  0  0  0  0  0  0  0  0  0  0
   39.0560   31.8460   46.7010 C   0  0  0  0  0  0  0  0  0  0  0  0
   35.9450   30.6170   47.4720 C   0  0  0  0  0  0  0  0  0  0  0  0
   37.1630   30.8420   48.1070 C   0  0  0  0  0  0  0  0  0  0  0  0
   37.4280   30.0170   49.2410 C   0  0  0  0  0  0  0  0  0  0  0  0
   36.5000   29.0880   49.6190 N   0  0  0  0  0  0  0  0  0  0  0  0
   35.3380   28.9370   48.9410 C   0  0  0  0  0  0  0  0  0  0  0  0
   35.0610   29.7040   47.8650 N   0  0  0  0  0  0  0  0  0  0  0  0
   34.3700   27.9340   49.3730 C   0  0  0  0  0  0  0  0  0  0  0  0
   33.1400   28.0020   49.1250 O   0  0  0  0  0  0  0  0  0  0  0  0
   37.6272   32.7498   49.6036 H   0  0  0  0  0  0  0  0  0  0  0  0
   39.2964   34.5792   49.4240 H   0  0  0  0  0  0  0  0  0  0  0  0
   40.8386   34.6384   47.4397 H   0  0  0  0  0  0  0  0  0  0  0  0
   41.5612   33.5748   45.2959 H   0  0  0  0  0  0  0  0  0  0  0  0
   41.2776   31.7510   43.6419 H   0  0  0  0  0  0  0  0  0  0  0  0
   39.5726   29.9833   43.9420 H   0  0  0  0  0  0  0  0  0  0  0  0
   38.1105   30.0621   45.9717 H   0  0  0  0  0  0  0  0  0  0  0  0
   35.6988   31.2307   46.5929 H   0  0  0  0  0  0  0  0  0  0  0  0
   38.3669   30.1275   49.8033 H   0  0  0  0  0  0  0  0  0  0  0  0
   34.7373   27.0708   49.9474 H   0  0  0  0  0  0  0  0  0  0  0  0
  1 12  1  0
  1  2  2  0
  3  2  1  0
  4  3  2  0
  5 10  2  0
  5  4  1  0
  6  5  1  0
  7  8  1  0
  7  6  2  0
  8  9  2  0
  9 10  1  0
 10  1  1  0
 11 16  2  0
 11 12  1  0
 12 13  2  0
 13 14  1  0
 15 17  1  0
 15 14  2  0
 16 15  1  0
 18 17  2  0
  2 19  1  0
  3 20  1  0
  4 21  1  0
  6 22  1  0
  7 23  1  0
  8 24  1  0
  9 25  1  0
 11 26  1  0
 13 27  1  0
 17 28  1  0
M  ISO  8  19  14  20  14  21  14  22  14  23  14  24  14  25  14  26  14
M  ISO  2  27  14  28   6
M  END
>  <minimizedAffinity>  (1) 
-6.1915555

>  <minimizedRMSD>  (1) 
1.39190328

$$$$
