
     RDKit          3D

 46 51  0  0  1  0  0  0  0  0999 V2000
   35.5580   30.7330   47.6150 C   0  0  0  0  0  0  0  0  0  0  0  0
   36.8030   30.8250   48.2140 C   0  0  0  0  0  0  0  0  0  0  0  0
   37.0970   29.7630   49.1280 C   0  0  0  0  0  0  0  0  0  0  0  0
   36.1860   28.7790   49.3450 N   0  0  0  0  0  0  0  0  0  0  0  0
   34.9950   28.7680   48.7190 C   0  0  0  0  0  0  0  0  0  0  0  0
   34.6930   29.7400   47.8650 N   0  0  0  0  0  0  0  0  0  0  0  0
   37.8470   31.8110   48.0690 C   0  0  0  0  0  0  0  0  0  0  0  0
   37.9230   32.6390   49.1570 C   0  0  0  0  0  0  0  0  0  0  0  0
   38.8650   33.6660   49.2270 C   0  0  0  0  0  0  0  0  0  0  0  0
   39.7440   33.8540   48.1720 C   0  0  0  0  0  0  0  0  0  0  0  0
   39.6560   33.0050   47.0710 C   0  0  0  0  0  0  0  0  0  0  0  0
   40.4960   33.1250   45.9750 C   0  0  0  0  0  0  0  0  0  0  0  0
   40.3570   32.2520   44.9190 C   0  0  0  0  0  0  0  0  0  0  0  0
   39.4110   31.2530   44.8980 C   0  0  0  0  0  0  0  0  0  0  0  0
   38.5730   31.1410   46.0000 C   0  0  0  0  0  0  0  0  0  0  0  0
   38.7260   32.0130   47.0350 C   0  0  0  0  0  0  0  0  0  0  0  0
   34.0500   27.6610   49.0080 C   0  0  1  0  0  0  0  0  0  0  0  0
   32.5880   27.9370   48.9930 C   0  0  0  0  0  0  0  0  0  0  0  0
   33.2160   27.0940   47.9010 C   0  0  1  0  0  0  0  0  0  0  0  0
   33.1450   27.6970   46.6070 N   0  0  0  0  0  0  0  0  0  0  0  0
   33.9570   27.7930   45.5370 C   0  0  0  0  0  0  0  0  0  0  0  0
   33.3740   28.5000   44.5450 N   0  0  0  0  0  0  0  0  0  0  0  0
   32.1460   28.8660   44.9990 C   0  0  0  0  0  0  0  0  0  0  0  0
   31.2020   29.6070   44.3070 C   0  0  0  0  0  0  0  0  0  0  0  0
   30.0570   29.8430   44.9710 N   0  0  0  0  0  0  0  0  0  0  0  0
   29.8790   29.3730   46.2230 C   0  0  0  0  0  0  0  0  0  0  0  0
   30.8230   28.6580   46.8590 N   0  0  0  0  0  0  0  0  0  0  0  0
   32.0080   28.3700   46.2720 C   0  0  0  0  0  0  0  0  0  0  0  0
   31.4110   30.0890   42.9950 N   0  0  0  0  0  0  0  0  0  0  0  0
   35.2641   31.5138   46.8981 H   0  0  0  0  0  0  0  0  0  0  0  0
   38.0621   29.7438   49.6554 H   0  0  0  0  0  0  0  0  0  0  0  0
   37.2257   32.4912   49.9948 H   0  0  0  0  0  0  0  0  0  0  0  0
   38.9095   34.3198   50.1105 H   0  0  0  0  0  0  0  0  0  0  0  0
   40.4954   34.6568   48.2034 H   0  0  0  0  0  0  0  0  0  0  0  0
   41.2662   33.9099   45.9489 H   0  0  0  0  0  0  0  0  0  0  0  0
   41.0307   32.3578   44.0559 H   0  0  0  0  0  0  0  0  0  0  0  0
   39.3218   30.5691   44.0411 H   0  0  0  0  0  0  0  0  0  0  0  0
   37.7984   30.3608   46.0362 H   0  0  0  0  0  0  0  0  0  0  0  0
   34.7501   27.2322   49.7402 H   0  0  0  0  0  0  0  0  0  0  0  0
   31.9316   27.4687   49.7412 H   0  0  0  0  0  0  0  0  0  0  0  0
   31.9662   28.8441   49.0164 H   0  0  0  0  0  0  0  0  0  0  0  0
   33.1464   26.0778   47.4857 H   0  0  0  0  0  0  0  0  0  0  0  0
   34.9635   27.3531   45.4786 H   0  0  0  0  0  0  0  0  0  0  0  0
   28.9308   29.5816   46.7400 H   0  0  0  0  0  0  0  0  0  0  0  0
   32.2982   29.8933   42.5097 H   0  0  0  0  0  0  0  0  0  0  0  0
   30.6762   30.6360   42.5241 H   0  0  0  0  0  0  0  0  0  0  0  0
  1  6  2  0
  1  2  1  0
  2  3  2  0
  3  4  1  0
  5 17  1  0
  5  4  2  0
  6  5  1  0
  7  2  1  0
  7  8  2  0
  8  9  1  0
 10  9  2  0
 11 10  1  0
 12 11  2  0
 13 12  1  0
 14 13  2  0
 14 15  1  0
 15 16  2  0
 16 11  1  0
 16  7  1  0
 18 17  1  0
 19 18  1  0
 19 17  1  0
 20 19  1  0
 21 20  1  0
 22 23  1  0
 22 21  2  0
 23 28  2  0
 24 25  2  0
 24 23  1  0
 25 26  1  0
 26 27  2  0
 28 20  1  0
 28 27  1  0
 29 24  1  0
  1 30  1  0
  3 31  1  0
  8 32  1  0
  9 33  1  0
 10 34  1  0
 12 35  1  0
 13 36  1  0
 14 37  1  0
 15 38  1  0
 17 39  1  1
 18 40  1  0
 18 41  1  0
 19 42  1  6
 21 43  1  0
 26 44  1  0
 29 45  1  0
 29 46  1  0
M  ISO  8  30  14  31  14  32  14  33  14  34  14  35  14  36  14  37  14
M  ISO  7  38  14  39  13  40  13  41  13  42  13  43  14  44  14
M  END
>  <minimizedAffinity>  (1) 
-6.91744757

>  <minimizedRMSD>  (1) 
1.5190357

$$$$
