
     RDKit          3D

 46 50  0  0  1  0  0  0  0  0999 V2000
   35.8010   30.6760   47.4750 C   0  0  0  0  0  0  0  0  0  0  0  0
   37.0170   30.8450   48.1210 C   0  0  0  0  0  0  0  0  0  0  0  0
   37.2750   29.9090   49.1730 C   0  0  0  0  0  0  0  0  0  0  0  0
   36.3520   28.9510   49.4640 N   0  0  0  0  0  0  0  0  0  0  0  0
   35.2090   28.8520   48.8020 C   0  0  0  0  0  0  0  0  0  0  0  0
   34.9300   29.7120   47.8070 N   0  0  0  0  0  0  0  0  0  0  0  0
   38.0600   31.8270   47.8920 C   0  0  0  0  0  0  0  0  0  0  0  0
   38.1290   32.7250   48.9260 C   0  0  0  0  0  0  0  0  0  0  0  0
   39.0680   33.7640   48.9150 C   0  0  0  0  0  0  0  0  0  0  0  0
   39.9340   33.8840   47.8480 C   0  0  0  0  0  0  0  0  0  0  0  0
   39.8460   32.9680   46.8210 C   0  0  0  0  0  0  0  0  0  0  0  0
   40.6810   33.0020   45.6910 C   0  0  0  0  0  0  0  0  0  0  0  0
   40.5390   32.0580   44.7000 C   0  0  0  0  0  0  0  0  0  0  0  0
   39.5980   31.0600   44.7680 C   0  0  0  0  0  0  0  0  0  0  0  0
   38.7710   31.0180   45.8750 C   0  0  0  0  0  0  0  0  0  0  0  0
   38.9260   31.9640   46.8480 C   0  0  0  0  0  0  0  0  0  0  0  0
   34.2260   27.7860   49.1640 C   0  0  1  0  0  0  0  0  0  0  0  0
   32.7790   28.0090   48.9050 C   0  0  0  0  0  0  0  0  0  0  0  0
   33.5700   26.9710   48.1170 C   0  0  1  0  0  0  0  0  0  0  0  0
   33.7620   27.1730   46.6640 C   0  0  0  0  0  0  0  0  0  0  0  0
   32.4190   27.4550   46.0260 C   0  0  0  0  0  0  0  0  0  0  0  0
   31.8410   26.0720   45.8880 C   0  0  0  0  0  0  0  0  0  0  0  0
   32.9920   25.2680   45.3690 C   0  0  0  0  0  0  0  0  0  0  0  0
   34.1980   25.8420   46.0590 C   0  0  0  0  0  0  0  0  0  0  0  0
   35.5402   31.3620   46.6556 H   0  0  0  0  0  0  0  0  0  0  0  0
   38.2140   29.9634   49.7434 H   0  0  0  0  0  0  0  0  0  0  0  0
   37.4373   32.6280   49.7758 H   0  0  0  0  0  0  0  0  0  0  0  0
   39.1146   34.4784   49.7502 H   0  0  0  0  0  0  0  0  0  0  0  0
   40.6787   34.6930   47.8171 H   0  0  0  0  0  0  0  0  0  0  0  0
   41.4489   33.7842   45.5987 H   0  0  0  0  0  0  0  0  0  0  0  0
   41.2018   32.1043   43.8234 H   0  0  0  0  0  0  0  0  0  0  0  0
   39.5049   30.3149   43.9641 H   0  0  0  0  0  0  0  0  0  0  0  0
   38.0022   30.2371   45.9705 H   0  0  0  0  0  0  0  0  0  0  0  0
   34.8258   27.5389   50.0524 H   0  0  0  0  0  0  0  0  0  0  0  0
   32.0292   27.6892   49.6436 H   0  0  0  0  0  0  0  0  0  0  0  0
   32.1522   28.8764   48.6507 H   0  0  0  0  0  0  0  0  0  0  0  0
   33.5272   25.8887   47.9254 H   0  0  0  0  0  0  0  0  0  0  0  0
   34.4850   27.9861   46.5019 H   0  0  0  0  0  0  0  0  0  0  0  0
   31.7936   28.0867   46.6739 H   0  0  0  0  0  0  0  0  0  0  0  0
   32.4864   28.0042   45.0753 H   0  0  0  0  0  0  0  0  0  0  0  0
   31.4995   25.6887   46.8609 H   0  0  0  0  0  0  0  0  0  0  0  0
   30.9602   26.0372   45.2300 H   0  0  0  0  0  0  0  0  0  0  0  0
   32.8688   24.2048   45.6230 H   0  0  0  0  0  0  0  0  0  0  0  0
   33.0753   25.3183   44.2733 H   0  0  0  0  0  0  0  0  0  0  0  0
   34.5428   25.1602   46.8504 H   0  0  0  0  0  0  0  0  0  0  0  0
   35.0302   25.9808   45.3531 H   0  0  0  0  0  0  0  0  0  0  0  0
  1  6  2  0
  1  2  1  0
  2  3  2  0
  3  4  1  0
  5 17  1  0
  5  4  2  0
  6  5  1  0
  7  2  1  0
  7  8  2  0
  9  8  1  0
 10  9  2  0
 11 16  2  0
 11 10  1  0
 12 11  1  0
 13 14  1  0
 13 12  2  0
 14 15  2  0
 15 16  1  0
 16  7  1  0
 18 17  1  0
 19 18  1  0
 19 17  1  0
 20 19  1  0
 21 20  1  0
 22 21  1  0
 23 22  1  0
 23 24  1  0
 24 20  1  0
  1 25  1  0
  3 26  1  0
  8 27  1  0
  9 28  1  0
 10 29  1  0
 12 30  1  0
 13 31  1  0
 14 32  1  0
 15 33  1  0
 17 34  1  1
 18 35  1  0
 18 36  1  0
 19 37  1  1
 20 38  1  0
 21 39  1  0
 21 40  1  0
 22 41  1  0
 22 42  1  0
 23 43  1  0
 23 44  1  0
 24 45  1  0
 24 46  1  0
M  ISO  8  25  14  26  14  27  14  28  14  29  14  30  14  31  14  32  14
M  ISO  8  33  14  34  13  35  13  36  13  37  13  38  13  39  13  40  13
M  ISO  6  41  13  42  13  43  13  44  13  45  13  46  13
M  END
>  <minimizedAffinity>  (1) 
-6.79746532

>  <minimizedRMSD>  (1) 
0.263092011

$$$$
