
     RDKit          3D

 38 42  0  0  1  0  0  0  0  0999 V2000
   35.5590   30.4160   47.3030 C   0  0  0  0  0  0  0  0  0  0  0  0
   36.6300   30.6300   48.1700 C   0  0  0  0  0  0  0  0  0  0  0  0
   36.7360   29.6910   49.2350 C   0  0  0  0  0  0  0  0  0  0  0  0
   35.8230   28.6860   49.3350 N   0  0  0  0  0  0  0  0  0  0  0  0
   34.8220   28.5330   48.4790 C   0  0  0  0  0  0  0  0  0  0  0  0
   34.6960   29.4000   47.4670 N   0  0  0  0  0  0  0  0  0  0  0  0
   37.6430   31.6620   48.1480 C   0  0  0  0  0  0  0  0  0  0  0  0
   37.6010   32.4240   49.2840 C   0  0  0  0  0  0  0  0  0  0  0  0
   38.4950   33.4870   49.4740 C   0  0  0  0  0  0  0  0  0  0  0  0
   39.4340   33.7700   48.4990 C   0  0  0  0  0  0  0  0  0  0  0  0
   39.4600   32.9850   47.3520 C   0  0  0  0  0  0  0  0  0  0  0  0
   40.3670   33.1960   46.3240 C   0  0  0  0  0  0  0  0  0  0  0  0
   40.3420   32.3830   45.2140 C   0  0  0  0  0  0  0  0  0  0  0  0
   39.4410   31.3490   45.0770 C   0  0  0  0  0  0  0  0  0  0  0  0
   38.5350   31.1390   46.1030 C   0  0  0  0  0  0  0  0  0  0  0  0
   38.5760   31.9570   47.1970 C   0  0  0  0  0  0  0  0  0  0  0  0
   33.8590   27.4210   48.6490 C   0  0  1  0  0  0  0  0  0  0  0  0
   32.3990   27.6990   48.6560 C   0  0  0  0  0  0  0  0  0  0  0  0
   33.0260   26.9760   47.4800 C   0  0  2  0  0  0  0  0  0  0  0  0
   32.7810   25.5190   47.3490 C   0  0  0  0  0  0  0  0  0  0  0  0
   31.6320   24.9390   46.9640 N   0  0  0  0  0  0  0  0  0  0  0  0
   31.7520   23.6460   46.9560 O   0  0  0  0  0  0  0  0  0  0  0  0
   32.9540   23.3090   47.3250 C   0  0  0  0  0  0  0  0  0  0  0  0
   33.6070   24.4640   47.5730 N   0  0  0  0  0  0  0  0  0  0  0  0
   35.4161   31.1028   46.4557 H   0  0  0  0  0  0  0  0  0  0  0  0
   37.5490   29.7768   49.9710 H   0  0  0  0  0  0  0  0  0  0  0  0
   36.8544   32.1990   50.0598 H   0  0  0  0  0  0  0  0  0  0  0  0
   38.4499   34.0915   50.3919 H   0  0  0  0  0  0  0  0  0  0  0  0
   40.1454   34.5989   48.6284 H   0  0  0  0  0  0  0  0  0  0  0  0
   41.1034   34.0100   46.3958 H   0  0  0  0  0  0  0  0  0  0  0  0
   41.0671   32.5649   44.4071 H   0  0  0  0  0  0  0  0  0  0  0  0
   39.4416   30.7108   44.1811 H   0  0  0  0  0  0  0  0  0  0  0  0
   37.7950   30.3277   46.0385 H   0  0  0  0  0  0  0  0  0  0  0  0
   34.5508   26.9200   49.3421 H   0  0  0  0  0  0  0  0  0  0  0  0
   31.7390   27.1548   49.3475 H   0  0  0  0  0  0  0  0  0  0  0  0
   31.7798   28.6005   48.7740 H   0  0  0  0  0  0  0  0  0  0  0  0
   33.0441   27.1316   46.3912 H   0  0  0  0  0  0  0  0  0  0  0  0
   33.3562   22.2892   47.4163 H   0  0  0  0  0  0  0  0  0  0  0  0
  1  6  2  0
  1  2  1  0
  2  3  2  0
  3  4  1  0
  5 17  1  0
  5  4  2  0
  6  5  1  0
  7  2  1  0
  7  8  2  0
  8  9  1  0
 10  9  2  0
 11 10  1  0
 12 11  2  0
 13 12  1  0
 14 13  2  0
 14 15  1  0
 15 16  2  0
 16 11  1  0
 16  7  1  0
 17 18  1  0
 19 17  1  0
 19 18  1  0
 20 19  1  0
 20 24  1  0
 21 20  2  0
 22 21  1  0
 22 23  1  0
 23 24  2  0
  1 25  1  0
  3 26  1  0
  8 27  1  0
  9 28  1  0
 10 29  1  0
 12 30  1  0
 13 31  1  0
 14 32  1  0
 15 33  1  0
 17 34  1  1
 18 35  1  0
 18 36  1  0
 19 37  1  6
 23 38  1  0
M  ISO  8  25  14  26  14  27  14  28  14  29  14  30  14  31  14  32  14
M  ISO  6  33  14  34  13  35  13  36  13  37  13  38  14
M  END
>  <minimizedAffinity>  (1) 
-6.72993279

>  <minimizedRMSD>  (1) 
0.918148041

$$$$
