
     RDKit          3D

 40 44  0  0  1  0  0  0  0  0999 V2000
   35.5690   30.4320   47.3340 C   0  0  0  0  0  0  0  0  0  0  0  0
   36.6560   30.6370   48.1940 C   0  0  0  0  0  0  0  0  0  0  0  0
   36.7650   29.6990   49.2510 C   0  0  0  0  0  0  0  0  0  0  0  0
   35.8490   28.6930   49.3720 N   0  0  0  0  0  0  0  0  0  0  0  0
   34.8340   28.5650   48.5080 C   0  0  0  0  0  0  0  0  0  0  0  0
   34.7030   29.4330   47.4980 N   0  0  0  0  0  0  0  0  0  0  0  0
   37.6660   31.6680   48.1530 C   0  0  0  0  0  0  0  0  0  0  0  0
   37.6350   32.4420   49.2890 C   0  0  0  0  0  0  0  0  0  0  0  0
   38.5230   33.5070   49.4730 C   0  0  0  0  0  0  0  0  0  0  0  0
   39.4520   33.7850   48.4870 C   0  0  0  0  0  0  0  0  0  0  0  0
   39.4700   32.9990   47.3550 C   0  0  0  0  0  0  0  0  0  0  0  0
   40.3730   33.2070   46.3100 C   0  0  0  0  0  0  0  0  0  0  0  0
   40.3380   32.3870   45.2050 C   0  0  0  0  0  0  0  0  0  0  0  0
   39.4400   31.3510   45.0780 C   0  0  0  0  0  0  0  0  0  0  0  0
   38.5480   31.1440   46.1100 C   0  0  0  0  0  0  0  0  0  0  0  0
   38.5930   31.9630   47.1970 C   0  0  0  0  0  0  0  0  0  0  0  0
   33.8630   27.4520   48.7130 C   0  0  1  0  0  0  0  0  0  0  0  0
   32.4080   27.7580   48.6530 C   0  0  0  0  0  0  0  0  0  0  0  0
   33.0530   26.9620   47.5480 C   0  0  2  0  0  0  0  0  0  0  0  0
   32.8540   25.4640   47.4840 C   0  0  0  0  0  0  0  0  0  0  0  0
   32.8690   24.7530   46.1870 C   0  0  0  0  0  0  0  0  0  0  0  0
   33.9870   24.5700   47.2050 C   0  0  0  0  0  0  0  0  0  0  0  0
   35.4250   31.1230   46.4903 H   0  0  0  0  0  0  0  0  0  0  0  0
   37.5888   29.7813   49.9752 H   0  0  0  0  0  0  0  0  0  0  0  0
   36.8947   32.2185   50.0713 H   0  0  0  0  0  0  0  0  0  0  0  0
   38.4830   34.1148   50.3890 H   0  0  0  0  0  0  0  0  0  0  0  0
   40.1623   34.6167   48.6039 H   0  0  0  0  0  0  0  0  0  0  0  0
   41.1088   34.0224   46.3698 H   0  0  0  0  0  0  0  0  0  0  0  0
   41.0559   32.5665   44.3911 H   0  0  0  0  0  0  0  0  0  0  0  0
   39.4340   30.7101   44.1840 H   0  0  0  0  0  0  0  0  0  0  0  0
   37.8111   30.3291   46.0555 H   0  0  0  0  0  0  0  0  0  0  0  0
   34.5282   26.9716   49.4455 H   0  0  0  0  0  0  0  0  0  0  0  0
   31.7139   27.2670   49.3510 H   0  0  0  0  0  0  0  0  0  0  0  0
   31.8048   28.6768   48.6985 H   0  0  0  0  0  0  0  0  0  0  0  0
   33.0679   27.0633   46.4528 H   0  0  0  0  0  0  0  0  0  0  0  0
   32.1242   25.5427   48.3033 H   0  0  0  0  0  0  0  0  0  0  0  0
   33.0543   25.3061   45.2544 H   0  0  0  0  0  0  0  0  0  0  0  0
   32.1797   24.0861   45.6483 H   0  0  0  0  0  0  0  0  0  0  0  0
   34.0877   23.6197   47.7497 H   0  0  0  0  0  0  0  0  0  0  0  0
   35.0819   24.6751   47.1921 H   0  0  0  0  0  0  0  0  0  0  0  0
  1  6  2  0
  1  2  1  0
  2  3  2  0
  3  4  1  0
  5 17  1  0
  5  4  2  0
  6  5  1  0
  7  2  1  0
  7  8  2  0
  8  9  1  0
 10  9  2  0
 11 10  1  0
 12 11  2  0
 13 12  1  0
 14 13  2  0
 14 15  1  0
 15 16  2  0
 16 11  1  0
 16  7  1  0
 18 17  1  0
 19 18  1  0
 19 17  1  0
 20 19  1  0
 21 22  1  0
 21 20  1  0
 22 20  1  0
  1 23  1  0
  3 24  1  0
  8 25  1  0
  9 26  1  0
 10 27  1  0
 12 28  1  0
 13 29  1  0
 14 30  1  0
 15 31  1  0
 17 32  1  1
 18 33  1  0
 18 34  1  0
 19 35  1  6
 20 36  1  0
 21 37  1  0
 21 38  1  0
 22 39  1  0
 22 40  1  0
M  ISO  8  23  14  24  14  25  14  26  14  27  14  28  14  29  14  30  14
M  ISO  8  31  14  32  13  33  13  34  13  35  13  36  13  37  13  38  13
M  ISO  2  39  13  40  13
M  END
>  <minimizedAffinity>  (1) 
-6.66331244

>  <minimizedRMSD>  (1) 
0.917168856

$$$$
