
     RDKit          3D

 42 45  0  0  1  0  0  0  0  0999 V2000
   35.7290   30.5880   47.3310 C   0  0  0  0  0  0  0  0  0  0  0  0
   36.9580   30.7380   47.9480 C   0  0  0  0  0  0  0  0  0  0  0  0
   37.1910   29.8310   49.0310 C   0  0  0  0  0  0  0  0  0  0  0  0
   36.2400   28.9190   49.3720 N   0  0  0  0  0  0  0  0  0  0  0  0
   35.0820   28.8400   48.7230 C   0  0  0  0  0  0  0  0  0  0  0  0
   34.8240   29.6690   47.7070 N   0  0  0  0  0  0  0  0  0  0  0  0
   38.0360   31.6620   47.6790 C   0  0  0  0  0  0  0  0  0  0  0  0
   38.1380   32.6200   48.6510 C   0  0  0  0  0  0  0  0  0  0  0  0
   39.1130   33.6190   48.5930 C   0  0  0  0  0  0  0  0  0  0  0  0
   39.9980   33.6410   47.5270 C   0  0  0  0  0  0  0  0  0  0  0  0
   39.8790   32.6660   46.5560 C   0  0  0  0  0  0  0  0  0  0  0  0
   40.7270   32.6050   45.4430 C   0  0  0  0  0  0  0  0  0  0  0  0
   40.5570   31.6070   44.5080 C   0  0  0  0  0  0  0  0  0  0  0  0
   39.5760   30.6490   44.6200 C   0  0  0  0  0  0  0  0  0  0  0  0
   38.7410   30.7080   45.7160 C   0  0  0  0  0  0  0  0  0  0  0  0
   38.9190   31.7000   46.6350 C   0  0  0  0  0  0  0  0  0  0  0  0
   34.0790   27.8220   49.1550 C   0  0  1  0  0  0  0  0  0  0  0  0
   32.6410   28.0370   48.8470 C   0  0  0  0  0  0  0  0  0  0  0  0
   33.4130   26.9650   48.1170 C   0  0  1  0  0  0  0  0  0  0  0  0
   33.7430   27.1930   46.6410 C   0  0  0  0  0  0  0  0  0  0  0  0
   34.2470   25.9030   46.0000 C   0  0  0  0  0  0  0  0  0  0  0  0
   32.4160   27.5890   45.9800 C   0  0  0  0  0  0  0  0  0  0  0  0
   35.4805   31.2538   46.4914 H   0  0  0  0  0  0  0  0  0  0  0  0
   38.1389   29.8712   49.5876 H   0  0  0  0  0  0  0  0  0  0  0  0
   37.4360   32.6031   49.4977 H   0  0  0  0  0  0  0  0  0  0  0  0
   39.1774   34.3797   49.3849 H   0  0  0  0  0  0  0  0  0  0  0  0
   40.7758   34.4156   47.4559 H   0  0  0  0  0  0  0  0  0  0  0  0
   41.5255   33.3507   45.3157 H   0  0  0  0  0  0  0  0  0  0  0  0
   41.2311   31.5752   43.6393 H   0  0  0  0  0  0  0  0  0  0  0  0
   39.4614   29.8618   43.8603 H   0  0  0  0  0  0  0  0  0  0  0  0
   37.9413   29.9642   45.8474 H   0  0  0  0  0  0  0  0  0  0  0  0
   34.6507   27.6241   50.0737 H   0  0  0  0  0  0  0  0  0  0  0  0
   31.8734   27.7565   49.5833 H   0  0  0  0  0  0  0  0  0  0  0  0
   32.0328   28.9010   48.5411 H   0  0  0  0  0  0  0  0  0  0  0  0
   33.3011   25.8823   47.9581 H   0  0  0  0  0  0  0  0  0  0  0  0
   34.5235   27.9590   46.5222 H   0  0  0  0  0  0  0  0  0  0  0  0
   34.5266   25.1873   46.7872 H   0  0  0  0  0  0  0  0  0  0  0  0
   33.4523   25.4691   45.3754 H   0  0  0  0  0  0  0  0  0  0  0  0
   35.1254   26.1228   45.3754 H   0  0  0  0  0  0  0  0  0  0  0  0
   31.6708   27.8114   46.7580 H   0  0  0  0  0  0  0  0  0  0  0  0
   32.5698   28.4804   45.3541 H   0  0  0  0  0  0  0  0  0  0  0  0
   32.0561   26.7591   45.3541 H   0  0  0  0  0  0  0  0  0  0  0  0
  1  6  2  0
  1  2  1  0
  2  3  2  0
  3  4  1  0
  5 17  1  0
  5  4  2  0
  6  5  1  0
  7  2  1  0
  7  8  2  0
  9  8  1  0
 10  9  2  0
 11 16  2  0
 11 10  1  0
 12 11  1  0
 13 14  1  0
 13 12  2  0
 14 15  2  0
 15 16  1  0
 16  7  1  0
 18 17  1  0
 19 18  1  0
 19 17  1  0
 20 19  1  0
 21 20  1  0
 22 20  1  0
  1 23  1  0
  3 24  1  0
  8 25  1  0
  9 26  1  0
 10 27  1  0
 12 28  1  0
 13 29  1  0
 14 30  1  0
 15 31  1  0
 17 32  1  1
 18 33  1  0
 18 34  1  0
 19 35  1  1
 20 36  1  0
 21 37  1  0
 21 38  1  0
 21 39  1  0
 22 40  1  0
 22 41  1  0
 22 42  1  0
M  ISO  8  23  14  24  14  25  14  26  14  27  14  28  14  29  14  30  14
M  ISO  8  31  14  32  13  33  13  34  13  35  13  36   8  37   8  38   8
M  ISO  4  39   8  40   8  41   8  42   8
M  END
>  <minimizedAffinity>  (1) 
-6.53132343

>  <minimizedRMSD>  (1) 
0.661507487

$$$$
