
     RDKit          3D

 44 48  0  0  1  0  0  0  0  0999 V2000
   34.4280   30.4650   47.8250 C   0  0  0  0  0  0  0  0  0  0  0  0
   35.6900   30.3120   48.3680 C   0  0  0  0  0  0  0  0  0  0  0  0
   35.9050   29.0560   49.0160 C   0  0  0  0  0  0  0  0  0  0  0  0
   34.9200   28.1230   49.0650 N   0  0  0  0  0  0  0  0  0  0  0  0
   33.7190   28.3590   48.5060 C   0  0  0  0  0  0  0  0  0  0  0  0
   33.4820   29.5170   47.8950 N   0  0  0  0  0  0  0  0  0  0  0  0
   36.8200   31.2230   48.3860 C   0  0  0  0  0  0  0  0  0  0  0  0
   36.9080   31.8840   49.5750 C   0  0  0  0  0  0  0  0  0  0  0  0
   37.9270   32.8100   49.8140 C   0  0  0  0  0  0  0  0  0  0  0  0
   38.8630   33.0570   48.8240 C   0  0  0  0  0  0  0  0  0  0  0  0
   38.7530   32.3730   47.6250 C   0  0  0  0  0  0  0  0  0  0  0  0
   39.6510   32.5680   46.5850 C   0  0  0  0  0  0  0  0  0  0  0  0
   39.4880   31.8540   45.4030 C   0  0  0  0  0  0  0  0  0  0  0  0
   38.4590   30.9450   45.2130 C   0  0  0  0  0  0  0  0  0  0  0  0
   37.5740   30.7670   46.2660 C   0  0  0  0  0  0  0  0  0  0  0  0
   37.7560   31.4770   47.4110 C   0  0  0  0  0  0  0  0  0  0  0  0
   32.6720   27.3000   48.5880 C   0  0  1  0  0  0  0  0  0  0  0  0
   31.2720   27.6330   48.2070 C   0  0  0  0  0  0  0  0  0  0  0  0
   32.0960   26.7370   47.3200 C   0  0  1  0  0  0  0  0  0  0  0  0
   32.6920   27.3130   46.1160 N   0  0  0  0  0  0  0  0  0  0  0  0
   33.9560   27.3540   45.7140 C   0  0  0  0  0  0  0  0  0  0  0  0
   34.2610   27.9680   44.5170 C   0  0  0  0  0  0  0  0  0  0  0  0
   33.2670   28.5380   43.7380 C   0  0  0  0  0  0  0  0  0  0  0  0
   33.6630   29.1460   42.5300 N   0  0  0  0  0  0  0  0  0  0  0  0
   31.9920   28.4810   44.1740 N   0  0  0  0  0  0  0  0  0  0  0  0
   31.7050   27.8700   45.3600 C   0  0  0  0  0  0  0  0  0  0  0  0
   30.4690   27.9160   45.5970 O   0  0  0  0  0  0  0  0  0  0  0  0
   34.1886   31.4080   47.3117 H   0  0  0  0  0  0  0  0  0  0  0  0
   36.8793   28.8432   49.4801 H   0  0  0  0  0  0  0  0  0  0  0  0
   36.1638   31.6850   50.3602 H   0  0  0  0  0  0  0  0  0  0  0  0
   37.9849   33.3368   50.7779 H   0  0  0  0  0  0  0  0  0  0  0  0
   39.6757   33.7803   48.9863 H   0  0  0  0  0  0  0  0  0  0  0  0
   40.4826   33.2796   46.6945 H   0  0  0  0  0  0  0  0  0  0  0  0
   40.2052   32.0173   44.5851 H   0  0  0  0  0  0  0  0  0  0  0  0
   38.3492   30.3899   44.2697 H   0  0  0  0  0  0  0  0  0  0  0  0
   36.7357   30.0605   46.1758 H   0  0  0  0  0  0  0  0  0  0  0  0
   33.1517   26.8688   49.4790 H   0  0  0  0  0  0  0  0  0  0  0  0
   30.4321   27.2154   48.7816 H   0  0  0  0  0  0  0  0  0  0  0  0
   30.7083   28.5660   48.0596 H   0  0  0  0  0  0  0  0  0  0  0  0
   31.9186   25.7458   46.8771 H   0  0  0  0  0  0  0  0  0  0  0  0
   34.7505   26.9041   46.3275 H   0  0  0  0  0  0  0  0  0  0  0  0
   35.3064   28.0056   44.1767 H   0  0  0  0  0  0  0  0  0  0  0  0
   34.6565   29.1529   42.2584 H   0  0  0  0  0  0  0  0  0  0  0  0
   32.9589   29.5835   41.9186 H   0  0  0  0  0  0  0  0  0  0  0  0
  1  6  2  0
  1  2  1  0
  2  7  1  0
  2  3  2  0
  3  4  1  0
  5 17  1  0
  5  4  2  0
  6  5  1  0
  7  8  2  0
  8  9  1  0
 10  9  2  0
 11 10  1  0
 12 11  2  0
 13 12  1  0
 14 13  2  0
 14 15  1  0
 15 16  2  0
 16 11  1  0
 16  7  1  0
 18 17  1  0
 19 18  1  0
 19 17  1  0
 20 19  1  0
 21 20  1  0
 22 21  2  0
 23 25  2  0
 23 22  1  0
 24 23  1  0
 25 26  1  0
 26 27  2  0
 26 20  1  0
  1 28  1  0
  3 29  1  0
  8 30  1  0
  9 31  1  0
 10 32  1  0
 12 33  1  0
 13 34  1  0
 14 35  1  0
 15 36  1  0
 17 37  1  1
 18 38  1  0
 18 39  1  0
 19 40  1  1
 21 41  1  0
 22 42  1  0
 24 43  1  0
 24 44  1  0
M  ISO  8  28  14  29  14  30  14  31  14  32  14  33  14  34  14  35  14
M  ISO  7  36  14  37  13  38  13  39  13  40  13  41  14  42  14
M  END
>  <minimizedAffinity>  (1) 
-6.29652548

>  <minimizedRMSD>  (1) 
1.84507048

$$$$
