
     RDKit          3D

 40 44  0  0  1  0  0  0  0  0999 V2000
   34.2780   30.2920   47.5880 C   0  0  0  0  0  0  0  0  0  0  0  0
   35.4840   30.1330   48.2470 C   0  0  0  0  0  0  0  0  0  0  0  0
   35.5930   28.9250   49.0030 C   0  0  0  0  0  0  0  0  0  0  0  0
   34.5530   28.0390   49.0330 N   0  0  0  0  0  0  0  0  0  0  0  0
   33.4170   28.2770   48.3620 C   0  0  0  0  0  0  0  0  0  0  0  0
   33.2840   29.3890   47.6490 N   0  0  0  0  0  0  0  0  0  0  0  0
   36.6450   30.9940   48.2910 C   0  0  0  0  0  0  0  0  0  0  0  0
   36.7730   31.6190   49.4980 C   0  0  0  0  0  0  0  0  0  0  0  0
   37.8270   32.4980   49.7580 C   0  0  0  0  0  0  0  0  0  0  0  0
   38.7600   32.7430   48.7760 C   0  0  0  0  0  0  0  0  0  0  0  0
   38.6220   32.1080   47.5610 C   0  0  0  0  0  0  0  0  0  0  0  0
   39.5170   32.2890   46.4950 C   0  0  0  0  0  0  0  0  0  0  0  0
   39.3190   31.6220   45.3060 C   0  0  0  0  0  0  0  0  0  0  0  0
   38.2620   30.7680   45.1070 C   0  0  0  0  0  0  0  0  0  0  0  0
   37.3760   30.5840   46.1500 C   0  0  0  0  0  0  0  0  0  0  0  0
   37.5820   31.2520   47.3320 C   0  0  0  0  0  0  0  0  0  0  0  0
   32.3210   27.2700   48.4460 C   0  0  1  0  0  0  0  0  0  0  0  0
   31.0280   27.5590   47.7700 C   0  0  0  0  0  0  0  0  0  0  0  0
   31.9410   26.4950   47.2160 C   0  0  1  0  0  0  0  0  0  0  0  0
   32.7500   26.7970   46.0540 N   0  0  0  0  0  0  0  0  0  0  0  0
   32.2240   27.5360   45.0930 N   0  0  0  0  0  0  0  0  0  0  0  0
   33.1410   27.7020   44.0990 C   0  0  0  0  0  0  0  0  0  0  0  0
   34.2740   27.0110   44.5120 C   0  0  0  0  0  0  0  0  0  0  0  0
   33.9930   26.4550   45.7440 C   0  0  0  0  0  0  0  0  0  0  0  0
   34.1253   31.1998   46.9859 H   0  0  0  0  0  0  0  0  0  0  0  0
   36.5155   28.7081   49.5616 H   0  0  0  0  0  0  0  0  0  0  0  0
   36.0285   31.4258   50.2844 H   0  0  0  0  0  0  0  0  0  0  0  0
   37.9107   32.9898   50.7384 H   0  0  0  0  0  0  0  0  0  0  0  0
   39.5984   33.4315   48.9575 H   0  0  0  0  0  0  0  0  0  0  0  0
   40.3777   32.9644   46.6091 H   0  0  0  0  0  0  0  0  0  0  0  0
   40.0343   31.7793   44.4853 H   0  0  0  0  0  0  0  0  0  0  0  0
   38.1256   30.2474   44.1477 H   0  0  0  0  0  0  0  0  0  0  0  0
   36.5145   29.9097   46.0353 H   0  0  0  0  0  0  0  0  0  0  0  0
   32.6189   26.9975   49.4692 H   0  0  0  0  0  0  0  0  0  0  0  0
   30.0808   27.2740   48.2512 H   0  0  0  0  0  0  0  0  0  0  0  0
   30.5500   28.4616   47.3616 H   0  0  0  0  0  0  0  0  0  0  0  0
   31.7894   25.4427   46.9339 H   0  0  0  0  0  0  0  0  0  0  0  0
   33.0115   28.2660   43.1635 H   0  0  0  0  0  0  0  0  0  0  0  0
   35.2207   26.9232   43.9588 H   0  0  0  0  0  0  0  0  0  0  0  0
   34.6731   25.8427   46.3544 H   0  0  0  0  0  0  0  0  0  0  0  0
  1  6  2  0
  1  2  1  0
  2  7  1  0
  2  3  2  0
  3  4  1  0
  5 17  1  0
  5  4  2  0
  6  5  1  0
  7  8  2  0
  8  9  1  0
 10  9  2  0
 11 10  1  0
 12 11  2  0
 13 12  1  0
 14 13  2  0
 14 15  1  0
 15 16  2  0
 16 11  1  0
 16  7  1  0
 18 17  1  0
 19 18  1  0
 19 17  1  0
 20 19  1  0
 21 20  1  0
 22 23  1  0
 22 21  2  0
 23 24  2  0
 24 20  1  0
  1 25  1  0
  3 26  1  0
  8 27  1  0
  9 28  1  0
 10 29  1  0
 12 30  1  0
 13 31  1  0
 14 32  1  0
 15 33  1  0
 17 34  1  1
 18 35  1  0
 18 36  1  0
 19 37  1  1
 22 38  1  0
 23 39  1  0
 24 40  1  0
M  ISO  8  25  14  26  14  27  14  28  14  29  14  30  14  31  14  32  14
M  ISO  8  33  14  34  13  35  13  36  13  37  13  38  14  39  14  40  14
M  END
>  <minimizedAffinity>  (1) 
-6.17750645

>  <minimizedRMSD>  (1) 
1.86188066

$$$$
