
     RDKit          3D

 43 46  0  0  0  0  0  0  0  0999 V2000
   33.4840   30.4050   44.0670 C   0  0  0  0  0  0  0  0  0  0  0  0
   33.8070   31.4960   43.2320 C   0  0  0  0  0  0  0  0  0  0  0  0
   32.7280   32.2530   42.7130 C   0  0  0  0  0  0  0  0  0  0  0  0
   31.4510   31.8850   43.0510 N   0  0  0  0  0  0  0  0  0  0  0  0
   31.2100   30.8360   43.8520 C   0  0  0  0  0  0  0  0  0  0  0  0
   32.2040   30.1200   44.3430 N   0  0  0  0  0  0  0  0  0  0  0  0
   29.8540   30.5140   44.1550 N   0  0  0  0  0  0  0  0  0  0  0  0
   28.8690   30.6510   43.2580 C   0  0  0  0  0  0  0  0  0  0  0  0
   27.5510   30.3390   43.5490 C   0  0  0  0  0  0  0  0  0  0  0  0
   27.3330   29.8830   44.8150 C   0  0  0  0  0  0  0  0  0  0  0  0
   26.1590   29.5720   45.1720 O   0  0  0  0  0  0  0  0  0  0  0  0
   28.2660   29.7220   45.7580 N   0  0  0  0  0  0  0  0  0  0  0  0
   29.5390   30.0500   45.3980 C   0  0  0  0  0  0  0  0  0  0  0  0
   30.4460   29.9130   46.2620 O   0  0  0  0  0  0  0  0  0  0  0  0
   27.6390   27.8580   49.4610 C   0  0  0  0  0  0  0  0  0  0  0  0
   27.5130   29.2220   49.3940 C   0  0  0  0  0  0  0  0  0  0  0  0
   27.7000   29.9170   48.2250 C   0  0  0  0  0  0  0  0  0  0  0  0
   28.0240   29.2440   47.0770 C   0  0  0  0  0  0  0  0  0  0  0  0
   28.1600   27.8530   47.1140 C   0  0  0  0  0  0  0  0  0  0  0  0
   27.9680   27.1540   48.3110 C   0  0  0  0  0  0  0  0  0  0  0  0
   27.3940   27.0200   50.9620 S   0  0  0  0  0  0  0  0  0  0  0  0
   28.5970   26.9590   51.8140 O   0  0  0  0  0  0  0  0  0  0  0  0
   26.2740   27.7180   51.7030 O   0  0  0  0  0  0  0  0  0  0  0  0
   26.4400   30.4680   42.5970 C   0  0  0  0  0  0  0  0  0  0  0  0
   25.7350   31.7670   42.7000 C   0  0  0  0  0  0  0  0  0  0  0  0
   26.0260   32.8150   43.5740 C   0  0  0  0  0  0  0  0  0  0  0  0
   25.1070   33.8220   43.3080 C   0  0  0  0  0  0  0  0  0  0  0  0
   24.3060   33.3700   42.3070 N   0  0  0  0  0  0  0  0  0  0  0  0
   24.6740   32.1710   41.9510 N   0  0  0  0  0  0  0  0  0  0  0  0
   34.2869   29.7856   44.4933 H   0  0  0  0  0  0  0  0  0  0  0  0
   34.8512   31.7476   42.9945 H   0  0  0  0  0  0  0  0  0  0  0  0
   32.9101   33.1153   42.0547 H   0  0  0  0  0  0  0  0  0  0  0  0
   29.1155   31.0250   42.2533 H   0  0  0  0  0  0  0  0  0  0  0  0
   27.2535   29.7776   50.3072 H   0  0  0  0  0  0  0  0  0  0  0  0
   27.5899   31.0114   48.2104 H   0  0  0  0  0  0  0  0  0  0  0  0
   28.4196   27.3046   46.1964 H   0  0  0  0  0  0  0  0  0  0  0  0
   28.0765   26.0598   48.3401 H   0  0  0  0  0  0  0  0  0  0  0  0
   27.0818   25.7185   50.6697 H   0  0  0  0  0  0  0  0  0  0  0  0
   25.7177   29.6612   42.7904 H   0  0  0  0  0  0  0  0  0  0  0  0
   26.8661   30.4051   41.5848 H   0  0  0  0  0  0  0  0  0  0  0  0
   26.8273   32.8391   44.3272 H   0  0  0  0  0  0  0  0  0  0  0  0
   25.0402   34.7980   43.8109 H   0  0  0  0  0  0  0  0  0  0  0  0
   23.5244   33.8966   41.8915 H   0  0  0  0  0  0  0  0  0  0  0  0
  1  6  2  0
  2  1  1  0
  3  4  1  0
  3  2  2  0
  4  5  2  0
  5  7  1  0
  5  6  1  0
  7 13  1  0
  8  9  2  0
  8  7  1  0
  9 10  1  0
 10 11  2  0
 10 12  1  0
 12 18  1  0
 13 12  1  0
 13 14  2  0
 15 21  1  0
 16 15  2  0
 17 16  1  0
 18 19  1  0
 18 17  2  0
 19 20  2  0
 20 15  1  0
 21 23  2  0
 21 22  2  0
 24 25  1  0
 24  9  1  0
 25 26  1  0
 27 26  2  0
 28 27  1  0
 29 28  1  0
 29 25  2  0
  1 30  1  0
  2 31  1  0
  3 32  1  0
  8 33  1  0
 16 34  1  0
 17 35  1  0
 19 36  1  0
 20 37  1  0
 21 38  1  0
 24 39  1  0
 24 40  1  0
 26 41  1  0
 27 42  1  0
 28 43  1  0
M  ISO  8  30  14  31  14  32  14  33  14  34  14  35  14  36  14  37  14
M  ISO  6  38  11  39   8  40   8  41  14  42  14  43   9
M  END
>  <minimizedAffinity>  (1) 
-5.23479509

>  <minimizedRMSD>  (1) 
0.367344469

$$$$
