
     RDKit          3D

 41 45  0  0  1  0  0  0  0  0999 V2000
   35.4300   30.2460   47.1730 C   0  0  0  0  0  0  0  0  0  0  0  0
   36.4890   30.4670   48.0670 C   0  0  0  0  0  0  0  0  0  0  0  0
   36.5260   29.5770   49.1790 C   0  0  0  0  0  0  0  0  0  0  0  0
   35.5770   28.6070   49.3050 N   0  0  0  0  0  0  0  0  0  0  0  0
   34.6000   28.4580   48.4140 C   0  0  0  0  0  0  0  0  0  0  0  0
   34.5300   29.2690   47.3630 N   0  0  0  0  0  0  0  0  0  0  0  0
   37.5310   31.4600   48.0180 C   0  0  0  0  0  0  0  0  0  0  0  0
   37.4830   32.2920   49.1020 C   0  0  0  0  0  0  0  0  0  0  0  0
   38.3980   33.3350   49.2680 C   0  0  0  0  0  0  0  0  0  0  0  0
   39.3760   33.5330   48.3140 C   0  0  0  0  0  0  0  0  0  0  0  0
   39.4100   32.6840   47.2260 C   0  0  0  0  0  0  0  0  0  0  0  0
   40.3590   32.7980   46.2050 C   0  0  0  0  0  0  0  0  0  0  0  0
   40.3460   31.9150   45.1340 C   0  0  0  0  0  0  0  0  0  0  0  0
   39.4210   30.9150   45.0330 C   0  0  0  0  0  0  0  0  0  0  0  0
   38.4770   30.7940   46.0390 C   0  0  0  0  0  0  0  0  0  0  0  0
   38.5010   31.6770   47.0990 C   0  0  0  0  0  0  0  0  0  0  0  0
   33.6030   27.3680   48.6200 C   0  0  1  0  0  0  0  0  0  0  0  0
   32.1540   27.7360   48.7440 C   0  0  0  0  0  0  0  0  0  0  0  0
   32.6510   27.0100   47.5300 C   0  0  2  0  0  0  0  0  0  0  0  0
   32.2910   25.2630   47.2580 S   0  0  0  0  0  0  0  0  0  0  0  0
   33.7690   24.4840   46.7350 C   0  0  0  0  0  0  0  0  0  0  0  0
   34.6340   24.7390   45.6640 C   0  0  0  0  0  0  0  0  0  0  0  0
   35.7480   23.9770   45.4590 C   0  0  0  0  0  0  0  0  0  0  0  0
   35.9970   22.9230   46.3620 C   0  0  0  0  0  0  0  0  0  0  0  0
   34.5360   23.0490   47.5700 S   0  0  0  0  0  0  0  0  0  0  0  0
   35.3348   30.8938   46.2891 H   0  0  0  0  0  0  0  0  0  0  0  0
   37.3195   29.6727   49.9348 H   0  0  0  0  0  0  0  0  0  0  0  0
   36.7041   32.1363   49.8629 H   0  0  0  0  0  0  0  0  0  0  0  0
   38.3397   33.9910   50.1491 H   0  0  0  0  0  0  0  0  0  0  0  0
   40.1093   34.3463   48.4181 H   0  0  0  0  0  0  0  0  0  0  0  0
   41.1195   33.5914   46.2509 H   0  0  0  0  0  0  0  0  0  0  0  0
   41.1029   32.0238   44.3433 H   0  0  0  0  0  0  0  0  0  0  0  0
   39.4258   30.2250   44.1764 H   0  0  0  0  0  0  0  0  0  0  0  0
   37.7154   30.0016   45.9935 H   0  0  0  0  0  0  0  0  0  0  0  0
   34.3245   26.8007   49.2263 H   0  0  0  0  0  0  0  0  0  0  0  0
   31.5141   27.2171   49.4729 H   0  0  0  0  0  0  0  0  0  0  0  0
   31.5984   28.6685   48.9223 H   0  0  0  0  0  0  0  0  0  0  0  0
   32.5674   27.1995   46.4497 H   0  0  0  0  0  0  0  0  0  0  0  0
   34.4121   25.5678   44.9757 H   0  0  0  0  0  0  0  0  0  0  0  0
   36.4281   24.1783   44.6182 H   0  0  0  0  0  0  0  0  0  0  0  0
   36.8307   22.2055   46.3660 H   0  0  0  0  0  0  0  0  0  0  0  0
  1  6  2  0
  1  2  1  0
  2  3  2  0
  3  4  1  0
  5 17  1  0
  5  4  2  0
  6  5  1  0
  7  2  1  0
  7  8  2  0
  8  9  1  0
 10  9  2  0
 11 10  1  0
 12 11  2  0
 13 12  1  0
 14 13  2  0
 14 15  1  0
 15 16  2  0
 16 11  1  0
 16  7  1  0
 17 18  1  0
 19 17  1  0
 19 18  1  0
 20 19  1  0
 21 20  1  0
 21 25  1  0
 22 21  2  0
 23 22  1  0
 23 24  2  0
 24 25  1  0
  1 26  1  0
  3 27  1  0
  8 28  1  0
  9 29  1  0
 10 30  1  0
 12 31  1  0
 13 32  1  0
 14 33  1  0
 15 34  1  0
 17 35  1  1
 18 36  1  0
 18 37  1  0
 19 38  1  6
 22 39  1  0
 23 40  1  0
 24 41  1  0
M  ISO  8  26  14  27  14  28  14  29  14  30  14  31  14  32  14  33  14
M  ISO  8  34  14  35  13  36  13  37  13  38  13  39  14  40  14  41  14
M  END
>  <minimizedAffinity>  (1) 
-6.61692047

>  <minimizedRMSD>  (1) 
0.549868405

$$$$
