
     RDKit          3D

 40 44  0  0  1  0  0  0  0  0999 V2000
   35.3800   30.3710   47.2920 C   0  0  0  0  0  0  0  0  0  0  0  0
   36.4400   30.5640   48.1620 C   0  0  0  0  0  0  0  0  0  0  0  0
   36.5130   29.6000   49.2200 C   0  0  0  0  0  0  0  0  0  0  0  0
   35.5860   28.5970   49.3080 N   0  0  0  0  0  0  0  0  0  0  0  0
   34.5980   28.4920   48.4170 C   0  0  0  0  0  0  0  0  0  0  0  0
   34.4920   29.3730   47.4150 N   0  0  0  0  0  0  0  0  0  0  0  0
   37.4690   31.5750   48.1750 C   0  0  0  0  0  0  0  0  0  0  0  0
   37.4370   32.3120   49.3250 C   0  0  0  0  0  0  0  0  0  0  0  0
   38.3470   33.3480   49.5490 C   0  0  0  0  0  0  0  0  0  0  0  0
   39.2970   33.6360   48.5910 C   0  0  0  0  0  0  0  0  0  0  0  0
   39.3120   32.8860   47.4430 C   0  0  0  0  0  0  0  0  0  0  0  0
   40.2350   33.0860   46.3940 C   0  0  0  0  0  0  0  0  0  0  0  0
   40.1990   32.3010   45.2710 C   0  0  0  0  0  0  0  0  0  0  0  0
   39.2870   31.3080   45.1150 C   0  0  0  0  0  0  0  0  0  0  0  0
   38.3670   31.0880   46.1310 C   0  0  0  0  0  0  0  0  0  0  0  0
   38.4110   31.8770   47.2490 C   0  0  0  0  0  0  0  0  0  0  0  0
   33.6210   27.3720   48.5650 C   0  0  1  0  0  0  0  0  0  0  0  0
   32.1670   27.7090   48.7030 C   0  0  0  0  0  0  0  0  0  0  0  0
   32.6900   27.0500   47.4460 C   0  0  2  0  0  0  0  0  0  0  0  0
   32.3580   25.3120   47.1050 S   0  0  0  0  0  0  0  0  0  0  0  0
   30.6750   25.2370   46.4490 C   0  0  0  0  0  0  0  0  0  0  0  0
   30.3810   24.2040   45.5690 C   0  0  0  0  0  0  0  0  0  0  0  0
   28.6210   24.5130   45.1730 S   0  0  0  0  0  0  0  0  0  0  0  0
   28.5990   26.0380   46.3110 C   0  0  0  0  0  0  0  0  0  0  0  0
   29.6550   26.0470   46.6940 N   0  0  0  0  0  0  0  0  0  0  0  0
   35.2596   31.0741   46.4547 H   0  0  0  0  0  0  0  0  0  0  0  0
   37.3189   29.6666   49.9657 H   0  0  0  0  0  0  0  0  0  0  0  0
   36.6796   32.0851   50.0897 H   0  0  0  0  0  0  0  0  0  0  0  0
   38.3064   33.9295   50.4818 H   0  0  0  0  0  0  0  0  0  0  0  0
   40.0243   34.4469   48.7441 H   0  0  0  0  0  0  0  0  0  0  0  0
   40.9912   33.8803   46.4787 H   0  0  0  0  0  0  0  0  0  0  0  0
   40.9322   32.4814   44.4711 H   0  0  0  0  0  0  0  0  0  0  0  0
   39.2771   30.6915   44.2041 H   0  0  0  0  0  0  0  0  0  0  0  0
   37.6138   30.2916   46.0392 H   0  0  0  0  0  0  0  0  0  0  0  0
   34.3463   26.7868   49.1493 H   0  0  0  0  0  0  0  0  0  0  0  0
   31.5329   27.1420   49.4004 H   0  0  0  0  0  0  0  0  0  0  0  0
   31.5938   28.6207   48.9271 H   0  0  0  0  0  0  0  0  0  0  0  0
   32.6173   27.2906   46.3751 H   0  0  0  0  0  0  0  0  0  0  0  0
   31.0394   23.4026   45.2025 H   0  0  0  0  0  0  0  0  0  0  0  0
   27.7717   26.7277   46.5345 H   0  0  0  0  0  0  0  0  0  0  0  0
  1  6  2  0
  1  2  1  0
  2  7  1  0
  2  3  2  0
  3  4  1  0
  5 17  1  0
  5  4  2  0
  6  5  1  0
  7  8  2  0
  8  9  1  0
 10  9  2  0
 11 10  1  0
 12 11  2  0
 13 12  1  0
 14 13  2  0
 14 15  1  0
 15 16  2  0
 16 11  1  0
 16  7  1  0
 17 18  1  0
 19 17  1  0
 19 18  1  0
 20 19  1  0
 21 25  1  0
 21 20  1  0
 22 21  2  0
 23 22  1  0
 23 24  1  0
 24 25  2  0
  1 26  1  0
  3 27  1  0
  8 28  1  0
  9 29  1  0
 10 30  1  0
 12 31  1  0
 13 32  1  0
 14 33  1  0
 15 34  1  0
 17 35  1  1
 18 36  1  0
 18 37  1  0
 19 38  1  6
 22 39  1  0
 24 40  1  0
M  ISO  8  26  14  27  14  28  14  29  14  30  14  31  14  32  14  33  14
M  ISO  7  34  14  35  13  36  13  37  13  38  13  39  14  40  14
M  END
>  <minimizedAffinity>  (1) 
-6.59831667

>  <minimizedRMSD>  (1) 
0.902774155

$$$$
