
     RDKit          3D

 37 40  0  0  1  0  0  0  0  0999 V2000
   35.5130   30.3650   47.2730 C   0  0  0  0  0  0  0  0  0  0  0  0
   36.5900   30.5810   48.1160 C   0  0  0  0  0  0  0  0  0  0  0  0
   36.6840   29.6500   49.2000 C   0  0  0  0  0  0  0  0  0  0  0  0
   35.7580   28.6590   49.3310 N   0  0  0  0  0  0  0  0  0  0  0  0
   34.7500   28.5220   48.4730 C   0  0  0  0  0  0  0  0  0  0  0  0
   34.6260   29.3720   47.4450 N   0  0  0  0  0  0  0  0  0  0  0  0
   37.6190   31.5920   48.0730 C   0  0  0  0  0  0  0  0  0  0  0  0
   37.5700   32.4030   49.1770 C   0  0  0  0  0  0  0  0  0  0  0  0
   38.4740   33.4530   49.3440 C   0  0  0  0  0  0  0  0  0  0  0  0
   39.4380   33.6810   48.3810 C   0  0  0  0  0  0  0  0  0  0  0  0
   39.4690   32.8540   47.2790 C   0  0  0  0  0  0  0  0  0  0  0  0
   40.4040   32.9910   46.2380 C   0  0  0  0  0  0  0  0  0  0  0  0
   40.3840   32.1340   45.1670 C   0  0  0  0  0  0  0  0  0  0  0  0
   39.4740   31.1300   45.0650 C   0  0  0  0  0  0  0  0  0  0  0  0
   38.5430   30.9760   46.0800 C   0  0  0  0  0  0  0  0  0  0  0  0
   38.5760   31.8350   47.1370 C   0  0  0  0  0  0  0  0  0  0  0  0
   33.7740   27.4100   48.6740 C   0  0  1  0  0  0  0  0  0  0  0  0
   32.3100   27.7400   48.6610 C   0  0  0  0  0  0  0  0  0  0  0  0
   32.9360   26.9490   47.5310 C   0  0  2  0  0  0  0  0  0  0  0  0
   32.6320   25.1870   47.3580 S   0  0  0  0  0  0  0  0  0  0  0  0
   31.1200   24.9780   46.3490 C   0  0  0  0  0  0  0  0  0  0  0  0
   35.3770   31.0427   46.4173 H   0  0  0  0  0  0  0  0  0  0  0  0
   37.5046   29.7349   49.9276 H   0  0  0  0  0  0  0  0  0  0  0  0
   36.8039   32.2229   49.9456 H   0  0  0  0  0  0  0  0  0  0  0  0
   38.4194   34.0945   50.2359 H   0  0  0  0  0  0  0  0  0  0  0  0
   40.1622   34.5016   48.4910 H   0  0  0  0  0  0  0  0  0  0  0  0
   41.1572   33.7914   46.2827 H   0  0  0  0  0  0  0  0  0  0  0  0
   41.1272   32.2635   44.3664 H   0  0  0  0  0  0  0  0  0  0  0  0
   39.4763   30.4549   44.1966 H   0  0  0  0  0  0  0  0  0  0  0  0
   37.7909   30.1746   46.0331 H   0  0  0  0  0  0  0  0  0  0  0  0
   34.4550   26.9053   49.3751 H   0  0  0  0  0  0  0  0  0  0  0  0
   31.6265   27.2467   49.3678 H   0  0  0  0  0  0  0  0  0  0  0  0
   31.7154   28.6625   48.7345 H   0  0  0  0  0  0  0  0  0  0  0  0
   32.9516   27.0643   46.4372 H   0  0  0  0  0  0  0  0  0  0  0  0
   30.2505   24.8578   47.0120 H   0  0  0  0  0  0  0  0  0  0  0  0
   30.9773   25.8650   45.7142 H   0  0  0  0  0  0  0  0  0  0  0  0
   31.2232   24.0856   45.7142 H   0  0  0  0  0  0  0  0  0  0  0  0
  1  6  2  0
  1  2  1  0
  2  3  2  0
  3  4  1  0
  5 17  1  0
  5  4  2  0
  6  5  1  0
  7  2  1  0
  7  8  2  0
  8  9  1  0
 10  9  2  0
 11 10  1  0
 12 11  2  0
 13 12  1  0
 14 13  2  0
 14 15  1  0
 15 16  2  0
 16 11  1  0
 16  7  1  0
 18 17  1  0
 19 18  1  0
 19 17  1  0
 20 19  1  0
 21 20  1  0
  1 22  1  0
  3 23  1  0
  8 24  1  0
  9 25  1  0
 10 26  1  0
 12 27  1  0
 13 28  1  0
 14 29  1  0
 15 30  1  0
 17 31  1  1
 18 32  1  0
 18 33  1  0
 19 34  1  6
 21 35  1  0
 21 36  1  0
 21 37  1  0
M  ISO  8  22  14  23  14  24  14  25  14  26  14  27  14  28  14  29  14
M  ISO  8  30  14  31  13  32  13  33  13  34  13  35   8  36   8  37   8
M  END
>  <minimizedAffinity>  (1) 
-6.33725119

>  <minimizedRMSD>  (1) 
0.142571732

$$$$
