
     RDKit          3D

 22 24  0  0  0  0  0  0  0  0999 V2000
   37.7510   31.7710   49.0520 N   0  0  0  0  0  0  0  0  0  0  0  0
   38.1440   33.0100   49.4300 C   0  0  0  0  0  0  0  0  0  0  0  0
   38.9000   33.5990   48.5020 N   0  0  0  0  0  0  0  0  0  0  0  0
   39.0130   32.7380   47.4890 C   0  0  0  0  0  0  0  0  0  0  0  0
   39.6330   32.7100   46.2550 C   0  0  0  0  0  0  0  0  0  0  0  0
   39.5940   31.6870   45.3880 N   0  0  0  0  0  0  0  0  0  0  0  0
   38.8810   30.6150   45.7870 C   0  0  0  0  0  0  0  0  0  0  0  0
   38.2690   30.6100   46.9740 N   0  0  0  0  0  0  0  0  0  0  0  0
   38.2860   31.5980   47.8490 C   0  0  0  0  0  0  0  0  0  0  0  0
   35.6390   30.6380   49.3790 C   0  0  0  0  0  0  0  0  0  0  0  0
   36.9550   30.9100   49.8070 C   0  0  0  0  0  0  0  0  0  0  0  0
   37.4090   30.3100   50.9640 C   0  0  0  0  0  0  0  0  0  0  0  0
   36.5460   29.4770   51.6390 N   0  0  0  0  0  0  0  0  0  0  0  0
   35.2970   29.2350   51.2090 C   0  0  0  0  0  0  0  0  0  0  0  0
   34.8530   29.8070   50.0960 N   0  0  0  0  0  0  0  0  0  0  0  0
   40.3440   33.8670   45.9390 O   0  0  0  0  0  0  0  0  0  0  0  0
   37.8722   33.4759   50.3887 H   0  0  0  0  0  0  0  0  0  0  0  0
   38.8025   29.7368   45.1293 H   0  0  0  0  0  0  0  0  0  0  0  0
   35.2527   31.1034   48.4602 H   0  0  0  0  0  0  0  0  0  0  0  0
   38.4285   30.4918   51.3350 H   0  0  0  0  0  0  0  0  0  0  0  0
   34.6406   28.5617   51.7798 H   0  0  0  0  0  0  0  0  0  0  0  0
   40.8201   33.9346   45.0737 H   0  0  0  0  0  0  0  0  0  0  0  0
  1  2  1  0
  1 11  1  0
  3  2  2  0
  4  9  2  0
  4  3  1  0
  5  4  1  0
  6  7  1  0
  6  5  2  0
  7  8  2  0
  8  9  1  0
  9  1  1  0
 10 11  2  0
 10 15  1  0
 11 12  1  0
 12 13  2  0
 14 13  1  0
 15 14  2  0
 16  5  1  0
  2 17  1  0
  7 18  1  0
 10 19  1  0
 12 20  1  0
 14 21  1  0
 16 22  1  0
M  ISO  6  17  14  18  14  19  14  20  14  21  14  22   3
M  END
>  <minimizedAffinity>  (1) 
-5.35571861

>  <minimizedRMSD>  (1) 
0.163125306

$$$$
