
     RDKit          3D

 28 31  0  0  0  0  0  0  0  0999 V2000
   37.2500   31.2260   48.5570 N   0  0  0  0  0  0  0  0  0  0  0  0
   38.2330   32.0950   48.8300 C   0  0  0  0  0  0  0  0  0  0  0  0
   38.8010   32.5780   47.7070 N   0  0  0  0  0  0  0  0  0  0  0  0
   38.1620   31.9990   46.6700 C   0  0  0  0  0  0  0  0  0  0  0  0
   38.2650   32.0670   45.3050 C   0  0  0  0  0  0  0  0  0  0  0  0
   37.4990   31.3800   44.4540 N   0  0  0  0  0  0  0  0  0  0  0  0
   36.5700   30.5710   45.0180 C   0  0  0  0  0  0  0  0  0  0  0  0
   36.4610   30.4950   46.3480 N   0  0  0  0  0  0  0  0  0  0  0  0
   37.1990   31.1590   47.2220 C   0  0  0  0  0  0  0  0  0  0  0  0
   35.0820   30.4060   49.2900 C   0  0  0  0  0  0  0  0  0  0  0  0
   36.4680   30.5510   49.4890 C   0  0  0  0  0  0  0  0  0  0  0  0
   37.0150   30.0010   50.6390 C   0  0  0  0  0  0  0  0  0  0  0  0
   36.1690   29.3510   51.5070 N   0  0  0  0  0  0  0  0  0  0  0  0
   34.8580   29.2300   51.2890 C   0  0  0  0  0  0  0  0  0  0  0  0
   34.3070   29.7570   50.1790 N   0  0  0  0  0  0  0  0  0  0  0  0
   39.2970   32.9680   44.7280 C   0  0  0  0  0  0  0  0  0  0  0  0
   40.7390   32.6370   44.8840 C   0  0  0  0  0  0  0  0  0  0  0  0
   40.1210   32.4300   43.5440 C   0  0  0  0  0  0  0  0  0  0  0  0
   38.5393   32.3797   49.8474 H   0  0  0  0  0  0  0  0  0  0  0  0
   35.9027   29.9743   44.3787 H   0  0  0  0  0  0  0  0  0  0  0  0
   34.6215   30.8330   48.3869 H   0  0  0  0  0  0  0  0  0  0  0  0
   38.0915   30.0822   50.8501 H   0  0  0  0  0  0  0  0  0  0  0  0
   34.2267   28.6992   52.0168 H   0  0  0  0  0  0  0  0  0  0  0  0
   38.6849   33.8579   44.9365 H   0  0  0  0  0  0  0  0  0  0  0  0
   41.4702   33.4464   45.0262 H   0  0  0  0  0  0  0  0  0  0  0  0
   41.3050   31.9922   45.5724 H   0  0  0  0  0  0  0  0  0  0  0  0
   39.9471   31.4116   43.1662 H   0  0  0  0  0  0  0  0  0  0  0  0
   40.3364   32.7682   42.5197 H   0  0  0  0  0  0  0  0  0  0  0  0
  1  2  1  0
  1 11  1  0
  3  2  2  0
  4  9  2  0
  4  3  1  0
  5  4  1  0
  6  7  1  0
  6  5  2  0
  7  8  2  0
  8  9  1  0
  9  1  1  0
 10 11  2  0
 10 15  1  0
 11 12  1  0
 12 13  2  0
 14 13  1  0
 15 14  2  0
 16 17  1  0
 16  5  1  0
 18 16  1  0
 18 17  1  0
  2 19  1  0
  7 20  1  0
 10 21  1  0
 12 22  1  0
 14 23  1  0
 16 24  1  0
 17 25  1  0
 17 26  1  0
 18 27  1  0
 18 28  1  0
M  ISO  8  19  14  20  14  21  14  22  14  23  14  24  13  25  13  26  13
M  ISO  2  27  13  28  13
M  END
>  <minimizedAffinity>  (1) 
-5.19379044

>  <minimizedRMSD>  (1) 
1.49193609

$$$$
