
     RDKit          3D

 23 25  0  0  0  0  0  0  0  0999 V2000
   37.5700   31.4020   48.5230 N   0  0  0  0  0  0  0  0  0  0  0  0
   38.5210   32.3170   48.8060 C   0  0  0  0  0  0  0  0  0  0  0  0
   39.0840   32.8250   47.7060 N   0  0  0  0  0  0  0  0  0  0  0  0
   38.4890   32.2280   46.6530 C   0  0  0  0  0  0  0  0  0  0  0  0
   38.6120   32.3110   45.2920 C   0  0  0  0  0  0  0  0  0  0  0  0
   37.8920   31.5990   44.4260 N   0  0  0  0  0  0  0  0  0  0  0  0
   36.9780   30.7410   44.9670 C   0  0  0  0  0  0  0  0  0  0  0  0
   36.8450   30.6500   46.2890 N   0  0  0  0  0  0  0  0  0  0  0  0
   37.5500   31.3470   47.1860 C   0  0  0  0  0  0  0  0  0  0  0  0
   35.4280   30.5260   49.2160 C   0  0  0  0  0  0  0  0  0  0  0  0
   36.7970   30.6890   49.4420 C   0  0  0  0  0  0  0  0  0  0  0  0
   37.3580   30.1330   50.5810 C   0  0  0  0  0  0  0  0  0  0  0  0
   36.5160   29.4480   51.4260 N   0  0  0  0  0  0  0  0  0  0  0  0
   35.2010   29.3070   51.1840 C   0  0  0  0  0  0  0  0  0  0  0  0
   34.6660   29.8400   50.0920 N   0  0  0  0  0  0  0  0  0  0  0  0
   39.6140   33.2520   44.8070 C   0  0  0  0  0  0  0  0  0  0  0  0
   40.8360   32.9330   44.7620 O   0  0  0  0  0  0  0  0  0  0  0  0
   38.8012   32.6116   49.8281 H   0  0  0  0  0  0  0  0  0  0  0  0
   36.3495   30.1230   44.3089 H   0  0  0  0  0  0  0  0  0  0  0  0
   34.9680   30.9607   48.3163 H   0  0  0  0  0  0  0  0  0  0  0  0
   38.4311   30.2352   50.7999 H   0  0  0  0  0  0  0  0  0  0  0  0
   34.5683   28.7500   51.8908 H   0  0  0  0  0  0  0  0  0  0  0  0
   39.3022   34.2535   44.4756 H   0  0  0  0  0  0  0  0  0  0  0  0
  1  2  1  0
  1 11  1  0
  3  2  2  0
  4  9  2  0
  4  3  1  0
  5  4  1  0
  6  7  1  0
  6  5  2  0
  7  8  2  0
  8  9  1  0
  9  1  1  0
 10 11  2  0
 10 15  1  0
 11 12  1  0
 12 13  2  0
 14 13  1  0
 15 14  2  0
 16  5  1  0
 17 16  2  0
  2 18  1  0
  7 19  1  0
 10 20  1  0
 12 21  1  0
 14 22  1  0
 16 23  1  0
M  ISO  6  18  14  19  14  20  14  21  14  22  14  23   6
M  END
>  <minimizedAffinity>  (1) 
-5.10278797

>  <minimizedRMSD>  (1) 
1.2967298

$$$$
