
     RDKit          3D

 39 42  0  0  1  0  0  0  0  0999 V2000
   37.6760   30.7830   47.5800 N   0  0  0  0  0  0  0  0  0  0  0  0
   38.7970   31.3590   47.1030 C   0  0  0  0  0  0  0  0  0  0  0  0
   38.7010   31.5820   45.7940 N   0  0  0  0  0  0  0  0  0  0  0  0
   37.4890   31.1440   45.3870 C   0  0  0  0  0  0  0  0  0  0  0  0
   36.8590   31.0830   44.1790 C   0  0  0  0  0  0  0  0  0  0  0  0
   35.6080   30.5440   44.0270 N   0  0  0  0  0  0  0  0  0  0  0  0
   35.0220   30.0730   45.1400 C   0  0  0  0  0  0  0  0  0  0  0  0
   35.6530   30.1400   46.3180 N   0  0  0  0  0  0  0  0  0  0  0  0
   36.8600   30.6470   46.5170 C   0  0  0  0  0  0  0  0  0  0  0  0
   36.4870   29.4290   49.1990 C   0  0  0  0  0  0  0  0  0  0  0  0
   37.4280   30.4010   48.9120 C   0  0  0  0  0  0  0  0  0  0  0  0
   38.1140   30.9820   49.9540 C   0  0  0  0  0  0  0  0  0  0  0  0
   37.8270   30.5620   51.2270 N   0  0  0  0  0  0  0  0  0  0  0  0
   36.8990   29.6080   51.4680 C   0  0  0  0  0  0  0  0  0  0  0  0
   36.2300   29.0410   50.4680 N   0  0  0  0  0  0  0  0  0  0  0  0
   37.4490   31.7190   42.9580 C   0  0  2  0  0  0  0  0  0  0  0  0
   36.6810   32.8810   42.4750 C   0  0  0  0  0  0  0  0  0  0  0  0
   37.5220   30.6160   41.8490 C   0  0  0  0  0  0  0  0  0  0  0  0
   38.7140   29.7930   41.9270 C   0  0  0  0  0  0  0  0  0  0  0  0
   39.0100   28.4750   42.2000 C   0  0  0  0  0  0  0  0  0  0  0  0
   40.2570   27.9420   42.1940 C   0  0  0  0  0  0  0  0  0  0  0  0
   41.3220   28.7610   41.8970 C   0  0  0  0  0  0  0  0  0  0  0  0
   41.0550   30.0810   41.6200 C   0  0  0  0  0  0  0  0  0  0  0  0
   39.7890   30.5930   41.6330 N   0  0  0  0  0  0  0  0  0  0  0  0
   39.6757   31.6117   47.7146 H   0  0  0  0  0  0  0  0  0  0  0  0
   34.0170   29.6294   45.0827 H   0  0  0  0  0  0  0  0  0  0  0  0
   35.9331   28.9593   48.3728 H   0  0  0  0  0  0  0  0  0  0  0  0
   38.8698   31.7600   49.7709 H   0  0  0  0  0  0  0  0  0  0  0  0
   36.6951   29.2974   52.5033 H   0  0  0  0  0  0  0  0  0  0  0  0
   38.4454   32.1102   43.2113 H   0  0  0  0  0  0  0  0  0  0  0  0
   36.3026   33.4535   43.3347 H   0  0  0  0  0  0  0  0  0  0  0  0
   37.3329   33.5235   41.8649 H   0  0  0  0  0  0  0  0  0  0  0  0
   35.8344   32.5331   41.8649 H   0  0  0  0  0  0  0  0  0  0  0  0
   37.5035   31.1093   40.8660 H   0  0  0  0  0  0  0  0  0  0  0  0
   36.6594   29.9500   41.9987 H   0  0  0  0  0  0  0  0  0  0  0  0
   38.1716   27.8048   42.4409 H   0  0  0  0  0  0  0  0  0  0  0  0
   40.4137   26.8773   42.4218 H   0  0  0  0  0  0  0  0  0  0  0  0
   42.3513   28.3732   41.8817 H   0  0  0  0  0  0  0  0  0  0  0  0
   41.8936   30.7506   41.3786 H   0  0  0  0  0  0  0  0  0  0  0  0
  1 11  1  0
  2  1  1  0
  3  2  2  0
  4  3  1  0
  4  9  2  0
  5  4  1  0
  6  5  2  0
  6  7  1  0
  7  8  2  0
  8  9  1  0
  9  1  1  0
 10 15  2  0
 11 10  1  0
 11 12  2  0
 12 13  1  0
 13 14  2  0
 15 14  1  0
 16  5  1  0
 17 16  1  0
 18 19  1  0
 18 16  1  0
 19 20  2  0
 21 20  1  0
 22 21  2  0
 23 24  2  0
 23 22  1  0
 24 19  1  0
  2 25  1  0
  7 26  1  0
 10 27  1  0
 12 28  1  0
 14 29  1  0
 16 30  1  1
 17 31  1  0
 17 32  1  0
 17 33  1  0
 18 34  1  0
 18 35  1  0
 20 36  1  0
 21 37  1  0
 22 38  1  0
 23 39  1  0
M  ISO  8  25  14  26  14  27  14  28  14  29  14  30   8  31   8  32   8
M  ISO  7  33   8  34   8  35   8  36  14  37  14  38  14  39  14
M  END
>  <minimizedAffinity>  (1) 
-5.19540453

>  <minimizedRMSD>  (1) 
3.82077289

$$$$
