
     RDKit          3D

 38 41  0  0  1  0  0  0  0  0999 V2000
   37.7280   30.8190   47.5400 N   0  0  0  0  0  0  0  0  0  0  0  0
   38.8520   31.3980   47.1130 C   0  0  0  0  0  0  0  0  0  0  0  0
   38.8070   31.6330   45.7900 N   0  0  0  0  0  0  0  0  0  0  0  0
   37.6100   31.1900   45.3450 C   0  0  0  0  0  0  0  0  0  0  0  0
   37.0100   31.1330   44.1160 C   0  0  0  0  0  0  0  0  0  0  0  0
   35.7680   30.5930   43.9240 N   0  0  0  0  0  0  0  0  0  0  0  0
   35.1500   30.1140   45.0170 C   0  0  0  0  0  0  0  0  0  0  0  0
   35.7430   30.1740   46.2070 N   0  0  0  0  0  0  0  0  0  0  0  0
   36.9500   30.6850   46.4530 C   0  0  0  0  0  0  0  0  0  0  0  0
   36.4690   29.4600   49.1140 C   0  0  0  0  0  0  0  0  0  0  0  0
   37.4330   30.4180   48.8600 C   0  0  0  0  0  0  0  0  0  0  0  0
   38.1180   30.9840   49.9270 C   0  0  0  0  0  0  0  0  0  0  0  0
   37.7990   30.5590   51.1900 N   0  0  0  0  0  0  0  0  0  0  0  0
   36.8500   29.6180   51.4040 C   0  0  0  0  0  0  0  0  0  0  0  0
   36.1790   29.0620   50.3740 N   0  0  0  0  0  0  0  0  0  0  0  0
   37.6480   31.7690   42.9200 C   0  0  2  0  0  0  0  0  0  0  0  0
   36.8880   32.9200   42.3940 C   0  0  0  0  0  0  0  0  0  0  0  0
   37.8120   30.6620   41.8260 C   0  0  0  0  0  0  0  0  0  0  0  0
   39.1370   30.0680   41.8110 C   0  0  0  0  0  0  0  0  0  0  0  0
   40.3600   30.2580   42.4130 C   0  0  0  0  0  0  0  0  0  0  0  0
   41.4610   29.4820   42.1870 C   0  0  0  0  0  0  0  0  0  0  0  0
   41.3520   28.4610   41.3190 N   0  0  0  0  0  0  0  0  0  0  0  0
   40.1720   28.2330   40.7010 C   0  0  0  0  0  0  0  0  0  0  0  0
   39.0960   29.0110   40.9380 N   0  0  0  0  0  0  0  0  0  0  0  0
   39.7051   31.6504   47.7599 H   0  0  0  0  0  0  0  0  0  0  0  0
   34.1478   29.6696   44.9276 H   0  0  0  0  0  0  0  0  0  0  0  0
   35.9244   29.0103   48.2707 H   0  0  0  0  0  0  0  0  0  0  0  0
   38.8916   31.7487   49.7637 H   0  0  0  0  0  0  0  0  0  0  0  0
   36.6225   29.3019   52.4327 H   0  0  0  0  0  0  0  0  0  0  0  0
   38.6234   32.1801   43.2193 H   0  0  0  0  0  0  0  0  0  0  0  0
   36.4956   33.5143   43.2324 H   0  0  0  0  0  0  0  0  0  0  0  0
   37.5505   33.5466   41.7788 H   0  0  0  0  0  0  0  0  0  0  0  0
   36.0515   32.5568   41.7788 H   0  0  0  0  0  0  0  0  0  0  0  0
   37.0747   29.8685   42.0176 H   0  0  0  0  0  0  0  0  0  0  0  0
   37.6563   31.1414   40.8483 H   0  0  0  0  0  0  0  0  0  0  0  0
   40.4573   31.0913   43.1244 H   0  0  0  0  0  0  0  0  0  0  0  0
   42.4115   29.6869   42.7014 H   0  0  0  0  0  0  0  0  0  0  0  0
   40.0874   27.3970   39.9911 H   0  0  0  0  0  0  0  0  0  0  0  0
  1 11  1  0
  2  1  1  0
  3  2  2  0
  4  3  1  0
  4  9  2  0
  5  4  1  0
  6  5  2  0
  6  7  1  0
  7  8  2  0
  8  9  1  0
  9  1  1  0
 10 15  2  0
 11 10  1  0
 11 12  2  0
 12 13  1  0
 13 14  2  0
 15 14  1  0
 16  5  1  0
 17 16  1  0
 18 16  1  0
 19 18  1  0
 19 20  2  0
 21 20  1  0
 22 21  2  0
 23 24  2  0
 23 22  1  0
 24 19  1  0
  2 25  1  0
  7 26  1  0
 10 27  1  0
 12 28  1  0
 14 29  1  0
 16 30  1  1
 17 31  1  0
 17 32  1  0
 17 33  1  0
 18 34  1  0
 18 35  1  0
 20 36  1  0
 21 37  1  0
 23 38  1  0
M  ISO  8  25  14  26  14  27  14  28  14  29  14  30   8  31   8  32   8
M  ISO  6  33   8  34   8  35   8  36  14  37  14  38  14
M  END
>  <minimizedAffinity>  (1) 
-5.15816069

>  <minimizedRMSD>  (1) 
3.78410864

$$$$
