
     RDKit          3D

 34 37  0  0  0  0  0  0  0  0999 V2000
   34.5640   29.6530   45.5710 N   0  0  0  0  0  0  0  0  0  0  0  0
   35.0830   29.6710   44.3190 C   0  0  0  0  0  0  0  0  0  0  0  0
   36.3440   30.1710   44.0900 C   0  0  0  0  0  0  0  0  0  0  0  0
   36.9920   30.6280   45.2090 C   0  0  0  0  0  0  0  0  0  0  0  0
   38.1630   31.0990   45.0400 O   0  0  0  0  0  0  0  0  0  0  0  0
   36.5300   30.6330   46.4630 N   0  0  0  0  0  0  0  0  0  0  0  0
   35.2730   30.1210   46.6030 C   0  0  0  0  0  0  0  0  0  0  0  0
   34.7660   30.0920   47.7560 O   0  0  0  0  0  0  0  0  0  0  0  0
   37.2690   31.1260   47.5660 C   0  0  0  0  0  0  0  0  0  0  0  0
   38.0920   32.1810   47.3290 N   0  0  0  0  0  0  0  0  0  0  0  0
   38.8530   32.7540   48.2770 C   0  0  0  0  0  0  0  0  0  0  0  0
   38.8180   32.2710   49.5500 N   0  0  0  0  0  0  0  0  0  0  0  0
   38.0140   31.2210   49.8330 C   0  0  0  0  0  0  0  0  0  0  0  0
   37.9340   30.6840   51.1110 C   0  0  0  0  0  0  0  0  0  0  0  0
   37.1130   29.6160   51.3900 C   0  0  0  0  0  0  0  0  0  0  0  0
   36.3520   29.0690   50.3750 C   0  0  0  0  0  0  0  0  0  0  0  0
   36.3850   29.5590   49.0710 C   0  0  0  0  0  0  0  0  0  0  0  0
   37.2320   30.6360   48.8550 C   0  0  0  0  0  0  0  0  0  0  0  0
   33.2050   27.7250   45.7860 C   0  0  0  0  0  0  0  0  0  0  0  0
   33.2680   29.1270   45.7360 C   0  0  0  0  0  0  0  0  0  0  0  0
   32.0830   29.8330   45.8530 C   0  0  0  0  0  0  0  0  0  0  0  0
   30.9170   29.1610   46.0070 N   0  0  0  0  0  0  0  0  0  0  0  0
   30.8760   27.8070   46.0530 C   0  0  0  0  0  0  0  0  0  0  0  0
   32.0220   27.1130   45.9410 N   0  0  0  0  0  0  0  0  0  0  0  0
   34.4902   29.2821   43.4780 H   0  0  0  0  0  0  0  0  0  0  0  0
   36.7970   30.2018   43.0881 H   0  0  0  0  0  0  0  0  0  0  0  0
   39.5000   33.6076   48.0264 H   0  0  0  0  0  0  0  0  0  0  0  0
   38.5401   31.1220   51.9177 H   0  0  0  0  0  0  0  0  0  0  0  0
   37.0631   29.2028   52.4082 H   0  0  0  0  0  0  0  0  0  0  0  0
   35.6965   28.2160   50.6045 H   0  0  0  0  0  0  0  0  0  0  0  0
   35.7786   29.1201   48.2650 H   0  0  0  0  0  0  0  0  0  0  0  0
   34.1255   27.1292   45.6981 H   0  0  0  0  0  0  0  0  0  0  0  0
   32.0882   30.9325   45.8211 H   0  0  0  0  0  0  0  0  0  0  0  0
   29.9174   27.2827   46.1803 H   0  0  0  0  0  0  0  0  0  0  0  0
  1 20  1  0
  1  7  1  0
  2  1  1  0
  3  2  2  0
  3  4  1  0
  4  6  1  0
  5  4  2  0
  6  7  1  0
  6  9  1  0
  7  8  2  0
  9 18  1  0
 10  9  2  0
 10 11  1  0
 11 12  2  0
 12 13  1  0
 13 14  2  0
 14 15  1  0
 16 15  2  0
 17 16  1  0
 18 17  2  0
 18 13  1  0
 19 24  2  0
 20 19  1  0
 20 21  2  0
 21 22  1  0
 22 23  2  0
 24 23  1  0
  2 25  1  0
  3 26  1  0
 11 27  1  0
 14 28  1  0
 15 29  1  0
 16 30  1  0
 17 31  1  0
 19 32  1  0
 21 33  1  0
 23 34  1  0
M  ISO  8  25  14  26  14  27  14  28  14  29  14  30  14  31  14  32  14
M  ISO  2  33  14  34  14
M  END
>  <minimizedAffinity>  (1) 
-6.75175571

>  <minimizedRMSD>  (1) 
5.36735678

$$$$
