
     RDKit          3D

 42 45  0  0  0  0  0  0  0  0999 V2000
   33.4220   30.5680   44.0250 C   0  0  0  0  0  0  0  0  0  0  0  0
   33.6770   31.6420   43.1370 C   0  0  0  0  0  0  0  0  0  0  0  0
   32.5740   32.2840   42.5570 C   0  0  0  0  0  0  0  0  0  0  0  0
   31.3190   31.8380   42.8830 N   0  0  0  0  0  0  0  0  0  0  0  0
   31.1220   30.8160   43.7300 C   0  0  0  0  0  0  0  0  0  0  0  0
   32.1540   30.1980   44.2870 N   0  0  0  0  0  0  0  0  0  0  0  0
   29.7840   30.4040   44.0220 N   0  0  0  0  0  0  0  0  0  0  0  0
   28.8220   30.4160   43.0860 C   0  0  0  0  0  0  0  0  0  0  0  0
   27.5240   30.0180   43.3510 C   0  0  0  0  0  0  0  0  0  0  0  0
   27.3040   29.6150   44.6380 C   0  0  0  0  0  0  0  0  0  0  0  0
   26.1580   29.2350   44.9770 O   0  0  0  0  0  0  0  0  0  0  0  0
   28.2220   29.5800   45.6160 N   0  0  0  0  0  0  0  0  0  0  0  0
   29.4760   29.9850   45.2870 C   0  0  0  0  0  0  0  0  0  0  0  0
   30.3590   29.9670   46.1710 O   0  0  0  0  0  0  0  0  0  0  0  0
   27.6050   27.8320   49.3760 C   0  0  0  0  0  0  0  0  0  0  0  0
   27.4080   29.1790   49.2450 C   0  0  0  0  0  0  0  0  0  0  0  0
   27.5830   29.8520   48.0560 C   0  0  0  0  0  0  0  0  0  0  0  0
   27.9710   29.1520   46.9450 C   0  0  0  0  0  0  0  0  0  0  0  0
   28.1810   27.7710   47.0450 C   0  0  0  0  0  0  0  0  0  0  0  0
   27.9990   27.0990   48.2580 C   0  0  0  0  0  0  0  0  0  0  0  0
   27.3710   27.0300   50.8910 S   0  0  0  0  0  0  0  0  0  0  0  0
   28.5860   26.9970   51.7430 O   0  0  0  0  0  0  0  0  0  0  0  0
   26.2770   27.7640   51.6370 O   0  0  0  0  0  0  0  0  0  0  0  0
   26.4490   30.0110   42.3600 C   0  0  0  0  0  0  0  0  0  0  0  0
   25.6370   31.1820   42.3800 N   0  0  0  0  0  0  0  0  0  0  0  0
   24.4040   31.2750   41.8480 C   0  0  0  0  0  0  0  0  0  0  0  0
   23.8660   32.5010   42.0160 N   0  0  0  0  0  0  0  0  0  0  0  0
   24.8060   33.2090   42.6850 C   0  0  0  0  0  0  0  0  0  0  0  0
   25.8630   32.3830   42.8880 N   0  0  0  0  0  0  0  0  0  0  0  0
   34.2596   30.0365   44.5003 H   0  0  0  0  0  0  0  0  0  0  0  0
   34.7050   31.9611   42.9104 H   0  0  0  0  0  0  0  0  0  0  0  0
   32.7116   33.1230   41.8591 H   0  0  0  0  0  0  0  0  0  0  0  0
   29.0752   30.7549   42.0706 H   0  0  0  0  0  0  0  0  0  0  0  0
   27.0952   29.7517   50.1305 H   0  0  0  0  0  0  0  0  0  0  0  0
   27.4133   30.9374   47.9997 H   0  0  0  0  0  0  0  0  0  0  0  0
   28.4942   27.2056   46.1550 H   0  0  0  0  0  0  0  0  0  0  0  0
   28.1635   26.0136   48.3282 H   0  0  0  0  0  0  0  0  0  0  0  0
   27.0456   25.7266   50.6221 H   0  0  0  0  0  0  0  0  0  0  0  0
   25.8055   29.1401   42.5533 H   0  0  0  0  0  0  0  0  0  0  0  0
   26.9276   29.9714   41.3704 H   0  0  0  0  0  0  0  0  0  0  0  0
   23.8935   30.4465   41.3351 H   0  0  0  0  0  0  0  0  0  0  0  0
   24.7275   34.2586   43.0046 H   0  0  0  0  0  0  0  0  0  0  0  0
  1  6  2  0
  2  1  1  0
  3  4  1  0
  3  2  2  0
  4  5  2  0
  5  7  1  0
  5  6  1  0
  7 13  1  0
  8  9  2  0
  8  7  1  0
  9 10  1  0
 10 11  2  0
 10 12  1  0
 12 18  1  0
 13 12  1  0
 13 14  2  0
 15 21  1  0
 16 15  2  0
 17 16  1  0
 18 19  1  0
 18 17  2  0
 19 20  2  0
 20 15  1  0
 21 23  2  0
 21 22  2  0
 24 25  1  0
 24  9  1  0
 25 29  1  0
 26 27  2  0
 26 25  1  0
 27 28  1  0
 28 29  2  0
  1 30  1  0
  2 31  1  0
  3 32  1  0
  8 33  1  0
 16 34  1  0
 17 35  1  0
 19 36  1  0
 20 37  1  0
 21 38  1  0
 24 39  1  0
 24 40  1  0
 26 41  1  0
 28 42  1  0
M  ISO  8  30  14  31  14  32  14  33  14  34  14  35  14  36  14  37  14
M  ISO  5  38  11  39   8  40   8  41  14  42  14
M  END
>  <minimizedAffinity>  (1) 
-5.06201077

>  <minimizedRMSD>  (1) 
0.443658084

$$$$
