
     RDKit          3D

 28 30  0  0  0  0  0  0  0  0999 V2000
   36.3660   30.2040   47.6550 N   0  0  0  0  0  0  0  0  0  0  0  0
   35.1140   29.9180   47.2260 C   0  0  0  0  0  0  0  0  0  0  0  0
   34.7970   30.0310   45.8900 C   0  0  0  0  0  0  0  0  0  0  0  0
   35.8220   30.4400   45.0800 C   0  0  0  0  0  0  0  0  0  0  0  0
   35.5640   30.5560   43.8330 O   0  0  0  0  0  0  0  0  0  0  0  0
   37.0680   30.7330   45.4550 N   0  0  0  0  0  0  0  0  0  0  0  0
   37.3070   30.5970   46.7920 C   0  0  0  0  0  0  0  0  0  0  0  0
   38.4600   30.8540   47.2250 O   0  0  0  0  0  0  0  0  0  0  0  0
   37.5430   31.0130   49.5470 C   0  0  0  0  0  0  0  0  0  0  0  0
   36.6330   30.0690   49.0410 C   0  0  0  0  0  0  0  0  0  0  0  0
   36.0950   29.1270   49.9030 C   0  0  0  0  0  0  0  0  0  0  0  0
   36.4700   29.1510   51.2080 N   0  0  0  0  0  0  0  0  0  0  0  0
   37.3510   30.0690   51.6860 C   0  0  0  0  0  0  0  0  0  0  0  0
   37.8790   30.9920   50.8440 N   0  0  0  0  0  0  0  0  0  0  0  0
   38.1130   31.1510   44.6170 C   0  0  0  0  0  0  0  0  0  0  0  0
   38.4520   32.4350   44.2420 C   0  0  0  0  0  0  0  0  0  0  0  0
   39.5330   32.5980   43.4000 C   0  0  0  0  0  0  0  0  0  0  0  0
   40.2660   31.5690   42.9340 N   0  0  0  0  0  0  0  0  0  0  0  0
   39.9070   30.3290   43.3200 C   0  0  0  0  0  0  0  0  0  0  0  0
   38.8550   30.1190   44.1440 N   0  0  0  0  0  0  0  0  0  0  0  0
   34.3479   29.5946   47.9461 H   0  0  0  0  0  0  0  0  0  0  0  0
   33.7921   29.8085   45.5019 H   0  0  0  0  0  0  0  0  0  0  0  0
   37.9795   31.7693   48.8781 H   0  0  0  0  0  0  0  0  0  0  0  0
   35.3793   28.3756   49.5380 H   0  0  0  0  0  0  0  0  0  0  0  0
   37.6340   30.0634   52.7490 H   0  0  0  0  0  0  0  0  0  0  0  0
   37.8785   33.3015   44.6030 H   0  0  0  0  0  0  0  0  0  0  0  0
   39.8094   33.6180   43.0946 H   0  0  0  0  0  0  0  0  0  0  0  0
   40.4838   29.4660   42.9560 H   0  0  0  0  0  0  0  0  0  0  0  0
  1 10  1  0
  2  1  1  0
  3  2  2  0
  4  6  1  0
  4  3  1  0
  5  4  2  0
  6  7  1  0
  7  8  2  0
  7  1  1  0
  9 14  2  0
 10  9  1  0
 10 11  2  0
 11 12  1  0
 12 13  2  0
 14 13  1  0
 15  6  1  0
 16 15  2  0
 17 16  1  0
 18 19  1  0
 18 17  2  0
 19 20  2  0
 20 15  1  0
  2 21  1  0
  3 22  1  0
  9 23  1  0
 11 24  1  0
 13 25  1  0
 16 26  1  0
 17 27  1  0
 19 28  1  0
M  ISO  8  21  14  22  14  23  14  24  14  25  14  26  14  27  14  28  14
M  END
>  <minimizedAffinity>  (1) 
-5.11878252

>  <minimizedRMSD>  (1) 
4.46827221

$$$$
