
     RDKit          3D

 46 49  0  0  0  0  0  0  0  0999 V2000
   32.7770   31.0360   42.7110 C   0  0  0  0  0  0  0  0  0  0  0  0
   33.3300   30.3430   41.6070 C   0  0  0  0  0  0  0  0  0  0  0  0
   32.5200   29.4100   40.9460 C   0  0  0  0  0  0  0  0  0  0  0  0
   31.2440   29.2290   41.4120 N   0  0  0  0  0  0  0  0  0  0  0  0
   30.7520   29.9030   42.4620 C   0  0  0  0  0  0  0  0  0  0  0  0
   31.5110   30.7820   43.0860 N   0  0  0  0  0  0  0  0  0  0  0  0
   29.4140   29.6500   42.8750 N   0  0  0  0  0  0  0  0  0  0  0  0
   28.8570   28.4280   42.8100 C   0  0  0  0  0  0  0  0  0  0  0  0
   27.5580   28.1830   43.2110 C   0  0  0  0  0  0  0  0  0  0  0  0
   26.8950   29.2810   43.6770 C   0  0  0  0  0  0  0  0  0  0  0  0
   25.7020   29.1560   44.0670 O   0  0  0  0  0  0  0  0  0  0  0  0
   27.3830   30.5210   43.7700 N   0  0  0  0  0  0  0  0  0  0  0  0
   28.6690   30.6870   43.3570 C   0  0  0  0  0  0  0  0  0  0  0  0
   29.1600   31.8380   43.4310 O   0  0  0  0  0  0  0  0  0  0  0  0
   25.4260   33.6960   45.6670 C   0  0  0  0  0  0  0  0  0  0  0  0
   25.2950   33.5800   44.3060 C   0  0  0  0  0  0  0  0  0  0  0  0
   25.8980   32.5730   43.5930 C   0  0  0  0  0  0  0  0  0  0  0  0
   26.6650   31.6400   44.2610 C   0  0  0  0  0  0  0  0  0  0  0  0
   26.8110   31.7400   45.6490 C   0  0  0  0  0  0  0  0  0  0  0  0
   26.1870   32.7760   46.3570 C   0  0  0  0  0  0  0  0  0  0  0  0
   24.6370   34.9920   46.5130 S   0  0  0  0  0  0  0  0  0  0  0  0
   25.4060   35.5120   47.6610 O   0  0  0  0  0  0  0  0  0  0  0  0
   24.3750   36.1070   45.5260 O   0  0  0  0  0  0  0  0  0  0  0  0
   26.9360   26.8600   43.1450 C   0  0  0  0  0  0  0  0  0  0  0  0
   27.5700   25.8850   44.0190 C   0  0  0  0  0  0  0  0  0  0  0  0
   27.7170   24.5860   43.5280 C   0  0  0  0  0  0  0  0  0  0  0  0
   28.3050   23.6140   44.3030 C   0  0  0  0  0  0  0  0  0  0  0  0
   28.7420   23.9560   45.5760 C   0  0  0  0  0  0  0  0  0  0  0  0
   28.5950   25.2460   46.0630 C   0  0  0  0  0  0  0  0  0  0  0  0
   28.0080   26.2420   45.3010 C   0  0  0  0  0  0  0  0  0  0  0  0
   33.3787   31.7768   43.2579 H   0  0  0  0  0  0  0  0  0  0  0  0
   34.3628   30.5311   41.2786 H   0  0  0  0  0  0  0  0  0  0  0  0
   32.8957   28.8420   40.0822 H   0  0  0  0  0  0  0  0  0  0  0  0
   29.4582   27.5921   42.4230 H   0  0  0  0  0  0  0  0  0  0  0  0
   24.6853   34.3200   43.7669 H   0  0  0  0  0  0  0  0  0  0  0  0
   25.7712   32.5107   42.5021 H   0  0  0  0  0  0  0  0  0  0  0  0
   27.4202   30.9998   46.1885 H   0  0  0  0  0  0  0  0  0  0  0  0
   26.3027   32.8542   47.4481 H   0  0  0  0  0  0  0  0  0  0  0  0
   23.4741   34.4936   47.0384 H   0  0  0  0  0  0  0  0  0  0  0  0
   25.8794   26.9554   43.4358 H   0  0  0  0  0  0  0  0  0  0  0  0
   27.0490   26.4965   42.1130 H   0  0  0  0  0  0  0  0  0  0  0  0
   27.3609   24.3392   42.5169 H   0  0  0  0  0  0  0  0  0  0  0  0
   28.4264   22.5888   43.9232 H   0  0  0  0  0  0  0  0  0  0  0  0
   29.2132   23.1899   46.2093 H   0  0  0  0  0  0  0  0  0  0  0  0
   28.9522   25.4830   47.0760 H   0  0  0  0  0  0  0  0  0  0  0  0
   27.8910   27.2663   45.6845 H   0  0  0  0  0  0  0  0  0  0  0  0
  1  6  2  0
  2  1  1  0
  3  4  1  0
  3  2  2  0
  4  5  2  0
  5  7  1  0
  5  6  1  0
  7 13  1  0
  8  7  1  0
  8  9  2  0
  9 10  1  0
 10 12  1  0
 10 11  2  0
 12 18  1  0
 13 14  2  0
 13 12  1  0
 15 20  2  0
 15 21  1  0
 16 15  1  0
 17 18  1  0
 17 16  2  0
 18 19  2  0
 19 20  1  0
 21 22  2  0
 23 21  2  0
 24  9  1  0
 24 25  1  0
 25 30  1  0
 26 25  2  0
 26 27  1  0
 27 28  2  0
 28 29  1  0
 30 29  2  0
  1 31  1  0
  2 32  1  0
  3 33  1  0
  8 34  1  0
 16 35  1  0
 17 36  1  0
 19 37  1  0
 20 38  1  0
 21 39  1  0
 24 40  1  0
 24 41  1  0
 26 42  1  0
 27 43  1  0
 28 44  1  0
 29 45  1  0
 30 46  1  0
M  ISO  8  31  14  32  14  33  14  34  14  35  14  36  14  37  14  38  14
M  ISO  8  39  11  40   8  41   8  42  14  43  14  44  14  45  14  46  14
M  END
>  <minimizedAffinity>  (1) 
-4.91241312

>  <minimizedRMSD>  (1) 
5.36946917

$$$$
