
     RDKit          3D

 32 33  0  0  0  0  0  0  0  0999 V2000
   35.6180   30.2750   47.0910 N   0  0  0  0  0  0  0  0  0  0  0  0
   36.3150   30.3170   45.9280 C   0  0  0  0  0  0  0  0  0  0  0  0
   37.5350   30.9620   45.8750 C   0  0  0  0  0  0  0  0  0  0  0  0
   37.9510   31.5250   47.0520 C   0  0  0  0  0  0  0  0  0  0  0  0
   39.0730   32.1230   47.0220 O   0  0  0  0  0  0  0  0  0  0  0  0
   37.3050   31.5120   48.2210 N   0  0  0  0  0  0  0  0  0  0  0  0
   36.1150   30.8630   48.2030 C   0  0  0  0  0  0  0  0  0  0  0  0
   35.4370   30.7980   49.2530 O   0  0  0  0  0  0  0  0  0  0  0  0
   34.3650   28.3930   47.7640 C   0  0  0  0  0  0  0  0  0  0  0  0
   34.3840   29.6080   47.0880 C   0  0  0  0  0  0  0  0  0  0  0  0
   33.2000   30.0350   46.4870 C   0  0  0  0  0  0  0  0  0  0  0  0
   32.0960   29.2570   46.5850 N   0  0  0  0  0  0  0  0  0  0  0  0
   32.1160   28.0740   47.2540 C   0  0  0  0  0  0  0  0  0  0  0  0
   33.2510   27.6580   47.8340 N   0  0  0  0  0  0  0  0  0  0  0  0
   37.7470   32.1010   49.4430 C   0  0  0  0  0  0  0  0  0  0  0  0
   38.7480   33.2070   49.2610 C   0  0  0  0  0  0  0  0  0  0  0  0
   38.3810   31.0030   50.2910 C   0  0  0  0  0  0  0  0  0  0  0  0
   36.6080   32.6840   50.2680 C   0  0  0  0  0  0  0  0  0  0  0  0
   35.9079   29.8367   45.0260 H   0  0  0  0  0  0  0  0  0  0  0  0
   38.1308   31.0195   44.9521 H   0  0  0  0  0  0  0  0  0  0  0  0
   35.2830   28.0304   48.2497 H   0  0  0  0  0  0  0  0  0  0  0  0
   33.1636   30.9895   45.9415 H   0  0  0  0  0  0  0  0  0  0  0  0
   31.2052   27.4607   47.3193 H   0  0  0  0  0  0  0  0  0  0  0  0
   39.0765   33.5700   50.2461 H   0  0  0  0  0  0  0  0  0  0  0  0
   39.6160   32.8276   48.7019 H   0  0  0  0  0  0  0  0  0  0  0  0
   38.2842   34.0330   48.7019 H   0  0  0  0  0  0  0  0  0  0  0  0
   38.2451   31.2384   51.3569 H   0  0  0  0  0  0  0  0  0  0  0  0
   37.8998   30.0403   50.0638 H   0  0  0  0  0  0  0  0  0  0  0  0
   39.4554   30.9385   50.0638 H   0  0  0  0  0  0  0  0  0  0  0  0
   36.8340   32.5683   51.3383 H   0  0  0  0  0  0  0  0  0  0  0  0
   36.4928   33.7519   50.0309 H   0  0  0  0  0  0  0  0  0  0  0  0
   35.6743   32.1529   50.0309 H   0  0  0  0  0  0  0  0  0  0  0  0
  1  7  1  0
  2  1  1  0
  3  2  2  0
  3  4  1  0
  4  6  1  0
  5  4  2  0
  6 15  1  0
  7  6  1  0
  7  8  2  0
  9 14  2  0
 10  1  1  0
 10  9  1  0
 11 12  1  0
 11 10  2  0
 12 13  2  0
 13 14  1  0
 15 18  1  0
 15 17  1  0
 16 15  1  0
  2 19  1  0
  3 20  1  0
  9 21  1  0
 11 22  1  0
 13 23  1  0
 16 24  1  0
 16 25  1  0
 16 26  1  0
 17 27  1  0
 17 28  1  0
 17 29  1  0
 18 30  1  0
 18 31  1  0
 18 32  1  0
M  ISO  8  19  14  20  14  21  14  22  14  23  14  24   8  25   8  26   8
M  ISO  6  27   8  28   8  29   8  30   8  31   8  32   8
M  END
>  <minimizedAffinity>  (1) 
-5.01428461

>  <minimizedRMSD>  (1) 
3.56565166

$$$$
