
     RDKit          3D

 23 24  0  0  0  0  0  0  0  0999 V2000
   37.9160   31.2540   48.2510 N   0  0  0  0  0  0  0  0  0  0  0  0
   38.2460   30.6460   47.1020 C   0  0  0  0  0  0  0  0  0  0  0  0
   39.1250   31.2220   46.2150 C   0  0  0  0  0  0  0  0  0  0  0  0
   39.6170   32.4410   46.6060 C   0  0  0  0  0  0  0  0  0  0  0  0
   40.4360   33.0020   45.8050 O   0  0  0  0  0  0  0  0  0  0  0  0
   39.3360   33.1100   47.7380 N   0  0  0  0  0  0  0  0  0  0  0  0
   38.4560   32.4580   48.5500 C   0  0  0  0  0  0  0  0  0  0  0  0
   38.1360   33.0160   49.6330 O   0  0  0  0  0  0  0  0  0  0  0  0
   37.6080   29.9200   50.1630 C   0  0  0  0  0  0  0  0  0  0  0  0
   37.0150   30.6210   49.1180 C   0  0  0  0  0  0  0  0  0  0  0  0
   35.6300   30.6270   49.0390 C   0  0  0  0  0  0  0  0  0  0  0  0
   34.9090   29.9610   49.9650 N   0  0  0  0  0  0  0  0  0  0  0  0
   35.5250   29.2780   50.9840 C   0  0  0  0  0  0  0  0  0  0  0  0
   36.8790   29.2650   51.0720 N   0  0  0  0  0  0  0  0  0  0  0  0
   39.8990   34.3880   48.0700 C   0  0  0  0  0  0  0  0  0  0  0  0
   37.8047   29.6669   46.8643 H   0  0  0  0  0  0  0  0  0  0  0  0
   39.4108   30.7429   45.2670 H   0  0  0  0  0  0  0  0  0  0  0  0
   38.7049   29.9043   50.2434 H   0  0  0  0  0  0  0  0  0  0  0  0
   35.1235   31.1705   48.2278 H   0  0  0  0  0  0  0  0  0  0  0  0
   34.9206   28.7409   51.7297 H   0  0  0  0  0  0  0  0  0  0  0  0
   39.9461   34.4949   49.1638 H   0  0  0  0  0  0  0  0  0  0  0  0
   40.9131   34.4621   47.6503 H   0  0  0  0  0  0  0  0  0  0  0  0
   39.2692   35.1863   47.6503 H   0  0  0  0  0  0  0  0  0  0  0  0
  1  7  1  0
  1 10  1  0
  2  1  1  0
  3  4  1  0
  3  2  2  0
  4  6  1  0
  5  4  2  0
  6 15  1  0
  6  7  1  0
  7  8  2  0
  9 14  2  0
 10  9  1  0
 11 10  2  0
 11 12  1  0
 12 13  2  0
 13 14  1  0
  2 16  1  0
  3 17  1  0
  9 18  1  0
 11 19  1  0
 13 20  1  0
 15 21  1  0
 15 22  1  0
 15 23  1  0
M  ISO  8  16  14  17  14  18  14  19  14  20  14  21   8  22   8  23   8
M  END
>  <minimizedAffinity>  (1) 
-4.80409384

>  <minimizedRMSD>  (1) 
0.236448169

$$$$
