
     RDKit          3D

 23 24  0  0  0  0  0  0  0  0999 V2000
   38.7260   33.3200   48.7980 C   0  0  0  0  0  0  0  0  0  0  0  0
   39.2040   32.7370   47.6010 C   0  0  0  0  0  0  0  0  0  0  0  0
   38.6310   31.5200   47.1980 C   0  0  0  0  0  0  0  0  0  0  0  0
   37.6550   30.9680   47.9720 N   0  0  0  0  0  0  0  0  0  0  0  0
   37.2280   31.5570   49.1090 C   0  0  0  0  0  0  0  0  0  0  0  0
   37.7610   32.7240   49.5170 N   0  0  0  0  0  0  0  0  0  0  0  0
   36.1620   30.9440   49.9470 C   0  0  0  0  0  0  0  0  0  0  0  0
   34.9830   30.4700   49.1650 C   0  0  0  0  0  0  0  0  0  0  0  0
   34.3650   29.3820   50.0170 C   0  0  0  0  0  0  0  0  0  0  0  0
   35.2840   29.1900   51.1980 C   0  0  0  0  0  0  0  0  0  0  0  0
   36.6180   29.7040   50.6570 C   0  0  0  0  0  0  0  0  0  0  0  0
   39.1503   34.2740   49.1443 H   0  0  0  0  0  0  0  0  0  0  0  0
   39.9951   33.2191   47.0080 H   0  0  0  0  0  0  0  0  0  0  0  0
   38.9637   31.0220   46.2753 H   0  0  0  0  0  0  0  0  0  0  0  0
   35.9044   31.7636   50.6339 H   0  0  0  0  0  0  0  0  0  0  0  0
   34.2681   31.2908   49.0063 H   0  0  0  0  0  0  0  0  0  0  0  0
   35.2667   30.1046   48.1670 H   0  0  0  0  0  0  0  0  0  0  0  0
   33.3655   29.6886   50.3590 H   0  0  0  0  0  0  0  0  0  0  0  0
   34.2483   28.4482   49.4474 H   0  0  0  0  0  0  0  0  0  0  0  0
   34.9502   29.7815   52.0633 H   0  0  0  0  0  0  0  0  0  0  0  0
   35.3253   28.1524   51.5608 H   0  0  0  0  0  0  0  0  0  0  0  0
   37.0798   28.9853   49.9641 H   0  0  0  0  0  0  0  0  0  0  0  0
   37.3907   29.8703   51.4220 H   0  0  0  0  0  0  0  0  0  0  0  0
  1  6  2  0
  2  1  1  0
  3  2  2  0
  3  4  1  0
  4  5  2  0
  5  6  1  0
  5  7  1  0
  7 11  1  0
  8  7  1  0
  8  9  1  0
  9 10  1  0
 11 10  1  0
  1 12  1  0
  2 13  1  0
  3 14  1  0
  7 15  1  0
  8 16  1  0
  8 17  1  0
  9 18  1  0
  9 19  1  0
 10 20  1  0
 10 21  1  0
 11 22  1  0
 11 23  1  0
M  ISO  8  12  14  13  14  14  14  15  13  16  13  17  13  18  13  19  13
M  ISO  4  20  13  21  13  22  13  23  13
M  END
>  <minimizedAffinity>  (1) 
-4.68304396

>  <minimizedRMSD>  (1) 
3.2828393

$$$$
