
     RDKit          3D

 43 46  0  0  0  0  0  0  0  0999 V2000
   32.8670   30.9630   43.6910 C   0  0  0  0  0  0  0  0  0  0  0  0
   32.9500   32.0260   42.7420 C   0  0  0  0  0  0  0  0  0  0  0  0
   31.7540   32.5020   42.1710 C   0  0  0  0  0  0  0  0  0  0  0  0
   30.5730   31.9230   42.5550 N   0  0  0  0  0  0  0  0  0  0  0  0
   30.5470   30.9190   43.4580 C   0  0  0  0  0  0  0  0  0  0  0  0
   31.6600   30.4640   43.9980 N   0  0  0  0  0  0  0  0  0  0  0  0
   29.2790   30.3640   43.8090 N   0  0  0  0  0  0  0  0  0  0  0  0
   28.2990   30.2270   42.9260 C   0  0  0  0  0  0  0  0  0  0  0  0
   27.0600   29.6900   43.2490 C   0  0  0  0  0  0  0  0  0  0  0  0
   26.9390   29.3170   44.5550 C   0  0  0  0  0  0  0  0  0  0  0  0
   25.8470   28.8160   44.9580 O   0  0  0  0  0  0  0  0  0  0  0  0
   27.8820   29.4260   45.4940 N   0  0  0  0  0  0  0  0  0  0  0  0
   29.0700   29.9620   45.1020 C   0  0  0  0  0  0  0  0  0  0  0  0
   29.9680   30.0770   45.9550 O   0  0  0  0  0  0  0  0  0  0  0  0
   27.5390   27.7870   49.3310 C   0  0  0  0  0  0  0  0  0  0  0  0
   27.3020   29.1270   49.1810 C   0  0  0  0  0  0  0  0  0  0  0  0
   27.3920   29.7460   47.9630 C   0  0  0  0  0  0  0  0  0  0  0  0
   27.7260   29.0260   46.8460 C   0  0  0  0  0  0  0  0  0  0  0  0
   27.9740   27.6560   46.9750 C   0  0  0  0  0  0  0  0  0  0  0  0
   27.8830   27.0210   48.2190 C   0  0  0  0  0  0  0  0  0  0  0  0
   27.4210   27.0210   50.8870 S   0  0  0  0  0  0  0  0  0  0  0  0
   28.7010   27.0130   51.6460 O   0  0  0  0  0  0  0  0  0  0  0  0
   26.3520   27.7410   51.6790 O   0  0  0  0  0  0  0  0  0  0  0  0
   25.9520   29.5220   42.2980 C   0  0  0  0  0  0  0  0  0  0  0  0
   25.6520   28.1090   41.9790 C   0  0  0  0  0  0  0  0  0  0  0  0
   26.3600   27.2410   41.1730 C   0  0  0  0  0  0  0  0  0  0  0  0
   25.7310   26.0480   41.1590 N   0  0  0  0  0  0  0  0  0  0  0  0
   24.6370   26.1450   41.9410 C   0  0  0  0  0  0  0  0  0  0  0  0
   24.5940   27.4050   42.4380 N   0  0  0  0  0  0  0  0  0  0  0  0
   33.7759   30.5603   44.1620 H   0  0  0  0  0  0  0  0  0  0  0  0
   33.9213   32.4613   42.4644 H   0  0  0  0  0  0  0  0  0  0  0  0
   31.7675   33.3189   41.4345 H   0  0  0  0  0  0  0  0  0  0  0  0
   28.4758   30.5537   41.8906 H   0  0  0  0  0  0  0  0  0  0  0  0
   27.0314   29.7237   50.0646 H   0  0  0  0  0  0  0  0  0  0  0  0
   27.1955   30.8252   47.8809 H   0  0  0  0  0  0  0  0  0  0  0  0
   28.2447   27.0684   46.0854 H   0  0  0  0  0  0  0  0  0  0  0  0
   28.0784   25.9429   48.3165 H   0  0  0  0  0  0  0  0  0  0  0  0
   27.1011   25.7040   50.6869 H   0  0  0  0  0  0  0  0  0  0  0  0
   25.0502   29.9794   42.7310 H   0  0  0  0  0  0  0  0  0  0  0  0
   26.2580   30.0059   41.3587 H   0  0  0  0  0  0  0  0  0  0  0  0
   27.2860   27.4826   40.6306 H   0  0  0  0  0  0  0  0  0  0  0  0
   23.9094   25.3444   42.1400 H   0  0  0  0  0  0  0  0  0  0  0  0
   23.8663   27.7701   43.0690 H   0  0  0  0  0  0  0  0  0  0  0  0
  1  6  2  0
  2  1  1  0
  3  4  1  0
  3  2  2  0
  4  5  2  0
  5  7  1  0
  5  6  1  0
  7 13  1  0
  8  9  2  0
  8  7  1  0
  9 10  1  0
 10 11  2  0
 10 12  1  0
 12 18  1  0
 13 12  1  0
 13 14  2  0
 15 21  1  0
 16 15  2  0
 17 16  1  0
 18 19  1  0
 18 17  2  0
 19 20  2  0
 20 15  1  0
 21 22  2  0
 21 23  2  0
 24  9  1  0
 25 24  1  0
 25 29  1  0
 26 25  2  0
 27 26  1  0
 27 28  2  0
 28 29  1  0
  1 30  1  0
  2 31  1  0
  3 32  1  0
  8 33  1  0
 16 34  1  0
 17 35  1  0
 19 36  1  0
 20 37  1  0
 21 38  1  0
 24 39  1  0
 24 40  1  0
 26 41  1  0
 28 42  1  0
 29 43  1  0
M  ISO  8  30  14  31  14  32  14  33  14  34  14  35  14  36  14  37  14
M  ISO  6  38  11  39   8  40   8  41  14  42  14  43   9
M  END
>  <minimizedAffinity>  (1) 
-4.82159901

>  <minimizedRMSD>  (1) 
0.985751569

$$$$
