
     RDKit          3D

 36 39  0  0  0  0  0  0  0  0999 V2000
   36.3620   30.2090   47.6980 N   0  0  0  0  0  0  0  0  0  0  0  0
   35.1310   29.8690   47.2420 C   0  0  0  0  0  0  0  0  0  0  0  0
   34.8240   29.9540   45.8960 C   0  0  0  0  0  0  0  0  0  0  0  0
   35.8510   30.4000   45.1060 C   0  0  0  0  0  0  0  0  0  0  0  0
   35.6110   30.4940   43.8540 O   0  0  0  0  0  0  0  0  0  0  0  0
   37.0930   30.7520   45.5020 N   0  0  0  0  0  0  0  0  0  0  0  0
   37.2880   30.6300   46.8400 C   0  0  0  0  0  0  0  0  0  0  0  0
   38.4140   30.9350   47.2800 O   0  0  0  0  0  0  0  0  0  0  0  0
   37.7290   30.8020   49.5120 C   0  0  0  0  0  0  0  0  0  0  0  0
   36.6050   30.0990   49.0740 C   0  0  0  0  0  0  0  0  0  0  0  0
   35.8660   29.3740   50.0070 C   0  0  0  0  0  0  0  0  0  0  0  0
   36.2610   29.3740   51.3050 N   0  0  0  0  0  0  0  0  0  0  0  0
   37.3640   30.0690   51.7100 C   0  0  0  0  0  0  0  0  0  0  0  0
   38.0940   30.7840   50.7980 N   0  0  0  0  0  0  0  0  0  0  0  0
   38.0490   31.2020   44.5900 C   0  0  0  0  0  0  0  0  0  0  0  0
   38.2920   32.5170   44.2260 C   0  0  0  0  0  0  0  0  0  0  0  0
   39.2430   32.8940   43.3260 C   0  0  0  0  0  0  0  0  0  0  0  0
   40.0190   31.9110   42.7350 C   0  0  0  0  0  0  0  0  0  0  0  0
   39.7670   30.5860   43.1090 C   0  0  0  0  0  0  0  0  0  0  0  0
   38.8160   30.2530   44.0040 N   0  0  0  0  0  0  0  0  0  0  0  0
   40.6070   29.5110   42.4710 C   0  0  0  0  0  0  0  0  0  0  0  0
   40.1420   28.1320   42.3610 C   0  0  0  0  0  0  0  0  0  0  0  0
   40.0350   28.9660   41.1380 C   0  0  0  0  0  0  0  0  0  0  0  0
   34.3664   29.5209   47.9520 H   0  0  0  0  0  0  0  0  0  0  0  0
   33.8364   29.6856   45.4928 H   0  0  0  0  0  0  0  0  0  0  0  0
   38.3231   31.3792   48.7882 H   0  0  0  0  0  0  0  0  0  0  0  0
   34.9748   28.8096   49.6954 H   0  0  0  0  0  0  0  0  0  0  0  0
   37.6661   30.0548   52.7676 H   0  0  0  0  0  0  0  0  0  0  0  0
   37.6803   33.3037   44.6917 H   0  0  0  0  0  0  0  0  0  0  0  0
   39.3909   33.9546   43.0747 H   0  0  0  0  0  0  0  0  0  0  0  0
   40.8006   32.1610   42.0024 H   0  0  0  0  0  0  0  0  0  0  0  0
   41.5407   29.9479   42.8548 H   0  0  0  0  0  0  0  0  0  0  0  0
   40.8737   27.3113   42.3926 H   0  0  0  0  0  0  0  0  0  0  0  0
   39.4198   27.5294   42.9313 H   0  0  0  0  0  0  0  0  0  0  0  0
   40.6990   28.7841   40.2801 H   0  0  0  0  0  0  0  0  0  0  0  0
   39.2324   29.2545   40.4433 H   0  0  0  0  0  0  0  0  0  0  0  0
  1 10  1  0
  2  1  1  0
  3  2  2  0
  4  6  1  0
  4  3  1  0
  5  4  2  0
  6  7  1  0
  7  8  2  0
  7  1  1  0
  9 14  2  0
 10  9  1  0
 10 11  2  0
 11 12  1  0
 12 13  2  0
 14 13  1  0
 15  6  1  0
 16 15  2  0
 17 16  1  0
 18 19  1  0
 18 17  2  0
 19 20  2  0
 20 15  1  0
 21 19  1  0
 22 21  1  0
 23 22  1  0
 23 21  1  0
  2 24  1  0
  3 25  1  0
  9 26  1  0
 11 27  1  0
 13 28  1  0
 16 29  1  0
 17 30  1  0
 18 31  1  0
 21 32  1  0
 22 33  1  0
 22 34  1  0
 23 35  1  0
 23 36  1  0
M  ISO  8  24  14  25  14  26  14  27  14  28  14  29  14  30  14  31  14
M  ISO  5  32  13  33  13  34  13  35  13  36  13
M  END
>  <minimizedAffinity>  (1) 
-5.63794518

>  <minimizedRMSD>  (1) 
0.394013941

$$$$
