
     RDKit          3D

 36 39  0  0  0  0  0  0  0  0999 V2000
   36.3740   30.3070   47.4890 N   0  0  0  0  0  0  0  0  0  0  0  0
   35.1250   29.9780   47.0760 C   0  0  0  0  0  0  0  0  0  0  0  0
   34.7600   30.0770   45.7490 C   0  0  0  0  0  0  0  0  0  0  0  0
   35.7580   30.5260   44.9210 C   0  0  0  0  0  0  0  0  0  0  0  0
   35.4710   30.6340   43.6830 O   0  0  0  0  0  0  0  0  0  0  0  0
   37.0260   30.8690   45.2780 N   0  0  0  0  0  0  0  0  0  0  0  0
   37.2700   30.7320   46.6040 C   0  0  0  0  0  0  0  0  0  0  0  0
   38.4110   31.0260   46.9980 O   0  0  0  0  0  0  0  0  0  0  0  0
   36.8680   31.3980   49.5060 C   0  0  0  0  0  0  0  0  0  0  0  0
   36.6680   30.1810   48.8460 C   0  0  0  0  0  0  0  0  0  0  0  0
   36.7900   29.0120   49.5920 C   0  0  0  0  0  0  0  0  0  0  0  0
   37.0910   29.0730   50.9040 N   0  0  0  0  0  0  0  0  0  0  0  0
   37.2820   30.2790   51.5190 C   0  0  0  0  0  0  0  0  0  0  0  0
   37.1670   31.4450   50.8050 N   0  0  0  0  0  0  0  0  0  0  0  0
   37.9450   31.3170   44.3300 C   0  0  0  0  0  0  0  0  0  0  0  0
   38.3580   32.5970   44.0990 C   0  0  0  0  0  0  0  0  0  0  0  0
   39.2640   32.9700   43.1520 C   0  0  0  0  0  0  0  0  0  0  0  0
   39.8200   31.9900   42.3510 C   0  0  0  0  0  0  0  0  0  0  0  0
   39.4000   30.7020   42.5900 C   0  0  0  0  0  0  0  0  0  0  0  0
   38.5010   30.3620   43.5350 N   0  0  0  0  0  0  0  0  0  0  0  0
   39.9250   29.5930   41.8010 C   0  0  0  0  0  0  0  0  0  0  0  0
   39.7710   28.2640   41.7190 C   0  0  0  0  0  0  0  0  0  0  0  0
   40.4590   27.5080   40.8170 C   0  0  0  0  0  0  0  0  0  0  0  0
   41.3750   28.1880   39.9370 C   0  0  0  0  0  0  0  0  0  0  0  0
   41.1850   29.9880   40.4880 S   0  0  0  0  0  0  0  0  0  0  0  0
   34.3886   29.6254   47.8131 H   0  0  0  0  0  0  0  0  0  0  0  0
   33.7545   29.8180   45.3857 H   0  0  0  0  0  0  0  0  0  0  0  0
   36.7766   32.3374   48.9410 H   0  0  0  0  0  0  0  0  0  0  0  0
   36.6402   28.0352   49.1088 H   0  0  0  0  0  0  0  0  0  0  0  0
   37.5288   30.3147   52.5904 H   0  0  0  0  0  0  0  0  0  0  0  0
   37.9255   33.3901   44.7267 H   0  0  0  0  0  0  0  0  0  0  0  0
   39.5463   34.0259   43.0278 H   0  0  0  0  0  0  0  0  0  0  0  0
   40.5555   32.2264   41.5680 H   0  0  0  0  0  0  0  0  0  0  0  0
   39.0663   27.7670   42.4020 H   0  0  0  0  0  0  0  0  0  0  0  0
   40.3198   26.4182   40.7630 H   0  0  0  0  0  0  0  0  0  0  0  0
   42.0181   27.7692   39.1490 H   0  0  0  0  0  0  0  0  0  0  0  0
  1 10  1  0
  2  1  1  0
  3  2  2  0
  4  6  1  0
  4  3  1  0
  5  4  2  0
  6  7  1  0
  7  8  2  0
  7  1  1  0
  9 14  2  0
 10  9  1  0
 10 11  2  0
 11 12  1  0
 12 13  2  0
 14 13  1  0
 15  6  1  0
 16 15  2  0
 17 16  1  0
 18 19  1  0
 18 17  2  0
 19 20  2  0
 20 15  1  0
 21 19  1  0
 22 21  2  0
 23 22  1  0
 24 25  1  0
 24 23  2  0
 25 21  1  0
  2 26  1  0
  3 27  1  0
  9 28  1  0
 11 29  1  0
 13 30  1  0
 16 31  1  0
 17 32  1  0
 18 33  1  0
 22 34  1  0
 23 35  1  0
 24 36  1  0
M  ISO  8  26  14  27  14  28  14  29  14  30  14  31  14  32  14  33  14
M  ISO  3  34  14  35  14  36  14
M  END
>  <minimizedAffinity>  (1) 
-5.32450342

>  <minimizedRMSD>  (1) 
0.786828935

$$$$
