
     RDKit          3D

 45 48  0  0  0  0  0  0  0  0999 V2000
   33.5230   30.4040   44.1660 C   0  0  0  0  0  0  0  0  0  0  0  0
   33.7800   31.4560   43.2360 C   0  0  0  0  0  0  0  0  0  0  0  0
   32.6820   32.0490   42.6000 C   0  0  0  0  0  0  0  0  0  0  0  0
   31.4420   31.5830   42.9120 N   0  0  0  0  0  0  0  0  0  0  0  0
   31.2310   30.5830   43.8000 C   0  0  0  0  0  0  0  0  0  0  0  0
   32.2570   30.0110   44.4100 N   0  0  0  0  0  0  0  0  0  0  0  0
   29.8900   30.1660   44.0550 N   0  0  0  0  0  0  0  0  0  0  0  0
   28.9660   30.1280   43.1020 C   0  0  0  0  0  0  0  0  0  0  0  0
   27.6650   29.7240   43.3490 C   0  0  0  0  0  0  0  0  0  0  0  0
   27.4200   29.3700   44.6460 C   0  0  0  0  0  0  0  0  0  0  0  0
   26.2530   28.9850   44.9690 O   0  0  0  0  0  0  0  0  0  0  0  0
   28.3000   29.3860   45.6460 N   0  0  0  0  0  0  0  0  0  0  0  0
   29.5620   29.7960   45.3310 C   0  0  0  0  0  0  0  0  0  0  0  0
   30.4130   29.8210   46.2470 O   0  0  0  0  0  0  0  0  0  0  0  0
   27.5770   27.7920   49.4460 C   0  0  0  0  0  0  0  0  0  0  0  0
   27.4180   29.1400   49.2710 C   0  0  0  0  0  0  0  0  0  0  0  0
   27.6290   29.7680   48.0680 C   0  0  0  0  0  0  0  0  0  0  0  0
   28.0170   29.0110   46.9880 C   0  0  0  0  0  0  0  0  0  0  0  0
   28.1850   27.6360   47.1370 C   0  0  0  0  0  0  0  0  0  0  0  0
   27.9660   27.0080   48.3730 C   0  0  0  0  0  0  0  0  0  0  0  0
   27.2930   27.0680   50.9980 S   0  0  0  0  0  0  0  0  0  0  0  0
   28.4980   27.0430   51.8740 O   0  0  0  0  0  0  0  0  0  0  0  0
   26.1750   27.8260   51.6770 O   0  0  0  0  0  0  0  0  0  0  0  0
   26.6160   29.6670   42.3220 C   0  0  0  0  0  0  0  0  0  0  0  0
   26.3870   28.3090   41.8170 C   0  0  0  0  0  0  0  0  0  0  0  0
   27.3240   27.4780   41.2130 C   0  0  0  0  0  0  0  0  0  0  0  0
   26.8830   26.2330   40.8140 C   0  0  0  0  0  0  0  0  0  0  0  0
   25.5990   25.7800   40.9760 C   0  0  0  0  0  0  0  0  0  0  0  0
   24.7120   26.6450   41.5810 C   0  0  0  0  0  0  0  0  0  0  0  0
   25.1140   27.8480   41.9740 N   0  0  0  0  0  0  0  0  0  0  0  0
   34.3598   29.9131   44.6845 H   0  0  0  0  0  0  0  0  0  0  0  0
   34.8068   31.7900   43.0257 H   0  0  0  0  0  0  0  0  0  0  0  0
   32.8173   32.8635   41.8732 H   0  0  0  0  0  0  0  0  0  0  0  0
   29.2439   30.4279   42.0808 H   0  0  0  0  0  0  0  0  0  0  0  0
   27.1070   29.7482   50.1332 H   0  0  0  0  0  0  0  0  0  0  0  0
   27.4903   30.8549   47.9706 H   0  0  0  0  0  0  0  0  0  0  0  0
   28.4946   27.0322   46.2712 H   0  0  0  0  0  0  0  0  0  0  0  0
   28.0998   25.9221   48.4862 H   0  0  0  0  0  0  0  0  0  0  0  0
   26.9545   25.7569   50.7900 H   0  0  0  0  0  0  0  0  0  0  0  0
   25.6781   30.0430   42.7566 H   0  0  0  0  0  0  0  0  0  0  0  0
   26.9493   30.2834   41.4741 H   0  0  0  0  0  0  0  0  0  0  0  0
   28.3655   27.7974   41.0608 H   0  0  0  0  0  0  0  0  0  0  0  0
   27.6089   25.5598   40.3346 H   0  0  0  0  0  0  0  0  0  0  0  0
   25.2924   24.7782   40.6406 H   0  0  0  0  0  0  0  0  0  0  0  0
   23.6677   26.3375   41.7387 H   0  0  0  0  0  0  0  0  0  0  0  0
  1  6  2  0
  2  1  1  0
  3  4  1  0
  3  2  2  0
  4  5  2  0
  5  7  1  0
  5  6  1  0
  7 13  1  0
  8  9  2  0
  8  7  1  0
  9 10  1  0
 10 11  2  0
 10 12  1  0
 12 18  1  0
 13 12  1  0
 13 14  2  0
 15 21  1  0
 16 15  2  0
 17 16  1  0
 18 19  1  0
 18 17  2  0
 19 20  2  0
 20 15  1  0
 21 23  2  0
 21 22  2  0
 24  9  1  0
 25 30  1  0
 25 24  1  0
 26 25  2  0
 27 28  2  0
 27 26  1  0
 28 29  1  0
 29 30  2  0
  1 31  1  0
  2 32  1  0
  3 33  1  0
  8 34  1  0
 16 35  1  0
 17 36  1  0
 19 37  1  0
 20 38  1  0
 21 39  1  0
 24 40  1  0
 24 41  1  0
 26 42  1  0
 27 43  1  0
 28 44  1  0
 29 45  1  0
M  ISO  8  31  14  32  14  33  14  34  14  35  14  36  14  37  14  38  14
M  ISO  7  39  11  40   8  41   8  42  14  43  14  44  14  45  14
M  END
>  <minimizedAffinity>  (1) 
-4.6445322

>  <minimizedRMSD>  (1) 
0.473740041

$$$$
