
     RDKit          3D

 31 33  0  0  0  0  0  0  0  0999 V2000
   36.3830   30.1960   47.6750 N   0  0  0  0  0  0  0  0  0  0  0  0
   35.1270   29.9360   47.2310 C   0  0  0  0  0  0  0  0  0  0  0  0
   34.8020   30.0530   45.8910 C   0  0  0  0  0  0  0  0  0  0  0  0
   35.8390   30.4410   45.0880 C   0  0  0  0  0  0  0  0  0  0  0  0
   35.5850   30.5590   43.8500 O   0  0  0  0  0  0  0  0  0  0  0  0
   37.1060   30.7120   45.4690 N   0  0  0  0  0  0  0  0  0  0  0  0
   37.3200   30.5670   46.8060 C   0  0  0  0  0  0  0  0  0  0  0  0
   38.4680   30.7990   47.2320 O   0  0  0  0  0  0  0  0  0  0  0  0
   37.5420   31.0110   49.5520 C   0  0  0  0  0  0  0  0  0  0  0  0
   36.6240   30.0560   49.0400 C   0  0  0  0  0  0  0  0  0  0  0  0
   36.0930   29.1120   49.9140 C   0  0  0  0  0  0  0  0  0  0  0  0
   36.4810   29.1550   51.2070 N   0  0  0  0  0  0  0  0  0  0  0  0
   37.3500   30.0580   51.6910 C   0  0  0  0  0  0  0  0  0  0  0  0
   37.8810   30.9940   50.8470 N   0  0  0  0  0  0  0  0  0  0  0  0
   38.0750   31.1040   44.5440 C   0  0  0  0  0  0  0  0  0  0  0  0
   38.4010   32.4000   44.1830 C   0  0  0  0  0  0  0  0  0  0  0  0
   39.3630   32.7120   43.2680 C   0  0  0  0  0  0  0  0  0  0  0  0
   40.0580   31.6900   42.6620 C   0  0  0  0  0  0  0  0  0  0  0  0
   39.7280   30.3990   43.0270 C   0  0  0  0  0  0  0  0  0  0  0  0
   38.7670   30.1110   43.9400 N   0  0  0  0  0  0  0  0  0  0  0  0
   40.4400   29.2860   42.4080 C   0  0  0  0  0  0  0  0  0  0  0  0
   40.1010   28.8520   41.2710 O   0  0  0  0  0  0  0  0  0  0  0  0
   34.3535   29.6267   47.9493 H   0  0  0  0  0  0  0  0  0  0  0  0
   33.7926   29.8506   45.5035 H   0  0  0  0  0  0  0  0  0  0  0  0
   37.9762   31.7676   48.8819 H   0  0  0  0  0  0  0  0  0  0  0  0
   35.3784   28.3533   49.5621 H   0  0  0  0  0  0  0  0  0  0  0  0
   37.6313   30.0447   52.7543 H   0  0  0  0  0  0  0  0  0  0  0  0
   37.8530   33.2251   44.6613 H   0  0  0  0  0  0  0  0  0  0  0  0
   39.5796   33.7613   43.0188 H   0  0  0  0  0  0  0  0  0  0  0  0
   40.8430   31.8926   41.9185 H   0  0  0  0  0  0  0  0  0  0  0  0
   41.2829   28.8187   42.9382 H   0  0  0  0  0  0  0  0  0  0  0  0
  1 10  1  0
  2  1  1  0
  3  2  2  0
  4  6  1  0
  4  3  1  0
  5  4  2  0
  6  7  1  0
  7  8  2  0
  7  1  1  0
  9 14  2  0
 10  9  1  0
 10 11  2  0
 11 12  1  0
 12 13  2  0
 14 13  1  0
 15  6  1  0
 16 15  2  0
 17 16  1  0
 18 19  1  0
 18 17  2  0
 19 20  2  0
 20 15  1  0
 21 19  1  0
 22 21  2  0
  2 23  1  0
  3 24  1  0
  9 25  1  0
 11 26  1  0
 13 27  1  0
 16 28  1  0
 17 29  1  0
 18 30  1  0
 21 31  1  0
M  ISO  8  23  14  24  14  25  14  26  14  27  14  28  14  29  14  30  14
M  ISO  1  31   6
M  END
>  <minimizedAffinity>  (1) 
-5.14218473

>  <minimizedRMSD>  (1) 
0.0607970022

$$$$
