
     RDKit          3D

 26 27  0  0  0  0  0  0  0  0999 V2000
   38.1750   30.5490   49.6790 C   0  0  0  0  0  0  0  0  0  0  0  0
   36.4130   29.4960   51.0150 C   0  0  0  0  0  0  0  0  0  0  0  0
   36.7760   30.2260   49.8580 C   0  0  0  0  0  0  0  0  0  0  0  0
   35.7510   30.5760   48.9820 C   0  0  0  0  0  0  0  0  0  0  0  0
   34.4930   30.1970   49.2940 N   0  0  0  0  0  0  0  0  0  0  0  0
   34.1680   29.5060   50.3940 C   0  0  0  0  0  0  0  0  0  0  0  0
   35.1330   29.1600   51.2480 N   0  0  0  0  0  0  0  0  0  0  0  0
   38.3030   32.0580   49.5800 C   0  0  0  0  0  0  0  0  0  0  0  0
   38.8790   32.4120   48.2760 N   0  0  0  0  0  0  0  0  0  0  0  0
   38.8110   31.4860   47.3160 C   0  0  0  0  0  0  0  0  0  0  0  0
   39.3240   31.7090   46.0430 C   0  0  0  0  0  0  0  0  0  0  0  0
   39.9070   32.9390   45.8190 C   0  0  0  0  0  0  0  0  0  0  0  0
   40.4310   33.3420   44.7400 O   0  0  0  0  0  0  0  0  0  0  0  0
   39.9550   33.8420   46.8120 N   0  0  0  0  0  0  0  0  0  0  0  0
   39.4510   33.6080   48.0490 C   0  0  0  0  0  0  0  0  0  0  0  0
   39.4980   34.4620   48.9760 O   0  0  0  0  0  0  0  0  0  0  0  0
   38.7552   30.1814   50.5382 H   0  0  0  0  0  0  0  0  0  0  0  0
   38.5614   30.0736   48.7654 H   0  0  0  0  0  0  0  0  0  0  0  0
   37.1905   29.1992   51.7343 H   0  0  0  0  0  0  0  0  0  0  0  0
   35.9601   31.1441   48.0636 H   0  0  0  0  0  0  0  0  0  0  0  0
   33.1220   29.2280   50.5904 H   0  0  0  0  0  0  0  0  0  0  0  0
   37.3090   32.5184   49.6798 H   0  0  0  0  0  0  0  0  0  0  0  0
   38.9576   32.4257   50.3839 H   0  0  0  0  0  0  0  0  0  0  0  0
   38.3356   30.5194   47.5387 H   0  0  0  0  0  0  0  0  0  0  0  0
   39.2678   30.9437   45.2548 H   0  0  0  0  0  0  0  0  0  0  0  0
   40.3950   34.7544   46.6254 H   0  0  0  0  0  0  0  0  0  0  0  0
  1  3  1  0
  2  7  2  0
  3  2  1  0
  4  5  1  0
  4  3  2  0
  5  6  2  0
  6  7  1  0
  8  1  1  0
  9  8  1  0
 10  9  1  0
 11 10  2  0
 12 11  1  0
 12 14  1  0
 13 12  2  0
 14 15  1  0
 15  9  1  0
 15 16  2  0
  1 17  1  0
  1 18  1  0
  2 19  1  0
  4 20  1  0
  6 21  1  0
  8 22  1  0
  8 23  1  0
 10 24  1  0
 11 25  1  0
 14 26  1  0
M  ISO  8  17   8  18   8  19  14  20  14  21  14  22   8  23   8  24  14
M  ISO  2  25  14  26   9
M  END
>  <minimizedAffinity>  (1) 
-5.35524035

>  <minimizedRMSD>  (1) 
2.51361322

$$$$
