
     RDKit          3D

 26 27  0  0  0  0  0  0  0  0999 V2000
   38.5180   31.7630   49.6250 C   0  0  0  0  0  0  0  0  0  0  0  0
   37.4860   30.1840   51.1790 C   0  0  0  0  0  0  0  0  0  0  0  0
   37.3790   30.9700   50.0250 C   0  0  0  0  0  0  0  0  0  0  0  0
   36.1740   30.9410   49.3260 C   0  0  0  0  0  0  0  0  0  0  0  0
   35.1590   30.1530   49.7960 N   0  0  0  0  0  0  0  0  0  0  0  0
   35.2880   29.4040   50.9140 C   0  0  0  0  0  0  0  0  0  0  0  0
   36.4530   29.4220   51.6010 N   0  0  0  0  0  0  0  0  0  0  0  0
   38.0690   32.7040   48.4990 C   0  0  0  0  0  0  0  0  0  0  0  0
   38.8970   32.2970   47.3190 C   0  0  0  0  0  0  0  0  0  0  0  0
   38.8930   31.0180   46.7800 C   0  0  0  0  0  0  0  0  0  0  0  0
   39.6900   30.7230   45.6870 C   0  0  0  0  0  0  0  0  0  0  0  0
   40.4970   31.6900   45.1160 C   0  0  0  0  0  0  0  0  0  0  0  0
   40.5400   32.9930   45.6180 C   0  0  0  0  0  0  0  0  0  0  0  0
   39.7240   33.2160   46.7050 C   0  0  0  0  0  0  0  0  0  0  0  0
   38.8821   32.3513   50.4802 H   0  0  0  0  0  0  0  0  0  0  0  0
   39.3333   31.1120   49.2765 H   0  0  0  0  0  0  0  0  0  0  0  0
   38.4257   30.1870   51.7509 H   0  0  0  0  0  0  0  0  0  0  0  0
   36.0412   31.5405   48.4133 H   0  0  0  0  0  0  0  0  0  0  0  0
   34.4498   28.7831   51.2632 H   0  0  0  0  0  0  0  0  0  0  0  0
   36.9978   32.5728   48.2864 H   0  0  0  0  0  0  0  0  0  0  0  0
   38.2046   33.7639   48.7601 H   0  0  0  0  0  0  0  0  0  0  0  0
   38.2558   30.2377   47.2218 H   0  0  0  0  0  0  0  0  0  0  0  0
   39.6812   29.7062   45.2674 H   0  0  0  0  0  0  0  0  0  0  0  0
   41.1188   31.4274   44.2474 H   0  0  0  0  0  0  0  0  0  0  0  0
   41.1745   33.7778   45.1804 H   0  0  0  0  0  0  0  0  0  0  0  0
   39.7322   34.2316   47.1276 H   0  0  0  0  0  0  0  0  0  0  0  0
  1  3  1  0
  2  7  2  0
  3  2  1  0
  4  5  1  0
  4  3  2  0
  5  6  2  0
  6  7  1  0
  8  1  1  0
  9  8  1  0
 10  9  2  0
 11 10  1  0
 12 13  1  0
 12 11  2  0
 13 14  2  0
 14  9  1  0
  1 15  1  0
  1 16  1  0
  2 17  1  0
  4 18  1  0
  6 19  1  0
  8 20  1  0
  8 21  1  0
 10 22  1  0
 11 23  1  0
 12 24  1  0
 13 25  1  0
 14 26  1  0
M  ISO  8  15   8  16   8  17  14  18  14  19  14  20   8  21   8  22  14
M  ISO  4  23  14  24  14  25  14  26  14
M  END
>  <minimizedAffinity>  (1) 
-5.3334837

>  <minimizedRMSD>  (1) 
2.82669544

$$$$
