
     RDKit          3D

 23 24  0  0  0  0  0  0  0  0999 V2000
   38.3690   31.4240   49.8930 C   0  0  0  0  0  0  0  0  0  0  0  0
   36.8690   29.8750   51.1070 C   0  0  0  0  0  0  0  0  0  0  0  0
   37.0920   30.7710   50.0290 C   0  0  0  0  0  0  0  0  0  0  0  0
   36.0410   30.9680   49.1380 C   0  0  0  0  0  0  0  0  0  0  0  0
   34.8830   30.3050   49.3440 N   0  0  0  0  0  0  0  0  0  0  0  0
   34.6970   29.4540   50.3830 C   0  0  0  0  0  0  0  0  0  0  0  0
   35.7030   29.2430   51.2680 N   0  0  0  0  0  0  0  0  0  0  0  0
   38.2600   32.5070   48.8500 C   0  0  0  0  0  0  0  0  0  0  0  0
   38.9510   32.2410   47.5930 C   0  0  0  0  0  0  0  0  0  0  0  0
   39.1110   31.1620   46.7550 C   0  0  0  0  0  0  0  0  0  0  0  0
   39.8980   31.4800   45.6580 C   0  0  0  0  0  0  0  0  0  0  0  0
   40.1950   32.8120   45.9000 C   0  0  0  0  0  0  0  0  0  0  0  0
   39.6440   33.2120   47.0030 O   0  0  0  0  0  0  0  0  0  0  0  0
   38.6602   31.8682   50.8563 H   0  0  0  0  0  0  0  0  0  0  0  0
   39.1299   30.6906   49.5879 H   0  0  0  0  0  0  0  0  0  0  0  0
   37.6786   29.6960   51.8299 H   0  0  0  0  0  0  0  0  0  0  0  0
   36.1517   31.6506   48.2826 H   0  0  0  0  0  0  0  0  0  0  0  0
   33.7342   28.9368   50.5077 H   0  0  0  0  0  0  0  0  0  0  0  0
   37.1934   32.6550   48.6255 H   0  0  0  0  0  0  0  0  0  0  0  0
   38.7496   33.3923   49.2820 H   0  0  0  0  0  0  0  0  0  0  0  0
   38.6697   30.1702   46.9327 H   0  0  0  0  0  0  0  0  0  0  0  0
   40.2058   30.8421   44.8164 H   0  0  0  0  0  0  0  0  0  0  0  0
   40.8138   33.4434   45.2455 H   0  0  0  0  0  0  0  0  0  0  0  0
  1  3  1  0
  2  7  2  0
  3  2  1  0
  4  5  1  0
  4  3  2  0
  5  6  2  0
  6  7  1  0
  8  1  1  0
  9  8  1  0
 10  9  2  0
 11 12  2  0
 11 10  1  0
 12 13  1  0
 13  9  1  0
  1 14  1  0
  1 15  1  0
  2 16  1  0
  4 17  1  0
  6 18  1  0
  8 19  1  0
  8 20  1  0
 10 21  1  0
 11 22  1  0
 12 23  1  0
M  ISO  8  14   8  15   8  16  14  17  14  18  14  19   8  20   8  21  14
M  ISO  2  22  14  23  14
M  END
>  <minimizedAffinity>  (1) 
-4.84037018

>  <minimizedRMSD>  (1) 
3.74324369

$$$$
