
     RDKit          3D

 43 46  0  0  0  0  0  0  0  0999 V2000
   33.7650   30.1120   44.2410 C   0  0  0  0  0  0  0  0  0  0  0  0
   34.1430   31.1860   43.3950 C   0  0  0  0  0  0  0  0  0  0  0  0
   33.1160   31.9630   42.8330 C   0  0  0  0  0  0  0  0  0  0  0  0
   31.8150   31.6460   43.1290 N   0  0  0  0  0  0  0  0  0  0  0  0
   31.5050   30.6140   43.9400 C   0  0  0  0  0  0  0  0  0  0  0  0
   32.4620   29.8640   44.4840 N   0  0  0  0  0  0  0  0  0  0  0  0
   30.1380   30.3460   44.2020 N   0  0  0  0  0  0  0  0  0  0  0  0
   29.1880   30.4930   43.2760 C   0  0  0  0  0  0  0  0  0  0  0  0
   27.8570   30.2360   43.5180 C   0  0  0  0  0  0  0  0  0  0  0  0
   27.5690   29.8150   44.7840 C   0  0  0  0  0  0  0  0  0  0  0  0
   26.3770   29.5510   45.1100 O   0  0  0  0  0  0  0  0  0  0  0  0
   28.4740   29.6440   45.7640 N   0  0  0  0  0  0  0  0  0  0  0  0
   29.7590   29.9190   45.4410 C   0  0  0  0  0  0  0  0  0  0  0  0
   30.6310   29.7690   46.3430 O   0  0  0  0  0  0  0  0  0  0  0  0
   27.6420   27.8720   49.4730 C   0  0  0  0  0  0  0  0  0  0  0  0
   27.5380   29.2500   49.3670 C   0  0  0  0  0  0  0  0  0  0  0  0
   27.7930   29.9130   48.1940 C   0  0  0  0  0  0  0  0  0  0  0  0
   28.1630   29.2080   47.0750 C   0  0  0  0  0  0  0  0  0  0  0  0
   28.2720   27.8150   47.1610 C   0  0  0  0  0  0  0  0  0  0  0  0
   28.0120   27.1430   48.3590 C   0  0  0  0  0  0  0  0  0  0  0  0
   27.3140   27.0770   50.9720 S   0  0  0  0  0  0  0  0  0  0  0  0
   28.4800   27.0220   51.8900 O   0  0  0  0  0  0  0  0  0  0  0  0
   26.1700   27.8010   51.6490 O   0  0  0  0  0  0  0  0  0  0  0  0
   26.7800   30.3980   42.5250 C   0  0  0  0  0  0  0  0  0  0  0  0
   26.4480   29.1920   41.7940 C   0  0  0  0  0  0  0  0  0  0  0  0
   26.8190   27.7830   41.6730 C   0  0  0  0  0  0  0  0  0  0  0  0
   26.1040   27.0840   40.7420 C   0  0  0  0  0  0  0  0  0  0  0  0
   25.1130   27.5970   39.9600 C   0  0  0  0  0  0  0  0  0  0  0  0
   25.0700   29.3800   40.5260 S   0  0  0  0  0  0  0  0  0  0  0  0
   34.5381   29.4788   44.7008 H   0  0  0  0  0  0  0  0  0  0  0  0
   35.2011   31.4026   43.1866 H   0  0  0  0  0  0  0  0  0  0  0  0
   33.3507   32.8082   42.1692 H   0  0  0  0  0  0  0  0  0  0  0  0
   29.4820   30.8354   42.2728 H   0  0  0  0  0  0  0  0  0  0  0  0
   27.2412   29.8308   50.2527 H   0  0  0  0  0  0  0  0  0  0  0  0
   27.7013   31.0083   48.1494 H   0  0  0  0  0  0  0  0  0  0  0  0
   28.5671   27.2396   46.2712 H   0  0  0  0  0  0  0  0  0  0  0  0
   28.1008   26.0480   48.4141 H   0  0  0  0  0  0  0  0  0  0  0  0
   26.9974   25.7751   50.6859 H   0  0  0  0  0  0  0  0  0  0  0  0
   25.8766   30.7401   43.0512 H   0  0  0  0  0  0  0  0  0  0  0  0
   27.1466   31.1220   41.7824 H   0  0  0  0  0  0  0  0  0  0  0  0
   27.6104   27.3226   42.2827 H   0  0  0  0  0  0  0  0  0  0  0  0
   26.3485   26.0193   40.6131 H   0  0  0  0  0  0  0  0  0  0  0  0
   24.4998   27.0952   39.1970 H   0  0  0  0  0  0  0  0  0  0  0  0
  1  6  2  0
  2  1  1  0
  3  4  1  0
  3  2  2  0
  4  5  2  0
  5  7  1  0
  5  6  1  0
  7 13  1  0
  8  9  2  0
  8  7  1  0
  9 10  1  0
 10 11  2  0
 10 12  1  0
 12 18  1  0
 13 12  1  0
 13 14  2  0
 15 21  1  0
 16 15  2  0
 17 16  1  0
 18 19  1  0
 18 17  2  0
 19 20  2  0
 20 15  1  0
 21 23  2  0
 21 22  2  0
 24  9  1  0
 25 24  1  0
 26 25  2  0
 27 26  1  0
 28 29  1  0
 28 27  2  0
 29 25  1  0
  1 30  1  0
  2 31  1  0
  3 32  1  0
  8 33  1  0
 16 34  1  0
 17 35  1  0
 19 36  1  0
 20 37  1  0
 21 38  1  0
 24 39  1  0
 24 40  1  0
 26 41  1  0
 27 42  1  0
 28 43  1  0
M  ISO  8  30  14  31  14  32  14  33  14  34  14  35  14  36  14  37  14
M  ISO  6  38  11  39   8  40   8  41  14  42  14  43  14
M  END
>  <minimizedAffinity>  (1) 
-4.48589611

>  <minimizedRMSD>  (1) 
0.212831378

$$$$
