
     RDKit          3D

 29 30  0  0  0  0  0  0  0  0999 V2000
   38.7310   31.2770   47.8610 C   0  0  0  0  0  0  0  0  0  0  0  0
   37.8420   30.2510   49.9020 C   0  0  0  0  0  0  0  0  0  0  0  0
   37.6030   30.7560   48.5990 C   0  0  0  0  0  0  0  0  0  0  0  0
   36.2960   30.7300   48.1570 C   0  0  0  0  0  0  0  0  0  0  0  0
   35.3370   30.2410   48.9670 N   0  0  0  0  0  0  0  0  0  0  0  0
   35.5810   29.7710   50.1900 C   0  0  0  0  0  0  0  0  0  0  0  0
   36.8420   29.7760   50.6610 N   0  0  0  0  0  0  0  0  0  0  0  0
   38.2220   32.1110   46.7120 C   0  0  0  0  0  0  0  0  0  0  0  0
   38.4200   31.6100   45.4010 N   0  0  0  0  0  0  0  0  0  0  0  0
   38.6780   32.6660   44.4260 C   0  0  0  0  0  0  0  0  0  0  0  0
   39.8680   33.4390   44.8600 C   0  0  0  0  0  0  0  0  0  0  0  0
   40.9060   32.6630   45.3370 O   0  0  0  0  0  0  0  0  0  0  0  0
   40.8180   31.3330   44.9670 C   0  0  0  0  0  0  0  0  0  0  0  0
   39.5240   30.6650   45.3520 C   0  0  0  0  0  0  0  0  0  0  0  0
   39.3494   31.9002   48.5237 H   0  0  0  0  0  0  0  0  0  0  0  0
   39.3398   30.4456   47.4762 H   0  0  0  0  0  0  0  0  0  0  0  0
   38.8678   30.2484   50.2991 H   0  0  0  0  0  0  0  0  0  0  0  0
   36.0401   31.1043   47.1548 H   0  0  0  0  0  0  0  0  0  0  0  0
   34.7591   29.3824   50.8092 H   0  0  0  0  0  0  0  0  0  0  0  0
   37.1392   32.2421   46.8545 H   0  0  0  0  0  0  0  0  0  0  0  0
   38.8174   33.0351   46.7515 H   0  0  0  0  0  0  0  0  0  0  0  0
   37.8059   33.3336   44.3649 H   0  0  0  0  0  0  0  0  0  0  0  0
   38.8614   32.2231   43.4359 H   0  0  0  0  0  0  0  0  0  0  0  0
   40.2366   34.0163   43.9993 H   0  0  0  0  0  0  0  0  0  0  0  0
   39.5422   34.0773   45.6945 H   0  0  0  0  0  0  0  0  0  0  0  0
   40.9248   31.2721   43.8739 H   0  0  0  0  0  0  0  0  0  0  0  0
   41.6175   30.8034   45.5058 H   0  0  0  0  0  0  0  0  0  0  0  0
   39.2922   29.8853   44.6115 H   0  0  0  0  0  0  0  0  0  0  0  0
   39.6485   30.2336   46.3562 H   0  0  0  0  0  0  0  0  0  0  0  0
  1  3  1  0
  2  7  2  0
  3  2  1  0
  4  3  2  0
  4  5  1  0
  5  6  2  0
  6  7  1  0
  8  1  1  0
  9  8  1  0
 10 11  1  0
 10  9  1  0
 11 12  1  0
 13 12  1  0
 13 14  1  0
 14  9  1  0
  1 15  1  0
  1 16  1  0
  2 17  1  0
  4 18  1  0
  6 19  1  0
  8 20  1  0
  8 21  1  0
 10 22  1  0
 10 23  1  0
 11 24  1  0
 11 25  1  0
 13 26  1  0
 13 27  1  0
 14 28  1  0
 14 29  1  0
M  ISO  8  15   8  16   8  17  14  18  14  19  14  20   8  21   8  22  13
M  ISO  7  23  13  24  13  25  13  26  13  27  13  28  13  29  13
M  END
>  <minimizedAffinity>  (1) 
-4.43066931

>  <minimizedRMSD>  (1) 
2.13374782

$$$$
