
     RDKit          3D

 34 36  0  0  0  0  0  0  0  0999 V2000
   39.9240   31.8140   46.0520 C   0  0  0  0  0  0  0  0  0  0  0  0
   40.2280   33.1110   46.3940 C   0  0  0  0  0  0  0  0  0  0  0  0
   39.6120   33.7460   47.4530 C   0  0  0  0  0  0  0  0  0  0  0  0
   38.6960   33.0300   48.1360 N   0  0  0  0  0  0  0  0  0  0  0  0
   38.3770   31.7710   47.8290 C   0  0  0  0  0  0  0  0  0  0  0  0
   38.9880   31.1610   46.7910 N   0  0  0  0  0  0  0  0  0  0  0  0
   37.3980   31.0780   48.5970 N   0  0  0  0  0  0  0  0  0  0  0  0
   36.2620   30.6780   47.9990 C   0  0  0  0  0  0  0  0  0  0  0  0
   35.2910   29.9970   48.7420 C   0  0  0  0  0  0  0  0  0  0  0  0
   35.6080   29.7920   50.0750 C   0  0  0  0  0  0  0  0  0  0  0  0
   34.7820   29.1900   50.7910 O   0  0  0  0  0  0  0  0  0  0  0  0
   36.7520   30.1980   50.6680 N   0  0  0  0  0  0  0  0  0  0  0  0
   37.6590   30.8510   49.9100 C   0  0  0  0  0  0  0  0  0  0  0  0
   38.7440   31.2530   50.4030 O   0  0  0  0  0  0  0  0  0  0  0  0
   40.6220   31.1230   44.9110 C   0  0  0  0  0  0  0  0  0  0  0  0
   39.7020   31.2750   43.7260 C   0  0  0  0  0  0  0  0  0  0  0  0
   41.1320   29.6630   42.5450 C   0  0  0  0  0  0  0  0  0  0  0  0
   40.2970   30.7830   42.5270 C   0  0  0  0  0  0  0  0  0  0  0  0
   40.0680   31.3780   41.3060 C   0  0  0  0  0  0  0  0  0  0  0  0
   40.6450   30.8740   40.1710 N   0  0  0  0  0  0  0  0  0  0  0  0
   41.4430   29.7970   40.2190 C   0  0  0  0  0  0  0  0  0  0  0  0
   41.6690   29.2160   41.3920 N   0  0  0  0  0  0  0  0  0  0  0  0
   40.9821   33.6566   45.8078 H   0  0  0  0  0  0  0  0  0  0  0  0
   39.8558   34.7833   47.7261 H   0  0  0  0  0  0  0  0  0  0  0  0
   36.0967   30.8850   46.9314 H   0  0  0  0  0  0  0  0  0  0  0  0
   34.3454   29.6499   48.3000 H   0  0  0  0  0  0  0  0  0  0  0  0
   36.9268   30.0153   51.6665 H   0  0  0  0  0  0  0  0  0  0  0  0
   41.5923   31.5999   44.7083 H   0  0  0  0  0  0  0  0  0  0  0  0
   40.8260   30.0659   45.1369 H   0  0  0  0  0  0  0  0  0  0  0  0
   38.7758   30.7141   43.9200 H   0  0  0  0  0  0  0  0  0  0  0  0
   39.4941   32.3466   43.5898 H   0  0  0  0  0  0  0  0  0  0  0  0
   41.3497   29.1496   43.4931 H   0  0  0  0  0  0  0  0  0  0  0  0
   39.4179   32.2631   41.2423 H   0  0  0  0  0  0  0  0  0  0  0  0
   41.9030   29.4011   39.3016 H   0  0  0  0  0  0  0  0  0  0  0  0
  1  2  2  0
  1  6  1  0
  2  3  1  0
  3  4  2  0
  5  4  1  0
  5  7  1  0
  6  5  2  0
  7 13  1  0
  8  7  1  0
  8  9  2  0
  9 10  1  0
 10 12  1  0
 10 11  2  0
 13 14  2  0
 13 12  1  0
 15  1  1  0
 16 15  1  0
 18 17  2  0
 18 16  1  0
 19 18  1  0
 20 21  1  0
 20 19  2  0
 21 22  2  0
 22 17  1  0
  2 23  1  0
  3 24  1  0
  8 25  1  0
  9 26  1  0
 12 27  1  0
 15 28  1  0
 15 29  1  0
 16 30  1  0
 16 31  1  0
 17 32  1  0
 19 33  1  0
 21 34  1  0
M  ISO  8  23  14  24  14  25  14  26  14  27   9  28   8  29   8  30   8
M  ISO  4  31   8  32  14  33  14  34  14
M  END
>  <minimizedAffinity>  (1) 
-5.77857161

>  <minimizedRMSD>  (1) 
8.10802937

$$$$
