
     RDKit          3D

 30 32  0  0  0  0  0  0  0  0999 V2000
   37.8570   31.9690   47.4020 C   0  0  0  0  0  0  0  0  0  0  0  0
   38.6680   31.9620   46.1290 C   0  0  0  0  0  0  0  0  0  0  0  0
   39.9570   31.4840   46.1040 C   0  0  0  0  0  0  0  0  0  0  0  0
   40.7090   31.4850   44.9530 C   0  0  0  0  0  0  0  0  0  0  0  0
   40.1300   31.9760   43.8330 N   0  0  0  0  0  0  0  0  0  0  0  0
   38.8790   32.4470   43.8300 C   0  0  0  0  0  0  0  0  0  0  0  0
   38.1590   32.4360   44.9740 N   0  0  0  0  0  0  0  0  0  0  0  0
   38.2390   32.9710   42.6700 N   0  0  0  0  0  0  0  0  0  0  0  0
   36.9750   33.0640   42.2160 C   0  0  0  0  0  0  0  0  0  0  0  0
   36.9880   33.6820   41.0160 N   0  0  0  0  0  0  0  0  0  0  0  0
   38.2700   33.9680   40.7340 C   0  0  0  0  0  0  0  0  0  0  0  0
   39.0540   33.5280   41.7610 N   0  0  0  0  0  0  0  0  0  0  0  0
   38.5940   31.0550   48.3480 C   0  0  0  0  0  0  0  0  0  0  0  0
   37.9080   30.6430   50.6750 C   0  0  0  0  0  0  0  0  0  0  0  0
   37.7180   30.4590   49.3020 C   0  0  0  0  0  0  0  0  0  0  0  0
   36.6440   29.6890   48.9180 C   0  0  0  0  0  0  0  0  0  0  0  0
   35.8090   29.1370   49.8520 N   0  0  0  0  0  0  0  0  0  0  0  0
   36.0230   29.3370   51.1660 C   0  0  0  0  0  0  0  0  0  0  0  0
   37.0570   30.0770   51.5460 N   0  0  0  0  0  0  0  0  0  0  0  0
   36.8413   31.5910   47.2139 H   0  0  0  0  0  0  0  0  0  0  0  0
   37.7479   32.9834   47.8133 H   0  0  0  0  0  0  0  0  0  0  0  0
   40.3990   31.0897   47.0309 H   0  0  0  0  0  0  0  0  0  0  0  0
   41.7401   31.1020   44.9431 H   0  0  0  0  0  0  0  0  0  0  0  0
   36.0788   32.6967   42.7374 H   0  0  0  0  0  0  0  0  0  0  0  0
   38.6287   34.4735   39.8252 H   0  0  0  0  0  0  0  0  0  0  0  0
   39.0809   30.2586   47.7660 H   0  0  0  0  0  0  0  0  0  0  0  0
   39.3352   31.6563   48.8948 H   0  0  0  0  0  0  0  0  0  0  0  0
   38.7507   31.2486   51.0400 H   0  0  0  0  0  0  0  0  0  0  0  0
   36.4543   29.5151   47.8485 H   0  0  0  0  0  0  0  0  0  0  0  0
   35.3500   28.8931   51.9144 H   0  0  0  0  0  0  0  0  0  0  0  0
  1 13  1  0
  2  1  1  0
  3  2  2  0
  4  3  1  0
  5  4  2  0
  6  5  1  0
  6  7  2  0
  7  2  1  0
  8  6  1  0
  9  8  1  0
 10  9  2  0
 11 10  1  0
 11 12  2  0
 12  8  1  0
 13 15  1  0
 14 19  2  0
 15 14  1  0
 16 15  2  0
 16 17  1  0
 17 18  2  0
 18 19  1  0
  1 20  1  0
  1 21  1  0
  3 22  1  0
  4 23  1  0
  9 24  1  0
 11 25  1  0
 13 26  1  0
 13 27  1  0
 14 28  1  0
 16 29  1  0
 18 30  1  0
M  ISO  8  20   8  21   8  22  14  23  14  24  14  25  14  26   8  27   8
M  ISO  3  28  14  29  14  30  14
M  END
>  <minimizedAffinity>  (1) 
-5.51115751

>  <minimizedRMSD>  (1) 
3.04117608

$$$$
