
     RDKit          3D

 26 28  0  0  0  0  0  0  0  0999 V2000
   38.4100   32.1680   48.8790 C   0  0  0  0  0  0  0  0  0  0  0  0
   38.7530   33.3660   49.5240 C   0  0  0  0  0  0  0  0  0  0  0  0
   39.5430   34.3540   48.9860 C   0  0  0  0  0  0  0  0  0  0  0  0
   40.0450   34.1690   47.7190 C   0  0  0  0  0  0  0  0  0  0  0  0
   39.7580   33.0210   47.0180 C   0  0  0  0  0  0  0  0  0  0  0  0
   40.2830   32.8140   45.7660 C   0  0  0  0  0  0  0  0  0  0  0  0
   40.0470   31.6480   45.0430 C   0  0  0  0  0  0  0  0  0  0  0  0
   39.2380   30.7000   45.6830 C   0  0  0  0  0  0  0  0  0  0  0  0
   38.7390   30.9490   46.9220 C   0  0  0  0  0  0  0  0  0  0  0  0
   38.9670   32.0970   47.6340 C   0  0  0  0  0  0  0  0  0  0  0  0
   36.9500   29.5160   51.2040 C   0  0  0  0  0  0  0  0  0  0  0  0
   37.8800   30.3870   50.6430 C   0  0  0  0  0  0  0  0  0  0  0  0
   37.5820   31.2630   49.6180 C   0  0  0  0  0  0  0  0  0  0  0  0
   36.2900   31.1800   49.2160 N   0  0  0  0  0  0  0  0  0  0  0  0
   35.3670   30.3580   49.7260 C   0  0  0  0  0  0  0  0  0  0  0  0
   35.7120   29.5360   50.7170 N   0  0  0  0  0  0  0  0  0  0  0  0
   38.3593   33.5270   50.5385 H   0  0  0  0  0  0  0  0  0  0  0  0
   39.7678   35.2687   49.5541 H   0  0  0  0  0  0  0  0  0  0  0  0
   40.6796   34.9436   47.2637 H   0  0  0  0  0  0  0  0  0  0  0  0
   40.9124   33.5974   45.3185 H   0  0  0  0  0  0  0  0  0  0  0  0
   40.4663   31.4826   44.0396 H   0  0  0  0  0  0  0  0  0  0  0  0
   39.0057   29.7497   45.1801 H   0  0  0  0  0  0  0  0  0  0  0  0
   38.1086   30.1757   47.3852 H   0  0  0  0  0  0  0  0  0  0  0  0
   37.2290   28.8349   52.0215 H   0  0  0  0  0  0  0  0  0  0  0  0
   38.9069   30.3768   51.0373 H   0  0  0  0  0  0  0  0  0  0  0  0
   34.3392   30.3600   49.3340 H   0  0  0  0  0  0  0  0  0  0  0  0
  1  2  2  0
  1 13  1  0
  3  2  1  0
  4  3  2  0
  5 10  2  0
  5  4  1  0
  6  5  1  0
  7  8  1  0
  7  6  2  0
  8  9  2  0
  9 10  1  0
 10  1  1  0
 12 11  2  0
 13 12  1  0
 14 13  2  0
 14 15  1  0
 15 16  2  0
 16 11  1  0
  2 17  1  0
  3 18  1  0
  4 19  1  0
  6 20  1  0
  7 21  1  0
  8 22  1  0
  9 23  1  0
 11 24  1  0
 12 25  1  0
 15 26  1  0
M  ISO  8  17  14  18  14  19  14  20  14  21  14  22  14  23  14  24  14
M  ISO  2  25  14  26  14
M  END
>  <minimizedAffinity>  (1) 
-6.6744194

>  <minimizedRMSD>  (1) 
2.31041455

$$$$
