
     RDKit          3D

 25 26  0  0  0  0  0  0  0  0999 V2000
   38.2340   32.2800   49.1500 C   0  0  0  0  0  0  0  0  0  0  0  0
   38.6200   31.9600   47.7280 C   0  0  0  0  0  0  0  0  0  0  0  0
   38.4600   30.6940   47.2150 C   0  0  0  0  0  0  0  0  0  0  0  0
   38.8240   30.3770   45.9270 C   0  0  0  0  0  0  0  0  0  0  0  0
   39.3540   31.3710   45.1740 N   0  0  0  0  0  0  0  0  0  0  0  0
   39.5180   32.6060   45.6530 C   0  0  0  0  0  0  0  0  0  0  0  0
   39.1560   32.9050   46.9180 N   0  0  0  0  0  0  0  0  0  0  0  0
   40.2290   33.8450   44.5670 S   0  0  0  0  0  0  0  0  0  0  0  0
   38.2160   30.9560   49.8700 C   0  0  0  0  0  0  0  0  0  0  0  0
   36.6210   29.5080   51.0480 C   0  0  0  0  0  0  0  0  0  0  0  0
   36.8800   30.5010   50.1000 C   0  0  0  0  0  0  0  0  0  0  0  0
   35.8060   31.0190   49.4160 C   0  0  0  0  0  0  0  0  0  0  0  0
   34.5410   30.5670   49.6720 N   0  0  0  0  0  0  0  0  0  0  0  0
   34.3200   29.6100   50.5910 C   0  0  0  0  0  0  0  0  0  0  0  0
   35.3500   29.1020   51.2570 N   0  0  0  0  0  0  0  0  0  0  0  0
   37.2394   32.7487   49.1822 H   0  0  0  0  0  0  0  0  0  0  0  0
   38.9368   32.9875   49.6143 H   0  0  0  0  0  0  0  0  0  0  0  0
   38.0275   29.9106   47.8547 H   0  0  0  0  0  0  0  0  0  0  0  0
   38.6907   29.3614   45.5260 H   0  0  0  0  0  0  0  0  0  0  0  0
   40.7990   34.8383   45.3189 H   0  0  0  0  0  0  0  0  0  0  0  0
   38.7472   30.2105   49.2600 H   0  0  0  0  0  0  0  0  0  0  0  0
   38.7078   31.0875   50.8451 H   0  0  0  0  0  0  0  0  0  0  0  0
   37.4467   29.0599   51.6203 H   0  0  0  0  0  0  0  0  0  0  0  0
   35.9649   31.8010   48.6589 H   0  0  0  0  0  0  0  0  0  0  0  0
   33.2985   29.2527   50.7883 H   0  0  0  0  0  0  0  0  0  0  0  0
  1  9  1  0
  2  1  1  0
  3  2  2  0
  4  3  1  0
  5  6  1  0
  5  4  2  0
  6  7  2  0
  7  2  1  0
  8  6  1  0
  9 11  1  0
 10 15  2  0
 11 10  1  0
 12 13  1  0
 12 11  2  0
 13 14  2  0
 14 15  1  0
  1 16  1  0
  1 17  1  0
  3 18  1  0
  4 19  1  0
  8 20  1  0
  9 21  1  0
  9 22  1  0
 10 23  1  0
 12 24  1  0
 14 25  1  0
M  ISO  8  16   8  17   8  18  14  19  14  20  11  21   8  22   8  23  14
M  ISO  2  24  14  25  14
M  END
>  <minimizedAffinity>  (1) 
-4.61772585

>  <minimizedRMSD>  (1) 
0.852948546

$$$$
