
     RDKit          3D

 30 31  0  0  0  0  0  0  0  0999 V2000
   38.2140   32.4600   49.1890 C   0  0  0  0  0  0  0  0  0  0  0  0
   38.6440   32.0730   47.8010 C   0  0  0  0  0  0  0  0  0  0  0  0
   38.5330   30.7760   47.3560 C   0  0  0  0  0  0  0  0  0  0  0  0
   38.9680   30.4080   46.0970 C   0  0  0  0  0  0  0  0  0  0  0  0
   39.5100   31.3710   45.3160 N   0  0  0  0  0  0  0  0  0  0  0  0
   39.6200   32.6330   45.7410 C   0  0  0  0  0  0  0  0  0  0  0  0
   39.1970   33.0000   46.9670 N   0  0  0  0  0  0  0  0  0  0  0  0
   40.2190   33.6940   44.8730 C   0  0  0  0  0  0  0  0  0  0  0  0
   39.7940   33.4800   43.4200 C   0  0  0  0  0  0  0  0  0  0  0  0
   38.2520   31.1770   49.9880 C   0  0  0  0  0  0  0  0  0  0  0  0
   36.7130   29.5960   51.0730 C   0  0  0  0  0  0  0  0  0  0  0  0
   36.9410   30.6390   50.1700 C   0  0  0  0  0  0  0  0  0  0  0  0
   35.8540   31.1270   49.4810 C   0  0  0  0  0  0  0  0  0  0  0  0
   34.6090   30.5970   49.6930 N   0  0  0  0  0  0  0  0  0  0  0  0
   34.4190   29.5970   50.5650 C   0  0  0  0  0  0  0  0  0  0  0  0
   35.4620   29.1180   51.2340 N   0  0  0  0  0  0  0  0  0  0  0  0
   37.1958   32.8760   49.1755 H   0  0  0  0  0  0  0  0  0  0  0  0
   38.8667   33.2329   49.6211 H   0  0  0  0  0  0  0  0  0  0  0  0
   38.0889   30.0162   48.0159 H   0  0  0  0  0  0  0  0  0  0  0  0
   38.8770   29.3706   45.7428 H   0  0  0  0  0  0  0  0  0  0  0  0
   39.8727   34.6813   45.2125 H   0  0  0  0  0  0  0  0  0  0  0  0
   41.3156   33.6406   44.9409 H   0  0  0  0  0  0  0  0  0  0  0  0
   38.8118   32.9854   43.3943 H   0  0  0  0  0  0  0  0  0  0  0  0
   39.7283   34.4525   42.9102 H   0  0  0  0  0  0  0  0  0  0  0  0
   40.5361   32.8481   42.9102 H   0  0  0  0  0  0  0  0  0  0  0  0
   38.8704   30.4406   49.4539 H   0  0  0  0  0  0  0  0  0  0  0  0
   38.6770   31.3975   50.9783 H   0  0  0  0  0  0  0  0  0  0  0  0
   37.5477   29.1685   51.6478 H   0  0  0  0  0  0  0  0  0  0  0  0
   35.9856   31.9453   48.7578 H   0  0  0  0  0  0  0  0  0  0  0  0
   33.4141   29.1790   50.7244 H   0  0  0  0  0  0  0  0  0  0  0  0
  1 10  1  0
  2  1  1  0
  3  2  2  0
  4  3  1  0
  5  6  1  0
  5  4  2  0
  6  7  2  0
  7  2  1  0
  8  6  1  0
  9  8  1  0
 10 12  1  0
 11 16  2  0
 12 11  1  0
 13 14  1  0
 13 12  2  0
 14 15  2  0
 15 16  1  0
  1 17  1  0
  1 18  1  0
  3 19  1  0
  4 20  1  0
  8 21  1  0
  8 22  1  0
  9 23  1  0
  9 24  1  0
  9 25  1  0
 10 26  1  0
 10 27  1  0
 11 28  1  0
 13 29  1  0
 15 30  1  0
M  ISO  8  17   8  18   8  19  14  20  14  21   8  22   8  23   8  24   8
M  ISO  6  25   8  26   8  27   8  28  14  29  14  30  14
M  END
>  <minimizedAffinity>  (1) 
-4.96811438

>  <minimizedRMSD>  (1) 
0.891720057

$$$$
