
     RDKit          3D

 40 42  0  0  0  0  0  0  0  0999 V2000
   37.3410   31.0590   50.2600 C   0  0  0  0  0  0  0  0  0  0  0  0
   36.3610   28.8590   49.8360 C   0  0  0  0  0  0  0  0  0  0  0  0
   36.2560   30.2460   49.8480 C   0  0  0  0  0  0  0  0  0  0  0  0
   35.0660   30.7870   49.4640 C   0  0  0  0  0  0  0  0  0  0  0  0
   34.0120   29.9950   49.0800 N   0  0  0  0  0  0  0  0  0  0  0  0
   34.1360   28.6580   49.0770 C   0  0  0  0  0  0  0  0  0  0  0  0
   35.2980   28.1120   49.4510 N   0  0  0  0  0  0  0  0  0  0  0  0
   33.0130   27.8050   48.6680 C   0  0  0  0  0  0  0  0  0  0  0  0
   33.2400   26.7670   47.7890 C   0  0  0  0  0  0  0  0  0  0  0  0
   32.2370   25.9250   47.3610 C   0  0  0  0  0  0  0  0  0  0  0  0
   30.9680   26.1650   47.8550 C   0  0  0  0  0  0  0  0  0  0  0  0
   30.7610   27.2030   48.7300 C   0  0  0  0  0  0  0  0  0  0  0  0
   31.7520   28.0550   49.1700 C   0  0  0  0  0  0  0  0  0  0  0  0
   37.4480   32.3340   49.4800 C   0  0  0  0  0  0  0  0  0  0  0  0
   38.1460   31.9620   48.2020 C   0  0  0  0  0  0  0  0  0  0  0  0
   38.0170   30.7230   47.6450 C   0  0  0  0  0  0  0  0  0  0  0  0
   38.6820   30.4070   46.4760 C   0  0  0  0  0  0  0  0  0  0  0  0
   39.4580   31.3610   45.9080 N   0  0  0  0  0  0  0  0  0  0  0  0
   39.5840   32.5690   46.4470 C   0  0  0  0  0  0  0  0  0  0  0  0
   38.9420   32.9040   47.5950 N   0  0  0  0  0  0  0  0  0  0  0  0
   40.4390   33.6110   45.8140 C   0  0  0  0  0  0  0  0  0  0  0  0
   40.0870   33.7300   44.3250 C   0  0  0  0  0  0  0  0  0  0  0  0
   37.2077   31.3087   51.3230 H   0  0  0  0  0  0  0  0  0  0  0  0
   38.2646   30.4880   50.0844 H   0  0  0  0  0  0  0  0  0  0  0  0
   37.3003   28.3720   50.1369 H   0  0  0  0  0  0  0  0  0  0  0  0
   34.9471   31.8806   49.4615 H   0  0  0  0  0  0  0  0  0  0  0  0
   34.2617   26.6050   47.4150 H   0  0  0  0  0  0  0  0  0  0  0  0
   32.4362   25.1012   46.6598 H   0  0  0  0  0  0  0  0  0  0  0  0
   30.1267   25.5263   47.5480 H   0  0  0  0  0  0  0  0  0  0  0  0
   29.7393   27.3652   49.1038 H   0  0  0  0  0  0  0  0  0  0  0  0
   31.5513   28.8772   49.8726 H   0  0  0  0  0  0  0  0  0  0  0  0
   36.4482   32.7408   49.2682 H   0  0  0  0  0  0  0  0  0  0  0  0
   37.9967   33.1088   50.0355 H   0  0  0  0  0  0  0  0  0  0  0  0
   37.3787   29.9701   48.1305 H   0  0  0  0  0  0  0  0  0  0  0  0
   38.5843   29.4107   46.0202 H   0  0  0  0  0  0  0  0  0  0  0  0
   40.2658   34.5776   46.3096 H   0  0  0  0  0  0  0  0  0  0  0  0
   41.4970   33.3286   45.9181 H   0  0  0  0  0  0  0  0  0  0  0  0
   39.0497   34.0807   44.2203 H   0  0  0  0  0  0  0  0  0  0  0  0
   40.7672   34.4481   43.8437 H   0  0  0  0  0  0  0  0  0  0  0  0
   40.1919   32.7465   43.8437 H   0  0  0  0  0  0  0  0  0  0  0  0
  2  3  2  0
  3  1  1  0
  4  3  1  0
  5  4  2  0
  6  5  1  0
  6  7  2  0
  7  2  1  0
  8  6  1  0
  8 13  1  0
  9  8  2  0
 10  9  1  0
 10 11  2  0
 11 12  1  0
 12 13  2  0
 14  1  1  0
 15 14  1  0
 16 15  2  0
 17 16  1  0
 18 19  1  0
 18 17  2  0
 19 20  2  0
 20 15  1  0
 21 19  1  0
 22 21  1  0
  1 23  1  0
  1 24  1  0
  2 25  1  0
  4 26  1  0
  9 27  1  0
 10 28  1  0
 11 29  1  0
 12 30  1  0
 13 31  1  0
 14 32  1  0
 14 33  1  0
 16 34  1  0
 17 35  1  0
 21 36  1  0
 21 37  1  0
 22 38  1  0
 22 39  1  0
 22 40  1  0
M  ISO  8  23   8  24   8  25  14  26  14  27  14  28  14  29  14  30  14
M  ISO  8  31  14  32   8  33   8  34  14  35  14  36   8  37   8  38   8
M  ISO  2  39   8  40   8
M  END
>  <minimizedAffinity>  (1) 
-5.57854557

>  <minimizedRMSD>  (1) 
1.89798129

$$$$
