
     RDKit          3D

 40 42  0  0  0  0  0  0  0  0999 V2000
   37.5480   30.6350   50.2380 C   0  0  0  0  0  0  0  0  0  0  0  0
   36.2050   28.6690   49.6800 C   0  0  0  0  0  0  0  0  0  0  0  0
   36.3210   30.0400   49.8620 C   0  0  0  0  0  0  0  0  0  0  0  0
   35.1920   30.7790   49.6760 C   0  0  0  0  0  0  0  0  0  0  0  0
   34.0010   30.1940   49.3280 N   0  0  0  0  0  0  0  0  0  0  0  0
   33.9270   28.8600   49.1600 C   0  0  0  0  0  0  0  0  0  0  0  0
   35.0100   28.1280   49.3360 N   0  0  0  0  0  0  0  0  0  0  0  0
   32.7370   28.1670   48.8010 N   0  0  0  0  0  0  0  0  0  0  0  0
   31.6010   28.3120   49.5390 C   0  0  0  0  0  0  0  0  0  0  0  0
   30.4550   27.6330   49.1770 C   0  0  0  0  0  0  0  0  0  0  0  0
   30.4680   26.8030   48.0590 C   0  0  0  0  0  0  0  0  0  0  0  0
   29.4350   26.1780   47.7170 O   0  0  0  0  0  0  0  0  0  0  0  0
   31.6030   26.6610   47.3280 N   0  0  0  0  0  0  0  0  0  0  0  0
   32.6890   27.3390   47.7170 C   0  0  0  0  0  0  0  0  0  0  0  0
   33.7740   27.2510   47.0810 O   0  0  0  0  0  0  0  0  0  0  0  0
   37.7420   32.0000   49.6550 C   0  0  0  0  0  0  0  0  0  0  0  0
   38.3060   31.7740   48.2810 C   0  0  0  0  0  0  0  0  0  0  0  0
   38.1050   30.6050   47.6060 C   0  0  0  0  0  0  0  0  0  0  0  0
   38.6490   30.4240   46.3510 C   0  0  0  0  0  0  0  0  0  0  0  0
   39.3820   31.4310   45.8180 N   0  0  0  0  0  0  0  0  0  0  0  0
   39.5770   32.5720   46.4760 C   0  0  0  0  0  0  0  0  0  0  0  0
   39.0530   32.7640   47.6980 N   0  0  0  0  0  0  0  0  0  0  0  0
   40.3830   33.6740   45.8810 C   0  0  0  0  0  0  0  0  0  0  0  0
   40.0870   33.7830   44.3750 C   0  0  0  0  0  0  0  0  0  0  0  0
   37.5764   30.7155   51.3347 H   0  0  0  0  0  0  0  0  0  0  0  0
   38.3548   29.9954   49.8508 H   0  0  0  0  0  0  0  0  0  0  0  0
   37.0833   28.0206   49.8149 H   0  0  0  0  0  0  0  0  0  0  0  0
   35.2363   31.8702   49.8079 H   0  0  0  0  0  0  0  0  0  0  0  0
   31.5970   28.9687   50.4214 H   0  0  0  0  0  0  0  0  0  0  0  0
   29.5352   27.7471   49.7693 H   0  0  0  0  0  0  0  0  0  0  0  0
   31.6275   26.0500   46.4992 H   0  0  0  0  0  0  0  0  0  0  0  0
   36.7810   32.5317   49.5933 H   0  0  0  0  0  0  0  0  0  0  0  0
   38.4105   32.6165   50.2739 H   0  0  0  0  0  0  0  0  0  0  0  0
   37.5068   29.8037   48.0644 H   0  0  0  0  0  0  0  0  0  0  0  0
   38.4916   29.4865   45.7976 H   0  0  0  0  0  0  0  0  0  0  0  0
   40.1238   34.6228   46.3735 H   0  0  0  0  0  0  0  0  0  0  0  0
   41.4523   33.4606   46.0261 H   0  0  0  0  0  0  0  0  0  0  0  0
   39.0639   34.1597   44.2287 H   0  0  0  0  0  0  0  0  0  0  0  0
   40.8031   34.4764   43.9098 H   0  0  0  0  0  0  0  0  0  0  0  0
   40.1824   32.7908   43.9098 H   0  0  0  0  0  0  0  0  0  0  0  0
  2  3  2  0
  3  1  1  0
  4  3  1  0
  5  4  2  0
  6  5  1  0
  6  7  2  0
  7  2  1  0
  8  6  1  0
  8  9  1  0
 10  9  2  0
 11 10  1  0
 12 11  2  0
 13 14  1  0
 13 11  1  0
 14  8  1  0
 15 14  2  0
 16  1  1  0
 17 16  1  0
 18 17  2  0
 19 18  1  0
 20 19  2  0
 20 21  1  0
 21 22  2  0
 22 17  1  0
 23 21  1  0
 24 23  1  0
  1 25  1  0
  1 26  1  0
  2 27  1  0
  4 28  1  0
  9 29  1  0
 10 30  1  0
 13 31  1  0
 16 32  1  0
 16 33  1  0
 18 34  1  0
 19 35  1  0
 23 36  1  0
 23 37  1  0
 24 38  1  0
 24 39  1  0
 24 40  1  0
M  ISO  8  25   8  26   8  27  14  28  14  29  14  30  14  31   9  32   8
M  ISO  8  33   8  34  14  35  14  36   8  37   8  38   8  39   8  40   8
M  END
>  <minimizedAffinity>  (1) 
-5.51913691

>  <minimizedRMSD>  (1) 
2.01939416

$$$$
