
     RDKit          3D

 36 37  0  0  0  0  0  0  0  0999 V2000
   38.3900   32.4840   49.2630 C   0  0  0  0  0  0  0  0  0  0  0  0
   38.7490   32.0840   47.8590 C   0  0  0  0  0  0  0  0  0  0  0  0
   38.5550   30.8130   47.4030 C   0  0  0  0  0  0  0  0  0  0  0  0
   38.9050   30.4740   46.1110 C   0  0  0  0  0  0  0  0  0  0  0  0
   39.4390   31.4240   45.3220 N   0  0  0  0  0  0  0  0  0  0  0  0
   39.6290   32.6690   45.7660 C   0  0  0  0  0  0  0  0  0  0  0  0
   39.2950   33.0350   47.0300 N   0  0  0  0  0  0  0  0  0  0  0  0
   40.2180   33.7250   44.8890 C   0  0  0  0  0  0  0  0  0  0  0  0
   39.7990   33.4830   43.4310 C   0  0  0  0  0  0  0  0  0  0  0  0
   38.2970   31.2040   50.0310 C   0  0  0  0  0  0  0  0  0  0  0  0
   36.9480   29.1670   49.9430 C   0  0  0  0  0  0  0  0  0  0  0  0
   37.0470   30.5520   49.8820 C   0  0  0  0  0  0  0  0  0  0  0  0
   35.8960   31.2540   49.6910 C   0  0  0  0  0  0  0  0  0  0  0  0
   34.6840   30.6240   49.5630 N   0  0  0  0  0  0  0  0  0  0  0  0
   34.6140   29.2790   49.6260 C   0  0  0  0  0  0  0  0  0  0  0  0
   35.7270   28.5850   49.8110 N   0  0  0  0  0  0  0  0  0  0  0  0
   33.3160   28.5540   49.4910 C   0  0  0  0  0  0  0  0  0  0  0  0
   33.4570   27.5650   48.3430 C   0  0  0  0  0  0  0  0  0  0  0  0
   37.4252   33.0122   49.2776 H   0  0  0  0  0  0  0  0  0  0  0  0
   39.1355   33.1670   49.6963 H   0  0  0  0  0  0  0  0  0  0  0  0
   38.1174   30.0541   48.0682 H   0  0  0  0  0  0  0  0  0  0  0  0
   38.7509   29.4515   45.7358 H   0  0  0  0  0  0  0  0  0  0  0  0
   39.8576   34.7123   45.2136 H   0  0  0  0  0  0  0  0  0  0  0  0
   41.3149   33.6886   44.9628 H   0  0  0  0  0  0  0  0  0  0  0  0
   38.8466   32.9329   43.4097 H   0  0  0  0  0  0  0  0  0  0  0  0
   39.6760   34.4491   42.9197 H   0  0  0  0  0  0  0  0  0  0  0  0
   40.5744   32.8936   42.9197 H   0  0  0  0  0  0  0  0  0  0  0  0
   39.0887   30.5266   49.6784 H   0  0  0  0  0  0  0  0  0  0  0  0
   38.4102   31.4534   51.0963 H   0  0  0  0  0  0  0  0  0  0  0  0
   37.8459   28.5502   50.0961 H   0  0  0  0  0  0  0  0  0  0  0  0
   35.9389   32.3519   49.6381 H   0  0  0  0  0  0  0  0  0  0  0  0
   33.0883   28.0163   50.4232 H   0  0  0  0  0  0  0  0  0  0  0  0
   32.4977   29.2617   49.2921 H   0  0  0  0  0  0  0  0  0  0  0  0
   33.6014   26.5522   48.7472 H   0  0  0  0  0  0  0  0  0  0  0  0
   32.5466   27.5872   47.7260 H   0  0  0  0  0  0  0  0  0  0  0  0
   34.3249   27.8407   47.7260 H   0  0  0  0  0  0  0  0  0  0  0  0
  1 10  1  0
  2  1  1  0
  3  2  2  0
  4  3  1  0
  5  6  1  0
  5  4  2  0
  6  7  2  0
  7  2  1  0
  8  6  1  0
  9  8  1  0
 12 11  2  0
 12 10  1  0
 13 12  1  0
 14 15  1  0
 14 13  2  0
 15 16  2  0
 16 11  1  0
 17 15  1  0
 18 17  1  0
  1 19  1  0
  1 20  1  0
  3 21  1  0
  4 22  1  0
  8 23  1  0
  8 24  1  0
  9 25  1  0
  9 26  1  0
  9 27  1  0
 10 28  1  0
 10 29  1  0
 11 30  1  0
 13 31  1  0
 17 32  1  0
 17 33  1  0
 18 34  1  0
 18 35  1  0
 18 36  1  0
M  ISO  8  19   8  20   8  21  14  22  14  23   8  24   8  25   8  26   8
M  ISO  8  27   8  28   8  29   8  30  14  31  14  32   8  33   8  34   8
M  ISO  2  35   8  36   8
M  END
>  <minimizedAffinity>  (1) 
-5.21874952

>  <minimizedRMSD>  (1) 
0.862689793

$$$$
