
     RDKit          3D

 39 40  0  0  0  0  0  0  0  0999 V2000
   37.1440   32.1040   49.6330 C   0  0  0  0  0  0  0  0  0  0  0  0
   37.9270   31.8330   48.3910 C   0  0  0  0  0  0  0  0  0  0  0  0
   37.9060   30.6120   47.7820 C   0  0  0  0  0  0  0  0  0  0  0  0
   38.6530   30.3620   46.6490 C   0  0  0  0  0  0  0  0  0  0  0  0
   39.4100   31.3850   46.1620 N   0  0  0  0  0  0  0  0  0  0  0  0
   39.4360   32.5740   46.7460 C   0  0  0  0  0  0  0  0  0  0  0  0
   38.7080   32.8040   47.8440 N   0  0  0  0  0  0  0  0  0  0  0  0
   40.2710   33.6800   46.1970 C   0  0  0  0  0  0  0  0  0  0  0  0
   40.1360   33.7290   44.6700 C   0  0  0  0  0  0  0  0  0  0  0  0
   36.9280   30.7660   50.2810 C   0  0  0  0  0  0  0  0  0  0  0  0
   35.8010   28.6470   49.8180 C   0  0  0  0  0  0  0  0  0  0  0  0
   35.8670   30.0280   49.6970 C   0  0  0  0  0  0  0  0  0  0  0  0
   34.8660   30.6460   49.0090 C   0  0  0  0  0  0  0  0  0  0  0  0
   33.8310   29.9310   48.4580 N   0  0  0  0  0  0  0  0  0  0  0  0
   33.7900   28.5920   48.5910 C   0  0  0  0  0  0  0  0  0  0  0  0
   34.7630   27.9750   49.2610 N   0  0  0  0  0  0  0  0  0  0  0  0
   32.6740   27.7920   48.0000 C   0  0  0  0  0  0  0  0  0  0  0  0
   33.1140   26.4050   47.6230 C   0  0  0  0  0  0  0  0  0  0  0  0
   31.5800   27.7580   49.0620 C   0  0  0  0  0  0  0  0  0  0  0  0
   36.1789   32.5690   49.3835 H   0  0  0  0  0  0  0  0  0  0  0  0
   37.6742   32.7972   50.3026 H   0  0  0  0  0  0  0  0  0  0  0  0
   37.2809   29.8107   48.2028 H   0  0  0  0  0  0  0  0  0  0  0  0
   38.6380   29.3773   46.1591 H   0  0  0  0  0  0  0  0  0  0  0  0
   39.9350   34.6367   46.6235 H   0  0  0  0  0  0  0  0  0  0  0  0
   41.3241   33.5037   46.4615 H   0  0  0  0  0  0  0  0  0  0  0  0
   39.1331   34.0930   44.4021 H   0  0  0  0  0  0  0  0  0  0  0  0
   40.8954   34.4088   44.2564 H   0  0  0  0  0  0  0  0  0  0  0  0
   40.2826   32.7203   44.2564 H   0  0  0  0  0  0  0  0  0  0  0  0
   37.8540   30.1794   50.1893 H   0  0  0  0  0  0  0  0  0  0  0  0
   36.6587   30.9508   51.3314 H   0  0  0  0  0  0  0  0  0  0  0  0
   36.5856   28.1010   50.3622 H   0  0  0  0  0  0  0  0  0  0  0  0
   34.8875   31.7396   48.8927 H   0  0  0  0  0  0  0  0  0  0  0  0
   32.3161   28.2477   47.0650 H   0  0  0  0  0  0  0  0  0  0  0  0
   33.3000   25.8187   48.5350 H   0  0  0  0  0  0  0  0  0  0  0  0
   32.3259   25.9191   47.0291 H   0  0  0  0  0  0  0  0  0  0  0  0
   34.0381   26.4622   47.0291 H   0  0  0  0  0  0  0  0  0  0  0  0
   32.0388   27.7723   50.0616 H   0  0  0  0  0  0  0  0  0  0  0  0
   30.9282   28.6363   48.9452 H   0  0  0  0  0  0  0  0  0  0  0  0
   30.9840   26.8409   48.9452 H   0  0  0  0  0  0  0  0  0  0  0  0
  1 10  1  0
  2  1  1  0
  3  2  2  0
  4  3  1  0
  5  4  2  0
  5  6  1  0
  6  7  2  0
  7  2  1  0
  8  6  1  0
  9  8  1  0
 12 11  2  0
 12 10  1  0
 13 12  1  0
 14 15  1  0
 14 13  2  0
 15 16  2  0
 16 11  1  0
 17 15  1  0
 17 19  1  0
 18 17  1  0
  1 20  1  0
  1 21  1  0
  3 22  1  0
  4 23  1  0
  8 24  1  0
  8 25  1  0
  9 26  1  0
  9 27  1  0
  9 28  1  0
 10 29  1  0
 10 30  1  0
 11 31  1  0
 13 32  1  0
 17 33  1  0
 18 34  1  0
 18 35  1  0
 18 36  1  0
 19 37  1  0
 19 38  1  0
 19 39  1  0
M  ISO  8  20   8  21   8  22  14  23  14  24   8  25   8  26   8  27   8
M  ISO  8  28   8  29   8  30   8  31  14  32  14  33   8  34   8  35   8
M  ISO  4  36   8  37   8  38   8  39   8
M  END
>  <minimizedAffinity>  (1) 
-4.98498058

>  <minimizedRMSD>  (1) 
1.79749727

$$$$
