
     RDKit          3D

 48 50  0  0  0  0  0  0  0  0999 V2000
   37.0620   30.4660   50.1420 C   0  0  0  0  0  0  0  0  0  0  0  0
   35.7940   28.4500   49.5620 C   0  0  0  0  0  0  0  0  0  0  0  0
   35.8400   29.8190   49.8700 C   0  0  0  0  0  0  0  0  0  0  0  0
   34.6470   30.4940   49.8710 C   0  0  0  0  0  0  0  0  0  0  0  0
   33.4830   29.8530   49.5810 N   0  0  0  0  0  0  0  0  0  0  0  0
   33.4660   28.5500   49.2900 C   0  0  0  0  0  0  0  0  0  0  0  0
   34.5990   27.8890   49.2870 N   0  0  0  0  0  0  0  0  0  0  0  0
   32.2100   27.8570   48.9780 C   0  0  0  0  0  0  0  0  0  0  0  0
   32.1540   26.9870   48.0760 O   0  0  0  0  0  0  0  0  0  0  0  0
   31.0450   28.1380   49.6680 O   0  0  0  0  0  0  0  0  0  0  0  0
   27.7130   28.7580   50.8560 N   0  0  0  0  0  0  0  0  0  0  0  0
   28.4210   29.3660   49.7710 C   0  0  0  0  0  0  0  0  0  0  0  0
   28.8830   28.3460   48.7530 C   0  0  0  0  0  0  0  0  0  0  0  0
   29.8630   27.4220   49.4450 C   0  0  0  0  0  0  0  0  0  0  0  0
   29.2270   26.9120   50.7040 C   0  0  0  0  0  0  0  0  0  0  0  0
   27.7750   27.3270   50.8530 C   0  0  0  0  0  0  0  0  0  0  0  0
   37.1470   31.8080   49.5340 C   0  0  0  0  0  0  0  0  0  0  0  0
   37.8150   31.6730   48.2210 C   0  0  0  0  0  0  0  0  0  0  0  0
   37.5890   30.5850   47.4530 C   0  0  0  0  0  0  0  0  0  0  0  0
   38.2530   30.4500   46.2330 C   0  0  0  0  0  0  0  0  0  0  0  0
   39.1120   31.4370   45.8630 N   0  0  0  0  0  0  0  0  0  0  0  0
   39.3160   32.4940   46.6290 C   0  0  0  0  0  0  0  0  0  0  0  0
   38.6880   32.6490   47.8140 N   0  0  0  0  0  0  0  0  0  0  0  0
   40.2410   33.5720   46.2030 C   0  0  0  0  0  0  0  0  0  0  0  0
   40.1580   33.7450   44.6690 C   0  0  0  0  0  0  0  0  0  0  0  0
   37.1713   30.5665   51.2319 H   0  0  0  0  0  0  0  0  0  0  0  0
   37.8649   29.8536   49.7058 H   0  0  0  0  0  0  0  0  0  0  0  0
   36.7140   27.8473   49.5454 H   0  0  0  0  0  0  0  0  0  0  0  0
   34.6308   31.5677   50.1094 H   0  0  0  0  0  0  0  0  0  0  0  0
   28.1169   29.0993   51.7399 H   0  0  0  0  0  0  0  0  0  0  0  0
   27.7567   30.0882   49.2738 H   0  0  0  0  0  0  0  0  0  0  0  0
   29.3120   29.8627   50.1826 H   0  0  0  0  0  0  0  0  0  0  0  0
   29.3761   28.8532   47.9106 H   0  0  0  0  0  0  0  0  0  0  0  0
   28.0275   27.7777   48.3591 H   0  0  0  0  0  0  0  0  0  0  0  0
   30.1182   26.5426   48.8355 H   0  0  0  0  0  0  0  0  0  0  0  0
   29.2776   25.8132   50.7005 H   0  0  0  0  0  0  0  0  0  0  0  0
   29.7794   27.3494   51.5487 H   0  0  0  0  0  0  0  0  0  0  0  0
   27.1871   26.9312   50.0117 H   0  0  0  0  0  0  0  0  0  0  0  0
   27.3618   26.9283   51.7913 H   0  0  0  0  0  0  0  0  0  0  0  0
   36.1366   32.2211   49.3982 H   0  0  0  0  0  0  0  0  0  0  0  0
   37.7170   32.4872   50.1849 H   0  0  0  0  0  0  0  0  0  0  0  0
   36.8848   29.8090   47.7877 H   0  0  0  0  0  0  0  0  0  0  0  0
   38.0867   29.5726   45.5908 H   0  0  0  0  0  0  0  0  0  0  0  0
   39.9571   34.5144   46.6943 H   0  0  0  0  0  0  0  0  0  0  0  0
   41.2699   33.3062   46.4872 H   0  0  0  0  0  0  0  0  0  0  0  0
   39.6932   34.7138   44.4339 H   0  0  0  0  0  0  0  0  0  0  0  0
   41.1707   33.7106   44.2408 H   0  0  0  0  0  0  0  0  0  0  0  0
   39.5511   32.9336   44.2408 H   0  0  0  0  0  0  0  0  0  0  0  0
  2  3  2  0
  3  4  1  0
  3  1  1  0
  5  4  2  0
  6  5  1  0
  7  6  2  0
  7  2  1  0
  8  6  1  0
  8 10  1  0
  9  8  2  0
 12 11  1  0
 13 14  1  0
 13 12  1  0
 14 10  1  0
 14 15  1  0
 15 16  1  0
 16 11  1  0
 17  1  1  0
 18 17  1  0
 19 18  2  0
 20 19  1  0
 21 20  2  0
 21 22  1  0
 22 23  2  0
 23 18  1  0
 24 22  1  0
 25 24  1  0
  1 26  1  0
  1 27  1  0
  2 28  1  0
  4 29  1  0
 11 30  1  0
 12 31  1  0
 12 32  1  0
 13 33  1  0
 13 34  1  0
 14 35  1  0
 15 36  1  0
 15 37  1  0
 16 38  1  0
 16 39  1  0
 17 40  1  0
 17 41  1  0
 19 42  1  0
 20 43  1  0
 24 44  1  0
 24 45  1  0
 25 46  1  0
 25 47  1  0
 25 48  1  0
M  ISO  8  26   8  27   8  28  14  29  14  30   5  31  13  32  13  33  13
M  ISO  8  34  13  35  13  36  13  37  13  38  13  39  13  40   8  41   8
M  ISO  7  42  14  43  14  44   8  45   8  46   8  47   8  48   8
M  END
>  <minimizedAffinity>  (1) 
-5.8499217

>  <minimizedRMSD>  (1) 
1.47058547

$$$$
