
     RDKit          3D

 46 48  0  0  0  0  0  0  0  0999 V2000
   37.1640   30.6960   50.1430 C   0  0  0  0  0  0  0  0  0  0  0  0
   35.9560   28.5910   49.7890 C   0  0  0  0  0  0  0  0  0  0  0  0
   35.9790   29.9930   49.8420 C   0  0  0  0  0  0  0  0  0  0  0  0
   34.8060   30.6430   49.5680 C   0  0  0  0  0  0  0  0  0  0  0  0
   33.6790   29.9500   49.2570 N   0  0  0  0  0  0  0  0  0  0  0  0
   33.6820   28.6150   49.2110 C   0  0  0  0  0  0  0  0  0  0  0  0
   34.7950   27.9780   49.4720 N   0  0  0  0  0  0  0  0  0  0  0  0
   32.4630   27.8630   48.8790 C   0  0  0  0  0  0  0  0  0  0  0  0
   32.4640   26.9940   47.9740 O   0  0  0  0  0  0  0  0  0  0  0  0
   31.2750   28.0910   49.5540 O   0  0  0  0  0  0  0  0  0  0  0  0
   30.0680   27.4450   49.1630 C   0  0  0  0  0  0  0  0  0  0  0  0
   29.2540   27.0280   50.3690 C   0  0  0  0  0  0  0  0  0  0  0  0
   28.1410   28.0120   50.5260 C   0  0  0  0  0  0  0  0  0  0  0  0
   28.2250   28.9820   49.3920 C   0  0  0  0  0  0  0  0  0  0  0  0
   29.2030   28.4240   48.3990 C   0  0  0  0  0  0  0  0  0  0  0  0
   37.2590   31.9890   49.4350 C   0  0  0  0  0  0  0  0  0  0  0  0
   37.9980   31.7650   48.1700 C   0  0  0  0  0  0  0  0  0  0  0  0
   37.9040   30.5790   47.5320 C   0  0  0  0  0  0  0  0  0  0  0  0
   38.6400   30.3650   46.3670 C   0  0  0  0  0  0  0  0  0  0  0  0
   39.4320   31.3770   45.9180 N   0  0  0  0  0  0  0  0  0  0  0  0
   39.5040   32.5280   46.5590 C   0  0  0  0  0  0  0  0  0  0  0  0
   38.8060   32.7590   47.6860 N   0  0  0  0  0  0  0  0  0  0  0  0
   40.3520   33.6280   46.0420 C   0  0  0  0  0  0  0  0  0  0  0  0
   40.1100   33.8020   44.5270 C   0  0  0  0  0  0  0  0  0  0  0  0
   37.1946   30.8855   51.2261 H   0  0  0  0  0  0  0  0  0  0  0  0
   38.0099   30.0751   49.8129 H   0  0  0  0  0  0  0  0  0  0  0  0
   36.8624   28.0048   50.0007 H   0  0  0  0  0  0  0  0  0  0  0  0
   34.7750   31.7421   49.6000 H   0  0  0  0  0  0  0  0  0  0  0  0
   30.3461   26.5677   48.5606 H   0  0  0  0  0  0  0  0  0  0  0  0
   28.8436   26.0193   50.2138 H   0  0  0  0  0  0  0  0  0  0  0  0
   29.8828   27.0094   51.2714 H   0  0  0  0  0  0  0  0  0  0  0  0
   27.1733   27.4895   50.5005 H   0  0  0  0  0  0  0  0  0  0  0  0
   28.2261   28.5379   51.4884 H   0  0  0  0  0  0  0  0  0  0  0  0
   27.2371   29.0988   48.9225 H   0  0  0  0  0  0  0  0  0  0  0  0
   28.5522   29.9700   49.7480 H   0  0  0  0  0  0  0  0  0  0  0  0
   29.8209   29.2307   47.9777 H   0  0  0  0  0  0  0  0  0  0  0  0
   28.6871   27.9335   47.5604 H   0  0  0  0  0  0  0  0  0  0  0  0
   36.2505   32.3696   49.2158 H   0  0  0  0  0  0  0  0  0  0  0  0
   37.7833   32.7284   50.0582 H   0  0  0  0  0  0  0  0  0  0  0  0
   37.2515   29.7870   47.9283 H   0  0  0  0  0  0  0  0  0  0  0  0
   38.5823   29.4081   45.8276 H   0  0  0  0  0  0  0  0  0  0  0  0
   40.0967   34.5626   46.5630 H   0  0  0  0  0  0  0  0  0  0  0  0
   41.4106   33.3856   46.2168 H   0  0  0  0  0  0  0  0  0  0  0  0
   39.2263   34.4374   44.3674 H   0  0  0  0  0  0  0  0  0  0  0  0
   40.9899   34.2755   44.0671 H   0  0  0  0  0  0  0  0  0  0  0  0
   39.9413   32.8171   44.0671 H   0  0  0  0  0  0  0  0  0  0  0  0
  2  3  2  0
  3  1  1  0
  4  3  1  0
  5  4  2  0
  6  5  1  0
  6  7  2  0
  7  2  1  0
  8  6  1  0
  8 10  1  0
  9  8  2  0
 11 10  1  0
 11 12  1  0
 12 13  1  0
 14 13  1  0
 15 11  1  0
 15 14  1  0
 16  1  1  0
 17 16  1  0
 18 17  2  0
 19 18  1  0
 20 19  2  0
 20 21  1  0
 21 22  2  0
 22 17  1  0
 23 21  1  0
 24 23  1  0
  1 25  1  0
  1 26  1  0
  2 27  1  0
  4 28  1  0
 11 29  1  0
 12 30  1  0
 12 31  1  0
 13 32  1  0
 13 33  1  0
 14 34  1  0
 14 35  1  0
 15 36  1  0
 15 37  1  0
 16 38  1  0
 16 39  1  0
 18 40  1  0
 19 41  1  0
 23 42  1  0
 23 43  1  0
 24 44  1  0
 24 45  1  0
 24 46  1  0
M  ISO  8  25   8  26   8  27  14  28  14  29  13  30  13  31  13  32  13
M  ISO  8  33  13  34  13  35  13  36  13  37  13  38   8  39   8  40  14
M  ISO  6  41  14  42   8  43   8  44   8  45   8  46   8
M  END
>  <minimizedAffinity>  (1) 
-5.63552523

>  <minimizedRMSD>  (1) 
1.74563086

$$$$
