
     RDKit          3D

 43 45  0  0  0  0  0  0  0  0999 V2000
   36.8380   30.4510   50.0350 C   0  0  0  0  0  0  0  0  0  0  0  0
   35.4670   28.4490   49.6710 C   0  0  0  0  0  0  0  0  0  0  0  0
   35.6970   29.8230   49.5000 C   0  0  0  0  0  0  0  0  0  0  0  0
   34.7720   30.5140   48.7700 C   0  0  0  0  0  0  0  0  0  0  0  0
   33.6860   29.8940   48.2360 N   0  0  0  0  0  0  0  0  0  0  0  0
   33.4910   28.5800   48.4130 C   0  0  0  0  0  0  0  0  0  0  0  0
   34.3660   27.9020   49.1110 N   0  0  0  0  0  0  0  0  0  0  0  0
   32.3180   27.9090   47.8350 C   0  0  0  0  0  0  0  0  0  0  0  0
   31.9830   28.1130   46.6400 O   0  0  0  0  0  0  0  0  0  0  0  0
   31.5430   27.0370   48.5730 O   0  0  0  0  0  0  0  0  0  0  0  0
   30.1790   27.2340   48.7660 C   0  0  0  0  0  0  0  0  0  0  0  0
   29.1930   26.7920   47.9080 C   0  0  0  0  0  0  0  0  0  0  0  0
   27.8760   27.0750   48.2530 C   0  0  0  0  0  0  0  0  0  0  0  0
   27.5650   27.7700   49.4060 C   0  0  0  0  0  0  0  0  0  0  0  0
   28.5590   28.2110   50.2640 C   0  0  0  0  0  0  0  0  0  0  0  0
   29.8710   27.9370   49.9340 C   0  0  0  0  0  0  0  0  0  0  0  0
   37.0620   31.8040   49.4780 C   0  0  0  0  0  0  0  0  0  0  0  0
   37.8870   31.6580   48.2530 C   0  0  0  0  0  0  0  0  0  0  0  0
   37.9080   30.4850   47.5870 C   0  0  0  0  0  0  0  0  0  0  0  0
   38.7180   30.3460   46.4590 C   0  0  0  0  0  0  0  0  0  0  0  0
   39.4600   31.4230   46.0740 N   0  0  0  0  0  0  0  0  0  0  0  0
   39.4190   32.5620   46.7410 C   0  0  0  0  0  0  0  0  0  0  0  0
   38.6460   32.7210   47.8360 N   0  0  0  0  0  0  0  0  0  0  0  0
   40.2130   33.7260   46.2900 C   0  0  0  0  0  0  0  0  0  0  0  0
   40.1940   33.8030   44.7450 C   0  0  0  0  0  0  0  0  0  0  0  0
   36.7143   30.5356   51.1247 H   0  0  0  0  0  0  0  0  0  0  0  0
   37.7100   29.8351   49.7701 H   0  0  0  0  0  0  0  0  0  0  0  0
   36.1689   27.8302   50.2492 H   0  0  0  0  0  0  0  0  0  0  0  0
   34.9084   31.5939   48.6109 H   0  0  0  0  0  0  0  0  0  0  0  0
   29.4385   26.2389   46.9894 H   0  0  0  0  0  0  0  0  0  0  0  0
   27.0632   26.7379   47.5929 H   0  0  0  0  0  0  0  0  0  0  0  0
   26.5116   27.9763   49.6463 H   0  0  0  0  0  0  0  0  0  0  0  0
   28.3100   28.7637   51.1819 H   0  0  0  0  0  0  0  0  0  0  0  0
   30.6815   28.2750   50.5964 H   0  0  0  0  0  0  0  0  0  0  0  0
   36.0977   32.2698   49.2267 H   0  0  0  0  0  0  0  0  0  0  0  0
   37.5739   32.4427   50.2128 H   0  0  0  0  0  0  0  0  0  0  0  0
   37.2900   29.6426   47.9312 H   0  0  0  0  0  0  0  0  0  0  0  0
   38.7564   29.3996   45.8996 H   0  0  0  0  0  0  0  0  0  0  0  0
   39.7807   34.6474   46.7074 H   0  0  0  0  0  0  0  0  0  0  0  0
   41.2511   33.6152   46.6365 H   0  0  0  0  0  0  0  0  0  0  0  0
   39.9414   34.8268   44.4320 H   0  0  0  0  0  0  0  0  0  0  0  0
   41.1856   33.5336   44.3522 H   0  0  0  0  0  0  0  0  0  0  0  0
   39.4416   33.1033   44.3522 H   0  0  0  0  0  0  0  0  0  0  0  0
  3  2  2  0
  3  1  1  0
  4  3  1  0
  5  6  1  0
  5  4  2  0
  6  7  2  0
  7  2  1  0
  8  6  1  0
  8 10  1  0
  9  8  2  0
 10 11  1  0
 11 16  2  0
 12 13  2  0
 12 11  1  0
 13 14  1  0
 14 15  2  0
 16 15  1  0
 17  1  1  0
 18 17  1  0
 19 18  2  0
 20 19  1  0
 21 20  2  0
 21 22  1  0
 22 23  2  0
 23 18  1  0
 24 22  1  0
 25 24  1  0
  1 26  1  0
  1 27  1  0
  2 28  1  0
  4 29  1  0
 12 30  1  0
 13 31  1  0
 14 32  1  0
 15 33  1  0
 16 34  1  0
 17 35  1  0
 17 36  1  0
 19 37  1  0
 20 38  1  0
 24 39  1  0
 24 40  1  0
 25 41  1  0
 25 42  1  0
 25 43  1  0
M  ISO  8  26   8  27   8  28  14  29  14  30  14  31  14  32  14  33  14
M  ISO  8  34  14  35   8  36   8  37  14  38  14  39   8  40   8  41   8
M  ISO  2  42   8  43   8
M  END
>  <minimizedAffinity>  (1) 
-5.61998701

>  <minimizedRMSD>  (1) 
1.39388537

$$$$
