
     RDKit          3D

 40 42  0  0  0  0  0  0  0  0999 V2000
   36.7840   30.6610   50.1440 C   0  0  0  0  0  0  0  0  0  0  0  0
   35.6360   28.5220   49.7880 C   0  0  0  0  0  0  0  0  0  0  0  0
   35.7380   29.9070   49.5820 C   0  0  0  0  0  0  0  0  0  0  0  0
   34.7790   30.4820   48.7870 C   0  0  0  0  0  0  0  0  0  0  0  0
   33.7880   29.7350   48.2310 N   0  0  0  0  0  0  0  0  0  0  0  0
   33.7150   28.4180   48.4430 C   0  0  0  0  0  0  0  0  0  0  0  0
   34.6210   27.8540   49.2000 N   0  0  0  0  0  0  0  0  0  0  0  0
   32.6450   27.6110   47.8440 C   0  0  0  0  0  0  0  0  0  0  0  0
   32.6080   27.4040   46.6050 O   0  0  0  0  0  0  0  0  0  0  0  0
   31.6450   27.0540   48.6190 O   0  0  0  0  0  0  0  0  0  0  0  0
   30.5170   27.6900   48.8790 C   0  0  0  0  0  0  0  0  0  0  0  0
   29.7790   27.9800   49.9910 C   0  0  0  0  0  0  0  0  0  0  0  0
   28.6060   28.6810   49.9650 C   0  0  0  0  0  0  0  0  0  0  0  0
   28.2110   29.1000   48.5940 C   0  0  0  0  0  0  0  0  0  0  0  0
   29.5080   28.4740   47.5100 S   0  0  0  0  0  0  0  0  0  0  0  0
   36.9800   31.9640   49.4760 C   0  0  0  0  0  0  0  0  0  0  0  0
   37.8230   31.7410   48.2780 C   0  0  0  0  0  0  0  0  0  0  0  0
   37.8450   30.5300   47.6820 C   0  0  0  0  0  0  0  0  0  0  0  0
   38.6760   30.3170   46.5830 C   0  0  0  0  0  0  0  0  0  0  0  0
   39.4400   31.3600   46.1530 N   0  0  0  0  0  0  0  0  0  0  0  0
   39.4000   32.5340   46.7490 C   0  0  0  0  0  0  0  0  0  0  0  0
   38.6060   32.7630   47.8130 N   0  0  0  0  0  0  0  0  0  0  0  0
   40.2200   33.6630   46.2490 C   0  0  0  0  0  0  0  0  0  0  0  0
   40.1390   33.7220   44.7070 C   0  0  0  0  0  0  0  0  0  0  0  0
   36.5552   30.8418   51.2046 H   0  0  0  0  0  0  0  0  0  0  0  0
   37.7113   30.0832   50.0166 H   0  0  0  0  0  0  0  0  0  0  0  0
   36.3679   27.9923   50.4154 H   0  0  0  0  0  0  0  0  0  0  0  0
   34.8123   31.5648   48.5963 H   0  0  0  0  0  0  0  0  0  0  0  0
   30.1506   27.6287   50.9649 H   0  0  0  0  0  0  0  0  0  0  0  0
   28.0158   28.9112   50.8643 H   0  0  0  0  0  0  0  0  0  0  0  0
   27.3169   29.6709   48.3030 H   0  0  0  0  0  0  0  0  0  0  0  0
   36.0069   32.3799   49.1758 H   0  0  0  0  0  0  0  0  0  0  0  0
   37.4671   32.6749   50.1596 H   0  0  0  0  0  0  0  0  0  0  0  0
   37.2106   29.7155   48.0615 H   0  0  0  0  0  0  0  0  0  0  0  0
   38.7136   29.3395   46.0798 H   0  0  0  0  0  0  0  0  0  0  0  0
   39.8412   34.6054   46.6715 H   0  0  0  0  0  0  0  0  0  0  0  0
   41.2667   33.5162   46.5537 H   0  0  0  0  0  0  0  0  0  0  0  0
   39.2833   34.3453   44.4084 H   0  0  0  0  0  0  0  0  0  0  0  0
   41.0668   34.1573   44.3075 H   0  0  0  0  0  0  0  0  0  0  0  0
   40.0092   32.7054   44.3075 H   0  0  0  0  0  0  0  0  0  0  0  0
  3  2  2  0
  3  1  1  0
  4  3  1  0
  5  6  1  0
  5  4  2  0
  6  7  2  0
  7  2  1  0
  8  6  1  0
  8 10  1  0
  9  8  2  0
 10 11  1  0
 11 12  2  0
 13 12  1  0
 14 13  2  0
 15 14  1  0
 15 11  1  0
 16  1  1  0
 17 16  1  0
 18 17  2  0
 19 18  1  0
 20 19  2  0
 20 21  1  0
 21 22  2  0
 22 17  1  0
 23 21  1  0
 24 23  1  0
  1 25  1  0
  1 26  1  0
  2 27  1  0
  4 28  1  0
 12 29  1  0
 13 30  1  0
 14 31  1  0
 16 32  1  0
 16 33  1  0
 18 34  1  0
 19 35  1  0
 23 36  1  0
 23 37  1  0
 24 38  1  0
 24 39  1  0
 24 40  1  0
M  ISO  8  25   8  26   8  27  14  28  14  29  14  30  14  31  14  32   8
M  ISO  8  33   8  34  14  35  14  36   8  37   8  38   8  39   8  40   8
M  END
>  <minimizedAffinity>  (1) 
-5.53914928

>  <minimizedRMSD>  (1) 
1.55625427

$$$$
