
     RDKit          3D

 17 17  0  0  0  0  0  0  0  0999 V2000
   37.2770   30.2090   51.3990 C   0  0  0  0  0  0  0  0  0  0  0  0
   38.1640   30.8300   50.4990 C   0  0  0  0  0  0  0  0  0  0  0  0
   37.9840   30.5930   49.1260 C   0  0  0  0  0  0  0  0  0  0  0  0
   36.9660   29.7790   48.7530 N   0  0  0  0  0  0  0  0  0  0  0  0
   36.1290   29.1930   49.6330 C   0  0  0  0  0  0  0  0  0  0  0  0
   36.2810   29.4060   50.9480 N   0  0  0  0  0  0  0  0  0  0  0  0
   38.8220   31.1700   48.1320 N   0  0  0  0  0  0  0  0  0  0  0  0
   38.7250   32.5450   47.7550 C   0  0  0  0  0  0  0  0  0  0  0  0
   38.4060   33.3700   48.7050 N   0  0  0  0  0  0  0  0  0  0  0  0
   38.9840   32.8780   46.3870 N   0  0  0  0  0  0  0  0  0  0  0  0
   38.3150   34.4060   48.5020 H   0  0  0  0  0  0  0  0  0  0  0  0
   37.3930   30.3768   52.4799 H   0  0  0  0  0  0  0  0  0  0  0  0
   38.9737   31.4812   50.8601 H   0  0  0  0  0  0  0  0  0  0  0  0
   35.3210   28.5398   49.2718 H   0  0  0  0  0  0  0  0  0  0  0  0
   39.5235   30.5758   47.6675 H   0  0  0  0  0  0  0  0  0  0  0  0
   38.9244   33.8579   46.0753 H   0  0  0  0  0  0  0  0  0  0  0  0
   39.2300   32.1377   45.7144 H   0  0  0  0  0  0  0  0  0  0  0  0
  2  1  2  0
  3  2  1  0
  4  3  2  0
  4  5  1  0
  5  6  2  0
  6  1  1  0
  7  3  1  0
  8  7  1  0
  8  9  2  0
 10  8  1  0
 11  9  1  0
  1 12  1  0
  2 13  1  0
  5 14  1  0
  7 15  1  0
 10 16  1  0
 10 17  1  0
M  ISO  3  12  14  13  14  14  14
M  END
>  <minimizedAffinity>  (1) 
-5.00006485

>  <minimizedRMSD>  (1) 
0.455990016

$$$$
