
     RDKit          3D

 20 21  0  0  0  0  0  0  0  0999 V2000
   37.3150   30.2140   51.4070 C   0  0  0  0  0  0  0  0  0  0  0  0
   38.0310   30.8890   50.4060 C   0  0  0  0  0  0  0  0  0  0  0  0
   37.7080   30.6210   49.0770 C   0  0  0  0  0  0  0  0  0  0  0  0
   36.7240   29.7260   48.8170 N   0  0  0  0  0  0  0  0  0  0  0  0
   36.0490   29.0870   49.8160 C   0  0  0  0  0  0  0  0  0  0  0  0
   36.3530   29.3390   51.1030 N   0  0  0  0  0  0  0  0  0  0  0  0
   38.3750   31.2560   47.9480 C   0  0  0  0  0  0  0  0  0  0  0  0
   38.8730   32.5260   48.1480 C   0  0  0  0  0  0  0  0  0  0  0  0
   39.5130   33.1480   47.0770 C   0  0  0  0  0  0  0  0  0  0  0  0
   39.6700   32.5650   45.8550 C   0  0  0  0  0  0  0  0  0  0  0  0
   39.1720   31.2990   45.6620 C   0  0  0  0  0  0  0  0  0  0  0  0
   38.5320   30.6730   46.7220 C   0  0  0  0  0  0  0  0  0  0  0  0
   37.5511   30.4097   52.4634 H   0  0  0  0  0  0  0  0  0  0  0  0
   38.8231   31.6078   50.6627 H   0  0  0  0  0  0  0  0  0  0  0  0
   35.2560   28.3656   49.5696 H   0  0  0  0  0  0  0  0  0  0  0  0
   38.7689   33.0313   49.1195 H   0  0  0  0  0  0  0  0  0  0  0  0
   39.9121   34.1622   47.2259 H   0  0  0  0  0  0  0  0  0  0  0  0
   40.1843   33.0966   45.0408 H   0  0  0  0  0  0  0  0  0  0  0  0
   39.2782   30.7940   44.6906 H   0  0  0  0  0  0  0  0  0  0  0  0
   38.1322   29.6598   46.5683 H   0  0  0  0  0  0  0  0  0  0  0  0
  2  1  2  0
  3  2  1  0
  4  3  2  0
  4  5  1  0
  5  6  2  0
  6  1  1  0
  7  8  2  0
  7  3  1  0
  9  8  1  0
 10  9  2  0
 11 10  1  0
 11 12  2  0
 12  7  1  0
  1 13  1  0
  2 14  1  0
  5 15  1  0
  8 16  1  0
  9 17  1  0
 10 18  1  0
 11 19  1  0
 12 20  1  0
M  ISO  8  13  14  14  14  15  14  16  14  17  14  18  14  19  14  20  14
M  END
>  <minimizedAffinity>  (1) 
-4.9448123

>  <minimizedRMSD>  (1) 
0.522069812

$$$$
