
     RDKit          3D

 38 42  0  0  0  0  0  0  0  0999 V2000
   32.2910   29.9870   46.1880 C   0  0  0  0  0  0  0  0  0  0  0  0
   32.0540   28.6180   46.1070 C   0  0  0  0  0  0  0  0  0  0  0  0
   33.0310   27.7350   46.5960 C   0  0  0  0  0  0  0  0  0  0  0  0
   34.1750   28.2710   47.1310 N   0  0  0  0  0  0  0  0  0  0  0  0
   34.3630   29.6100   47.1880 C   0  0  0  0  0  0  0  0  0  0  0  0
   33.4430   30.4710   46.7270 N   0  0  0  0  0  0  0  0  0  0  0  0
   35.6250   30.0640   47.7810 C   0  0  0  0  0  0  0  0  0  0  0  0
   36.6350   30.6780   47.0860 C   0  0  0  0  0  0  0  0  0  0  0  0
   37.6610   30.9760   47.8930 N   0  0  0  0  0  0  0  0  0  0  0  0
   37.3370   30.5590   49.1330 C   0  0  0  0  0  0  0  0  0  0  0  0
   38.0070   30.6050   50.3550 C   0  0  0  0  0  0  0  0  0  0  0  0
   37.4050   30.0850   51.4780 C   0  0  0  0  0  0  0  0  0  0  0  0
   36.1490   29.5260   51.3890 C   0  0  0  0  0  0  0  0  0  0  0  0
   35.4310   29.4540   50.1910 C   0  0  0  0  0  0  0  0  0  0  0  0
   36.0700   29.9860   49.0910 C   0  0  0  0  0  0  0  0  0  0  0  0
   32.9250   26.3140   46.5810 N   0  0  0  0  0  0  0  0  0  0  0  0
   33.8040   25.3230   46.8190 C   0  0  0  0  0  0  0  0  0  0  0  0
   33.1880   24.1250   46.6680 N   0  0  0  0  0  0  0  0  0  0  0  0
   31.9070   24.3710   46.3300 C   0  0  0  0  0  0  0  0  0  0  0  0
   30.8470   23.5000   46.0590 C   0  0  0  0  0  0  0  0  0  0  0  0
   30.9890   22.2500   46.1070 O   0  0  0  0  0  0  0  0  0  0  0  0
   29.6520   24.0210   45.7410 N   0  0  0  0  0  0  0  0  0  0  0  0
   29.4750   25.3530   45.6830 C   0  0  0  0  0  0  0  0  0  0  0  0
   28.2770   26.0490   45.3640 N   0  0  0  0  0  0  0  0  0  0  0  0
   30.5050   26.1770   45.9460 N   0  0  0  0  0  0  0  0  0  0  0  0
   31.7380   25.7590   46.2730 C   0  0  0  0  0  0  0  0  0  0  0  0
   31.5341   30.6899   45.8098 H   0  0  0  0  0  0  0  0  0  0  0  0
   31.1205   28.2351   45.6689 H   0  0  0  0  0  0  0  0  0  0  0  0
   36.6062   30.8967   46.0084 H   0  0  0  0  0  0  0  0  0  0  0  0
   38.5382   31.4396   47.6165 H   0  0  0  0  0  0  0  0  0  0  0  0
   39.0092   31.0536   50.4209 H   0  0  0  0  0  0  0  0  0  0  0  0
   37.9264   30.1157   52.4461 H   0  0  0  0  0  0  0  0  0  0  0  0
   35.6901   29.1178   52.3016 H   0  0  0  0  0  0  0  0  0  0  0  0
   34.4285   29.0052   50.1306 H   0  0  0  0  0  0  0  0  0  0  0  0
   34.8598   25.4636   47.0938 H   0  0  0  0  0  0  0  0  0  0  0  0
   28.8608   23.3933   45.5389 H   0  0  0  0  0  0  0  0  0  0  0  0
   28.2672   27.0789   45.3523 H   0  0  0  0  0  0  0  0  0  0  0  0
   27.4189   25.5233   45.1446 H   0  0  0  0  0  0  0  0  0  0  0  0
  1  6  2  0
  2  1  1  0
  2  3  2  0
  3  4  1  0
  4  5  2  0
  5  7  1  0
  6  5  1  0
  7 15  1  0
  8  7  2  0
  8  9  1  0
  9 10  1  0
 10 11  2  0
 11 12  1  0
 13 12  2  0
 14 13  1  0
 15 10  1  0
 15 14  2  0
 16  3  1  0
 16 17  1  0
 18 17  2  0
 19 18  1  0
 20 21  2  0
 20 19  1  0
 22 20  1  0
 23 22  1  0
 23 25  2  0
 24 23  1  0
 25 26  1  0
 26 19  2  0
 26 16  1  0
  1 27  1  0
  2 28  1  0
  8 29  1  0
  9 30  1  0
 11 31  1  0
 12 32  1  0
 13 33  1  0
 14 34  1  0
 17 35  1  0
 22 36  1  0
 24 37  1  0
 24 38  1  0
M  ISO  8  27  14  28  14  29  14  30   9  31  14  32  14  33  14  34  14
M  ISO  2  35  14  36   9
M  END
>  <minimizedAffinity>  (1) 
-6.13656569

>  <minimizedRMSD>  (1) 
0.14472723

$$$$
