
     RDKit          3D

 34 37  0  0  0  0  0  0  0  0999 V2000
   32.4760   30.0320   46.0980 C   0  0  0  0  0  0  0  0  0  0  0  0
   32.2020   28.6670   46.0780 C   0  0  0  0  0  0  0  0  0  0  0  0
   33.1500   27.7850   46.6610 C   0  0  0  0  0  0  0  0  0  0  0  0
   34.2610   28.3460   47.1970 N   0  0  0  0  0  0  0  0  0  0  0  0
   34.5050   29.6620   47.2060 C   0  0  0  0  0  0  0  0  0  0  0  0
   33.6140   30.5040   46.6570 N   0  0  0  0  0  0  0  0  0  0  0  0
   35.7380   30.1170   47.8170 C   0  0  0  0  0  0  0  0  0  0  0  0
   36.7520   30.7540   47.1280 C   0  0  0  0  0  0  0  0  0  0  0  0
   37.7600   31.0500   47.9750 N   0  0  0  0  0  0  0  0  0  0  0  0
   37.4210   30.6190   49.1990 C   0  0  0  0  0  0  0  0  0  0  0  0
   38.0910   30.6720   50.4110 C   0  0  0  0  0  0  0  0  0  0  0  0
   37.4720   30.1290   51.5340 C   0  0  0  0  0  0  0  0  0  0  0  0
   36.2150   29.5530   51.4210 C   0  0  0  0  0  0  0  0  0  0  0  0
   35.5180   29.4840   50.2200 C   0  0  0  0  0  0  0  0  0  0  0  0
   36.1620   30.0320   49.1280 C   0  0  0  0  0  0  0  0  0  0  0  0
   32.9940   26.3700   46.7090 N   0  0  0  0  0  0  0  0  0  0  0  0
   33.6300   25.6010   45.8250 C   0  0  0  0  0  0  0  0  0  0  0  0
   33.3790   24.2390   45.9960 C   0  0  0  0  0  0  0  0  0  0  0  0
   32.5520   23.7630   46.9890 C   0  0  0  0  0  0  0  0  0  0  0  0
   32.3620   22.5420   47.0990 O   0  0  0  0  0  0  0  0  0  0  0  0
   31.9490   24.6120   47.8390 N   0  0  0  0  0  0  0  0  0  0  0  0
   32.1820   25.9340   47.6850 C   0  0  0  0  0  0  0  0  0  0  0  0
   31.5960   26.6870   48.5040 O   0  0  0  0  0  0  0  0  0  0  0  0
   31.7574   30.7362   45.6533 H   0  0  0  0  0  0  0  0  0  0  0  0
   31.2771   28.2826   45.6233 H   0  0  0  0  0  0  0  0  0  0  0  0
   36.7396   30.9848   46.0526 H   0  0  0  0  0  0  0  0  0  0  0  0
   38.6388   31.5253   47.7245 H   0  0  0  0  0  0  0  0  0  0  0  0
   39.0876   31.1318   50.4841 H   0  0  0  0  0  0  0  0  0  0  0  0
   37.9792   30.1568   52.5097 H   0  0  0  0  0  0  0  0  0  0  0  0
   35.7482   29.1314   52.3234 H   0  0  0  0  0  0  0  0  0  0  0  0
   34.5215   29.0243   50.1446 H   0  0  0  0  0  0  0  0  0  0  0  0
   34.2874   26.0005   45.0388 H   0  0  0  0  0  0  0  0  0  0  0  0
   33.8582   23.5209   45.3142 H   0  0  0  0  0  0  0  0  0  0  0  0
   31.3286   24.2655   48.5846 H   0  0  0  0  0  0  0  0  0  0  0  0
  1  6  2  0
  2  1  1  0
  2  3  2  0
  3 16  1  0
  3  4  1  0
  4  5  2  0
  5  7  1  0
  6  5  1  0
  7 15  1  0
  8  7  2  0
  8  9  1  0
  9 10  1  0
 10 11  2  0
 11 12  1  0
 13 12  2  0
 14 13  1  0
 15 10  1  0
 15 14  2  0
 16 22  1  0
 17 18  2  0
 17 16  1  0
 18 19  1  0
 19 20  2  0
 19 21  1  0
 22 21  1  0
 22 23  2  0
  1 24  1  0
  2 25  1  0
  8 26  1  0
  9 27  1  0
 11 28  1  0
 12 29  1  0
 13 30  1  0
 14 31  1  0
 17 32  1  0
 18 33  1  0
 21 34  1  0
M  ISO  8  24  14  25  14  26  14  27   9  28  14  29  14  30  14  31  14
M  ISO  3  32  14  33  14  34   9
M  END
>  <minimizedAffinity>  (1) 
-5.92726564

>  <minimizedRMSD>  (1) 
0.872871339

$$$$
