
     RDKit          3D

 31 34  0  0  0  0  0  0  0  0999 V2000
   35.4220   30.0280   47.7860 C   0  0  0  0  0  0  0  0  0  0  0  0
   36.4340   30.5360   47.0020 C   0  0  0  0  0  0  0  0  0  0  0  0
   37.5310   30.7630   47.7560 N   0  0  0  0  0  0  0  0  0  0  0  0
   37.2460   30.4060   49.0320 C   0  0  0  0  0  0  0  0  0  0  0  0
   38.0050   30.4350   50.1930 C   0  0  0  0  0  0  0  0  0  0  0  0
   37.4280   29.9970   51.3740 C   0  0  0  0  0  0  0  0  0  0  0  0
   36.1320   29.5480   51.3750 C   0  0  0  0  0  0  0  0  0  0  0  0
   35.3390   29.5060   50.2330 C   0  0  0  0  0  0  0  0  0  0  0  0
   35.9370   29.9470   49.0690 C   0  0  0  0  0  0  0  0  0  0  0  0
   32.2860   29.9540   45.8470 C   0  0  0  0  0  0  0  0  0  0  0  0
   31.5980   28.8940   46.4610 C   0  0  0  0  0  0  0  0  0  0  0  0
   32.2320   28.2340   47.5250 C   0  0  0  0  0  0  0  0  0  0  0  0
   33.4640   28.6400   47.9110 N   0  0  0  0  0  0  0  0  0  0  0  0
   34.1030   29.6720   47.2940 C   0  0  0  0  0  0  0  0  0  0  0  0
   33.5140   30.3080   46.2840 N   0  0  0  0  0  0  0  0  0  0  0  0
   31.5470   27.1030   48.2110 C   0  0  0  0  0  0  0  0  0  0  0  0
   30.1090   26.8800   48.0820 C   0  0  0  0  0  0  0  0  0  0  0  0
   30.5820   27.5770   49.3240 C   0  0  0  0  0  0  0  0  0  0  0  0
   36.3597   30.7284   45.9215 H   0  0  0  0  0  0  0  0  0  0  0  0
   38.4280   31.1415   47.4199 H   0  0  0  0  0  0  0  0  0  0  0  0
   39.0432   30.7982   50.1762 H   0  0  0  0  0  0  0  0  0  0  0  0
   38.0079   30.0093   52.3086 H   0  0  0  0  0  0  0  0  0  0  0  0
   35.6984   29.2042   52.3257 H   0  0  0  0  0  0  0  0  0  0  0  0
   34.3005   29.1441   50.2557 H   0  0  0  0  0  0  0  0  0  0  0  0
   31.8238   30.4965   45.0091 H   0  0  0  0  0  0  0  0  0  0  0  0
   30.5970   28.5918   46.1196 H   0  0  0  0  0  0  0  0  0  0  0  0
   32.4022   26.4230   48.0841 H   0  0  0  0  0  0  0  0  0  0  0  0
   29.5391   27.4434   47.3285 H   0  0  0  0  0  0  0  0  0  0  0  0
   29.4918   25.9880   47.8996 H   0  0  0  0  0  0  0  0  0  0  0  0
   30.5564   27.0626   50.2960 H   0  0  0  0  0  0  0  0  0  0  0  0
   30.3632   28.5273   49.8329 H   0  0  0  0  0  0  0  0  0  0  0  0
  1  9  1  0
  2  3  1  0
  2  1  2  0
  3  4  1  0
  4  9  2  0
  4  5  1  0
  5  6  2  0
  6  7  1  0
  8  7  2  0
  9  8  1  0
 10 15  2  0
 10 11  1  0
 11 12  2  0
 12 13  1  0
 12 16  1  0
 14  1  1  0
 14 13  2  0
 15 14  1  0
 16 18  1  0
 17 16  1  0
 17 18  1  0
  2 19  1  0
  3 20  1  0
  5 21  1  0
  6 22  1  0
  7 23  1  0
  8 24  1  0
 10 25  1  0
 11 26  1  0
 16 27  1  0
 17 28  1  0
 17 29  1  0
 18 30  1  0
 18 31  1  0
M  ISO  8  19  14  20   9  21  14  22  14  23  14  24  14  25  14  26  14
M  ISO  5  27  13  28  13  29  13  30  13  31  13
M  END
>  <minimizedAffinity>  (1) 
-5.85817432

>  <minimizedRMSD>  (1) 
1.4147855

$$$$
