
     RDKit          3D

 37 40  0  0  0  0  0  0  0  0999 V2000
   35.6580   30.0670   47.7810 C   0  0  0  0  0  0  0  0  0  0  0  0
   36.6580   30.6870   47.0730 C   0  0  0  0  0  0  0  0  0  0  0  0
   37.6810   30.9880   47.8960 N   0  0  0  0  0  0  0  0  0  0  0  0
   37.3500   30.5660   49.1380 C   0  0  0  0  0  0  0  0  0  0  0  0
   38.0370   30.6280   50.3460 C   0  0  0  0  0  0  0  0  0  0  0  0
   37.4320   30.1020   51.4780 C   0  0  0  0  0  0  0  0  0  0  0  0
   36.1820   29.5350   51.3920 C   0  0  0  0  0  0  0  0  0  0  0  0
   35.4710   29.4600   50.1930 C   0  0  0  0  0  0  0  0  0  0  0  0
   36.0950   29.9890   49.0910 C   0  0  0  0  0  0  0  0  0  0  0  0
   32.3280   29.9820   46.1850 C   0  0  0  0  0  0  0  0  0  0  0  0
   32.0860   28.6130   46.1110 C   0  0  0  0  0  0  0  0  0  0  0  0
   33.0720   27.7270   46.6120 C   0  0  0  0  0  0  0  0  0  0  0  0
   34.1990   28.2630   47.1370 N   0  0  0  0  0  0  0  0  0  0  0  0
   34.4040   29.6060   47.1930 C   0  0  0  0  0  0  0  0  0  0  0  0
   33.4810   30.4480   46.7240 N   0  0  0  0  0  0  0  0  0  0  0  0
   32.8560   26.2840   46.5530 C   0  0  0  0  0  0  0  0  0  0  0  0
   34.1270   25.4590   46.6700 C   0  0  0  0  0  0  0  0  0  0  0  0
   33.5320   24.0660   46.6950 C   0  0  0  0  0  0  0  0  0  0  0  0
   32.1950   24.2220   47.4050 C   0  0  0  0  0  0  0  0  0  0  0  0
   32.0980   25.7160   47.7340 C   0  0  0  0  0  0  0  0  0  0  0  0
   36.6281   30.9052   45.9953 H   0  0  0  0  0  0  0  0  0  0  0  0
   38.5585   31.4559   47.6276 H   0  0  0  0  0  0  0  0  0  0  0  0
   39.0367   31.0835   50.4022 H   0  0  0  0  0  0  0  0  0  0  0  0
   37.9529   30.1385   52.4461 H   0  0  0  0  0  0  0  0  0  0  0  0
   35.7243   29.1243   52.3041 H   0  0  0  0  0  0  0  0  0  0  0  0
   34.4714   29.0046   50.1350 H   0  0  0  0  0  0  0  0  0  0  0  0
   31.5781   30.6905   45.8033 H   0  0  0  0  0  0  0  0  0  0  0  0
   31.1524   28.2285   45.6744 H   0  0  0  0  0  0  0  0  0  0  0  0
   32.3355   26.2085   45.5869 H   0  0  0  0  0  0  0  0  0  0  0  0
   34.7899   25.6047   45.8044 H   0  0  0  0  0  0  0  0  0  0  0  0
   34.7640   25.7073   47.5317 H   0  0  0  0  0  0  0  0  0  0  0  0
   33.3849   23.6899   45.6718 H   0  0  0  0  0  0  0  0  0  0  0  0
   34.1887   23.3451   47.2040 H   0  0  0  0  0  0  0  0  0  0  0  0
   31.3687   23.9158   46.7467 H   0  0  0  0  0  0  0  0  0  0  0  0
   32.1272   23.5935   48.3052 H   0  0  0  0  0  0  0  0  0  0  0  0
   32.5865   25.9580   48.6894 H   0  0  0  0  0  0  0  0  0  0  0  0
   31.0755   26.1009   47.8620 H   0  0  0  0  0  0  0  0  0  0  0  0
  1  9  1  0
  2  1  2  0
  2  3  1  0
  3  4  1  0
  4  5  2  0
  5  6  1  0
  7  6  2  0
  8  7  1  0
  9  4  1  0
  9  8  2  0
 10 15  2  0
 11 10  1  0
 11 12  2  0
 12 13  1  0
 13 14  2  0
 14  1  1  0
 15 14  1  0
 16 12  1  0
 16 17  1  0
 16 20  1  0
 17 18  1  0
 18 19  1  0
 19 20  1  0
  2 21  1  0
  3 22  1  0
  5 23  1  0
  6 24  1  0
  7 25  1  0
  8 26  1  0
 10 27  1  0
 11 28  1  0
 16 29  1  0
 17 30  1  0
 17 31  1  0
 18 32  1  0
 18 33  1  0
 19 34  1  0
 19 35  1  0
 20 36  1  0
 20 37  1  0
M  ISO  8  21  14  22   9  23  14  24  14  25  14  26  14  27  14  28  14
M  ISO  8  29  13  30  13  31  13  32  13  33  13  34  13  35  13  36  13
M  ISO  1  37  13
M  END
>  <minimizedAffinity>  (1) 
-5.82121849

>  <minimizedRMSD>  (1) 
0.273163795

$$$$
