
     RDKit          3D

 31 34  0  0  0  0  0  0  0  0999 V2000
   35.6810   30.0510   47.8550 C   0  0  0  0  0  0  0  0  0  0  0  0
   36.6410   30.7160   47.1210 C   0  0  0  0  0  0  0  0  0  0  0  0
   37.6750   31.0660   47.9150 N   0  0  0  0  0  0  0  0  0  0  0  0
   37.3910   30.6300   49.1700 C   0  0  0  0  0  0  0  0  0  0  0  0
   38.0980   30.7190   50.3640 C   0  0  0  0  0  0  0  0  0  0  0  0
   37.5570   30.1780   51.5070 C   0  0  0  0  0  0  0  0  0  0  0  0
   36.3360   29.5640   51.4390 C   0  0  0  0  0  0  0  0  0  0  0  0
   35.5780   29.4420   50.2710 C   0  0  0  0  0  0  0  0  0  0  0  0
   36.1620   30.0030   49.1430 C   0  0  0  0  0  0  0  0  0  0  0  0
   32.3960   29.7950   46.1860 C   0  0  0  0  0  0  0  0  0  0  0  0
   32.1480   28.4300   46.2860 C   0  0  0  0  0  0  0  0  0  0  0  0
   33.0990   27.6150   46.9190 C   0  0  0  0  0  0  0  0  0  0  0  0
   34.2260   28.2120   47.4060 N   0  0  0  0  0  0  0  0  0  0  0  0
   34.4420   29.5420   47.2950 C   0  0  0  0  0  0  0  0  0  0  0  0
   33.5390   30.3080   46.6950 N   0  0  0  0  0  0  0  0  0  0  0  0
   32.9380   26.1800   47.0760 C   0  0  0  0  0  0  0  0  0  0  0  0
   33.9840   25.2970   46.8990 C   0  0  0  0  0  0  0  0  0  0  0  0
   33.5040   24.0250   47.1190 C   0  0  0  0  0  0  0  0  0  0  0  0
   32.1680   24.1970   47.4250 C   0  0  0  0  0  0  0  0  0  0  0  0
   31.8570   25.4860   47.3920 O   0  0  0  0  0  0  0  0  0  0  0  0
   36.5737   30.9302   46.0442 H   0  0  0  0  0  0  0  0  0  0  0  0
   38.5238   31.5711   47.6229 H   0  0  0  0  0  0  0  0  0  0  0  0
   39.0787   31.2163   50.3941 H   0  0  0  0  0  0  0  0  0  0  0  0
   38.0984   30.2381   52.4626 H   0  0  0  0  0  0  0  0  0  0  0  0
   35.9234   29.1380   52.3654 H   0  0  0  0  0  0  0  0  0  0  0  0
   34.5984   28.9422   50.2473 H   0  0  0  0  0  0  0  0  0  0  0  0
   31.6653   30.4545   45.6949 H   0  0  0  0  0  0  0  0  0  0  0  0
   31.2233   27.9973   45.8764 H   0  0  0  0  0  0  0  0  0  0  0  0
   35.0172   25.5621   46.6301 H   0  0  0  0  0  0  0  0  0  0  0  0
   34.0624   23.0789   47.0632 H   0  0  0  0  0  0  0  0  0  0  0  0
   31.4653   23.3844   47.6613 H   0  0  0  0  0  0  0  0  0  0  0  0
  1  9  1  0
  2  1  2  0
  2  3  1  0
  3  4  1  0
  4  5  2  0
  5  6  1  0
  7  6  2  0
  8  7  1  0
  9  4  1  0
  9  8  2  0
 10 11  2  0
 10 15  1  0
 11 12  1  0
 12 16  1  0
 12 13  2  0
 14 13  1  0
 14  1  1  0
 15 14  2  0
 16 20  1  0
 17 16  2  0
 17 18  1  0
 18 19  2  0
 20 19  1  0
  2 21  1  0
  3 22  1  0
  5 23  1  0
  6 24  1  0
  7 25  1  0
  8 26  1  0
 10 27  1  0
 11 28  1  0
 17 29  1  0
 18 30  1  0
 19 31  1  0
M  ISO  8  21  14  22   9  23  14  24  14  25  14  26  14  27  14  28  14
M  ISO  3  29  14  30  14  31  14
M  END
>  <minimizedAffinity>  (1) 
-5.76930523

>  <minimizedRMSD>  (1) 
0.412088484

$$$$
