
     RDKit          3D

 31 34  0  0  0  0  0  0  0  0999 V2000
   35.6600   30.0390   47.8510 C   0  0  0  0  0  0  0  0  0  0  0  0
   36.6230   30.6860   47.1030 C   0  0  0  0  0  0  0  0  0  0  0  0
   37.6630   31.0300   47.8980 N   0  0  0  0  0  0  0  0  0  0  0  0
   37.3780   30.6100   49.1580 C   0  0  0  0  0  0  0  0  0  0  0  0
   38.0830   30.7010   50.3470 C   0  0  0  0  0  0  0  0  0  0  0  0
   37.5360   30.1760   51.4900 C   0  0  0  0  0  0  0  0  0  0  0  0
   36.2960   29.5670   51.4410 C   0  0  0  0  0  0  0  0  0  0  0  0
   35.5420   29.4480   50.2670 C   0  0  0  0  0  0  0  0  0  0  0  0
   36.1380   29.9950   49.1360 C   0  0  0  0  0  0  0  0  0  0  0  0
   32.3740   29.8120   46.1800 C   0  0  0  0  0  0  0  0  0  0  0  0
   32.1000   28.4520   46.2930 C   0  0  0  0  0  0  0  0  0  0  0  0
   33.0370   27.6260   46.9380 C   0  0  0  0  0  0  0  0  0  0  0  0
   34.1810   28.2020   47.4250 N   0  0  0  0  0  0  0  0  0  0  0  0
   34.4030   29.5340   47.2910 C   0  0  0  0  0  0  0  0  0  0  0  0
   33.5170   30.3400   46.6770 N   0  0  0  0  0  0  0  0  0  0  0  0
   32.8780   26.2230   47.1190 N   0  0  0  0  0  0  0  0  0  0  0  0
   31.8620   25.4610   47.4970 N   0  0  0  0  0  0  0  0  0  0  0  0
   32.2610   24.1570   47.5020 C   0  0  0  0  0  0  0  0  0  0  0  0
   33.5970   24.1270   47.1020 C   0  0  0  0  0  0  0  0  0  0  0  0
   33.9570   25.4360   46.8690 C   0  0  0  0  0  0  0  0  0  0  0  0
   36.5554   30.8909   46.0244 H   0  0  0  0  0  0  0  0  0  0  0  0
   38.5176   31.5222   47.6008 H   0  0  0  0  0  0  0  0  0  0  0  0
   39.0689   31.1881   50.3741 H   0  0  0  0  0  0  0  0  0  0  0  0
   38.0823   30.2394   52.4426 H   0  0  0  0  0  0  0  0  0  0  0  0
   35.8802   29.1546   52.3721 H   0  0  0  0  0  0  0  0  0  0  0  0
   34.5563   28.9604   50.2415 H   0  0  0  0  0  0  0  0  0  0  0  0
   31.6488   30.4693   45.6779 H   0  0  0  0  0  0  0  0  0  0  0  0
   31.1686   28.0318   45.8856 H   0  0  0  0  0  0  0  0  0  0  0  0
   31.6427   23.2882   47.7719 H   0  0  0  0  0  0  0  0  0  0  0  0
   34.2347   23.2372   46.9943 H   0  0  0  0  0  0  0  0  0  0  0  0
   34.9466   25.7839   46.5379 H   0  0  0  0  0  0  0  0  0  0  0  0
  1  9  1  0
  2  1  2  0
  2  3  1  0
  3  4  1  0
  4  5  2  0
  5  6  1  0
  7  6  2  0
  8  7  1  0
  9  4  1  0
  9  8  2  0
 10 11  2  0
 10 15  1  0
 11 12  1  0
 12 16  1  0
 12 13  2  0
 14 13  1  0
 14  1  1  0
 15 14  2  0
 16 17  1  0
 17 18  2  0
 19 18  1  0
 20 19  2  0
 20 16  1  0
  2 21  1  0
  3 22  1  0
  5 23  1  0
  6 24  1  0
  7 25  1  0
  8 26  1  0
 10 27  1  0
 11 28  1  0
 18 29  1  0
 19 30  1  0
 20 31  1  0
M  ISO  8  21  14  22   9  23  14  24  14  25  14  26  14  27  14  28  14
M  ISO  3  29  14  30  14  31  14
M  END
>  <minimizedAffinity>  (1) 
-5.7336688

>  <minimizedRMSD>  (1) 
0.507578135

$$$$
