
     RDKit          3D

 37 40  0  0  0  0  0  0  0  0999 V2000
   35.6190   30.0710   47.8480 C   0  0  0  0  0  0  0  0  0  0  0  0
   36.6090   30.6840   47.1050 C   0  0  0  0  0  0  0  0  0  0  0  0
   37.6590   30.9940   47.8730 N   0  0  0  0  0  0  0  0  0  0  0  0
   37.3720   30.5890   49.1340 C   0  0  0  0  0  0  0  0  0  0  0  0
   38.0880   30.6550   50.3280 C   0  0  0  0  0  0  0  0  0  0  0  0
   37.5150   30.1430   51.4800 C   0  0  0  0  0  0  0  0  0  0  0  0
   36.2610   29.5830   51.4340 C   0  0  0  0  0  0  0  0  0  0  0  0
   35.5070   29.4960   50.2610 C   0  0  0  0  0  0  0  0  0  0  0  0
   36.1120   30.0180   49.1240 C   0  0  0  0  0  0  0  0  0  0  0  0
   32.3480   29.9550   46.1430 C   0  0  0  0  0  0  0  0  0  0  0  0
   31.9930   28.6040   46.3180 C   0  0  0  0  0  0  0  0  0  0  0  0
   32.8830   27.7810   47.0130 C   0  0  0  0  0  0  0  0  0  0  0  0
   34.0300   28.3270   47.4750 N   0  0  0  0  0  0  0  0  0  0  0  0
   34.3510   29.6150   47.2980 C   0  0  0  0  0  0  0  0  0  0  0  0
   33.5140   30.4210   46.6360 N   0  0  0  0  0  0  0  0  0  0  0  0
   32.6460   26.4070   47.2600 N   0  0  0  0  0  0  0  0  0  0  0  0
   31.3610   25.7950   47.5040 C   0  0  0  0  0  0  0  0  0  0  0  0
   31.0980   24.8520   46.3270 C   0  0  0  0  0  0  0  0  0  0  0  0
   32.2240   24.2160   45.8750 O   0  0  0  0  0  0  0  0  0  0  0  0
   33.2350   24.0820   46.8210 C   0  0  0  0  0  0  0  0  0  0  0  0
   33.7340   25.4510   47.2860 C   0  0  0  0  0  0  0  0  0  0  0  0
   36.5426   30.8896   46.0264 H   0  0  0  0  0  0  0  0  0  0  0  0
   38.5261   31.4556   47.5632 H   0  0  0  0  0  0  0  0  0  0  0  0
   39.0909   31.1060   50.3548 H   0  0  0  0  0  0  0  0  0  0  0  0
   38.0639   30.1846   52.4323 H   0  0  0  0  0  0  0  0  0  0  0  0
   35.8305   29.1844   52.3645 H   0  0  0  0  0  0  0  0  0  0  0  0
   34.5038   29.0454   50.2390 H   0  0  0  0  0  0  0  0  0  0  0  0
   31.6719   30.6334   45.6021 H   0  0  0  0  0  0  0  0  0  0  0  0
   31.0462   28.2093   45.9207 H   0  0  0  0  0  0  0  0  0  0  0  0
   31.3826   25.2290   48.4469 H   0  0  0  0  0  0  0  0  0  0  0  0
   30.5692   26.5536   47.5905 H   0  0  0  0  0  0  0  0  0  0  0  0
   30.3721   24.0899   46.6468 H   0  0  0  0  0  0  0  0  0  0  0  0
   30.7185   25.4671   45.4977 H   0  0  0  0  0  0  0  0  0  0  0  0
   32.8458   23.5274   47.6876 H   0  0  0  0  0  0  0  0  0  0  0  0
   34.0749   23.5395   46.3625 H   0  0  0  0  0  0  0  0  0  0  0  0
   34.5366   25.7935   46.6163 H   0  0  0  0  0  0  0  0  0  0  0  0
   34.1178   25.3668   48.3134 H   0  0  0  0  0  0  0  0  0  0  0  0
  1  9  1  0
  2  1  2  0
  2  3  1  0
  3  4  1  0
  4  5  2  0
  5  6  1  0
  7  6  2  0
  8  7  1  0
  9  4  1  0
  9  8  2  0
 10 11  2  0
 10 15  1  0
 11 12  1  0
 12 16  1  0
 12 13  2  0
 14 13  1  0
 14  1  1  0
 15 14  2  0
 16 21  1  0
 16 17  1  0
 18 17  1  0
 19 18  1  0
 19 20  1  0
 20 21  1  0
  2 22  1  0
  3 23  1  0
  5 24  1  0
  6 25  1  0
  7 26  1  0
  8 27  1  0
 10 28  1  0
 11 29  1  0
 17 30  1  0
 17 31  1  0
 18 32  1  0
 18 33  1  0
 20 34  1  0
 20 35  1  0
 21 36  1  0
 21 37  1  0
M  ISO  8  22  14  23   9  24  14  25  14  26  14  27  14  28  14  29  14
M  ISO  8  30  13  31  13  32  13  33  13  34  13  35  13  36  13  37  13
M  END
>  <minimizedAffinity>  (1) 
-5.71128654

>  <minimizedRMSD>  (1) 
0.60061878

$$$$
