
     RDKit          3D

 22 23  0  0  0  0  0  0  0  0999 V2000
   37.5440   30.2810   51.2870 C   0  0  0  0  0  0  0  0  0  0  0  0
   38.1680   30.9410   50.2190 C   0  0  0  0  0  0  0  0  0  0  0  0
   37.7630   30.6290   48.9220 C   0  0  0  0  0  0  0  0  0  0  0  0
   36.7840   29.7040   48.7650 N   0  0  0  0  0  0  0  0  0  0  0  0
   36.1950   29.0800   49.7990 C   0  0  0  0  0  0  0  0  0  0  0  0
   36.5740   29.3660   51.0680 N   0  0  0  0  0  0  0  0  0  0  0  0
   38.2940   31.2060   47.7360 N   0  0  0  0  0  0  0  0  0  0  0  0
   38.4320   30.6500   46.4020 C   0  0  0  0  0  0  0  0  0  0  0  0
   39.8460   31.1430   46.0870 C   0  0  0  0  0  0  0  0  0  0  0  0
   39.6830   32.6090   46.4140 C   0  0  0  0  0  0  0  0  0  0  0  0
   38.8270   32.5580   47.6660 C   0  0  0  0  0  0  0  0  0  0  0  0
   37.8485   30.5114   52.3186 H   0  0  0  0  0  0  0  0  0  0  0  0
   38.9569   31.6859   50.3998 H   0  0  0  0  0  0  0  0  0  0  0  0
   35.4050   28.3369   49.6152 H   0  0  0  0  0  0  0  0  0  0  0  0
   38.3681   29.5519   46.4034 H   0  0  0  0  0  0  0  0  0  0  0  0
   37.6548   30.9456   45.6818 H   0  0  0  0  0  0  0  0  0  0  0  0
   40.5997   30.6618   46.7277 H   0  0  0  0  0  0  0  0  0  0  0  0
   40.1980   30.9291   45.0670 H   0  0  0  0  0  0  0  0  0  0  0  0
   40.6546   33.0848   46.6129 H   0  0  0  0  0  0  0  0  0  0  0  0
   39.2415   33.1997   45.5978 H   0  0  0  0  0  0  0  0  0  0  0  0
   39.4377   32.7740   48.5550 H   0  0  0  0  0  0  0  0  0  0  0  0
   38.0213   33.3062   47.6325 H   0  0  0  0  0  0  0  0  0  0  0  0
  2  1  2  0
  3  2  1  0
  4  3  2  0
  4  5  1  0
  5  6  2  0
  6  1  1  0
  7  3  1  0
  8  7  1  0
  9  8  1  0
  9 10  1  0
 10 11  1  0
 11  7  1  0
  1 12  1  0
  2 13  1  0
  5 14  1  0
  8 15  1  0
  8 16  1  0
  9 17  1  0
  9 18  1  0
 10 19  1  0
 10 20  1  0
 11 21  1  0
 11 22  1  0
M  ISO  8  12  14  13  14  14  14  15  13  16  13  17  13  18  13  19  13
M  ISO  3  20  13  21  13  22  13
M  END
>  <minimizedAffinity>  (1) 
-4.75639153

>  <minimizedRMSD>  (1) 
0.418436617

$$$$
