
     RDKit          3D

 30 32  0  0  0  0  0  0  0  0999 V2000
   35.3450   29.9910   47.8150 C   0  0  0  0  0  0  0  0  0  0  0  0
   36.3400   30.5050   46.9990 C   0  0  0  0  0  0  0  0  0  0  0  0
   37.4510   30.7470   47.7260 N   0  0  0  0  0  0  0  0  0  0  0  0
   37.1980   30.3960   49.0120 C   0  0  0  0  0  0  0  0  0  0  0  0
   37.9780   30.4360   50.1550 C   0  0  0  0  0  0  0  0  0  0  0  0
   37.4340   30.0020   51.3420 C   0  0  0  0  0  0  0  0  0  0  0  0
   36.1290   29.5350   51.3850 C   0  0  0  0  0  0  0  0  0  0  0  0
   35.3200   29.4850   50.2490 C   0  0  0  0  0  0  0  0  0  0  0  0
   35.8930   29.9250   49.0790 C   0  0  0  0  0  0  0  0  0  0  0  0
   32.1180   29.9720   46.0290 C   0  0  0  0  0  0  0  0  0  0  0  0
   31.5280   28.8210   46.5520 C   0  0  0  0  0  0  0  0  0  0  0  0
   32.2320   28.0680   47.5030 C   0  0  0  0  0  0  0  0  0  0  0  0
   33.4620   28.5080   47.8630 N   0  0  0  0  0  0  0  0  0  0  0  0
   34.0190   29.6210   47.3490 C   0  0  0  0  0  0  0  0  0  0  0  0
   33.3580   30.3570   46.4340 N   0  0  0  0  0  0  0  0  0  0  0  0
   31.7180   26.8430   48.1230 C   0  0  0  0  0  0  0  0  0  0  0  0
   30.5090   27.0800   48.9690 C   0  0  0  0  0  0  0  0  0  0  0  0
   36.2393   30.6885   45.9191 H   0  0  0  0  0  0  0  0  0  0  0  0
   38.3367   31.1312   47.3671 H   0  0  0  0  0  0  0  0  0  0  0  0
   39.0126   30.8075   50.1151 H   0  0  0  0  0  0  0  0  0  0  0  0
   38.0373   30.0256   52.2615 H   0  0  0  0  0  0  0  0  0  0  0  0
   35.7180   29.1927   52.3462 H   0  0  0  0  0  0  0  0  0  0  0  0
   34.2847   29.1153   50.2873 H   0  0  0  0  0  0  0  0  0  0  0  0
   31.5763   30.5726   45.2835 H   0  0  0  0  0  0  0  0  0  0  0  0
   30.5257   28.5088   46.2234 H   0  0  0  0  0  0  0  0  0  0  0  0
   31.4548   26.1310   47.3269 H   0  0  0  0  0  0  0  0  0  0  0  0
   32.5078   26.4503   48.7802 H   0  0  0  0  0  0  0  0  0  0  0  0
   30.7885   27.0252   50.0315 H   0  0  0  0  0  0  0  0  0  0  0  0
   30.0971   28.0760   48.7491 H   0  0  0  0  0  0  0  0  0  0  0  0
   29.7516   26.3132   48.7491 H   0  0  0  0  0  0  0  0  0  0  0  0
  1  9  1  0
  2  3  1  0
  2  1  2  0
  3  4  1  0
  4  9  2  0
  4  5  1  0
  5  6  2  0
  6  7  1  0
  8  7  2  0
  9  8  1  0
 10 15  2  0
 10 11  1  0
 11 12  2  0
 12 13  1  0
 12 16  1  0
 14  1  1  0
 14 13  2  0
 15 14  1  0
 16 17  1  0
  2 18  1  0
  3 19  1  0
  5 20  1  0
  6 21  1  0
  7 22  1  0
  8 23  1  0
 10 24  1  0
 11 25  1  0
 16 26  1  0
 16 27  1  0
 17 28  1  0
 17 29  1  0
 17 30  1  0
M  ISO  8  18  14  19   9  20  14  21  14  22  14  23  14  24  14  25  14
M  ISO  5  26   8  27   8  28   8  29   8  30   8
M  END
>  <minimizedAffinity>  (1) 
-5.63810062

>  <minimizedRMSD>  (1) 
0.961306751

$$$$
