
     RDKit          3D

 19 20  0  0  0  0  0  0  0  0999 V2000
   37.3310   30.2400   51.3100 C   0  0  0  0  0  0  0  0  0  0  0  0
   38.0770   30.9000   50.3040 C   0  0  0  0  0  0  0  0  0  0  0  0
   37.7580   30.6060   48.9820 C   0  0  0  0  0  0  0  0  0  0  0  0
   36.7670   29.7180   48.7180 N   0  0  0  0  0  0  0  0  0  0  0  0
   36.0720   29.1030   49.7000 C   0  0  0  0  0  0  0  0  0  0  0  0
   36.3580   29.3670   50.9860 N   0  0  0  0  0  0  0  0  0  0  0  0
   38.4250   31.1950   47.8290 C   0  0  0  0  0  0  0  0  0  0  0  0
   38.9590   32.4660   47.8250 C   0  0  0  0  0  0  0  0  0  0  0  0
   39.5960   33.0490   46.7500 C   0  0  0  0  0  0  0  0  0  0  0  0
   39.7220   32.3300   45.5840 C   0  0  0  0  0  0  0  0  0  0  0  0
   39.1880   31.0680   45.6010 C   0  0  0  0  0  0  0  0  0  0  0  0
   38.5830   30.5390   46.6520 N   0  0  0  0  0  0  0  0  0  0  0  0
   37.5487   30.4426   52.3690 H   0  0  0  0  0  0  0  0  0  0  0  0
   38.8744   31.6144   50.5566 H   0  0  0  0  0  0  0  0  0  0  0  0
   35.2747   28.3885   49.4475 H   0  0  0  0  0  0  0  0  0  0  0  0
   38.8704   33.0587   48.7474 H   0  0  0  0  0  0  0  0  0  0  0  0
   39.9963   34.0709   46.8235 H   0  0  0  0  0  0  0  0  0  0  0  0
   40.2200   32.7421   44.6940 H   0  0  0  0  0  0  0  0  0  0  0  0
   39.2670   30.4596   44.6880 H   0  0  0  0  0  0  0  0  0  0  0  0
  2  1  2  0
  3  2  1  0
  4  3  2  0
  4  5  1  0
  5  6  2  0
  6  1  1  0
  7  3  1  0
  8  7  2  0
  9  8  1  0
 10 11  1  0
 10  9  2  0
 11 12  2  0
 12  7  1  0
  1 13  1  0
  2 14  1  0
  5 15  1  0
  8 16  1  0
  9 17  1  0
 10 18  1  0
 11 19  1  0
M  ISO  7  13  14  14  14  15  14  16  14  17  14  18  14  19  14
M  END
>  <minimizedAffinity>  (1) 
-4.63241291

>  <minimizedRMSD>  (1) 
0.590000629

$$$$
