
     RDKit          3D

 25 27  0  0  0  0  0  0  0  0999 V2000
   35.6490   30.0530   47.7940 C   0  0  0  0  0  0  0  0  0  0  0  0
   36.6580   30.6760   47.0800 C   0  0  0  0  0  0  0  0  0  0  0  0
   37.6830   30.9850   47.8880 N   0  0  0  0  0  0  0  0  0  0  0  0
   37.3600   30.5690   49.1360 C   0  0  0  0  0  0  0  0  0  0  0  0
   38.0470   30.6320   50.3530 C   0  0  0  0  0  0  0  0  0  0  0  0
   37.4520   30.1150   51.4760 C   0  0  0  0  0  0  0  0  0  0  0  0
   36.2070   29.5500   51.3930 C   0  0  0  0  0  0  0  0  0  0  0  0
   35.4740   29.4580   50.2080 C   0  0  0  0  0  0  0  0  0  0  0  0
   36.0960   29.9850   49.0990 C   0  0  0  0  0  0  0  0  0  0  0  0
   32.3350   29.9670   46.1770 C   0  0  0  0  0  0  0  0  0  0  0  0
   32.0840   28.5910   46.1410 C   0  0  0  0  0  0  0  0  0  0  0  0
   33.0480   27.7190   46.6690 C   0  0  0  0  0  0  0  0  0  0  0  0
   34.1880   28.2580   47.1930 N   0  0  0  0  0  0  0  0  0  0  0  0
   34.4030   29.5920   47.2140 C   0  0  0  0  0  0  0  0  0  0  0  0
   33.4950   30.4270   46.7160 N   0  0  0  0  0  0  0  0  0  0  0  0
   32.8990   26.3360   46.6830 O   0  0  0  0  0  0  0  0  0  0  0  0
   36.6240   30.8880   46.0012 H   0  0  0  0  0  0  0  0  0  0  0  0
   38.5571   31.4536   47.6100 H   0  0  0  0  0  0  0  0  0  0  0  0
   39.0465   31.0880   50.4086 H   0  0  0  0  0  0  0  0  0  0  0  0
   37.9748   30.1542   52.4430 H   0  0  0  0  0  0  0  0  0  0  0  0
   35.7589   29.1455   52.3126 H   0  0  0  0  0  0  0  0  0  0  0  0
   34.4752   28.9992   50.1642 H   0  0  0  0  0  0  0  0  0  0  0  0
   31.5965   30.6738   45.7707 H   0  0  0  0  0  0  0  0  0  0  0  0
   31.1509   28.2013   45.7080 H   0  0  0  0  0  0  0  0  0  0  0  0
   33.6105   25.7654   47.0681 H   0  0  0  0  0  0  0  0  0  0  0  0
  1  9  1  0
  2  1  2  0
  2  3  1  0
  3  4  1  0
  4  5  2  0
  5  6  1  0
  7  6  2  0
  8  7  1  0
  9  4  1  0
  9  8  2  0
 10 15  2  0
 11 10  1  0
 11 12  2  0
 12 16  1  0
 12 13  1  0
 13 14  2  0
 14  1  1  0
 15 14  1  0
  2 17  1  0
  3 18  1  0
  5 19  1  0
  6 20  1  0
  7 21  1  0
  8 22  1  0
 10 23  1  0
 11 24  1  0
 16 25  1  0
M  ISO  8  17  14  18   9  19  14  20  14  21  14  22  14  23  14  24  14
M  ISO  1  25   3
M  END
>  <minimizedAffinity>  (1) 
-5.3795476

>  <minimizedRMSD>  (1) 
0.0187912807

$$$$
