
     RDKit          3D

 46 51  0  0  0  0  0  0  0  0999 V2000
   31.9190   29.4210   46.2350 C   0  0  0  0  0  0  0  0  0  0  0  0
   31.7360   28.0360   46.2600 C   0  0  0  0  0  0  0  0  0  0  0  0
   32.8020   27.2550   46.7630 C   0  0  0  0  0  0  0  0  0  0  0  0
   33.9290   27.8610   47.1900 N   0  0  0  0  0  0  0  0  0  0  0  0
   34.0630   29.2100   47.1490 C   0  0  0  0  0  0  0  0  0  0  0  0
   33.0730   29.9840   46.6780 N   0  0  0  0  0  0  0  0  0  0  0  0
   35.3190   29.7620   47.6350 C   0  0  0  0  0  0  0  0  0  0  0  0
   36.2410   30.4190   46.8410 C   0  0  0  0  0  0  0  0  0  0  0  0
   37.2890   30.8090   47.5700 N   0  0  0  0  0  0  0  0  0  0  0  0
   37.0710   30.4150   48.8520 C   0  0  0  0  0  0  0  0  0  0  0  0
   37.8300   30.5580   50.0140 C   0  0  0  0  0  0  0  0  0  0  0  0
   37.3430   30.0420   51.2000 C   0  0  0  0  0  0  0  0  0  0  0  0
   36.1250   29.4020   51.2140 C   0  0  0  0  0  0  0  0  0  0  0  0
   35.3420   29.2420   50.0690 C   0  0  0  0  0  0  0  0  0  0  0  0
   35.8570   29.7680   48.8990 C   0  0  0  0  0  0  0  0  0  0  0  0
   32.6590   25.7980   46.8120 C   0  0  0  0  0  0  0  0  0  0  0  0
   33.6090   25.0520   47.4480 C   0  0  0  0  0  0  0  0  0  0  0  0
   33.3810   23.6980   47.4420 C   0  0  0  0  0  0  0  0  0  0  0  0
   32.3090   23.1350   46.8600 N   0  0  0  0  0  0  0  0  0  0  0  0
   31.3810   23.8900   46.2370 C   0  0  0  0  0  0  0  0  0  0  0  0
   31.6010   25.2200   46.2400 N   0  0  0  0  0  0  0  0  0  0  0  0
   30.1370   23.5510   45.5240 C   0  0  0  0  0  0  0  0  0  0  0  0
   29.5520   24.3760   44.6090 N   0  0  0  0  0  0  0  0  0  0  0  0
   28.4270   24.0840   43.9570 C   0  0  0  0  0  0  0  0  0  0  0  0
   27.7760   22.9280   44.1610 N   0  0  0  0  0  0  0  0  0  0  0  0
   28.2760   22.0430   45.0500 C   0  0  0  0  0  0  0  0  0  0  0  0
   27.5960   20.8620   45.2480 C   0  0  0  0  0  0  0  0  0  0  0  0
   28.0760   19.9360   46.1470 C   0  0  0  0  0  0  0  0  0  0  0  0
   29.2570   20.2590   46.8210 C   0  0  0  0  0  0  0  0  0  0  0  0
   29.8820   21.4520   46.5770 C   0  0  0  0  0  0  0  0  0  0  0  0
   29.4330   22.3820   45.6980 C   0  0  0  0  0  0  0  0  0  0  0  0
   31.1153   30.0660   45.8502 H   0  0  0  0  0  0  0  0  0  0  0  0
   30.8036   27.5735   45.9040 H   0  0  0  0  0  0  0  0  0  0  0  0
   36.1269   30.5953   45.7612 H   0  0  0  0  0  0  0  0  0  0  0  0
   38.1148   31.3174   47.2229 H   0  0  0  0  0  0  0  0  0  0  0  0
   38.8013   31.0736   49.9865 H   0  0  0  0  0  0  0  0  0  0  0  0
   37.9258   30.1424   52.1275 H   0  0  0  0  0  0  0  0  0  0  0  0
   35.7524   28.9994   52.1675 H   0  0  0  0  0  0  0  0  0  0  0  0
   34.3706   28.7267   50.0965 H   0  0  0  0  0  0  0  0  0  0  0  0
   34.4903   25.5015   47.9288 H   0  0  0  0  0  0  0  0  0  0  0  0
   34.1118   23.0422   47.9379 H   0  0  0  0  0  0  0  0  0  0  0  0
   28.0222   24.8077   43.2343 H   0  0  0  0  0  0  0  0  0  0  0  0
   26.6708   20.6587   44.6889 H   0  0  0  0  0  0  0  0  0  0  0  0
   27.5535   18.9848   46.3266 H   0  0  0  0  0  0  0  0  0  0  0  0
   29.6848   19.5535   47.5485 H   0  0  0  0  0  0  0  0  0  0  0  0
   30.8079   21.6704   47.1293 H   0  0  0  0  0  0  0  0  0  0  0  0
  1  2  2  0
  1  6  1  0
  2  3  1  0
  3 16  1  0
  3  4  2  0
  5  4  1  0
  5  7  1  0
  6  5  2  0
  7 15  1  0
  8  9  1  0
  8  7  2  0
  9 10  1  0
 10 15  2  0
 10 11  1  0
 11 12  2  0
 12 13  1  0
 14 13  2  0
 15 14  1  0
 16 17  2  0
 18 17  1  0
 19 18  2  0
 20 21  2  0
 20 19  1  0
 21 16  1  0
 22 31  1  0
 22 20  1  0
 23 22  2  0
 24 25  2  0
 24 23  1  0
 25 26  1  0
 26 27  1  0
 26 31  2  0
 27 28  2  0
 28 29  1  0
 30 29  2  0
 31 30  1  0
  1 32  1  0
  2 33  1  0
  8 34  1  0
  9 35  1  0
 11 36  1  0
 12 37  1  0
 13 38  1  0
 14 39  1  0
 17 40  1  0
 18 41  1  0
 24 42  1  0
 27 43  1  0
 28 44  1  0
 29 45  1  0
 30 46  1  0
M  ISO  8  32  14  33  14  34  14  35   9  36  14  37  14  38  14  39  14
M  ISO  7  40  14  41  14  42  14  43  14  44  14  45  14  46  14
M  END
>  <minimizedAffinity>  (1) 
-7.01192904

>  <minimizedRMSD>  (1) 
0.65317291

$$$$
