
     RDKit          3D

 26 27  0  0  0  0  0  0  0  0999 V2000
   37.3310   30.2350   51.2450 C   0  0  0  0  0  0  0  0  0  0  0  0
   38.2780   30.9370   50.4760 C   0  0  0  0  0  0  0  0  0  0  0  0
   37.9880   31.1310   49.1110 C   0  0  0  0  0  0  0  0  0  0  0  0
   36.8180   30.6310   48.6300 N   0  0  0  0  0  0  0  0  0  0  0  0
   35.9290   29.9610   49.3950 C   0  0  0  0  0  0  0  0  0  0  0  0
   36.1960   29.7670   50.7100 N   0  0  0  0  0  0  0  0  0  0  0  0
   34.6700   29.4410   48.8090 C   0  0  0  0  0  0  0  0  0  0  0  0
   34.6700   29.8200   47.3500 C   0  0  0  0  0  0  0  0  0  0  0  0
   33.6620   29.1020   46.5200 C   0  0  0  0  0  0  0  0  0  0  0  0
   32.7350   28.3610   47.4590 C   0  0  0  0  0  0  0  0  0  0  0  0
   33.5450   27.3020   48.1410 C   0  0  0  0  0  0  0  0  0  0  0  0
   34.5270   27.9830   49.0600 C   0  0  0  0  0  0  0  0  0  0  0  0
   37.5284   30.0663   52.3139 H   0  0  0  0  0  0  0  0  0  0  0  0
   39.2077   31.3190   50.9230 H   0  0  0  0  0  0  0  0  0  0  0  0
   38.6864   31.6704   48.4543 H   0  0  0  0  0  0  0  0  0  0  0  0
   33.7839   29.8869   49.2843 H   0  0  0  0  0  0  0  0  0  0  0  0
   34.4687   30.8989   47.2763 H   0  0  0  0  0  0  0  0  0  0  0  0
   35.6566   29.5358   46.9553 H   0  0  0  0  0  0  0  0  0  0  0  0
   33.0885   29.8237   45.9199 H   0  0  0  0  0  0  0  0  0  0  0  0
   34.1581   28.3989   45.8347 H   0  0  0  0  0  0  0  0  0  0  0  0
   32.3200   29.0557   48.2041 H   0  0  0  0  0  0  0  0  0  0  0  0
   31.8963   27.9136   46.9054 H   0  0  0  0  0  0  0  0  0  0  0  0
   32.8835   26.6440   48.7237 H   0  0  0  0  0  0  0  0  0  0  0  0
   34.0788   26.6922   47.3972 H   0  0  0  0  0  0  0  0  0  0  0  0
   35.5113   27.5100   48.9280 H   0  0  0  0  0  0  0  0  0  0  0  0
   34.1401   27.8700   50.0835 H   0  0  0  0  0  0  0  0  0  0  0  0
  2  1  2  0
  3  2  1  0
  4  3  2  0
  4  5  1  0
  5  6  2  0
  6  1  1  0
  7 12  1  0
  7  5  1  0
  8  7  1  0
  9  8  1  0
  9 10  1  0
 10 11  1  0
 11 12  1  0
  1 13  1  0
  2 14  1  0
  3 15  1  0
  7 16  1  0
  8 17  1  0
  8 18  1  0
  9 19  1  0
  9 20  1  0
 10 21  1  0
 10 22  1  0
 11 23  1  0
 11 24  1  0
 12 25  1  0
 12 26  1  0
M  ISO  8  13  14  14  14  15  14  16  13  17  13  18  13  19  13  20  13
M  ISO  6  21  13  22  13  23  13  24  13  25  13  26  13
M  END
>  <minimizedAffinity>  (1) 
-4.44216776

>  <minimizedRMSD>  (1) 
1.42769408

$$$$
