
     RDKit          3D

 45 49  0  0  0  0  0  0  0  0999 V2000
   32.3080   30.0330   46.1040 C   0  0  0  0  0  0  0  0  0  0  0  0
   31.9770   28.6770   46.1350 C   0  0  0  0  0  0  0  0  0  0  0  0
   32.8920   27.7980   46.7220 C   0  0  0  0  0  0  0  0  0  0  0  0
   34.0440   28.2920   47.2280 N   0  0  0  0  0  0  0  0  0  0  0  0
   34.3410   29.6140   47.1860 C   0  0  0  0  0  0  0  0  0  0  0  0
   33.4810   30.4780   46.6280 N   0  0  0  0  0  0  0  0  0  0  0  0
   35.6080   30.0410   47.7600 C   0  0  0  0  0  0  0  0  0  0  0  0
   36.6300   30.6300   47.0390 C   0  0  0  0  0  0  0  0  0  0  0  0
   37.6630   30.9090   47.8370 N   0  0  0  0  0  0  0  0  0  0  0  0
   37.3350   30.5090   49.0940 C   0  0  0  0  0  0  0  0  0  0  0  0
   38.0350   30.5640   50.2920 C   0  0  0  0  0  0  0  0  0  0  0  0
   37.4280   30.0680   51.4320 C   0  0  0  0  0  0  0  0  0  0  0  0
   36.1520   29.5340   51.3580 C   0  0  0  0  0  0  0  0  0  0  0  0
   35.4290   29.4690   50.1660 C   0  0  0  0  0  0  0  0  0  0  0  0
   36.0630   29.9720   49.0450 C   0  0  0  0  0  0  0  0  0  0  0  0
   32.5890   26.3730   46.7760 C   0  0  0  0  0  0  0  0  0  0  0  0
   33.5230   25.5080   47.3040 C   0  0  0  0  0  0  0  0  0  0  0  0
   33.1730   24.1820   47.3250 C   0  0  0  0  0  0  0  0  0  0  0  0
   31.9730   23.7390   46.8510 N   0  0  0  0  0  0  0  0  0  0  0  0
   31.0850   24.6210   46.3410 C   0  0  0  0  0  0  0  0  0  0  0  0
   31.4130   25.9320   46.3130 N   0  0  0  0  0  0  0  0  0  0  0  0
   29.8450   24.1890   45.8480 N   0  0  0  0  0  0  0  0  0  0  0  0
   28.6790   25.0500   45.9020 C   0  0  0  0  0  0  0  0  0  0  0  0
   28.1350   25.1120   44.4840 C   0  0  0  0  0  0  0  0  0  0  0  0
   27.8880   23.8350   44.0310 O   0  0  0  0  0  0  0  0  0  0  0  0
   29.0590   23.1000   43.8990 C   0  0  0  0  0  0  0  0  0  0  0  0
   29.7030   22.8650   45.2710 C   0  0  0  0  0  0  0  0  0  0  0  0
   31.6100   30.7514   45.6493 H   0  0  0  0  0  0  0  0  0  0  0  0
   31.0290   28.3129   45.7122 H   0  0  0  0  0  0  0  0  0  0  0  0
   36.5966   30.8393   45.9596 H   0  0  0  0  0  0  0  0  0  0  0  0
   38.5497   31.3486   47.5515 H   0  0  0  0  0  0  0  0  0  0  0  0
   39.0476   30.9916   50.3336 H   0  0  0  0  0  0  0  0  0  0  0  0
   37.9578   30.0976   52.3956 H   0  0  0  0  0  0  0  0  0  0  0  0
   35.6893   29.1450   52.2770 H   0  0  0  0  0  0  0  0  0  0  0  0
   34.4157   29.0432   50.1211 H   0  0  0  0  0  0  0  0  0  0  0  0
   34.4924   25.8604   47.6862 H   0  0  0  0  0  0  0  0  0  0  0  0
   33.8839   23.4512   47.7380 H   0  0  0  0  0  0  0  0  0  0  0  0
   27.9244   24.6285   46.5824 H   0  0  0  0  0  0  0  0  0  0  0  0
   28.9358   26.0513   46.2781 H   0  0  0  0  0  0  0  0  0  0  0  0
   27.2001   25.6916   44.4749 H   0  0  0  0  0  0  0  0  0  0  0  0
   28.8734   25.5972   43.8288 H   0  0  0  0  0  0  0  0  0  0  0  0
   28.8269   22.1291   43.4369 H   0  0  0  0  0  0  0  0  0  0  0  0
   29.7626   23.6620   43.2672 H   0  0  0  0  0  0  0  0  0  0  0  0
   29.0557   22.2361   45.8998 H   0  0  0  0  0  0  0  0  0  0  0  0
   30.6674   22.3419   45.1918 H   0  0  0  0  0  0  0  0  0  0  0  0
  1  2  2  0
  1  6  1  0
  2  3  1  0
  3 16  1  0
  3  4  2  0
  5  4  1  0
  5  7  1  0
  6  5  2  0
  7 15  1  0
  8  7  2  0
  8  9  1  0
  9 10  1  0
 10 11  2  0
 11 12  1  0
 13 12  2  0
 14 13  1  0
 15 10  1  0
 15 14  2  0
 16 17  2  0
 17 18  1  0
 19 18  2  0
 20 19  1  0
 21 20  2  0
 21 16  1  0
 22 23  1  0
 22 20  1  0
 24 23  1  0
 25 24  1  0
 26 25  1  0
 26 27  1  0
 27 22  1  0
  1 28  1  0
  2 29  1  0
  8 30  1  0
  9 31  1  0
 11 32  1  0
 12 33  1  0
 13 34  1  0
 14 35  1  0
 17 36  1  0
 18 37  1  0
 23 38  1  0
 23 39  1  0
 24 40  1  0
 24 41  1  0
 26 42  1  0
 26 43  1  0
 27 44  1  0
 27 45  1  0
M  ISO  8  28  14  29  14  30  14  31   9  32  14  33  14  34  14  35  14
M  ISO  8  36  14  37  14  38  13  39  13  40  13  41  13  42  13  43  13
M  ISO  2  44  13  45  13
M  END
>  <minimizedAffinity>  (1) 
-6.53821611

>  <minimizedRMSD>  (1) 
0.187803701

$$$$
