
     RDKit          3D

 39 43  0  0  0  0  0  0  0  0999 V2000
   32.3670   29.9310   46.1630 C   0  0  0  0  0  0  0  0  0  0  0  0
   32.0940   28.5590   46.1730 C   0  0  0  0  0  0  0  0  0  0  0  0
   33.0440   27.6990   46.7510 C   0  0  0  0  0  0  0  0  0  0  0  0
   34.1700   28.2410   47.2670 N   0  0  0  0  0  0  0  0  0  0  0  0
   34.4050   29.5780   47.2410 C   0  0  0  0  0  0  0  0  0  0  0  0
   33.5150   30.4160   46.6960 N   0  0  0  0  0  0  0  0  0  0  0  0
   35.6490   30.0520   47.8250 C   0  0  0  0  0  0  0  0  0  0  0  0
   36.6500   30.6960   47.0950 C   0  0  0  0  0  0  0  0  0  0  0  0
   37.6710   31.0120   47.9060 N   0  0  0  0  0  0  0  0  0  0  0  0
   37.3580   30.5860   49.1620 C   0  0  0  0  0  0  0  0  0  0  0  0
   38.0620   30.6670   50.3480 C   0  0  0  0  0  0  0  0  0  0  0  0
   37.4780   30.1350   51.4920 C   0  0  0  0  0  0  0  0  0  0  0  0
   36.2370   29.5530   51.4110 C   0  0  0  0  0  0  0  0  0  0  0  0
   35.5090   29.4590   50.2270 C   0  0  0  0  0  0  0  0  0  0  0  0
   36.1110   29.9960   49.1030 C   0  0  0  0  0  0  0  0  0  0  0  0
   32.8060   26.2700   46.7860 C   0  0  0  0  0  0  0  0  0  0  0  0
   33.7400   25.4490   47.3560 C   0  0  0  0  0  0  0  0  0  0  0  0
   33.4630   24.1090   47.3610 C   0  0  0  0  0  0  0  0  0  0  0  0
   32.3130   23.6130   46.8240 N   0  0  0  0  0  0  0  0  0  0  0  0
   31.3960   24.4510   46.2600 C   0  0  0  0  0  0  0  0  0  0  0  0
   31.6880   25.7790   46.2640 N   0  0  0  0  0  0  0  0  0  0  0  0
   30.2290   23.8900   45.7220 N   0  0  0  0  0  0  0  0  0  0  0  0
   30.0030   22.5510   45.7100 C   0  0  0  0  0  0  0  0  0  0  0  0
   28.7630   22.3530   45.1080 C   0  0  0  0  0  0  0  0  0  0  0  0
   28.2750   23.5660   44.7730 N   0  0  0  0  0  0  0  0  0  0  0  0
   29.1800   24.5000   45.1520 C   0  0  0  0  0  0  0  0  0  0  0  0
   31.6402   30.6256   45.7166 H   0  0  0  0  0  0  0  0  0  0  0  0
   31.1626   28.1644   45.7409 H   0  0  0  0  0  0  0  0  0  0  0  0
   36.6078   30.9118   46.0172 H   0  0  0  0  0  0  0  0  0  0  0  0
   38.5388   31.4922   47.6281 H   0  0  0  0  0  0  0  0  0  0  0  0
   39.0551   31.1384   50.3860 H   0  0  0  0  0  0  0  0  0  0  0  0
   38.0066   30.1800   52.4556 H   0  0  0  0  0  0  0  0  0  0  0  0
   35.7945   29.1393   52.3291 H   0  0  0  0  0  0  0  0  0  0  0  0
   34.5163   28.9867   50.1881 H   0  0  0  0  0  0  0  0  0  0  0  0
   34.6693   25.8470   47.7896 H   0  0  0  0  0  0  0  0  0  0  0  0
   34.1876   23.4140   47.8103 H   0  0  0  0  0  0  0  0  0  0  0  0
   30.6724   21.7708   46.1015 H   0  0  0  0  0  0  0  0  0  0  0  0
   28.2708   21.3843   44.9367 H   0  0  0  0  0  0  0  0  0  0  0  0
   29.0715   25.5859   45.0141 H   0  0  0  0  0  0  0  0  0  0  0  0
  1  2  2  0
  1  6  1  0
  2  3  1  0
  3 16  1  0
  3  4  2  0
  5  4  1  0
  5  7  1  0
  6  5  2  0
  7 15  1  0
  8  7  2  0
  8  9  1  0
  9 10  1  0
 10 11  2  0
 11 12  1  0
 13 12  2  0
 14 13  1  0
 15 10  1  0
 15 14  2  0
 16 17  2  0
 17 18  1  0
 19 18  2  0
 20 21  2  0
 20 19  1  0
 21 16  1  0
 22 20  1  0
 23 22  1  0
 24 23  2  0
 25 24  1  0
 25 26  2  0
 26 22  1  0
  1 27  1  0
  2 28  1  0
  8 29  1  0
  9 30  1  0
 11 31  1  0
 12 32  1  0
 13 33  1  0
 14 34  1  0
 17 35  1  0
 18 36  1  0
 23 37  1  0
 24 38  1  0
 26 39  1  0
M  ISO  8  27  14  28  14  29  14  30   9  31  14  32  14  33  14  34  14
M  ISO  5  35  14  36  14  37  14  38  14  39  14
M  END
>  <minimizedAffinity>  (1) 
-6.42056227

>  <minimizedRMSD>  (1) 
0.150601521

$$$$
