
     RDKit          3D

 40 44  0  0  0  0  0  0  0  0999 V2000
   32.3250   29.8880   46.1720 C   0  0  0  0  0  0  0  0  0  0  0  0
   32.0680   28.5120   46.1830 C   0  0  0  0  0  0  0  0  0  0  0  0
   33.0360   27.6750   46.7520 C   0  0  0  0  0  0  0  0  0  0  0  0
   34.1630   28.2160   47.2600 N   0  0  0  0  0  0  0  0  0  0  0  0
   34.3820   29.5660   47.2320 C   0  0  0  0  0  0  0  0  0  0  0  0
   33.4730   30.3800   46.6950 N   0  0  0  0  0  0  0  0  0  0  0  0
   35.6240   30.0380   47.8040 C   0  0  0  0  0  0  0  0  0  0  0  0
   36.6250   30.6750   47.0810 C   0  0  0  0  0  0  0  0  0  0  0  0
   37.6510   30.9960   47.8780 N   0  0  0  0  0  0  0  0  0  0  0  0
   37.3450   30.5780   49.1270 C   0  0  0  0  0  0  0  0  0  0  0  0
   38.0480   30.6570   50.3240 C   0  0  0  0  0  0  0  0  0  0  0  0
   37.4560   30.1230   51.4720 C   0  0  0  0  0  0  0  0  0  0  0  0
   36.2170   29.5420   51.4080 C   0  0  0  0  0  0  0  0  0  0  0  0
   35.4870   29.4500   50.2180 C   0  0  0  0  0  0  0  0  0  0  0  0
   36.0960   29.9850   49.0970 C   0  0  0  0  0  0  0  0  0  0  0  0
   32.8030   26.2290   46.7840 C   0  0  0  0  0  0  0  0  0  0  0  0
   33.7330   25.4230   47.3910 C   0  0  0  0  0  0  0  0  0  0  0  0
   33.4510   24.0830   47.3830 C   0  0  0  0  0  0  0  0  0  0  0  0
   32.3230   23.5730   46.8120 N   0  0  0  0  0  0  0  0  0  0  0  0
   31.4330   24.4020   46.2220 C   0  0  0  0  0  0  0  0  0  0  0  0
   31.7090   25.7260   46.2290 N   0  0  0  0  0  0  0  0  0  0  0  0
   30.2220   23.8770   45.6060 C   0  0  0  0  0  0  0  0  0  0  0  0
   29.3450   24.7510   45.0060 C   0  0  0  0  0  0  0  0  0  0  0  0
   28.1940   24.2060   44.4250 C   0  0  0  0  0  0  0  0  0  0  0  0
   27.9960   22.8630   44.4780 N   0  0  0  0  0  0  0  0  0  0  0  0
   28.8750   22.0380   45.0740 C   0  0  0  0  0  0  0  0  0  0  0  0
   29.9970   22.5620   45.6400 N   0  0  0  0  0  0  0  0  0  0  0  0
   31.5871   30.5763   45.7342 H   0  0  0  0  0  0  0  0  0  0  0  0
   31.1388   28.1027   45.7598 H   0  0  0  0  0  0  0  0  0  0  0  0
   36.5803   30.8863   46.0024 H   0  0  0  0  0  0  0  0  0  0  0  0
   38.5169   31.4747   47.5918 H   0  0  0  0  0  0  0  0  0  0  0  0
   39.0419   31.1265   50.3663 H   0  0  0  0  0  0  0  0  0  0  0  0
   37.9885   30.1696   52.4334 H   0  0  0  0  0  0  0  0  0  0  0  0
   35.7784   29.1313   52.3294 H   0  0  0  0  0  0  0  0  0  0  0  0
   34.4923   28.9821   50.1764 H   0  0  0  0  0  0  0  0  0  0  0  0
   34.6455   25.8269   47.8538 H   0  0  0  0  0  0  0  0  0  0  0  0
   34.1629   23.3906   47.8561 H   0  0  0  0  0  0  0  0  0  0  0  0
   29.5403   25.8333   44.9838 H   0  0  0  0  0  0  0  0  0  0  0  0
   27.4582   24.8577   43.9311 H   0  0  0  0  0  0  0  0  0  0  0  0
   28.6900   20.9541   45.1038 H   0  0  0  0  0  0  0  0  0  0  0  0
  1  2  2  0
  1  6  1  0
  2  3  1  0
  3 16  1  0
  3  4  2  0
  5  4  1  0
  5  7  1  0
  6  5  2  0
  7 15  1  0
  8  7  2  0
  8  9  1  0
  9 10  1  0
 10 11  2  0
 11 12  1  0
 13 12  2  0
 14 13  1  0
 15 10  1  0
 15 14  2  0
 16 17  2  0
 18 17  1  0
 19 18  2  0
 20 21  2  0
 20 19  1  0
 21 16  1  0
 22 27  1  0
 22 20  1  0
 23 22  2  0
 24 25  2  0
 24 23  1  0
 25 26  1  0
 26 27  2  0
  1 28  1  0
  2 29  1  0
  8 30  1  0
  9 31  1  0
 11 32  1  0
 12 33  1  0
 13 34  1  0
 14 35  1  0
 17 36  1  0
 18 37  1  0
 23 38  1  0
 24 39  1  0
 26 40  1  0
M  ISO  8  28  14  29  14  30  14  31   9  32  14  33  14  34  14  35  14
M  ISO  5  36  14  37  14  38  14  39  14  40  14
M  END
>  <minimizedAffinity>  (1) 
-6.23421526

>  <minimizedRMSD>  (1) 
0.543792963

$$$$
