
     RDKit          3D

 39 43  0  0  0  0  0  0  0  0999 V2000
   32.2760   30.1460   46.0860 C   0  0  0  0  0  0  0  0  0  0  0  0
   31.8990   28.8000   46.0950 C   0  0  0  0  0  0  0  0  0  0  0  0
   32.7940   27.8830   46.6700 C   0  0  0  0  0  0  0  0  0  0  0  0
   33.9580   28.3280   47.1820 N   0  0  0  0  0  0  0  0  0  0  0  0
   34.2910   29.6490   47.1550 C   0  0  0  0  0  0  0  0  0  0  0  0
   33.4550   30.5430   46.6120 N   0  0  0  0  0  0  0  0  0  0  0  0
   35.5670   30.0260   47.7320 C   0  0  0  0  0  0  0  0  0  0  0  0
   36.6110   30.5730   47.0060 C   0  0  0  0  0  0  0  0  0  0  0  0
   37.6530   30.8130   47.8140 N   0  0  0  0  0  0  0  0  0  0  0  0
   37.3140   30.4350   49.0600 C   0  0  0  0  0  0  0  0  0  0  0  0
   38.0140   30.4690   50.2540 C   0  0  0  0  0  0  0  0  0  0  0  0
   37.3840   29.9970   51.4070 C   0  0  0  0  0  0  0  0  0  0  0  0
   36.0970   29.5140   51.3400 C   0  0  0  0  0  0  0  0  0  0  0  0
   35.3660   29.4680   50.1530 C   0  0  0  0  0  0  0  0  0  0  0  0
   36.0260   29.9460   49.0250 C   0  0  0  0  0  0  0  0  0  0  0  0
   32.4370   26.4690   46.6990 C   0  0  0  0  0  0  0  0  0  0  0  0
   33.1890   25.6160   47.4570 C   0  0  0  0  0  0  0  0  0  0  0  0
   32.8130   24.2830   47.4540 C   0  0  0  0  0  0  0  0  0  0  0  0
   31.7530   23.8490   46.7360 N   0  0  0  0  0  0  0  0  0  0  0  0
   31.0270   24.7240   45.9930 C   0  0  0  0  0  0  0  0  0  0  0  0
   31.3880   26.0320   45.9900 N   0  0  0  0  0  0  0  0  0  0  0  0
   29.9050   24.3720   45.2100 C   0  0  0  0  0  0  0  0  0  0  0  0
   29.3760   23.1260   45.4220 C   0  0  0  0  0  0  0  0  0  0  0  0
   28.3100   22.5330   44.8160 C   0  0  0  0  0  0  0  0  0  0  0  0
   27.7310   23.4810   43.8050 C   0  0  0  0  0  0  0  0  0  0  0  0
   28.8320   25.0510   43.9150 S   0  0  0  0  0  0  0  0  0  0  0  0
   31.6016   30.8939   45.6434 H   0  0  0  0  0  0  0  0  0  0  0  0
   30.9395   28.4720   45.6687 H   0  0  0  0  0  0  0  0  0  0  0  0
   36.5887   30.7800   45.9259 H   0  0  0  0  0  0  0  0  0  0  0  0
   38.5570   31.2170   47.5302 H   0  0  0  0  0  0  0  0  0  0  0  0
   39.0420   30.8586   50.2933 H   0  0  0  0  0  0  0  0  0  0  0  0
   37.9165   30.0112   52.3694 H   0  0  0  0  0  0  0  0  0  0  0  0
   35.6240   29.1481   52.2633 H   0  0  0  0  0  0  0  0  0  0  0  0
   34.3375   29.0802   50.1114 H   0  0  0  0  0  0  0  0  0  0  0  0
   34.0510   25.9708   48.0411 H   0  0  0  0  0  0  0  0  0  0  0  0
   33.3903   23.5606   48.0497 H   0  0  0  0  0  0  0  0  0  0  0  0
   29.8825   22.5205   46.1880 H   0  0  0  0  0  0  0  0  0  0  0  0
   27.9336   21.5223   45.0322 H   0  0  0  0  0  0  0  0  0  0  0  0
   26.8663   23.3130   43.1462 H   0  0  0  0  0  0  0  0  0  0  0  0
  1  2  2  0
  1  6  1  0
  2  3  1  0
  3 16  1  0
  3  4  2  0
  5  4  1  0
  5  7  1  0
  6  5  2  0
  7 15  1  0
  8  7  2  0
  8  9  1  0
  9 10  1  0
 10 11  2  0
 11 12  1  0
 13 12  2  0
 14 13  1  0
 15 10  1  0
 15 14  2  0
 16 17  2  0
 18 17  1  0
 19 18  2  0
 20 19  1  0
 21 20  2  0
 21 16  1  0
 22 23  2  0
 22 20  1  0
 24 23  1  0
 25 26  1  0
 25 24  2  0
 26 22  1  0
  1 27  1  0
  2 28  1  0
  8 29  1  0
  9 30  1  0
 11 31  1  0
 12 32  1  0
 13 33  1  0
 14 34  1  0
 17 35  1  0
 18 36  1  0
 23 37  1  0
 24 38  1  0
 25 39  1  0
M  ISO  8  27  14  28  14  29  14  30   9  31  14  32  14  33  14  34  14
M  ISO  5  35  14  36  14  37  14  38  14  39  14
M  END
>  <minimizedAffinity>  (1) 
-6.11330462

>  <minimizedRMSD>  (1) 
0.700987101

$$$$
