
     RDKit          3D

 33 36  0  0  0  0  0  0  0  0999 V2000
   32.3360   29.9460   46.1620 C   0  0  0  0  0  0  0  0  0  0  0  0
   32.0640   28.5820   46.1750 C   0  0  0  0  0  0  0  0  0  0  0  0
   33.0130   27.7270   46.7390 C   0  0  0  0  0  0  0  0  0  0  0  0
   34.1520   28.2530   47.2480 N   0  0  0  0  0  0  0  0  0  0  0  0
   34.4000   29.5860   47.2250 C   0  0  0  0  0  0  0  0  0  0  0  0
   33.4930   30.4280   46.6840 N   0  0  0  0  0  0  0  0  0  0  0  0
   35.6460   30.0540   47.7930 C   0  0  0  0  0  0  0  0  0  0  0  0
   36.6480   30.6800   47.0830 C   0  0  0  0  0  0  0  0  0  0  0  0
   37.6680   30.9900   47.8870 N   0  0  0  0  0  0  0  0  0  0  0  0
   37.3520   30.5730   49.1320 C   0  0  0  0  0  0  0  0  0  0  0  0
   38.0560   30.6490   50.3310 C   0  0  0  0  0  0  0  0  0  0  0  0
   37.4490   30.1150   51.4780 C   0  0  0  0  0  0  0  0  0  0  0  0
   36.2050   29.5420   51.4020 C   0  0  0  0  0  0  0  0  0  0  0  0
   35.4840   29.4580   50.2120 C   0  0  0  0  0  0  0  0  0  0  0  0
   36.1050   29.9920   49.0890 C   0  0  0  0  0  0  0  0  0  0  0  0
   32.7620   26.2940   46.7710 C   0  0  0  0  0  0  0  0  0  0  0  0
   33.6980   25.4650   47.3430 C   0  0  0  0  0  0  0  0  0  0  0  0
   33.4070   24.1210   47.3430 C   0  0  0  0  0  0  0  0  0  0  0  0
   32.2550   23.6290   46.8080 N   0  0  0  0  0  0  0  0  0  0  0  0
   31.3580   24.4760   46.2520 C   0  0  0  0  0  0  0  0  0  0  0  0
   31.6380   25.8120   46.2480 N   0  0  0  0  0  0  0  0  0  0  0  0
   29.8140   23.9710   45.5170 S   0  0  0  0  0  0  0  0  0  0  0  0
   31.6055   30.6420   45.7239 H   0  0  0  0  0  0  0  0  0  0  0  0
   31.1277   28.1880   45.7529 H   0  0  0  0  0  0  0  0  0  0  0  0
   36.6123   30.8943   46.0047 H   0  0  0  0  0  0  0  0  0  0  0  0
   38.5396   31.4625   47.6077 H   0  0  0  0  0  0  0  0  0  0  0  0
   39.0530   31.1114   50.3774 H   0  0  0  0  0  0  0  0  0  0  0  0
   37.9739   30.1561   52.4438 H   0  0  0  0  0  0  0  0  0  0  0  0
   35.7574   29.1314   52.3191 H   0  0  0  0  0  0  0  0  0  0  0  0
   34.4860   28.9979   50.1646 H   0  0  0  0  0  0  0  0  0  0  0  0
   34.6299   25.8560   47.7774 H   0  0  0  0  0  0  0  0  0  0  0  0
   34.1280   23.4205   47.7896 H   0  0  0  0  0  0  0  0  0  0  0  0
   28.9125   23.6761   46.5056 H   0  0  0  0  0  0  0  0  0  0  0  0
  1  2  2  0
  1  6  1  0
  2  3  1  0
  3 16  1  0
  3  4  2  0
  5  4  1  0
  5  7  1  0
  6  5  2  0
  7 15  1  0
  8  7  2  0
  8  9  1  0
  9 10  1  0
 10 11  2  0
 11 12  1  0
 13 12  2  0
 14 13  1  0
 15 10  1  0
 15 14  2  0
 16 17  2  0
 18 17  1  0
 19 18  2  0
 20 19  1  0
 21 20  2  0
 21 16  1  0
 22 20  1  0
  1 23  1  0
  2 24  1  0
  8 25  1  0
  9 26  1  0
 11 27  1  0
 12 28  1  0
 13 29  1  0
 14 30  1  0
 17 31  1  0
 18 32  1  0
 22 33  1  0
M  ISO  8  23  14  24  14  25  14  26   9  27  14  28  14  29  14  30  14
M  ISO  3  31  14  32  14  33  11
M  END
>  <minimizedAffinity>  (1) 
-5.88526773

>  <minimizedRMSD>  (1) 
0.0702803731

$$$$
