
     RDKit          3D

 38 41  0  0  0  0  0  0  0  0999 V2000
   32.3270   30.0950   46.0920 C   0  0  0  0  0  0  0  0  0  0  0  0
   31.9780   28.7360   46.1200 C   0  0  0  0  0  0  0  0  0  0  0  0
   32.8830   27.8440   46.7130 C   0  0  0  0  0  0  0  0  0  0  0  0
   34.0370   28.3270   47.2240 N   0  0  0  0  0  0  0  0  0  0  0  0
   34.3490   29.6480   47.1830 C   0  0  0  0  0  0  0  0  0  0  0  0
   33.4990   30.5140   46.6230 N   0  0  0  0  0  0  0  0  0  0  0  0
   35.6170   30.0520   47.7640 C   0  0  0  0  0  0  0  0  0  0  0  0
   36.6540   30.6280   47.0370 C   0  0  0  0  0  0  0  0  0  0  0  0
   37.6890   30.8890   47.8480 N   0  0  0  0  0  0  0  0  0  0  0  0
   37.3530   30.4940   49.0990 C   0  0  0  0  0  0  0  0  0  0  0  0
   38.0400   30.5320   50.2970 C   0  0  0  0  0  0  0  0  0  0  0  0
   37.4310   30.0460   51.4420 C   0  0  0  0  0  0  0  0  0  0  0  0
   36.1600   29.5380   51.3600 C   0  0  0  0  0  0  0  0  0  0  0  0
   35.4280   29.4820   50.1660 C   0  0  0  0  0  0  0  0  0  0  0  0
   36.0710   29.9740   49.0560 C   0  0  0  0  0  0  0  0  0  0  0  0
   32.5510   26.4320   46.7580 C   0  0  0  0  0  0  0  0  0  0  0  0
   33.4520   25.5600   47.3360 C   0  0  0  0  0  0  0  0  0  0  0  0
   33.0880   24.2310   47.3530 C   0  0  0  0  0  0  0  0  0  0  0  0
   31.9170   23.8050   46.8330 N   0  0  0  0  0  0  0  0  0  0  0  0
   31.0540   24.6850   46.2730 C   0  0  0  0  0  0  0  0  0  0  0  0
   31.4010   25.9920   46.2510 N   0  0  0  0  0  0  0  0  0  0  0  0
   29.7390   24.3100   45.6750 C   0  0  0  0  0  0  0  0  0  0  0  0
   28.6840   25.3210   46.0300 C   0  0  0  0  0  0  0  0  0  0  0  0
   31.6428   30.8250   45.6350 H   0  0  0  0  0  0  0  0  0  0  0  0
   31.0282   28.3830   45.6919 H   0  0  0  0  0  0  0  0  0  0  0  0
   36.6284   30.8380   45.9575 H   0  0  0  0  0  0  0  0  0  0  0  0
   38.5838   31.3156   47.5684 H   0  0  0  0  0  0  0  0  0  0  0  0
   39.0591   30.9436   50.3410 H   0  0  0  0  0  0  0  0  0  0  0  0
   37.9607   30.0673   52.4058 H   0  0  0  0  0  0  0  0  0  0  0  0
   35.6909   29.1548   52.2782 H   0  0  0  0  0  0  0  0  0  0  0  0
   34.4082   29.0721   50.1207 H   0  0  0  0  0  0  0  0  0  0  0  0
   34.4064   25.9065   47.7590 H   0  0  0  0  0  0  0  0  0  0  0  0
   33.7713   23.4959   47.8033 H   0  0  0  0  0  0  0  0  0  0  0  0
   29.4369   23.3239   46.0574 H   0  0  0  0  0  0  0  0  0  0  0  0
   29.8448   24.2799   44.5805 H   0  0  0  0  0  0  0  0  0  0  0  0
   28.6035   25.3981   47.1243 H   0  0  0  0  0  0  0  0  0  0  0  0
   28.9598   26.3007   45.6127 H   0  0  0  0  0  0  0  0  0  0  0  0
   27.7169   25.0038   45.6127 H   0  0  0  0  0  0  0  0  0  0  0  0
  1  2  2  0
  1  6  1  0
  2  3  1  0
  3 16  1  0
  3  4  2  0
  5  4  1  0
  5  7  1  0
  6  5  2  0
  7 15  1  0
  8  7  2  0
  8  9  1  0
  9 10  1  0
 10 11  2  0
 11 12  1  0
 13 12  2  0
 14 13  1  0
 15 10  1  0
 15 14  2  0
 16 17  2  0
 17 18  1  0
 19 18  2  0
 20 19  1  0
 21 20  2  0
 21 16  1  0
 22 23  1  0
 22 20  1  0
  1 24  1  0
  2 25  1  0
  8 26  1  0
  9 27  1  0
 11 28  1  0
 12 29  1  0
 13 30  1  0
 14 31  1  0
 17 32  1  0
 18 33  1  0
 22 34  1  0
 22 35  1  0
 23 36  1  0
 23 37  1  0
 23 38  1  0
M  ISO  8  24  14  25  14  26  14  27   9  28  14  29  14  30  14  31  14
M  ISO  7  32  14  33  14  34   8  35   8  36   8  37   8  38   8
M  END
>  <minimizedAffinity>  (1) 
-5.84732819

>  <minimizedRMSD>  (1) 
0.539849401

$$$$
