
     RDKit          3D

 34 37  0  0  0  0  0  0  0  0999 V2000
   32.3200   30.0880   46.0940 C   0  0  0  0  0  0  0  0  0  0  0  0
   31.9820   28.7300   46.1220 C   0  0  0  0  0  0  0  0  0  0  0  0
   32.8890   27.8360   46.7080 C   0  0  0  0  0  0  0  0  0  0  0  0
   34.0550   28.3060   47.2250 N   0  0  0  0  0  0  0  0  0  0  0  0
   34.3490   29.6400   47.1770 C   0  0  0  0  0  0  0  0  0  0  0  0
   33.5010   30.5090   46.6250 N   0  0  0  0  0  0  0  0  0  0  0  0
   35.6160   30.0530   47.7530 C   0  0  0  0  0  0  0  0  0  0  0  0
   36.6510   30.6350   47.0330 C   0  0  0  0  0  0  0  0  0  0  0  0
   37.6810   30.8980   47.8520 N   0  0  0  0  0  0  0  0  0  0  0  0
   37.3430   30.4980   49.1040 C   0  0  0  0  0  0  0  0  0  0  0  0
   38.0440   30.5470   50.2950 C   0  0  0  0  0  0  0  0  0  0  0  0
   37.4260   30.0520   51.4390 C   0  0  0  0  0  0  0  0  0  0  0  0
   36.1480   29.5320   51.3650 C   0  0  0  0  0  0  0  0  0  0  0  0
   35.4350   29.4800   50.1660 C   0  0  0  0  0  0  0  0  0  0  0  0
   36.0720   29.9790   49.0400 C   0  0  0  0  0  0  0  0  0  0  0  0
   32.5730   26.4200   46.7560 C   0  0  0  0  0  0  0  0  0  0  0  0
   33.4650   25.5520   47.3580 C   0  0  0  0  0  0  0  0  0  0  0  0
   33.0820   24.2320   47.3550 C   0  0  0  0  0  0  0  0  0  0  0  0
   31.9310   23.7860   46.8170 N   0  0  0  0  0  0  0  0  0  0  0  0
   31.0720   24.6790   46.2290 C   0  0  0  0  0  0  0  0  0  0  0  0
   31.4250   25.9860   46.2170 N   0  0  0  0  0  0  0  0  0  0  0  0
   29.8380   24.2180   45.6490 C   0  0  0  0  0  0  0  0  0  0  0  0
   28.6840   24.6510   45.9100 O   0  0  0  0  0  0  0  0  0  0  0  0
   31.6304   30.8163   45.6423 H   0  0  0  0  0  0  0  0  0  0  0  0
   31.0320   28.3745   45.6964 H   0  0  0  0  0  0  0  0  0  0  0  0
   36.6298   30.8483   45.9541 H   0  0  0  0  0  0  0  0  0  0  0  0
   38.5750   31.3296   47.5774 H   0  0  0  0  0  0  0  0  0  0  0  0
   39.0606   30.9651   50.3367 H   0  0  0  0  0  0  0  0  0  0  0  0
   37.9552   30.0746   52.4031 H   0  0  0  0  0  0  0  0  0  0  0  0
   35.6769   29.1463   52.2811 H   0  0  0  0  0  0  0  0  0  0  0  0
   34.4180   29.0637   50.1169 H   0  0  0  0  0  0  0  0  0  0  0  0
   34.4103   25.8923   47.8058 H   0  0  0  0  0  0  0  0  0  0  0  0
   33.7554   23.4966   47.8195 H   0  0  0  0  0  0  0  0  0  0  0  0
   29.9093   23.4097   44.9063 H   0  0  0  0  0  0  0  0  0  0  0  0
  1  2  2  0
  1  6  1  0
  2  3  1  0
  3 16  1  0
  3  4  2  0
  5  4  1  0
  5  7  1  0
  6  5  2  0
  7 15  1  0
  8  7  2  0
  8  9  1  0
  9 10  1  0
 10 11  2  0
 11 12  1  0
 13 12  2  0
 14 13  1  0
 15 10  1  0
 15 14  2  0
 16 17  2  0
 18 17  1  0
 19 18  2  0
 20 19  1  0
 21 20  2  0
 21 16  1  0
 22 23  2  0
 22 20  1  0
  1 24  1  0
  2 25  1  0
  8 26  1  0
  9 27  1  0
 11 28  1  0
 12 29  1  0
 13 30  1  0
 14 31  1  0
 17 32  1  0
 18 33  1  0
 22 34  1  0
M  ISO  8  24  14  25  14  26  14  27   9  28  14  29  14  30  14  31  14
M  ISO  3  32  14  33  14  34   6
M  END
>  <minimizedAffinity>  (1) 
-5.74551249

>  <minimizedRMSD>  (1) 
0.267402053

$$$$
