
     RDKit          3D

 28 31  0  0  0  0  0  0  0  0999 V2000
   35.0040   29.4270   48.5310 C   0  0  0  0  0  0  0  0  0  0  0  0
   34.5590   28.1910   49.0520 C   0  0  0  0  0  0  0  0  0  0  0  0
   33.4360   27.6630   48.4880 C   0  0  0  0  0  0  0  0  0  0  0  0
   32.8260   28.3240   47.4950 C   0  0  0  0  0  0  0  0  0  0  0  0
   33.7980   29.8040   47.2400 S   0  0  0  0  0  0  0  0  0  0  0  0
   31.6690   28.0160   46.7410 N   0  0  0  0  0  0  0  0  0  0  0  0
   31.6440   27.7760   45.4170 C   0  0  0  0  0  0  0  0  0  0  0  0
   30.3600   27.5180   45.0650 N   0  0  0  0  0  0  0  0  0  0  0  0
   29.6210   27.6070   46.1940 C   0  0  0  0  0  0  0  0  0  0  0  0
   28.2690   27.4280   46.3360 C   0  0  0  0  0  0  0  0  0  0  0  0
   27.7580   27.5740   47.5930 N   0  0  0  0  0  0  0  0  0  0  0  0
   28.5380   27.8770   48.6250 C   0  0  0  0  0  0  0  0  0  0  0  0
   29.8840   28.0580   48.4990 N   0  0  0  0  0  0  0  0  0  0  0  0
   30.4400   27.9240   47.2790 C   0  0  0  0  0  0  0  0  0  0  0  0
   37.7870   30.6450   50.6370 C   0  0  0  0  0  0  0  0  0  0  0  0
   38.3970   31.5830   49.7890 C   0  0  0  0  0  0  0  0  0  0  0  0
   37.8440   31.7850   48.5090 C   0  0  0  0  0  0  0  0  0  0  0  0
   36.7380   31.0650   48.1380 N   0  0  0  0  0  0  0  0  0  0  0  0
   36.1870   30.1740   48.9850 C   0  0  0  0  0  0  0  0  0  0  0  0
   36.7020   29.9670   50.2160 N   0  0  0  0  0  0  0  0  0  0  0  0
   35.0907   27.6820   49.8694 H   0  0  0  0  0  0  0  0  0  0  0  0
   33.0343   26.7031   48.8448 H   0  0  0  0  0  0  0  0  0  0  0  0
   32.5112   27.7871   44.7404 H   0  0  0  0  0  0  0  0  0  0  0  0
   27.6272   27.1787   45.4781 H   0  0  0  0  0  0  0  0  0  0  0  0
   28.0806   27.9861   49.6194 H   0  0  0  0  0  0  0  0  0  0  0  0
   38.1942   30.4642   51.6428 H   0  0  0  0  0  0  0  0  0  0  0  0
   39.2839   32.1458   50.1156 H   0  0  0  0  0  0  0  0  0  0  0  0
   38.2940   32.5112   47.8161 H   0  0  0  0  0  0  0  0  0  0  0  0
  1 19  1  0
  1  2  2  0
  3  2  1  0
  4  3  2  0
  5  4  1  0
  5  1  1  0
  6 14  1  0
  6  4  1  0
  7  6  1  0
  8  7  2  0
  8  9  1  0
  9 10  2  0
  9 14  1  0
 10 11  1  0
 11 12  2  0
 13 12  1  0
 14 13  2  0
 16 15  2  0
 17 16  1  0
 18 17  2  0
 18 19  1  0
 19 20  2  0
 20 15  1  0
  2 21  1  0
  3 22  1  0
  7 23  1  0
 10 24  1  0
 12 25  1  0
 15 26  1  0
 16 27  1  0
 17 28  1  0
M  ISO  8  21  14  22  14  23  14  24  14  25  14  26  14  27  14  28  14
M  END
>  <minimizedAffinity>  (1) 
-5.09796429

>  <minimizedRMSD>  (1) 
1.112782

$$$$
