
     RDKit          3D

 33 35  0  0  0  0  0  0  0  0999 V2000
   35.3520   29.6370   48.5750 C   0  0  0  0  0  0  0  0  0  0  0  0
   34.9790   28.4860   49.3130 C   0  0  0  0  0  0  0  0  0  0  0  0
   33.8420   27.8550   48.9050 C   0  0  0  0  0  0  0  0  0  0  0  0
   33.1480   28.3320   47.8630 C   0  0  0  0  0  0  0  0  0  0  0  0
   34.0670   29.7930   47.3130 S   0  0  0  0  0  0  0  0  0  0  0  0
   38.2460   31.1960   50.2540 C   0  0  0  0  0  0  0  0  0  0  0  0
   38.7310   32.0650   49.2360 C   0  0  0  0  0  0  0  0  0  0  0  0
   38.0570   32.0950   48.0010 C   0  0  0  0  0  0  0  0  0  0  0  0
   36.9790   31.2840   47.8670 N   0  0  0  0  0  0  0  0  0  0  0  0
   36.5400   30.4760   48.8370 C   0  0  0  0  0  0  0  0  0  0  0  0
   37.1550   30.4180   50.0290 N   0  0  0  0  0  0  0  0  0  0  0  0
   31.9080   27.8550   47.2240 C   0  0  0  0  0  0  0  0  0  0  0  0
   31.2190   28.9610   46.4520 C   0  0  0  0  0  0  0  0  0  0  0  0
   30.1290   28.3070   45.6480 C   0  0  0  0  0  0  0  0  0  0  0  0
   29.1470   27.5600   46.5070 C   0  0  0  0  0  0  0  0  0  0  0  0
   29.7470   26.7630   47.6110 C   0  0  0  0  0  0  0  0  0  0  0  0
   30.9560   27.3560   48.2580 C   0  0  0  0  0  0  0  0  0  0  0  0
   35.5724   28.1232   50.1652 H   0  0  0  0  0  0  0  0  0  0  0  0
   33.4941   26.9539   49.4313 H   0  0  0  0  0  0  0  0  0  0  0  0
   38.7569   31.1542   51.2273 H   0  0  0  0  0  0  0  0  0  0  0  0
   39.6129   32.6988   49.4109 H   0  0  0  0  0  0  0  0  0  0  0  0
   38.3902   32.7477   47.1806 H   0  0  0  0  0  0  0  0  0  0  0  0
   32.1908   27.0482   46.5319 H   0  0  0  0  0  0  0  0  0  0  0  0
   30.7889   29.6978   47.1463 H   0  0  0  0  0  0  0  0  0  0  0  0
   31.9285   29.4927   45.8009 H   0  0  0  0  0  0  0  0  0  0  0  0
   29.5881   29.0849   45.0892 H   0  0  0  0  0  0  0  0  0  0  0  0
   30.6032   27.5790   44.9733 H   0  0  0  0  0  0  0  0  0  0  0  0
   28.4583   28.2931   46.9522 H   0  0  0  0  0  0  0  0  0  0  0  0
   28.6509   26.8363   45.8436 H   0  0  0  0  0  0  0  0  0  0  0  0
   28.9793   26.6306   48.3876 H   0  0  0  0  0  0  0  0  0  0  0  0
   30.0850   25.8226   47.1512 H   0  0  0  0  0  0  0  0  0  0  0  0
   31.4538   26.5880   48.8683 H   0  0  0  0  0  0  0  0  0  0  0  0
   30.6438   28.1992   48.8917 H   0  0  0  0  0  0  0  0  0  0  0  0
  1 10  1  0
  1  2  2  0
  3  2  1  0
  4  3  2  0
  5  4  1  0
  5  1  1  0
  7  6  2  0
  8  7  1  0
  9  8  2  0
  9 10  1  0
 10 11  2  0
 11  6  1  0
 12  4  1  0
 12 17  1  0
 13 12  1  0
 14 13  1  0
 14 15  1  0
 15 16  1  0
 16 17  1  0
  2 18  1  0
  3 19  1  0
  6 20  1  0
  7 21  1  0
  8 22  1  0
 12 23  1  0
 13 24  1  0
 13 25  1  0
 14 26  1  0
 14 27  1  0
 15 28  1  0
 15 29  1  0
 16 30  1  0
 16 31  1  0
 17 32  1  0
 17 33  1  0
M  ISO  8  18  14  19  14  20  14  21  14  22  14  23  13  24  13  25  13
M  ISO  8  26  13  27  13  28  13  29  13  30  13  31  13  32  13  33  13
M  END
>  <minimizedAffinity>  (1) 
-4.69764376

>  <minimizedRMSD>  (1) 
1.13689613

$$$$
