
     RDKit          3D

 17 18  0  0  0  0  0  0  0  0999 V2000
   37.4030   30.2710   51.3830 C   0  0  0  0  0  0  0  0  0  0  0  0
   38.0820   30.9260   50.3400 C   0  0  0  0  0  0  0  0  0  0  0  0
   37.7230   30.6150   49.0290 C   0  0  0  0  0  0  0  0  0  0  0  0
   36.7420   29.7020   48.8300 N   0  0  0  0  0  0  0  0  0  0  0  0
   36.1030   29.0840   49.8580 C   0  0  0  0  0  0  0  0  0  0  0  0
   36.4370   29.3740   51.1410 N   0  0  0  0  0  0  0  0  0  0  0  0
   38.3720   31.2440   47.9270 N   0  0  0  0  0  0  0  0  0  0  0  0
   38.5280   30.6940   46.7190 C   0  0  0  0  0  0  0  0  0  0  0  0
   39.2040   31.6380   45.9630 C   0  0  0  0  0  0  0  0  0  0  0  0
   39.4390   32.7270   46.7280 N   0  0  0  0  0  0  0  0  0  0  0  0
   38.9130   32.4690   47.9580 C   0  0  0  0  0  0  0  0  0  0  0  0
   37.6718   30.5009   52.4246 H   0  0  0  0  0  0  0  0  0  0  0  0
   38.8722   31.6613   50.5520 H   0  0  0  0  0  0  0  0  0  0  0  0
   35.3133   28.3471   49.6497 H   0  0  0  0  0  0  0  0  0  0  0  0
   38.1901   29.6992   46.3929 H   0  0  0  0  0  0  0  0  0  0  0  0
   39.5013   31.5202   44.9105 H   0  0  0  0  0  0  0  0  0  0  0  0
   38.9296   33.1471   48.8239 H   0  0  0  0  0  0  0  0  0  0  0  0
  2  1  2  0
  3  2  1  0
  4  3  2  0
  4  5  1  0
  5  6  2  0
  6  1  1  0
  7 11  1  0
  7  3  1  0
  8  7  1  0
  9  8  2  0
  9 10  1  0
 10 11  2  0
  1 12  1  0
  2 13  1  0
  5 14  1  0
  8 15  1  0
  9 16  1  0
 11 17  1  0
M  ISO  6  12  14  13  14  14  14  15  14  16  14  17  14
M  END
>  <minimizedAffinity>  (1) 
-4.47326469

>  <minimizedRMSD>  (1) 
0.335606486

$$$$
