
     RDKit          3D

 27 29  0  0  0  0  0  0  0  0999 V2000
   35.0140   29.4120   48.6170 C   0  0  0  0  0  0  0  0  0  0  0  0
   34.4880   28.2020   49.1260 C   0  0  0  0  0  0  0  0  0  0  0  0
   33.3650   27.7270   48.5210 C   0  0  0  0  0  0  0  0  0  0  0  0
   32.8260   28.4100   47.5000 C   0  0  0  0  0  0  0  0  0  0  0  0
   33.8890   29.8520   47.2790 S   0  0  0  0  0  0  0  0  0  0  0  0
   37.7160   30.5610   50.8530 C   0  0  0  0  0  0  0  0  0  0  0  0
   38.4520   31.4280   49.9980 C   0  0  0  0  0  0  0  0  0  0  0  0
   38.0020   31.5970   48.6790 C   0  0  0  0  0  0  0  0  0  0  0  0
   36.8850   30.9230   48.2820 N   0  0  0  0  0  0  0  0  0  0  0  0
   36.2190   30.1150   49.1140 C   0  0  0  0  0  0  0  0  0  0  0  0
   36.6090   29.9150   50.3970 N   0  0  0  0  0  0  0  0  0  0  0  0
   31.6480   28.1300   46.6940 C   0  0  0  0  0  0  0  0  0  0  0  0
   31.1810   26.8330   46.6480 C   0  0  0  0  0  0  0  0  0  0  0  0
   30.0530   26.5340   45.8810 C   0  0  0  0  0  0  0  0  0  0  0  0
   29.4790   27.5940   45.2110 C   0  0  0  0  0  0  0  0  0  0  0  0
   29.9190   28.9010   45.2340 C   0  0  0  0  0  0  0  0  0  0  0  0
   31.0480   29.1620   46.0100 C   0  0  0  0  0  0  0  0  0  0  0  0
   34.9612   27.6728   49.9662 H   0  0  0  0  0  0  0  0  0  0  0  0
   32.9031   26.7904   48.8666 H   0  0  0  0  0  0  0  0  0  0  0  0
   38.0450   30.4117   51.8920 H   0  0  0  0  0  0  0  0  0  0  0  0
   39.3490   31.9515   50.3605 H   0  0  0  0  0  0  0  0  0  0  0  0
   38.5380   32.2578   47.9819 H   0  0  0  0  0  0  0  0  0  0  0  0
   31.6936   26.0396   47.2116 H   0  0  0  0  0  0  0  0  0  0  0  0
   29.6466   25.5140   45.8152 H   0  0  0  0  0  0  0  0  0  0  0  0
   28.5887   27.3772   44.6025 H   0  0  0  0  0  0  0  0  0  0  0  0
   29.4069   29.6949   44.6705 H   0  0  0  0  0  0  0  0  0  0  0  0
   31.4545   30.1821   46.0745 H   0  0  0  0  0  0  0  0  0  0  0  0
  1 10  1  0
  1  2  2  0
  3  2  1  0
  4  3  2  0
  5  4  1  0
  5  1  1  0
  7  6  2  0
  8  7  1  0
  9  8  2  0
  9 10  1  0
 10 11  2  0
 11  6  1  0
 12  4  1  0
 13 12  2  0
 14 13  1  0
 15 16  1  0
 15 14  2  0
 16 17  2  0
 17 12  1  0
  2 18  1  0
  3 19  1  0
  6 20  1  0
  7 21  1  0
  8 22  1  0
 13 23  1  0
 14 24  1  0
 15 25  1  0
 16 26  1  0
 17 27  1  0
M  ISO  8  18  14  19  14  20  14  21  14  22  14  23  14  24  14  25  14
M  ISO  2  26  14  27  14
M  END
>  <minimizedAffinity>  (1) 
-4.42972231

>  <minimizedRMSD>  (1) 
0.472909659

$$$$
