
     RDKit          3D

 20 21  0  0  0  0  0  0  0  0999 V2000
   34.9400   29.3360   48.7040 C   0  0  0  0  0  0  0  0  0  0  0  0
   34.3680   28.1100   49.0940 C   0  0  0  0  0  0  0  0  0  0  0  0
   33.2480   27.7210   48.4240 C   0  0  0  0  0  0  0  0  0  0  0  0
   32.7540   28.4990   47.4530 C   0  0  0  0  0  0  0  0  0  0  0  0
   33.8500   29.9040   47.3800 S   0  0  0  0  0  0  0  0  0  0  0  0
   37.5250   30.3620   51.1380 C   0  0  0  0  0  0  0  0  0  0  0  0
   38.4030   31.0910   50.3250 C   0  0  0  0  0  0  0  0  0  0  0  0
   38.1030   31.2250   48.9530 C   0  0  0  0  0  0  0  0  0  0  0  0
   36.9650   30.6410   48.4600 N   0  0  0  0  0  0  0  0  0  0  0  0
   36.1460   29.9450   49.2860 C   0  0  0  0  0  0  0  0  0  0  0  0
   36.4210   29.8090   50.6010 N   0  0  0  0  0  0  0  0  0  0  0  0
   31.6100   28.3800   46.5710 C   0  0  0  0  0  0  0  0  0  0  0  0
   31.5490   27.4590   45.7300 O   0  0  0  0  0  0  0  0  0  0  0  0
   30.6010   29.3220   46.7010 O   0  0  0  0  0  0  0  0  0  0  0  0
   34.8031   27.4982   49.8980 H   0  0  0  0  0  0  0  0  0  0  0  0
   32.7521   26.7729   48.6792 H   0  0  0  0  0  0  0  0  0  0  0  0
   37.7368   30.2419   52.2107 H   0  0  0  0  0  0  0  0  0  0  0  0
   39.3086   31.5499   50.7483 H   0  0  0  0  0  0  0  0  0  0  0  0
   38.7728   31.7901   48.2882 H   0  0  0  0  0  0  0  0  0  0  0  0
   29.8026   29.2759   46.1175 H   0  0  0  0  0  0  0  0  0  0  0  0
  1  2  2  0
  1 10  1  0
  3  2  1  0
  4  3  2  0
  5  4  1  0
  5  1  1  0
  7  6  2  0
  8  7  1  0
  9  8  2  0
  9 10  1  0
 10 11  2  0
 11  6  1  0
 12 14  1  0
 12  4  1  0
 13 12  2  0
  2 15  1  0
  3 16  1  0
  6 17  1  0
  7 18  1  0
  8 19  1  0
 14 20  1  0
M  ISO  6  15  14  16  14  17  14  18  14  19  14  20   3
M  END
>  <minimizedAffinity>  (1) 
-4.28069353

>  <minimizedRMSD>  (1) 
0.497727722

$$$$
