
     RDKit          3D

 20 21  0  0  0  0  0  0  0  0999 V2000
   34.9370   29.3340   48.6650 C   0  0  0  0  0  0  0  0  0  0  0  0
   34.3060   28.1480   49.1200 C   0  0  0  0  0  0  0  0  0  0  0  0
   33.2090   27.7390   48.4220 C   0  0  0  0  0  0  0  0  0  0  0  0
   32.7900   28.4550   47.3700 C   0  0  0  0  0  0  0  0  0  0  0  0
   33.9430   29.8270   47.2540 S   0  0  0  0  0  0  0  0  0  0  0  0
   37.4900   30.3420   51.1420 C   0  0  0  0  0  0  0  0  0  0  0  0
   38.3850   31.0950   50.3330 C   0  0  0  0  0  0  0  0  0  0  0  0
   38.0870   31.2330   48.9790 C   0  0  0  0  0  0  0  0  0  0  0  0
   36.9580   30.6460   48.4760 N   0  0  0  0  0  0  0  0  0  0  0  0
   36.1380   29.9390   49.2850 C   0  0  0  0  0  0  0  0  0  0  0  0
   36.3790   29.7740   50.6090 N   0  0  0  0  0  0  0  0  0  0  0  0
   31.6550   28.2590   46.4440 C   0  0  0  0  0  0  0  0  0  0  0  0
   31.2310   26.9310   46.4700 F   0  0  0  0  0  0  0  0  0  0  0  0
   30.5910   29.0760   46.8460 F   0  0  0  0  0  0  0  0  0  0  0  0
   32.0850   28.5990   45.1740 F   0  0  0  0  0  0  0  0  0  0  0  0
   34.6817   27.5884   49.9893 H   0  0  0  0  0  0  0  0  0  0  0  0
   32.6712   26.8270   48.7205 H   0  0  0  0  0  0  0  0  0  0  0  0
   37.7013   30.2184   52.2144 H   0  0  0  0  0  0  0  0  0  0  0  0
   39.2865   31.5552   50.7638 H   0  0  0  0  0  0  0  0  0  0  0  0
   38.7535   31.8088   48.3201 H   0  0  0  0  0  0  0  0  0  0  0  0
  1  2  2  0
  1 10  1  0
  3  2  1  0
  4  3  2  0
  5  4  1  0
  5  1  1  0
  7  6  2  0
  8  7  1  0
  9  8  2  0
  9 10  1  0
 10 11  2  0
 11  6  1  0
 12 13  1  0
 12 14  1  0
 12  4  1  0
 15 12  1  0
  2 16  1  0
  3 17  1  0
  6 18  1  0
  7 19  1  0
  8 20  1  0
M  ISO  5  16  14  17  14  18  14  19  14  20  14
M  END
>  <minimizedAffinity>  (1) 
-4.26302099

>  <minimizedRMSD>  (1) 
0.227829725

$$$$
