
     RDKit          3D

 18 19  0  0  0  0  0  0  0  0999 V2000
   37.4520   30.3310   51.1020 C   0  0  0  0  0  0  0  0  0  0  0  0
   38.3400   31.0990   50.3090 C   0  0  0  0  0  0  0  0  0  0  0  0
   38.0620   31.2110   48.9470 C   0  0  0  0  0  0  0  0  0  0  0  0
   36.9580   30.5820   48.4450 N   0  0  0  0  0  0  0  0  0  0  0  0
   36.1420   29.8650   49.2240 C   0  0  0  0  0  0  0  0  0  0  0  0
   36.3610   29.7210   50.5550 N   0  0  0  0  0  0  0  0  0  0  0  0
   34.9650   29.2070   48.6180 C   0  0  0  0  0  0  0  0  0  0  0  0
   34.3840   27.9850   49.0170 C   0  0  0  0  0  0  0  0  0  0  0  0
   33.2980   27.5710   48.3070 C   0  0  0  0  0  0  0  0  0  0  0  0
   32.8450   28.3200   47.2920 C   0  0  0  0  0  0  0  0  0  0  0  0
   33.9370   29.7330   47.2290 S   0  0  0  0  0  0  0  0  0  0  0  0
   31.4690   28.0630   46.1840 S   0  0  0  0  0  0  0  0  0  0  0  0
   37.6459   30.2244   52.1795 H   0  0  0  0  0  0  0  0  0  0  0  0
   39.2187   31.5902   50.7524 H   0  0  0  0  0  0  0  0  0  0  0  0
   38.7205   31.7959   48.2880 H   0  0  0  0  0  0  0  0  0  0  0  0
   34.7863   27.3983   49.8561 H   0  0  0  0  0  0  0  0  0  0  0  0
   32.7954   26.6272   48.5651 H   0  0  0  0  0  0  0  0  0  0  0  0
   30.3290   27.8501   46.9133 H   0  0  0  0  0  0  0  0  0  0  0  0
  2  1  2  0
  3  2  1  0
  4  3  2  0
  4  5  1  0
  5  6  2  0
  6  1  1  0
  7  8  2  0
  7  5  1  0
  9  8  1  0
 10  9  2  0
 11 10  1  0
 11  7  1  0
 12 10  1  0
  1 13  1  0
  2 14  1  0
  3 15  1  0
  8 16  1  0
  9 17  1  0
 12 18  1  0
M  ISO  6  13  14  14  14  15  14  16  14  17  14  18  11
M  END
>  <minimizedAffinity>  (1) 
-4.09486914

>  <minimizedRMSD>  (1) 
0.0653765723

$$$$
