
     RDKit          3D

 19 20  0  0  0  0  0  0  0  0999 V2000
   34.9650   29.2080   48.5950 C   0  0  0  0  0  0  0  0  0  0  0  0
   34.3910   27.9840   49.0080 C   0  0  0  0  0  0  0  0  0  0  0  0
   33.3050   27.5390   48.3180 C   0  0  0  0  0  0  0  0  0  0  0  0
   32.8510   28.2810   47.2980 C   0  0  0  0  0  0  0  0  0  0  0  0
   33.9400   29.7230   47.2070 S   0  0  0  0  0  0  0  0  0  0  0  0
   37.4450   30.3320   51.0970 C   0  0  0  0  0  0  0  0  0  0  0  0
   38.3320   31.0900   50.3140 C   0  0  0  0  0  0  0  0  0  0  0  0
   38.0620   31.2040   48.9350 C   0  0  0  0  0  0  0  0  0  0  0  0
   36.9630   30.5780   48.4300 N   0  0  0  0  0  0  0  0  0  0  0  0
   36.1400   29.8650   49.2040 C   0  0  0  0  0  0  0  0  0  0  0  0
   36.3710   29.7350   50.5340 N   0  0  0  0  0  0  0  0  0  0  0  0
   31.7200   28.0180   46.4210 N   0  0  0  0  0  0  0  0  0  0  0  0
   34.8051   27.4141   49.8528 H   0  0  0  0  0  0  0  0  0  0  0  0
   32.8123   26.5941   48.5907 H   0  0  0  0  0  0  0  0  0  0  0  0
   37.6261   30.2236   52.1766 H   0  0  0  0  0  0  0  0  0  0  0  0
   39.2092   31.5789   50.7628 H   0  0  0  0  0  0  0  0  0  0  0  0
   38.7259   31.7871   48.2798 H   0  0  0  0  0  0  0  0  0  0  0  0
   31.4844   28.6833   45.6708 H   0  0  0  0  0  0  0  0  0  0  0  0
   31.1550   27.1665   46.5504 H   0  0  0  0  0  0  0  0  0  0  0  0
  1  2  2  0
  1 10  1  0
  3  2  1  0
  4  3  2  0
  5  4  1  0
  5  1  1  0
  7  6  2  0
  8  7  1  0
  9  8  2  0
  9 10  1  0
 10 11  2  0
 11  6  1  0
 12  4  1  0
  2 13  1  0
  3 14  1  0
  6 15  1  0
  7 16  1  0
  8 17  1  0
 12 18  1  0
 12 19  1  0
M  ISO  5  13  14  14  14  15  14  16  14  17  14
M  END
>  <minimizedAffinity>  (1) 
-4.0944109

>  <minimizedRMSD>  (1) 
0.0495153144

$$$$
