
     RDKit          3D

 19 20  0  0  0  0  0  0  0  0999 V2000
   34.9430   29.3150   48.6710 C   0  0  0  0  0  0  0  0  0  0  0  0
   34.3050   28.1340   49.1200 C   0  0  0  0  0  0  0  0  0  0  0  0
   33.2060   27.7260   48.4330 C   0  0  0  0  0  0  0  0  0  0  0  0
   32.7800   28.4410   47.3820 C   0  0  0  0  0  0  0  0  0  0  0  0
   33.9320   29.8080   47.2580 S   0  0  0  0  0  0  0  0  0  0  0  0
   37.4920   30.3570   51.1210 C   0  0  0  0  0  0  0  0  0  0  0  0
   38.3840   31.1090   50.3110 C   0  0  0  0  0  0  0  0  0  0  0  0
   38.0830   31.2380   48.9410 C   0  0  0  0  0  0  0  0  0  0  0  0
   36.9540   30.6330   48.4710 N   0  0  0  0  0  0  0  0  0  0  0  0
   36.1420   29.9330   49.2690 C   0  0  0  0  0  0  0  0  0  0  0  0
   36.3760   29.7730   50.5930 N   0  0  0  0  0  0  0  0  0  0  0  0
   31.6770   28.2830   46.4660 C   0  0  0  0  0  0  0  0  0  0  0  0
   30.6530   29.0300   46.6010 O   0  0  0  0  0  0  0  0  0  0  0  0
   34.6822   27.5714   49.9867 H   0  0  0  0  0  0  0  0  0  0  0  0
   32.6694   26.8152   48.7371 H   0  0  0  0  0  0  0  0  0  0  0  0
   37.7041   30.2427   52.1943 H   0  0  0  0  0  0  0  0  0  0  0  0
   39.2824   31.5764   50.7404 H   0  0  0  0  0  0  0  0  0  0  0  0
   38.7396   31.8103   48.2691 H   0  0  0  0  0  0  0  0  0  0  0  0
   31.7188   27.5307   45.6646 H   0  0  0  0  0  0  0  0  0  0  0  0
  1  2  2  0
  1 10  1  0
  3  2  1  0
  4  3  2  0
  5  4  1  0
  5  1  1  0
  7  6  2  0
  8  7  1  0
  9  8  2  0
  9 10  1  0
 10 11  2  0
 11  6  1  0
 12 13  2  0
 12  4  1  0
  2 14  1  0
  3 15  1  0
  6 16  1  0
  7 17  1  0
  8 18  1  0
 12 19  1  0
M  ISO  6  14  14  15  14  16  14  17  14  18  14  19   6
M  END
>  <minimizedAffinity>  (1) 
-4.06802702

>  <minimizedRMSD>  (1) 
0.213747591

$$$$
