
     RDKit          3D

 40 43  0  0  1  0  0  0  0  0999 V2000
   32.3910   27.9270   47.4760 C   0  0  2  0  0  0  0  0  0  0  0  0
   35.7420   30.1200   48.3680 C   0  0  0  0  0  0  0  0  0  0  0  0
   35.5740   29.0040   49.1920 C   0  0  0  0  0  0  0  0  0  0  0  0
   34.4820   28.2260   48.9550 C   0  0  0  0  0  0  0  0  0  0  0  0
   33.6430   28.5740   47.9580 C   0  0  0  0  0  0  0  0  0  0  0  0
   34.3270   30.0780   47.2300 S   0  0  0  0  0  0  0  0  0  0  0  0
   37.9370   32.8230   49.5740 C   0  0  0  0  0  0  0  0  0  0  0  0
   38.8670   32.9420   48.5160 C   0  0  0  0  0  0  0  0  0  0  0  0
   38.7330   32.1080   47.4220 C   0  0  0  0  0  0  0  0  0  0  0  0
   37.7130   31.2120   47.4120 N   0  0  0  0  0  0  0  0  0  0  0  0
   36.8430   31.1180   48.4250 C   0  0  0  0  0  0  0  0  0  0  0  0
   36.9240   31.9140   49.5330 N   0  0  0  0  0  0  0  0  0  0  0  0
   31.7560   28.8410   46.4730 C   0  0  0  0  0  0  0  0  0  0  0  0
   31.5050   27.6310   48.6520 C   0  0  0  0  0  0  0  0  0  0  0  0
   30.1790   27.2020   48.1860 C   0  0  0  0  0  0  0  0  0  0  0  0
   29.7610   26.3020   47.2400 C   0  0  0  0  0  0  0  0  0  0  0  0
   28.4120   26.3020   47.2240 N   0  0  0  0  0  0  0  0  0  0  0  0
   27.9440   27.1760   48.1330 C   0  0  0  0  0  0  0  0  0  0  0  0
   26.6570   27.5280   48.4850 C   0  0  0  0  0  0  0  0  0  0  0  0
   26.3930   28.4660   49.4630 C   0  0  0  0  0  0  0  0  0  0  0  0
   27.4880   29.0560   50.0940 C   0  0  0  0  0  0  0  0  0  0  0  0
   28.7620   28.6830   49.7210 C   0  0  0  0  0  0  0  0  0  0  0  0
   29.0390   27.7480   48.7450 C   0  0  0  0  0  0  0  0  0  0  0  0
   32.5876   26.9652   46.9798 H   0  0  0  0  0  0  0  0  0  0  0  0
   36.2891   28.7656   49.9931 H   0  0  0  0  0  0  0  0  0  0  0  0
   34.2879   27.3312   49.5647 H   0  0  0  0  0  0  0  0  0  0  0  0
   38.0339   33.4801   50.4508 H   0  0  0  0  0  0  0  0  0  0  0  0
   39.6795   33.6821   48.5624 H   0  0  0  0  0  0  0  0  0  0  0  0
   39.4367   32.1688   46.5787 H   0  0  0  0  0  0  0  0  0  0  0  0
   31.2045   29.6349   46.9979 H   0  0  0  0  0  0  0  0  0  0  0  0
   32.5363   29.2920   45.8423 H   0  0  0  0  0  0  0  0  0  0  0  0
   31.0611   28.2671   45.8423 H   0  0  0  0  0  0  0  0  0  0  0  0
   31.9561   26.8295   49.2555 H   0  0  0  0  0  0  0  0  0  0  0  0
   31.3971   28.5405   49.2612 H   0  0  0  0  0  0  0  0  0  0  0  0
   30.4133   25.6859   46.6036 H   0  0  0  0  0  0  0  0  0  0  0  0
   27.8275   25.7195   46.6076 H   0  0  0  0  0  0  0  0  0  0  0  0
   25.8137   27.0454   47.9694 H   0  0  0  0  0  0  0  0  0  0  0  0
   25.3617   28.7368   49.7334 H   0  0  0  0  0  0  0  0  0  0  0  0
   27.3370   29.8103   50.8803 H   0  0  0  0  0  0  0  0  0  0  0  0
   29.6102   29.1606   50.2334 H   0  0  0  0  0  0  0  0  0  0  0  0
  1  5  1  0
  1 14  1  0
  2 11  1  0
  2  3  2  0
  4  3  1  0
  5  4  2  0
  6  5  1  0
  6  2  1  0
  8  7  2  0
  9  8  1  0
 10  9  2  0
 10 11  1  0
 11 12  2  0
 12  7  1  0
 13  1  1  0
 15 14  1  0
 15 23  1  0
 16 15  2  0
 17 16  1  0
 17 18  1  0
 18 19  2  0
 18 23  1  0
 19 20  1  0
 20 21  2  0
 22 21  1  0
 23 22  2  0
  1 24  1  6
  3 25  1  0
  4 26  1  0
  7 27  1  0
  8 28  1  0
  9 29  1  0
 13 30  1  0
 13 31  1  0
 13 32  1  0
 14 33  1  0
 14 34  1  0
 16 35  1  0
 17 36  1  0
 19 37  1  0
 20 38  1  0
 21 39  1  0
 22 40  1  0
M  ISO  8  24   8  25  14  26  14  27  14  28  14  29  14  30   8  31   8
M  ISO  8  32   8  33   8  34   8  35  14  36   9  37  14  38  14  39  14
M  ISO  1  40  14
M  END
>  <minimizedAffinity>  (1) 
-6.54178429

>  <minimizedRMSD>  (1) 
2.09699321

$$$$
