
     RDKit          3D

 37 40  0  0  1  0  0  0  0  0999 V2000
   31.8380   28.1870   46.3770 C   0  0  2  0  0  0  0  0  0  0  0  0
   35.1000   29.3520   48.5380 C   0  0  0  0  0  0  0  0  0  0  0  0
   34.6450   28.0590   48.8520 C   0  0  0  0  0  0  0  0  0  0  0  0
   33.5440   27.6330   48.1520 C   0  0  0  0  0  0  0  0  0  0  0  0
   32.9910   28.4300   47.2550 C   0  0  0  0  0  0  0  0  0  0  0  0
   33.9710   29.9540   47.2620 S   0  0  0  0  0  0  0  0  0  0  0  0
   37.5970   30.5200   50.9710 C   0  0  0  0  0  0  0  0  0  0  0  0
   38.4480   31.3250   50.1840 C   0  0  0  0  0  0  0  0  0  0  0  0
   38.1520   31.4510   48.8430 C   0  0  0  0  0  0  0  0  0  0  0  0
   37.0590   30.7970   48.3510 N   0  0  0  0  0  0  0  0  0  0  0  0
   36.2720   30.0380   49.1380 C   0  0  0  0  0  0  0  0  0  0  0  0
   36.5060   29.8670   50.4780 N   0  0  0  0  0  0  0  0  0  0  0  0
   31.2980   29.5390   45.9590 C   0  0  0  0  0  0  0  0  0  0  0  0
   30.8160   27.3240   47.0160 C   0  0  0  0  0  0  0  0  0  0  0  0
   29.9910   27.8910   48.0180 N   0  0  0  0  0  0  0  0  0  0  0  0
   30.2860   27.5260   49.3130 C   0  0  0  0  0  0  0  0  0  0  0  0
   29.4700   28.0620   50.2360 N   0  0  0  0  0  0  0  0  0  0  0  0
   28.5910   28.8110   49.5870 C   0  0  0  0  0  0  0  0  0  0  0  0
   27.5210   29.6190   49.8750 C   0  0  0  0  0  0  0  0  0  0  0  0
   26.8510   30.2520   48.8960 N   0  0  0  0  0  0  0  0  0  0  0  0
   27.2180   30.1050   47.5880 C   0  0  0  0  0  0  0  0  0  0  0  0
   28.2560   29.3200   47.3100 N   0  0  0  0  0  0  0  0  0  0  0  0
   28.9360   28.6820   48.2760 C   0  0  0  0  0  0  0  0  0  0  0  0
   32.1477   27.6230   45.4849 H   0  0  0  0  0  0  0  0  0  0  0  0
   35.1386   27.4309   49.6082 H   0  0  0  0  0  0  0  0  0  0  0  0
   33.1242   26.6332   48.3368 H   0  0  0  0  0  0  0  0  0  0  0  0
   37.8264   30.4133   52.0415 H   0  0  0  0  0  0  0  0  0  0  0  0
   39.3175   31.8344   50.6250 H   0  0  0  0  0  0  0  0  0  0  0  0
   38.7830   32.0653   48.1838 H   0  0  0  0  0  0  0  0  0  0  0  0
   31.0611   30.1321   46.8546 H   0  0  0  0  0  0  0  0  0  0  0  0
   32.0544   30.0665   45.3594 H   0  0  0  0  0  0  0  0  0  0  0  0
   30.3863   29.4003   45.3594 H   0  0  0  0  0  0  0  0  0  0  0  0
   30.1539   26.9573   46.2178 H   0  0  0  0  0  0  0  0  0  0  0  0
   31.4003   26.5577   47.5464 H   0  0  0  0  0  0  0  0  0  0  0  0
   31.1180   26.8536   49.5694 H   0  0  0  0  0  0  0  0  0  0  0  0
   27.2067   29.7510   50.9208 H   0  0  0  0  0  0  0  0  0  0  0  0
   26.6701   30.6217   46.7863 H   0  0  0  0  0  0  0  0  0  0  0  0
  1 14  1  0
  1  5  1  0
  2  3  2  0
  2 11  1  0
  4  3  1  0
  5  6  1  0
  5  4  2  0
  6  2  1  0
  8  7  2  0
  9  8  1  0
 10  9  2  0
 10 11  1  0
 11 12  2  0
 12  7  1  0
 13  1  1  0
 14 15  1  0
 15 23  1  0
 15 16  1  0
 16 17  2  0
 18 19  2  0
 18 17  1  0
 20 19  1  0
 21 20  2  0
 22 21  1  0
 22 23  2  0
 23 18  1  0
  1 24  1  6
  3 25  1  0
  4 26  1  0
  7 27  1  0
  8 28  1  0
  9 29  1  0
 13 30  1  0
 13 31  1  0
 13 32  1  0
 14 33  1  0
 14 34  1  0
 16 35  1  0
 19 36  1  0
 21 37  1  0
M  ISO  8  24   8  25  14  26  14  27  14  28  14  29  14  30   8  31   8
M  ISO  6  32   8  33   8  34   8  35  14  36  14  37  14
M  END
>  <minimizedAffinity>  (1) 
-6.15277338

>  <minimizedRMSD>  (1) 
1.32593846

$$$$
