
     RDKit          3D

 39 41  0  0  1  0  0  0  0  0999 V2000
   32.9780   27.6080   47.8480 C   0  0  2  0  0  0  0  0  0  0  0  0
   36.0550   30.1620   48.6030 C   0  0  0  0  0  0  0  0  0  0  0  0
   35.8600   29.2230   49.6540 C   0  0  0  0  0  0  0  0  0  0  0  0
   34.8550   28.3400   49.4630 C   0  0  0  0  0  0  0  0  0  0  0  0
   34.1330   28.3810   48.3610 C   0  0  0  0  0  0  0  0  0  0  0  0
   34.7790   29.7320   47.3790 S   0  0  0  0  0  0  0  0  0  0  0  0
   38.0220   33.1390   49.5090 C   0  0  0  0  0  0  0  0  0  0  0  0
   38.9730   33.2030   48.4730 C   0  0  0  0  0  0  0  0  0  0  0  0
   38.9200   32.2310   47.4960 C   0  0  0  0  0  0  0  0  0  0  0  0
   37.9580   31.2720   47.5850 N   0  0  0  0  0  0  0  0  0  0  0  0
   37.0800   31.2390   48.5690 C   0  0  0  0  0  0  0  0  0  0  0  0
   37.0840   32.1570   49.5480 N   0  0  0  0  0  0  0  0  0  0  0  0
   31.8460   27.7370   48.7930 C   0  0  0  0  0  0  0  0  0  0  0  0
   33.3890   26.2820   47.4240 C   0  0  0  0  0  0  0  0  0  0  0  0
   32.4820   25.3160   46.9680 N   0  0  0  0  0  0  0  0  0  0  0  0
   31.3210   25.0700   46.3590 C   0  0  0  0  0  0  0  0  0  0  0  0
   30.7400   23.8910   46.0370 C   0  0  0  0  0  0  0  0  0  0  0  0
   29.4270   23.9700   45.3570 C   0  0  0  0  0  0  0  0  0  0  0  0
   31.3850   22.7140   46.3500 C   0  0  0  0  0  0  0  0  0  0  0  0
   30.8110   21.6660   46.0340 O   0  0  0  0  0  0  0  0  0  0  0  0
   32.5820   22.8560   46.9740 N   0  0  0  0  0  0  0  0  0  0  0  0
   33.0810   24.0960   47.2560 C   0  0  0  0  0  0  0  0  0  0  0  0
   34.1890   23.8790   47.8260 O   0  0  0  0  0  0  0  0  0  0  0  0
   32.5748   28.0200   46.9111 H   0  0  0  0  0  0  0  0  0  0  0  0
   36.4843   29.2163   50.5597 H   0  0  0  0  0  0  0  0  0  0  0  0
   34.6383   27.5831   50.2312 H   0  0  0  0  0  0  0  0  0  0  0  0
   38.0387   33.8998   50.3033 H   0  0  0  0  0  0  0  0  0  0  0  0
   39.7311   33.9996   48.4438 H   0  0  0  0  0  0  0  0  0  0  0  0
   39.6390   32.2307   46.6635 H   0  0  0  0  0  0  0  0  0  0  0  0
   32.2234   27.6940   49.8253 H   0  0  0  0  0  0  0  0  0  0  0  0
   31.3384   28.6988   48.6280 H   0  0  0  0  0  0  0  0  0  0  0  0
   31.1350   26.9141   48.6280 H   0  0  0  0  0  0  0  0  0  0  0  0
   34.1085   26.4337   46.6059 H   0  0  0  0  0  0  0  0  0  0  0  0
   33.7264   25.8398   48.3730 H   0  0  0  0  0  0  0  0  0  0  0  0
   30.7469   25.9641   46.0744 H   0  0  0  0  0  0  0  0  0  0  0  0
   28.6265   24.0182   46.1099 H   0  0  0  0  0  0  0  0  0  0  0  0
   29.3935   24.8718   44.7280 H   0  0  0  0  0  0  0  0  0  0  0  0
   29.2856   23.0787   44.7280 H   0  0  0  0  0  0  0  0  0  0  0  0
   33.1206   22.0187   47.2381 H   0  0  0  0  0  0  0  0  0  0  0  0
  1  5  1  0
  1 13  1  0
  2  3  2  0
  4  3  1  0
  5  4  2  0
  6  5  1  0
  6  2  1  0
  7 12  2  0
  8  7  1  0
  9 10  1  0
  9  8  2  0
 10 11  2  0
 11  2  1  0
 11 12  1  0
 14  1  1  0
 15 22  1  0
 15 14  1  0
 16 15  1  0
 17 19  1  0
 17 16  2  0
 18 17  1  0
 19 21  1  0
 20 19  2  0
 21 22  1  0
 22 23  2  0
  1 24  1  6
  3 25  1  0
  4 26  1  0
  7 27  1  0
  8 28  1  0
  9 29  1  0
 13 30  1  0
 13 31  1  0
 13 32  1  0
 14 33  1  0
 14 34  1  0
 16 35  1  0
 18 36  1  0
 18 37  1  0
 18 38  1  0
 21 39  1  0
M  ISO  8  24   8  25  14  26  14  27  14  28  14  29  14  30   8  31   8
M  ISO  8  32   8  33   8  34   8  35  14  36   8  37   8  38   8  39   9
M  END
>  <minimizedAffinity>  (1) 
-5.24038506

>  <minimizedRMSD>  (1) 
2.25400686

$$$$
