
     RDKit          3D

 16 17  0  0  0  0  0  0  0  0999 V2000
   37.4110   30.3000   51.3680 C   0  0  0  0  0  0  0  0  0  0  0  0
   38.0870   30.8980   50.2980 C   0  0  0  0  0  0  0  0  0  0  0  0
   37.7460   30.5780   48.9850 C   0  0  0  0  0  0  0  0  0  0  0  0
   36.7460   29.6760   48.8530 N   0  0  0  0  0  0  0  0  0  0  0  0
   36.0910   29.0970   49.8690 C   0  0  0  0  0  0  0  0  0  0  0  0
   36.4390   29.4220   51.1170 N   0  0  0  0  0  0  0  0  0  0  0  0
   38.4170   31.1690   47.8020 C   0  0  0  0  0  0  0  0  0  0  0  0
   38.9030   32.4270   47.8170 C   0  0  0  0  0  0  0  0  0  0  0  0
   39.6090   32.6600   46.1620 S   0  0  0  0  0  0  0  0  0  0  0  0
   39.0930   30.8910   45.6920 C   0  0  0  0  0  0  0  0  0  0  0  0
   38.5870   30.5260   46.6700 N   0  0  0  0  0  0  0  0  0  0  0  0
   37.6786   30.5516   52.4049 H   0  0  0  0  0  0  0  0  0  0  0  0
   38.8904   31.6233   50.4942 H   0  0  0  0  0  0  0  0  0  0  0  0
   35.2861   28.3715   49.6796 H   0  0  0  0  0  0  0  0  0  0  0  0
   38.8772   33.1493   48.6462 H   0  0  0  0  0  0  0  0  0  0  0  0
   39.2366   30.3548   44.7423 H   0  0  0  0  0  0  0  0  0  0  0  0
  2  1  2  0
  3  2  1  0
  4  3  2  0
  4  5  1  0
  5  6  2  0
  6  1  1  0
  7  8  2  0
  7  3  1  0
  9  8  1  0
 10  9  1  0
 10 11  2  0
 11  7  1  0
  1 12  1  0
  2 13  1  0
  5 14  1  0
  8 15  1  0
 10 16  1  0
M  ISO  5  12  14  13  14  14  14  15  14  16  14
M  END
>  <minimizedAffinity>  (1) 
-4.26614285

>  <minimizedRMSD>  (1) 
0.691847861

$$$$
