
     RDKit          3D

 34 36  0  0  1  0  0  0  0  0999 V2000
   35.0950   29.5960   48.5140 C   0  0  0  0  0  0  0  0  0  0  0  0
   34.7300   28.3480   49.0730 C   0  0  0  0  0  0  0  0  0  0  0  0
   33.5820   27.7970   48.6280 C   0  0  0  0  0  0  0  0  0  0  0  0
   32.8590   28.4540   47.6910 C   0  0  0  0  0  0  0  0  0  0  0  0
   33.7770   29.9580   47.3550 S   0  0  0  0  0  0  0  0  0  0  0  0
   38.0030   30.9150   50.3830 C   0  0  0  0  0  0  0  0  0  0  0  0
   38.5980   31.7550   49.4210 C   0  0  0  0  0  0  0  0  0  0  0  0
   37.9980   31.8660   48.1570 C   0  0  0  0  0  0  0  0  0  0  0  0
   36.8520   31.1550   47.8910 N   0  0  0  0  0  0  0  0  0  0  0  0
   36.3310   30.3660   48.8540 C   0  0  0  0  0  0  0  0  0  0  0  0
   36.8730   30.2320   50.0780 N   0  0  0  0  0  0  0  0  0  0  0  0
   31.5860   28.1530   46.9960 C   0  0  2  0  0  0  0  0  0  0  0  0
   31.2180   29.3330   46.1450 C   0  0  0  0  0  0  0  0  0  0  0  0
   30.5790   27.7270   48.0040 C   0  0  0  0  0  0  0  0  0  0  0  0
   29.1840   28.0990   47.6700 C   0  0  0  0  0  0  0  0  0  0  0  0
   28.5630   27.2600   46.7600 C   0  0  0  0  0  0  0  0  0  0  0  0
   27.2500   27.5720   46.4170 C   0  0  0  0  0  0  0  0  0  0  0  0
   26.6490   28.6470   46.9690 N   0  0  0  0  0  0  0  0  0  0  0  0
   27.2980   29.4120   47.8360 C   0  0  0  0  0  0  0  0  0  0  0  0
   28.5690   29.1700   48.2130 N   0  0  0  0  0  0  0  0  0  0  0  0
   35.3518   27.8519   49.8328 H   0  0  0  0  0  0  0  0  0  0  0  0
   33.2386   26.8285   49.0206 H   0  0  0  0  0  0  0  0  0  0  0  0
   38.4552   30.8137   51.3806 H   0  0  0  0  0  0  0  0  0  0  0  0
   39.5160   32.3136   49.6562 H   0  0  0  0  0  0  0  0  0  0  0  0
   38.4403   32.5153   47.3871 H   0  0  0  0  0  0  0  0  0  0  0  0
   31.6618   27.3064   46.2977 H   0  0  0  0  0  0  0  0  0  0  0  0
   30.9530   30.1828   46.7913 H   0  0  0  0  0  0  0  0  0  0  0  0
   32.0730   29.6080   45.5100 H   0  0  0  0  0  0  0  0  0  0  0  0
   30.3582   29.0732   45.5100 H   0  0  0  0  0  0  0  0  0  0  0  0
   30.6297   26.6324   48.0998 H   0  0  0  0  0  0  0  0  0  0  0  0
   30.8287   28.2510   48.9384 H   0  0  0  0  0  0  0  0  0  0  0  0
   29.0811   26.3904   46.3295 H   0  0  0  0  0  0  0  0  0  0  0  0
   26.7039   26.9438   45.6979 H   0  0  0  0  0  0  0  0  0  0  0  0
   26.7772   30.2805   48.2655 H   0  0  0  0  0  0  0  0  0  0  0  0
  1 10  1  0
  1  2  2  0
  3  2  1  0
  4  3  2  0
  5  4  1  0
  5  1  1  0
  7  6  2  0
  8  7  1  0
  9  8  2  0
  9 10  1  0
 10 11  2  0
 11  6  1  0
 12  4  1  0
 12 14  1  0
 13 12  1  0
 15 14  1  0
 15 20  1  0
 16 15  2  0
 17 16  1  0
 17 18  2  0
 18 19  1  0
 19 20  2  0
  2 21  1  0
  3 22  1  0
  6 23  1  0
  7 24  1  0
  8 25  1  0
 12 26  1  6
 13 27  1  0
 13 28  1  0
 13 29  1  0
 14 30  1  0
 14 31  1  0
 16 32  1  0
 17 33  1  0
 19 34  1  0
M  ISO  8  21  14  22  14  23  14  24  14  25  14  26   8  27   8  28   8
M  ISO  6  29   8  30   8  31   8  32  14  33  14  34  14
M  END
>  <minimizedAffinity>  (1) 
-5.09246969

>  <minimizedRMSD>  (1) 
1.73821735

$$$$
