
     RDKit          3D

 37 39  0  0  1  0  0  0  0  0999 V2000
   32.4250   27.2930   47.8330 C   0  0  2  0  0  0  0  0  0  0  0  0
   35.5560   29.7970   48.5420 C   0  0  0  0  0  0  0  0  0  0  0  0
   35.4220   28.7940   49.5080 C   0  0  0  0  0  0  0  0  0  0  0  0
   34.3870   27.9300   49.3250 C   0  0  0  0  0  0  0  0  0  0  0  0
   33.5920   28.0770   48.2800 C   0  0  0  0  0  0  0  0  0  0  0  0
   34.2010   29.5120   47.3610 S   0  0  0  0  0  0  0  0  0  0  0  0
   37.7060   32.6060   49.5350 C   0  0  0  0  0  0  0  0  0  0  0  0
   38.4960   32.8310   48.4000 C   0  0  0  0  0  0  0  0  0  0  0  0
   38.2750   32.0170   47.3180 C   0  0  0  0  0  0  0  0  0  0  0  0
   37.3200   31.0550   47.4020 N   0  0  0  0  0  0  0  0  0  0  0  0
   36.5990   30.8750   48.4860 C   0  0  0  0  0  0  0  0  0  0  0  0
   36.7470   31.6330   49.6090 N   0  0  0  0  0  0  0  0  0  0  0  0
   32.5490   26.9620   46.4130 C   0  0  0  0  0  0  0  0  0  0  0  0
   31.1630   28.0260   48.2130 C   0  0  0  0  0  0  0  0  0  0  0  0
   30.7510   27.7770   49.4770 O   0  0  0  0  0  0  0  0  0  0  0  0
   29.4610   27.8350   49.9560 C   0  0  0  0  0  0  0  0  0  0  0  0
   28.9950   26.9120   50.8700 C   0  0  0  0  0  0  0  0  0  0  0  0
   27.6840   27.0730   51.2770 C   0  0  0  0  0  0  0  0  0  0  0  0
   26.8170   28.0580   50.8570 C   0  0  0  0  0  0  0  0  0  0  0  0
   27.3270   28.9630   49.9390 C   0  0  0  0  0  0  0  0  0  0  0  0
   28.6330   28.8570   49.4910 C   0  0  0  0  0  0  0  0  0  0  0  0
   32.3771   26.3200   48.3438 H   0  0  0  0  0  0  0  0  0  0  0  0
   36.1102   28.7092   50.3619 H   0  0  0  0  0  0  0  0  0  0  0  0
   34.2132   27.1144   50.0424 H   0  0  0  0  0  0  0  0  0  0  0  0
   37.8655   33.2467   50.4148 H   0  0  0  0  0  0  0  0  0  0  0  0
   39.2583   33.6237   48.3775 H   0  0  0  0  0  0  0  0  0  0  0  0
   38.8624   32.1416   46.3964 H   0  0  0  0  0  0  0  0  0  0  0  0
   32.9331   25.9366   46.3077 H   0  0  0  0  0  0  0  0  0  0  0  0
   31.5625   27.0352   45.9319 H   0  0  0  0  0  0  0  0  0  0  0  0
   33.2446   27.6654   45.9319 H   0  0  0  0  0  0  0  0  0  0  0  0
   31.3450   29.1062   48.1132 H   0  0  0  0  0  0  0  0  0  0  0  0
   30.3690   27.6710   47.5395 H   0  0  0  0  0  0  0  0  0  0  0  0
   29.6285   26.0976   51.2514 H   0  0  0  0  0  0  0  0  0  0  0  0
   27.2960   26.3457   52.0054 H   0  0  0  0  0  0  0  0  0  0  0  0
   25.7833   28.1224   51.2275 H   0  0  0  0  0  0  0  0  0  0  0  0
   26.6870   29.7745   49.5622 H   0  0  0  0  0  0  0  0  0  0  0  0
   29.0207   29.5845   48.7626 H   0  0  0  0  0  0  0  0  0  0  0  0
  1 14  1  0
  1  5  1  0
  2  3  2  0
  4  3  1  0
  5  4  2  0
  6  5  1  0
  6  2  1  0
  7 12  2  0
  8  7  1  0
  9 10  1  0
  9  8  2  0
 10 11  2  0
 11  2  1  0
 11 12  1  0
 13  1  1  0
 14 15  1  0
 15 16  1  0
 16 17  2  0
 17 18  1  0
 19 18  2  0
 20 19  1  0
 21 20  2  0
 21 16  1  0
  1 22  1  1
  3 23  1  0
  4 24  1  0
  7 25  1  0
  8 26  1  0
  9 27  1  0
 13 28  1  0
 13 29  1  0
 13 30  1  0
 14 31  1  0
 14 32  1  0
 17 33  1  0
 18 34  1  0
 19 35  1  0
 20 36  1  0
 21 37  1  0
M  ISO  8  22   8  23  14  24  14  25  14  26  14  27  14  28   8  29   8
M  ISO  8  30   8  31   8  32   8  33  14  34  14  35  14  36  14  37  14
M  END
>  <minimizedAffinity>  (1) 
-6.21654987

>  <minimizedRMSD>  (1) 
2.69298816

$$$$
