
     RDKit          3D

 17 18  0  0  0  0  0  0  0  0999 V2000
   37.3150   30.1620   51.4500 C   0  0  0  0  0  0  0  0  0  0  0  0
   38.0800   30.6870   50.3850 C   0  0  0  0  0  0  0  0  0  0  0  0
   37.6660   30.3980   49.0760 C   0  0  0  0  0  0  0  0  0  0  0  0
   36.5470   29.6220   48.9180 N   0  0  0  0  0  0  0  0  0  0  0  0
   35.8430   29.1380   49.9580 C   0  0  0  0  0  0  0  0  0  0  0  0
   36.2200   29.4030   51.2210 N   0  0  0  0  0  0  0  0  0  0  0  0
   38.4190   30.9160   47.9210 C   0  0  0  0  0  0  0  0  0  0  0  0
   37.7710   31.5000   46.7480 C   0  0  0  0  0  0  0  0  0  0  0  0
   38.3430   32.4360   47.8060 C   0  0  0  0  0  0  0  0  0  0  0  0
   37.6162   30.3750   52.4863 H   0  0  0  0  0  0  0  0  0  0  0  0
   38.9715   31.3025   50.5757 H   0  0  0  0  0  0  0  0  0  0  0  0
   34.9517   28.5204   49.7731 H   0  0  0  0  0  0  0  0  0  0  0  0
   39.1801   30.1250   47.9919 H   0  0  0  0  0  0  0  0  0  0  0  0
   36.6811   31.4140   46.6269 H   0  0  0  0  0  0  0  0  0  0  0  0
   37.9060   31.3931   45.6616 H   0  0  0  0  0  0  0  0  0  0  0  0
   39.2483   33.0252   47.5982 H   0  0  0  0  0  0  0  0  0  0  0  0
   37.9612   33.2606   48.4259 H   0  0  0  0  0  0  0  0  0  0  0  0
  2  1  2  0
  3  2  1  0
  4  3  2  0
  4  5  1  0
  5  6  2  0
  6  1  1  0
  7  3  1  0
  8  9  1  0
  8  7  1  0
  9  7  1  0
  1 10  1  0
  2 11  1  0
  5 12  1  0
  7 13  1  0
  8 14  1  0
  8 15  1  0
  9 16  1  0
  9 17  1  0
M  ISO  8  10  14  11  14  12  14  13  13  14  13  15  13  16  13  17  13
M  END
>  <minimizedAffinity>  (1) 
-3.89490533

>  <minimizedRMSD>  (1) 
0.755287468

$$$$
