
     RDKit          3D

 33 35  0  0  1  0  0  0  0  0999 V2000
   35.1880   29.5380   48.5830 C   0  0  0  0  0  0  0  0  0  0  0  0
   34.7610   28.3260   49.1300 C   0  0  0  0  0  0  0  0  0  0  0  0
   33.6300   27.7840   48.6120 C   0  0  0  0  0  0  0  0  0  0  0  0
   33.0110   28.4250   47.6380 C   0  0  0  0  0  0  0  0  0  0  0  0
   33.9670   29.9430   47.2950 S   0  0  0  0  0  0  0  0  0  0  0  0
   38.0280   30.8270   50.5140 C   0  0  0  0  0  0  0  0  0  0  0  0
   38.5760   31.7980   49.6650 C   0  0  0  0  0  0  0  0  0  0  0  0
   37.9750   32.0000   48.4490 C   0  0  0  0  0  0  0  0  0  0  0  0
   36.8850   31.2500   48.1400 N   0  0  0  0  0  0  0  0  0  0  0  0
   36.3950   30.3450   48.9620 C   0  0  0  0  0  0  0  0  0  0  0  0
   36.9290   30.0660   50.2100 N   0  0  0  0  0  0  0  0  0  0  0  0
   31.7780   28.0820   46.8690 C   0  0  2  0  0  0  0  0  0  0  0  0
   31.4570   29.1600   45.9330 C   0  0  0  0  0  0  0  0  0  0  0  0
   30.6820   27.7390   47.8550 C   0  0  0  0  0  0  0  0  0  0  0  0
   30.1140   26.5370   47.6350 O   0  0  0  0  0  0  0  0  0  0  0  0
   29.3700   26.1750   46.5240 C   0  0  0  0  0  0  0  0  0  0  0  0
   29.6010   24.9030   45.8170 C   0  0  0  0  0  0  0  0  0  0  0  0
   28.2970   25.0370   44.4540 S   0  0  0  0  0  0  0  0  0  0  0  0
   27.7390   26.6690   45.0680 C   0  0  0  0  0  0  0  0  0  0  0  0
   28.4100   26.9720   46.0510 N   0  0  0  0  0  0  0  0  0  0  0  0
   35.3155   27.8339   49.9426 H   0  0  0  0  0  0  0  0  0  0  0  0
   33.2373   26.8308   48.9955 H   0  0  0  0  0  0  0  0  0  0  0  0
   38.5116   30.6648   51.4886 H   0  0  0  0  0  0  0  0  0  0  0  0
   39.4602   32.3797   49.9645 H   0  0  0  0  0  0  0  0  0  0  0  0
   38.3646   32.7485   47.7433 H   0  0  0  0  0  0  0  0  0  0  0  0
   31.9193   27.1934   46.2362 H   0  0  0  0  0  0  0  0  0  0  0  0
   31.1872   30.0659   46.4956 H   0  0  0  0  0  0  0  0  0  0  0  0
   32.3320   29.3685   45.2999 H   0  0  0  0  0  0  0  0  0  0  0  0
   30.6104   28.8559   45.2999 H   0  0  0  0  0  0  0  0  0  0  0  0
   31.1124   27.7400   48.8673 H   0  0  0  0  0  0  0  0  0  0  0  0
   29.8923   28.4953   47.7348 H   0  0  0  0  0  0  0  0  0  0  0  0
   30.3264   24.1023   46.0235 H   0  0  0  0  0  0  0  0  0  0  0  0
   26.9351   27.2779   44.6288 H   0  0  0  0  0  0  0  0  0  0  0  0
  1 10  1  0
  1  2  2  0
  3  2  1  0
  4  3  2  0
  5  4  1  0
  5  1  1  0
  7  6  2  0
  8  7  1  0
  9  8  2  0
  9 10  1  0
 10 11  2  0
 11  6  1  0
 12  4  1  0
 12 14  1  0
 13 12  1  0
 15 14  1  0
 16 15  1  0
 17 16  2  0
 18 19  1  0
 18 17  1  0
 19 20  2  0
 20 16  1  0
  2 21  1  0
  3 22  1  0
  6 23  1  0
  7 24  1  0
  8 25  1  0
 12 26  1  6
 13 27  1  0
 13 28  1  0
 13 29  1  0
 14 30  1  0
 14 31  1  0
 17 32  1  0
 19 33  1  0
M  ISO  8  21  14  22  14  23  14  24  14  25  14  26   8  27   8  28   8
M  ISO  5  29   8  30   8  31   8  32  14  33  14
M  END
>  <minimizedAffinity>  (1) 
-4.39704752

>  <minimizedRMSD>  (1) 
0.745593488

$$$$
