
     RDKit          3D

 33 34  0  0  1  0  0  0  0  0999 V2000
   34.9540   29.4360   48.5890 C   0  0  0  0  0  0  0  0  0  0  0  0
   34.4620   28.2520   49.1440 C   0  0  0  0  0  0  0  0  0  0  0  0
   33.3390   27.7380   48.6010 C   0  0  0  0  0  0  0  0  0  0  0  0
   32.7720   28.3690   47.5900 C   0  0  0  0  0  0  0  0  0  0  0  0
   33.7930   29.8440   47.2510 S   0  0  0  0  0  0  0  0  0  0  0  0
   37.7770   30.6570   50.5900 C   0  0  0  0  0  0  0  0  0  0  0  0
   38.4030   31.5810   49.7420 C   0  0  0  0  0  0  0  0  0  0  0  0
   37.8440   31.7670   48.5040 C   0  0  0  0  0  0  0  0  0  0  0  0
   36.7300   31.0670   48.1490 N   0  0  0  0  0  0  0  0  0  0  0  0
   36.1780   30.2000   48.9990 C   0  0  0  0  0  0  0  0  0  0  0  0
   36.6550   29.9320   50.2690 N   0  0  0  0  0  0  0  0  0  0  0  0
   31.5560   28.0600   46.7760 C   0  0  2  0  0  0  0  0  0  0  0  0
   31.1900   29.2320   45.9770 C   0  0  0  0  0  0  0  0  0  0  0  0
   30.4660   27.6160   47.7230 C   0  0  0  0  0  0  0  0  0  0  0  0
   29.8620   26.4580   47.3910 O   0  0  0  0  0  0  0  0  0  0  0  0
   28.5690   26.5000   46.9560 C   0  0  0  0  0  0  0  0  0  0  0  0
   27.5850   26.6950   48.1100 C   0  0  0  0  0  0  0  0  0  0  0  0
   34.9685   27.7600   49.9875 H   0  0  0  0  0  0  0  0  0  0  0  0
   32.9030   26.8080   48.9946 H   0  0  0  0  0  0  0  0  0  0  0  0
   38.2166   30.5008   51.5862 H   0  0  0  0  0  0  0  0  0  0  0  0
   39.3020   32.1319   50.0556 H   0  0  0  0  0  0  0  0  0  0  0  0
   38.2942   32.4805   47.7981 H   0  0  0  0  0  0  0  0  0  0  0  0
   31.7371   27.2446   46.0602 H   0  0  0  0  0  0  0  0  0  0  0  0
   30.9298   30.0653   46.6463 H   0  0  0  0  0  0  0  0  0  0  0  0
   32.0400   29.5231   45.3424 H   0  0  0  0  0  0  0  0  0  0  0  0
   30.3254   28.9877   45.3424 H   0  0  0  0  0  0  0  0  0  0  0  0
   30.9099   27.4955   48.7222 H   0  0  0  0  0  0  0  0  0  0  0  0
   29.6876   28.3922   47.6826 H   0  0  0  0  0  0  0  0  0  0  0  0
   28.4585   27.3358   46.2494 H   0  0  0  0  0  0  0  0  0  0  0  0
   28.3408   25.5388   46.4723 H   0  0  0  0  0  0  0  0  0  0  0  0
   28.1168   26.5896   49.0671 H   0  0  0  0  0  0  0  0  0  0  0  0
   27.1397   27.6988   48.0465 H   0  0  0  0  0  0  0  0  0  0  0  0
   26.7906   25.9368   48.0465 H   0  0  0  0  0  0  0  0  0  0  0  0
  1 10  1  0
  1  2  2  0
  3  2  1  0
  4  3  2  0
  5  4  1  0
  5  1  1  0
  7  6  2  0
  8  7  1  0
  9  8  2  0
  9 10  1  0
 10 11  2  0
 11  6  1  0
 12  4  1  0
 12 14  1  0
 13 12  1  0
 15 14  1  0
 16 15  1  0
 16 17  1  0
  2 18  1  0
  3 19  1  0
  6 20  1  0
  7 21  1  0
  8 22  1  0
 12 23  1  6
 13 24  1  0
 13 25  1  0
 13 26  1  0
 14 27  1  0
 14 28  1  0
 16 29  1  0
 16 30  1  0
 17 31  1  0
 17 32  1  0
 17 33  1  0
M  ISO  8  18  14  19  14  20  14  21  14  22  14  23   8  24   8  25   8
M  ISO  8  26   8  27   8  28   8  29   8  30   8  31   8  32   8  33   8
M  END
>  <minimizedAffinity>  (1) 
-4.2791419

>  <minimizedRMSD>  (1) 
1.03513587

$$$$
