
     RDKit          3D

 13 13  0  0  0  0  0  0  0  0999 V2000
   37.2970   30.1030   51.3500 C   0  0  0  0  0  0  0  0  0  0  0  0
   38.0940   30.9600   50.5410 C   0  0  0  0  0  0  0  0  0  0  0  0
   37.9230   30.8540   49.1600 C   0  0  0  0  0  0  0  0  0  0  0  0
   37.0270   29.9630   48.6650 N   0  0  0  0  0  0  0  0  0  0  0  0
   36.2850   29.1630   49.4770 C   0  0  0  0  0  0  0  0  0  0  0  0
   36.4280   29.2420   50.8070 N   0  0  0  0  0  0  0  0  0  0  0  0
   38.6610   31.6580   48.1890 C   0  0  0  0  0  0  0  0  0  0  0  0
   38.6810   32.9310   48.2290 O   0  0  0  0  0  0  0  0  0  0  0  0
   39.3930   31.1430   47.1570 O   0  0  0  0  0  0  0  0  0  0  0  0
   37.3971   30.1490   52.4445 H   0  0  0  0  0  0  0  0  0  0  0  0
   38.8089   31.6703   50.9818 H   0  0  0  0  0  0  0  0  0  0  0  0
   35.5678   28.4514   49.0421 H   0  0  0  0  0  0  0  0  0  0  0  0
   39.4478   30.1627   47.0298 H   0  0  0  0  0  0  0  0  0  0  0  0
  2  1  2  0
  3  2  1  0
  4  3  2  0
  4  5  1  0
  5  6  2  0
  6  1  1  0
  7  8  2  0
  7  3  1  0
  9  7  1  0
  1 10  1  0
  2 11  1  0
  5 12  1  0
  9 13  1  0
M  ISO  4  10  14  11  14  12  14  13   3
M  END
>  <minimizedAffinity>  (1) 
-3.86250615

>  <minimizedRMSD>  (1) 
0.746122122

$$$$
