
     RDKit          3D

 40 42  0  0  1  0  0  0  0  0999 V2000
   32.5150   27.9270   47.5420 C   0  0  2  0  0  0  0  0  0  0  0  0
   35.7920   30.1890   48.3930 C   0  0  0  0  0  0  0  0  0  0  0  0
   35.6800   29.0340   49.1750 C   0  0  0  0  0  0  0  0  0  0  0  0
   34.6140   28.2370   48.9610 C   0  0  0  0  0  0  0  0  0  0  0  0
   33.7470   28.5860   48.0410 C   0  0  0  0  0  0  0  0  0  0  0  0
   34.3440   30.1540   47.3210 S   0  0  0  0  0  0  0  0  0  0  0  0
   38.0770   32.8010   49.5940 C   0  0  0  0  0  0  0  0  0  0  0  0
   38.9200   33.0240   48.4900 C   0  0  0  0  0  0  0  0  0  0  0  0
   38.6820   32.2740   47.3490 C   0  0  0  0  0  0  0  0  0  0  0  0
   37.6610   31.3690   47.3340 N   0  0  0  0  0  0  0  0  0  0  0  0
   36.8970   31.2100   48.4290 C   0  0  0  0  0  0  0  0  0  0  0  0
   37.0470   31.8990   49.6090 N   0  0  0  0  0  0  0  0  0  0  0  0
   31.9190   28.6800   46.4620 C   0  0  0  0  0  0  0  0  0  0  0  0
   31.6100   27.6870   48.7480 C   0  0  0  0  0  0  0  0  0  0  0  0
   30.8120   26.5960   48.6120 O   0  0  0  0  0  0  0  0  0  0  0  0
   29.8080   26.5330   47.6710 C   0  0  0  0  0  0  0  0  0  0  0  0
   29.4740   25.8210   46.5490 C   0  0  0  0  0  0  0  0  0  0  0  0
   28.2740   26.3210   46.0940 C   0  0  0  0  0  0  0  0  0  0  0  0
   27.9300   27.3240   46.9650 C   0  0  0  0  0  0  0  0  0  0  0  0
   28.8570   27.4200   47.8800 O   0  0  0  0  0  0  0  0  0  0  0  0
   26.6670   28.1110   46.7880 C   0  0  0  0  0  0  0  0  0  0  0  0
   26.3100   28.2180   45.3080 C   0  0  0  0  0  0  0  0  0  0  0  0
   32.7264   26.9496   47.0836 H   0  0  0  0  0  0  0  0  0  0  0  0
   36.4341   28.7855   49.9364 H   0  0  0  0  0  0  0  0  0  0  0  0
   34.4746   27.3151   49.5447 H   0  0  0  0  0  0  0  0  0  0  0  0
   38.2572   33.3902   50.5053 H   0  0  0  0  0  0  0  0  0  0  0  0
   39.7340   33.7627   48.5306 H   0  0  0  0  0  0  0  0  0  0  0  0
   39.3140   32.4079   46.4587 H   0  0  0  0  0  0  0  0  0  0  0  0
   31.2868   29.4787   46.8771 H   0  0  0  0  0  0  0  0  0  0  0  0
   32.7125   29.1246   45.8434 H   0  0  0  0  0  0  0  0  0  0  0  0
   31.3040   28.0098   45.8434 H   0  0  0  0  0  0  0  0  0  0  0  0
   32.2426   27.5483   49.6372 H   0  0  0  0  0  0  0  0  0  0  0  0
   30.9513   28.5631   48.8407 H   0  0  0  0  0  0  0  0  0  0  0  0
   30.0550   25.0038   46.0967 H   0  0  0  0  0  0  0  0  0  0  0  0
   27.7075   25.9851   45.2130 H   0  0  0  0  0  0  0  0  0  0  0  0
   25.8482   27.6075   47.3229 H   0  0  0  0  0  0  0  0  0  0  0  0
   26.8172   29.1227   47.1929 H   0  0  0  0  0  0  0  0  0  0  0  0
   25.2609   28.5324   45.2057 H   0  0  0  0  0  0  0  0  0  0  0  0
   26.9638   28.9597   44.8258 H   0  0  0  0  0  0  0  0  0  0  0  0
   26.4480   27.2390   44.8258 H   0  0  0  0  0  0  0  0  0  0  0  0
  1  5  1  0
  1 14  1  0
  2 11  1  0
  2  3  2  0
  4  3  1  0
  5  4  2  0
  6  5  1  0
  6  2  1  0
  7 12  2  0
  8  7  1  0
  9  8  2  0
 10  9  1  0
 10 11  2  0
 11 12  1  0
 13  1  1  0
 15 14  1  0
 16 20  1  0
 16 15  1  0
 17 16  2  0
 18 17  1  0
 18 19  2  0
 19 20  1  0
 21 19  1  0
 22 21  1  0
  1 23  1  6
  3 24  1  0
  4 25  1  0
  7 26  1  0
  8 27  1  0
  9 28  1  0
 13 29  1  0
 13 30  1  0
 13 31  1  0
 14 32  1  0
 14 33  1  0
 17 34  1  0
 18 35  1  0
 21 36  1  0
 21 37  1  0
 22 38  1  0
 22 39  1  0
 22 40  1  0
M  ISO  8  23   8  24  14  25  14  26  14  27  14  28  14  29   8  30   8
M  ISO  8  31   8  32   8  33   8  34  14  35  14  36   8  37   8  38   8
M  ISO  2  39   8  40   8
M  END
>  <minimizedAffinity>  (1) 
-5.29349852

>  <minimizedRMSD>  (1) 
1.42236674

$$$$
