
     RDKit          3D

 41 44  0  0  1  0  0  0  0  0999 V2000
   31.6040   27.9960   46.6940 C   0  0  2  0  0  0  0  0  0  0  0  0
   34.9000   29.4390   48.5900 C   0  0  0  0  0  0  0  0  0  0  0  0
   34.3900   28.2640   49.1670 C   0  0  0  0  0  0  0  0  0  0  0  0
   33.2900   27.7360   48.5960 C   0  0  0  0  0  0  0  0  0  0  0  0
   32.7700   28.3430   47.5550 C   0  0  0  0  0  0  0  0  0  0  0  0
   33.8000   29.8100   47.2120 S   0  0  0  0  0  0  0  0  0  0  0  0
   37.7330   30.6180   50.6240 C   0  0  0  0  0  0  0  0  0  0  0  0
   38.3730   31.5410   49.7680 C   0  0  0  0  0  0  0  0  0  0  0  0
   37.8130   31.7410   48.5210 C   0  0  0  0  0  0  0  0  0  0  0  0
   36.6920   31.0540   48.1760 N   0  0  0  0  0  0  0  0  0  0  0  0
   36.1330   30.1890   49.0400 C   0  0  0  0  0  0  0  0  0  0  0  0
   36.6020   29.9130   50.3010 N   0  0  0  0  0  0  0  0  0  0  0  0
   31.6050   28.7870   45.4850 C   0  0  0  0  0  0  0  0  0  0  0  0
   30.3530   28.0940   47.5600 C   0  0  0  0  0  0  0  0  0  0  0  0
   29.5890   26.9670   47.5220 O   0  0  0  0  0  0  0  0  0  0  0  0
   28.8840   26.6150   46.3890 C   0  0  0  0  0  0  0  0  0  0  0  0
   28.7850   25.5510   45.5240 C   0  0  0  0  0  0  0  0  0  0  0  0
   27.8430   25.9080   44.5840 C   0  0  0  0  0  0  0  0  0  0  0  0
   27.4040   27.1680   44.9050 C   0  0  0  0  0  0  0  0  0  0  0  0
   28.0520   27.5470   45.9870 O   0  0  0  0  0  0  0  0  0  0  0  0
   26.3910   27.9420   44.1650 C   0  0  0  0  0  0  0  0  0  0  0  0
   26.5630   29.2240   43.6840 C   0  0  0  0  0  0  0  0  0  0  0  0
   25.3500   29.5230   43.0680 C   0  0  0  0  0  0  0  0  0  0  0  0
   24.5080   28.4710   43.1820 N   0  0  0  0  0  0  0  0  0  0  0  0
   25.1570   27.5090   43.8560 N   0  0  0  0  0  0  0  0  0  0  0  0
   31.6498   26.9638   46.3165 H   0  0  0  0  0  0  0  0  0  0  0  0
   34.8657   27.7978   50.0424 H   0  0  0  0  0  0  0  0  0  0  0  0
   32.8373   26.8158   48.9938 H   0  0  0  0  0  0  0  0  0  0  0  0
   38.1722   30.4531   51.6189 H   0  0  0  0  0  0  0  0  0  0  0  0
   39.2801   32.0786   50.0812 H   0  0  0  0  0  0  0  0  0  0  0  0
   38.2698   32.4493   47.8142 H   0  0  0  0  0  0  0  0  0  0  0  0
   31.6064   29.8556   45.7460 H   0  0  0  0  0  0  0  0  0  0  0  0
   32.5028   28.5527   44.8943 H   0  0  0  0  0  0  0  0  0  0  0  0
   30.7066   28.5550   44.8943 H   0  0  0  0  0  0  0  0  0  0  0  0
   30.6605   28.2739   48.6007 H   0  0  0  0  0  0  0  0  0  0  0  0
   29.7424   28.9186   47.1634 H   0  0  0  0  0  0  0  0  0  0  0  0
   29.3449   24.6054   45.5726 H   0  0  0  0  0  0  0  0  0  0  0  0
   27.5055   25.2966   43.7341 H   0  0  0  0  0  0  0  0  0  0  0  0
   27.4541   29.8634   43.7679 H   0  0  0  0  0  0  0  0  0  0  0  0
   25.1128   30.4719   42.5647 H   0  0  0  0  0  0  0  0  0  0  0  0
   23.5458   28.4179   42.8185 H   0  0  0  0  0  0  0  0  0  0  0  0
  1  5  1  0
  1 14  1  0
  2 11  1  0
  2  3  2  0
  4  3  1  0
  5  4  2  0
  6  5  1  0
  6  2  1  0
  8  7  2  0
  9  8  1  0
 10  9  2  0
 10 11  1  0
 11 12  2  0
 12  7  1  0
 13  1  1  0
 15 14  1  0
 16 15  1  0
 17 16  2  0
 18 19  2  0
 18 17  1  0
 19 20  1  0
 20 16  1  0
 21 19  1  0
 22 21  1  0
 23 24  1  0
 23 22  2  0
 24 25  1  0
 25 21  2  0
  1 26  1  6
  3 27  1  0
  4 28  1  0
  7 29  1  0
  8 30  1  0
  9 31  1  0
 13 32  1  0
 13 33  1  0
 13 34  1  0
 14 35  1  0
 14 36  1  0
 17 37  1  0
 18 38  1  0
 22 39  1  0
 23 40  1  0
 24 41  1  0
M  ISO  8  26   8  27  14  28  14  29  14  30  14  31  14  32   8  33   8
M  ISO  8  34   8  35   8  36   8  37  14  38  14  39  14  40  14  41   9
M  END
>  <minimizedAffinity>  (1) 
-5.26290464

>  <minimizedRMSD>  (1) 
0.520473838

$$$$
