
     RDKit          3D

 42 45  0  0  1  0  0  0  0  0999 V2000
   31.8600   27.8780   47.0180 C   0  0  2  0  0  0  0  0  0  0  0  0
   35.1970   29.5100   48.6980 C   0  0  0  0  0  0  0  0  0  0  0  0
   34.7770   28.3330   49.3020 C   0  0  0  0  0  0  0  0  0  0  0  0
   33.6740   27.7340   48.8130 C   0  0  0  0  0  0  0  0  0  0  0  0
   33.0570   28.2910   47.7990 C   0  0  0  0  0  0  0  0  0  0  0  0
   33.9920   29.8020   47.3810 S   0  0  0  0  0  0  0  0  0  0  0  0
   38.0590   30.8780   50.5340 C   0  0  0  0  0  0  0  0  0  0  0  0
   38.5940   31.8320   49.6470 C   0  0  0  0  0  0  0  0  0  0  0  0
   37.9540   31.9930   48.4280 C   0  0  0  0  0  0  0  0  0  0  0  0
   36.8540   31.2370   48.1420 N   0  0  0  0  0  0  0  0  0  0  0  0
   36.4030   30.3460   49.0410 C   0  0  0  0  0  0  0  0  0  0  0  0
   36.9650   30.1060   50.2830 N   0  0  0  0  0  0  0  0  0  0  0  0
   31.6980   28.7060   45.8440 C   0  0  0  0  0  0  0  0  0  0  0  0
   30.6800   27.8490   47.9800 C   0  0  0  0  0  0  0  0  0  0  0  0
   29.9360   26.7120   47.8800 O   0  0  0  0  0  0  0  0  0  0  0  0
   29.1710   26.4410   46.7700 C   0  0  0  0  0  0  0  0  0  0  0  0
   28.9040   25.3920   45.9300 C   0  0  0  0  0  0  0  0  0  0  0  0
   28.0080   25.8390   44.9900 C   0  0  0  0  0  0  0  0  0  0  0  0
   27.7620   27.1700   45.3030 C   0  0  0  0  0  0  0  0  0  0  0  0
   28.4650   27.4730   46.3520 O   0  0  0  0  0  0  0  0  0  0  0  0
   26.8430   28.0090   44.5170 C   0  0  0  0  0  0  0  0  0  0  0  0
   25.7650   27.4950   43.8380 C   0  0  0  0  0  0  0  0  0  0  0  0
   25.0110   28.4360   43.1520 C   0  0  0  0  0  0  0  0  0  0  0  0
   25.2960   29.7510   43.1400 N   0  0  0  0  0  0  0  0  0  0  0  0
   26.3460   30.2200   43.8070 C   0  0  0  0  0  0  0  0  0  0  0  0
   27.1020   29.3330   44.4860 N   0  0  0  0  0  0  0  0  0  0  0  0
   31.9603   26.8661   46.5984 H   0  0  0  0  0  0  0  0  0  0  0  0
   35.3269   27.9034   50.1523 H   0  0  0  0  0  0  0  0  0  0  0  0
   33.2994   26.7987   49.2544 H   0  0  0  0  0  0  0  0  0  0  0  0
   38.5627   30.7462   51.5030 H   0  0  0  0  0  0  0  0  0  0  0  0
   39.4825   32.4246   49.9104 H   0  0  0  0  0  0  0  0  0  0  0  0
   38.3295   32.7241   47.6970 H   0  0  0  0  0  0  0  0  0  0  0  0
   31.4952   29.7425   46.1515 H   0  0  0  0  0  0  0  0  0  0  0  0
   32.6192   28.6752   45.2436 H   0  0  0  0  0  0  0  0  0  0  0  0
   30.8563   28.3303   45.2436 H   0  0  0  0  0  0  0  0  0  0  0  0
   31.0644   27.9265   49.0077 H   0  0  0  0  0  0  0  0  0  0  0  0
   30.0246   28.6934   47.7203 H   0  0  0  0  0  0  0  0  0  0  0  0
   29.3286   24.3794   45.9962 H   0  0  0  0  0  0  0  0  0  0  0  0
   27.5743   25.2619   44.1600 H   0  0  0  0  0  0  0  0  0  0  0  0
   25.5193   26.4228   43.8382 H   0  0  0  0  0  0  0  0  0  0  0  0
   24.1331   28.0885   42.5876 H   0  0  0  0  0  0  0  0  0  0  0  0
   26.5895   31.2927   43.8052 H   0  0  0  0  0  0  0  0  0  0  0  0
  1  5  1  0
  1 14  1  0
  2 11  1  0
  2  3  2  0
  4  3  1  0
  5  4  2  0
  6  5  1  0
  6  2  1  0
  8  7  2  0
  9  8  1  0
 10  9  2  0
 10 11  1  0
 11 12  2  0
 12  7  1  0
 13  1  1  0
 15 14  1  0
 16 15  1  0
 17 16  2  0
 18 19  2  0
 18 17  1  0
 19 20  1  0
 20 16  1  0
 21 19  1  0
 22 21  2  0
 23 22  1  0
 24 23  2  0
 24 25  1  0
 25 26  2  0
 26 21  1  0
  1 27  1  6
  3 28  1  0
  4 29  1  0
  7 30  1  0
  8 31  1  0
  9 32  1  0
 13 33  1  0
 13 34  1  0
 13 35  1  0
 14 36  1  0
 14 37  1  0
 17 38  1  0
 18 39  1  0
 22 40  1  0
 23 41  1  0
 25 42  1  0
M  ISO  8  27   8  28  14  29  14  30  14  31  14  32  14  33   8  34   8
M  ISO  8  35   8  36   8  37   8  38  14  39  14  40  14  41  14  42  14
M  END
>  <minimizedAffinity>  (1) 
-5.23719311

>  <minimizedRMSD>  (1) 
0.264890134

$$$$
