
     RDKit          3D

 35 37  0  0  1  0  0  0  0  0999 V2000
   31.7950   28.0010   46.9770 C   0  0  2  0  0  0  0  0  0  0  0  0
   35.1600   29.5440   48.6530 C   0  0  0  0  0  0  0  0  0  0  0  0
   34.7410   28.3480   49.2370 C   0  0  0  0  0  0  0  0  0  0  0  0
   33.6240   27.7820   48.7400 C   0  0  0  0  0  0  0  0  0  0  0  0
   33.0060   28.3830   47.7510 C   0  0  0  0  0  0  0  0  0  0  0  0
   33.9500   29.8950   47.3620 S   0  0  0  0  0  0  0  0  0  0  0  0
   38.0430   30.8580   50.5130 C   0  0  0  0  0  0  0  0  0  0  0  0
   38.5890   31.8060   49.6280 C   0  0  0  0  0  0  0  0  0  0  0  0
   37.9600   31.9810   48.4180 C   0  0  0  0  0  0  0  0  0  0  0  0
   36.8560   31.2450   48.1280 N   0  0  0  0  0  0  0  0  0  0  0  0
   36.3840   30.3540   49.0160 C   0  0  0  0  0  0  0  0  0  0  0  0
   36.9360   30.1000   50.2590 N   0  0  0  0  0  0  0  0  0  0  0  0
   31.5720   28.9220   45.8850 C   0  0  0  0  0  0  0  0  0  0  0  0
   30.6420   27.8420   47.9640 C   0  0  0  0  0  0  0  0  0  0  0  0
   29.9840   26.6660   47.8360 O   0  0  0  0  0  0  0  0  0  0  0  0
   29.2150   26.3650   46.7320 C   0  0  0  0  0  0  0  0  0  0  0  0
   29.0860   25.3690   45.7930 C   0  0  0  0  0  0  0  0  0  0  0  0
   28.0620   25.7560   44.9510 C   0  0  0  0  0  0  0  0  0  0  0  0
   27.6160   26.9690   45.4170 C   0  0  0  0  0  0  0  0  0  0  0  0
   28.3320   27.2830   46.4710 O   0  0  0  0  0  0  0  0  0  0  0  0
   26.5700   27.6570   44.7880 O   0  0  0  0  0  0  0  0  0  0  0  0
   31.9122   27.0313   46.4711 H   0  0  0  0  0  0  0  0  0  0  0  0
   35.2980   27.8877   50.0664 H   0  0  0  0  0  0  0  0  0  0  0  0
   33.2392   26.8382   49.1537 H   0  0  0  0  0  0  0  0  0  0  0  0
   38.5453   30.7171   51.4814 H   0  0  0  0  0  0  0  0  0  0  0  0
   39.4854   32.3853   49.8942 H   0  0  0  0  0  0  0  0  0  0  0  0
   38.3474   32.7104   47.6915 H   0  0  0  0  0  0  0  0  0  0  0  0
   31.3311   29.9169   46.2878 H   0  0  0  0  0  0  0  0  0  0  0  0
   32.4805   28.9863   45.2682 H   0  0  0  0  0  0  0  0  0  0  0  0
   30.7347   28.5636   45.2682 H   0  0  0  0  0  0  0  0  0  0  0  0
   31.0456   27.9065   48.9852 H   0  0  0  0  0  0  0  0  0  0  0  0
   29.9193   28.6436   47.7516 H   0  0  0  0  0  0  0  0  0  0  0  0
   29.6809   24.4462   45.7257 H   0  0  0  0  0  0  0  0  0  0  0  0
   27.6796   25.2030   44.0804 H   0  0  0  0  0  0  0  0  0  0  0  0
   26.2672   28.5298   45.1437 H   0  0  0  0  0  0  0  0  0  0  0  0
  1  5  1  0
  1 14  1  0
  2 11  1  0
  2  3  2  0
  4  3  1  0
  5  4  2  0
  6  5  1  0
  6  2  1  0
  8  7  2  0
  9  8  1  0
 10  9  2  0
 10 11  1  0
 11 12  2  0
 12  7  1  0
 13  1  1  0
 15 14  1  0
 16 15  1  0
 17 16  2  0
 18 19  2  0
 18 17  1  0
 19 20  1  0
 20 16  1  0
 21 19  1  0
  1 22  1  6
  3 23  1  0
  4 24  1  0
  7 25  1  0
  8 26  1  0
  9 27  1  0
 13 28  1  0
 13 29  1  0
 13 30  1  0
 14 31  1  0
 14 32  1  0
 17 33  1  0
 18 34  1  0
 21 35  1  0
M  ISO  8  22   8  23  14  24  14  25  14  26  14  27  14  28   8  29   8
M  ISO  6  30   8  31   8  32   8  33  14  34  14  35   3
M  END
>  <minimizedAffinity>  (1) 
-4.65667677

>  <minimizedRMSD>  (1) 
0.0612495281

$$$$
