
     RDKit          3D

 39 41  0  0  1  0  0  0  0  0999 V2000
   38.3580   31.4230   46.7360 C   0  0  2  0  0  0  0  0  0  0  0  0
   38.9220   32.7210   47.3030 C   0  0  0  0  0  0  0  0  0  0  0  0
   40.0550   33.1290   46.4010 C   0  0  0  0  0  0  0  0  0  0  0  0
   39.6290   33.3020   44.9980 C   0  0  0  0  0  0  0  0  0  0  0  0
   38.3360   32.7280   44.5700 C   0  0  0  0  0  0  0  0  0  0  0  0
   37.7950   31.6050   45.4230 C   0  0  1  0  0  0  0  0  0  0  0  0
   37.9830   30.4070   44.5900 N   0  0  0  0  0  0  0  0  0  0  0  0
   37.0120   29.8230   43.8580 C   0  0  0  0  0  0  0  0  0  0  0  0
   37.1070   28.7160   43.0500 C   0  0  0  0  0  0  0  0  0  0  0  0
   35.9560   28.1770   42.2980 C   0  0  0  0  0  0  0  0  0  0  0  0
   38.3510   28.1290   42.9800 C   0  0  0  0  0  0  0  0  0  0  0  0
   38.5000   27.1130   42.2570 O   0  0  0  0  0  0  0  0  0  0  0  0
   39.3450   28.6760   43.6910 N   0  0  0  0  0  0  0  0  0  0  0  0
   39.1500   29.7640   44.4540 C   0  0  0  0  0  0  0  0  0  0  0  0
   40.1850   30.1240   45.0320 O   0  0  0  0  0  0  0  0  0  0  0  0
   37.9460   30.3220   48.9040 C   0  0  0  0  0  0  0  0  0  0  0  0
   37.4630   30.7680   47.6740 C   0  0  0  0  0  0  0  0  0  0  0  0
   36.1450   30.5110   47.3300 C   0  0  0  0  0  0  0  0  0  0  0  0
   35.3480   29.8270   48.1950 N   0  0  0  0  0  0  0  0  0  0  0  0
   35.8480   29.3990   49.3990 C   0  0  0  0  0  0  0  0  0  0  0  0
   37.1350   29.6480   49.7410 N   0  0  0  0  0  0  0  0  0  0  0  0
   39.1989   30.7277   46.5962 H   0  0  0  0  0  0  0  0  0  0  0  0
   38.1453   33.4999   47.3125 H   0  0  0  0  0  0  0  0  0  0  0  0
   39.2691   32.5836   48.3377 H   0  0  0  0  0  0  0  0  0  0  0  0
   40.4687   34.0815   46.7637 H   0  0  0  0  0  0  0  0  0  0  0  0
   40.8060   32.3256   46.4248 H   0  0  0  0  0  0  0  0  0  0  0  0
   39.5817   34.3840   44.8057 H   0  0  0  0  0  0  0  0  0  0  0  0
   40.3751   32.7351   44.4219 H   0  0  0  0  0  0  0  0  0  0  0  0
   37.5920   33.5382   44.5690 H   0  0  0  0  0  0  0  0  0  0  0  0
   38.5212   32.2855   43.5801 H   0  0  0  0  0  0  0  0  0  0  0  0
   36.7524   31.8395   45.6837 H   0  0  0  0  0  0  0  0  0  0  0  0
   36.0188   30.2924   43.9153 H   0  0  0  0  0  0  0  0  0  0  0  0
   35.1920   27.8192   43.0038 H   0  0  0  0  0  0  0  0  0  0  0  0
   35.5285   28.9685   41.6650 H   0  0  0  0  0  0  0  0  0  0  0  0
   36.2902   27.3418   41.6650 H   0  0  0  0  0  0  0  0  0  0  0  0
   40.2828   28.2518   43.6518 H   0  0  0  0  0  0  0  0  0  0  0  0
   38.9893   30.5209   49.1902 H   0  0  0  0  0  0  0  0  0  0  0  0
   35.7465   30.8574   46.3650 H   0  0  0  0  0  0  0  0  0  0  0  0
   35.1971   28.8480   50.0937 H   0  0  0  0  0  0  0  0  0  0  0  0
  1  2  1  0
  1 17  1  0
  3  2  1  0
  4  3  1  0
  5  4  1  0
  5  6  1  0
  6  1  1  0
  7  6  1  0
  8  7  1  0
  9  8  2  0
 10  9  1  0
 11  9  1  0
 11 13  1  0
 12 11  2  0
 13 14  1  0
 14  7  1  0
 14 15  2  0
 16 21  2  0
 17 16  1  0
 18 17  2  0
 18 19  1  0
 19 20  2  0
 20 21  1  0
  1 22  1  6
  2 23  1  0
  2 24  1  0
  3 25  1  0
  3 26  1  0
  4 27  1  0
  4 28  1  0
  5 29  1  0
  5 30  1  0
  6 31  1  1
  8 32  1  0
 10 33  1  0
 10 34  1  0
 10 35  1  0
 13 36  1  0
 16 37  1  0
 18 38  1  0
 20 39  1  0
M  ISO  8  22  13  23  13  24  13  25  13  26  13  27  13  28  13  29  13
M  ISO  8  30  13  31  13  32  14  33   8  34   8  35   8  36   9  37  14
M  ISO  2  38  14  39  14
M  END
>  <minimizedAffinity>  (1) 
-5.39155436

>  <minimizedRMSD>  (1) 
2.06700969

$$$$
