
     RDKit          3D

 33 35  0  0  1  0  0  0  0  0999 V2000
   39.3020   31.4040   46.6920 C   0  0  2  0  0  0  0  0  0  0  0  0
   39.7730   32.6980   46.1190 C   0  0  0  0  0  0  0  0  0  0  0  0
   40.9390   32.3560   45.1820 C   0  0  0  0  0  0  0  0  0  0  0  0
   40.4530   31.4990   44.0800 C   0  0  0  0  0  0  0  0  0  0  0  0
   39.5640   30.3780   44.4660 C   0  0  0  0  0  0  0  0  0  0  0  0
   38.6260   30.6200   45.6060 C   0  0  2  0  0  0  0  0  0  0  0  0
   38.2580   32.7530   48.5180 C   0  0  0  0  0  0  0  0  0  0  0  0
   38.4540   31.5330   47.8570 C   0  0  0  0  0  0  0  0  0  0  0  0
   37.8180   30.4130   48.3640 C   0  0  0  0  0  0  0  0  0  0  0  0
   37.0330   30.5330   49.4730 N   0  0  0  0  0  0  0  0  0  0  0  0
   36.8700   31.7240   50.0800 C   0  0  0  0  0  0  0  0  0  0  0  0
   37.4780   32.8110   49.6000 N   0  0  0  0  0  0  0  0  0  0  0  0
   37.3500   31.2100   45.1010 C   0  0  0  0  0  0  0  0  0  0  0  0
   36.1000   30.3460   45.0420 C   0  0  0  0  0  0  0  0  0  0  0  0
   36.7280   30.9600   43.8120 C   0  0  0  0  0  0  0  0  0  0  0  0
   40.1887   30.8700   47.0643 H   0  0  0  0  0  0  0  0  0  0  0  0
   38.9618   33.1828   45.5561 H   0  0  0  0  0  0  0  0  0  0  0  0
   40.0874   33.3944   46.9103 H   0  0  0  0  0  0  0  0  0  0  0  0
   41.3593   33.2838   44.7665 H   0  0  0  0  0  0  0  0  0  0  0  0
   41.7167   31.8205   45.7462 H   0  0  0  0  0  0  0  0  0  0  0  0
   41.3317   31.0718   43.5746 H   0  0  0  0  0  0  0  0  0  0  0  0
   39.8400   32.1555   43.4450 H   0  0  0  0  0  0  0  0  0  0  0  0
   38.9575   30.1167   43.5863 H   0  0  0  0  0  0  0  0  0  0  0  0
   40.2397   29.5829   44.8143 H   0  0  0  0  0  0  0  0  0  0  0  0
   38.3447   29.6680   46.0800 H   0  0  0  0  0  0  0  0  0  0  0  0
   38.7477   33.6645   48.1447 H   0  0  0  0  0  0  0  0  0  0  0  0
   37.9445   29.4349   47.8769 H   0  0  0  0  0  0  0  0  0  0  0  0
   36.2339   31.8013   50.9741 H   0  0  0  0  0  0  0  0  0  0  0  0
   37.6754   32.1431   45.5842 H   0  0  0  0  0  0  0  0  0  0  0  0
   36.1628   29.2620   45.2179 H   0  0  0  0  0  0  0  0  0  0  0  0
   35.1065   30.3545   45.5140 H   0  0  0  0  0  0  0  0  0  0  0  0
   37.2339   30.3151   43.0784 H   0  0  0  0  0  0  0  0  0  0  0  0
   36.3573   31.6037   43.0007 H   0  0  0  0  0  0  0  0  0  0  0  0
  1  8  1  0
  2  1  1  0
  3  2  1  0
  4  5  1  0
  4  3  1  0
  5  6  1  0
  6  1  1  0
  7 12  2  0
  8  9  2  0
  8  7  1  0
  9 10  1  0
 10 11  2  0
 12 11  1  0
 13  6  1  0
 14 13  1  0
 15 14  1  0
 15 13  1  0
  1 16  1  1
  2 17  1  0
  2 18  1  0
  3 19  1  0
  3 20  1  0
  4 21  1  0
  4 22  1  0
  5 23  1  0
  5 24  1  0
  6 25  1  1
  7 26  1  0
  9 27  1  0
 11 28  1  0
 13 29  1  0
 14 30  1  0
 14 31  1  0
 15 32  1  0
 15 33  1  0
M  ISO  8  16  13  17  13  18  13  19  13  20  13  21  13  22  13  23  13
M  ISO  8  24  13  25  13  26  14  27  14  28  14  29  13  30  13  31  13
M  ISO  2  32  13  33  13
M  END
>  <minimizedAffinity>  (1) 
-5.15143776

>  <minimizedRMSD>  (1) 
2.40283298

$$$$
