
     RDKit          3D

 39 41  0  0  1  0  0  0  0  0999 V2000
   38.4590   31.3810   46.9570 C   0  0  2  0  0  0  0  0  0  0  0  0
   38.9860   32.7240   47.3700 C   0  0  0  0  0  0  0  0  0  0  0  0
   40.1000   33.0960   46.3940 C   0  0  0  0  0  0  0  0  0  0  0  0
   39.6200   33.0960   45.0150 C   0  0  0  0  0  0  0  0  0  0  0  0
   38.2380   32.5700   44.7500 C   0  0  0  0  0  0  0  0  0  0  0  0
   37.7870   31.4700   45.6620 C   0  0  1  0  0  0  0  0  0  0  0  0
   38.0670   30.3950   49.2410 C   0  0  0  0  0  0  0  0  0  0  0  0
   37.5840   30.7830   47.9820 C   0  0  0  0  0  0  0  0  0  0  0  0
   36.2260   30.5860   47.7020 C   0  0  0  0  0  0  0  0  0  0  0  0
   35.4410   30.0290   48.6600 N   0  0  0  0  0  0  0  0  0  0  0  0
   35.9540   29.6680   49.8700 C   0  0  0  0  0  0  0  0  0  0  0  0
   37.2460   29.8500   50.1460 N   0  0  0  0  0  0  0  0  0  0  0  0
   37.7890   30.2700   44.8700 N   0  0  0  0  0  0  0  0  0  0  0  0
   39.0750   29.6850   44.6570 C   0  0  0  0  0  0  0  0  0  0  0  0
   39.4520   29.5500   43.2080 C   0  0  0  0  0  0  0  0  0  0  0  0
   38.4750   28.9230   42.4510 O   0  0  0  0  0  0  0  0  0  0  0  0
   37.2090   28.9360   43.0190 C   0  0  0  0  0  0  0  0  0  0  0  0
   36.9280   30.2550   43.7480 C   0  0  0  0  0  0  0  0  0  0  0  0
   39.3209   30.7054   46.8533 H   0  0  0  0  0  0  0  0  0  0  0  0
   38.1819   33.4733   47.3263 H   0  0  0  0  0  0  0  0  0  0  0  0
   39.3673   32.6917   48.4013 H   0  0  0  0  0  0  0  0  0  0  0  0
   40.4740   34.1000   46.6431 H   0  0  0  0  0  0  0  0  0  0  0  0
   40.9023   32.3486   46.4821 H   0  0  0  0  0  0  0  0  0  0  0  0
   39.6481   34.1363   44.6587 H   0  0  0  0  0  0  0  0  0  0  0  0
   40.2864   32.3944   44.4918 H   0  0  0  0  0  0  0  0  0  0  0  0
   37.5307   33.4065   44.8504 H   0  0  0  0  0  0  0  0  0  0  0  0
   38.2657   32.1360   43.7396 H   0  0  0  0  0  0  0  0  0  0  0  0
   36.7716   31.6850   46.0264 H   0  0  0  0  0  0  0  0  0  0  0  0
   39.1295   30.5401   49.4860 H   0  0  0  0  0  0  0  0  0  0  0  0
   35.8047   30.8759   46.7281 H   0  0  0  0  0  0  0  0  0  0  0  0
   35.2942   29.2210   50.6283 H   0  0  0  0  0  0  0  0  0  0  0  0
   39.8281   30.3147   45.1533 H   0  0  0  0  0  0  0  0  0  0  0  0
   39.0347   28.6670   45.0719 H   0  0  0  0  0  0  0  0  0  0  0  0
   39.6241   30.5550   42.7954 H   0  0  0  0  0  0  0  0  0  0  0  0
   40.3567   28.9262   43.1599 H   0  0  0  0  0  0  0  0  0  0  0  0
   36.4604   28.8014   42.2244 H   0  0  0  0  0  0  0  0  0  0  0  0
   37.1547   28.1196   43.7542 H   0  0  0  0  0  0  0  0  0  0  0  0
   37.1432   31.1093   43.0894 H   0  0  0  0  0  0  0  0  0  0  0  0
   35.8727   30.3331   44.0482 H   0  0  0  0  0  0  0  0  0  0  0  0
  1  2  1  0
  1  8  1  0
  3  2  1  0
  4  3  1  0
  5  4  1  0
  5  6  1  0
  6  1  1  0
  7 12  2  0
  8  7  1  0
  9  8  2  0
  9 10  1  0
 10 11  2  0
 11 12  1  0
 13  6  1  0
 14 13  1  0
 15 14  1  0
 16 17  1  0
 16 15  1  0
 17 18  1  0
 18 13  1  0
  1 19  1  6
  2 20  1  0
  2 21  1  0
  3 22  1  0
  3 23  1  0
  4 24  1  0
  4 25  1  0
  5 26  1  0
  5 27  1  0
  6 28  1  1
  7 29  1  0
  9 30  1  0
 11 31  1  0
 14 32  1  0
 14 33  1  0
 15 34  1  0
 15 35  1  0
 17 36  1  0
 17 37  1  0
 18 38  1  0
 18 39  1  0
M  ISO  8  19  13  20  13  21  13  22  13  23  13  24  13  25  13  26  13
M  ISO  8  27  13  28  13  29  14  30  14  31  14  32  13  33  13  34  13
M  ISO  5  35  13  36  13  37  13  38  13  39  13
M  END
>  <minimizedAffinity>  (1) 
-5.04917288

>  <minimizedRMSD>  (1) 
1.48065937

$$$$
