
     RDKit          3D

 32 33  0  0  1  0  0  0  0  0999 V2000
   39.3170   31.3860   46.6890 C   0  0  2  0  0  0  0  0  0  0  0  0
   39.8350   32.6760   46.1580 C   0  0  0  0  0  0  0  0  0  0  0  0
   40.8880   32.3940   45.1150 C   0  0  0  0  0  0  0  0  0  0  0  0
   40.2860   31.6370   43.9840 C   0  0  0  0  0  0  0  0  0  0  0  0
   39.5310   30.4250   44.4120 C   0  0  0  0  0  0  0  0  0  0  0  0
   38.6160   30.6430   45.6000 C   0  0  2  0  0  0  0  0  0  0  0  0
   38.2870   32.7420   48.5160 C   0  0  0  0  0  0  0  0  0  0  0  0
   38.4570   31.5230   47.8510 C   0  0  0  0  0  0  0  0  0  0  0  0
   37.7810   30.4240   48.3360 C   0  0  0  0  0  0  0  0  0  0  0  0
   36.9790   30.5580   49.4360 N   0  0  0  0  0  0  0  0  0  0  0  0
   36.8380   31.7600   50.0570 C   0  0  0  0  0  0  0  0  0  0  0  0
   37.4890   32.8270   49.5930 N   0  0  0  0  0  0  0  0  0  0  0  0
   37.3940   31.3310   45.0770 C   0  0  0  0  0  0  0  0  0  0  0  0
   36.2430   30.3770   44.8370 C   0  0  0  0  0  0  0  0  0  0  0  0
   40.1914   30.8180   47.0394 H   0  0  0  0  0  0  0  0  0  0  0  0
   39.0103   33.2451   45.7042 H   0  0  0  0  0  0  0  0  0  0  0  0
   40.2736   33.2644   46.9774 H   0  0  0  0  0  0  0  0  0  0  0  0
   41.2965   33.3447   44.7419 H   0  0  0  0  0  0  0  0  0  0  0  0
   41.6941   31.7958   45.5647 H   0  0  0  0  0  0  0  0  0  0  0  0
   41.0939   31.3224   43.3070 H   0  0  0  0  0  0  0  0  0  0  0  0
   39.5664   32.3086   43.4929 H   0  0  0  0  0  0  0  0  0  0  0  0
   38.9184   30.0844   43.5642 H   0  0  0  0  0  0  0  0  0  0  0  0
   40.2805   29.6835   44.7257 H   0  0  0  0  0  0  0  0  0  0  0  0
   38.3166   29.6950   46.0709 H   0  0  0  0  0  0  0  0  0  0  0  0
   38.8114   33.6386   48.1537 H   0  0  0  0  0  0  0  0  0  0  0  0
   37.8857   29.4466   47.8422 H   0  0  0  0  0  0  0  0  0  0  0  0
   36.1884   31.8515   50.9400 H   0  0  0  0  0  0  0  0  0  0  0  0
   37.0764   32.0884   45.8088 H   0  0  0  0  0  0  0  0  0  0  0  0
   37.6566   31.7843   44.1097 H   0  0  0  0  0  0  0  0  0  0  0  0
   35.8377   30.0411   45.8029 H   0  0  0  0  0  0  0  0  0  0  0  0
   35.4544   30.8899   44.2669 H   0  0  0  0  0  0  0  0  0  0  0  0
   36.6007   29.5069   44.2669 H   0  0  0  0  0  0  0  0  0  0  0  0
  1  8  1  0
  2  1  1  0
  3  2  1  0
  4  5  1  0
  4  3  1  0
  5  6  1  0
  6  1  1  0
  7 12  2  0
  8  9  2  0
  8  7  1  0
  9 10  1  0
 10 11  2  0
 12 11  1  0
 13  6  1  0
 14 13  1  0
  1 15  1  1
  2 16  1  0
  2 17  1  0
  3 18  1  0
  3 19  1  0
  4 20  1  0
  4 21  1  0
  5 22  1  0
  5 23  1  0
  6 24  1  1
  7 25  1  0
  9 26  1  0
 11 27  1  0
 13 28  1  0
 13 29  1  0
 14 30  1  0
 14 31  1  0
 14 32  1  0
M  ISO  8  15  13  16  13  17  13  18  13  19  13  20  13  21  13  22  13
M  ISO  8  23  13  24  13  25  14  26  14  27  14  28   8  29   8  30   8
M  ISO  2  31   8  32   8
M  END
>  <minimizedAffinity>  (1) 
-4.97199726

>  <minimizedRMSD>  (1) 
2.26306009

$$$$
