
     RDKit          3D

 29 30  0  0  1  0  0  0  0  0999 V2000
   39.3740   31.3890   46.6770 C   0  0  2  0  0  0  0  0  0  0  0  0
   39.8550   32.6400   46.0770 C   0  0  0  0  0  0  0  0  0  0  0  0
   40.9040   32.3590   45.0380 C   0  0  0  0  0  0  0  0  0  0  0  0
   40.4010   31.4290   43.9990 C   0  0  0  0  0  0  0  0  0  0  0  0
   39.6470   30.2490   44.5020 C   0  0  0  0  0  0  0  0  0  0  0  0
   38.6390   30.6090   45.5880 C   0  0  2  0  0  0  0  0  0  0  0  0
   38.3870   32.7820   48.5610 C   0  0  0  0  0  0  0  0  0  0  0  0
   38.4880   31.5750   47.8180 C   0  0  0  0  0  0  0  0  0  0  0  0
   37.6980   30.5140   48.1870 C   0  0  0  0  0  0  0  0  0  0  0  0
   36.8490   30.6770   49.2590 N   0  0  0  0  0  0  0  0  0  0  0  0
   36.7760   31.8520   49.9520 C   0  0  0  0  0  0  0  0  0  0  0  0
   37.5530   32.9040   49.5940 N   0  0  0  0  0  0  0  0  0  0  0  0
   37.6020   31.4520   44.9120 C   0  0  0  0  0  0  0  0  0  0  0  0
   36.7600   31.1000   44.0160 O   0  0  0  0  0  0  0  0  0  0  0  0
   37.5980   32.7650   45.3460 O   0  0  0  0  0  0  0  0  0  0  0  0
   40.2502   30.8494   47.0657 H   0  0  0  0  0  0  0  0  0  0  0  0
   39.0100   33.1631   45.6054 H   0  0  0  0  0  0  0  0  0  0  0  0
   40.2966   33.2654   46.8668 H   0  0  0  0  0  0  0  0  0  0  0  0
   41.1966   33.3054   44.5598 H   0  0  0  0  0  0  0  0  0  0  0  0
   41.7660   31.8896   45.5346 H   0  0  0  0  0  0  0  0  0  0  0  0
   41.2658   31.0597   43.4283 H   0  0  0  0  0  0  0  0  0  0  0  0
   39.6855   32.0089   43.3975 H   0  0  0  0  0  0  0  0  0  0  0  0
   39.1073   29.7919   43.6595 H   0  0  0  0  0  0  0  0  0  0  0  0
   40.3764   29.5550   44.9450 H   0  0  0  0  0  0  0  0  0  0  0  0
   38.1687   29.7335   46.0595 H   0  0  0  0  0  0  0  0  0  0  0  0
   39.0143   33.6395   48.2760 H   0  0  0  0  0  0  0  0  0  0  0  0
   37.7422   29.5600   47.6412 H   0  0  0  0  0  0  0  0  0  0  0  0
   36.0850   31.9450   50.8028 H   0  0  0  0  0  0  0  0  0  0  0  0
   36.9515   33.4105   44.9645 H   0  0  0  0  0  0  0  0  0  0  0  0
  1  8  1  0
  2  1  1  0
  3  2  1  0
  4  5  1  0
  4  3  1  0
  5  6  1  0
  6  1  1  0
  7 12  2  0
  8  9  2  0
  8  7  1  0
  9 10  1  0
 10 11  2  0
 12 11  1  0
 13 15  1  0
 13  6  1  0
 14 13  2  0
  1 16  1  1
  2 17  1  0
  2 18  1  0
  3 19  1  0
  3 20  1  0
  4 21  1  0
  4 22  1  0
  5 23  1  0
  5 24  1  0
  6 25  1  1
  7 26  1  0
  9 27  1  0
 11 28  1  0
 15 29  1  0
M  ISO  8  16  13  17  13  18  13  19  13  20  13  21  13  22  13  23  13
M  ISO  6  24  13  25  13  26  14  27  14  28  14  29   3
M  END
>  <minimizedAffinity>  (1) 
-5.44211054

>  <minimizedRMSD>  (1) 
2.34477043

$$$$
