
     RDKit          3D

 36 38  0  0  1  0  0  0  0  0999 V2000
   39.4080   31.4450   46.7040 C   0  0  2  0  0  0  0  0  0  0  0  0
   39.8050   32.6810   46.0770 C   0  0  0  0  0  0  0  0  0  0  0  0
   40.7810   32.5060   44.9610 C   0  0  0  0  0  0  0  0  0  0  0  0
   40.3900   31.4550   44.0000 C   0  0  0  0  0  0  0  0  0  0  0  0
   39.8380   30.2310   44.6060 C   0  0  0  0  0  0  0  0  0  0  0  0
   38.7820   30.5210   45.7030 C   0  0  2  0  0  0  0  0  0  0  0  0
   38.3170   32.8390   48.5450 C   0  0  0  0  0  0  0  0  0  0  0  0
   38.5340   31.6000   47.8620 C   0  0  0  0  0  0  0  0  0  0  0  0
   37.8800   30.4860   48.2940 C   0  0  0  0  0  0  0  0  0  0  0  0
   37.0380   30.6130   49.3730 N   0  0  0  0  0  0  0  0  0  0  0  0
   36.8490   31.8170   50.0100 C   0  0  0  0  0  0  0  0  0  0  0  0
   37.5010   32.9350   49.5820 N   0  0  0  0  0  0  0  0  0  0  0  0
   37.6510   31.1590   45.0030 C   0  0  0  0  0  0  0  0  0  0  0  0
   37.4220   32.4070   44.8580 O   0  0  0  0  0  0  0  0  0  0  0  0
   36.7650   30.2710   44.4610 O   0  0  0  0  0  0  0  0  0  0  0  0
   33.2620   30.6420   44.9950 N   0  0  0  0  0  0  0  0  0  0  0  0
   34.3450   30.7680   44.2230 N   0  0  0  0  0  0  0  0  0  0  0  0
   35.4240   30.3170   44.9060 C   0  0  0  0  0  0  0  0  0  0  0  0
   35.0260   29.8850   46.1640 C   0  0  0  0  0  0  0  0  0  0  0  0
   33.6450   30.1070   46.1850 C   0  0  0  0  0  0  0  0  0  0  0  0
   40.3399   31.0084   47.0924 H   0  0  0  0  0  0  0  0  0  0  0  0
   38.9052   33.1711   45.6768 H   0  0  0  0  0  0  0  0  0  0  0  0
   40.3062   33.2842   46.8484 H   0  0  0  0  0  0  0  0  0  0  0  0
   40.8662   33.4596   44.4194 H   0  0  0  0  0  0  0  0  0  0  0  0
   41.7362   32.1965   45.4102 H   0  0  0  0  0  0  0  0  0  0  0  0
   41.2810   31.1759   43.4185 H   0  0  0  0  0  0  0  0  0  0  0  0
   39.5844   31.8842   43.3862 H   0  0  0  0  0  0  0  0  0  0  0  0
   39.3655   29.6305   43.8147 H   0  0  0  0  0  0  0  0  0  0  0  0
   40.6715   29.6964   45.0850 H   0  0  0  0  0  0  0  0  0  0  0  0
   38.4364   29.6244   46.2384 H   0  0  0  0  0  0  0  0  0  0  0  0
   38.8449   33.7391   48.1970 H   0  0  0  0  0  0  0  0  0  0  0  0
   38.0212   29.5157   47.7953 H   0  0  0  0  0  0  0  0  0  0  0  0
   36.1670   31.8783   50.8709 H   0  0  0  0  0  0  0  0  0  0  0  0
   32.3011   30.9051   44.7335 H   0  0  0  0  0  0  0  0  0  0  0  0
   35.6540   29.4638   46.9628 H   0  0  0  0  0  0  0  0  0  0  0  0
   32.9759   29.8844   47.0292 H   0  0  0  0  0  0  0  0  0  0  0  0
  1  8  1  0
  2  1  1  0
  3  2  1  0
  4  5  1  0
  4  3  1  0
  5  6  1  0
  6  1  1  0
  7 12  2  0
  8  9  2  0
  8  7  1  0
  9 10  1  0
 10 11  2  0
 12 11  1  0
 13  6  1  0
 14 13  2  0
 15 18  1  0
 15 13  1  0
 16 20  1  0
 17 18  2  0
 17 16  1  0
 18 19  1  0
 19 20  2  0
  1 21  1  1
  2 22  1  0
  2 23  1  0
  3 24  1  0
  3 25  1  0
  4 26  1  0
  4 27  1  0
  5 28  1  0
  5 29  1  0
  6 30  1  1
  7 31  1  0
  9 32  1  0
 11 33  1  0
 16 34  1  0
 19 35  1  0
 20 36  1  0
M  ISO  8  21  13  22  13  23  13  24  13  25  13  26  13  27  13  28  13
M  ISO  8  29  13  30  13  31  14  32  14  33  14  34   9  35  14  36  14
M  END
>  <minimizedAffinity>  (1) 
-5.34771967

>  <minimizedRMSD>  (1) 
2.46860552

$$$$
