
     RDKit          3D

 32 33  0  0  1  0  0  0  0  0999 V2000
   39.3480   31.4800   46.6800 C   0  0  2  0  0  0  0  0  0  0  0  0
   39.7150   32.7190   46.0450 C   0  0  0  0  0  0  0  0  0  0  0  0
   40.6920   32.5450   44.9260 C   0  0  0  0  0  0  0  0  0  0  0  0
   40.2740   31.5060   43.9560 C   0  0  0  0  0  0  0  0  0  0  0  0
   39.7630   30.2700   44.5770 C   0  0  0  0  0  0  0  0  0  0  0  0
   38.7160   30.5450   45.6890 C   0  0  2  0  0  0  0  0  0  0  0  0
   38.2970   32.8410   48.5670 C   0  0  0  0  0  0  0  0  0  0  0  0
   38.5010   31.6180   47.8560 C   0  0  0  0  0  0  0  0  0  0  0  0
   37.8550   30.5000   48.2840 C   0  0  0  0  0  0  0  0  0  0  0  0
   37.0340   30.5980   49.3780 N   0  0  0  0  0  0  0  0  0  0  0  0
   36.8570   31.7910   50.0410 C   0  0  0  0  0  0  0  0  0  0  0  0
   37.5020   32.9170   49.6210 N   0  0  0  0  0  0  0  0  0  0  0  0
   37.5620   31.1610   45.0150 C   0  0  0  0  0  0  0  0  0  0  0  0
   36.3610   30.7370   45.0010 O   0  0  0  0  0  0  0  0  0  0  0  0
   37.8720   32.3080   44.3450 O   0  0  0  0  0  0  0  0  0  0  0  0
   37.3010   32.5790   43.0500 C   0  0  0  0  0  0  0  0  0  0  0  0
   37.2730   31.3700   42.3620 F   0  0  0  0  0  0  0  0  0  0  0  0
   38.1270   33.4470   42.3800 F   0  0  0  0  0  0  0  0  0  0  0  0
   36.0100   33.0160   43.1760 F   0  0  0  0  0  0  0  0  0  0  0  0
   40.2941   31.0589   47.0508 H   0  0  0  0  0  0  0  0  0  0  0  0
   38.8047   33.1884   45.6436 H   0  0  0  0  0  0  0  0  0  0  0  0
   40.2023   33.3437   46.8081 H   0  0  0  0  0  0  0  0  0  0  0  0
   40.7917   33.5027   44.3942 H   0  0  0  0  0  0  0  0  0  0  0  0
   41.6467   32.2221   45.3668 H   0  0  0  0  0  0  0  0  0  0  0  0
   41.1428   31.2457   43.3335 H   0  0  0  0  0  0  0  0  0  0  0  0
   39.4447   31.9331   43.3730 H   0  0  0  0  0  0  0  0  0  0  0  0
   39.2935   29.6527   43.7969 H   0  0  0  0  0  0  0  0  0  0  0  0
   40.6162   29.7567   45.0446 H   0  0  0  0  0  0  0  0  0  0  0  0
   38.3908   29.6423   46.2269 H   0  0  0  0  0  0  0  0  0  0  0  0
   38.8180   33.7480   48.2266 H   0  0  0  0  0  0  0  0  0  0  0  0
   37.9881   29.5395   47.7646 H   0  0  0  0  0  0  0  0  0  0  0  0
   36.1910   31.8367   50.9153 H   0  0  0  0  0  0  0  0  0  0  0  0
  1  8  1  0
  2  1  1  0
  3  2  1  0
  4  5  1  0
  4  3  1  0
  5  6  1  0
  6  1  1  0
  7 12  2  0
  8  9  2  0
  8  7  1  0
  9 10  1  0
 10 11  2  0
 12 11  1  0
 13  6  1  0
 14 13  2  0
 15 13  1  0
 16 19  1  0
 16 15  1  0
 17 16  1  0
 18 16  1  0
  1 20  1  1
  2 21  1  0
  2 22  1  0
  3 23  1  0
  3 24  1  0
  4 25  1  0
  4 26  1  0
  5 27  1  0
  5 28  1  0
  6 29  1  1
  7 30  1  0
  9 31  1  0
 11 32  1  0
M  ISO  8  20  13  21  13  22  13  23  13  24  13  25  13  26  13  27  13
M  ISO  5  28  13  29  13  30  14  31  14  32  14
M  END
>  <minimizedAffinity>  (1) 
-5.24460745

>  <minimizedRMSD>  (1) 
1.20544875

$$$$
