
     RDKit          3D

 43 46  0  0  1  0  0  0  0  0999 V2000
   39.2470   30.8140   46.3170 C   0  0  2  0  0  0  0  0  0  0  0  0
   40.1690   31.7970   45.7890 C   0  0  0  0  0  0  0  0  0  0  0  0
   40.9900   31.3200   44.6350 C   0  0  0  0  0  0  0  0  0  0  0  0
   40.2190   30.5920   43.6140 C   0  0  0  0  0  0  0  0  0  0  0  0
   39.1860   29.6980   44.1300 C   0  0  0  0  0  0  0  0  0  0  0  0
   38.3170   30.3530   45.2620 C   0  0  2  0  0  0  0  0  0  0  0  0
   38.6680   32.5490   48.1300 C   0  0  0  0  0  0  0  0  0  0  0  0
   38.5030   31.2710   47.4900 C   0  0  0  0  0  0  0  0  0  0  0  0
   37.5870   30.4060   47.9780 C   0  0  0  0  0  0  0  0  0  0  0  0
   36.8550   30.8020   49.0710 N   0  0  0  0  0  0  0  0  0  0  0  0
   37.0340   32.0330   49.6660 C   0  0  0  0  0  0  0  0  0  0  0  0
   37.9540   32.9060   49.1780 N   0  0  0  0  0  0  0  0  0  0  0  0
   37.5820   31.4250   44.6060 C   0  0  0  0  0  0  0  0  0  0  0  0
   37.6180   32.6710   44.9190 O   0  0  0  0  0  0  0  0  0  0  0  0
   36.7980   31.0140   43.5800 O   0  0  0  0  0  0  0  0  0  0  0  0
   35.7130   31.8440   43.1820 C   0  0  0  0  0  0  0  0  0  0  0  0
   34.3810   31.4380   43.3120 C   0  0  0  0  0  0  0  0  0  0  0  0
   33.6350   32.4840   42.8310 C   0  0  0  0  0  0  0  0  0  0  0  0
   34.4720   33.4700   42.4320 N   0  0  0  0  0  0  0  0  0  0  0  0
   35.7100   33.0590   42.6540 N   0  0  0  0  0  0  0  0  0  0  0  0
   34.1130   34.6870   41.8910 C   0  0  0  0  0  0  0  0  0  0  0  0
   34.4590   35.9500   41.5310 C   0  0  0  0  0  0  0  0  0  0  0  0
   33.6080   36.8390   40.9690 C   0  0  0  0  0  0  0  0  0  0  0  0
   32.2430   36.3680   40.7560 C   0  0  0  0  0  0  0  0  0  0  0  0
   32.3080   34.6250   41.4040 S   0  0  0  0  0  0  0  0  0  0  0  0
   39.8665   29.9715   46.6582 H   0  0  0  0  0  0  0  0  0  0  0  0
   39.5878   32.6708   45.4592 H   0  0  0  0  0  0  0  0  0  0  0  0
   40.8749   32.0308   46.5996 H   0  0  0  0  0  0  0  0  0  0  0  0
   41.4574   32.1940   44.1579 H   0  0  0  0  0  0  0  0  0  0  0  0
   41.7295   30.6136   45.0401 H   0  0  0  0  0  0  0  0  0  0  0  0
   40.9237   29.9903   43.0213 H   0  0  0  0  0  0  0  0  0  0  0  0
   39.6916   31.3589   43.0277 H   0  0  0  0  0  0  0  0  0  0  0  0
   38.5230   29.4125   43.3000 H   0  0  0  0  0  0  0  0  0  0  0  0
   39.6942   28.8264   44.5682 H   0  0  0  0  0  0  0  0  0  0  0  0
   37.5959   29.6812   45.7506 H   0  0  0  0  0  0  0  0  0  0  0  0
   39.4149   33.2511   47.7311 H   0  0  0  0  0  0  0  0  0  0  0  0
   37.4328   29.4195   47.5164 H   0  0  0  0  0  0  0  0  0  0  0  0
   36.4282   32.3101   50.5413 H   0  0  0  0  0  0  0  0  0  0  0  0
   34.0105   30.4835   43.7142 H   0  0  0  0  0  0  0  0  0  0  0  0
   32.5367   32.5161   42.7782 H   0  0  0  0  0  0  0  0  0  0  0  0
   35.4964   36.2703   41.7075 H   0  0  0  0  0  0  0  0  0  0  0  0
   33.9253   37.8545   40.6897 H   0  0  0  0  0  0  0  0  0  0  0  0
   31.3893   36.9084   40.3211 H   0  0  0  0  0  0  0  0  0  0  0  0
  1  8  1  0
  2  1  1  0
  3  2  1  0
  4  5  1  0
  4  3  1  0
  5  6  1  0
  6  1  1  0
  7 12  2  0
  8  9  2  0
  8  7  1  0
  9 10  1  0
 10 11  2  0
 12 11  1  0
 13 14  2  0
 13  6  1  0
 15 13  1  0
 16 17  1  0
 16 15  1  0
 18 17  2  0
 19 20  1  0
 19 18  1  0
 20 16  2  0
 21 19  1  0
 22 21  2  0
 23 22  1  0
 24 23  2  0
 24 25  1  0
 25 21  1  0
  1 26  1  1
  2 27  1  0
  2 28  1  0
  3 29  1  0
  3 30  1  0
  4 31  1  0
  4 32  1  0
  5 33  1  0
  5 34  1  0
  6 35  1  1
  7 36  1  0
  9 37  1  0
 11 38  1  0
 17 39  1  0
 18 40  1  0
 22 41  1  0
 23 42  1  0
 24 43  1  0
M  ISO  8  26  13  27  13  28  13  29  13  30  13  31  13  32  13  33  13
M  ISO  8  34  13  35  13  36  14  37  14  38  14  39  14  40  14  41  14
M  ISO  2  42  14  43  14
M  END
>  <minimizedAffinity>  (1) 
-5.59150982

>  <minimizedRMSD>  (1) 
1.59951222

$$$$
