
     RDKit          3D

 48 50  0  0  1  0  0  0  0  0999 V2000
   39.3970   31.2180   46.6190 C   0  0  2  0  0  0  0  0  0  0  0  0
   40.0430   32.4060   46.1050 C   0  0  0  0  0  0  0  0  0  0  0  0
   41.0070   32.1560   44.9950 C   0  0  0  0  0  0  0  0  0  0  0  0
   40.4940   31.2470   43.9530 C   0  0  0  0  0  0  0  0  0  0  0  0
   39.7250   30.1090   44.4480 C   0  0  0  0  0  0  0  0  0  0  0  0
   38.6690   30.5100   45.5420 C   0  0  2  0  0  0  0  0  0  0  0  0
   38.4040   32.7120   48.4630 C   0  0  0  0  0  0  0  0  0  0  0  0
   38.5160   31.4630   47.7570 C   0  0  0  0  0  0  0  0  0  0  0  0
   37.7500   30.4180   48.1420 C   0  0  0  0  0  0  0  0  0  0  0  0
   36.8950   30.6100   49.2020 N   0  0  0  0  0  0  0  0  0  0  0  0
   36.8070   31.8190   49.8600 C   0  0  0  0  0  0  0  0  0  0  0  0
   37.5810   32.8800   49.4740 N   0  0  0  0  0  0  0  0  0  0  0  0
   37.6940   31.3390   44.8430 C   0  0  0  0  0  0  0  0  0  0  0  0
   37.4980   32.5940   45.0230 O   0  0  0  0  0  0  0  0  0  0  0  0
   36.9470   30.6750   43.9310 O   0  0  0  0  0  0  0  0  0  0  0  0
   35.7140   31.2390   43.5150 C   0  0  0  0  0  0  0  0  0  0  0  0
   34.4830   30.6770   43.8650 C   0  0  0  0  0  0  0  0  0  0  0  0
   33.5460   31.5020   43.2790 C   0  0  0  0  0  0  0  0  0  0  0  0
   34.1800   32.5120   42.6080 N   0  0  0  0  0  0  0  0  0  0  0  0
   35.4750   32.3190   42.7730 N   0  0  0  0  0  0  0  0  0  0  0  0
   33.5190   33.5710   41.8700 C   0  0  0  0  0  0  0  0  0  0  0  0
   34.0000   33.6170   40.4260 C   0  0  0  0  0  0  0  0  0  0  0  0
   33.7230   34.9170   42.5230 C   0  0  0  0  0  0  0  0  0  0  0  0
   32.0090   33.3450   41.8240 C   0  0  0  0  0  0  0  0  0  0  0  0
   40.2083   30.5793   46.9984 H   0  0  0  0  0  0  0  0  0  0  0  0
   39.2633   33.0882   45.7354 H   0  0  0  0  0  0  0  0  0  0  0  0
   40.6265   32.8286   46.9362 H   0  0  0  0  0  0  0  0  0  0  0  0
   41.2513   33.1198   44.5245 H   0  0  0  0  0  0  0  0  0  0  0  0
   41.8873   31.6686   45.4395 H   0  0  0  0  0  0  0  0  0  0  0  0
   41.3533   30.8575   43.3874 H   0  0  0  0  0  0  0  0  0  0  0  0
   39.8005   31.8426   43.3412 H   0  0  0  0  0  0  0  0  0  0  0  0
   39.1948   29.6492   43.6010 H   0  0  0  0  0  0  0  0  0  0  0  0
   40.4347   29.4110   44.9161 H   0  0  0  0  0  0  0  0  0  0  0  0
   38.1434   29.6688   46.0174 H   0  0  0  0  0  0  0  0  0  0  0  0
   39.0308   33.5580   48.1446 H   0  0  0  0  0  0  0  0  0  0  0  0
   37.8084   29.4484   47.6258 H   0  0  0  0  0  0  0  0  0  0  0  0
   36.1087   31.9316   50.7024 H   0  0  0  0  0  0  0  0  0  0  0  0
   34.3020   29.7777   44.4721 H   0  0  0  0  0  0  0  0  0  0  0  0
   32.4559   31.3685   43.3415 H   0  0  0  0  0  0  0  0  0  0  0  0
   35.0948   33.7217   40.4074 H   0  0  0  0  0  0  0  0  0  0  0  0
   33.7118   32.6872   39.9137 H   0  0  0  0  0  0  0  0  0  0  0  0
   33.5408   34.4753   39.9137 H   0  0  0  0  0  0  0  0  0  0  0  0
   33.7053   34.8004   43.6167 H   0  0  0  0  0  0  0  0  0  0  0  0
   34.6942   35.3310   42.2140 H   0  0  0  0  0  0  0  0  0  0  0  0
   32.9181   35.6002   42.2140 H   0  0  0  0  0  0  0  0  0  0  0  0
   31.6157   33.2861   42.8496 H   0  0  0  0  0  0  0  0  0  0  0  0
   31.5290   34.1813   41.2946 H   0  0  0  0  0  0  0  0  0  0  0  0
   31.7949   32.4048   41.2946 H   0  0  0  0  0  0  0  0  0  0  0  0
  1  8  1  0
  2  1  1  0
  3  2  1  0
  4  5  1  0
  4  3  1  0
  5  6  1  0
  6  1  1  0
  7 12  2  0
  8  9  2  0
  8  7  1  0
  9 10  1  0
 10 11  2  0
 12 11  1  0
 13 14  2  0
 13  6  1  0
 15 13  1  0
 16 17  1  0
 16 15  1  0
 18 17  2  0
 19 20  1  0
 19 18  1  0
 20 16  2  0
 21 23  1  0
 21 19  1  0
 22 21  1  0
 24 21  1  0
  1 25  1  1
  2 26  1  0
  2 27  1  0
  3 28  1  0
  3 29  1  0
  4 30  1  0
  4 31  1  0
  5 32  1  0
  5 33  1  0
  6 34  1  1
  7 35  1  0
  9 36  1  0
 11 37  1  0
 17 38  1  0
 18 39  1  0
 22 40  1  0
 22 41  1  0
 22 42  1  0
 23 43  1  0
 23 44  1  0
 23 45  1  0
 24 46  1  0
 24 47  1  0
 24 48  1  0
M  ISO  8  25  13  26  13  27  13  28  13  29  13  30  13  31  13  32  13
M  ISO  8  33  13  34  13  35  14  36  14  37  14  38  14  39  14  40   8
M  ISO  8  41   8  42   8  43   8  44   8  45   8  46   8  47   8  48   8
M  END
>  <minimizedAffinity>  (1) 
-5.32078934

>  <minimizedRMSD>  (1) 
1.86170447

$$$$
