
     RDKit          3D

 27 30  0  0  0  0  0  0  0  0999 V2000
   38.3210   31.1720   47.8130 C   0  0  0  0  0  0  0  0  0  0  0  0
   38.9480   32.4500   47.9570 C   0  0  0  0  0  0  0  0  0  0  0  0
   39.6120   32.8090   46.2740 S   0  0  0  0  0  0  0  0  0  0  0  0
   38.9150   31.1550   45.6790 C   0  0  0  0  0  0  0  0  0  0  0  0
   38.4300   30.7210   46.5920 N   0  0  0  0  0  0  0  0  0  0  0  0
   38.9580   30.4730   44.2620 N   0  0  0  0  0  0  0  0  0  0  0  0
   38.9780   29.1730   44.0590 C   0  0  0  0  0  0  0  0  0  0  0  0
   39.0150   29.1130   42.7160 N   0  0  0  0  0  0  0  0  0  0  0  0
   39.0170   30.3180   42.1490 C   0  0  0  0  0  0  0  0  0  0  0  0
   39.0470   30.7480   40.8260 C   0  0  0  0  0  0  0  0  0  0  0  0
   39.0390   32.0650   40.5650 N   0  0  0  0  0  0  0  0  0  0  0  0
   39.0020   32.9620   41.5660 C   0  0  0  0  0  0  0  0  0  0  0  0
   38.9720   32.5430   42.8640 N   0  0  0  0  0  0  0  0  0  0  0  0
   38.9790   31.2360   43.1750 C   0  0  0  0  0  0  0  0  0  0  0  0
   38.1080   30.8920   50.2670 C   0  0  0  0  0  0  0  0  0  0  0  0
   37.6740   30.5560   48.9700 C   0  0  0  0  0  0  0  0  0  0  0  0
   36.6350   29.6390   48.8690 C   0  0  0  0  0  0  0  0  0  0  0  0
   36.0950   29.1180   49.9970 N   0  0  0  0  0  0  0  0  0  0  0  0
   36.5310   29.4580   51.2140 C   0  0  0  0  0  0  0  0  0  0  0  0
   37.5380   30.3470   51.3410 N   0  0  0  0  0  0  0  0  0  0  0  0
   39.0178   33.0732   48.8607 H   0  0  0  0  0  0  0  0  0  0  0  0
   38.9673   28.3534   44.7926 H   0  0  0  0  0  0  0  0  0  0  0  0
   39.0769   30.0178   40.0039 H   0  0  0  0  0  0  0  0  0  0  0  0
   38.9959   34.0380   41.3374 H   0  0  0  0  0  0  0  0  0  0  0  0
   38.9282   31.6137   50.3950 H   0  0  0  0  0  0  0  0  0  0  0  0
   36.2542   29.3387   47.8817 H   0  0  0  0  0  0  0  0  0  0  0  0
   36.0703   29.0145   52.1090 H   0  0  0  0  0  0  0  0  0  0  0  0
  1  2  2  0
  1 16  1  0
  3  2  1  0
  4  3  1  0
  4  5  2  0
  5  1  1  0
  6  4  1  0
  7  6  1  0
  8  7  2  0
  9  8  1  0
  9 14  2  0
 10  9  1  0
 11 10  2  0
 11 12  1  0
 12 13  2  0
 13 14  1  0
 14  6  1  0
 15 20  2  0
 16 15  1  0
 17 16  2  0
 17 18  1  0
 18 19  2  0
 19 20  1  0
  2 21  1  0
  7 22  1  0
 10 23  1  0
 12 24  1  0
 15 25  1  0
 17 26  1  0
 19 27  1  0
M  ISO  7  21  14  22  14  23  14  24  14  25  14  26  14  27  14
M  END
>  <minimizedAffinity>  (1) 
-5.67760372

>  <minimizedRMSD>  (1) 
0.47729069

$$$$
