
     RDKit          3D

 29 31  0  0  0  0  0  0  0  0999 V2000
   38.3280   31.0310   47.7850 C   0  0  0  0  0  0  0  0  0  0  0  0
   38.7190   32.3920   47.7610 C   0  0  0  0  0  0  0  0  0  0  0  0
   39.4840   32.5680   46.0860 S   0  0  0  0  0  0  0  0  0  0  0  0
   39.1280   30.7500   45.7310 C   0  0  0  0  0  0  0  0  0  0  0  0
   38.6300   30.4140   46.6750 N   0  0  0  0  0  0  0  0  0  0  0  0
   38.1190   30.8680   50.2630 C   0  0  0  0  0  0  0  0  0  0  0  0
   37.6670   30.5100   48.9790 C   0  0  0  0  0  0  0  0  0  0  0  0
   36.5680   29.6440   48.9280 C   0  0  0  0  0  0  0  0  0  0  0  0
   36.0100   29.2070   50.0890 N   0  0  0  0  0  0  0  0  0  0  0  0
   36.4950   29.5920   51.2970 C   0  0  0  0  0  0  0  0  0  0  0  0
   37.5380   30.4140   51.3720 N   0  0  0  0  0  0  0  0  0  0  0  0
   40.1760   29.1380   42.0040 C   0  0  0  0  0  0  0  0  0  0  0  0
   40.8510   30.2780   42.4290 C   0  0  0  0  0  0  0  0  0  0  0  0
   40.5320   30.8330   43.6500 C   0  0  0  0  0  0  0  0  0  0  0  0
   39.5490   30.2410   44.4120 C   0  0  0  0  0  0  0  0  0  0  0  0
   38.8620   29.1220   44.0340 C   0  0  0  0  0  0  0  0  0  0  0  0
   39.1890   28.5600   42.7940 C   0  0  0  0  0  0  0  0  0  0  0  0
   40.6400   28.5070   40.4610 S   0  0  0  0  0  0  0  0  0  0  0  0
   42.1100   28.7500   40.2240 O   0  0  0  0  0  0  0  0  0  0  0  0
   40.4540   27.0010   40.4030 O   0  0  0  0  0  0  0  0  0  0  0  0
   38.5979   33.1550   48.5440 H   0  0  0  0  0  0  0  0  0  0  0  0
   38.9809   31.5454   50.3535 H   0  0  0  0  0  0  0  0  0  0  0  0
   36.1600   29.3204   47.9591 H   0  0  0  0  0  0  0  0  0  0  0  0
   36.0228   29.2221   52.2191 H   0  0  0  0  0  0  0  0  0  0  0  0
   41.6300   30.7311   41.7982 H   0  0  0  0  0  0  0  0  0  0  0  0
   41.0532   31.7326   44.0093 H   0  0  0  0  0  0  0  0  0  0  0  0
   38.0853   28.6815   44.6764 H   0  0  0  0  0  0  0  0  0  0  0  0
   38.6637   27.6591   42.4442 H   0  0  0  0  0  0  0  0  0  0  0  0
   39.8569   29.1322   39.5267 H   0  0  0  0  0  0  0  0  0  0  0  0
  1  7  1  0
  2  1  2  0
  3  2  1  0
  4  3  1  0
  4  5  2  0
  5  1  1  0
  6 11  2  0
  7  6  1  0
  8  7  2  0
  8  9  1  0
  9 10  2  0
 10 11  1  0
 12 13  2  0
 12 17  1  0
 13 14  1  0
 14 15  2  0
 15  4  1  0
 16 15  1  0
 17 16  2  0
 18 12  1  0
 19 18  2  0
 20 18  2  0
  2 21  1  0
  6 22  1  0
  8 23  1  0
 10 24  1  0
 13 25  1  0
 14 26  1  0
 16 27  1  0
 17 28  1  0
 18 29  1  0
M  ISO  8  21  14  22  14  23  14  24  14  25  14  26  14  27  14  28  14
M  ISO  1  29  11
M  END
>  <minimizedAffinity>  (1) 
-5.66352654

>  <minimizedRMSD>  (1) 
0.974673688

$$$$
