
     RDKit          3D

 23 24  0  0  0  0  0  0  0  0999 V2000
   38.2970   30.9770   47.7880 C   0  0  0  0  0  0  0  0  0  0  0  0
   38.7240   32.3340   47.7420 C   0  0  0  0  0  0  0  0  0  0  0  0
   39.4760   32.4930   46.0740 S   0  0  0  0  0  0  0  0  0  0  0  0
   39.0770   30.6840   45.7330 C   0  0  0  0  0  0  0  0  0  0  0  0
   38.5790   30.3510   46.6740 N   0  0  0  0  0  0  0  0  0  0  0  0
   39.4170   30.0240   44.4540 N   0  0  0  0  0  0  0  0  0  0  0  0
   40.3000   30.6230   43.5540 C   0  0  0  0  0  0  0  0  0  0  0  0
   40.2410   31.8620   43.3260 N   0  0  0  0  0  0  0  0  0  0  0  0
   41.2530   29.7520   42.9160 N   0  0  0  0  0  0  0  0  0  0  0  0
   39.5670   32.5000   43.7640 H   0  0  0  0  0  0  0  0  0  0  0  0
   38.1240   30.8580   50.2490 C   0  0  0  0  0  0  0  0  0  0  0  0
   37.6370   30.4570   48.9900 C   0  0  0  0  0  0  0  0  0  0  0  0
   36.5610   29.5920   48.9710 C   0  0  0  0  0  0  0  0  0  0  0  0
   36.0310   29.1740   50.1510 N   0  0  0  0  0  0  0  0  0  0  0  0
   36.5110   29.5690   51.3330 C   0  0  0  0  0  0  0  0  0  0  0  0
   37.5630   30.4160   51.3820 N   0  0  0  0  0  0  0  0  0  0  0  0
   38.6267   33.1047   48.5208 H   0  0  0  0  0  0  0  0  0  0  0  0
   38.9974   29.1117   44.2246 H   0  0  0  0  0  0  0  0  0  0  0  0
   41.9307   30.1358   42.2419 H   0  0  0  0  0  0  0  0  0  0  0  0
   41.2569   28.7453   43.1337 H   0  0  0  0  0  0  0  0  0  0  0  0
   38.9803   31.5464   50.3029 H   0  0  0  0  0  0  0  0  0  0  0  0
   36.1391   29.2464   48.0157 H   0  0  0  0  0  0  0  0  0  0  0  0
   36.0514   29.2060   52.2641 H   0  0  0  0  0  0  0  0  0  0  0  0
  1 12  1  0
  2  1  2  0
  3  2  1  0
  4  3  1  0
  4  5  2  0
  5  1  1  0
  6  4  1  0
  7  6  1  0
  8  7  2  0
  8 10  1  0
  9  7  1  0
 11 16  2  0
 12 11  1  0
 13 12  2  0
 13 14  1  0
 14 15  2  0
 15 16  1  0
  2 17  1  0
  6 18  1  0
  9 19  1  0
  9 20  1  0
 11 21  1  0
 13 22  1  0
 15 23  1  0
M  ISO  4  17  14  21  14  22  14  23  14
M  END
>  <minimizedAffinity>  (1) 
-5.55659771

>  <minimizedRMSD>  (1) 
0.236248165

$$$$
