
     RDKit          3D

 26 28  0  0  0  0  0  0  0  0999 V2000
   38.3650   31.0780   47.8180 C   0  0  0  0  0  0  0  0  0  0  0  0
   38.8160   32.4340   47.8410 C   0  0  0  0  0  0  0  0  0  0  0  0
   39.6000   32.6600   46.1800 S   0  0  0  0  0  0  0  0  0  0  0  0
   39.1710   30.8710   45.7630 C   0  0  0  0  0  0  0  0  0  0  0  0
   38.6530   30.4980   46.6810 N   0  0  0  0  0  0  0  0  0  0  0  0
   38.1220   30.8740   50.2720 C   0  0  0  0  0  0  0  0  0  0  0  0
   37.6800   30.5200   48.9820 C   0  0  0  0  0  0  0  0  0  0  0  0
   36.6020   29.6490   48.9030 C   0  0  0  0  0  0  0  0  0  0  0  0
   36.0340   29.1850   50.0410 N   0  0  0  0  0  0  0  0  0  0  0  0
   36.4820   29.5430   51.2510 C   0  0  0  0  0  0  0  0  0  0  0  0
   37.5270   30.3890   51.3670 N   0  0  0  0  0  0  0  0  0  0  0  0
   39.5430   30.2700   44.4100 C   0  0  0  0  0  0  0  0  0  0  0  0
   38.8390   29.1690   44.0430 C   0  0  0  0  0  0  0  0  0  0  0  0
   39.1460   28.6100   42.8460 C   0  0  0  0  0  0  0  0  0  0  0  0
   40.1430   29.1670   42.0540 C   0  0  0  0  0  0  0  0  0  0  0  0
   40.8310   30.2870   42.4690 C   0  0  0  0  0  0  0  0  0  0  0  0
   40.5410   30.8880   43.6970 C   0  0  0  0  0  0  0  0  0  0  0  0
   38.7199   33.1692   48.6536 H   0  0  0  0  0  0  0  0  0  0  0  0
   38.9729   31.5626   50.3806 H   0  0  0  0  0  0  0  0  0  0  0  0
   36.2120   29.3380   47.9226 H   0  0  0  0  0  0  0  0  0  0  0  0
   35.9961   29.1458   52.1544 H   0  0  0  0  0  0  0  0  0  0  0  0
   38.0537   28.7484   44.6883 H   0  0  0  0  0  0  0  0  0  0  0  0
   38.6058   27.7157   42.5020 H   0  0  0  0  0  0  0  0  0  0  0  0
   40.3860   28.7085   41.0841 H   0  0  0  0  0  0  0  0  0  0  0  0
   41.6165   30.7122   41.8270 H   0  0  0  0  0  0  0  0  0  0  0  0
   41.0682   31.7817   44.0621 H   0  0  0  0  0  0  0  0  0  0  0  0
  1  2  2  0
  1  7  1  0
  3  2  1  0
  4  3  1  0
  4  5  2  0
  5  1  1  0
  6 11  2  0
  7  6  1  0
  8  7  2  0
  8  9  1  0
  9 10  2  0
 10 11  1  0
 12  4  1  0
 13 12  2  0
 14 13  1  0
 15 16  1  0
 15 14  2  0
 16 17  2  0
 17 12  1  0
  2 18  1  0
  6 19  1  0
  8 20  1  0
 10 21  1  0
 13 22  1  0
 14 23  1  0
 15 24  1  0
 16 25  1  0
 17 26  1  0
M  ISO  8  18  14  19  14  20  14  21  14  22  14  23  14  24  14  25  14
M  ISO  1  26  14
M  END
>  <minimizedAffinity>  (1) 
-5.49422407

>  <minimizedRMSD>  (1) 
0.215279609

$$$$
