
     RDKit          3D

 23 25  0  0  0  0  0  0  0  0999 V2000
   38.3720   31.0770   47.8240 C   0  0  0  0  0  0  0  0  0  0  0  0
   38.8200   32.4370   47.8920 C   0  0  0  0  0  0  0  0  0  0  0  0
   39.6190   32.6920   46.2470 S   0  0  0  0  0  0  0  0  0  0  0  0
   39.1960   30.9100   45.7750 C   0  0  0  0  0  0  0  0  0  0  0  0
   38.6660   30.5150   46.6860 N   0  0  0  0  0  0  0  0  0  0  0  0
   38.0960   30.8450   50.2820 C   0  0  0  0  0  0  0  0  0  0  0  0
   37.6820   30.5170   48.9770 C   0  0  0  0  0  0  0  0  0  0  0  0
   36.6070   29.6540   48.8940 C   0  0  0  0  0  0  0  0  0  0  0  0
   36.0290   29.1830   50.0340 N   0  0  0  0  0  0  0  0  0  0  0  0
   36.4640   29.5280   51.2510 C   0  0  0  0  0  0  0  0  0  0  0  0
   37.5120   30.3700   51.3730 N   0  0  0  0  0  0  0  0  0  0  0  0
   39.6300   30.4750   44.4160 C   0  0  0  0  0  0  0  0  0  0  0  0
   40.2110   31.3860   43.5960 C   0  0  0  0  0  0  0  0  0  0  0  0
   40.4890   30.6970   42.4500 N   0  0  0  0  0  0  0  0  0  0  0  0
   40.0800   29.4270   42.6040 C   0  0  0  0  0  0  0  0  0  0  0  0
   39.5460   29.2900   43.8270 N   0  0  0  0  0  0  0  0  0  0  0  0
   38.7139   33.1528   48.7205 H   0  0  0  0  0  0  0  0  0  0  0  0
   38.9477   31.5306   50.4024 H   0  0  0  0  0  0  0  0  0  0  0  0
   36.2190   29.3482   47.9112 H   0  0  0  0  0  0  0  0  0  0  0  0
   35.9699   29.1273   52.1484 H   0  0  0  0  0  0  0  0  0  0  0  0
   40.4137   32.4463   43.8075 H   0  0  0  0  0  0  0  0  0  0  0  0
   40.1684   28.6301   41.8510 H   0  0  0  0  0  0  0  0  0  0  0  0
   39.1476   28.4302   44.2306 H   0  0  0  0  0  0  0  0  0  0  0  0
  1  2  2  0
  1  7  1  0
  3  2  1  0
  4  3  1  0
  4  5  2  0
  5  1  1  0
  6 11  2  0
  7  6  1  0
  8  7  2  0
  8  9  1  0
  9 10  2  0
 10 11  1  0
 12  4  1  0
 13 12  2  0
 14 15  2  0
 14 13  1  0
 15 16  1  0
 16 12  1  0
  2 17  1  0
  6 18  1  0
  8 19  1  0
 10 20  1  0
 13 21  1  0
 15 22  1  0
 16 23  1  0
M  ISO  7  17  14  18  14  19  14  20  14  21  14  22  14  23   9
M  END
>  <minimizedAffinity>  (1) 
-5.35055017

>  <minimizedRMSD>  (1) 
0.165948555

$$$$
