
     RDKit          3D

 23 25  0  0  0  0  0  0  0  0999 V2000
   38.3980   31.1290   47.8280 C   0  0  0  0  0  0  0  0  0  0  0  0
   38.8360   32.4700   47.8750 C   0  0  0  0  0  0  0  0  0  0  0  0
   39.6320   32.7220   46.2340 S   0  0  0  0  0  0  0  0  0  0  0  0
   39.2210   30.9370   45.7740 C   0  0  0  0  0  0  0  0  0  0  0  0
   38.6940   30.5550   46.6900 N   0  0  0  0  0  0  0  0  0  0  0  0
   38.1250   30.8820   50.2820 C   0  0  0  0  0  0  0  0  0  0  0  0
   37.7020   30.5480   48.9820 C   0  0  0  0  0  0  0  0  0  0  0  0
   36.6260   29.6690   48.8780 C   0  0  0  0  0  0  0  0  0  0  0  0
   36.0530   29.1890   50.0000 N   0  0  0  0  0  0  0  0  0  0  0  0
   36.4790   29.5250   51.2240 C   0  0  0  0  0  0  0  0  0  0  0  0
   37.5090   30.3670   51.3570 N   0  0  0  0  0  0  0  0  0  0  0  0
   39.5810   30.3270   44.4570 C   0  0  0  0  0  0  0  0  0  0  0  0
   38.9920   29.2690   43.7980 C   0  0  0  0  0  0  0  0  0  0  0  0
   39.7150   29.1250   42.6330 C   0  0  0  0  0  0  0  0  0  0  0  0
   40.7050   30.0840   42.6180 C   0  0  0  0  0  0  0  0  0  0  0  0
   40.5740   30.7700   43.7330 O   0  0  0  0  0  0  0  0  0  0  0  0
   38.7275   33.1929   48.6970 H   0  0  0  0  0  0  0  0  0  0  0  0
   38.9700   31.5729   50.4183 H   0  0  0  0  0  0  0  0  0  0  0  0
   36.2475   29.3694   47.8896 H   0  0  0  0  0  0  0  0  0  0  0  0
   35.9845   29.1107   52.1150 H   0  0  0  0  0  0  0  0  0  0  0  0
   38.1315   28.6695   44.1299 H   0  0  0  0  0  0  0  0  0  0  0  0
   39.5331   28.3740   41.8501 H   0  0  0  0  0  0  0  0  0  0  0  0
   41.4557   30.2440   41.8301 H   0  0  0  0  0  0  0  0  0  0  0  0
  1  2  2  0
  1  7  1  0
  3  2  1  0
  4  3  1  0
  4  5  2  0
  5  1  1  0
  6 11  2  0
  7  6  1  0
  8  7  2  0
  8  9  1  0
  9 10  2  0
 10 11  1  0
 12  4  1  0
 13 12  2  0
 14 13  1  0
 15 14  2  0
 15 16  1  0
 16 12  1  0
  2 17  1  0
  6 18  1  0
  8 19  1  0
 10 20  1  0
 13 21  1  0
 14 22  1  0
 15 23  1  0
M  ISO  7  17  14  18  14  19  14  20  14  21  14  22  14  23  14
M  END
>  <minimizedAffinity>  (1) 
-5.26899242

>  <minimizedRMSD>  (1) 
0.648744166

$$$$
