
     RDKit          3D

 23 25  0  0  0  0  0  0  0  0999 V2000
   38.3520   31.0920   47.8410 C   0  0  0  0  0  0  0  0  0  0  0  0
   38.8030   32.4440   47.9210 C   0  0  0  0  0  0  0  0  0  0  0  0
   39.6080   32.6920   46.2690 S   0  0  0  0  0  0  0  0  0  0  0  0
   39.1770   30.9200   45.7930 C   0  0  0  0  0  0  0  0  0  0  0  0
   38.6460   30.5330   46.6990 N   0  0  0  0  0  0  0  0  0  0  0  0
   38.0320   30.8310   50.2920 C   0  0  0  0  0  0  0  0  0  0  0  0
   37.6480   30.5220   48.9890 C   0  0  0  0  0  0  0  0  0  0  0  0
   36.5690   29.6530   48.8750 C   0  0  0  0  0  0  0  0  0  0  0  0
   35.9700   29.1680   49.9910 N   0  0  0  0  0  0  0  0  0  0  0  0
   36.3860   29.5030   51.2220 C   0  0  0  0  0  0  0  0  0  0  0  0
   37.4220   30.3390   51.3620 N   0  0  0  0  0  0  0  0  0  0  0  0
   39.5880   30.4660   44.4710 C   0  0  0  0  0  0  0  0  0  0  0  0
   40.6050   30.8680   43.6280 C   0  0  0  0  0  0  0  0  0  0  0  0
   40.6920   30.1990   42.4360 C   0  0  0  0  0  0  0  0  0  0  0  0
   39.7780   29.1880   42.1590 C   0  0  0  0  0  0  0  0  0  0  0  0
   38.7360   29.1970   43.6920 S   0  0  0  0  0  0  0  0  0  0  0  0
   38.6993   33.1576   48.7517 H   0  0  0  0  0  0  0  0  0  0  0  0
   38.8807   31.5149   50.4403 H   0  0  0  0  0  0  0  0  0  0  0  0
   36.2014   29.3590   47.8808 H   0  0  0  0  0  0  0  0  0  0  0  0
   35.8798   29.0940   52.1088 H   0  0  0  0  0  0  0  0  0  0  0  0
   41.3020   31.6754   43.8970 H   0  0  0  0  0  0  0  0  0  0  0  0
   41.4744   30.4579   41.7074 H   0  0  0  0  0  0  0  0  0  0  0  0
   39.6953   28.5511   41.2659 H   0  0  0  0  0  0  0  0  0  0  0  0
  1  2  2  0
  1  7  1  0
  3  2  1  0
  4  3  1  0
  4  5  2  0
  5  1  1  0
  6 11  2  0
  7  6  1  0
  8  7  2  0
  8  9  1  0
  9 10  2  0
 10 11  1  0
 12  4  1  0
 13 12  2  0
 14 13  1  0
 15 14  2  0
 15 16  1  0
 16 12  1  0
  2 17  1  0
  6 18  1  0
  8 19  1  0
 10 20  1  0
 13 21  1  0
 14 22  1  0
 15 23  1  0
M  ISO  7  17  14  18  14  19  14  20  14  21  14  22  14  23  14
M  END
>  <minimizedAffinity>  (1) 
-5.18396044

>  <minimizedRMSD>  (1) 
0.476638645

$$$$
