
     RDKit          3D

 19 20  0  0  0  0  0  0  0  0999 V2000
   38.3880   31.0990   47.8040 C   0  0  0  0  0  0  0  0  0  0  0  0
   38.8340   32.4460   47.8410 C   0  0  0  0  0  0  0  0  0  0  0  0
   39.6240   32.6900   46.1880 S   0  0  0  0  0  0  0  0  0  0  0  0
   39.2030   30.8980   45.7400 C   0  0  0  0  0  0  0  0  0  0  0  0
   38.6840   30.5310   46.6630 N   0  0  0  0  0  0  0  0  0  0  0  0
   38.1290   30.8740   50.2570 C   0  0  0  0  0  0  0  0  0  0  0  0
   37.6970   30.5320   48.9660 C   0  0  0  0  0  0  0  0  0  0  0  0
   36.6240   29.6630   48.8630 C   0  0  0  0  0  0  0  0  0  0  0  0
   36.0520   29.1930   50.0020 N   0  0  0  0  0  0  0  0  0  0  0  0
   36.4900   29.5400   51.2190 C   0  0  0  0  0  0  0  0  0  0  0  0
   37.5290   30.3810   51.3480 N   0  0  0  0  0  0  0  0  0  0  0  0
   39.5180   30.2120   44.4580 C   0  0  0  0  0  0  0  0  0  0  0  0
   38.7060   29.4810   43.8340 O   0  0  0  0  0  0  0  0  0  0  0  0
   40.7600   30.3640   43.8900 O   0  0  0  0  0  0  0  0  0  0  0  0
   38.7332   33.1731   48.6602 H   0  0  0  0  0  0  0  0  0  0  0  0
   38.9791   31.5621   50.3751 H   0  0  0  0  0  0  0  0  0  0  0  0
   36.2419   29.3589   47.8773 H   0  0  0  0  0  0  0  0  0  0  0  0
   35.9974   29.1351   52.1153 H   0  0  0  0  0  0  0  0  0  0  0  0
   40.9732   29.9091   43.0370 H   0  0  0  0  0  0  0  0  0  0  0  0
  1  2  2  0
  1  7  1  0
  3  2  1  0
  4  3  1  0
  4  5  2  0
  5  1  1  0
  6 11  2  0
  7  6  1  0
  8  7  2  0
  8  9  1  0
  9 10  2  0
 10 11  1  0
 12  4  1  0
 13 12  2  0
 14 12  1  0
  2 15  1  0
  6 16  1  0
  8 17  1  0
 10 18  1  0
 14 19  1  0
M  ISO  5  15  14  16  14  17  14  18  14  19   3
M  END
>  <minimizedAffinity>  (1) 
-4.87568617

>  <minimizedRMSD>  (1) 
0.148020223

$$$$
