
     RDKit          3D

 36 38  0  0  0  0  0  0  0  0999 V2000
   39.2850   32.2630   45.9930 C   0  0  0  0  0  0  0  0  0  0  0  0
   38.2300   33.0670   49.5480 C   0  0  0  0  0  0  0  0  0  0  0  0
   38.9470   33.1520   48.3460 C   0  0  0  0  0  0  0  0  0  0  0  0
   38.6240   32.2900   47.2990 C   0  0  0  0  0  0  0  0  0  0  0  0
   37.6050   31.4000   47.5280 N   0  0  0  0  0  0  0  0  0  0  0  0
   36.9330   31.3400   48.6900 C   0  0  0  0  0  0  0  0  0  0  0  0
   37.2410   32.1710   49.7030 N   0  0  0  0  0  0  0  0  0  0  0  0
   40.2390   31.0870   45.9930 C   0  0  0  0  0  0  0  0  0  0  0  0
   40.0410   33.5130   45.6650 C   0  0  0  0  0  0  0  0  0  0  0  0
   38.2430   32.0280   44.9290 C   0  0  0  0  0  0  0  0  0  0  0  0
   38.7340   32.0680   43.5860 N   0  0  0  0  0  0  0  0  0  0  0  0
   38.7100   33.1460   42.7950 C   0  0  0  0  0  0  0  0  0  0  0  0
   39.2390   32.8850   41.5890 N   0  0  0  0  0  0  0  0  0  0  0  0
   39.6300   31.5960   41.5710 C   0  0  0  0  0  0  0  0  0  0  0  0
   40.2250   30.7980   40.6140 C   0  0  0  0  0  0  0  0  0  0  0  0
   40.5210   31.2240   39.4870 O   0  0  0  0  0  0  0  0  0  0  0  0
   40.4890   29.5100   40.9340 N   0  0  0  0  0  0  0  0  0  0  0  0
   40.1700   29.0420   42.1540 C   0  0  0  0  0  0  0  0  0  0  0  0
   40.4870   27.6750   42.3950 N   0  0  0  0  0  0  0  0  0  0  0  0
   39.5840   29.8240   43.1000 N   0  0  0  0  0  0  0  0  0  0  0  0
   39.3020   31.1170   42.8250 C   0  0  0  0  0  0  0  0  0  0  0  0
   38.4813   33.7447   50.3772 H   0  0  0  0  0  0  0  0  0  0  0  0
   39.7546   33.8899   48.2305 H   0  0  0  0  0  0  0  0  0  0  0  0
   36.1239   30.6052   48.8145 H   0  0  0  0  0  0  0  0  0  0  0  0
   40.4700   30.8023   47.0301 H   0  0  0  0  0  0  0  0  0  0  0  0
   39.7725   30.2364   45.4745 H   0  0  0  0  0  0  0  0  0  0  0  0
   41.1675   31.3681   45.4745 H   0  0  0  0  0  0  0  0  0  0  0  0
   40.3437   34.0135   46.5966 H   0  0  0  0  0  0  0  0  0  0  0  0
   40.9359   33.2571   45.0787 H   0  0  0  0  0  0  0  0  0  0  0  0
   39.3988   34.1867   45.0787 H   0  0  0  0  0  0  0  0  0  0  0  0
   37.7970   31.0372   45.1004 H   0  0  0  0  0  0  0  0  0  0  0  0
   37.5200   32.8522   45.0179 H   0  0  0  0  0  0  0  0  0  0  0  0
   38.3071   34.1246   43.0951 H   0  0  0  0  0  0  0  0  0  0  0  0
   40.9340   28.8883   40.2438 H   0  0  0  0  0  0  0  0  0  0  0  0
   40.2709   27.2494   43.3077 H   0  0  0  0  0  0  0  0  0  0  0  0
   40.9325   27.1117   41.6566 H   0  0  0  0  0  0  0  0  0  0  0  0
  1  4  1  0
  2  7  2  0
  3  2  1  0
  4  5  1  0
  4  3  2  0
  5  6  2  0
  6  7  1  0
  8  1  1  0
  9  1  1  0
 10  1  1  0
 11 10  1  0
 12 11  1  0
 13 12  2  0
 14 13  1  0
 14 21  2  0
 15 17  1  0
 15 14  1  0
 16 15  2  0
 17 18  1  0
 18 19  1  0
 18 20  2  0
 21 20  1  0
 21 11  1  0
  2 22  1  0
  3 23  1  0
  6 24  1  0
  8 25  1  0
  8 26  1  0
  8 27  1  0
  9 28  1  0
  9 29  1  0
  9 30  1  0
 10 31  1  0
 10 32  1  0
 12 33  1  0
 17 34  1  0
 19 35  1  0
 19 36  1  0
M  ISO  8  22  14  23  14  24  14  25   8  26   8  27   8  28   8  29   8
M  ISO  5  30   8  31   8  32   8  33  14  34   9
M  END
>  <minimizedAffinity>  (1) 
-5.44588614

>  <minimizedRMSD>  (1) 
0.564998806

$$$$
