
     RDKit          3D

 39 42  0  0  1  0  0  0  0  0999 V2000
   39.5370   30.5560   44.6560 C   0  0  2  0  0  0  0  0  0  0  0  0
   38.3010   31.1640   48.0720 C   0  0  0  0  0  0  0  0  0  0  0  0
   38.7670   32.4940   48.2160 C   0  0  0  0  0  0  0  0  0  0  0  0
   39.6100   32.8560   46.6260 S   0  0  0  0  0  0  0  0  0  0  0  0
   39.1740   31.0970   46.0250 C   0  0  0  0  0  0  0  0  0  0  0  0
   38.6150   30.6560   46.8970 N   0  0  0  0  0  0  0  0  0  0  0  0
   37.9270   30.8020   50.4820 C   0  0  0  0  0  0  0  0  0  0  0  0
   37.5650   30.5270   49.1570 C   0  0  0  0  0  0  0  0  0  0  0  0
   36.5050   29.6430   48.9740 C   0  0  0  0  0  0  0  0  0  0  0  0
   35.8940   29.1100   50.0410 N   0  0  0  0  0  0  0  0  0  0  0  0
   36.2650   29.3960   51.3010 C   0  0  0  0  0  0  0  0  0  0  0  0
   37.2910   30.2510   51.5180 N   0  0  0  0  0  0  0  0  0  0  0  0
   40.5180   31.5190   44.0720 C   0  0  0  0  0  0  0  0  0  0  0  0
   38.2710   30.5070   43.8210 C   0  0  0  0  0  0  0  0  0  0  0  0
   38.5160   29.9960   42.4520 C   0  0  0  0  0  0  0  0  0  0  0  0
   38.5000   30.8210   41.3970 N   0  0  0  0  0  0  0  0  0  0  0  0
   38.7390   30.4060   40.1300 C   0  0  0  0  0  0  0  0  0  0  0  0
   39.0090   29.0970   39.8810 N   0  0  0  0  0  0  0  0  0  0  0  0
   39.0390   28.2180   40.8950 C   0  0  0  0  0  0  0  0  0  0  0  0
   39.3070   26.8760   40.6820 C   0  0  0  0  0  0  0  0  0  0  0  0
   39.3350   25.9580   41.7170 C   0  0  0  0  0  0  0  0  0  0  0  0
   39.0870   26.4030   43.0110 C   0  0  0  0  0  0  0  0  0  0  0  0
   38.8240   27.7510   43.1840 C   0  0  0  0  0  0  0  0  0  0  0  0
   38.7920   28.6780   42.1680 C   0  0  0  0  0  0  0  0  0  0  0  0
   39.9714   29.5462   44.6959 H   0  0  0  0  0  0  0  0  0  0  0  0
   38.6501   33.1593   49.0842 H   0  0  0  0  0  0  0  0  0  0  0  0
   38.7608   31.4931   50.6745 H   0  0  0  0  0  0  0  0  0  0  0  0
   36.1707   29.3834   47.9587 H   0  0  0  0  0  0  0  0  0  0  0  0
   35.7376   28.9377   52.1506 H   0  0  0  0  0  0  0  0  0  0  0  0
   41.0482   32.0395   44.8832 H   0  0  0  0  0  0  0  0  0  0  0  0
   41.2433   30.9724   43.4514 H   0  0  0  0  0  0  0  0  0  0  0  0
   39.9850   32.2543   43.4514 H   0  0  0  0  0  0  0  0  0  0  0  0
   37.5447   29.8480   44.3192 H   0  0  0  0  0  0  0  0  0  0  0  0
   37.8885   31.5345   43.7317 H   0  0  0  0  0  0  0  0  0  0  0  0
   38.7146   31.1291   39.3014 H   0  0  0  0  0  0  0  0  0  0  0  0
   39.5039   26.5287   39.6570 H   0  0  0  0  0  0  0  0  0  0  0  0
   39.5492   24.8972   41.5201 H   0  0  0  0  0  0  0  0  0  0  0  0
   39.0994   25.7098   43.8650 H   0  0  0  0  0  0  0  0  0  0  0  0
   38.6266   28.1061   44.2062 H   0  0  0  0  0  0  0  0  0  0  0  0
  1  5  1  0
  2  3  2  0
  2  8  1  0
  4  3  1  0
  5  4  1  0
  5  6  2  0
  6  2  1  0
  7 12  2  0
  8  7  1  0
  9  8  2  0
  9 10  1  0
 10 11  2  0
 11 12  1  0
 13  1  1  0
 14  1  1  0
 15 14  1  0
 16 15  2  0
 17 16  1  0
 18 17  2  0
 18 19  1  0
 19 24  2  0
 20 19  1  0
 20 21  2  0
 21 22  1  0
 22 23  2  0
 24 15  1  0
 24 23  1  0
  1 25  1  1
  3 26  1  0
  7 27  1  0
  9 28  1  0
 11 29  1  0
 13 30  1  0
 13 31  1  0
 13 32  1  0
 14 33  1  0
 14 34  1  0
 17 35  1  0
 20 36  1  0
 21 37  1  0
 22 38  1  0
 23 39  1  0
M  ISO  8  25   8  26  14  27  14  28  14  29  14  30   8  31   8  32   8
M  ISO  7  33   8  34   8  35  14  36  14  37  14  38  14  39  14
M  END
>  <minimizedAffinity>  (1) 
-5.56845427

>  <minimizedRMSD>  (1) 
0.897263646

$$$$
