
     RDKit          3D

 38 40  0  0  0  0  0  0  0  0999 V2000
   39.3050   32.3080   46.0640 C   0  0  0  0  0  0  0  0  0  0  0  0
   37.9930   32.7740   49.6230 C   0  0  0  0  0  0  0  0  0  0  0  0
   38.7920   32.9920   48.4860 C   0  0  0  0  0  0  0  0  0  0  0  0
   38.5540   32.2270   47.3510 C   0  0  0  0  0  0  0  0  0  0  0  0
   37.5340   31.2980   47.4350 N   0  0  0  0  0  0  0  0  0  0  0  0
   36.7970   31.1190   48.5320 C   0  0  0  0  0  0  0  0  0  0  0  0
   37.0180   31.8540   49.6340 N   0  0  0  0  0  0  0  0  0  0  0  0
   40.0910   31.0290   45.9210 C   0  0  0  0  0  0  0  0  0  0  0  0
   40.2240   33.4970   46.0610 C   0  0  0  0  0  0  0  0  0  0  0  0
   38.2940   32.4300   44.9690 C   0  0  0  0  0  0  0  0  0  0  0  0
   38.6130   31.9300   43.6580 C   0  0  0  0  0  0  0  0  0  0  0  0
   39.5420   32.2910   42.7020 C   0  0  0  0  0  0  0  0  0  0  0  0
   39.7300   31.6810   41.4800 C   0  0  0  0  0  0  0  0  0  0  0  0
   38.9340   30.6070   41.1510 C   0  0  0  0  0  0  0  0  0  0  0  0
   37.9930   30.2060   42.0690 C   0  0  0  0  0  0  0  0  0  0  0  0
   37.2380   29.1090   41.6460 C   0  0  0  0  0  0  0  0  0  0  0  0
   36.2640   28.6160   42.4850 C   0  0  0  0  0  0  0  0  0  0  0  0
   36.0700   29.2180   43.7070 C   0  0  0  0  0  0  0  0  0  0  0  0
   36.8370   30.3010   44.0910 C   0  0  0  0  0  0  0  0  0  0  0  0
   37.8330   30.8290   43.2620 C   0  0  0  0  0  0  0  0  0  0  0  0
   38.1730   33.3743   50.5270 H   0  0  0  0  0  0  0  0  0  0  0  0
   39.5877   33.7514   48.4953 H   0  0  0  0  0  0  0  0  0  0  0  0
   35.9996   30.3613   48.5342 H   0  0  0  0  0  0  0  0  0  0  0  0
   40.3336   30.6342   46.9186 H   0  0  0  0  0  0  0  0  0  0  0  0
   39.4912   30.2897   45.3700 H   0  0  0  0  0  0  0  0  0  0  0  0
   41.0216   31.2302   45.3700 H   0  0  0  0  0  0  0  0  0  0  0  0
   40.4495   33.7887   47.0974 H   0  0  0  0  0  0  0  0  0  0  0  0
   41.1582   33.2370   45.5417 H   0  0  0  0  0  0  0  0  0  0  0  0
   39.7370   34.3355   45.5417 H   0  0  0  0  0  0  0  0  0  0  0  0
   37.3915   31.8981   45.3046 H   0  0  0  0  0  0  0  0  0  0  0  0
   38.2020   33.5158   44.8188 H   0  0  0  0  0  0  0  0  0  0  0  0
   40.1932   33.1456   42.9377 H   0  0  0  0  0  0  0  0  0  0  0  0
   40.4994   32.0446   40.7829 H   0  0  0  0  0  0  0  0  0  0  0  0
   39.0471   30.0882   40.1876 H   0  0  0  0  0  0  0  0  0  0  0  0
   37.4180   28.6489   40.6632 H   0  0  0  0  0  0  0  0  0  0  0  0
   35.6505   27.7543   42.1831 H   0  0  0  0  0  0  0  0  0  0  0  0
   35.2952   28.8325   44.3860 H   0  0  0  0  0  0  0  0  0  0  0  0
   36.6600   30.7605   45.0746 H   0  0  0  0  0  0  0  0  0  0  0  0
  1  4  1  0
  2  7  2  0
  3  2  1  0
  4  5  1  0
  4  3  2  0
  5  6  2  0
  6  7  1  0
  8  1  1  0
  9  1  1  0
 10  1  1  0
 11 10  1  0
 12 11  2  0
 13 12  1  0
 14 13  2  0
 14 15  1  0
 15 20  2  0
 16 15  1  0
 16 17  2  0
 17 18  1  0
 18 19  2  0
 20 11  1  0
 20 19  1  0
  2 21  1  0
  3 22  1  0
  6 23  1  0
  8 24  1  0
  8 25  1  0
  8 26  1  0
  9 27  1  0
  9 28  1  0
  9 29  1  0
 10 30  1  0
 10 31  1  0
 12 32  1  0
 13 33  1  0
 14 34  1  0
 16 35  1  0
 17 36  1  0
 18 37  1  0
 19 38  1  0
M  ISO  8  21  14  22  14  23  14  24   8  25   8  26   8  27   8  28   8
M  ISO  8  29   8  30   8  31   8  32  14  33  14  34  14  35  14  36  14
M  ISO  2  37  14  38  14
M  END
>  <minimizedAffinity>  (1) 
-5.10619879

>  <minimizedRMSD>  (1) 
1.10226512

$$$$
