
     RDKit          3D

 36 38  0  0  1  0  0  0  0  0999 V2000
   39.2310   30.4010   44.3410 C   0  0  2  0  0  0  0  0  0  0  0  0
   38.3750   31.0930   47.8330 C   0  0  0  0  0  0  0  0  0  0  0  0
   38.9130   32.4000   47.9150 C   0  0  0  0  0  0  0  0  0  0  0  0
   39.6100   32.6980   46.2380 S   0  0  0  0  0  0  0  0  0  0  0  0
   39.0320   30.9540   45.7120 C   0  0  0  0  0  0  0  0  0  0  0  0
   38.5490   30.5630   46.6410 N   0  0  0  0  0  0  0  0  0  0  0  0
   38.1260   30.8640   50.2810 C   0  0  0  0  0  0  0  0  0  0  0  0
   37.7100   30.5190   48.9940 C   0  0  0  0  0  0  0  0  0  0  0  0
   36.6390   29.6320   48.9180 C   0  0  0  0  0  0  0  0  0  0  0  0
   36.0760   29.1630   50.0480 N   0  0  0  0  0  0  0  0  0  0  0  0
   36.5200   29.5300   51.2670 C   0  0  0  0  0  0  0  0  0  0  0  0
   37.5490   30.3840   51.3750 N   0  0  0  0  0  0  0  0  0  0  0  0
   40.5390   30.9360   43.8280 C   0  0  0  0  0  0  0  0  0  0  0  0
   38.1060   30.8160   43.4510 C   0  0  0  0  0  0  0  0  0  0  0  0
   37.0110   29.8970   43.5710 N   0  0  0  0  0  0  0  0  0  0  0  0
   35.9570   30.3950   44.2560 C   0  0  0  0  0  0  0  0  0  0  0  0
   34.7880   29.6980   44.4820 C   0  0  0  0  0  0  0  0  0  0  0  0
   34.7180   28.4200   43.9660 C   0  0  0  0  0  0  0  0  0  0  0  0
   33.5070   27.6720   44.1880 N   0  0  0  0  0  0  0  0  0  0  0  0
   35.7520   27.9340   43.2950 N   0  0  0  0  0  0  0  0  0  0  0  0
   36.8530   28.6450   43.1060 C   0  0  0  0  0  0  0  0  0  0  0  0
   37.8650   28.2030   42.4680 O   0  0  0  0  0  0  0  0  0  0  0  0
   39.2493   29.3013   44.3608 H   0  0  0  0  0  0  0  0  0  0  0  0
   38.9141   33.0795   48.7800 H   0  0  0  0  0  0  0  0  0  0  0  0
   38.9677   31.5633   50.3929 H   0  0  0  0  0  0  0  0  0  0  0  0
   36.2539   29.3153   47.9375 H   0  0  0  0  0  0  0  0  0  0  0  0
   36.0392   29.1297   52.1718 H   0  0  0  0  0  0  0  0  0  0  0  0
   41.1855   31.2005   44.6777 H   0  0  0  0  0  0  0  0  0  0  0  0
   41.0343   30.1682   43.2155 H   0  0  0  0  0  0  0  0  0  0  0  0
   40.3542   31.8308   43.2155 H   0  0  0  0  0  0  0  0  0  0  0  0
   38.4549   30.8305   42.4079 H   0  0  0  0  0  0  0  0  0  0  0  0
   37.7657   31.8188   43.7485 H   0  0  0  0  0  0  0  0  0  0  0  0
   36.0362   31.4163   44.6568 H   0  0  0  0  0  0  0  0  0  0  0  0
   33.9528   30.1393   45.0457 H   0  0  0  0  0  0  0  0  0  0  0  0
   33.4177   26.7149   43.8181 H   0  0  0  0  0  0  0  0  0  0  0  0
   32.7304   28.0943   44.7167 H   0  0  0  0  0  0  0  0  0  0  0  0
  1  5  1  0
  2  3  2  0
  2  8  1  0
  4  3  1  0
  5  4  1  0
  5  6  2  0
  6  2  1  0
  7 12  2  0
  8  7  1  0
  9  8  2  0
  9 10  1  0
 10 11  2  0
 11 12  1  0
 13  1  1  0
 14 15  1  0
 14  1  1  0
 15 16  1  0
 16 17  2  0
 18 19  1  0
 18 17  1  0
 20 18  2  0
 21 20  1  0
 21 15  1  0
 22 21  2  0
  1 23  1  1
  3 24  1  0
  7 25  1  0
  9 26  1  0
 11 27  1  0
 13 28  1  0
 13 29  1  0
 13 30  1  0
 14 31  1  0
 14 32  1  0
 16 33  1  0
 17 34  1  0
 19 35  1  0
 19 36  1  0
M  ISO  8  23   8  24  14  25  14  26  14  27  14  28   8  29   8  30   8
M  ISO  4  31   8  32   8  33  14  34  14
M  END
>  <minimizedAffinity>  (1) 
-5.0971508

>  <minimizedRMSD>  (1) 
0.776141226

$$$$
