
     RDKit          3D

 38 40  0  0  1  0  0  0  0  0999 V2000
   38.0070   31.7260   48.7630 C   0  0  0  0  0  0  0  0  0  0  0  0
   38.4780   32.9680   49.2340 C   0  0  0  0  0  0  0  0  0  0  0  0
   39.5110   33.5900   47.8460 S   0  0  0  0  0  0  0  0  0  0  0  0
   39.1020   32.0050   46.8590 C   0  0  0  0  0  0  0  0  0  0  0  0
   38.4440   31.4370   47.5450 N   0  0  0  0  0  0  0  0  0  0  0  0
   37.5920   30.4500   50.8370 C   0  0  0  0  0  0  0  0  0  0  0  0
   37.1200   30.9030   49.6020 C   0  0  0  0  0  0  0  0  0  0  0  0
   35.8220   30.5390   49.2650 C   0  0  0  0  0  0  0  0  0  0  0  0
   35.1040   29.7920   50.1160 N   0  0  0  0  0  0  0  0  0  0  0  0
   35.5900   29.3740   51.2950 C   0  0  0  0  0  0  0  0  0  0  0  0
   36.8530   29.7080   51.6610 N   0  0  0  0  0  0  0  0  0  0  0  0
   39.6270   31.7450   45.4590 C   0  0  2  0  0  0  0  0  0  0  0  0
   41.0930   31.4840   45.5810 C   0  0  0  0  0  0  0  0  0  0  0  0
   39.3770   33.0010   44.6310 C   0  0  0  0  0  0  0  0  0  0  0  0
   38.2850   32.6670   43.6970 N   0  0  0  0  0  0  0  0  0  0  0  0
   38.7550   33.0530   42.3810 C   0  0  0  0  0  0  0  0  0  0  0  0
   39.6470   31.9850   41.8500 C   0  0  0  0  0  0  0  0  0  0  0  0
   38.8420   30.9030   41.5150 O   0  0  0  0  0  0  0  0  0  0  0  0
   37.9370   30.5320   42.4700 C   0  0  0  0  0  0  0  0  0  0  0  0
   38.0150   31.2500   43.7800 C   0  0  0  0  0  0  0  0  0  0  0  0
   38.2757   33.4504   50.2017 H   0  0  0  0  0  0  0  0  0  0  0  0
   38.6149   30.7168   51.1411 H   0  0  0  0  0  0  0  0  0  0  0  0
   35.3869   30.8612   48.3075 H   0  0  0  0  0  0  0  0  0  0  0  0
   34.9659   28.7621   51.9629 H   0  0  0  0  0  0  0  0  0  0  0  0
   39.1343   30.8877   44.9770 H   0  0  0  0  0  0  0  0  0  0  0  0
   41.3694   31.4348   46.6446 H   0  0  0  0  0  0  0  0  0  0  0  0
   41.3370   30.5283   45.0941 H   0  0  0  0  0  0  0  0  0  0  0  0
   41.6519   32.2968   45.0941 H   0  0  0  0  0  0  0  0  0  0  0  0
   39.0791   33.8350   45.2835 H   0  0  0  0  0  0  0  0  0  0  0  0
   40.2838   33.3135   44.0925 H   0  0  0  0  0  0  0  0  0  0  0  0
   37.8958   33.1844   41.7068 H   0  0  0  0  0  0  0  0  0  0  0  0
   39.3102   34.0002   42.4486 H   0  0  0  0  0  0  0  0  0  0  0  0
   40.1797   32.3481   40.9587 H   0  0  0  0  0  0  0  0  0  0  0  0
   40.3968   31.6949   42.6007 H   0  0  0  0  0  0  0  0  0  0  0  0
   36.9304   30.6969   42.0582 H   0  0  0  0  0  0  0  0  0  0  0  0
   38.1710   29.4820   42.6998 H   0  0  0  0  0  0  0  0  0  0  0  0
   38.8167   30.7863   44.3735 H   0  0  0  0  0  0  0  0  0  0  0  0
   37.0175   31.1585   44.2347 H   0  0  0  0  0  0  0  0  0  0  0  0
  1  2  2  0
  1  7  1  0
  3  2  1  0
  4  5  2  0
  4  3  1  0
  5  1  1  0
  6 11  2  0
  7  6  1  0
  8  7  2  0
  8  9  1  0
  9 10  2  0
 10 11  1  0
 12 13  1  0
 12  4  1  0
 14 12  1  0
 15 20  1  0
 15 14  1  0
 16 15  1  0
 17 16  1  0
 18 17  1  0
 18 19  1  0
 19 20  1  0
  2 21  1  0
  6 22  1  0
  8 23  1  0
 10 24  1  0
 12 25  1  6
 13 26  1  0
 13 27  1  0
 13 28  1  0
 14 29  1  0
 14 30  1  0
 16 31  1  0
 16 32  1  0
 17 33  1  0
 17 34  1  0
 19 35  1  0
 19 36  1  0
 20 37  1  0
 20 38  1  0
M  ISO  8  21  14  22  14  23  14  24  14  25   8  26   8  27   8  28   8
M  ISO  8  29   8  30   8  31  13  32  13  33  13  34  13  35  13  36  13
M  ISO  2  37  13  38  13
M  END
>  <minimizedAffinity>  (1) 
-5.05753803

>  <minimizedRMSD>  (1) 
2.86496162

$$$$
