
     RDKit          3D

 37 39  0  0  1  0  0  0  0  0999 V2000
   38.3730   31.0950   47.8290 C   0  0  0  0  0  0  0  0  0  0  0  0
   38.8760   32.4200   47.8830 C   0  0  0  0  0  0  0  0  0  0  0  0
   39.6160   32.6730   46.2160 S   0  0  0  0  0  0  0  0  0  0  0  0
   39.0950   30.8950   45.7370 C   0  0  0  0  0  0  0  0  0  0  0  0
   38.5950   30.5290   46.6620 N   0  0  0  0  0  0  0  0  0  0  0  0
   38.1310   30.8740   50.2790 C   0  0  0  0  0  0  0  0  0  0  0  0
   37.6910   30.5180   48.9900 C   0  0  0  0  0  0  0  0  0  0  0  0
   36.6200   29.6320   48.9170 C   0  0  0  0  0  0  0  0  0  0  0  0
   36.0640   29.1650   50.0520 N   0  0  0  0  0  0  0  0  0  0  0  0
   36.5160   29.5300   51.2630 C   0  0  0  0  0  0  0  0  0  0  0  0
   37.5470   30.3820   51.3810 N   0  0  0  0  0  0  0  0  0  0  0  0
   39.3670   30.3080   44.3840 C   0  0  2  0  0  0  0  0  0  0  0  0
   40.5870   30.9680   43.8390 C   0  0  0  0  0  0  0  0  0  0  0  0
   38.1590   30.5730   43.4940 C   0  0  0  0  0  0  0  0  0  0  0  0
   37.2080   29.5050   43.7620 N   0  0  0  0  0  0  0  0  0  0  0  0
   37.1690   28.5280   42.7260 C   0  0  0  0  0  0  0  0  0  0  0  0
   35.7210   28.4350   42.2660 C   0  0  0  0  0  0  0  0  0  0  0  0
   35.0060   28.8310   43.5700 C   0  0  0  0  0  0  0  0  0  0  0  0
   35.8880   29.9840   43.9830 C   0  0  0  0  0  0  0  0  0  0  0  0
   38.8340   33.1293   48.7227 H   0  0  0  0  0  0  0  0  0  0  0  0
   38.9741   31.5726   50.3846 H   0  0  0  0  0  0  0  0  0  0  0  0
   36.2299   29.3150   47.9386 H   0  0  0  0  0  0  0  0  0  0  0  0
   36.0367   29.1268   52.1673 H   0  0  0  0  0  0  0  0  0  0  0  0
   39.5346   29.2220   44.4353 H   0  0  0  0  0  0  0  0  0  0  0  0
   41.2207   31.3108   44.6702 H   0  0  0  0  0  0  0  0  0  0  0  0
   41.1477   30.2502   43.2223 H   0  0  0  0  0  0  0  0  0  0  0  0
   40.2930   31.8301   43.2223 H   0  0  0  0  0  0  0  0  0  0  0  0
   38.4567   30.5603   42.4351 H   0  0  0  0  0  0  0  0  0  0  0  0
   37.7193   31.5595   43.7025 H   0  0  0  0  0  0  0  0  0  0  0  0
   37.8133   28.8366   41.8896 H   0  0  0  0  0  0  0  0  0  0  0  0
   37.5327   27.5545   43.0866 H   0  0  0  0  0  0  0  0  0  0  0  0
   35.5048   29.1407   41.4503 H   0  0  0  0  0  0  0  0  0  0  0  0
   35.4262   27.4597   41.8514 H   0  0  0  0  0  0  0  0  0  0  0  0
   33.9683   29.1491   43.3911 H   0  0  0  0  0  0  0  0  0  0  0  0
   34.8993   28.0274   44.3135 H   0  0  0  0  0  0  0  0  0  0  0  0
   35.7350   30.2327   45.0435 H   0  0  0  0  0  0  0  0  0  0  0  0
   35.6723   30.9042   43.4202 H   0  0  0  0  0  0  0  0  0  0  0  0
  1  2  2  0
  1  7  1  0
  3  2  1  0
  4  3  1  0
  4  5  2  0
  5  1  1  0
  6 11  2  0
  7  6  1  0
  8  7  2  0
  8  9  1  0
  9 10  2  0
 10 11  1  0
 12  4  1  0
 13 12  1  0
 14 15  1  0
 14 12  1  0
 15 19  1  0
 16 15  1  0
 17 16  1  0
 17 18  1  0
 18 19  1  0
  2 20  1  0
  6 21  1  0
  8 22  1  0
 10 23  1  0
 12 24  1  1
 13 25  1  0
 13 26  1  0
 13 27  1  0
 14 28  1  0
 14 29  1  0
 16 30  1  0
 16 31  1  0
 17 32  1  0
 17 33  1  0
 18 34  1  0
 18 35  1  0
 19 36  1  0
 19 37  1  0
M  ISO  8  20  14  21  14  22  14  23  14  24   8  25   8  26   8  27   8
M  ISO  8  28   8  29   8  30  13  31  13  32  13  33  13  34  13  35  13
M  ISO  2  36  13  37  13
M  END
>  <minimizedAffinity>  (1) 
-4.84880972

>  <minimizedRMSD>  (1) 
0.605948031

$$$$
