
     RDKit          3D

 32 34  0  0  1  0  0  0  0  0999 V2000
   38.3710   31.1040   47.8230 C   0  0  0  0  0  0  0  0  0  0  0  0
   38.8980   32.4160   47.9170 C   0  0  0  0  0  0  0  0  0  0  0  0
   39.6270   32.7100   46.2510 S   0  0  0  0  0  0  0  0  0  0  0  0
   39.0700   30.9570   45.7190 C   0  0  0  0  0  0  0  0  0  0  0  0
   38.5720   30.5740   46.6420 N   0  0  0  0  0  0  0  0  0  0  0  0
   38.1110   30.8610   50.2730 C   0  0  0  0  0  0  0  0  0  0  0  0
   37.6970   30.5270   48.9800 C   0  0  0  0  0  0  0  0  0  0  0  0
   36.6290   29.6380   48.8950 C   0  0  0  0  0  0  0  0  0  0  0  0
   36.0630   29.1580   50.0210 N   0  0  0  0  0  0  0  0  0  0  0  0
   36.4960   29.5080   51.2410 C   0  0  0  0  0  0  0  0  0  0  0  0
   37.5380   30.3740   51.3700 N   0  0  0  0  0  0  0  0  0  0  0  0
   39.3120   30.3990   44.3510 C   0  0  2  0  0  0  0  0  0  0  0  0
   40.6190   30.9450   43.8720 C   0  0  0  0  0  0  0  0  0  0  0  0
   38.1810   30.8620   43.4410 C   0  0  0  0  0  0  0  0  0  0  0  0
   37.0630   29.9440   43.5300 N   0  0  0  0  0  0  0  0  0  0  0  0
   37.0990   28.7150   42.9660 C   0  0  0  0  0  0  0  0  0  0  0  0
   35.9050   28.0770   43.2120 C   0  0  0  0  0  0  0  0  0  0  0  0
   35.1470   28.9070   43.9220 N   0  0  0  0  0  0  0  0  0  0  0  0
   35.8500   30.0480   44.1180 C   0  0  0  0  0  0  0  0  0  0  0  0
   38.8768   33.0974   48.7802 H   0  0  0  0  0  0  0  0  0  0  0  0
   38.9518   31.5608   50.3886 H   0  0  0  0  0  0  0  0  0  0  0  0
   36.2475   29.3276   47.9111 H   0  0  0  0  0  0  0  0  0  0  0  0
   36.0093   29.0954   52.1370 H   0  0  0  0  0  0  0  0  0  0  0  0
   39.3435   29.2995   44.3550 H   0  0  0  0  0  0  0  0  0  0  0  0
   41.2461   31.2070   44.7370 H   0  0  0  0  0  0  0  0  0  0  0  0
   41.1324   30.1861   43.2633 H   0  0  0  0  0  0  0  0  0  0  0  0
   40.4400   31.8436   43.2633 H   0  0  0  0  0  0  0  0  0  0  0  0
   38.5410   30.8973   42.4022 H   0  0  0  0  0  0  0  0  0  0  0  0
   37.8513   31.8628   43.7569 H   0  0  0  0  0  0  0  0  0  0  0  0
   37.9449   28.2943   42.4026 H   0  0  0  0  0  0  0  0  0  0  0  0
   35.6281   27.0650   42.8816 H   0  0  0  0  0  0  0  0  0  0  0  0
   35.4885   30.9268   44.6721 H   0  0  0  0  0  0  0  0  0  0  0  0
  1  2  2  0
  1  7  1  0
  3  2  1  0
  4  3  1  0
  4  5  2  0
  5  1  1  0
  6 11  2  0
  7  6  1  0
  8  7  2  0
  8  9  1  0
  9 10  2  0
 10 11  1  0
 12  4  1  0
 13 12  1  0
 14 15  1  0
 14 12  1  0
 15 19  1  0
 16 17  2  0
 16 15  1  0
 17 18  1  0
 18 19  2  0
  2 20  1  0
  6 21  1  0
  8 22  1  0
 10 23  1  0
 12 24  1  1
 13 25  1  0
 13 26  1  0
 13 27  1  0
 14 28  1  0
 14 29  1  0
 16 30  1  0
 17 31  1  0
 19 32  1  0
M  ISO  8  20  14  21  14  22  14  23  14  24   8  25   8  26   8  27   8
M  ISO  5  28   8  29   8  30  14  31  14  32  14
M  END
>  <minimizedAffinity>  (1) 
-4.84176588

>  <minimizedRMSD>  (1) 
0.800846696

$$$$
