
     RDKit          3D

 26 27  0  0  1  0  0  0  0  0999 V2000
   38.3680   31.0550   47.8090 C   0  0  0  0  0  0  0  0  0  0  0  0
   38.8550   32.3850   47.8590 C   0  0  0  0  0  0  0  0  0  0  0  0
   39.6010   32.6470   46.2010 S   0  0  0  0  0  0  0  0  0  0  0  0
   39.1070   30.8630   45.7290 C   0  0  0  0  0  0  0  0  0  0  0  0
   38.6030   30.4860   46.6520 N   0  0  0  0  0  0  0  0  0  0  0  0
   38.1130   30.8530   50.2700 C   0  0  0  0  0  0  0  0  0  0  0  0
   37.6960   30.5090   48.9820 C   0  0  0  0  0  0  0  0  0  0  0  0
   36.6160   29.6330   48.9100 C   0  0  0  0  0  0  0  0  0  0  0  0
   36.0420   29.1730   50.0400 N   0  0  0  0  0  0  0  0  0  0  0  0
   36.4850   29.5370   51.2560 C   0  0  0  0  0  0  0  0  0  0  0  0
   37.5360   30.3900   51.3720 N   0  0  0  0  0  0  0  0  0  0  0  0
   39.3850   30.2610   44.3780 C   0  0  2  0  0  0  0  0  0  0  0  0
   40.5180   31.0250   43.7770 C   0  0  0  0  0  0  0  0  0  0  0  0
   38.1310   30.3950   43.5250 C   0  0  0  0  0  0  0  0  0  0  0  0
   38.4810   30.0520   42.2200 O   0  0  0  0  0  0  0  0  0  0  0  0
   38.7992   33.0958   48.6967 H   0  0  0  0  0  0  0  0  0  0  0  0
   38.9631   31.5429   50.3764 H   0  0  0  0  0  0  0  0  0  0  0  0
   36.2306   29.3158   47.9298 H   0  0  0  0  0  0  0  0  0  0  0  0
   35.9954   29.1433   52.1590 H   0  0  0  0  0  0  0  0  0  0  0  0
   39.6507   29.1958   44.4474 H   0  0  0  0  0  0  0  0  0  0  0  0
   41.1425   31.4461   44.5787 H   0  0  0  0  0  0  0  0  0  0  0  0
   41.1253   30.3513   43.1547 H   0  0  0  0  0  0  0  0  0  0  0  0
   40.1211   31.8406   43.1547 H   0  0  0  0  0  0  0  0  0  0  0  0
   37.3487   29.7165   43.8960 H   0  0  0  0  0  0  0  0  0  0  0  0
   37.7385   31.4217   43.5667 H   0  0  0  0  0  0  0  0  0  0  0  0
   39.1879   29.3592   42.2392 H   0  0  0  0  0  0  0  0  0  0  0  0
  1  2  2  0
  1  7  1  0
  3  2  1  0
  4  3  1  0
  4  5  2  0
  5  1  1  0
  6 11  2  0
  7  6  1  0
  8  7  2  0
  8  9  1  0
  9 10  2  0
 10 11  1  0
 12  4  1  0
 13 12  1  0
 14 12  1  0
 15 14  1  0
  2 16  1  0
  6 17  1  0
  8 18  1  0
 10 19  1  0
 12 20  1  1
 13 21  1  0
 13 22  1  0
 13 23  1  0
 14 24  1  0
 14 25  1  0
 15 26  1  0
M  ISO  8  16  14  17  14  18  14  19  14  20   8  21   8  22   8  23   8
M  ISO  3  24   8  25   8  26   3
M  END
>  <minimizedAffinity>  (1) 
-4.66367531

>  <minimizedRMSD>  (1) 
0.0699773505

$$$$
