
     RDKit          3D

 47 51  0  0  1  0  0  0  0  0999 V2000
   38.4860   32.5620   44.5870 C   0  0  0  0  0  0  0  0  0  0  0  0
   37.7130   31.4580   44.0870 N   0  0  0  0  0  0  0  0  0  0  0  0
   36.3870   31.2370   44.0550 C   0  0  0  0  0  0  0  0  0  0  0  0
   36.1920   30.0450   43.4690 N   0  0  0  0  0  0  0  0  0  0  0  0
   37.3600   29.4860   43.1200 C   0  0  0  0  0  0  0  0  0  0  0  0
   37.6650   28.2970   42.5030 C   0  0  0  0  0  0  0  0  0  0  0  0
   36.7680   27.4700   42.1410 O   0  0  0  0  0  0  0  0  0  0  0  0
   38.9560   27.9690   42.2620 N   0  0  0  0  0  0  0  0  0  0  0  0
   39.8650   28.8590   42.6540 C   0  0  0  0  0  0  0  0  0  0  0  0
   41.2490   28.5770   42.4220 N   0  0  0  0  0  0  0  0  0  0  0  0
   39.6070   30.0330   43.2600 N   0  0  0  0  0  0  0  0  0  0  0  0
   38.3320   30.3880   43.5140 C   0  0  0  0  0  0  0  0  0  0  0  0
   39.1550   26.7230   41.6230 C   0  0  0  0  0  0  0  0  0  0  0  0
   38.8230   25.4820   42.0750 C   0  0  0  0  0  0  0  0  0  0  0  0
   39.0160   24.2750   41.4550 C   0  0  0  0  0  0  0  0  0  0  0  0
   39.6170   24.3230   40.2280 N   0  0  0  0  0  0  0  0  0  0  0  0
   39.9720   25.5240   39.7210 C   0  0  0  0  0  0  0  0  0  0  0  0
   39.7310   26.6260   40.4180 N   0  0  0  0  0  0  0  0  0  0  0  0
   39.5470   32.1350   45.6150 C   0  0  2  0  0  0  0  0  0  0  0  0
   37.6730   31.7130   48.7440 C   0  0  0  0  0  0  0  0  0  0  0  0
   38.1250   32.8890   49.4050 C   0  0  0  0  0  0  0  0  0  0  0  0
   39.2720   33.6630   48.1940 S   0  0  0  0  0  0  0  0  0  0  0  0
   38.9200   32.2100   46.9770 C   0  0  0  0  0  0  0  0  0  0  0  0
   38.2060   31.5910   47.5540 N   0  0  0  0  0  0  0  0  0  0  0  0
   37.0330   30.2980   50.6680 C   0  0  0  0  0  0  0  0  0  0  0  0
   36.7270   30.8420   49.4220 C   0  0  0  0  0  0  0  0  0  0  0  0
   35.4770   30.5000   48.8920 C   0  0  0  0  0  0  0  0  0  0  0  0
   34.6600   29.6900   49.5890 N   0  0  0  0  0  0  0  0  0  0  0  0
   34.9980   29.1910   50.7850 C   0  0  0  0  0  0  0  0  0  0  0  0
   36.1900   29.4970   51.3250 N   0  0  0  0  0  0  0  0  0  0  0  0
   40.7090   33.0470   45.5970 C   0  0  0  0  0  0  0  0  0  0  0  0
   37.8034   33.2800   45.0652 H   0  0  0  0  0  0  0  0  0  0  0  0
   39.0161   33.0069   43.7320 H   0  0  0  0  0  0  0  0  0  0  0  0
   35.6055   31.9094   44.4386 H   0  0  0  0  0  0  0  0  0  0  0  0
   41.9687   29.2521   42.7174 H   0  0  0  0  0  0  0  0  0  0  0  0
   41.5252   27.6990   41.9597 H   0  0  0  0  0  0  0  0  0  0  0  0
   38.3390   25.4435   43.0620 H   0  0  0  0  0  0  0  0  0  0  0  0
   38.7063   23.3257   41.9164 H   0  0  0  0  0  0  0  0  0  0  0  0
   40.4579   25.5872   38.7362 H   0  0  0  0  0  0  0  0  0  0  0  0
   39.8920   31.1193   45.3715 H   0  0  0  0  0  0  0  0  0  0  0  0
   37.8519   33.2510   50.4072 H   0  0  0  0  0  0  0  0  0  0  0  0
   38.0037   30.5369   51.1269 H   0  0  0  0  0  0  0  0  0  0  0  0
   35.1652   30.8910   47.9123 H   0  0  0  0  0  0  0  0  0  0  0  0
   34.3015   28.5321   51.3242 H   0  0  0  0  0  0  0  0  0  0  0  0
   41.0074   33.2812   46.6295 H   0  0  0  0  0  0  0  0  0  0  0  0
   41.5470   32.5629   45.0740 H   0  0  0  0  0  0  0  0  0  0  0  0
   40.4379   33.9760   45.0740 H   0  0  0  0  0  0  0  0  0  0  0  0
  1 19  1  0
  2  1  1  0
  3  2  1  0
  4  3  2  0
  5  4  1  0
  5 12  2  0
  6  5  1  0
  7  6  2  0
  8  6  1  0
  8  9  1  0
  9 11  2  0
 10  9  1  0
 11 12  1  0
 12  2  1  0
 13 14  2  0
 13  8  1  0
 15 14  1  0
 16 15  2  0
 17 16  1  0
 17 18  2  0
 18 13  1  0
 19 23  1  0
 20 21  2  0
 20 26  1  0
 22 21  1  0
 23 24  2  0
 23 22  1  0
 24 20  1  0
 25 30  2  0
 26 25  1  0
 27 26  2  0
 27 28  1  0
 28 29  2  0
 29 30  1  0
 31 19  1  0
  1 32  1  0
  1 33  1  0
  3 34  1  0
 10 35  1  0
 10 36  1  0
 14 37  1  0
 15 38  1  0
 17 39  1  0
 19 40  1  6
 21 41  1  0
 25 42  1  0
 27 43  1  0
 29 44  1  0
 31 45  1  0
 31 46  1  0
 31 47  1  0
M  ISO  8  32   8  33   8  34  14  37  14  38  14  39  14  40   8  41  14
M  ISO  6  42  14  43  14  44  14  45   8  46   8  47   8
M  END
>  <minimizedAffinity>  (1) 
-6.18582439

>  <minimizedRMSD>  (1) 
0.772597373

$$$$
