
     RDKit          3D

 42 45  0  0  1  0  0  0  0  0999 V2000
   39.6410   32.2820   45.7800 C   0  0  2  0  0  0  0  0  0  0  0  0
   37.8470   31.8540   48.9540 C   0  0  0  0  0  0  0  0  0  0  0  0
   38.2570   33.0650   49.5690 C   0  0  0  0  0  0  0  0  0  0  0  0
   39.3350   33.8600   48.3230 S   0  0  0  0  0  0  0  0  0  0  0  0
   39.0330   32.3620   47.1470 C   0  0  0  0  0  0  0  0  0  0  0  0
   38.3610   31.7250   47.7540 N   0  0  0  0  0  0  0  0  0  0  0  0
   37.3560   30.3650   50.8540 C   0  0  0  0  0  0  0  0  0  0  0  0
   36.9500   30.9620   49.6690 C   0  0  0  0  0  0  0  0  0  0  0  0
   35.6520   30.6490   49.2360 C   0  0  0  0  0  0  0  0  0  0  0  0
   34.8800   29.8180   49.9560 N   0  0  0  0  0  0  0  0  0  0  0  0
   35.3270   29.2650   51.1040 C   0  0  0  0  0  0  0  0  0  0  0  0
   36.5550   29.5410   51.5430 N   0  0  0  0  0  0  0  0  0  0  0  0
   40.7050   33.3020   45.6820 C   0  0  0  0  0  0  0  0  0  0  0  0
   38.5260   32.5480   44.7560 C   0  0  0  0  0  0  0  0  0  0  0  0
   37.8510   31.3480   44.3370 N   0  0  0  0  0  0  0  0  0  0  0  0
   36.5650   30.9610   44.4380 C   0  0  0  0  0  0  0  0  0  0  0  0
   36.4630   29.7420   43.8790 N   0  0  0  0  0  0  0  0  0  0  0  0
   37.6510   29.3350   43.4200 C   0  0  0  0  0  0  0  0  0  0  0  0
   38.0380   28.1750   42.7810 C   0  0  0  0  0  0  0  0  0  0  0  0
   37.2420   27.2360   42.5100 O   0  0  0  0  0  0  0  0  0  0  0  0
   39.3150   28.0100   42.4190 N   0  0  0  0  0  0  0  0  0  0  0  0
   40.1590   29.0140   42.7100 C   0  0  0  0  0  0  0  0  0  0  0  0
   41.5390   28.8890   42.3460 N   0  0  0  0  0  0  0  0  0  0  0  0
   39.8160   30.1610   43.3340 N   0  0  0  0  0  0  0  0  0  0  0  0
   38.5350   30.3610   43.7130 C   0  0  0  0  0  0  0  0  0  0  0  0
   39.7360   26.8000   41.7490 C   0  0  0  0  0  0  0  0  0  0  0  0
   40.0838   31.2939   45.5862 H   0  0  0  0  0  0  0  0  0  0  0  0
   37.9880   33.4403   50.5674 H   0  0  0  0  0  0  0  0  0  0  0  0
   38.3649   30.5743   51.2390 H   0  0  0  0  0  0  0  0  0  0  0  0
   35.2653   31.0859   48.3034 H   0  0  0  0  0  0  0  0  0  0  0  0
   34.6777   28.5867   51.6770 H   0  0  0  0  0  0  0  0  0  0  0  0
   41.0188   33.6028   46.6925 H   0  0  0  0  0  0  0  0  0  0  0  0
   41.5658   32.8830   45.1403 H   0  0  0  0  0  0  0  0  0  0  0  0
   40.3227   34.1797   45.1403 H   0  0  0  0  0  0  0  0  0  0  0  0
   37.7877   33.2257   45.2095 H   0  0  0  0  0  0  0  0  0  0  0  0
   38.9955   32.9903   43.8650 H   0  0  0  0  0  0  0  0  0  0  0  0
   35.7468   31.5372   44.8947 H   0  0  0  0  0  0  0  0  0  0  0  0
   42.1994   29.6494   42.5617 H   0  0  0  0  0  0  0  0  0  0  0  0
   41.8707   28.0387   41.8686 H   0  0  0  0  0  0  0  0  0  0  0  0
   40.0007   26.0392   42.4981 H   0  0  0  0  0  0  0  0  0  0  0  0
   38.9155   26.4249   41.1196 H   0  0  0  0  0  0  0  0  0  0  0  0
   40.6121   27.0152   41.1196 H   0  0  0  0  0  0  0  0  0  0  0  0
  1  5  1  0
  2  3  2  0
  2  8  1  0
  4  3  1  0
  5  6  2  0
  5  4  1  0
  6  2  1  0
  7 12  2  0
  8  7  1  0
  9  8  2  0
  9 10  1  0
 10 11  2  0
 11 12  1  0
 13  1  1  0
 14  1  1  0
 15 16  1  0
 15 14  1  0
 17 16  2  0
 18 25  2  0
 18 17  1  0
 19 18  1  0
 20 19  2  0
 21 22  1  0
 21 19  1  0
 22 24  2  0
 23 22  1  0
 24 25  1  0
 25 15  1  0
 26 21  1  0
  1 27  1  6
  3 28  1  0
  7 29  1  0
  9 30  1  0
 11 31  1  0
 13 32  1  0
 13 33  1  0
 13 34  1  0
 14 35  1  0
 14 36  1  0
 16 37  1  0
 23 38  1  0
 23 39  1  0
 26 40  1  0
 26 41  1  0
 26 42  1  0
M  ISO  8  27   8  28  14  29  14  30  14  31  14  32   8  33   8  34   8
M  ISO  6  35   8  36   8  37  14  40   8  41   8  42   8
M  END
>  <minimizedAffinity>  (1) 
-6.16733217

>  <minimizedRMSD>  (1) 
0.277034998

$$$$
