
     RDKit          3D

 45 48  0  0  1  0  0  0  0  0999 V2000
   39.3750   32.3070   45.8130 C   0  0  2  0  0  0  0  0  0  0  0  0
   37.1330   31.4140   48.5850 C   0  0  0  0  0  0  0  0  0  0  0  0
   37.5760   32.3910   49.5160 C   0  0  0  0  0  0  0  0  0  0  0  0
   38.8950   33.3000   48.6210 S   0  0  0  0  0  0  0  0  0  0  0  0
   38.6000   32.1590   47.0940 C   0  0  0  0  0  0  0  0  0  0  0  0
   37.7910   31.4940   47.4530 N   0  0  0  0  0  0  0  0  0  0  0  0
   36.0410   29.9370   50.2350 C   0  0  0  0  0  0  0  0  0  0  0  0
   36.0690   30.5020   48.9680 C   0  0  0  0  0  0  0  0  0  0  0  0
   35.0200   30.1390   48.1100 C   0  0  0  0  0  0  0  0  0  0  0  0
   34.0680   29.2870   48.5420 N   0  0  0  0  0  0  0  0  0  0  0  0
   34.0830   28.7680   49.7750 C   0  0  0  0  0  0  0  0  0  0  0  0
   35.0720   29.0970   50.6160 N   0  0  0  0  0  0  0  0  0  0  0  0
   40.3360   33.4160   45.9890 C   0  0  0  0  0  0  0  0  0  0  0  0
   38.3650   32.6110   44.6950 C   0  0  0  0  0  0  0  0  0  0  0  0
   37.7200   31.4330   44.1840 N   0  0  0  0  0  0  0  0  0  0  0  0
   36.4240   31.0630   44.1470 C   0  0  0  0  0  0  0  0  0  0  0  0
   36.3650   29.8550   43.5570 N   0  0  0  0  0  0  0  0  0  0  0  0
   37.5920   29.4400   43.2130 C   0  0  0  0  0  0  0  0  0  0  0  0
   38.0310   28.2840   42.5930 C   0  0  0  0  0  0  0  0  0  0  0  0
   37.2740   27.3590   42.2210 O   0  0  0  0  0  0  0  0  0  0  0  0
   39.3330   28.1140   42.3620 N   0  0  0  0  0  0  0  0  0  0  0  0
   40.1620   29.0950   42.7540 C   0  0  0  0  0  0  0  0  0  0  0  0
   41.5750   28.9670   42.5270 N   0  0  0  0  0  0  0  0  0  0  0  0
   39.7680   30.2360   43.3620 N   0  0  0  0  0  0  0  0  0  0  0  0
   38.4640   30.4520   43.6150 C   0  0  0  0  0  0  0  0  0  0  0  0
   39.8340   26.9270   41.7190 C   0  0  0  0  0  0  0  0  0  0  0  0
   40.0390   27.0400   40.2570 C   0  0  0  0  0  0  0  0  0  0  0  0
   39.9344   31.3964   45.5524 H   0  0  0  0  0  0  0  0  0  0  0  0
   37.2117   32.5633   50.5395 H   0  0  0  0  0  0  0  0  0  0  0  0
   36.8402   30.1875   50.9481 H   0  0  0  0  0  0  0  0  0  0  0  0
   34.9742   30.5474   47.0897 H   0  0  0  0  0  0  0  0  0  0  0  0
   33.2896   28.0768   50.0954 H   0  0  0  0  0  0  0  0  0  0  0  0
   40.4935   33.5978   47.0624 H   0  0  0  0  0  0  0  0  0  0  0  0
   41.2936   33.1496   45.5178 H   0  0  0  0  0  0  0  0  0  0  0  0
   39.9361   34.3260   45.5178 H   0  0  0  0  0  0  0  0  0  0  0  0
   37.5944   33.2874   45.0934 H   0  0  0  0  0  0  0  0  0  0  0  0
   38.9226   33.0671   43.8637 H   0  0  0  0  0  0  0  0  0  0  0  0
   35.5708   31.6426   44.5292 H   0  0  0  0  0  0  0  0  0  0  0  0
   42.2146   29.7169   42.8260 H   0  0  0  0  0  0  0  0  0  0  0  0
   41.9483   28.1253   42.0653 H   0  0  0  0  0  0  0  0  0  0  0  0
   40.8002   26.6728   42.1793 H   0  0  0  0  0  0  0  0  0  0  0  0
   39.0630   26.1552   41.8601 H   0  0  0  0  0  0  0  0  0  0  0  0
   40.9866   27.5623   40.0589 H   0  0  0  0  0  0  0  0  0  0  0  0
   40.0749   26.0342   39.8130 H   0  0  0  0  0  0  0  0  0  0  0  0
   39.2078   27.6074   39.8130 H   0  0  0  0  0  0  0  0  0  0  0  0
  1 13  1  0
  1  5  1  0
  2  8  1  0
  2  3  2  0
  4  3  1  0
  5  6  2  0
  5  4  1  0
  6  2  1  0
  7 12  2  0
  8  7  1  0
  9 10  1  0
  9  8  2  0
 10 11  2  0
 11 12  1  0
 14  1  1  0
 15 14  1  0
 16 15  1  0
 17 16  2  0
 18 17  1  0
 18 25  2  0
 19 18  1  0
 20 19  2  0
 21 19  1  0
 21 22  1  0
 22 24  2  0
 23 22  1  0
 24 25  1  0
 25 15  1  0
 26 21  1  0
 27 26  1  0
  1 28  1  6
  3 29  1  0
  7 30  1  0
  9 31  1  0
 11 32  1  0
 13 33  1  0
 13 34  1  0
 13 35  1  0
 14 36  1  0
 14 37  1  0
 16 38  1  0
 23 39  1  0
 23 40  1  0
 26 41  1  0
 26 42  1  0
 27 43  1  0
 27 44  1  0
 27 45  1  0
M  ISO  8  28   8  29  14  30  14  31  14  32  14  33   8  34   8  35   8
M  ISO  8  36   8  37   8  38  14  41   8  42   8  43   8  44   8  45   8
M  END
>  <minimizedAffinity>  (1) 
-6.11919117

>  <minimizedRMSD>  (1) 
0.952166557

$$$$
