
     RDKit          3D

 15 16  0  0  0  0  0  0  0  0999 V2000
   37.3170   30.1780   51.3630 C   0  0  0  0  0  0  0  0  0  0  0  0
   38.0510   30.9260   50.4330 C   0  0  0  0  0  0  0  0  0  0  0  0
   37.7880   30.7200   49.0790 C   0  0  0  0  0  0  0  0  0  0  0  0
   36.8370   29.8080   48.7160 N   0  0  0  0  0  0  0  0  0  0  0  0
   36.1500   29.1070   49.6560 C   0  0  0  0  0  0  0  0  0  0  0  0
   36.3850   29.2860   50.9700 N   0  0  0  0  0  0  0  0  0  0  0  0
   38.4960   31.4460   48.0280 C   0  0  0  0  0  0  0  0  0  0  0  0
   39.0080   32.6900   47.9660 N   0  0  0  0  0  0  0  0  0  0  0  0
   39.5560   32.9050   46.8150 O   0  0  0  0  0  0  0  0  0  0  0  0
   39.4180   31.8150   46.0990 C   0  0  0  0  0  0  0  0  0  0  0  0
   38.7580   30.8770   46.8230 N   0  0  0  0  0  0  0  0  0  0  0  0
   37.5051   30.3215   52.4373 H   0  0  0  0  0  0  0  0  0  0  0  0
   38.8099   31.6520   50.7602 H   0  0  0  0  0  0  0  0  0  0  0  0
   35.3881   28.3802   49.3378 H   0  0  0  0  0  0  0  0  0  0  0  0
   39.7817   31.6819   45.0694 H   0  0  0  0  0  0  0  0  0  0  0  0
  2  1  2  0
  3  2  1  0
  4  3  2  0
  4  5  1  0
  5  6  2  0
  6  1  1  0
  7  3  1  0
  8  7  2  0
  9  8  1  0
 10  9  1  0
 10 11  2  0
 11  7  1  0
  1 12  1  0
  2 13  1  0
  5 14  1  0
 10 15  1  0
M  ISO  4  12  14  13  14  14  14  15  14
M  END
>  <minimizedAffinity>  (1) 
-4.25487471

>  <minimizedRMSD>  (1) 
0.731094778

$$$$
