
     RDKit          3D

 25 27  0  0  0  0  0  0  0  0999 V2000
   38.3560   31.4690   48.1770 C   0  0  0  0  0  0  0  0  0  0  0  0
   38.9870   32.6470   48.1270 N   0  0  0  0  0  0  0  0  0  0  0  0
   39.4150   32.8900   46.9330 O   0  0  0  0  0  0  0  0  0  0  0  0
   39.0790   31.8850   46.1760 C   0  0  0  0  0  0  0  0  0  0  0  0
   38.4150   30.9740   46.9120 N   0  0  0  0  0  0  0  0  0  0  0  0
   37.3640   30.1500   51.5420 C   0  0  0  0  0  0  0  0  0  0  0  0
   38.0310   30.8960   50.5710 C   0  0  0  0  0  0  0  0  0  0  0  0
   37.6960   30.7220   49.2390 C   0  0  0  0  0  0  0  0  0  0  0  0
   36.7230   29.8260   48.9370 N   0  0  0  0  0  0  0  0  0  0  0  0
   36.0910   29.1160   49.9040 C   0  0  0  0  0  0  0  0  0  0  0  0
   36.4090   29.2770   51.1990 N   0  0  0  0  0  0  0  0  0  0  0  0
   39.4000   31.8140   44.7550 C   0  0  0  0  0  0  0  0  0  0  0  0
   40.0600   30.7030   44.2750 C   0  0  0  0  0  0  0  0  0  0  0  0
   40.4240   30.5090   42.9490 C   0  0  0  0  0  0  0  0  0  0  0  0
   40.0980   31.5070   42.0540 C   0  0  0  0  0  0  0  0  0  0  0  0
   39.4340   32.6320   42.5200 C   0  0  0  0  0  0  0  0  0  0  0  0
   39.0860   32.7950   43.8460 C   0  0  0  0  0  0  0  0  0  0  0  0
   37.6257   30.2804   52.6024 H   0  0  0  0  0  0  0  0  0  0  0  0
   38.8133   31.6135   50.8596 H   0  0  0  0  0  0  0  0  0  0  0  0
   35.3064   28.3977   49.6238 H   0  0  0  0  0  0  0  0  0  0  0  0
   40.3172   29.9122   44.9951 H   0  0  0  0  0  0  0  0  0  0  0  0
   40.9498   29.5984   42.6260 H   0  0  0  0  0  0  0  0  0  0  0  0
   40.3600   31.4122   40.9899 H   0  0  0  0  0  0  0  0  0  0  0  0
   39.1743   33.4261   41.8045 H   0  0  0  0  0  0  0  0  0  0  0  0
   38.5606   33.7046   44.1726 H   0  0  0  0  0  0  0  0  0  0  0  0
  1  8  1  0
  2  1  2  0
  3  2  1  0
  4  5  2  0
  4  3  1  0
  5  1  1  0
  7  6  2  0
  8  7  1  0
  9  8  2  0
  9 10  1  0
 10 11  2  0
 11  6  1  0
 12  4  1  0
 13 12  2  0
 14 13  1  0
 15 16  1  0
 15 14  2  0
 16 17  2  0
 17 12  1  0
  6 18  1  0
  7 19  1  0
 10 20  1  0
 13 21  1  0
 14 22  1  0
 15 23  1  0
 16 24  1  0
 17 25  1  0
M  ISO  8  18  14  19  14  20  14  21  14  22  14  23  14  24  14  25  14
M  END
>  <minimizedAffinity>  (1) 
-5.57525301

>  <minimizedRMSD>  (1) 
0.478597462

$$$$
