
     RDKit          3D

 24 26  0  0  0  0  0  0  0  0999 V2000
   38.3910   31.4920   48.1820 C   0  0  0  0  0  0  0  0  0  0  0  0
   39.0150   32.6970   48.1990 N   0  0  0  0  0  0  0  0  0  0  0  0
   39.4520   32.9820   47.0150 O   0  0  0  0  0  0  0  0  0  0  0  0
   39.1310   31.9860   46.2140 C   0  0  0  0  0  0  0  0  0  0  0  0
   38.4700   31.0460   46.9130 N   0  0  0  0  0  0  0  0  0  0  0  0
   37.3200   30.1240   51.5170 C   0  0  0  0  0  0  0  0  0  0  0  0
   38.0040   30.9000   50.5860 C   0  0  0  0  0  0  0  0  0  0  0  0
   37.7350   30.7320   49.2400 C   0  0  0  0  0  0  0  0  0  0  0  0
   36.7970   29.8010   48.8580 N   0  0  0  0  0  0  0  0  0  0  0  0
   36.1510   29.0630   49.8060 C   0  0  0  0  0  0  0  0  0  0  0  0
   36.4000   29.2140   51.1140 N   0  0  0  0  0  0  0  0  0  0  0  0
   39.4280   31.8790   44.7710 C   0  0  0  0  0  0  0  0  0  0  0  0
   40.1140   30.7870   44.2550 C   0  0  0  0  0  0  0  0  0  0  0  0
   40.3740   30.7210   42.8930 C   0  0  0  0  0  0  0  0  0  0  0  0
   39.9290   31.7610   42.1060 C   0  0  0  0  0  0  0  0  0  0  0  0
   39.2470   32.8420   42.6340 C   0  0  0  0  0  0  0  0  0  0  0  0
   39.0140   32.8680   43.9570 N   0  0  0  0  0  0  0  0  0  0  0  0
   37.5279   30.2504   52.5897 H   0  0  0  0  0  0  0  0  0  0  0  0
   38.7496   31.6380   50.9168 H   0  0  0  0  0  0  0  0  0  0  0  0
   35.4033   28.3218   49.4873 H   0  0  0  0  0  0  0  0  0  0  0  0
   40.4494   29.9790   44.9219 H   0  0  0  0  0  0  0  0  0  0  0  0
   40.9161   29.8687   42.4574 H   0  0  0  0  0  0  0  0  0  0  0  0
   40.1224   31.7303   41.0236 H   0  0  0  0  0  0  0  0  0  0  0  0
   38.9032   33.6616   41.9859 H   0  0  0  0  0  0  0  0  0  0  0  0
  1  2  2  0
  1  8  1  0
  3  2  1  0
  4  5  2  0
  4  3  1  0
  5  1  1  0
  7  6  2  0
  8  7  1  0
  9  8  2  0
  9 10  1  0
 10 11  2  0
 11  6  1  0
 12  4  1  0
 13 12  2  0
 14 13  1  0
 15 16  1  0
 15 14  2  0
 16 17  2  0
 17 12  1  0
  6 18  1  0
  7 19  1  0
 10 20  1  0
 13 21  1  0
 14 22  1  0
 15 23  1  0
 16 24  1  0
M  ISO  7  18  14  19  14  20  14  21  14  22  14  23  14  24  14
M  END
>  <minimizedAffinity>  (1) 
-5.55998039

>  <minimizedRMSD>  (1) 
0.720279455

$$$$
