
     RDKit          3D

 22 24  0  0  0  0  0  0  0  0999 V2000
   38.4060   31.4930   48.1910 C   0  0  0  0  0  0  0  0  0  0  0  0
   39.0040   32.7120   48.2030 N   0  0  0  0  0  0  0  0  0  0  0  0
   39.4560   32.9760   47.0140 O   0  0  0  0  0  0  0  0  0  0  0  0
   39.1760   31.9730   46.2290 C   0  0  0  0  0  0  0  0  0  0  0  0
   38.5210   31.0290   46.9240 N   0  0  0  0  0  0  0  0  0  0  0  0
   39.5160   31.8940   44.8310 N   0  0  0  0  0  0  0  0  0  0  0  0
   39.0190   32.7380   43.9110 C   0  0  0  0  0  0  0  0  0  0  0  0
   39.5810   32.3360   42.7040 C   0  0  0  0  0  0  0  0  0  0  0  0
   40.3770   31.2870   42.9460 N   0  0  0  0  0  0  0  0  0  0  0  0
   40.3450   31.0060   44.2470 C   0  0  0  0  0  0  0  0  0  0  0  0
   37.3060   30.1140   51.5110 C   0  0  0  0  0  0  0  0  0  0  0  0
   38.0130   30.9020   50.5980 C   0  0  0  0  0  0  0  0  0  0  0  0
   37.7350   30.7250   49.2490 C   0  0  0  0  0  0  0  0  0  0  0  0
   36.7950   29.8040   48.8380 N   0  0  0  0  0  0  0  0  0  0  0  0
   36.1460   29.0690   49.7970 C   0  0  0  0  0  0  0  0  0  0  0  0
   36.3890   29.2140   51.1050 N   0  0  0  0  0  0  0  0  0  0  0  0
   38.3177   33.5690   44.0770 H   0  0  0  0  0  0  0  0  0  0  0  0
   39.4027   32.7989   41.7222 H   0  0  0  0  0  0  0  0  0  0  0  0
   40.8941   30.1978   44.7523 H   0  0  0  0  0  0  0  0  0  0  0  0
   37.5030   30.2315   52.5868 H   0  0  0  0  0  0  0  0  0  0  0  0
   38.7611   31.6344   50.9354 H   0  0  0  0  0  0  0  0  0  0  0  0
   35.3956   28.3306   49.4782 H   0  0  0  0  0  0  0  0  0  0  0  0
  1  2  2  0
  1 13  1  0
  3  2  1  0
  4  5  2  0
  4  3  1  0
  5  1  1  0
  6  4  1  0
  7  6  1  0
  8  9  1  0
  8  7  2  0
  9 10  2  0
 10  6  1  0
 12 11  2  0
 13 12  1  0
 14 13  2  0
 14 15  1  0
 15 16  2  0
 16 11  1  0
  7 17  1  0
  8 18  1  0
 10 19  1  0
 11 20  1  0
 12 21  1  0
 15 22  1  0
M  ISO  6  17  14  18  14  19  14  20  14  21  14  22  14
M  END
>  <minimizedAffinity>  (1) 
-5.55993557

>  <minimizedRMSD>  (1) 
0.36928159

$$$$
