
     RDKit          3D

 23 25  0  0  0  0  0  0  0  0999 V2000
   38.4270   31.5660   48.2010 C   0  0  0  0  0  0  0  0  0  0  0  0
   39.0120   32.7650   48.2250 N   0  0  0  0  0  0  0  0  0  0  0  0
   39.4860   33.0820   47.0700 O   0  0  0  0  0  0  0  0  0  0  0  0
   39.2210   32.0850   46.2430 C   0  0  0  0  0  0  0  0  0  0  0  0
   38.5630   31.1330   46.9320 N   0  0  0  0  0  0  0  0  0  0  0  0
   37.3160   30.1180   51.4840 C   0  0  0  0  0  0  0  0  0  0  0  0
   38.0110   30.9270   50.5820 C   0  0  0  0  0  0  0  0  0  0  0  0
   37.7550   30.7720   49.2210 C   0  0  0  0  0  0  0  0  0  0  0  0
   36.8370   29.8380   48.8150 N   0  0  0  0  0  0  0  0  0  0  0  0
   36.1810   29.0700   49.7310 C   0  0  0  0  0  0  0  0  0  0  0  0
   36.4120   29.2020   51.0600 N   0  0  0  0  0  0  0  0  0  0  0  0
   39.5270   31.9120   44.8260 C   0  0  0  0  0  0  0  0  0  0  0  0
   40.2550   30.8390   44.3030 C   0  0  0  0  0  0  0  0  0  0  0  0
   40.4820   30.7810   42.9430 C   0  0  0  0  0  0  0  0  0  0  0  0
   39.9850   31.7730   42.1740 N   0  0  0  0  0  0  0  0  0  0  0  0
   39.2890   32.7960   42.6960 C   0  0  0  0  0  0  0  0  0  0  0  0
   39.0490   32.8810   44.0170 N   0  0  0  0  0  0  0  0  0  0  0  0
   37.5067   30.2269   52.5619 H   0  0  0  0  0  0  0  0  0  0  0  0
   38.7422   31.6680   50.9372 H   0  0  0  0  0  0  0  0  0  0  0  0
   35.4481   28.3269   49.3837 H   0  0  0  0  0  0  0  0  0  0  0  0
   40.6416   30.0516   44.9667 H   0  0  0  0  0  0  0  0  0  0  0  0
   41.0510   29.9511   42.4987 H   0  0  0  0  0  0  0  0  0  0  0  0
   38.9065   33.5822   42.0284 H   0  0  0  0  0  0  0  0  0  0  0  0
  1  2  2  0
  1  8  1  0
  3  2  1  0
  4  5  2  0
  4  3  1  0
  5  1  1  0
  7  6  2  0
  8  7  1  0
  9  8  2  0
  9 10  1  0
 10 11  2  0
 11  6  1  0
 12  4  1  0
 13 12  2  0
 14 13  1  0
 15 16  1  0
 15 14  2  0
 16 17  2  0
 17 12  1  0
  6 18  1  0
  7 19  1  0
 10 20  1  0
 13 21  1  0
 14 22  1  0
 16 23  1  0
M  ISO  6  18  14  19  14  20  14  21  14  22  14  23  14
M  END
>  <minimizedAffinity>  (1) 
-5.53099442

>  <minimizedRMSD>  (1) 
0.451860219

$$$$
