
     RDKit          3D

 22 24  0  0  0  0  0  0  0  0999 V2000
   38.4200   31.3580   48.0500 C   0  0  0  0  0  0  0  0  0  0  0  0
   38.9610   32.5790   47.9410 N   0  0  0  0  0  0  0  0  0  0  0  0
   39.4750   32.7410   46.7560 O   0  0  0  0  0  0  0  0  0  0  0  0
   39.2850   31.6480   46.0760 C   0  0  0  0  0  0  0  0  0  0  0  0
   38.6250   30.7470   46.8460 N   0  0  0  0  0  0  0  0  0  0  0  0
   37.3190   30.1910   51.4420 C   0  0  0  0  0  0  0  0  0  0  0  0
   38.0470   30.9100   50.4770 C   0  0  0  0  0  0  0  0  0  0  0  0
   37.7270   30.6670   49.1340 C   0  0  0  0  0  0  0  0  0  0  0  0
   36.7430   29.7590   48.8170 N   0  0  0  0  0  0  0  0  0  0  0  0
   36.0790   29.0990   49.7940 C   0  0  0  0  0  0  0  0  0  0  0  0
   36.3550   29.3060   51.0930 N   0  0  0  0  0  0  0  0  0  0  0  0
   39.7060   31.4080   44.7000 C   0  0  0  0  0  0  0  0  0  0  0  0
   39.5530   32.2540   43.6220 C   0  0  0  0  0  0  0  0  0  0  0  0
   40.0580   31.7110   42.5030 N   0  0  0  0  0  0  0  0  0  0  0  0
   40.5490   30.4880   42.8610 C   0  0  0  0  0  0  0  0  0  0  0  0
   40.3280   30.3260   44.1820 N   0  0  0  0  0  0  0  0  0  0  0  0
   37.5383   30.3516   52.5079 H   0  0  0  0  0  0  0  0  0  0  0  0
   38.8297   31.6283   50.7623 H   0  0  0  0  0  0  0  0  0  0  0  0
   35.2960   28.3770   49.5190 H   0  0  0  0  0  0  0  0  0  0  0  0
   39.0787   33.2452   43.6724 H   0  0  0  0  0  0  0  0  0  0  0  0
   41.0374   29.7643   42.1919 H   0  0  0  0  0  0  0  0  0  0  0  0
   40.5968   29.4912   44.7222 H   0  0  0  0  0  0  0  0  0  0  0  0
  1  8  1  0
  2  1  2  0
  3  2  1  0
  4  3  1  0
  4  5  2  0
  5  1  1  0
  7  6  2  0
  8  7  1  0
  9  8  2  0
  9 10  1  0
 10 11  2  0
 11  6  1  0
 12  4  1  0
 13 12  2  0
 14 15  2  0
 14 13  1  0
 15 16  1  0
 16 12  1  0
  6 17  1  0
  7 18  1  0
 10 19  1  0
 13 20  1  0
 15 21  1  0
 16 22  1  0
M  ISO  6  17  14  18  14  19  14  20  14  21  14  22   9
M  END
>  <minimizedAffinity>  (1) 
-5.46156073

>  <minimizedRMSD>  (1) 
0.252122998

$$$$
