
     RDKit          3D

 17 18  0  0  0  0  0  0  0  0999 V2000
   37.3390   30.2130   51.2590 C   0  0  0  0  0  0  0  0  0  0  0  0
   38.1040   30.9870   50.3610 C   0  0  0  0  0  0  0  0  0  0  0  0
   37.8460   30.7710   48.9970 C   0  0  0  0  0  0  0  0  0  0  0  0
   36.9040   29.8600   48.5920 N   0  0  0  0  0  0  0  0  0  0  0  0
   36.2120   29.1560   49.5250 C   0  0  0  0  0  0  0  0  0  0  0  0
   36.4200   29.3240   50.8440 N   0  0  0  0  0  0  0  0  0  0  0  0
   38.5870   31.5270   47.9800 C   0  0  0  0  0  0  0  0  0  0  0  0
   39.0430   32.7840   47.9060 N   0  0  0  0  0  0  0  0  0  0  0  0
   39.6490   32.9920   46.7940 O   0  0  0  0  0  0  0  0  0  0  0  0
   39.6130   31.8730   46.0930 C   0  0  0  0  0  0  0  0  0  0  0  0
   38.9540   30.9350   46.8100 N   0  0  0  0  0  0  0  0  0  0  0  0
   40.1430   31.6120   44.8130 N   0  0  0  0  0  0  0  0  0  0  0  0
   37.5007   30.3419   52.3394 H   0  0  0  0  0  0  0  0  0  0  0  0
   38.8544   31.7131   50.7068 H   0  0  0  0  0  0  0  0  0  0  0  0
   35.4588   28.4265   49.1925 H   0  0  0  0  0  0  0  0  0  0  0  0
   40.0344   30.6786   44.3912 H   0  0  0  0  0  0  0  0  0  0  0  0
   40.6388   32.3547   44.2996 H   0  0  0  0  0  0  0  0  0  0  0  0
  2  1  2  0
  3  2  1  0
  4  3  2  0
  4  5  1  0
  5  6  2  0
  6  1  1  0
  7  3  1  0
  8  7  2  0
  9  8  1  0
 10  9  1  0
 10 11  2  0
 11  7  1  0
 12 10  1  0
  1 13  1  0
  2 14  1  0
  5 15  1  0
 12 16  1  0
 12 17  1  0
M  ISO  3  13  14  14  14  15  14
M  END
>  <minimizedAffinity>  (1) 
-4.49089241

>  <minimizedRMSD>  (1) 
0.163965315

$$$$
