
     RDKit          3D

 16 17  0  0  0  0  0  0  0  0999 V2000
   37.3410   30.2240   51.2650 C   0  0  0  0  0  0  0  0  0  0  0  0
   38.0840   30.9610   50.3390 C   0  0  0  0  0  0  0  0  0  0  0  0
   37.8380   30.7510   48.9930 C   0  0  0  0  0  0  0  0  0  0  0  0
   36.8840   29.8370   48.6210 N   0  0  0  0  0  0  0  0  0  0  0  0
   36.1850   29.1430   49.5450 C   0  0  0  0  0  0  0  0  0  0  0  0
   36.4050   29.3280   50.8660 N   0  0  0  0  0  0  0  0  0  0  0  0
   38.5550   31.4660   47.9340 C   0  0  0  0  0  0  0  0  0  0  0  0
   39.0390   32.7270   47.8670 N   0  0  0  0  0  0  0  0  0  0  0  0
   39.6060   32.9270   46.7260 O   0  0  0  0  0  0  0  0  0  0  0  0
   39.5100   31.8280   46.0340 C   0  0  0  0  0  0  0  0  0  0  0  0
   38.8530   30.8640   46.7460 N   0  0  0  0  0  0  0  0  0  0  0  0
   39.9510   31.4920   44.7400 O   0  0  0  0  0  0  0  0  0  0  0  0
   37.5193   30.3739   52.3401 H   0  0  0  0  0  0  0  0  0  0  0  0
   38.8418   31.6865   50.6698 H   0  0  0  0  0  0  0  0  0  0  0  0
   35.4260   28.4170   49.2181 H   0  0  0  0  0  0  0  0  0  0  0  0
   39.7810   30.5861   44.3788 H   0  0  0  0  0  0  0  0  0  0  0  0
  2  1  2  0
  3  2  1  0
  4  3  2  0
  4  5  1  0
  5  6  2  0
  6  1  1  0
  7  3  1  0
  8  7  2  0
  9  8  1  0
 10  9  1  0
 10 11  2  0
 11  7  1  0
 12 10  1  0
  1 13  1  0
  2 14  1  0
  5 15  1  0
 12 16  1  0
M  ISO  4  13  14  14  14  15  14  16   3
M  END
>  <minimizedAffinity>  (1) 
-4.48069525

>  <minimizedRMSD>  (1) 
0.114162505

$$$$
