
     RDKit          3D

 30 31  0  0  0  0  0  0  0  0999 V2000
   39.4570   32.2680   46.0790 C   0  0  0  0  0  0  0  0  0  0  0  0
   38.2120   32.6080   49.6580 C   0  0  0  0  0  0  0  0  0  0  0  0
   38.8220   32.9600   48.4360 C   0  0  0  0  0  0  0  0  0  0  0  0
   38.8530   32.0230   47.3990 C   0  0  0  0  0  0  0  0  0  0  0  0
   38.2800   30.8030   47.6360 N   0  0  0  0  0  0  0  0  0  0  0  0
   37.7060   30.5020   48.8170 C   0  0  0  0  0  0  0  0  0  0  0  0
   37.6700   31.3950   49.8250 N   0  0  0  0  0  0  0  0  0  0  0  0
   40.3320   31.0640   45.7560 C   0  0  0  0  0  0  0  0  0  0  0  0
   40.2690   33.5160   45.9930 C   0  0  0  0  0  0  0  0  0  0  0  0
   38.3480   32.3340   45.0660 C   0  0  0  0  0  0  0  0  0  0  0  0
   38.6880   31.7260   43.7610 C   0  0  0  0  0  0  0  0  0  0  0  0
   38.1450   30.4970   43.4270 C   0  0  0  0  0  0  0  0  0  0  0  0
   38.4300   29.8850   42.2200 C   0  0  0  0  0  0  0  0  0  0  0  0
   39.2530   30.4650   41.3130 N   0  0  0  0  0  0  0  0  0  0  0  0
   39.7730   31.6680   41.6590 C   0  0  0  0  0  0  0  0  0  0  0  0
   39.5000   32.2650   42.8280 N   0  0  0  0  0  0  0  0  0  0  0  0
   38.1812   33.3367   50.4815 H   0  0  0  0  0  0  0  0  0  0  0  0
   39.2667   33.9570   48.3009 H   0  0  0  0  0  0  0  0  0  0  0  0
   37.2580   29.5077   48.9611 H   0  0  0  0  0  0  0  0  0  0  0  0
   40.6720   30.5962   46.6917 H   0  0  0  0  0  0  0  0  0  0  0  0
   39.7515   30.3351   45.1715 H   0  0  0  0  0  0  0  0  0  0  0  0
   41.2046   31.3911   45.1715 H   0  0  0  0  0  0  0  0  0  0  0  0
   40.5012   33.8730   47.0072 H   0  0  0  0  0  0  0  0  0  0  0  0
   41.2052   33.3079   45.4542 H   0  0  0  0  0  0  0  0  0  0  0  0
   39.6995   34.2876   45.4542 H   0  0  0  0  0  0  0  0  0  0  0  0
   37.4735   31.8072   45.4757 H   0  0  0  0  0  0  0  0  0  0  0  0
   38.1511   33.3999   44.8788 H   0  0  0  0  0  0  0  0  0  0  0  0
   37.4715   29.9959   44.1379 H   0  0  0  0  0  0  0  0  0  0  0  0
   37.9796   28.9078   41.9916 H   0  0  0  0  0  0  0  0  0  0  0  0
   40.4462   32.1750   40.9521 H   0  0  0  0  0  0  0  0  0  0  0  0
  1  4  1  0
  2  7  2  0
  3  2  1  0
  4  5  1  0
  4  3  2  0
  5  6  2  0
  6  7  1  0
  8  1  1  0
  9  1  1  0
 10  1  1  0
 11 10  1  0
 12 11  2  0
 13 12  1  0
 14 15  1  0
 14 13  2  0
 15 16  2  0
 16 11  1  0
  2 17  1  0
  3 18  1  0
  6 19  1  0
  8 20  1  0
  8 21  1  0
  8 22  1  0
  9 23  1  0
  9 24  1  0
  9 25  1  0
 10 26  1  0
 10 27  1  0
 12 28  1  0
 13 29  1  0
 15 30  1  0
M  ISO  8  17  14  18  14  19  14  20   8  21   8  22   8  23   8  24   8
M  ISO  6  25   8  26   8  27   8  28  14  29  14  30  14
M  END
>  <minimizedAffinity>  (1) 
-4.62415934

>  <minimizedRMSD>  (1) 
1.31716681

$$$$
