
     RDKit          3D

 37 40  0  0  0  0  0  0  0  0999 V2000
   37.8620   32.7730   49.8290 C   0  0  0  0  0  0  0  0  0  0  0  0
   38.6950   33.0200   48.7370 C   0  0  0  0  0  0  0  0  0  0  0  0
   38.4610   32.2630   47.5740 C   0  0  0  0  0  0  0  0  0  0  0  0
   37.4550   31.3440   47.5640 N   0  0  0  0  0  0  0  0  0  0  0  0
   36.6810   31.1530   48.6620 C   0  0  0  0  0  0  0  0  0  0  0  0
   36.8730   31.8570   49.7940 N   0  0  0  0  0  0  0  0  0  0  0  0
   35.6400   30.1870   48.6200 N   0  0  0  0  0  0  0  0  0  0  0  0
   34.5490   30.2640   47.6760 C   0  0  0  0  0  0  0  0  0  0  0  0
   34.2830   28.9360   47.0060 C   0  0  0  0  0  0  0  0  0  0  0  0
   34.2910   27.7920   47.9930 C   0  0  0  0  0  0  0  0  0  0  0  0
   34.3320   28.3130   49.4310 C   0  0  0  0  0  0  0  0  0  0  0  0
   35.6400   29.0660   49.5460 C   0  0  0  0  0  0  0  0  0  0  0  0
   39.2620   32.4280   46.3700 C   0  0  0  0  0  0  0  0  0  0  0  0
   40.1790   33.3640   46.0030 N   0  0  0  0  0  0  0  0  0  0  0  0
   40.6280   33.0720   44.8070 O   0  0  0  0  0  0  0  0  0  0  0  0
   40.0420   31.9950   44.3910 C   0  0  0  0  0  0  0  0  0  0  0  0
   39.1640   31.5410   45.3440 N   0  0  0  0  0  0  0  0  0  0  0  0
   40.2240   31.3140   43.1440 N   0  0  0  0  0  0  0  0  0  0  0  0
   39.8520   31.8500   41.9840 N   0  0  0  0  0  0  0  0  0  0  0  0
   40.1440   30.9900   40.9850 C   0  0  0  0  0  0  0  0  0  0  0  0
   40.7220   29.8800   41.5910 C   0  0  0  0  0  0  0  0  0  0  0  0
   40.7710   30.0910   42.9630 C   0  0  0  0  0  0  0  0  0  0  0  0
   38.0181   33.3476   50.7539 H   0  0  0  0  0  0  0  0  0  0  0  0
   39.4971   33.7713   48.7831 H   0  0  0  0  0  0  0  0  0  0  0  0
   33.6404   30.5808   48.2090 H   0  0  0  0  0  0  0  0  0  0  0  0
   34.8265   30.9879   46.8956 H   0  0  0  0  0  0  0  0  0  0  0  0
   33.2986   28.9760   46.5168 H   0  0  0  0  0  0  0  0  0  0  0  0
   35.0845   28.7584   46.2738 H   0  0  0  0  0  0  0  0  0  0  0  0
   33.3812   27.1897   47.8538 H   0  0  0  0  0  0  0  0  0  0  0  0
   35.1874   27.1799   47.8149 H   0  0  0  0  0  0  0  0  0  0  0  0
   33.4824   28.9852   49.6216 H   0  0  0  0  0  0  0  0  0  0  0  0
   34.2629   27.4966   50.1650 H   0  0  0  0  0  0  0  0  0  0  0  0
   36.4738   28.3907   49.3035 H   0  0  0  0  0  0  0  0  0  0  0  0
   35.7569   29.4408   50.5736 H   0  0  0  0  0  0  0  0  0  0  0  0
   39.9617   31.1375   39.9103 H   0  0  0  0  0  0  0  0  0  0  0  0
   41.0818   28.9812   41.0689 H   0  0  0  0  0  0  0  0  0  0  0  0
   41.1675   29.4125   43.7327 H   0  0  0  0  0  0  0  0  0  0  0  0
  2  1  2  0
  3  2  1  0
  4  3  2  0
  4  5  1  0
  5  6  2  0
  6  1  1  0
  7  5  1  0
  7 12  1  0
  8  7  1  0
  9  8  1  0
  9 10  1  0
 10 11  1  0
 11 12  1  0
 13  3  1  0
 14 13  2  0
 15 14  1  0
 16 15  1  0
 16 17  2  0
 17 13  1  0
 18 16  1  0
 19 18  1  0
 20 21  1  0
 20 19  2  0
 21 22  2  0
 22 18  1  0
  1 23  1  0
  2 24  1  0
  8 25  1  0
  8 26  1  0
  9 27  1  0
  9 28  1  0
 10 29  1  0
 10 30  1  0
 11 31  1  0
 11 32  1  0
 12 33  1  0
 12 34  1  0
 20 35  1  0
 21 36  1  0
 22 37  1  0
M  ISO  8  23  14  24  14  25  13  26  13  27  13  28  13  29  13  30  13
M  ISO  7  31  13  32  13  33  13  34  13  35  14  36  14  37  14
M  END
>  <minimizedAffinity>  (1) 
-7.14744759

>  <minimizedRMSD>  (1) 
2.27577043

$$$$
