
     RDKit          3D

 29 29  0  0  0  0  0  0  0  0999 V2000
   39.0880   32.1670   45.8880 C   0  0  0  0  0  0  0  0  0  0  0  0
   38.4140   33.0640   49.5190 C   0  0  0  0  0  0  0  0  0  0  0  0
   39.0240   33.1070   48.2370 C   0  0  0  0  0  0  0  0  0  0  0  0
   38.5560   32.2350   47.2550 C   0  0  0  0  0  0  0  0  0  0  0  0
   37.5360   31.3940   47.5980 N   0  0  0  0  0  0  0  0  0  0  0  0
   36.9760   31.3720   48.8150 C   0  0  0  0  0  0  0  0  0  0  0  0
   37.4020   32.1940   49.7770 N   0  0  0  0  0  0  0  0  0  0  0  0
   39.8880   30.8870   45.7670 C   0  0  0  0  0  0  0  0  0  0  0  0
   39.9400   33.3360   45.5030 C   0  0  0  0  0  0  0  0  0  0  0  0
   37.9030   32.1020   44.9360 C   0  0  0  0  0  0  0  0  0  0  0  0
   38.2310   32.6330   43.6160 N   0  0  0  0  0  0  0  0  0  0  0  0
   37.1090   32.7920   42.7250 C   0  0  0  0  0  0  0  0  0  0  0  0
   35.9550   33.0690   43.2630 N   0  0  0  0  0  0  0  0  0  0  0  0
   37.2610   32.6500   41.3030 N   0  0  0  0  0  0  0  0  0  0  0  0
   35.0930   33.2010   42.6940 H   0  0  0  0  0  0  0  0  0  0  0  0
   38.7642   33.7419   50.3114 H   0  0  0  0  0  0  0  0  0  0  0  0
   39.8435   33.8093   48.0247 H   0  0  0  0  0  0  0  0  0  0  0  0
   36.1562   30.6689   49.0239 H   0  0  0  0  0  0  0  0  0  0  0  0
   40.1256   30.5068   46.7715 H   0  0  0  0  0  0  0  0  0  0  0  0
   39.2981   30.1362   45.2208 H   0  0  0  0  0  0  0  0  0  0  0  0
   40.8214   31.0882   45.2208 H   0  0  0  0  0  0  0  0  0  0  0  0
   40.3058   33.8379   46.4109 H   0  0  0  0  0  0  0  0  0  0  0  0
   40.7960   32.9856   44.9076 H   0  0  0  0  0  0  0  0  0  0  0  0
   39.3443   34.0436   44.9076 H   0  0  0  0  0  0  0  0  0  0  0  0
   37.5908   31.0527   44.8290 H   0  0  0  0  0  0  0  0  0  0  0  0
   37.0945   32.7171   45.3580 H   0  0  0  0  0  0  0  0  0  0  0  0
   39.1935   32.8762   43.3416 H   0  0  0  0  0  0  0  0  0  0  0  0
   38.1845   32.4307   40.9031 H   0  0  0  0  0  0  0  0  0  0  0  0
   36.4464   32.7675   40.6837 H   0  0  0  0  0  0  0  0  0  0  0  0
  1  4  1  0
  2  7  2  0
  3  2  1  0
  4  5  1  0
  4  3  2  0
  5  6  2  0
  6  7  1  0
  8  1  1  0
  9  1  1  0
 10  1  1  0
 11 10  1  0
 12 13  2  0
 12 11  1  0
 14 12  1  0
 15 13  1  0
  2 16  1  0
  3 17  1  0
  6 18  1  0
  8 19  1  0
  8 20  1  0
  8 21  1  0
  9 22  1  0
  9 23  1  0
  9 24  1  0
 10 25  1  0
 10 26  1  0
 11 27  1  0
 14 28  1  0
 14 29  1  0
M  ISO  8  16  14  17  14  18  14  19   8  20   8  21   8  22   8  23   8
M  ISO  3  24   8  25   8  26   8
M  END
>  <minimizedAffinity>  (1) 
-4.53760338

>  <minimizedRMSD>  (1) 
0.663910747

$$$$
