
     RDKit          3D

 31 34  0  0  0  0  0  0  0  0999 V2000
   36.7780   29.7230   51.6510 C   0  0  0  0  0  0  0  0  0  0  0  0
   37.5880   30.5390   50.8510 C   0  0  0  0  0  0  0  0  0  0  0  0
   37.2860   30.6580   49.5020 C   0  0  0  0  0  0  0  0  0  0  0  0
   36.2210   29.9850   49.0030 N   0  0  0  0  0  0  0  0  0  0  0  0
   35.4590   29.2060   49.7990 C   0  0  0  0  0  0  0  0  0  0  0  0
   35.7310   29.0700   51.1280 N   0  0  0  0  0  0  0  0  0  0  0  0
   38.0760   31.4870   48.5900 C   0  0  0  0  0  0  0  0  0  0  0  0
   38.7320   32.6650   48.7790 N   0  0  0  0  0  0  0  0  0  0  0  0
   39.2970   33.0150   47.6550 O   0  0  0  0  0  0  0  0  0  0  0  0
   39.0300   32.1110   46.7560 C   0  0  0  0  0  0  0  0  0  0  0  0
   38.2570   31.1190   47.2950 N   0  0  0  0  0  0  0  0  0  0  0  0
   39.4400   32.0770   45.3810 N   0  0  0  0  0  0  0  0  0  0  0  0
   38.9670   32.9710   44.4920 N   0  0  0  0  0  0  0  0  0  0  0  0
   39.5140   32.7080   43.2840 C   0  0  0  0  0  0  0  0  0  0  0  0
   40.3510   31.6080   43.4720 C   0  0  0  0  0  0  0  0  0  0  0  0
   40.2890   31.2240   44.8030 C   0  0  0  0  0  0  0  0  0  0  0  0
   34.3150   28.4860   49.2490 C   0  0  0  0  0  0  0  0  0  0  0  0
   34.5170   27.5370   48.2690 C   0  0  0  0  0  0  0  0  0  0  0  0
   33.4770   26.8010   47.6870 C   0  0  0  0  0  0  0  0  0  0  0  0
   32.2450   27.1280   48.1980 C   0  0  0  0  0  0  0  0  0  0  0  0
   32.0300   28.0650   49.1690 C   0  0  0  0  0  0  0  0  0  0  0  0
   33.0670   28.7300   49.6800 N   0  0  0  0  0  0  0  0  0  0  0  0
   37.0041   29.6168   52.7223 H   0  0  0  0  0  0  0  0  0  0  0  0
   38.4460   31.0746   51.2834 H   0  0  0  0  0  0  0  0  0  0  0  0
   39.3354   33.2509   42.3441 H   0  0  0  0  0  0  0  0  0  0  0  0
   40.9595   31.1251   42.6932 H   0  0  0  0  0  0  0  0  0  0  0  0
   40.8261   30.3919   45.2817 H   0  0  0  0  0  0  0  0  0  0  0  0
   35.5456   27.3487   47.9275 H   0  0  0  0  0  0  0  0  0  0  0  0
   33.6306   26.0428   46.9050 H   0  0  0  0  0  0  0  0  0  0  0  0
   31.3686   26.5977   47.7970 H   0  0  0  0  0  0  0  0  0  0  0  0
   31.0099   28.2692   49.5263 H   0  0  0  0  0  0  0  0  0  0  0  0
  2  1  2  0
  3  2  1  0
  4  3  2  0
  4  5  1  0
  5  6  2  0
  6  1  1  0
  7  8  2  0
  7  3  1  0
  9  8  1  0
 10 11  2  0
 10  9  1  0
 11  7  1  0
 12 10  1  0
 13 12  1  0
 14 15  1  0
 14 13  2  0
 15 16  2  0
 16 12  1  0
 17 22  1  0
 17  5  1  0
 18 17  2  0
 19 20  2  0
 19 18  1  0
 20 21  1  0
 21 22  2  0
  1 23  1  0
  2 24  1  0
 14 25  1  0
 15 26  1  0
 16 27  1  0
 18 28  1  0
 19 29  1  0
 20 30  1  0
 21 31  1  0
M  ISO  8  23  14  24  14  25  14  26  14  27  14  28  14  29  14  30  14
M  ISO  1  31  14
M  END
>  <minimizedAffinity>  (1) 
-6.34866571

>  <minimizedRMSD>  (1) 
0.854470313

$$$$
