
     RDKit          3D

 23 25  0  0  0  0  0  0  0  0999 V2000
   38.4040   31.5780   48.1930 C   0  0  0  0  0  0  0  0  0  0  0  0
   39.0410   32.7630   48.2250 N   0  0  0  0  0  0  0  0  0  0  0  0
   39.5060   33.0460   47.0380 O   0  0  0  0  0  0  0  0  0  0  0  0
   39.1880   32.0720   46.2300 C   0  0  0  0  0  0  0  0  0  0  0  0
   38.4880   31.1100   46.9060 N   0  0  0  0  0  0  0  0  0  0  0  0
   39.4890   31.9540   44.8410 N   0  0  0  0  0  0  0  0  0  0  0  0
   38.9760   32.7740   43.9290 N   0  0  0  0  0  0  0  0  0  0  0  0
   39.4160   32.4490   42.7050 C   0  0  0  0  0  0  0  0  0  0  0  0
   40.2590   31.3480   42.8940 C   0  0  0  0  0  0  0  0  0  0  0  0
   40.2980   31.0430   44.2520 C   0  0  0  0  0  0  0  0  0  0  0  0
   37.2900   30.1060   51.4560 C   0  0  0  0  0  0  0  0  0  0  0  0
   38.0170   30.9140   50.5720 C   0  0  0  0  0  0  0  0  0  0  0  0
   37.7040   30.7800   49.2060 C   0  0  0  0  0  0  0  0  0  0  0  0
   36.7410   29.9010   48.8150 N   0  0  0  0  0  0  0  0  0  0  0  0
   36.0760   29.1530   49.7120 C   0  0  0  0  0  0  0  0  0  0  0  0
   36.3450   29.2510   51.0290 N   0  0  0  0  0  0  0  0  0  0  0  0
   35.1030   28.2700   49.2720 O   0  0  0  0  0  0  0  0  0  0  0  0
   39.1672   32.9429   41.7541 H   0  0  0  0  0  0  0  0  0  0  0  0
   40.8011   30.8122   42.1009 H   0  0  0  0  0  0  0  0  0  0  0  0
   40.8640   30.2361   44.7404 H   0  0  0  0  0  0  0  0  0  0  0  0
   37.4993   30.1735   52.5338 H   0  0  0  0  0  0  0  0  0  0  0  0
   38.7888   31.6136   50.9253 H   0  0  0  0  0  0  0  0  0  0  0  0
   34.6073   27.7144   49.9244 H   0  0  0  0  0  0  0  0  0  0  0  0
  1  2  2  0
  1 13  1  0
  3  2  1  0
  4  5  2  0
  4  3  1  0
  5  1  1  0
  6  4  1  0
  7  6  1  0
  8  9  1  0
  8  7  2  0
  9 10  2  0
 10  6  1  0
 12 11  2  0
 13 12  1  0
 14 13  2  0
 14 15  1  0
 15 16  2  0
 16 11  1  0
 17 15  1  0
  8 18  1  0
  9 19  1  0
 10 20  1  0
 11 21  1  0
 12 22  1  0
 17 23  1  0
M  ISO  6  18  14  19  14  20  14  21  14  22  14  23   3
M  END
>  <minimizedAffinity>  (1) 
-5.86032248

>  <minimizedRMSD>  (1) 
0.0730572268

$$$$
