
     RDKit          3D

 38 41  0  0  0  0  0  0  0  0999 V2000
   38.1320   32.7250   49.6570 C   0  0  0  0  0  0  0  0  0  0  0  0
   38.8320   33.0710   48.4860 C   0  0  0  0  0  0  0  0  0  0  0  0
   38.5730   32.3140   47.3330 C   0  0  0  0  0  0  0  0  0  0  0  0
   37.6660   31.2790   47.3750 N   0  0  0  0  0  0  0  0  0  0  0  0
   37.0400   31.0150   48.5360 C   0  0  0  0  0  0  0  0  0  0  0  0
   37.2510   31.7100   49.6700 N   0  0  0  0  0  0  0  0  0  0  0  0
   36.1040   29.9320   48.5370 N   0  0  0  0  0  0  0  0  0  0  0  0
   35.1580   29.8030   47.4460 C   0  0  0  0  0  0  0  0  0  0  0  0
   33.7820   29.7480   48.1000 C   0  0  0  0  0  0  0  0  0  0  0  0
   33.7550   28.9140   49.2020 O   0  0  0  0  0  0  0  0  0  0  0  0
   34.8590   28.0620   49.2760 C   0  0  0  0  0  0  0  0  0  0  0  0
   36.0680   28.9510   49.5960 C   0  0  0  0  0  0  0  0  0  0  0  0
   39.2590   32.6070   46.0710 C   0  0  0  0  0  0  0  0  0  0  0  0
   40.3020   33.3830   45.7460 N   0  0  0  0  0  0  0  0  0  0  0  0
   40.5290   33.3020   44.4670 O   0  0  0  0  0  0  0  0  0  0  0  0
   39.6510   32.4820   43.9430 C   0  0  0  0  0  0  0  0  0  0  0  0
   38.8360   32.0250   44.9180 N   0  0  0  0  0  0  0  0  0  0  0  0
   39.5180   32.0890   42.5660 N   0  0  0  0  0  0  0  0  0  0  0  0
   39.1490   32.9750   41.6390 N   0  0  0  0  0  0  0  0  0  0  0  0
   39.1090   32.3250   40.4440 C   0  0  0  0  0  0  0  0  0  0  0  0
   39.4720   31.0090   40.6930 C   0  0  0  0  0  0  0  0  0  0  0  0
   39.7210   30.8960   42.0350 C   0  0  0  0  0  0  0  0  0  0  0  0
   40.1280   29.6950   42.7240 C   0  0  0  0  0  0  0  0  0  0  0  0
   39.3560   28.9490   43.3530 O   0  0  0  0  0  0  0  0  0  0  0  0
   41.4760   29.2900   42.7170 O   0  0  0  0  0  0  0  0  0  0  0  0
   38.3095   33.2966   50.5799 H   0  0  0  0  0  0  0  0  0  0  0  0
   39.5532   33.9015   48.4750 H   0  0  0  0  0  0  0  0  0  0  0  0
   35.3503   28.8807   46.8782 H   0  0  0  0  0  0  0  0  0  0  0  0
   35.2382   30.6401   46.7369 H   0  0  0  0  0  0  0  0  0  0  0  0
   33.5013   30.7629   48.4182 H   0  0  0  0  0  0  0  0  0  0  0  0
   33.0744   29.3476   47.3591 H   0  0  0  0  0  0  0  0  0  0  0  0
   34.7126   27.3171   50.0720 H   0  0  0  0  0  0  0  0  0  0  0  0
   35.0044   27.5131   48.3339 H   0  0  0  0  0  0  0  0  0  0  0  0
   36.9934   28.3564   49.6033 H   0  0  0  0  0  0  0  0  0  0  0  0
   35.9849   29.4184   50.5883 H   0  0  0  0  0  0  0  0  0  0  0  0
   38.8408   32.7588   39.4694 H   0  0  0  0  0  0  0  0  0  0  0  0
   39.5463   30.2031   39.9480 H   0  0  0  0  0  0  0  0  0  0  0  0
   41.7474   28.4649   43.1920 H   0  0  0  0  0  0  0  0  0  0  0  0
  1  6  2  0
  2  1  1  0
  3  4  1  0
  3  2  2  0
  4  5  2  0
  5  7  1  0
  5  6  1  0
  7 12  1  0
  8  9  1  0
  8  7  1  0
  9 10  1  0
 10 11  1  0
 11 12  1  0
 13  3  1  0
 14 13  2  0
 15 14  1  0
 16 15  1  0
 16 17  2  0
 17 13  1  0
 18 16  1  0
 19 18  1  0
 20 21  1  0
 20 19  2  0
 21 22  2  0
 22 18  1  0
 22 23  1  0
 23 24  2  0
 25 23  1  0
  1 26  1  0
  2 27  1  0
  8 28  1  0
  8 29  1  0
  9 30  1  0
  9 31  1  0
 11 32  1  0
 11 33  1  0
 12 34  1  0
 12 35  1  0
 20 36  1  0
 21 37  1  0
 25 38  1  0
M  ISO  8  26  14  27  14  28  13  29  13  30  13  31  13  32  13  33  13
M  ISO  5  34  13  35  13  36  14  37  14  38   3
M  END
>  <minimizedAffinity>  (1) 
-6.74636126

>  <minimizedRMSD>  (1) 
1.00145972

$$$$
