
     RDKit          3D

 36 39  0  0  0  0  0  0  0  0999 V2000
   37.7950   32.6790   49.6470 C   0  0  0  0  0  0  0  0  0  0  0  0
   38.5770   33.0270   48.5200 C   0  0  0  0  0  0  0  0  0  0  0  0
   38.4100   32.2420   47.3660 C   0  0  0  0  0  0  0  0  0  0  0  0
   37.5210   31.1940   47.3620 N   0  0  0  0  0  0  0  0  0  0  0  0
   36.8110   30.9270   48.4800 C   0  0  0  0  0  0  0  0  0  0  0  0
   36.9320   31.6480   49.6180 N   0  0  0  0  0  0  0  0  0  0  0  0
   35.9040   29.8330   48.4300 N   0  0  0  0  0  0  0  0  0  0  0  0
   35.0260   29.6800   47.2800 C   0  0  0  0  0  0  0  0  0  0  0  0
   33.6200   29.6040   47.8610 C   0  0  0  0  0  0  0  0  0  0  0  0
   33.5460   28.7670   48.9670 O   0  0  0  0  0  0  0  0  0  0  0  0
   34.6530   27.9470   49.1110 C   0  0  0  0  0  0  0  0  0  0  0  0
   35.8300   28.8550   49.5070 C   0  0  0  0  0  0  0  0  0  0  0  0
   39.1760   32.5240   46.1470 C   0  0  0  0  0  0  0  0  0  0  0  0
   40.0870   33.4470   45.8380 N   0  0  0  0  0  0  0  0  0  0  0  0
   40.4850   33.2910   44.6170 O   0  0  0  0  0  0  0  0  0  0  0  0
   39.8480   32.2700   44.1050 C   0  0  0  0  0  0  0  0  0  0  0  0
   39.0080   31.7540   45.0390 N   0  0  0  0  0  0  0  0  0  0  0  0
   39.9510   31.7140   42.7910 N   0  0  0  0  0  0  0  0  0  0  0  0
   39.5480   32.3830   41.7140 N   0  0  0  0  0  0  0  0  0  0  0  0
   39.7570   31.6350   40.6220 C   0  0  0  0  0  0  0  0  0  0  0  0
   40.3180   30.4430   41.0700 C   0  0  0  0  0  0  0  0  0  0  0  0
   40.4250   30.5290   42.4330 C   0  0  0  0  0  0  0  0  0  0  0  0
   40.9390   29.5420   43.2640 O   0  0  0  0  0  0  0  0  0  0  0  0
   37.8957   33.2673   50.5710 H   0  0  0  0  0  0  0  0  0  0  0  0
   39.2817   33.8713   48.5458 H   0  0  0  0  0  0  0  0  0  0  0  0
   35.2669   28.7582   46.7302 H   0  0  0  0  0  0  0  0  0  0  0  0
   35.1327   30.5106   46.5668 H   0  0  0  0  0  0  0  0  0  0  0  0
   33.3076   30.6148   48.1621 H   0  0  0  0  0  0  0  0  0  0  0  0
   32.9594   29.1910   47.0845 H   0  0  0  0  0  0  0  0  0  0  0  0
   34.4706   27.1991   49.8967 H   0  0  0  0  0  0  0  0  0  0  0  0
   34.8681   27.4066   48.1774 H   0  0  0  0  0  0  0  0  0  0  0  0
   36.7635   28.2769   49.5740 H   0  0  0  0  0  0  0  0  0  0  0  0
   35.6886   29.3229   50.4924 H   0  0  0  0  0  0  0  0  0  0  0  0
   39.5306   31.9083   39.5808 H   0  0  0  0  0  0  0  0  0  0  0  0
   40.6198   29.5894   40.4452 H   0  0  0  0  0  0  0  0  0  0  0  0
   40.9787   29.6897   44.2421 H   0  0  0  0  0  0  0  0  0  0  0  0
  2  1  2  0
  3  2  1  0
  4  3  2  0
  4  5  1  0
  5  6  2  0
  6  1  1  0
  7  5  1  0
  7 12  1  0
  8  9  1  0
  8  7  1  0
  9 10  1  0
 10 11  1  0
 11 12  1  0
 13  3  1  0
 14 13  2  0
 15 14  1  0
 16 15  1  0
 16 17  2  0
 17 13  1  0
 18 16  1  0
 19 18  1  0
 20 21  1  0
 20 19  2  0
 21 22  2  0
 22 18  1  0
 22 23  1  0
  1 24  1  0
  2 25  1  0
  8 26  1  0
  8 27  1  0
  9 28  1  0
  9 29  1  0
 11 30  1  0
 11 31  1  0
 12 32  1  0
 12 33  1  0
 20 34  1  0
 21 35  1  0
 23 36  1  0
M  ISO  8  24  14  25  14  26  13  27  13  28  13  29  13  30  13  31  13
M  ISO  5  32  13  33  13  34  14  35  14  36   3
M  END
>  <minimizedAffinity>  (1) 
-6.72635841

>  <minimizedRMSD>  (1) 
0.400052339

$$$$
