
     RDKit          3D

 47 50  0  0  0  0  0  0  0  0999 V2000
   38.1590   32.7050   49.6710 C   0  0  0  0  0  0  0  0  0  0  0  0
   38.8360   33.0840   48.4950 C   0  0  0  0  0  0  0  0  0  0  0  0
   38.5520   32.3660   47.3300 C   0  0  0  0  0  0  0  0  0  0  0  0
   37.6450   31.3370   47.3550 N   0  0  0  0  0  0  0  0  0  0  0  0
   37.0350   31.0350   48.5240 C   0  0  0  0  0  0  0  0  0  0  0  0
   37.2670   31.6870   49.6720 N   0  0  0  0  0  0  0  0  0  0  0  0
   36.0990   29.9550   48.5000 N   0  0  0  0  0  0  0  0  0  0  0  0
   35.1280   29.8770   47.4240 C   0  0  0  0  0  0  0  0  0  0  0  0
   33.7840   29.7800   48.1150 C   0  0  0  0  0  0  0  0  0  0  0  0
   33.7690   28.9000   49.1800 O   0  0  0  0  0  0  0  0  0  0  0  0
   34.8710   28.0580   49.2080 C   0  0  0  0  0  0  0  0  0  0  0  0
   36.0880   28.9200   49.5280 C   0  0  0  0  0  0  0  0  0  0  0  0
   39.2190   32.6880   46.0650 C   0  0  0  0  0  0  0  0  0  0  0  0
   40.4030   33.2190   45.7640 N   0  0  0  0  0  0  0  0  0  0  0  0
   40.5500   33.2980   44.4770 O   0  0  0  0  0  0  0  0  0  0  0  0
   39.4670   32.8190   43.9090 C   0  0  0  0  0  0  0  0  0  0  0  0
   38.6010   32.4240   44.8860 N   0  0  0  0  0  0  0  0  0  0  0  0
   39.1730   32.7000   42.5180 N   0  0  0  0  0  0  0  0  0  0  0  0
   38.9760   33.7610   41.7520 N   0  0  0  0  0  0  0  0  0  0  0  0
   38.7130   33.3260   40.4910 C   0  0  0  0  0  0  0  0  0  0  0  0
   38.7570   31.9320   40.5190 C   0  0  0  0  0  0  0  0  0  0  0  0
   39.0490   31.5870   41.8120 C   0  0  0  0  0  0  0  0  0  0  0  0
   39.1760   30.1550   42.1520 C   0  0  0  0  0  0  0  0  0  0  0  0
   38.1360   29.6090   43.0610 C   0  0  0  0  0  0  0  0  0  0  0  0
   39.0950   29.3160   40.8670 C   0  0  0  0  0  0  0  0  0  0  0  0
   40.5530   29.8620   42.7650 C   0  0  0  0  0  0  0  0  0  0  0  0
   38.3593   33.2472   50.6069 H   0  0  0  0  0  0  0  0  0  0  0  0
   39.5597   33.9124   48.4938 H   0  0  0  0  0  0  0  0  0  0  0  0
   35.3090   28.9867   46.8038 H   0  0  0  0  0  0  0  0  0  0  0  0
   35.1853   30.7460   46.7520 H   0  0  0  0  0  0  0  0  0  0  0  0
   33.5115   30.7790   48.4862 H   0  0  0  0  0  0  0  0  0  0  0  0
   33.0678   29.3982   47.3726 H   0  0  0  0  0  0  0  0  0  0  0  0
   34.7387   27.2895   49.9839 H   0  0  0  0  0  0  0  0  0  0  0  0
   34.9971   27.5469   48.2421 H   0  0  0  0  0  0  0  0  0  0  0  0
   37.0091   28.3204   49.4827 H   0  0  0  0  0  0  0  0  0  0  0  0
   36.0381   29.3450   50.5414 H   0  0  0  0  0  0  0  0  0  0  0  0
   38.5046   33.9553   39.6132 H   0  0  0  0  0  0  0  0  0  0  0  0
   38.5908   31.2481   39.6736 H   0  0  0  0  0  0  0  0  0  0  0  0
   38.4412   29.7692   44.1056 H   0  0  0  0  0  0  0  0  0  0  0  0
   37.1808   30.1219   42.8753 H   0  0  0  0  0  0  0  0  0  0  0  0
   38.0158   28.5315   42.8753 H   0  0  0  0  0  0  0  0  0  0  0  0
   38.9923   28.2527   41.1292 H   0  0  0  0  0  0  0  0  0  0  0  0
   38.2234   29.6337   40.2760 H   0  0  0  0  0  0  0  0  0  0  0  0
   40.0113   29.4611   40.2760 H   0  0  0  0  0  0  0  0  0  0  0  0
   40.4769   29.8782   43.8622 H   0  0  0  0  0  0  0  0  0  0  0  0
   40.8974   28.8705   42.4359 H   0  0  0  0  0  0  0  0  0  0  0  0
   41.2712   30.6274   42.4359 H   0  0  0  0  0  0  0  0  0  0  0  0
  1  6  2  0
  2  1  1  0
  3  4  1  0
  3  2  2  0
  4  5  2  0
  5  6  1  0
  7  5  1  0
  7 12  1  0
  8  9  1  0
  8  7  1  0
  9 10  1  0
 10 11  1  0
 11 12  1  0
 13  3  1  0
 14 13  2  0
 15 14  1  0
 16 15  1  0
 16 17  2  0
 17 13  1  0
 18 16  1  0
 19 18  1  0
 20 21  1  0
 20 19  2  0
 21 22  2  0
 22 23  1  0
 22 18  1  0
 23 26  1  0
 23 24  1  0
 25 23  1  0
  1 27  1  0
  2 28  1  0
  8 29  1  0
  8 30  1  0
  9 31  1  0
  9 32  1  0
 11 33  1  0
 11 34  1  0
 12 35  1  0
 12 36  1  0
 20 37  1  0
 21 38  1  0
 24 39  1  0
 24 40  1  0
 24 41  1  0
 25 42  1  0
 25 43  1  0
 25 44  1  0
 26 45  1  0
 26 46  1  0
 26 47  1  0
M  ISO  8  27  14  28  14  29  13  30  13  31  13  32  13  33  13  34  13
M  ISO  8  35  13  36  13  37  14  38  14  39   8  40   8  41   8  42   8
M  ISO  5  43   8  44   8  45   8  46   8  47   8
M  END
>  <minimizedAffinity>  (1) 
-6.5615139

>  <minimizedRMSD>  (1) 
1.76459742

$$$$
