
     RDKit          3D

 41 44  0  0  0  0  0  0  0  0999 V2000
   38.3370   32.6920   49.6670 C   0  0  0  0  0  0  0  0  0  0  0  0
   38.9710   33.1030   48.4730 C   0  0  0  0  0  0  0  0  0  0  0  0
   38.6270   32.4330   47.2960 C   0  0  0  0  0  0  0  0  0  0  0  0
   37.7010   31.4140   47.3280 N   0  0  0  0  0  0  0  0  0  0  0  0
   37.1300   31.0660   48.5030 C   0  0  0  0  0  0  0  0  0  0  0  0
   37.4320   31.6880   49.6680 N   0  0  0  0  0  0  0  0  0  0  0  0
   36.1820   30.0120   48.4900 N   0  0  0  0  0  0  0  0  0  0  0  0
   35.1640   29.9910   47.4620 C   0  0  0  0  0  0  0  0  0  0  0  0
   33.8320   29.9050   48.2030 C   0  0  0  0  0  0  0  0  0  0  0  0
   33.8600   28.9930   49.2390 O   0  0  0  0  0  0  0  0  0  0  0  0
   34.9520   28.1190   49.1800 C   0  0  0  0  0  0  0  0  0  0  0  0
   36.2040   28.9510   49.4800 C   0  0  0  0  0  0  0  0  0  0  0  0
   39.2310   32.7890   46.0100 C   0  0  0  0  0  0  0  0  0  0  0  0
   40.1560   33.6990   45.6570 N   0  0  0  0  0  0  0  0  0  0  0  0
   40.3650   33.6330   44.3790 O   0  0  0  0  0  0  0  0  0  0  0  0
   39.5950   32.6960   43.8810 C   0  0  0  0  0  0  0  0  0  0  0  0
   38.8640   32.1400   44.8810 N   0  0  0  0  0  0  0  0  0  0  0  0
   39.4860   32.2700   42.5180 N   0  0  0  0  0  0  0  0  0  0  0  0
   39.0070   33.0710   41.5750 N   0  0  0  0  0  0  0  0  0  0  0  0
   39.0140   32.4310   40.3960 C   0  0  0  0  0  0  0  0  0  0  0  0
   39.5260   31.1700   40.6430 C   0  0  0  0  0  0  0  0  0  0  0  0
   39.8180   31.0920   41.9970 C   0  0  0  0  0  0  0  0  0  0  0  0
   40.3900   29.9950   42.8570 C   0  0  0  0  0  0  0  0  0  0  0  0
   41.4380   29.2270   42.1240 C   0  0  0  0  0  0  0  0  0  0  0  0
   38.5842   33.1978   50.6120 H   0  0  0  0  0  0  0  0  0  0  0  0
   39.7078   33.9198   48.4701 H   0  0  0  0  0  0  0  0  0  0  0  0
   35.2967   29.1163   46.8084 H   0  0  0  0  0  0  0  0  0  0  0  0
   35.2155   30.8832   46.8207 H   0  0  0  0  0  0  0  0  0  0  0  0
   33.5920   30.8971   48.6131 H   0  0  0  0  0  0  0  0  0  0  0  0
   33.0709   29.5692   47.4833 H   0  0  0  0  0  0  0  0  0  0  0  0
   34.8392   27.3214   49.9291 H   0  0  0  0  0  0  0  0  0  0  0  0
   35.0228   27.6431   48.1908 H   0  0  0  0  0  0  0  0  0  0  0  0
   37.1119   28.3391   49.3738 H   0  0  0  0  0  0  0  0  0  0  0  0
   36.2109   29.3396   50.5090 H   0  0  0  0  0  0  0  0  0  0  0  0
   38.6795   32.8293   39.4268 H   0  0  0  0  0  0  0  0  0  0  0  0
   39.6748   30.3728   39.8998 H   0  0  0  0  0  0  0  0  0  0  0  0
   40.8362   30.4410   43.7581 H   0  0  0  0  0  0  0  0  0  0  0  0
   39.5774   29.3048   43.1280 H   0  0  0  0  0  0  0  0  0  0  0  0
   42.1066   28.7370   42.8471 H   0  0  0  0  0  0  0  0  0  0  0  0
   40.9592   28.4644   41.4922 H   0  0  0  0  0  0  0  0  0  0  0  0
   42.0210   29.9133   41.4922 H   0  0  0  0  0  0  0  0  0  0  0  0
  1  6  2  0
  2  1  1  0
  3  4  1  0
  3  2  2  0
  4  5  2  0
  5  6  1  0
  7  5  1  0
  7 12  1  0
  8  9  1  0
  8  7  1  0
  9 10  1  0
 11 10  1  0
 11 12  1  0
 13  3  1  0
 14 13  2  0
 15 14  1  0
 16 15  1  0
 16 17  2  0
 17 13  1  0
 18 16  1  0
 19 18  1  0
 20 21  1  0
 20 19  2  0
 21 22  2  0
 22 18  1  0
 22 23  1  0
 24 23  1  0
  1 25  1  0
  2 26  1  0
  8 27  1  0
  8 28  1  0
  9 29  1  0
  9 30  1  0
 11 31  1  0
 11 32  1  0
 12 33  1  0
 12 34  1  0
 20 35  1  0
 21 36  1  0
 23 37  1  0
 23 38  1  0
 24 39  1  0
 24 40  1  0
 24 41  1  0
M  ISO  8  25  14  26  14  27  13  28  13  29  13  30  13  31  13  32  13
M  ISO  8  33  13  34  13  35  14  36  14  37   8  38   8  39   8  40   8
M  ISO  1  41   8
M  END
>  <minimizedAffinity>  (1) 
-6.35667562

>  <minimizedRMSD>  (1) 
1.06278276

$$$$
