
     RDKit          3D

 38 41  0  0  0  0  0  0  0  0999 V2000
   37.8810   32.7520   49.7570 C   0  0  0  0  0  0  0  0  0  0  0  0
   38.6100   33.1150   48.6080 C   0  0  0  0  0  0  0  0  0  0  0  0
   38.4150   32.3480   47.4490 C   0  0  0  0  0  0  0  0  0  0  0  0
   37.5390   31.2920   47.4710 N   0  0  0  0  0  0  0  0  0  0  0  0
   36.8720   31.0000   48.6100 C   0  0  0  0  0  0  0  0  0  0  0  0
   37.0240   31.7050   49.7470 N   0  0  0  0  0  0  0  0  0  0  0  0
   35.9730   29.8910   48.5770 N   0  0  0  0  0  0  0  0  0  0  0  0
   35.0600   29.7520   47.4450 C   0  0  0  0  0  0  0  0  0  0  0  0
   33.6760   29.6520   48.0690 C   0  0  0  0  0  0  0  0  0  0  0  0
   33.6480   28.7990   49.1700 O   0  0  0  0  0  0  0  0  0  0  0  0
   34.7610   27.9870   49.2760 C   0  0  0  0  0  0  0  0  0  0  0  0
   35.9400   28.9020   49.6310 C   0  0  0  0  0  0  0  0  0  0  0  0
   39.1240   32.6480   46.2150 C   0  0  0  0  0  0  0  0  0  0  0  0
   40.2030   33.4020   45.9430 N   0  0  0  0  0  0  0  0  0  0  0  0
   40.4580   33.3550   44.6660 O   0  0  0  0  0  0  0  0  0  0  0  0
   39.5720   32.5890   44.0970 C   0  0  0  0  0  0  0  0  0  0  0  0
   38.7050   32.1170   45.0300 N   0  0  0  0  0  0  0  0  0  0  0  0
   39.4540   32.2470   42.7150 N   0  0  0  0  0  0  0  0  0  0  0  0
   39.1480   33.1440   41.7870 N   0  0  0  0  0  0  0  0  0  0  0  0
   39.1070   32.5420   40.5830 C   0  0  0  0  0  0  0  0  0  0  0  0
   39.4060   31.2070   40.7910 C   0  0  0  0  0  0  0  0  0  0  0  0
   39.6180   31.0540   42.1400 C   0  0  0  0  0  0  0  0  0  0  0  0
   39.9670   29.8120   42.8670 C   0  0  0  0  0  0  0  0  0  0  0  0
   38.0111   33.3321   50.6825 H   0  0  0  0  0  0  0  0  0  0  0  0
   39.3056   33.9671   48.6186 H   0  0  0  0  0  0  0  0  0  0  0  0
   35.2919   28.8434   46.8699 H   0  0  0  0  0  0  0  0  0  0  0  0
   35.1383   30.5957   46.7436 H   0  0  0  0  0  0  0  0  0  0  0  0
   33.3612   30.6553   48.3919 H   0  0  0  0  0  0  0  0  0  0  0  0
   32.9956   29.2398   47.3093 H   0  0  0  0  0  0  0  0  0  0  0  0
   34.6103   27.2381   50.0675 H   0  0  0  0  0  0  0  0  0  0  0  0
   34.9479   27.4462   48.3366 H   0  0  0  0  0  0  0  0  0  0  0  0
   36.8797   28.3307   49.6554 H   0  0  0  0  0  0  0  0  0  0  0  0
   35.8250   29.3593   50.6248 H   0  0  0  0  0  0  0  0  0  0  0  0
   38.8794   33.0200   39.6188 H   0  0  0  0  0  0  0  0  0  0  0  0
   39.4630   30.4202   40.0244 H   0  0  0  0  0  0  0  0  0  0  0  0
   39.9157   29.9946   43.9505 H   0  0  0  0  0  0  0  0  0  0  0  0
   39.2576   29.0164   42.5953 H   0  0  0  0  0  0  0  0  0  0  0  0
   40.9869   29.5024   42.5953 H   0  0  0  0  0  0  0  0  0  0  0  0
  2  1  2  0
  3  4  2  0
  3  2  1  0
  4  5  1  0
  5  6  2  0
  6  1  1  0
  7  5  1  0
  7 12  1  0
  8  9  1  0
  8  7  1  0
  9 10  1  0
 10 11  1  0
 11 12  1  0
 13  3  1  0
 14 13  2  0
 15 14  1  0
 16 15  1  0
 16 17  2  0
 17 13  1  0
 18 16  1  0
 19 18  1  0
 20 21  1  0
 20 19  2  0
 21 22  2  0
 22 18  1  0
 22 23  1  0
  1 24  1  0
  2 25  1  0
  8 26  1  0
  8 27  1  0
  9 28  1  0
  9 29  1  0
 11 30  1  0
 11 31  1  0
 12 32  1  0
 12 33  1  0
 20 34  1  0
 21 35  1  0
 23 36  1  0
 23 37  1  0
 23 38  1  0
M  ISO  8  24  14  25  14  26  13  27  13  28  13  29  13  30  13  31  13
M  ISO  7  32  13  33  13  34  14  35  14  36   8  37   8  38   8
M  END
>  <minimizedAffinity>  (1) 
-6.33594418

>  <minimizedRMSD>  (1) 
0.92098242

$$$$
