
     RDKit          3D

 30 32  0  0  0  0  0  0  0  0999 V2000
   39.5910   30.9210   46.1420 C   0  0  0  0  0  0  0  0  0  0  0  0
   39.0420   31.7930   47.2380 C   0  0  0  0  0  0  0  0  0  0  0  0
   39.2590   33.1200   47.5920 C   0  0  0  0  0  0  0  0  0  0  0  0
   38.4960   33.3870   48.6610 N   0  0  0  0  0  0  0  0  0  0  0  0
   37.8050   32.2950   49.0020 C   0  0  0  0  0  0  0  0  0  0  0  0
   36.9050   32.0930   50.0240 C   0  0  0  0  0  0  0  0  0  0  0  0
   36.2880   30.8510   50.2060 C   0  0  0  0  0  0  0  0  0  0  0  0
   36.6030   29.8100   49.3270 C   0  0  0  0  0  0  0  0  0  0  0  0
   37.5160   30.0620   48.3140 C   0  0  0  0  0  0  0  0  0  0  0  0
   38.1180   31.2800   48.1400 C   0  0  0  0  0  0  0  0  0  0  0  0
   40.5790   31.7540   45.3630 C   0  0  0  0  0  0  0  0  0  0  0  0
   39.9760   31.1170   41.6610 C   0  0  0  0  0  0  0  0  0  0  0  0
   40.4050   30.8920   42.9670 C   0  0  0  0  0  0  0  0  0  0  0  0
   40.1790   31.8620   43.9350 C   0  0  0  0  0  0  0  0  0  0  0  0
   39.5360   33.0180   43.5620 N   0  0  0  0  0  0  0  0  0  0  0  0
   39.1390   33.1980   42.2960 C   0  0  0  0  0  0  0  0  0  0  0  0
   39.3520   32.2600   41.3450 N   0  0  0  0  0  0  0  0  0  0  0  0
   40.0954   30.0444   46.5746 H   0  0  0  0  0  0  0  0  0  0  0  0
   38.7834   30.5597   45.4884 H   0  0  0  0  0  0  0  0  0  0  0  0
   39.9355   33.8242   47.0856 H   0  0  0  0  0  0  0  0  0  0  0  0
   38.4493   34.2947   49.1455 H   0  0  0  0  0  0  0  0  0  0  0  0
   36.6675   32.9211   50.7080 H   0  0  0  0  0  0  0  0  0  0  0  0
   35.5693   30.6962   51.0242 H   0  0  0  0  0  0  0  0  0  0  0  0
   36.1393   28.8185   49.4361 H   0  0  0  0  0  0  0  0  0  0  0  0
   37.7680   29.2473   47.6192 H   0  0  0  0  0  0  0  0  0  0  0  0
   40.6232   32.7621   45.8010 H   0  0  0  0  0  0  0  0  0  0  0  0
   41.5639   31.2669   45.4142 H   0  0  0  0  0  0  0  0  0  0  0  0
   40.1498   30.3547   40.8873 H   0  0  0  0  0  0  0  0  0  0  0  0
   40.9179   29.9549   43.2292 H   0  0  0  0  0  0  0  0  0  0  0  0
   38.6267   34.1322   42.0224 H   0  0  0  0  0  0  0  0  0  0  0  0
  1  2  1  0
  2  3  2  0
  2 10  1  0
  3  4  1  0
  4  5  1  0
  5  6  2  0
  6  7  1  0
  8  7  2  0
  9  8  1  0
 10  9  2  0
 10  5  1  0
 11  1  1  0
 12 13  2  0
 13 14  1  0
 14 11  1  0
 15 14  2  0
 16 15  1  0
 17 12  1  0
 17 16  2  0
  1 18  1  0
  1 19  1  0
  3 20  1  0
  4 21  1  0
  6 22  1  0
  7 23  1  0
  8 24  1  0
  9 25  1  0
 11 26  1  0
 11 27  1  0
 12 28  1  0
 13 29  1  0
 16 30  1  0
M  ISO  8  18   8  19   8  20  14  21   9  22  14  23  14  24  14  25  14
M  ISO  5  26   8  27   8  28  14  29  14  30  14
M  END
>  <minimizedAffinity>  (1) 
-5.8893919

>  <minimizedRMSD>  (1) 
6.64628315

$$$$
