
     RDKit          3D

 34 35  0  0  0  0  0  0  0  0999 V2000
   39.1900   32.1050   45.9220 C   0  0  0  0  0  0  0  0  0  0  0  0
   38.4740   32.6860   49.6140 C   0  0  0  0  0  0  0  0  0  0  0  0
   38.8880   32.9380   48.3050 C   0  0  0  0  0  0  0  0  0  0  0  0
   38.7720   31.9440   47.3330 C   0  0  0  0  0  0  0  0  0  0  0  0
   38.2390   30.7520   47.7540 N   0  0  0  0  0  0  0  0  0  0  0  0
   37.8490   30.5320   49.0090 C   0  0  0  0  0  0  0  0  0  0  0  0
   37.9640   31.4950   49.9470 N   0  0  0  0  0  0  0  0  0  0  0  0
   40.1520   30.9220   45.6390 C   0  0  0  0  0  0  0  0  0  0  0  0
   39.8890   33.3540   45.6240 C   0  0  0  0  0  0  0  0  0  0  0  0
   37.9830   31.8850   45.0700 C   0  0  0  0  0  0  0  0  0  0  0  0
   38.2550   31.7380   43.7080 N   0  0  0  0  0  0  0  0  0  0  0  0
   39.3210   31.0280   43.1730 C   0  0  0  0  0  0  0  0  0  0  0  0
   39.7090   31.7260   41.8480 C   0  0  0  0  0  0  0  0  0  0  0  0
   39.1080   33.0970   42.0310 C   0  0  0  0  0  0  0  0  0  0  0  0
   37.8340   32.7670   42.8160 C   0  0  0  0  0  0  0  0  0  0  0  0
   38.5678   33.4725   50.3773 H   0  0  0  0  0  0  0  0  0  0  0  0
   39.3058   33.9204   48.0398 H   0  0  0  0  0  0  0  0  0  0  0  0
   37.4282   29.5535   49.2836 H   0  0  0  0  0  0  0  0  0  0  0  0
   40.4989   30.4955   46.5918 H   0  0  0  0  0  0  0  0  0  0  0  0
   39.6229   30.1491   45.0622 H   0  0  0  0  0  0  0  0  0  0  0  0
   41.0166   31.2824   45.0622 H   0  0  0  0  0  0  0  0  0  0  0  0
   40.1675   33.8517   46.5646 H   0  0  0  0  0  0  0  0  0  0  0  0
   40.7964   33.1364   45.0416 H   0  0  0  0  0  0  0  0  0  0  0  0
   39.2289   34.0136   45.0416 H   0  0  0  0  0  0  0  0  0  0  0  0
   37.4770   30.9731   45.4198 H   0  0  0  0  0  0  0  0  0  0  0  0
   37.3610   32.7868   45.1695 H   0  0  0  0  0  0  0  0  0  0  0  0
   40.1717   31.0411   43.8702 H   0  0  0  0  0  0  0  0  0  0  0  0
   39.0449   29.9778   42.9976 H   0  0  0  0  0  0  0  0  0  0  0  0
   39.2714   31.2098   40.9808 H   0  0  0  0  0  0  0  0  0  0  0  0
   40.7914   31.7377   41.6522 H   0  0  0  0  0  0  0  0  0  0  0  0
   39.7757   33.7554   42.6061 H   0  0  0  0  0  0  0  0  0  0  0  0
   38.9288   33.6384   41.0904 H   0  0  0  0  0  0  0  0  0  0  0  0
   37.4741   33.6462   43.3706 H   0  0  0  0  0  0  0  0  0  0  0  0
   36.9979   32.4609   42.1701 H   0  0  0  0  0  0  0  0  0  0  0  0
  1  4  1  0
  2  7  2  0
  3  2  1  0
  4  5  1  0
  4  3  2  0
  5  6  2  0
  6  7  1  0
  8  1  1  0
  9  1  1  0
 10  1  1  0
 11 10  1  0
 12 11  1  0
 13 14  1  0
 13 12  1  0
 14 15  1  0
 15 11  1  0
  2 16  1  0
  3 17  1  0
  6 18  1  0
  8 19  1  0
  8 20  1  0
  8 21  1  0
  9 22  1  0
  9 23  1  0
  9 24  1  0
 10 25  1  0
 10 26  1  0
 12 27  1  0
 12 28  1  0
 13 29  1  0
 13 30  1  0
 14 31  1  0
 14 32  1  0
 15 33  1  0
 15 34  1  0
M  ISO  8  16  14  17  14  18  14  19   8  20   8  21   8  22   8  23   8
M  ISO  8  24   8  25   8  26   8  27  13  28  13  29  13  30  13  31  13
M  ISO  3  32  13  33  13  34  13
M  END
>  <minimizedAffinity>  (1) 
-4.45826435

>  <minimizedRMSD>  (1) 
0.939217746

$$$$
