
     RDKit          3D

 27 29  0  0  0  0  0  0  0  0999 V2000
   38.0830   32.0890   47.3790 C   0  0  0  0  0  0  0  0  0  0  0  0
   38.8280   32.4500   46.1850 N   0  0  0  0  0  0  0  0  0  0  0  0
   40.1470   32.8030   46.1530 C   0  0  0  0  0  0  0  0  0  0  0  0
   40.5220   33.0810   44.8720 N   0  0  0  0  0  0  0  0  0  0  0  0
   39.4420   32.9060   44.0690 C   0  0  0  0  0  0  0  0  0  0  0  0
   39.2180   33.0360   42.6980 C   0  0  0  0  0  0  0  0  0  0  0  0
   37.9840   32.7750   42.2330 N   0  0  0  0  0  0  0  0  0  0  0  0
   36.9650   32.3930   43.0380 C   0  0  0  0  0  0  0  0  0  0  0  0
   37.2030   32.2730   44.3670 N   0  0  0  0  0  0  0  0  0  0  0  0
   38.4050   32.5170   44.8980 C   0  0  0  0  0  0  0  0  0  0  0  0
   38.0420   30.5720   47.5790 C   0  0  0  0  0  0  0  0  0  0  0  0
   37.3900   30.2690   51.3160 C   0  0  0  0  0  0  0  0  0  0  0  0
   38.0150   30.6580   50.1130 C   0  0  0  0  0  0  0  0  0  0  0  0
   37.4870   30.2380   48.9070 C   0  0  0  0  0  0  0  0  0  0  0  0
   36.3640   29.4530   48.9470 N   0  0  0  0  0  0  0  0  0  0  0  0
   35.7840   29.0950   50.0960 C   0  0  0  0  0  0  0  0  0  0  0  0
   36.2810   29.4920   51.2780 N   0  0  0  0  0  0  0  0  0  0  0  0
   37.0535   32.4648   47.2849 H   0  0  0  0  0  0  0  0  0  0  0  0
   38.5865   32.5376   48.2481 H   0  0  0  0  0  0  0  0  0  0  0  0
   40.8085   32.8552   47.0304 H   0  0  0  0  0  0  0  0  0  0  0  0
   40.0266   33.3427   42.0183 H   0  0  0  0  0  0  0  0  0  0  0  0
   35.9675   32.1849   42.6235 H   0  0  0  0  0  0  0  0  0  0  0  0
   37.4103   30.1214   46.7993 H   0  0  0  0  0  0  0  0  0  0  0  0
   39.0667   30.1775   47.5132 H   0  0  0  0  0  0  0  0  0  0  0  0
   37.8019   30.5956   52.2823 H   0  0  0  0  0  0  0  0  0  0  0  0
   38.9149   31.2902   50.1345 H   0  0  0  0  0  0  0  0  0  0  0  0
   34.8834   28.4638   50.0730 H   0  0  0  0  0  0  0  0  0  0  0  0
  1 11  1  0
  2  1  1  0
  3  2  1  0
  4  3  2  0
  5  4  1  0
  5 10  2  0
  6  5  1  0
  7  6  2  0
  7  8  1  0
  8  9  2  0
  9 10  1  0
 10  2  1  0
 11 14  1  0
 13 12  2  0
 14 15  2  0
 14 13  1  0
 15 16  1  0
 16 17  2  0
 17 12  1  0
  1 18  1  0
  1 19  1  0
  3 20  1  0
  6 21  1  0
  8 22  1  0
 11 23  1  0
 11 24  1  0
 12 25  1  0
 13 26  1  0
 16 27  1  0
M  ISO  8  18   8  19   8  20  14  21  14  22  14  23   8  24   8  25  14
M  ISO  2  26  14  27  14
M  END
>  <minimizedAffinity>  (1) 
-5.40802097

>  <minimizedRMSD>  (1) 
1.17408836

$$$$
