
     RDKit          3D

 29 30  0  0  0  0  0  0  0  0999 V2000
   38.2390   32.0560   47.4150 C   0  0  0  0  0  0  0  0  0  0  0  0
   38.5160   32.3570   46.0010 N   0  0  0  0  0  0  0  0  0  0  0  0
   37.6990   31.8610   45.0450 C   0  0  0  0  0  0  0  0  0  0  0  0
   37.9690   32.1520   43.7140 C   0  0  0  0  0  0  0  0  0  0  0  0
   37.1120   31.6390   42.6110 C   0  0  0  0  0  0  0  0  0  0  0  0
   39.0590   32.9380   43.3700 C   0  0  0  0  0  0  0  0  0  0  0  0
   39.3600   33.2390   42.1780 O   0  0  0  0  0  0  0  0  0  0  0  0
   39.8400   33.4050   44.3720 N   0  0  0  0  0  0  0  0  0  0  0  0
   39.5720   33.1200   45.6610 C   0  0  0  0  0  0  0  0  0  0  0  0
   40.2860   33.5420   46.6310 O   0  0  0  0  0  0  0  0  0  0  0  0
   38.0560   30.5580   47.6000 C   0  0  0  0  0  0  0  0  0  0  0  0
   37.4060   30.2960   51.3380 C   0  0  0  0  0  0  0  0  0  0  0  0
   38.0160   30.6590   50.1340 C   0  0  0  0  0  0  0  0  0  0  0  0
   37.4950   30.2340   48.9260 C   0  0  0  0  0  0  0  0  0  0  0  0
   36.3820   29.4620   48.9790 N   0  0  0  0  0  0  0  0  0  0  0  0
   35.7830   29.1050   50.1280 C   0  0  0  0  0  0  0  0  0  0  0  0
   36.3020   29.5260   51.3010 N   0  0  0  0  0  0  0  0  0  0  0  0
   37.3210   32.5765   47.7255 H   0  0  0  0  0  0  0  0  0  0  0  0
   39.0856   32.3956   48.0297 H   0  0  0  0  0  0  0  0  0  0  0  0
   36.8347   31.2372   45.3167 H   0  0  0  0  0  0  0  0  0  0  0  0
   36.2412   31.1178   43.0353 H   0  0  0  0  0  0  0  0  0  0  0  0
   36.7693   32.4806   41.9911 H   0  0  0  0  0  0  0  0  0  0  0  0
   37.6919   30.9394   41.9911 H   0  0  0  0  0  0  0  0  0  0  0  0
   40.6562   33.9905   44.1441 H   0  0  0  0  0  0  0  0  0  0  0  0
   37.3727   30.1842   46.8233 H   0  0  0  0  0  0  0  0  0  0  0  0
   39.0438   30.0805   47.5207 H   0  0  0  0  0  0  0  0  0  0  0  0
   37.8207   30.6335   52.2993 H   0  0  0  0  0  0  0  0  0  0  0  0
   38.9182   31.2881   50.1477 H   0  0  0  0  0  0  0  0  0  0  0  0
   34.8801   28.4769   50.1128 H   0  0  0  0  0  0  0  0  0  0  0  0
  1 11  1  0
  2  1  1  0
  3  2  1  0
  4  3  2  0
  5  4  1  0
  6  4  1  0
  6  8  1  0
  7  6  2  0
  8  9  1  0
  9  2  1  0
  9 10  2  0
 11 14  1  0
 13 12  2  0
 14 15  2  0
 14 13  1  0
 15 16  1  0
 16 17  2  0
 17 12  1  0
  1 18  1  0
  1 19  1  0
  3 20  1  0
  5 21  1  0
  5 22  1  0
  5 23  1  0
  8 24  1  0
 11 25  1  0
 11 26  1  0
 12 27  1  0
 13 28  1  0
 16 29  1  0
M  ISO  8  18   8  19   8  20  14  21   8  22   8  23   8  24   9  25   8
M  ISO  4  26   8  27  14  28  14  29  14
M  END
>  <minimizedAffinity>  (1) 
-5.26658201

>  <minimizedRMSD>  (1) 
1.47449172

$$$$
