
     RDKit          3D

 28 29  0  0  0  0  0  0  0  0999 V2000
   37.9620   30.5720   47.5170 C   0  0  0  0  0  0  0  0  0  0  0  0
   37.4110   30.2810   51.2630 C   0  0  0  0  0  0  0  0  0  0  0  0
   38.0000   30.6660   50.0390 C   0  0  0  0  0  0  0  0  0  0  0  0
   37.4360   30.2360   48.8520 C   0  0  0  0  0  0  0  0  0  0  0  0
   36.3210   29.4480   48.9380 N   0  0  0  0  0  0  0  0  0  0  0  0
   35.7770   29.0930   50.1060 C   0  0  0  0  0  0  0  0  0  0  0  0
   36.3170   29.5060   51.2620 N   0  0  0  0  0  0  0  0  0  0  0  0
   38.4920   31.9810   47.4480 C   0  0  0  0  0  0  0  0  0  0  0  0
   39.7470   32.0610   46.7780 N   0  0  0  0  0  0  0  0  0  0  0  0
   39.9860   33.3570   46.2360 C   0  0  0  0  0  0  0  0  0  0  0  0
   40.1550   33.1940   44.7370 C   0  0  0  0  0  0  0  0  0  0  0  0
   40.5540   31.7500   44.5700 C   0  0  0  0  0  0  0  0  0  0  0  0
   40.0260   31.0630   45.8100 C   0  0  0  0  0  0  0  0  0  0  0  0
   38.7773   29.8752   47.2726 H   0  0  0  0  0  0  0  0  0  0  0  0
   37.1331   30.4892   46.7986 H   0  0  0  0  0  0  0  0  0  0  0  0
   37.8486   30.6160   52.2150 H   0  0  0  0  0  0  0  0  0  0  0  0
   38.8980   31.3012   50.0297 H   0  0  0  0  0  0  0  0  0  0  0  0
   34.8795   28.4572   50.1192 H   0  0  0  0  0  0  0  0  0  0  0  0
   37.7642   32.6054   46.9090 H   0  0  0  0  0  0  0  0  0  0  0  0
   38.6415   32.3321   48.4797 H   0  0  0  0  0  0  0  0  0  0  0  0
   39.1326   34.0176   46.4491 H   0  0  0  0  0  0  0  0  0  0  0  0
   40.8848   33.8068   46.6830 H   0  0  0  0  0  0  0  0  0  0  0  0
   39.2109   33.4020   44.2122 H   0  0  0  0  0  0  0  0  0  0  0  0
   40.8962   33.8895   44.3164 H   0  0  0  0  0  0  0  0  0  0  0  0
   40.0972   31.3230   43.6650 H   0  0  0  0  0  0  0  0  0  0  0  0
   41.6413   31.6279   44.4561 H   0  0  0  0  0  0  0  0  0  0  0  0
   39.1063   30.5103   45.5677 H   0  0  0  0  0  0  0  0  0  0  0  0
   40.7690   30.3508   46.1983 H   0  0  0  0  0  0  0  0  0  0  0  0
  1  4  1  0
  3  2  2  0
  4  5  2  0
  4  3  1  0
  5  6  1  0
  6  7  2  0
  7  2  1  0
  8  1  1  0
  9  8  1  0
 10  9  1  0
 11 10  1  0
 12 11  1  0
 12 13  1  0
 13  9  1  0
  1 14  1  0
  1 15  1  0
  2 16  1  0
  3 17  1  0
  6 18  1  0
  8 19  1  0
  8 20  1  0
 10 21  1  0
 10 22  1  0
 11 23  1  0
 11 24  1  0
 12 25  1  0
 12 26  1  0
 13 27  1  0
 13 28  1  0
M  ISO  8  14   8  15   8  16  14  17  14  18  14  19   8  20   8  21  13
M  ISO  7  22  13  23  13  24  13  25  13  26  13  27  13  28  13
M  END
>  <minimizedAffinity>  (1) 
-4.79079199

>  <minimizedRMSD>  (1) 
1.56778288

$$$$
