
     RDKit          3D

 23 23  0  0  0  0  0  0  0  0999 V2000
   39.3880   32.1910   45.7850 C   0  0  0  0  0  0  0  0  0  0  0  0
   38.3410   33.0340   49.3290 C   0  0  0  0  0  0  0  0  0  0  0  0
   39.0650   33.1070   48.1180 C   0  0  0  0  0  0  0  0  0  0  0  0
   38.7260   32.2260   47.0870 C   0  0  0  0  0  0  0  0  0  0  0  0
   37.6970   31.3360   47.3200 N   0  0  0  0  0  0  0  0  0  0  0  0
   37.0370   31.3080   48.4940 C   0  0  0  0  0  0  0  0  0  0  0  0
   37.3440   32.1390   49.4920 N   0  0  0  0  0  0  0  0  0  0  0  0
   40.3970   31.0600   45.8150 C   0  0  0  0  0  0  0  0  0  0  0  0
   40.0510   33.4660   45.3860 C   0  0  0  0  0  0  0  0  0  0  0  0
   38.3330   31.8690   44.7330 C   0  0  0  0  0  0  0  0  0  0  0  0
   37.3710   32.8800   44.7260 O   0  0  0  0  0  0  0  0  0  0  0  0
   38.5940   33.7179   50.1526 H   0  0  0  0  0  0  0  0  0  0  0  0
   39.8757   33.8393   47.9896 H   0  0  0  0  0  0  0  0  0  0  0  0
   36.2235   30.5809   48.6337 H   0  0  0  0  0  0  0  0  0  0  0  0
   40.6274   30.8018   46.8591 H   0  0  0  0  0  0  0  0  0  0  0  0
   39.9777   30.1809   45.3038 H   0  0  0  0  0  0  0  0  0  0  0  0
   41.3181   31.3767   45.3038 H   0  0  0  0  0  0  0  0  0  0  0  0
   40.3420   34.0256   46.2872 H   0  0  0  0  0  0  0  0  0  0  0  0
   40.9468   33.2420   44.7883 H   0  0  0  0  0  0  0  0  0  0  0  0
   39.3531   34.0707   44.7883 H   0  0  0  0  0  0  0  0  0  0  0  0
   38.8077   31.8055   43.7428 H   0  0  0  0  0  0  0  0  0  0  0  0
   37.8566   30.9060   44.9689 H   0  0  0  0  0  0  0  0  0  0  0  0
   37.1403   33.1225   45.6577 H   0  0  0  0  0  0  0  0  0  0  0  0
  1  8  1  0
  1  4  1  0
  2  7  2  0
  3  2  1  0
  4  5  1  0
  4  3  2  0
  5  6  2  0
  6  7  1  0
  9  1  1  0
 10  1  1  0
 11 10  1  0
  2 12  1  0
  3 13  1  0
  6 14  1  0
  8 15  1  0
  8 16  1  0
  8 17  1  0
  9 18  1  0
  9 19  1  0
  9 20  1  0
 10 21  1  0
 10 22  1  0
 11 23  1  0
M  ISO  8  12  14  13  14  14  14  15   8  16   8  17   8  18   8  19   8
M  ISO  4  20   8  21   8  22   8  23   3
M  END
>  <minimizedAffinity>  (1) 
-4.1643095

>  <minimizedRMSD>  (1) 
0.611881971

$$$$
