
     RDKit          3D

 23 24  0  0  0  0  0  0  0  0999 V2000
   36.8490   30.9490   47.5410 C   0  0  0  0  0  0  0  0  0  0  0  0
   36.5320   29.2010   50.8920 C   0  0  0  0  0  0  0  0  0  0  0  0
   37.0970   29.7830   49.7480 C   0  0  0  0  0  0  0  0  0  0  0  0
   36.3040   30.3320   48.7590 C   0  0  0  0  0  0  0  0  0  0  0  0
   34.9570   30.2860   48.9430 N   0  0  0  0  0  0  0  0  0  0  0  0
   34.4100   29.7290   50.0390 C   0  0  0  0  0  0  0  0  0  0  0  0
   35.1830   29.1910   51.0050 N   0  0  0  0  0  0  0  0  0  0  0  0
   38.3510   31.1110   47.5640 C   0  0  0  0  0  0  0  0  0  0  0  0
   38.8250   32.3880   48.0880 C   0  0  0  0  0  0  0  0  0  0  0  0
   38.7310   33.0090   49.3150 C   0  0  0  0  0  0  0  0  0  0  0  0
   39.3610   34.2110   49.2720 N   0  0  0  0  0  0  0  0  0  0  0  0
   39.8680   34.3940   48.0390 C   0  0  0  0  0  0  0  0  0  0  0  0
   39.5280   33.2850   47.3590 N   0  0  0  0  0  0  0  0  0  0  0  0
   36.3939   31.9433   47.4215 H   0  0  0  0  0  0  0  0  0  0  0  0
   36.6103   30.2759   46.7044 H   0  0  0  0  0  0  0  0  0  0  0  0
   37.1678   28.7644   51.6763 H   0  0  0  0  0  0  0  0  0  0  0  0
   38.1911   29.8027   49.6362 H   0  0  0  0  0  0  0  0  0  0  0  0
   33.3156   29.7121   50.1490 H   0  0  0  0  0  0  0  0  0  0  0  0
   38.7714   30.3087   48.1882 H   0  0  0  0  0  0  0  0  0  0  0  0
   38.6814   31.0668   46.5157 H   0  0  0  0  0  0  0  0  0  0  0  0
   38.2219   32.5931   50.1969 H   0  0  0  0  0  0  0  0  0  0  0  0
   40.4358   35.2604   47.6688 H   0  0  0  0  0  0  0  0  0  0  0  0
   39.7800   33.1322   46.3721 H   0  0  0  0  0  0  0  0  0  0  0  0
  1  8  1  0
  1  4  1  0
  2  7  2  0
  3  2  1  0
  4  5  1  0
  4  3  2  0
  5  6  2  0
  6  7  1  0
  8  9  1  0
  9 10  2  0
 11 10  1  0
 12 11  2  0
 13 12  1  0
 13  9  1  0
  1 14  1  0
  1 15  1  0
  2 16  1  0
  3 17  1  0
  6 18  1  0
  8 19  1  0
  8 20  1  0
 10 21  1  0
 12 22  1  0
 13 23  1  0
M  ISO  8  14   8  15   8  16  14  17  14  18  14  19   8  20   8  21  14
M  ISO  2  22  14  23   9
M  END
>  <minimizedAffinity>  (1) 
-4.37573004

>  <minimizedRMSD>  (1) 
2.0724709

$$$$
