
     RDKit          3D

 17 17  0  0  0  0  0  0  0  0999 V2000
   37.1030   29.3910   51.2040 C   0  0  0  0  0  0  0  0  0  0  0  0
   37.7250   29.9750   50.1020 C   0  0  0  0  0  0  0  0  0  0  0  0
   36.9700   30.4430   49.0430 C   0  0  0  0  0  0  0  0  0  0  0  0
   35.6190   30.2930   49.1590 N   0  0  0  0  0  0  0  0  0  0  0  0
   35.0200   29.7350   50.2120 C   0  0  0  0  0  0  0  0  0  0  0  0
   35.7580   29.2830   51.2380 N   0  0  0  0  0  0  0  0  0  0  0  0
   37.5010   31.0780   47.8210 C   0  0  0  0  0  0  0  0  0  0  0  0
   38.7660   31.8640   48.1360 C   0  0  0  0  0  0  0  0  0  0  0  0
   38.3640   33.3280   49.1240 S   0  0  0  0  0  0  0  0  0  0  0  0
   37.7071   29.0188   52.0445 H   0  0  0  0  0  0  0  0  0  0  0  0
   38.8211   30.0638   50.0749 H   0  0  0  0  0  0  0  0  0  0  0  0
   33.9240   29.6455   50.2395 H   0  0  0  0  0  0  0  0  0  0  0  0
   36.7434   31.7610   47.4093 H   0  0  0  0  0  0  0  0  0  0  0  0
   37.7423   30.2938   47.0883 H   0  0  0  0  0  0  0  0  0  0  0  0
   39.4601   31.2241   48.7006 H   0  0  0  0  0  0  0  0  0  0  0  0
   39.2330   32.1848   47.1932 H   0  0  0  0  0  0  0  0  0  0  0  0
   38.4492   33.0177   50.4557 H   0  0  0  0  0  0  0  0  0  0  0  0
  1  6  2  0
  2  1  1  0
  3  4  1  0
  3  2  2  0
  4  5  2  0
  5  6  1  0
  7  8  1  0
  7  3  1  0
  8  9  1  0
  1 10  1  0
  2 11  1  0
  5 12  1  0
  7 13  1  0
  7 14  1  0
  8 15  1  0
  8 16  1  0
  9 17  1  0
M  ISO  8  10  14  11  14  12  14  13   8  14   8  15   8  16   8  17  11
M  END
>  <minimizedAffinity>  (1) 
-3.38478112

>  <minimizedRMSD>  (1) 
0.93876338

$$$$
