
     RDKit          3D

 40 43  0  0  0  0  0  0  0  0999 V2000
   39.2520   32.1920   46.6790 N   0  0  0  0  0  0  0  0  0  0  0  0
   39.7410   33.3600   46.2710 C   0  0  0  0  0  0  0  0  0  0  0  0
   39.9420   33.7310   44.9730 C   0  0  0  0  0  0  0  0  0  0  0  0
   39.6230   32.8520   43.9610 C   0  0  0  0  0  0  0  0  0  0  0  0
   39.7780   33.1190   42.7500 O   0  0  0  0  0  0  0  0  0  0  0  0
   39.1370   31.6910   44.3350 N   0  0  0  0  0  0  0  0  0  0  0  0
   38.9550   31.3620   45.6210 C   0  0  0  0  0  0  0  0  0  0  0  0
   38.4790   30.2150   45.8680 O   0  0  0  0  0  0  0  0  0  0  0  0
   38.7930   30.7470   43.3140 C   0  0  0  0  0  0  0  0  0  0  0  0
   37.4840   30.5660   42.9160 C   0  0  0  0  0  0  0  0  0  0  0  0
   37.4610   29.6280   41.9520 N   0  0  0  0  0  0  0  0  0  0  0  0
   38.7210   29.2020   41.7200 C   0  0  0  0  0  0  0  0  0  0  0  0
   39.2880   28.2770   40.8650 C   0  0  0  0  0  0  0  0  0  0  0  0
   40.6590   28.0540   40.8570 C   0  0  0  0  0  0  0  0  0  0  0  0
   41.4770   28.7780   41.7300 C   0  0  0  0  0  0  0  0  0  0  0  0
   40.9370   29.7180   42.6070 C   0  0  0  0  0  0  0  0  0  0  0  0
   39.5770   29.8830   42.5560 C   0  0  0  0  0  0  0  0  0  0  0  0
   39.0140   31.7290   47.9840 C   0  0  0  0  0  0  0  0  0  0  0  0
   37.8830   32.2570   48.7630 C   0  0  0  0  0  0  0  0  0  0  0  0
   35.3520   29.8030   50.1570 C   0  0  0  0  0  0  0  0  0  0  0  0
   35.9600   30.7630   49.3000 C   0  0  0  0  0  0  0  0  0  0  0  0
   37.2080   31.2650   49.6080 C   0  0  0  0  0  0  0  0  0  0  0  0
   37.8180   30.8070   50.7470 N   0  0  0  0  0  0  0  0  0  0  0  0
   37.2390   29.9120   51.5360 C   0  0  0  0  0  0  0  0  0  0  0  0
   36.0220   29.4050   51.2620 N   0  0  0  0  0  0  0  0  0  0  0  0
   40.0068   34.0914   47.0484 H   0  0  0  0  0  0  0  0  0  0  0  0
   40.3550   34.7228   44.7369 H   0  0  0  0  0  0  0  0  0  0  0  0
   36.6091   31.0978   43.3182 H   0  0  0  0  0  0  0  0  0  0  0  0
   36.6172   29.2890   41.4683 H   0  0  0  0  0  0  0  0  0  0  0  0
   38.6433   27.7077   40.1793 H   0  0  0  0  0  0  0  0  0  0  0  0
   41.0972   27.3148   40.1703 H   0  0  0  0  0  0  0  0  0  0  0  0
   42.5630   28.6033   41.7248 H   0  0  0  0  0  0  0  0  0  0  0  0
   41.5667   30.2946   43.3006 H   0  0  0  0  0  0  0  0  0  0  0  0
   38.8681   30.6411   47.9120 H   0  0  0  0  0  0  0  0  0  0  0  0
   39.8914   32.0893   48.5411 H   0  0  0  0  0  0  0  0  0  0  0  0
   38.2591   33.0616   49.4119 H   0  0  0  0  0  0  0  0  0  0  0  0
   37.1369   32.6048   48.0334 H   0  0  0  0  0  0  0  0  0  0  0  0
   34.3578   29.3934   49.9252 H   0  0  0  0  0  0  0  0  0  0  0  0
   35.4365   31.1039   48.3946 H   0  0  0  0  0  0  0  0  0  0  0  0
   37.7677   29.5744   52.4396 H   0  0  0  0  0  0  0  0  0  0  0  0
  1 18  1  0
  2  1  1  0
  3  2  2  0
  4  6  1  0
  4  3  1  0
  5  4  2  0
  6  7  1  0
  7  8  2  0
  7  1  1  0
  9  6  1  0
 10  9  2  0
 11 10  1  0
 12 11  1  0
 12 17  2  0
 13 12  1  0
 14 13  2  0
 14 15  1  0
 15 16  2  0
 17 16  1  0
 17  9  1  0
 18 19  1  0
 19 22  1  0
 20 25  2  0
 21 22  2  0
 21 20  1  0
 22 23  1  0
 23 24  2  0
 25 24  1  0
  2 26  1  0
  3 27  1  0
 10 28  1  0
 11 29  1  0
 13 30  1  0
 14 31  1  0
 15 32  1  0
 16 33  1  0
 18 34  1  0
 18 35  1  0
 19 36  1  0
 19 37  1  0
 20 38  1  0
 21 39  1  0
 24 40  1  0
M  ISO  8  26  14  27  14  28  14  29   9  30  14  31  14  32  14  33  14
M  ISO  7  34   8  35   8  36   8  37   8  38  14  39  14  40  14
M  END
>  <minimizedAffinity>  (1) 
-5.95722389

>  <minimizedRMSD>  (1) 
2.92506576

$$$$
