
     RDKit          3D

 36 38  0  0  0  0  0  0  0  0999 V2000
   38.8370   32.1470   46.3790 N   0  0  0  0  0  0  0  0  0  0  0  0
   39.9400   32.7410   45.9840 C   0  0  0  0  0  0  0  0  0  0  0  0
   40.6220   32.4890   44.8260 C   0  0  0  0  0  0  0  0  0  0  0  0
   40.1400   31.5300   43.9600 C   0  0  0  0  0  0  0  0  0  0  0  0
   40.7150   31.2510   42.8840 O   0  0  0  0  0  0  0  0  0  0  0  0
   39.0330   30.9100   44.3210 N   0  0  0  0  0  0  0  0  0  0  0  0
   38.4080   31.1990   45.4710 C   0  0  0  0  0  0  0  0  0  0  0  0
   37.3560   30.5350   45.7040 O   0  0  0  0  0  0  0  0  0  0  0  0
   38.5210   29.9150   43.4390 C   0  0  0  0  0  0  0  0  0  0  0  0
   37.5910   30.2710   42.4870 C   0  0  0  0  0  0  0  0  0  0  0  0
   37.1340   29.2650   41.6640 C   0  0  0  0  0  0  0  0  0  0  0  0
   37.6010   27.9530   41.8020 C   0  0  0  0  0  0  0  0  0  0  0  0
   38.5340   27.6470   42.7710 C   0  0  0  0  0  0  0  0  0  0  0  0
   39.0150   28.6310   43.6140 C   0  0  0  0  0  0  0  0  0  0  0  0
   38.0530   32.3190   47.5380 C   0  0  0  0  0  0  0  0  0  0  0  0
   38.6100   31.9250   48.8410 C   0  0  0  0  0  0  0  0  0  0  0  0
   36.2370   29.1010   49.7270 C   0  0  0  0  0  0  0  0  0  0  0  0
   36.9650   30.0350   48.9620 C   0  0  0  0  0  0  0  0  0  0  0  0
   37.8160   30.9200   49.5660 C   0  0  0  0  0  0  0  0  0  0  0  0
   37.9120   30.8430   50.9240 N   0  0  0  0  0  0  0  0  0  0  0  0
   37.2360   29.9720   51.6550 C   0  0  0  0  0  0  0  0  0  0  0  0
   36.4040   29.1060   51.0650 N   0  0  0  0  0  0  0  0  0  0  0  0
   40.3542   33.5143   46.6476 H   0  0  0  0  0  0  0  0  0  0  0  0
   41.5420   33.0433   44.5885 H   0  0  0  0  0  0  0  0  0  0  0  0
   37.2315   31.3060   42.3889 H   0  0  0  0  0  0  0  0  0  0  0  0
   36.3909   29.4966   40.8867 H   0  0  0  0  0  0  0  0  0  0  0  0
   37.2230   27.1634   41.1359 H   0  0  0  0  0  0  0  0  0  0  0  0
   38.8973   26.6138   42.8733 H   0  0  0  0  0  0  0  0  0  0  0  0
   39.7592   28.4050   44.3919 H   0  0  0  0  0  0  0  0  0  0  0  0
   37.8052   33.3887   47.6036 H   0  0  0  0  0  0  0  0  0  0  0  0
   37.2104   31.6272   47.3914 H   0  0  0  0  0  0  0  0  0  0  0  0
   39.6160   31.5127   48.6740 H   0  0  0  0  0  0  0  0  0  0  0  0
   38.6141   32.8303   49.4658 H   0  0  0  0  0  0  0  0  0  0  0  0
   35.5516   28.3878   49.2456 H   0  0  0  0  0  0  0  0  0  0  0  0
   36.8477   30.0525   47.8684 H   0  0  0  0  0  0  0  0  0  0  0  0
   37.3579   29.9597   52.7482 H   0  0  0  0  0  0  0  0  0  0  0  0
  1 15  1  0
  2  1  1  0
  3  2  2  0
  4  6  1  0
  4  3  1  0
  5  4  2  0
  6  7  1  0
  7  8  2  0
  7  1  1  0
  9 14  1  0
  9  6  1  0
 10  9  2  0
 11 12  2  0
 11 10  1  0
 12 13  1  0
 13 14  2  0
 15 16  1  0
 16 19  1  0
 17 22  2  0
 18 19  2  0
 18 17  1  0
 19 20  1  0
 20 21  2  0
 22 21  1  0
  2 23  1  0
  3 24  1  0
 10 25  1  0
 11 26  1  0
 12 27  1  0
 13 28  1  0
 14 29  1  0
 15 30  1  0
 15 31  1  0
 16 32  1  0
 16 33  1  0
 17 34  1  0
 18 35  1  0
 21 36  1  0
M  ISO  8  23  14  24  14  25  14  26  14  27  14  28  14  29  14  30   8
M  ISO  6  31   8  32   8  33   8  34  14  35  14  36  14
M  END
>  <minimizedAffinity>  (1) 
-5.51779079

>  <minimizedRMSD>  (1) 
2.92223549

$$$$
