
     RDKit          3D

 33 35  0  0  0  0  0  0  0  0999 V2000
   38.2180   31.8850   45.8890 N   0  0  0  0  0  0  0  0  0  0  0  0
   39.3420   32.5630   45.8290 C   0  0  0  0  0  0  0  0  0  0  0  0
   39.8440   33.1800   44.7180 C   0  0  0  0  0  0  0  0  0  0  0  0
   39.1450   33.1140   43.5340 C   0  0  0  0  0  0  0  0  0  0  0  0
   39.5360   33.6510   42.4770 O   0  0  0  0  0  0  0  0  0  0  0  0
   38.0150   32.4450   43.5580 N   0  0  0  0  0  0  0  0  0  0  0  0
   37.5570   31.8520   44.6760 C   0  0  0  0  0  0  0  0  0  0  0  0
   36.4540   31.2290   44.5900 O   0  0  0  0  0  0  0  0  0  0  0  0
   36.3260   32.0850   40.4120 N   0  0  0  0  0  0  0  0  0  0  0  0
   37.4240   31.8880   41.1210 N   0  0  0  0  0  0  0  0  0  0  0  0
   37.2560   32.3500   42.3530 C   0  0  0  0  0  0  0  0  0  0  0  0
   35.9730   32.8740   42.4340 C   0  0  0  0  0  0  0  0  0  0  0  0
   35.3900   32.6940   41.1770 C   0  0  0  0  0  0  0  0  0  0  0  0
   37.6030   31.2180   46.9640 C   0  0  0  0  0  0  0  0  0  0  0  0
   38.2430   31.2150   48.2860 C   0  0  0  0  0  0  0  0  0  0  0  0
   35.6870   29.1910   50.1870 C   0  0  0  0  0  0  0  0  0  0  0  0
   36.3650   29.8100   49.1100 C   0  0  0  0  0  0  0  0  0  0  0  0
   37.4930   30.5480   49.3560 C   0  0  0  0  0  0  0  0  0  0  0  0
   37.9120   30.6530   50.6420 N   0  0  0  0  0  0  0  0  0  0  0  0
   37.2890   30.0780   51.6670 C   0  0  0  0  0  0  0  0  0  0  0  0
   36.1840   29.3520   51.4490 N   0  0  0  0  0  0  0  0  0  0  0  0
   39.9308   32.6407   46.7549 H   0  0  0  0  0  0  0  0  0  0  0  0
   40.7983   33.7247   44.7693 H   0  0  0  0  0  0  0  0  0  0  0  0
   36.2014   31.8156   39.4257 H   0  0  0  0  0  0  0  0  0  0  0  0
   35.5068   33.3395   43.3149 H   0  0  0  0  0  0  0  0  0  0  0  0
   34.3752   32.9879   40.8709 H   0  0  0  0  0  0  0  0  0  0  0  0
   36.6090   31.6713   47.0928 H   0  0  0  0  0  0  0  0  0  0  0  0
   37.6396   30.1610   46.6616 H   0  0  0  0  0  0  0  0  0  0  0  0
   39.2152   30.7095   48.1894 H   0  0  0  0  0  0  0  0  0  0  0  0
   38.3161   32.2710   48.5853 H   0  0  0  0  0  0  0  0  0  0  0  0
   34.7801   28.5936   50.0117 H   0  0  0  0  0  0  0  0  0  0  0  0
   35.9890   29.6994   48.0822 H   0  0  0  0  0  0  0  0  0  0  0  0
   37.6790   30.1979   52.6885 H   0  0  0  0  0  0  0  0  0  0  0  0
  1 14  1  0
  2  1  1  0
  3  2  2  0
  4  6  1  0
  4  3  1  0
  5  4  2  0
  6  7  1  0
  7  1  1  0
  8  7  2  0
  9 10  1  0
  9 13  1  0
 10 11  2  0
 11 12  1  0
 11  6  1  0
 13 12  2  0
 14 15  1  0
 15 18  1  0
 16 21  2  0
 17 18  2  0
 17 16  1  0
 18 19  1  0
 19 20  2  0
 21 20  1  0
  2 22  1  0
  3 23  1  0
  9 24  1  0
 12 25  1  0
 13 26  1  0
 14 27  1  0
 14 28  1  0
 15 29  1  0
 15 30  1  0
 16 31  1  0
 17 32  1  0
 20 33  1  0
M  ISO  8  22  14  23  14  24   9  25  14  26  14  27   8  28   8  29   8
M  ISO  4  30   8  31  14  32  14  33  14
M  END
>  <minimizedAffinity>  (1) 
-5.39516973

>  <minimizedRMSD>  (1) 
1.21665382

$$$$
