
     RDKit          3D

 33 35  0  0  0  0  0  0  0  0999 V2000
   38.7620   31.3750   47.5970 C   0  0  0  0  0  0  0  0  0  0  0  0
   39.0240   32.0180   46.3730 N   0  0  0  0  0  0  0  0  0  0  0  0
   40.0180   32.7950   46.0130 C   0  0  0  0  0  0  0  0  0  0  0  0
   40.1800   33.3760   44.7890 C   0  0  0  0  0  0  0  0  0  0  0  0
   39.2510   33.1560   43.8180 C   0  0  0  0  0  0  0  0  0  0  0  0
   39.3300   33.6530   42.6690 O   0  0  0  0  0  0  0  0  0  0  0  0
   38.2110   32.3690   44.1230 N   0  0  0  0  0  0  0  0  0  0  0  0
   38.1280   31.8410   45.3490 C   0  0  0  0  0  0  0  0  0  0  0  0
   37.1120   31.1130   45.5480 O   0  0  0  0  0  0  0  0  0  0  0  0
   37.2010   32.1130   43.1130 C   0  0  0  0  0  0  0  0  0  0  0  0
   36.8550   30.7610   42.6410 C   0  0  0  0  0  0  0  0  0  0  0  0
   37.5160   31.7500   41.7280 C   0  0  0  0  0  0  0  0  0  0  0  0
   37.9450   32.0420   48.6180 C   0  0  0  0  0  0  0  0  0  0  0  0
   35.4000   29.7510   50.2080 C   0  0  0  0  0  0  0  0  0  0  0  0
   36.0000   30.6120   49.2690 C   0  0  0  0  0  0  0  0  0  0  0  0
   37.2390   31.1360   49.5360 C   0  0  0  0  0  0  0  0  0  0  0  0
   37.8410   30.7980   50.7080 N   0  0  0  0  0  0  0  0  0  0  0  0
   37.2670   29.9780   51.6000 C   0  0  0  0  0  0  0  0  0  0  0  0
   36.0590   29.4550   51.3600 N   0  0  0  0  0  0  0  0  0  0  0  0
   39.7374   31.1637   48.0595 H   0  0  0  0  0  0  0  0  0  0  0  0
   38.1439   30.5141   47.3023 H   0  0  0  0  0  0  0  0  0  0  0  0
   40.7924   32.9967   46.7677 H   0  0  0  0  0  0  0  0  0  0  0  0
   41.0522   34.0156   44.5887 H   0  0  0  0  0  0  0  0  0  0  0  0
   36.6403   32.9332   43.5850 H   0  0  0  0  0  0  0  0  0  0  0  0
   37.4145   29.8878   43.0076 H   0  0  0  0  0  0  0  0  0  0  0  0
   35.9380   30.1544   42.6063 H   0  0  0  0  0  0  0  0  0  0  0  0
   38.5620   31.6032   41.4209 H   0  0  0  0  0  0  0  0  0  0  0  0
   37.2869   32.1733   40.7389 H   0  0  0  0  0  0  0  0  0  0  0  0
   38.6053   32.6875   49.2158 H   0  0  0  0  0  0  0  0  0  0  0  0
   37.1668   32.5983   48.0749 H   0  0  0  0  0  0  0  0  0  0  0  0
   34.4066   29.3215   50.0112 H   0  0  0  0  0  0  0  0  0  0  0  0
   35.4808   30.8615   48.3319 H   0  0  0  0  0  0  0  0  0  0  0  0
   37.7924   29.7337   52.5350 H   0  0  0  0  0  0  0  0  0  0  0  0
  1 13  1  0
  2  1  1  0
  3  2  1  0
  4  3  2  0
  5  7  1  0
  5  4  1  0
  6  5  2  0
  7  8  1  0
  8  9  2  0
  8  2  1  0
 10  7  1  0
 11 10  1  0
 12 11  1  0
 12 10  1  0
 13 16  1  0
 14 19  2  0
 15 16  2  0
 15 14  1  0
 16 17  1  0
 17 18  2  0
 19 18  1  0
  1 20  1  0
  1 21  1  0
  3 22  1  0
  4 23  1  0
 10 24  1  0
 11 25  1  0
 11 26  1  0
 12 27  1  0
 12 28  1  0
 13 29  1  0
 13 30  1  0
 14 31  1  0
 15 32  1  0
 18 33  1  0
M  ISO  8  20   8  21   8  22  14  23  14  24  13  25  13  26  13  27  13
M  ISO  6  28  13  29   8  30   8  31  14  32  14  33  14
M  END
>  <minimizedAffinity>  (1) 
-5.16253328

>  <minimizedRMSD>  (1) 
1.55356503

$$$$
