
     RDKit          3D

 32 34  0  0  0  0  0  0  0  0999 V2000
   38.1810   31.8950   45.9020 N   0  0  0  0  0  0  0  0  0  0  0  0
   39.2990   32.5810   45.8420 C   0  0  0  0  0  0  0  0  0  0  0  0
   39.8180   33.1830   44.7290 C   0  0  0  0  0  0  0  0  0  0  0  0
   39.1500   33.0930   43.5470 C   0  0  0  0  0  0  0  0  0  0  0  0
   39.5570   33.6150   42.4840 O   0  0  0  0  0  0  0  0  0  0  0  0
   38.0230   32.4140   43.5590 N   0  0  0  0  0  0  0  0  0  0  0  0
   37.5450   31.8350   44.6800 C   0  0  0  0  0  0  0  0  0  0  0  0
   36.4510   31.2070   44.5740 O   0  0  0  0  0  0  0  0  0  0  0  0
   37.2790   32.2900   42.3320 C   0  0  0  0  0  0  0  0  0  0  0  0
   37.4330   31.2490   41.4630 C   0  0  0  0  0  0  0  0  0  0  0  0
   36.2230   31.6870   40.1400 S   0  0  0  0  0  0  0  0  0  0  0  0
   35.7200   33.2830   41.0810 C   0  0  0  0  0  0  0  0  0  0  0  0
   36.3990   33.2620   42.0590 N   0  0  0  0  0  0  0  0  0  0  0  0
   37.5610   31.2410   46.9830 C   0  0  0  0  0  0  0  0  0  0  0  0
   38.2330   31.2050   48.2910 C   0  0  0  0  0  0  0  0  0  0  0  0
   35.6810   29.1930   50.2010 C   0  0  0  0  0  0  0  0  0  0  0  0
   36.3590   29.8100   49.1170 C   0  0  0  0  0  0  0  0  0  0  0  0
   37.4890   30.5440   49.3610 C   0  0  0  0  0  0  0  0  0  0  0  0
   37.9050   30.6420   50.6530 N   0  0  0  0  0  0  0  0  0  0  0  0
   37.2830   30.0720   51.6730 C   0  0  0  0  0  0  0  0  0  0  0  0
   36.1760   29.3490   51.4590 N   0  0  0  0  0  0  0  0  0  0  0  0
   39.8725   32.6810   46.7753 H   0  0  0  0  0  0  0  0  0  0  0  0
   40.7674   33.7353   44.7889 H   0  0  0  0  0  0  0  0  0  0  0  0
   38.1019   30.3785   41.5327 H   0  0  0  0  0  0  0  0  0  0  0  0
   34.9782   34.0397   40.7858 H   0  0  0  0  0  0  0  0  0  0  0  0
   36.5878   31.7300   47.1369 H   0  0  0  0  0  0  0  0  0  0  0  0
   37.5459   30.1861   46.6718 H   0  0  0  0  0  0  0  0  0  0  0  0
   39.1896   30.6764   48.1664 H   0  0  0  0  0  0  0  0  0  0  0  0
   38.3443   32.2539   48.6030 H   0  0  0  0  0  0  0  0  0  0  0  0
   34.7715   28.5992   50.0271 H   0  0  0  0  0  0  0  0  0  0  0  0
   35.9800   29.6995   48.0903 H   0  0  0  0  0  0  0  0  0  0  0  0
   37.6744   30.1918   52.6940 H   0  0  0  0  0  0  0  0  0  0  0  0
  1 14  1  0
  2  1  1  0
  3  2  2  0
  4  6  1  0
  4  3  1  0
  5  4  2  0
  6  7  1  0
  7  1  1  0
  8  7  2  0
  9  6  1  0
 10  9  2  0
 11 12  1  0
 11 10  1  0
 12 13  2  0
 13  9  1  0
 14 15  1  0
 15 18  1  0
 16 21  2  0
 17 18  2  0
 17 16  1  0
 18 19  1  0
 19 20  2  0
 21 20  1  0
  2 22  1  0
  3 23  1  0
 10 24  1  0
 12 25  1  0
 14 26  1  0
 14 27  1  0
 15 28  1  0
 15 29  1  0
 16 30  1  0
 17 31  1  0
 20 32  1  0
M  ISO  8  22  14  23  14  24  14  25  14  26   8  27   8  28   8  29   8
M  ISO  3  30  14  31  14  32  14
M  END
>  <minimizedAffinity>  (1) 
-5.14435339

>  <minimizedRMSD>  (1) 
1.24491251

$$$$
