
     RDKit          3D

 29 30  0  0  0  0  0  0  0  0999 V2000
   37.3540   31.1410   47.1220 C   0  0  0  0  0  0  0  0  0  0  0  0
   38.2210   31.9300   46.3240 N   0  0  0  0  0  0  0  0  0  0  0  0
   39.3230   32.5950   46.6280 C   0  0  0  0  0  0  0  0  0  0  0  0
   40.0750   33.3330   45.7540 C   0  0  0  0  0  0  0  0  0  0  0  0
   39.6910   33.4160   44.4460 C   0  0  0  0  0  0  0  0  0  0  0  0
   40.3330   34.0740   43.5940 O   0  0  0  0  0  0  0  0  0  0  0  0
   38.5940   32.7630   44.1040 N   0  0  0  0  0  0  0  0  0  0  0  0
   37.8880   32.0530   44.9900 C   0  0  0  0  0  0  0  0  0  0  0  0
   36.8580   31.4710   44.5470 O   0  0  0  0  0  0  0  0  0  0  0  0
   38.1680   32.8390   42.7110 C   0  0  0  0  0  0  0  0  0  0  0  0
   37.9250   30.3090   48.1890 C   0  0  0  0  0  0  0  0  0  0  0  0
   34.8430   29.1890   50.0640 C   0  0  0  0  0  0  0  0  0  0  0  0
   35.6950   29.5520   48.9860 C   0  0  0  0  0  0  0  0  0  0  0  0
   36.9990   29.9250   49.2580 C   0  0  0  0  0  0  0  0  0  0  0  0
   37.3940   29.9200   50.5600 N   0  0  0  0  0  0  0  0  0  0  0  0
   36.5970   29.5810   51.5620 C   0  0  0  0  0  0  0  0  0  0  0  0
   35.3280   29.2160   51.3270 N   0  0  0  0  0  0  0  0  0  0  0  0
   36.8151   30.4659   46.4410 H   0  0  0  0  0  0  0  0  0  0  0  0
   36.7476   31.8824   47.6630 H   0  0  0  0  0  0  0  0  0  0  0  0
   39.6646   32.5514   47.6727 H   0  0  0  0  0  0  0  0  0  0  0  0
   40.9793   33.8539   46.1017 H   0  0  0  0  0  0  0  0  0  0  0  0
   37.0859   33.0320   42.6685 H   0  0  0  0  0  0  0  0  0  0  0  0
   38.7062   33.6553   42.2070 H   0  0  0  0  0  0  0  0  0  0  0  0
   38.3907   31.8869   42.2070 H   0  0  0  0  0  0  0  0  0  0  0  0
   38.3115   29.3875   47.7291 H   0  0  0  0  0  0  0  0  0  0  0  0
   38.6991   30.9257   48.6691 H   0  0  0  0  0  0  0  0  0  0  0  0
   33.8017   28.8897   49.8740 H   0  0  0  0  0  0  0  0  0  0  0  0
   35.3231   29.5366   47.9509 H   0  0  0  0  0  0  0  0  0  0  0  0
   36.9783   29.5989   52.5936 H   0  0  0  0  0  0  0  0  0  0  0  0
  1 11  1  0
  2  3  1  0
  2  1  1  0
  4  3  2  0
  5  4  1  0
  6  5  2  0
  7  5  1  0
  7  8  1  0
  8  2  1  0
  9  8  2  0
 10  7  1  0
 11 14  1  0
 12 17  2  0
 13 14  2  0
 13 12  1  0
 14 15  1  0
 15 16  2  0
 17 16  1  0
  1 18  1  0
  1 19  1  0
  3 20  1  0
  4 21  1  0
 10 22  1  0
 10 23  1  0
 10 24  1  0
 11 25  1  0
 11 26  1  0
 12 27  1  0
 13 28  1  0
 16 29  1  0
M  ISO  8  18   8  19   8  20  14  21  14  22   8  23   8  24   8  25   8
M  ISO  4  26   8  27  14  28  14  29  14
M  END
>  <minimizedAffinity>  (1) 
-4.77872419

>  <minimizedRMSD>  (1) 
0.275698334

$$$$
