
     RDKit          3D

 41 43  0  0  0  0  0  0  0  0999 V2000
   39.8030   31.5810   45.3030 C   0  0  0  0  0  0  0  0  0  0  0  0
   39.5730   31.8300   43.9340 N   0  0  0  0  0  0  0  0  0  0  0  0
   38.7950   32.7470   43.3700 C   0  0  0  0  0  0  0  0  0  0  0  0
   38.6300   32.9190   42.0180 C   0  0  0  0  0  0  0  0  0  0  0  0
   39.3070   32.1000   41.1460 C   0  0  0  0  0  0  0  0  0  0  0  0
   39.2040   32.2010   39.9090 O   0  0  0  0  0  0  0  0  0  0  0  0
   40.0790   31.1900   41.6890 N   0  0  0  0  0  0  0  0  0  0  0  0
   40.2260   31.0370   43.0100 C   0  0  0  0  0  0  0  0  0  0  0  0
   40.9960   30.1290   43.4250 O   0  0  0  0  0  0  0  0  0  0  0  0
   40.8150   30.2990   40.7940 C   0  0  0  0  0  0  0  0  0  0  0  0
   41.8590   29.6950   41.4730 F   0  0  0  0  0  0  0  0  0  0  0  0
   41.3630   31.1080   39.7920 F   0  0  0  0  0  0  0  0  0  0  0  0
   39.9440   29.4050   40.2630 F   0  0  0  0  0  0  0  0  0  0  0  0
   39.9300   32.7070   46.2370 C   0  0  0  0  0  0  0  0  0  0  0  0
   38.2980   33.4220   49.5730 C   0  0  0  0  0  0  0  0  0  0  0  0
   39.1310   33.5460   48.4420 C   0  0  0  0  0  0  0  0  0  0  0  0
   39.0820   32.6180   47.4330 C   0  0  0  0  0  0  0  0  0  0  0  0
   38.2060   31.5830   47.5680 N   0  0  0  0  0  0  0  0  0  0  0  0
   37.4280   31.4760   48.6380 C   0  0  0  0  0  0  0  0  0  0  0  0
   37.4440   32.3520   49.6360 N   0  0  0  0  0  0  0  0  0  0  0  0
   36.5360   30.3680   48.7130 N   0  0  0  0  0  0  0  0  0  0  0  0
   35.2920   30.0990   48.0310 C   0  0  0  0  0  0  0  0  0  0  0  0
   34.3340   29.5870   49.0990 C   0  0  0  0  0  0  0  0  0  0  0  0
   35.2670   29.1440   50.2120 C   0  0  0  0  0  0  0  0  0  0  0  0
   36.6100   29.1600   49.5080 C   0  0  0  0  0  0  0  0  0  0  0  0
   40.7376   31.0047   45.3696 H   0  0  0  0  0  0  0  0  0  0  0  0
   38.8799   31.0802   45.6303 H   0  0  0  0  0  0  0  0  0  0  0  0
   38.2395   33.4213   44.0384 H   0  0  0  0  0  0  0  0  0  0  0  0
   37.9621   33.7051   41.6360 H   0  0  0  0  0  0  0  0  0  0  0  0
   40.9785   32.7621   46.5650 H   0  0  0  0  0  0  0  0  0  0  0  0
   39.5972   33.6009   45.6891 H   0  0  0  0  0  0  0  0  0  0  0  0
   38.3327   34.1648   50.3836 H   0  0  0  0  0  0  0  0  0  0  0  0
   39.8267   34.3949   48.3682 H   0  0  0  0  0  0  0  0  0  0  0  0
   34.8993   31.0192   47.5738 H   0  0  0  0  0  0  0  0  0  0  0  0
   35.4248   29.3657   47.2219 H   0  0  0  0  0  0  0  0  0  0  0  0
   33.6610   30.3865   49.4423 H   0  0  0  0  0  0  0  0  0  0  0  0
   33.6752   28.7825   48.7402 H   0  0  0  0  0  0  0  0  0  0  0  0
   35.2479   29.8489   51.0563 H   0  0  0  0  0  0  0  0  0  0  0  0
   35.0054   28.1717   50.6550 H   0  0  0  0  0  0  0  0  0  0  0  0
   36.7347   28.2722   48.8706 H   0  0  0  0  0  0  0  0  0  0  0  0
   37.4660   29.1427   50.1986 H   0  0  0  0  0  0  0  0  0  0  0  0
  1 14  1  0
  2  1  1  0
  3  2  1  0
  4  3  2  0
  5  7  1  0
  5  4  1  0
  6  5  2  0
  7  8  1  0
  8  9  2  0
  8  2  1  0
 10 11  1  0
 10  7  1  0
 12 10  1  0
 13 10  1  0
 14 17  1  0
 15 20  2  0
 16 15  1  0
 17 18  1  0
 17 16  2  0
 18 19  2  0
 19 21  1  0
 19 20  1  0
 21 25  1  0
 22 21  1  0
 22 23  1  0
 23 24  1  0
 25 24  1  0
  1 26  1  0
  1 27  1  0
  3 28  1  0
  4 29  1  0
 14 30  1  0
 14 31  1  0
 15 32  1  0
 16 33  1  0
 22 34  1  0
 22 35  1  0
 23 36  1  0
 23 37  1  0
 24 38  1  0
 24 39  1  0
 25 40  1  0
 25 41  1  0
M  ISO  8  26   8  27   8  28  14  29  14  30   8  31   8  32  14  33  14
M  ISO  8  34  13  35  13  36  13  37  13  38  13  39  13  40  13  41  13
M  END
>  <minimizedAffinity>  (1) 
-6.11021948

>  <minimizedRMSD>  (1) 
4.23281765

$$$$
