
     RDKit          3D

 45 47  0  0  0  0  0  0  0  0999 V2000
   37.3000   30.9230   46.4240 C   0  0  0  0  0  0  0  0  0  0  0  0
   36.3800   30.5110   47.3990 N   0  0  0  0  0  0  0  0  0  0  0  0
   35.0750   30.3090   47.2720 C   0  0  0  0  0  0  0  0  0  0  0  0
   34.2370   29.9010   48.2840 C   0  0  0  0  0  0  0  0  0  0  0  0
   34.7550   29.6780   49.5330 C   0  0  0  0  0  0  0  0  0  0  0  0
   34.0570   29.3080   50.5000 O   0  0  0  0  0  0  0  0  0  0  0  0
   36.0450   29.8740   49.6720 N   0  0  0  0  0  0  0  0  0  0  0  0
   36.8380   30.2690   48.6770 C   0  0  0  0  0  0  0  0  0  0  0  0
   38.0700   30.4290   48.9170 O   0  0  0  0  0  0  0  0  0  0  0  0
   36.6290   29.6430   50.9970 C   0  0  0  0  0  0  0  0  0  0  0  0
   37.6040   28.6650   50.9200 F   0  0  0  0  0  0  0  0  0  0  0  0
   35.6080   29.1730   51.8130 F   0  0  0  0  0  0  0  0  0  0  0  0
   37.1170   30.8250   51.4690 F   0  0  0  0  0  0  0  0  0  0  0  0
   37.1430   30.5040   45.0170 C   0  0  0  0  0  0  0  0  0  0  0  0
   40.7250   30.9380   43.8940 C   0  0  0  0  0  0  0  0  0  0  0  0
   39.5610   31.0380   44.6740 C   0  0  0  0  0  0  0  0  0  0  0  0
   38.3800   30.4380   44.2560 C   0  0  0  0  0  0  0  0  0  0  0  0
   38.4190   29.7570   43.0600 N   0  0  0  0  0  0  0  0  0  0  0  0
   39.5250   29.6790   42.3460 C   0  0  0  0  0  0  0  0  0  0  0  0
   40.6770   30.2400   42.7150 N   0  0  0  0  0  0  0  0  0  0  0  0
   39.5280   28.9260   41.0450 C   0  0  0  0  0  0  0  0  0  0  0  0
   39.9040   27.4920   41.2210 C   0  0  0  0  0  0  0  0  0  0  0  0
   40.6160   27.0250   39.9700 C   0  0  0  0  0  0  0  0  0  0  0  0
   40.0180   27.5970   38.7230 C   0  0  0  0  0  0  0  0  0  0  0  0
   40.0690   29.1140   38.6920 C   0  0  0  0  0  0  0  0  0  0  0  0
   40.5030   29.5660   40.0790 C   0  0  0  0  0  0  0  0  0  0  0  0
   37.2906   32.0230   46.4275 H   0  0  0  0  0  0  0  0  0  0  0  0
   38.2266   30.4153   46.7299 H   0  0  0  0  0  0  0  0  0  0  0  0
   34.6286   30.4809   46.2814 H   0  0  0  0  0  0  0  0  0  0  0  0
   33.1636   29.7555   48.0928 H   0  0  0  0  0  0  0  0  0  0  0  0
   36.6822   29.5052   45.0074 H   0  0  0  0  0  0  0  0  0  0  0  0
   36.5240   31.2739   44.5332 H   0  0  0  0  0  0  0  0  0  0  0  0
   41.6608   31.4126   44.2242 H   0  0  0  0  0  0  0  0  0  0  0  0
   39.5849   31.5952   45.6221 H   0  0  0  0  0  0  0  0  0  0  0  0
   38.5028   28.9685   40.6486 H   0  0  0  0  0  0  0  0  0  0  0  0
   40.5717   27.3874   42.0889 H   0  0  0  0  0  0  0  0  0  0  0  0
   39.0029   26.8843   41.3908 H   0  0  0  0  0  0  0  0  0  0  0  0
   41.6705   27.3324   40.0287 H   0  0  0  0  0  0  0  0  0  0  0  0
   40.5161   25.9308   39.9172 H   0  0  0  0  0  0  0  0  0  0  0  0
   40.5727   27.2083   37.8562 H   0  0  0  0  0  0  0  0  0  0  0  0
   38.9594   27.2992   38.6950 H   0  0  0  0  0  0  0  0  0  0  0  0
   40.7948   29.4535   37.9384 H   0  0  0  0  0  0  0  0  0  0  0  0
   39.0889   29.5373   38.4268 H   0  0  0  0  0  0  0  0  0  0  0  0
   41.5283   29.2274   40.2889 H   0  0  0  0  0  0  0  0  0  0  0  0
   40.4997   30.6625   40.1671 H   0  0  0  0  0  0  0  0  0  0  0  0
  1  2  1  0
  2  8  1  0
  3  2  1  0
  3  4  2  0
  4  5  1  0
  5  7  1  0
  5  6  2  0
  7 10  1  0
  8  9  2  0
  8  7  1  0
 10 13  1  0
 10 12  1  0
 11 10  1  0
 14  1  1  0
 15 16  2  0
 17 16  1  0
 17 14  1  0
 18 17  2  0
 19 20  2  0
 19 18  1  0
 20 15  1  0
 21 22  1  0
 21 19  1  0
 23 22  1  0
 24 23  1  0
 25 24  1  0
 25 26  1  0
 26 21  1  0
  1 27  1  0
  1 28  1  0
  3 29  1  0
  4 30  1  0
 14 31  1  0
 14 32  1  0
 15 33  1  0
 16 34  1  0
 21 35  1  0
 22 36  1  0
 22 37  1  0
 23 38  1  0
 23 39  1  0
 24 40  1  0
 24 41  1  0
 25 42  1  0
 25 43  1  0
 26 44  1  0
 26 45  1  0
M  ISO  8  27   8  28   8  29  14  30  14  31   8  32   8  33  14  34  14
M  ISO  8  35  13  36  13  37  13  38  13  39  13  40  13  41  13  42  13
M  ISO  3  43  13  44  13  45  13
M  END
>  <minimizedAffinity>  (1) 
-5.73866224

>  <minimizedRMSD>  (1) 
9.70961666

$$$$
