
     RDKit          3D

 38 39  0  0  0  0  0  0  0  0999 V2000
   37.4320   30.6180   44.4780 C   0  0  0  0  0  0  0  0  0  0  0  0
   38.3620   30.7650   43.4390 N   0  0  0  0  0  0  0  0  0  0  0  0
   38.6200   31.8360   42.6960 C   0  0  0  0  0  0  0  0  0  0  0  0
   39.5570   31.8950   41.6880 C   0  0  0  0  0  0  0  0  0  0  0  0
   40.2980   30.7900   41.3990 C   0  0  0  0  0  0  0  0  0  0  0  0
   41.1640   30.7640   40.5030 O   0  0  0  0  0  0  0  0  0  0  0  0
   40.0550   29.7130   42.1280 N   0  0  0  0  0  0  0  0  0  0  0  0
   39.1410   29.6800   43.1010 C   0  0  0  0  0  0  0  0  0  0  0  0
   38.9910   28.5970   43.7360 O   0  0  0  0  0  0  0  0  0  0  0  0
   40.8340   28.5100   41.8430 C   0  0  0  0  0  0  0  0  0  0  0  0
   40.3820   27.4610   42.6050 F   0  0  0  0  0  0  0  0  0  0  0  0
   42.1460   28.7800   42.2250 F   0  0  0  0  0  0  0  0  0  0  0  0
   40.7540   28.2610   40.4930 F   0  0  0  0  0  0  0  0  0  0  0  0
   37.6310   31.3020   45.7630 C   0  0  0  0  0  0  0  0  0  0  0  0
   34.8000   29.7460   47.7210 C   0  0  0  0  0  0  0  0  0  0  0  0
   35.5840   30.1900   46.6250 C   0  0  0  0  0  0  0  0  0  0  0  0
   36.7780   30.8220   46.8530 C   0  0  0  0  0  0  0  0  0  0  0  0
   37.1780   31.0040   48.1580 N   0  0  0  0  0  0  0  0  0  0  0  0
   36.4290   30.5790   49.1600 C   0  0  0  0  0  0  0  0  0  0  0  0
   35.2640   29.9620   48.9860 N   0  0  0  0  0  0  0  0  0  0  0  0
   36.9280   30.8120   50.5520 C   0  0  0  0  0  0  0  0  0  0  0  0
   36.8800   29.4980   51.2940 C   0  0  0  0  0  0  0  0  0  0  0  0
   38.4050   31.1800   50.3770 C   0  0  0  0  0  0  0  0  0  0  0  0
   37.3757   29.5421   44.6998 H   0  0  0  0  0  0  0  0  0  0  0  0
   36.5335   31.1081   44.0750 H   0  0  0  0  0  0  0  0  0  0  0  0
   38.0396   32.7474   42.9021 H   0  0  0  0  0  0  0  0  0  0  0  0
   39.7052   32.8263   41.1218 H   0  0  0  0  0  0  0  0  0  0  0  0
   38.6802   31.1659   46.0642 H   0  0  0  0  0  0  0  0  0  0  0  0
   37.3598   32.3553   45.5984 H   0  0  0  0  0  0  0  0  0  0  0  0
   33.8384   29.2384   47.5545 H   0  0  0  0  0  0  0  0  0  0  0  0
   35.2341   30.0272   45.5949 H   0  0  0  0  0  0  0  0  0  0  0  0
   36.3461   31.5756   51.0890 H   0  0  0  0  0  0  0  0  0  0  0  0
   36.8869   29.6882   52.3774 H   0  0  0  0  0  0  0  0  0  0  0  0
   35.9615   28.9570   51.0226 H   0  0  0  0  0  0  0  0  0  0  0  0
   37.7566   28.8914   51.0226 H   0  0  0  0  0  0  0  0  0  0  0  0
   38.8734   31.2967   51.3654 H   0  0  0  0  0  0  0  0  0  0  0  0
   38.9181   30.3822   49.8200 H   0  0  0  0  0  0  0  0  0  0  0  0
   38.4839   32.1252   49.8200 H   0  0  0  0  0  0  0  0  0  0  0  0
  1 14  1  0
  2  1  1  0
  3  2  1  0
  4  3  2  0
  5  4  1  0
  5  7  1  0
  6  5  2  0
  7  8  1  0
  8  2  1  0
  8  9  2  0
 10  7  1  0
 10 12  1  0
 10 11  1  0
 13 10  1  0
 14 17  1  0
 15 20  2  0
 16 17  2  0
 16 15  1  0
 17 18  1  0
 18 19  2  0
 19 21  1  0
 20 19  1  0
 21 22  1  0
 23 21  1  0
  1 24  1  0
  1 25  1  0
  3 26  1  0
  4 27  1  0
 14 28  1  0
 14 29  1  0
 15 30  1  0
 16 31  1  0
 21 32  1  0
 22 33  1  0
 22 34  1  0
 22 35  1  0
 23 36  1  0
 23 37  1  0
 23 38  1  0
M  ISO  8  24   8  25   8  26  14  27  14  28   8  29   8  30  14  31  14
M  ISO  7  32   8  33   8  34   8  35   8  36   8  37   8  38   8
M  END
>  <minimizedAffinity>  (1) 
-5.53139257

>  <minimizedRMSD>  (1) 
3.6236043

$$$$
