
     RDKit          3D

 43 45  0  0  0  0  0  0  0  0999 V2000
   33.2300   28.4840   47.8000 C   0  0  0  0  0  0  0  0  0  0  0  0
   33.5290   28.6120   46.4120 C   0  0  0  0  0  0  0  0  0  0  0  0
   34.5620   29.3860   45.9810 C   0  0  0  0  0  0  0  0  0  0  0  0
   35.3040   30.0410   46.9420 N   0  0  0  0  0  0  0  0  0  0  0  0
   35.0250   29.9220   48.2260 C   0  0  0  0  0  0  0  0  0  0  0  0
   34.0170   29.1690   48.6860 N   0  0  0  0  0  0  0  0  0  0  0  0
   34.8710   29.5200   44.5790 C   0  0  0  0  0  0  0  0  0  0  0  0
   33.8270   30.1120   43.7300 C   0  0  0  0  0  0  0  0  0  0  0  0
   33.9130   31.4620   43.3420 N   0  0  0  0  0  0  0  0  0  0  0  0
   34.9460   32.1100   42.8270 C   0  0  0  0  0  0  0  0  0  0  0  0
   34.9650   33.4410   42.4670 C   0  0  0  0  0  0  0  0  0  0  0  0
   33.8330   34.1890   42.6410 C   0  0  0  0  0  0  0  0  0  0  0  0
   33.7640   35.3930   42.3430 O   0  0  0  0  0  0  0  0  0  0  0  0
   32.7960   33.5620   43.1520 N   0  0  0  0  0  0  0  0  0  0  0  0
   32.8080   32.2830   43.4890 C   0  0  0  0  0  0  0  0  0  0  0  0
   31.7510   31.7620   43.9790 O   0  0  0  0  0  0  0  0  0  0  0  0
   31.5760   34.3400   43.3480 C   0  0  0  0  0  0  0  0  0  0  0  0
   30.4610   33.5320   43.2040 F   0  0  0  0  0  0  0  0  0  0  0  0
   31.5320   35.3030   42.3730 F   0  0  0  0  0  0  0  0  0  0  0  0
   31.6190   34.8890   44.5970 F   0  0  0  0  0  0  0  0  0  0  0  0
   35.8320   30.6330   49.2520 C   0  0  0  0  0  0  0  0  0  0  0  0
   37.2960   30.2190   49.1260 C   0  0  0  0  0  0  0  0  0  0  0  0
   38.0530   31.4480   48.7680 C   0  0  0  0  0  0  0  0  0  0  0  0
   38.2480   32.5530   49.5720 C   0  0  0  0  0  0  0  0  0  0  0  0
   38.9910   33.6170   49.0570 C   0  0  0  0  0  0  0  0  0  0  0  0
   39.5050   33.5600   47.8040 N   0  0  0  0  0  0  0  0  0  0  0  0
   39.3070   32.4750   47.0340 C   0  0  0  0  0  0  0  0  0  0  0  0
   38.5920   31.4420   47.5140 N   0  0  0  0  0  0  0  0  0  0  0  0
   32.3958   27.8565   48.1469 H   0  0  0  0  0  0  0  0  0  0  0  0
   32.9131   28.0750   45.6755 H   0  0  0  0  0  0  0  0  0  0  0  0
   35.7684   30.1504   44.4935 H   0  0  0  0  0  0  0  0  0  0  0  0
   34.9976   28.4916   44.2096 H   0  0  0  0  0  0  0  0  0  0  0  0
   33.7962   29.5178   42.8048 H   0  0  0  0  0  0  0  0  0  0  0  0
   32.9368   30.0924   44.3759 H   0  0  0  0  0  0  0  0  0  0  0  0
   35.8714   31.5358   42.6725 H   0  0  0  0  0  0  0  0  0  0  0  0
   35.8753   33.8937   42.0469 H   0  0  0  0  0  0  0  0  0  0  0  0
   35.7438   31.7189   49.0999 H   0  0  0  0  0  0  0  0  0  0  0  0
   35.4624   30.3715   50.2545 H   0  0  0  0  0  0  0  0  0  0  0  0
   37.6598   29.8134   50.0816 H   0  0  0  0  0  0  0  0  0  0  0  0
   37.4240   29.4367   48.3634 H   0  0  0  0  0  0  0  0  0  0  0  0
   37.8302   32.5941   50.5887 H   0  0  0  0  0  0  0  0  0  0  0  0
   39.1611   34.5112   49.6747 H   0  0  0  0  0  0  0  0  0  0  0  0
   39.7272   32.4329   46.0183 H   0  0  0  0  0  0  0  0  0  0  0  0
  1  6  2  0
  2  1  1  0
  3  2  2  0
  3  4  1  0
  4  5  2  0
  5  6  1  0
  5 21  1  0
  7  3  1  0
  8  7  1  0
  9 15  1  0
  9  8  1  0
 10  9  1  0
 11 12  1  0
 11 10  2  0
 12 14  1  0
 13 12  2  0
 14 17  1  0
 14 15  1  0
 15 16  2  0
 17 20  1  0
 18 17  1  0
 19 17  1  0
 22 21  1  0
 23 22  1  0
 23 24  2  0
 25 24  1  0
 26 25  2  0
 27 28  2  0
 27 26  1  0
 28 23  1  0
  1 29  1  0
  2 30  1  0
  7 31  1  0
  7 32  1  0
  8 33  1  0
  8 34  1  0
 10 35  1  0
 11 36  1  0
 21 37  1  0
 21 38  1  0
 22 39  1  0
 22 40  1  0
 24 41  1  0
 25 42  1  0
 27 43  1  0
M  ISO  8  29  14  30  14  31   8  32   8  33   8  34   8  35  14  36  14
M  ISO  7  37   8  38   8  39   8  40   8  41  14  42  14  43  14
M  END
>  <minimizedAffinity>  (1) 
-5.4513545

>  <minimizedRMSD>  (1) 
4.70572329

$$$$
