
     RDKit          3D

 42 44  0  0  0  0  0  0  0  0999 V2000
   39.7640   32.1550   46.3610 C   0  0  0  0  0  0  0  0  0  0  0  0
   38.0660   33.1290   49.5370 C   0  0  0  0  0  0  0  0  0  0  0  0
   38.9800   33.1150   48.4560 C   0  0  0  0  0  0  0  0  0  0  0  0
   38.8430   32.1890   47.4590 C   0  0  0  0  0  0  0  0  0  0  0  0
   37.7940   31.2850   47.5480 N   0  0  0  0  0  0  0  0  0  0  0  0
   36.9570   31.3230   48.5650 C   0  0  0  0  0  0  0  0  0  0  0  0
   37.0470   32.1970   49.5530 N   0  0  0  0  0  0  0  0  0  0  0  0
   35.8330   30.3630   48.6660 C   0  0  0  0  0  0  0  0  0  0  0  0
   36.2190   29.1770   49.5060 C   0  0  0  0  0  0  0  0  0  0  0  0
   34.9990   28.2960   49.7090 C   0  0  0  0  0  0  0  0  0  0  0  0
   34.3240   27.7400   48.5050 C   0  0  0  0  0  0  0  0  0  0  0  0
   33.6400   28.7440   49.3870 C   0  0  0  0  0  0  0  0  0  0  0  0
   39.8200   30.9250   45.5620 C   0  0  0  0  0  0  0  0  0  0  0  0
   39.5420   30.9700   44.1850 N   0  0  0  0  0  0  0  0  0  0  0  0
   40.3070   31.4300   43.1970 C   0  0  0  0  0  0  0  0  0  0  0  0
   39.9770   31.4400   41.8580 C   0  0  0  0  0  0  0  0  0  0  0  0
   38.7590   30.9380   41.4760 C   0  0  0  0  0  0  0  0  0  0  0  0
   38.3790   30.9060   40.2890 O   0  0  0  0  0  0  0  0  0  0  0  0
   37.9950   30.4810   42.4340 N   0  0  0  0  0  0  0  0  0  0  0  0
   38.3390   30.4850   43.7120 C   0  0  0  0  0  0  0  0  0  0  0  0
   37.5260   30.0180   44.5730 O   0  0  0  0  0  0  0  0  0  0  0  0
   36.6910   29.9390   42.0580 C   0  0  0  0  0  0  0  0  0  0  0  0
   36.2280   29.0710   43.0300 F   0  0  0  0  0  0  0  0  0  0  0  0
   36.8670   29.2240   40.8890 F   0  0  0  0  0  0  0  0  0  0  0  0
   35.8240   30.9790   41.8840 F   0  0  0  0  0  0  0  0  0  0  0  0
   39.4971   32.9777   45.6813 H   0  0  0  0  0  0  0  0  0  0  0  0
   40.7578   32.2329   46.8260 H   0  0  0  0  0  0  0  0  0  0  0  0
   38.1653   33.8666   50.3470 H   0  0  0  0  0  0  0  0  0  0  0  0
   39.7993   33.8480   48.4180 H   0  0  0  0  0  0  0  0  0  0  0  0
   34.9695   30.8655   49.1263 H   0  0  0  0  0  0  0  0  0  0  0  0
   35.5769   30.0116   47.6556 H   0  0  0  0  0  0  0  0  0  0  0  0
   37.0067   28.6039   48.9949 H   0  0  0  0  0  0  0  0  0  0  0  0
   36.5961   29.5194   50.4809 H   0  0  0  0  0  0  0  0  0  0  0  0
   35.4538   27.8922   50.6256 H   0  0  0  0  0  0  0  0  0  0  0  0
   33.9869   26.6930   48.4935 H   0  0  0  0  0  0  0  0  0  0  0  0
   34.5624   27.6700   47.4334 H   0  0  0  0  0  0  0  0  0  0  0  0
   33.4706   29.7687   49.0246 H   0  0  0  0  0  0  0  0  0  0  0  0
   32.6839   28.7772   49.9299 H   0  0  0  0  0  0  0  0  0  0  0  0
   40.8386   30.5234   45.6677 H   0  0  0  0  0  0  0  0  0  0  0  0
   38.9948   30.3212   45.9677 H   0  0  0  0  0  0  0  0  0  0  0  0
   41.2901   31.8386   43.4735 H   0  0  0  0  0  0  0  0  0  0  0  0
   40.6769   31.8427   41.1110 H   0  0  0  0  0  0  0  0  0  0  0  0
  1  4  1  0
  2  7  2  0
  3  2  1  0
  4  5  1  0
  4  3  2  0
  5  6  2  0
  6  8  1  0
  6  7  1  0
  8  9  1  0
  9 10  1  0
 11 12  1  0
 11 10  1  0
 12 10  1  0
 13  1  1  0
 14 13  1  0
 15 14  1  0
 16 15  2  0
 17 16  1  0
 17 19  1  0
 18 17  2  0
 19 20  1  0
 20 14  1  0
 20 21  2  0
 22 19  1  0
 22 23  1  0
 24 22  1  0
 25 22  1  0
  1 26  1  0
  1 27  1  0
  2 28  1  0
  3 29  1  0
  8 30  1  0
  8 31  1  0
  9 32  1  0
  9 33  1  0
 10 34  1  0
 11 35  1  0
 11 36  1  0
 12 37  1  0
 12 38  1  0
 13 39  1  0
 13 40  1  0
 15 41  1  0
 16 42  1  0
M  ISO  8  26   8  27   8  28  14  29  14  30   8  31   8  32   8  33   8
M  ISO  8  34  13  35  13  36  13  37  13  38  13  39   8  40   8  41  14
M  ISO  1  42  14
M  END
>  <minimizedAffinity>  (1) 
-5.39588881

>  <minimizedRMSD>  (1) 
3.66595793

$$$$
