
     RDKit          3D

 42 44  0  0  0  0  0  0  0  0999 V2000
   37.9330   32.9330   42.8350 C   0  0  0  0  0  0  0  0  0  0  0  0
   39.0550   29.9370   44.8110 C   0  0  0  0  0  0  0  0  0  0  0  0
   38.6110   30.7600   43.7400 C   0  0  0  0  0  0  0  0  0  0  0  0
   38.3840   32.0900   43.9180 C   0  0  0  0  0  0  0  0  0  0  0  0
   38.6050   32.5840   45.1820 N   0  0  0  0  0  0  0  0  0  0  0  0
   39.0150   31.8340   46.1780 C   0  0  0  0  0  0  0  0  0  0  0  0
   39.2470   30.5220   46.0330 N   0  0  0  0  0  0  0  0  0  0  0  0
   39.2430   32.3970   47.5310 C   0  0  0  0  0  0  0  0  0  0  0  0
   37.8950   32.6510   48.2010 C   0  0  0  0  0  0  0  0  0  0  0  0
   37.5310   31.4000   48.9100 C   0  0  0  0  0  0  0  0  0  0  0  0
   38.0720   30.8020   49.9800 C   0  0  0  0  0  0  0  0  0  0  0  0
   37.5940   29.6480   50.4860 C   0  0  0  0  0  0  0  0  0  0  0  0
   36.4060   29.1410   49.7060 C   0  0  0  0  0  0  0  0  0  0  0  0
   36.1770   30.4400   48.3510 S   0  0  0  0  0  0  0  0  0  0  0  0
   36.4840   32.9120   42.5690 C   0  0  0  0  0  0  0  0  0  0  0  0
   35.9580   33.6700   41.5070 N   0  0  0  0  0  0  0  0  0  0  0  0
   36.4420   33.8200   40.2800 C   0  0  0  0  0  0  0  0  0  0  0  0
   35.8730   34.5750   39.2810 C   0  0  0  0  0  0  0  0  0  0  0  0
   34.7070   35.2430   39.5370 C   0  0  0  0  0  0  0  0  0  0  0  0
   34.1320   35.9440   38.6880 O   0  0  0  0  0  0  0  0  0  0  0  0
   34.2140   35.1080   40.7410 N   0  0  0  0  0  0  0  0  0  0  0  0
   34.7840   34.3720   41.6890 C   0  0  0  0  0  0  0  0  0  0  0  0
   34.2250   34.3020   42.8320 O   0  0  0  0  0  0  0  0  0  0  0  0
   32.9690   35.8100   41.0430 C   0  0  0  0  0  0  0  0  0  0  0  0
   32.4280   35.3550   42.2280 F   0  0  0  0  0  0  0  0  0  0  0  0
   32.0870   35.5420   40.0150 F   0  0  0  0  0  0  0  0  0  0  0  0
   33.2490   37.1510   41.1250 F   0  0  0  0  0  0  0  0  0  0  0  0
   38.2180   33.9687   43.0718 H   0  0  0  0  0  0  0  0  0  0  0  0
   38.4100   32.5352   41.9271 H   0  0  0  0  0  0  0  0  0  0  0  0
   39.2386   28.8627   44.6618 H   0  0  0  0  0  0  0  0  0  0  0  0
   38.4478   30.3130   42.7482 H   0  0  0  0  0  0  0  0  0  0  0  0
   39.8249   31.6838   48.1333 H   0  0  0  0  0  0  0  0  0  0  0  0
   39.7999   33.3421   47.4497 H   0  0  0  0  0  0  0  0  0  0  0  0
   37.9776   33.4824   48.9165 H   0  0  0  0  0  0  0  0  0  0  0  0
   37.1292   32.9239   47.4600 H   0  0  0  0  0  0  0  0  0  0  0  0
   38.9407   31.2716   50.4646 H   0  0  0  0  0  0  0  0  0  0  0  0
   38.0189   29.1370   51.3625 H   0  0  0  0  0  0  0  0  0  0  0  0
   35.8136   28.2313   49.8835 H   0  0  0  0  0  0  0  0  0  0  0  0
   36.2101   31.8638   42.3787 H   0  0  0  0  0  0  0  0  0  0  0  0
   36.0534   33.3895   43.4615 H   0  0  0  0  0  0  0  0  0  0  0  0
   37.3789   33.2952   40.0417 H   0  0  0  0  0  0  0  0  0  0  0  0
   36.3483   34.6407   38.2912 H   0  0  0  0  0  0  0  0  0  0  0  0
  1  4  1  0
  2  7  2  0
  3  4  2  0
  3  2  1  0
  4  5  1  0
  5  6  2  0
  6  8  1  0
  7  6  1  0
  8  9  1  0
  9 10  1  0
 10 11  2  0
 11 12  1  0
 13 12  2  0
 14 10  1  0
 14 13  1  0
 15  1  1  0
 16 22  1  0
 16 15  1  0
 17 16  1  0
 18 19  1  0
 18 17  2  0
 19 21  1  0
 20 19  2  0
 21 24  1  0
 21 22  1  0
 22 23  2  0
 24 27  1  0
 24 25  1  0
 26 24  1  0
  1 28  1  0
  1 29  1  0
  2 30  1  0
  3 31  1  0
  8 32  1  0
  8 33  1  0
  9 34  1  0
  9 35  1  0
 11 36  1  0
 12 37  1  0
 13 38  1  0
 15 39  1  0
 15 40  1  0
 17 41  1  0
 18 42  1  0
M  ISO  8  28   8  29   8  30  14  31  14  32   8  33   8  34   8  35   8
M  ISO  7  36  14  37  14  38  14  39   8  40   8  41  14  42  14
M  END
>  <minimizedAffinity>  (1) 
-5.1917243

>  <minimizedRMSD>  (1) 
4.32294083

$$$$
