
     RDKit          3D

 29 31  0  0  0  0  0  0  0  0999 V2000
   34.3680   29.6560   48.0380 C   0  0  0  0  0  0  0  0  0  0  0  0
   34.1350   29.2940   49.3760 C   0  0  0  0  0  0  0  0  0  0  0  0
   35.0830   29.3200   50.3580 C   0  0  0  0  0  0  0  0  0  0  0  0
   36.3670   29.7230   50.0500 C   0  0  0  0  0  0  0  0  0  0  0  0
   36.6650   30.0870   48.7750 C   0  0  0  0  0  0  0  0  0  0  0  0
   37.9520   30.4760   48.5250 C   0  0  0  0  0  0  0  0  0  0  0  0
   38.3220   30.8550   47.2660 C   0  0  0  0  0  0  0  0  0  0  0  0
   37.3520   30.8260   46.2680 C   0  0  0  0  0  0  0  0  0  0  0  0
   36.0760   30.4260   46.5790 C   0  0  0  0  0  0  0  0  0  0  0  0
   35.6700   30.0440   47.8170 C   0  0  0  0  0  0  0  0  0  0  0  0
   32.0280   28.0990   45.8020 C   0  0  0  0  0  0  0  0  0  0  0  0
   31.3670   29.0970   45.1080 C   0  0  0  0  0  0  0  0  0  0  0  0
   31.7480   30.3830   45.4280 C   0  0  0  0  0  0  0  0  0  0  0  0
   32.6980   30.5710   46.3540 N   0  0  0  0  0  0  0  0  0  0  0  0
   33.3370   29.6170   47.0240 C   0  0  0  0  0  0  0  0  0  0  0  0
   32.9540   28.4010   46.7000 N   0  0  0  0  0  0  0  0  0  0  0  0
   37.3810   29.7420   51.1390 C   0  0  0  0  0  0  0  0  0  0  0  0
   38.2960   30.7780   50.9460 F   0  0  0  0  0  0  0  0  0  0  0  0
   38.1230   28.5610   51.1420 F   0  0  0  0  0  0  0  0  0  0  0  0
   36.8220   29.9350   52.3760 F   0  0  0  0  0  0  0  0  0  0  0  0
   33.1209   28.9679   49.6502 H   0  0  0  0  0  0  0  0  0  0  0  0
   34.8261   29.0225   51.3854 H   0  0  0  0  0  0  0  0  0  0  0  0
   38.6910   30.4837   49.3398 H   0  0  0  0  0  0  0  0  0  0  0  0
   39.3523   31.1726   47.0479 H   0  0  0  0  0  0  0  0  0  0  0  0
   37.6056   31.1210   45.2391 H   0  0  0  0  0  0  0  0  0  0  0  0
   35.3313   30.4142   45.7695 H   0  0  0  0  0  0  0  0  0  0  0  0
   31.7823   27.0448   45.6062 H   0  0  0  0  0  0  0  0  0  0  0  0
   30.5940   28.8803   44.3559 H   0  0  0  0  0  0  0  0  0  0  0  0
   31.2780   31.2436   44.9294 H   0  0  0  0  0  0  0  0  0  0  0  0
  1  2  2  0
  2  3  1  0
  4  3  2  0
  4 17  1  0
  5  4  1  0
  6  5  2  0
  7  6  1  0
  8  9  1  0
  8  7  2  0
  9 10  2  0
 10  1  1  0
 10  5  1  0
 11 16  2  0
 12 13  2  0
 12 11  1  0
 13 14  1  0
 14 15  2  0
 15  1  1  0
 16 15  1  0
 17 19  1  0
 17 20  1  0
 18 17  1  0
  2 21  1  0
  3 22  1  0
  6 23  1  0
  7 24  1  0
  8 25  1  0
  9 26  1  0
 11 27  1  0
 12 28  1  0
 13 29  1  0
M  ISO  8  21  14  22  14  23  14  24  14  25  14  26  14  27  14  28  14
M  ISO  1  29  14
M  END
>  <minimizedAffinity>  (1) 
-6.66905689

>  <minimizedRMSD>  (1) 
1.82130182

$$$$
