
     RDKit          3D

 27 29  0  0  0  0  0  0  0  0999 V2000
   35.1490   29.6760   48.8440 C   0  0  0  0  0  0  0  0  0  0  0  0
   34.9050   29.0770   50.0730 C   0  0  0  0  0  0  0  0  0  0  0  0
   35.7130   29.1700   51.1680 C   0  0  0  0  0  0  0  0  0  0  0  0
   36.8690   29.9040   51.0920 C   0  0  0  0  0  0  0  0  0  0  0  0
   37.1810   30.5220   49.9230 C   0  0  0  0  0  0  0  0  0  0  0  0
   38.3480   31.2450   49.8960 C   0  0  0  0  0  0  0  0  0  0  0  0
   38.7280   31.8960   48.7520 C   0  0  0  0  0  0  0  0  0  0  0  0
   37.9020   31.7990   47.6390 C   0  0  0  0  0  0  0  0  0  0  0  0
   36.7470   31.0590   47.7340 C   0  0  0  0  0  0  0  0  0  0  0  0
   36.3270   30.3970   48.8420 C   0  0  0  0  0  0  0  0  0  0  0  0
   33.4800   27.9330   46.1890 C   0  0  0  0  0  0  0  0  0  0  0  0
   32.7200   28.8490   45.4820 C   0  0  0  0  0  0  0  0  0  0  0  0
   32.7860   30.1440   45.9490 C   0  0  0  0  0  0  0  0  0  0  0  0
   33.5510   30.4090   47.0090 N   0  0  0  0  0  0  0  0  0  0  0  0
   34.2780   29.5640   47.6940 C   0  0  0  0  0  0  0  0  0  0  0  0
   34.2040   28.3120   47.2300 N   0  0  0  0  0  0  0  0  0  0  0  0
   37.6550   29.9660   52.2330 O   0  0  0  0  0  0  0  0  0  0  0  0
   33.9865   28.4797   50.1712 H   0  0  0  0  0  0  0  0  0  0  0  0
   35.4398   28.6607   52.1039 H   0  0  0  0  0  0  0  0  0  0  0  0
   38.9793   31.3016   50.7950 H   0  0  0  0  0  0  0  0  0  0  0  0
   39.6603   32.4787   48.7157 H   0  0  0  0  0  0  0  0  0  0  0  0
   38.1672   32.3050   46.6990 H   0  0  0  0  0  0  0  0  0  0  0  0
   36.1111   30.9985   46.8385 H   0  0  0  0  0  0  0  0  0  0  0  0
   33.4821   26.8768   45.8816 H   0  0  0  0  0  0  0  0  0  0  0  0
   32.1091   28.5645   44.6126 H   0  0  0  0  0  0  0  0  0  0  0  0
   32.2171   30.9459   45.4556 H   0  0  0  0  0  0  0  0  0  0  0  0
   38.4986   30.4841   52.2254 H   0  0  0  0  0  0  0  0  0  0  0  0
  1  2  2  0
  2  3  1  0
  4  3  2  0
  4 17  1  0
  5  4  1  0
  6  5  2  0
  7  6  1  0
  8  9  1  0
  8  7  2  0
  9 10  2  0
 10  1  1  0
 10  5  1  0
 11 16  2  0
 12 13  2  0
 12 11  1  0
 13 14  1  0
 14 15  2  0
 15  1  1  0
 16 15  1  0
  2 18  1  0
  3 19  1  0
  6 20  1  0
  7 21  1  0
  8 22  1  0
  9 23  1  0
 11 24  1  0
 12 25  1  0
 13 26  1  0
 17 27  1  0
M  ISO  8  18  14  19  14  20  14  21  14  22  14  23  14  24  14  25  14
M  ISO  2  26  14  27   3
M  END
>  <minimizedAffinity>  (1) 
-6.33384514

>  <minimizedRMSD>  (1) 
0.831249237

$$$$
