
     RDKit          3D

 29 31  0  0  0  0  0  0  0  0999 V2000
   34.3610   29.4890   48.0020 C   0  0  0  0  0  0  0  0  0  0  0  0
   34.1360   29.0030   49.2830 C   0  0  0  0  0  0  0  0  0  0  0  0
   35.0800   28.9770   50.2720 C   0  0  0  0  0  0  0  0  0  0  0  0
   36.3460   29.4550   50.0140 C   0  0  0  0  0  0  0  0  0  0  0  0
   36.6240   29.9440   48.7760 C   0  0  0  0  0  0  0  0  0  0  0  0
   37.9040   30.4080   48.5730 C   0  0  0  0  0  0  0  0  0  0  0  0
   38.2640   30.9140   47.3610 C   0  0  0  0  0  0  0  0  0  0  0  0
   37.3030   30.9410   46.3520 C   0  0  0  0  0  0  0  0  0  0  0  0
   36.0450   30.4580   46.6320 C   0  0  0  0  0  0  0  0  0  0  0  0
   35.6480   29.9500   47.8200 C   0  0  0  0  0  0  0  0  0  0  0  0
   32.1000   28.0250   45.6100 C   0  0  0  0  0  0  0  0  0  0  0  0
   31.4190   29.0580   44.9890 C   0  0  0  0  0  0  0  0  0  0  0  0
   31.7490   30.3480   45.4100 C   0  0  0  0  0  0  0  0  0  0  0  0
   32.6790   30.4860   46.3620 N   0  0  0  0  0  0  0  0  0  0  0  0
   33.3420   29.5070   46.9690 C   0  0  0  0  0  0  0  0  0  0  0  0
   33.0020   28.2880   46.5440 N   0  0  0  0  0  0  0  0  0  0  0  0
   37.2270   29.3470   51.1520 C   0  0  0  0  0  0  0  0  0  0  0  0
   37.3350   30.1520   52.1060 O   0  0  0  0  0  0  0  0  0  0  0  0
   38.1600   28.4480   51.5730 O   0  0  0  0  0  0  0  0  0  0  0  0
   33.1341   28.6139   49.5173 H   0  0  0  0  0  0  0  0  0  0  0  0
   34.8304   28.5775   51.2660 H   0  0  0  0  0  0  0  0  0  0  0  0
   38.6377   30.3700   49.3916 H   0  0  0  0  0  0  0  0  0  0  0  0
   39.2824   31.2900   47.1838 H   0  0  0  0  0  0  0  0  0  0  0  0
   37.5443   31.3390   45.3553 H   0  0  0  0  0  0  0  0  0  0  0  0
   35.3012   30.4878   45.8221 H   0  0  0  0  0  0  0  0  0  0  0  0
   31.8915   26.9826   45.3271 H   0  0  0  0  0  0  0  0  0  0  0  0
   30.6636   28.8738   44.2109 H   0  0  0  0  0  0  0  0  0  0  0  0
   31.2570   31.2281   44.9702 H   0  0  0  0  0  0  0  0  0  0  0  0
   38.6495   28.6024   52.4196 H   0  0  0  0  0  0  0  0  0  0  0  0
  1  2  2  0
  2  3  1  0
  4  3  2  0
  4 17  1  0
  5  4  1  0
  6  5  2  0
  7  6  1  0
  8  9  1  0
  8  7  2  0
  9 10  2  0
 10  1  1  0
 10  5  1  0
 11 16  2  0
 12 13  2  0
 12 11  1  0
 13 14  1  0
 14 15  2  0
 15  1  1  0
 16 15  1  0
 17 19  1  0
 17 18  2  0
  2 20  1  0
  3 21  1  0
  6 22  1  0
  7 23  1  0
  8 24  1  0
  9 25  1  0
 11 26  1  0
 12 27  1  0
 13 28  1  0
 19 29  1  0
M  ISO  8  20  14  21  14  22  14  23  14  24  14  25  14  26  14  27  14
M  ISO  2  28  14  29   3
M  END
>  <minimizedAffinity>  (1) 
-6.22057962

>  <minimizedRMSD>  (1) 
1.89675963

$$$$
