
     RDKit          3D

 34 37  0  0  0  0  0  0  0  0999 V2000
   38.2290   31.6780   46.1080 C   0  0  0  0  0  0  0  0  0  0  0  0
   37.2200   30.7660   46.4330 C   0  0  0  0  0  0  0  0  0  0  0  0
   36.6710   30.6420   47.6780 C   0  0  0  0  0  0  0  0  0  0  0  0
   37.0900   31.4270   48.7090 C   0  0  0  0  0  0  0  0  0  0  0  0
   38.0620   32.3280   48.4620 C   0  0  0  0  0  0  0  0  0  0  0  0
   38.4850   33.1200   49.5120 C   0  0  0  0  0  0  0  0  0  0  0  0
   39.4680   34.0580   49.3400 C   0  0  0  0  0  0  0  0  0  0  0  0
   40.0300   34.1900   48.0800 C   0  0  0  0  0  0  0  0  0  0  0  0
   39.5800   33.3820   47.0670 C   0  0  0  0  0  0  0  0  0  0  0  0
   38.6160   32.4510   47.1980 C   0  0  0  0  0  0  0  0  0  0  0  0
   40.2650   30.6650   43.3380 C   0  0  0  0  0  0  0  0  0  0  0  0
   40.1440   31.6050   42.3420 C   0  0  0  0  0  0  0  0  0  0  0  0
   39.3040   32.6630   42.6380 C   0  0  0  0  0  0  0  0  0  0  0  0
   38.7010   32.6870   43.8260 N   0  0  0  0  0  0  0  0  0  0  0  0
   38.8020   31.8020   44.7900 C   0  0  0  0  0  0  0  0  0  0  0  0
   39.6120   30.7980   44.4810 N   0  0  0  0  0  0  0  0  0  0  0  0
   36.5100   31.2670   49.9420 O   0  0  0  0  0  0  0  0  0  0  0  0
   36.4170   30.1180   50.7100 C   0  0  0  0  0  0  0  0  0  0  0  0
   37.4880   29.0870   50.7180 C   0  0  0  0  0  0  0  0  0  0  0  0
   37.3420   30.0080   51.9090 C   0  0  0  0  0  0  0  0  0  0  0  0
   36.8447   30.1070   45.6362 H   0  0  0  0  0  0  0  0  0  0  0  0
   35.8795   29.8977   47.8500 H   0  0  0  0  0  0  0  0  0  0  0  0
   38.0244   32.9951   50.5031 H   0  0  0  0  0  0  0  0  0  0  0  0
   39.8018   34.6883   50.1775 H   0  0  0  0  0  0  0  0  0  0  0  0
   40.8230   34.9297   47.8956 H   0  0  0  0  0  0  0  0  0  0  0  0
   40.0402   33.5034   46.0753 H   0  0  0  0  0  0  0  0  0  0  0  0
   40.9136   29.7903   43.1825 H   0  0  0  0  0  0  0  0  0  0  0  0
   40.6751   31.5218   41.3823 H   0  0  0  0  0  0  0  0  0  0  0  0
   39.1371   33.4683   41.9076 H   0  0  0  0  0  0  0  0  0  0  0  0
   35.3341   30.0687   50.5234 H   0  0  0  0  0  0  0  0  0  0  0  0
   37.2237   28.0234   50.8124 H   0  0  0  0  0  0  0  0  0  0  0  0
   38.3137   28.8250   50.0402 H   0  0  0  0  0  0  0  0  0  0  0  0
   38.0939   30.7875   52.1013 H   0  0  0  0  0  0  0  0  0  0  0  0
   37.2099   29.8749   52.9929 H   0  0  0  0  0  0  0  0  0  0  0  0
  1  2  2  0
  1 10  1  0
  2  3  1  0
  3  4  2  0
  4 17  1  0
  5  4  1  0
  5  6  2  0
  7  6  1  0
  8  7  2  0
  9 10  2  0
  9  8  1  0
 10  5  1  0
 11 16  2  0
 12 13  2  0
 12 11  1  0
 13 14  1  0
 14 15  2  0
 15  1  1  0
 16 15  1  0
 17 18  1  0
 18 19  1  0
 18 20  1  0
 19 20  1  0
  2 21  1  0
  3 22  1  0
  6 23  1  0
  7 24  1  0
  8 25  1  0
  9 26  1  0
 11 27  1  0
 12 28  1  0
 13 29  1  0
 18 30  1  0
 19 31  1  0
 19 32  1  0
 20 33  1  0
 20 34  1  0
M  ISO  8  21  14  22  14  23  14  24  14  25  14  26  14  27  14  28  14
M  ISO  6  29  14  30  13  31  13  32  13  33  13  34  13
M  END
>  <minimizedAffinity>  (1) 
-6.6868906

>  <minimizedRMSD>  (1) 
4.83932018

$$$$
