
     RDKit          3D

 33 35  0  0  0  0  0  0  0  0999 V2000
   37.4900   31.2170   46.1490 C   0  0  0  0  0  0  0  0  0  0  0  0
   36.4120   30.3250   46.2380 C   0  0  0  0  0  0  0  0  0  0  0  0
   35.7280   30.0420   47.3810 C   0  0  0  0  0  0  0  0  0  0  0  0
   36.0750   30.6420   48.5550 C   0  0  0  0  0  0  0  0  0  0  0  0
   37.1060   31.5160   48.5490 C   0  0  0  0  0  0  0  0  0  0  0  0
   37.4470   32.1140   49.7340 C   0  0  0  0  0  0  0  0  0  0  0  0
   38.4740   33.0070   49.8140 C   0  0  0  0  0  0  0  0  0  0  0  0
   39.1760   33.3010   48.6500 C   0  0  0  0  0  0  0  0  0  0  0  0
   38.8010   32.6810   47.4920 C   0  0  0  0  0  0  0  0  0  0  0  0
   37.7950   31.7970   47.3810 C   0  0  0  0  0  0  0  0  0  0  0  0
   40.1700   30.8910   43.8010 C   0  0  0  0  0  0  0  0  0  0  0  0
   39.9050   31.7250   42.7250 C   0  0  0  0  0  0  0  0  0  0  0  0
   38.7330   32.4390   42.8200 C   0  0  0  0  0  0  0  0  0  0  0  0
   37.9830   32.2710   43.9010 N   0  0  0  0  0  0  0  0  0  0  0  0
   38.2010   31.5020   44.9200 C   0  0  0  0  0  0  0  0  0  0  0  0
   39.3310   30.8230   44.8150 N   0  0  0  0  0  0  0  0  0  0  0  0
   38.2340   33.3750   41.8310 C   0  0  0  0  0  0  0  0  0  0  0  0
   38.9730   34.1380   41.1260 O   0  0  0  0  0  0  0  0  0  0  0  0
   36.9090   33.6020   41.4830 O   0  0  0  0  0  0  0  0  0  0  0  0
   35.3640   30.3340   49.6930 O   0  0  0  0  0  0  0  0  0  0  0  0
   35.5610   29.1250   50.3770 C   0  0  0  0  0  0  0  0  0  0  0  0
   35.3570   29.1970   51.7280 F   0  0  0  0  0  0  0  0  0  0  0  0
   34.6150   28.2280   49.8720 F   0  0  0  0  0  0  0  0  0  0  0  0
   36.8540   28.7200   50.0810 F   0  0  0  0  0  0  0  0  0  0  0  0
   36.0951   29.8158   45.3159 H   0  0  0  0  0  0  0  0  0  0  0  0
   34.8926   29.3268   47.3570 H   0  0  0  0  0  0  0  0  0  0  0  0
   36.8782   31.8675   50.6427 H   0  0  0  0  0  0  0  0  0  0  0  0
   38.7395   33.4808   50.7706 H   0  0  0  0  0  0  0  0  0  0  0  0
   40.0126   34.0152   48.6615 H   0  0  0  0  0  0  0  0  0  0  0  0
   39.3661   32.9241   46.5801 H   0  0  0  0  0  0  0  0  0  0  0  0
   41.0863   30.2824   43.8081 H   0  0  0  0  0  0  0  0  0  0  0  0
   40.5808   31.8092   41.8611 H   0  0  0  0  0  0  0  0  0  0  0  0
   36.6874   34.2713   40.7880 H   0  0  0  0  0  0  0  0  0  0  0  0
  1  2  2  0
  1 10  1  0
  2  3  1  0
  3  4  2  0
  4 20  1  0
  5  4  1  0
  5  6  2  0
  6  7  1  0
  8  7  2  0
  9  8  1  0
 10  9  2  0
 10  5  1  0
 11 16  2  0
 12 13  2  0
 12 11  1  0
 13 14  1  0
 14 15  2  0
 15  1  1  0
 16 15  1  0
 17 13  1  0
 18 17  2  0
 19 17  1  0
 20 21  1  0
 21 22  1  0
 23 21  1  0
 24 21  1  0
  2 25  1  0
  3 26  1  0
  6 27  1  0
  7 28  1  0
  8 29  1  0
  9 30  1  0
 11 31  1  0
 12 32  1  0
 19 33  1  0
M  ISO  8  25  14  26  14  27  14  28  14  29  14  30  14  31  14  32  14
M  ISO  1  33   3
M  END
>  <minimizedAffinity>  (1) 
-6.9168458

>  <minimizedRMSD>  (1) 
3.02645612

$$$$
