
     RDKit          3D

 32 34  0  0  0  0  0  0  0  0999 V2000
   36.8550   30.5650   47.2280 C   0  0  0  0  0  0  0  0  0  0  0  0
   35.7530   30.2710   46.4020 C   0  0  0  0  0  0  0  0  0  0  0  0
   34.6010   29.6740   46.8180 C   0  0  0  0  0  0  0  0  0  0  0  0
   34.4450   29.3120   48.1180 C   0  0  0  0  0  0  0  0  0  0  0  0
   35.4610   29.5620   48.9760 C   0  0  0  0  0  0  0  0  0  0  0  0
   35.2920   29.1910   50.2930 C   0  0  0  0  0  0  0  0  0  0  0  0
   36.2720   29.4090   51.2270 C   0  0  0  0  0  0  0  0  0  0  0  0
   37.4400   30.0140   50.8040 C   0  0  0  0  0  0  0  0  0  0  0  0
   37.5620   30.3640   49.4860 C   0  0  0  0  0  0  0  0  0  0  0  0
   36.6270   30.1680   48.5450 C   0  0  0  0  0  0  0  0  0  0  0  0
   39.8700   30.7850   45.3220 C   0  0  0  0  0  0  0  0  0  0  0  0
   40.4620   32.0200   45.6070 C   0  0  0  0  0  0  0  0  0  0  0  0
   39.7790   32.7960   46.4960 C   0  0  0  0  0  0  0  0  0  0  0  0
   38.6470   32.3320   47.0000 N   0  0  0  0  0  0  0  0  0  0  0  0
   38.0630   31.1970   46.7640 C   0  0  0  0  0  0  0  0  0  0  0  0
   38.7270   30.4390   45.8980 N   0  0  0  0  0  0  0  0  0  0  0  0
   40.2720   34.1110   46.8910 C   0  0  0  0  0  0  0  0  0  0  0  0
   40.2370   34.5420   48.0570 O   0  0  0  0  0  0  0  0  0  0  0  0
   33.2690   28.7120   48.5060 O   0  0  0  0  0  0  0  0  0  0  0  0
   32.9200   27.4250   48.0510 C   0  0  0  0  0  0  0  0  0  0  0  0
   33.9430   26.5120   48.1190 F   0  0  0  0  0  0  0  0  0  0  0  0
   31.9200   26.9490   48.8980 F   0  0  0  0  0  0  0  0  0  0  0  0
   32.4530   27.5710   46.7530 F   0  0  0  0  0  0  0  0  0  0  0  0
   35.8280   30.5444   45.3391 H   0  0  0  0  0  0  0  0  0  0  0  0
   33.7924   29.4840   46.0968 H   0  0  0  0  0  0  0  0  0  0  0  0
   34.3517   28.7103   50.6009 H   0  0  0  0  0  0  0  0  0  0  0  0
   36.1331   29.1124   52.2771 H   0  0  0  0  0  0  0  0  0  0  0  0
   38.2572   30.2109   51.5135 H   0  0  0  0  0  0  0  0  0  0  0  0
   38.5014   30.8440   49.1743 H   0  0  0  0  0  0  0  0  0  0  0  0
   40.3560   30.0963   44.6153 H   0  0  0  0  0  0  0  0  0  0  0  0
   41.4085   32.3413   45.1478 H   0  0  0  0  0  0  0  0  0  0  0  0
   40.6997   34.7592   46.1119 H   0  0  0  0  0  0  0  0  0  0  0  0
  1 10  2  0
  2  3  2  0
  2  1  1  0
  3  4  1  0
  4 19  1  0
  4  5  2  0
  5  6  1  0
  6  7  2  0
  8  7  1  0
  9  8  2  0
 10  5  1  0
 10  9  1  0
 11 12  2  0
 11 16  1  0
 12 13  1  0
 13 17  1  0
 13 14  2  0
 15 14  1  0
 15  1  1  0
 16 15  2  0
 17 18  2  0
 20 21  1  0
 20 19  1  0
 20 22  1  0
 23 20  1  0
  2 24  1  0
  3 25  1  0
  6 26  1  0
  7 27  1  0
  8 28  1  0
  9 29  1  0
 11 30  1  0
 12 31  1  0
 17 32  1  0
M  ISO  8  24  14  25  14  26  14  27  14  28  14  29  14  30  14  31  14
M  ISO  1  32   6
M  END
>  <minimizedAffinity>  (1) 
-6.43820429

>  <minimizedRMSD>  (1) 
0.967011154

$$$$
