
     RDKit          3D

 38 40  0  0  0  0  0  0  0  0999 V2000
   36.8470   30.7990   46.0900 C   0  0  0  0  0  0  0  0  0  0  0  0
   35.8260   30.0390   46.6560 C   0  0  0  0  0  0  0  0  0  0  0  0
   35.5210   29.9950   47.9790 C   0  0  0  0  0  0  0  0  0  0  0  0
   36.2420   30.7350   48.8690 C   0  0  0  0  0  0  0  0  0  0  0  0
   37.2390   31.4900   48.3840 C   0  0  0  0  0  0  0  0  0  0  0  0
   37.9720   32.2440   49.2940 C   0  0  0  0  0  0  0  0  0  0  0  0
   39.0050   33.0410   48.8920 C   0  0  0  0  0  0  0  0  0  0  0  0
   39.3110   33.0810   47.5400 C   0  0  0  0  0  0  0  0  0  0  0  0
   38.5680   32.3260   46.6780 C   0  0  0  0  0  0  0  0  0  0  0  0
   37.5450   31.5320   47.0420 C   0  0  0  0  0  0  0  0  0  0  0  0
   36.1030   31.3140   42.6060 C   0  0  0  0  0  0  0  0  0  0  0  0
   37.2790   30.9880   41.9080 C   0  0  0  0  0  0  0  0  0  0  0  0
   38.3510   30.5820   42.6480 C   0  0  0  0  0  0  0  0  0  0  0  0
   38.1750   30.5360   43.9620 N   0  0  0  0  0  0  0  0  0  0  0  0
   37.1360   30.8170   44.6780 C   0  0  0  0  0  0  0  0  0  0  0  0
   36.1010   31.2100   43.9350 N   0  0  0  0  0  0  0  0  0  0  0  0
   39.6080   30.2100   42.0930 N   0  0  0  0  0  0  0  0  0  0  0  0
   40.7350   29.9230   42.8960 C   0  0  0  0  0  0  0  0  0  0  0  0
   40.9420   30.6600   43.9370 N   0  0  0  0  0  0  0  0  0  0  0  0
   41.6090   28.8590   42.5680 N   0  0  0  0  0  0  0  0  0  0  0  0
   41.7020   30.5910   44.6040 H   0  0  0  0  0  0  0  0  0  0  0  0
   37.3890   31.0610   40.5250 O   0  0  0  0  0  0  0  0  0  0  0  0
   35.9050   30.6660   50.1990 O   0  0  0  0  0  0  0  0  0  0  0  0
   36.4220   29.6300   51.0250 C   0  0  0  0  0  0  0  0  0  0  0  0
   37.2370   28.7350   50.4030 F   0  0  0  0  0  0  0  0  0  0  0  0
   37.1950   30.2360   52.0040 F   0  0  0  0  0  0  0  0  0  0  0  0
   35.3210   28.9930   51.5840 F   0  0  0  0  0  0  0  0  0  0  0  0
   35.2172   29.4245   45.9764 H   0  0  0  0  0  0  0  0  0  0  0  0
   34.6930   29.3629   48.3322 H   0  0  0  0  0  0  0  0  0  0  0  0
   37.7136   32.1972   50.3622 H   0  0  0  0  0  0  0  0  0  0  0  0
   39.5781   33.6344   49.6196 H   0  0  0  0  0  0  0  0  0  0  0  0
   40.1353   33.7080   47.1695 H   0  0  0  0  0  0  0  0  0  0  0  0
   38.8245   32.3704   45.6093 H   0  0  0  0  0  0  0  0  0  0  0  0
   35.2039   31.6477   42.0671 H   0  0  0  0  0  0  0  0  0  0  0  0
   39.6995   30.1477   41.0690 H   0  0  0  0  0  0  0  0  0  0  0  0
   42.4264   28.6619   43.1629 H   0  0  0  0  0  0  0  0  0  0  0  0
   41.4276   28.2818   41.7344 H   0  0  0  0  0  0  0  0  0  0  0  0
   38.2413   30.8197   40.0828 H   0  0  0  0  0  0  0  0  0  0  0  0
  1  2  2  0
  1 10  1  0
  2  3  1  0
  3  4  2  0
  4 23  1  0
  5  4  1  0
  5  6  2  0
  7  6  1  0
  8  7  2  0
  9 10  2  0
  9  8  1  0
 10  5  1  0
 11 16  2  0
 12 11  1  0
 12 13  2  0
 13 14  1  0
 14 15  2  0
 15  1  1  0
 16 15  1  0
 17 13  1  0
 17 18  1  0
 18 19  2  0
 19 21  1  0
 20 18  1  0
 22 12  1  0
 23 24  1  0
 24 27  1  0
 24 26  1  0
 25 24  1  0
  2 28  1  0
  3 29  1  0
  6 30  1  0
  7 31  1  0
  8 32  1  0
  9 33  1  0
 11 34  1  0
 17 35  1  0
 20 36  1  0
 20 37  1  0
 22 38  1  0
M  ISO  8  28  14  29  14  30  14  31  14  32  14  33  14  34  14  38   3
M  END
>  <minimizedAffinity>  (1) 
-7.54450893

>  <minimizedRMSD>  (1) 
0.0103917122

$$$$
