
     RDKit          3D

 32 34  0  0  1  0  0  0  0  0999 V2000
   37.1410   30.6670   45.8800 N   0  0  0  0  0  0  0  0  0  0  0  0
   37.7530   31.2790   44.6970 C   0  0  0  0  0  0  0  0  0  0  0  0
   38.4410   32.4620   45.2990 C   0  0  0  0  0  0  0  0  0  0  0  0
   39.0650   31.8740   46.5190 C   0  0  0  0  0  0  0  0  0  0  0  0
   38.2270   30.6640   46.8310 C   0  0  1  0  0  0  0  0  0  0  0  0
   35.8110   30.2090   45.9940 C   0  0  0  0  0  0  0  0  0  0  0  0
   35.1670   29.4760   44.9870 C   0  0  0  0  0  0  0  0  0  0  0  0
   33.8440   29.0490   45.1610 C   0  0  0  0  0  0  0  0  0  0  0  0
   33.2370   29.3770   46.3250 N   0  0  0  0  0  0  0  0  0  0  0  0
   33.8640   30.0850   47.2930 C   0  0  0  0  0  0  0  0  0  0  0  0
   35.1370   30.4840   47.1020 N   0  0  0  0  0  0  0  0  0  0  0  0
   37.7860   30.6660   48.2510 C   0  0  0  0  0  0  0  0  0  0  0  0
   37.4940   31.8790   48.8830 C   0  0  0  0  0  0  0  0  0  0  0  0
   37.0620   32.0630   50.1800 C   0  0  0  0  0  0  0  0  0  0  0  0
   36.9030   30.9170   50.9310 C   0  0  0  0  0  0  0  0  0  0  0  0
   37.1750   29.6880   50.3660 C   0  0  0  0  0  0  0  0  0  0  0  0
   37.6050   29.5680   49.0610 C   0  0  0  0  0  0  0  0  0  0  0  0
   36.9925   31.5859   43.9639 H   0  0  0  0  0  0  0  0  0  0  0  0
   38.4207   30.6071   44.1378 H   0  0  0  0  0  0  0  0  0  0  0  0
   39.2026   32.8699   44.6182 H   0  0  0  0  0  0  0  0  0  0  0  0
   37.7672   33.3056   45.5096 H   0  0  0  0  0  0  0  0  0  0  0  0
   40.1071   31.5834   46.3201 H   0  0  0  0  0  0  0  0  0  0  0  0
   39.0947   32.5869   47.3562 H   0  0  0  0  0  0  0  0  0  0  0  0
   38.7967   29.7287   46.7281 H   0  0  0  0  0  0  0  0  0  0  0  0
   35.7026   29.2353   44.0568 H   0  0  0  0  0  0  0  0  0  0  0  0
   33.3210   28.4717   44.3844 H   0  0  0  0  0  0  0  0  0  0  0  0
   33.3392   30.3326   48.2275 H   0  0  0  0  0  0  0  0  0  0  0  0
   37.6234   32.7884   48.2778 H   0  0  0  0  0  0  0  0  0  0  0  0
   36.8568   33.0627   50.5904 H   0  0  0  0  0  0  0  0  0  0  0  0
   36.5613   30.9826   51.9745 H   0  0  0  0  0  0  0  0  0  0  0  0
   37.0454   28.7795   50.9726 H   0  0  0  0  0  0  0  0  0  0  0  0
   37.8092   28.5659   48.6559 H   0  0  0  0  0  0  0  0  0  0  0  0
  1  6  1  0
  1  5  1  0
  2  3  1  0
  2  1  1  0
  3  4  1  0
  4  5  1  0
  5 12  1  0
  6 11  2  0
  7  8  2  0
  7  6  1  0
  8  9  1  0
  9 10  2  0
 11 10  1  0
 12 13  2  0
 12 17  1  0
 13 14  1  0
 14 15  2  0
 16 15  1  0
 17 16  2  0
  2 18  1  0
  2 19  1  0
  3 20  1  0
  3 21  1  0
  4 22  1  0
  4 23  1  0
  5 24  1  1
  7 25  1  0
  8 26  1  0
 10 27  1  0
 13 28  1  0
 14 29  1  0
 15 30  1  0
 16 31  1  0
 17 32  1  0
M  ISO  8  18  13  19  13  20  13  21  13  22  13  23  13  24  13  25  14
M  ISO  7  26  14  27  14  28  14  29  14  30  14  31  14  32  14
M  END
>  <minimizedAffinity>  (1) 
-4.75090408

>  <minimizedRMSD>  (1) 
3.85335231

$$$$
