
     RDKit          3D

 31 33  0  0  1  0  0  0  0  0999 V2000
   37.0050   30.6320   45.7660 N   0  0  0  0  0  0  0  0  0  0  0  0
   37.5790   31.2200   44.5520 C   0  0  0  0  0  0  0  0  0  0  0  0
   38.1980   32.4690   45.0920 C   0  0  0  0  0  0  0  0  0  0  0  0
   38.8710   31.9720   46.3250 C   0  0  0  0  0  0  0  0  0  0  0  0
   38.0960   30.7240   46.6940 C   0  0  1  0  0  0  0  0  0  0  0  0
   35.6760   30.1160   45.8990 C   0  0  0  0  0  0  0  0  0  0  0  0
   35.0590   29.3500   44.9020 C   0  0  0  0  0  0  0  0  0  0  0  0
   33.7550   28.8890   45.1110 C   0  0  0  0  0  0  0  0  0  0  0  0
   33.1580   29.2160   46.2790 N   0  0  0  0  0  0  0  0  0  0  0  0
   33.7730   29.9580   47.2300 C   0  0  0  0  0  0  0  0  0  0  0  0
   35.0300   30.3990   47.0210 N   0  0  0  0  0  0  0  0  0  0  0  0
   37.6980   30.7470   48.1230 C   0  0  0  0  0  0  0  0  0  0  0  0
   37.6240   29.6540   48.9580 C   0  0  0  0  0  0  0  0  0  0  0  0
   37.2540   29.7310   50.2820 C   0  0  0  0  0  0  0  0  0  0  0  0
   36.9300   30.9480   50.8460 C   0  0  0  0  0  0  0  0  0  0  0  0
   37.0110   32.0270   49.9920 C   0  0  0  0  0  0  0  0  0  0  0  0
   37.3710   31.9250   48.7200 N   0  0  0  0  0  0  0  0  0  0  0  0
   36.8009   31.4460   43.8080 H   0  0  0  0  0  0  0  0  0  0  0  0
   38.2841   30.5613   44.0239 H   0  0  0  0  0  0  0  0  0  0  0  0
   38.9244   32.8939   44.3836 H   0  0  0  0  0  0  0  0  0  0  0  0
   37.4763   33.2785   45.2758 H   0  0  0  0  0  0  0  0  0  0  0  0
   39.9253   31.7313   46.1239 H   0  0  0  0  0  0  0  0  0  0  0  0
   38.8761   32.7190   47.1325 H   0  0  0  0  0  0  0  0  0  0  0  0
   38.7042   29.8115   46.6081 H   0  0  0  0  0  0  0  0  0  0  0  0
   35.5917   29.1145   43.9689 H   0  0  0  0  0  0  0  0  0  0  0  0
   33.2352   28.2835   44.3539 H   0  0  0  0  0  0  0  0  0  0  0  0
   33.2504   30.1996   48.1673 H   0  0  0  0  0  0  0  0  0  0  0  0
   37.8741   28.6658   48.5445 H   0  0  0  0  0  0  0  0  0  0  0  0
   37.2165   28.8174   50.8935 H   0  0  0  0  0  0  0  0  0  0  0  0
   36.6293   31.0496   51.8992 H   0  0  0  0  0  0  0  0  0  0  0  0
   36.7643   33.0239   50.3861 H   0  0  0  0  0  0  0  0  0  0  0  0
  1  6  1  0
  1  5  1  0
  2  3  1  0
  2  1  1  0
  3  4  1  0
  4  5  1  0
  5 12  1  0
  6 11  2  0
  7  8  2  0
  7  6  1  0
  8  9  1  0
  9 10  2  0
 11 10  1  0
 12 17  1  0
 12 13  2  0
 13 14  1  0
 14 15  2  0
 16 15  1  0
 17 16  2  0
  2 18  1  0
  2 19  1  0
  3 20  1  0
  3 21  1  0
  4 22  1  0
  4 23  1  0
  5 24  1  1
  7 25  1  0
  8 26  1  0
 10 27  1  0
 13 28  1  0
 14 29  1  0
 15 30  1  0
 16 31  1  0
M  ISO  8  18  13  19  13  20  13  21  13  22  13  23  13  24  13  25  14
M  ISO  6  26  14  27  14  28  14  29  14  30  14  31  14
M  END
>  <minimizedAffinity>  (1) 
-4.40613365

>  <minimizedRMSD>  (1) 
3.91512823

$$$$
