
     RDKit          3D

 36 38  0  0  1  0  0  0  0  0999 V2000
   36.5290   30.5610   46.7120 N   0  0  0  0  0  0  0  0  0  0  0  0
   37.8630   30.7490   46.1790 C   0  0  0  0  0  0  0  0  0  0  0  0
   38.2190   32.1100   46.7200 C   0  0  0  0  0  0  0  0  0  0  0  0
   37.8520   31.9300   48.1620 C   0  0  0  0  0  0  0  0  0  0  0  0
   36.7730   30.8730   48.0830 C   0  0  2  0  0  0  0  0  0  0  0  0
   35.3510   30.1720   46.0020 C   0  0  0  0  0  0  0  0  0  0  0  0
   35.4170   29.7330   44.6700 C   0  0  0  0  0  0  0  0  0  0  0  0
   34.1910   29.3690   44.0620 C   0  0  0  0  0  0  0  0  0  0  0  0
   33.0350   29.4650   44.7970 N   0  0  0  0  0  0  0  0  0  0  0  0
   33.0340   29.8960   46.0770 C   0  0  0  0  0  0  0  0  0  0  0  0
   34.2070   30.2490   46.6710 N   0  0  0  0  0  0  0  0  0  0  0  0
   37.0880   29.7200   48.8970 N   0  0  0  0  0  0  0  0  0  0  0  0
   37.8260   30.0760   50.0870 C   0  0  0  0  0  0  0  0  0  0  0  0
   37.4610   29.1870   51.2580 C   0  0  0  0  0  0  0  0  0  0  0  0
   36.1050   29.5210   51.6470 N   0  0  0  0  0  0  0  0  0  0  0  0
   35.2510   29.4250   50.4950 C   0  0  0  0  0  0  0  0  0  0  0  0
   35.9640   28.9290   49.2720 C   0  0  0  0  0  0  0  0  0  0  0  0
   38.5547   29.9773   46.5479 H   0  0  0  0  0  0  0  0  0  0  0  0
   37.9206   30.6750   45.0830 H   0  0  0  0  0  0  0  0  0  0  0  0
   39.2899   32.3294   46.5970 H   0  0  0  0  0  0  0  0  0  0  0  0
   37.7165   32.9504   46.2187 H   0  0  0  0  0  0  0  0  0  0  0  0
   38.7116   31.5801   48.7524 H   0  0  0  0  0  0  0  0  0  0  0  0
   37.5282   32.8579   48.6561 H   0  0  0  0  0  0  0  0  0  0  0  0
   35.8368   31.2635   48.5086 H   0  0  0  0  0  0  0  0  0  0  0  0
   36.3717   29.6748   44.1268 H   0  0  0  0  0  0  0  0  0  0  0  0
   34.1651   29.0160   43.0205 H   0  0  0  0  0  0  0  0  0  0  0  0
   32.0895   29.9615   46.6371 H   0  0  0  0  0  0  0  0  0  0  0  0
   38.9021   29.9737   49.8833 H   0  0  0  0  0  0  0  0  0  0  0  0
   37.5723   31.1133   50.3511 H   0  0  0  0  0  0  0  0  0  0  0  0
   37.5174   28.1297   50.9598 H   0  0  0  0  0  0  0  0  0  0  0  0
   38.1560   29.3425   52.0963 H   0  0  0  0  0  0  0  0  0  0  0  0
   35.7820   28.8645   52.3720 H   0  0  0  0  0  0  0  0  0  0  0  0
   34.4288   28.7317   50.7259 H   0  0  0  0  0  0  0  0  0  0  0  0
   34.8859   30.4386   50.2727 H   0  0  0  0  0  0  0  0  0  0  0  0
   35.2508   28.9220   48.4345 H   0  0  0  0  0  0  0  0  0  0  0  0
   36.3459   27.9254   49.5107 H   0  0  0  0  0  0  0  0  0  0  0  0
  1  5  1  0
  2  1  1  0
  2  3  1  0
  3  4  1  0
  5  4  1  0
  5 12  1  0
  6 11  1  0
  6  1  1  0
  7  6  2  0
  8  7  1  0
  8  9  2  0
  9 10  1  0
 10 11  2  0
 12 17  1  0
 12 13  1  0
 13 14  1  0
 14 15  1  0
 16 15  1  0
 17 16  1  0
  2 18  1  0
  2 19  1  0
  3 20  1  0
  3 21  1  0
  4 22  1  0
  4 23  1  0
  5 24  1  1
  7 25  1  0
  8 26  1  0
 10 27  1  0
 13 28  1  0
 13 29  1  0
 14 30  1  0
 14 31  1  0
 15 32  1  0
 16 33  1  0
 16 34  1  0
 17 35  1  0
 17 36  1  0
M  ISO  8  18  13  19  13  20  13  21  13  22  13  23  13  24  13  25  14
M  ISO  8  26  14  27  14  28  13  29  13  30  13  31  13  32   5  33  13
M  ISO  3  34  13  35  13  36  13
M  END
>  <minimizedAffinity>  (1) 
-4.36529398

>  <minimizedRMSD>  (1) 
3.00887537

$$$$
