
     RDKit          3D

 43 45  0  0  1  0  0  0  0  0999 V2000
   38.1090   31.6090   46.1770 N   0  0  0  0  0  0  0  0  0  0  0  0
   39.5130   31.5120   46.4320 C   0  0  0  0  0  0  0  0  0  0  0  0
   39.7940   32.7900   47.1720 C   0  0  0  0  0  0  0  0  0  0  0  0
   38.6140   32.7990   48.1500 C   0  0  0  0  0  0  0  0  0  0  0  0
   37.6480   31.9220   47.4860 C   0  0  2  0  0  0  0  0  0  0  0  0
   37.2210   30.8300   48.3010 N   0  0  0  0  0  0  0  0  0  0  0  0
   38.1490   30.6300   49.3370 C   0  0  0  0  0  0  0  0  0  0  0  0
   37.6670   29.5230   50.2320 C   0  0  0  0  0  0  0  0  0  0  0  0
   36.4140   29.9910   50.8920 C   0  0  0  0  0  0  0  0  0  0  0  0
   35.3880   30.4440   49.9280 C   0  0  0  0  0  0  0  0  0  0  0  0
   35.8620   30.6690   48.5260 C   0  0  2  0  0  0  0  0  0  0  0  0
   35.2310   29.6750   47.5870 C   0  0  0  0  0  0  0  0  0  0  0  0
   34.5200   28.5340   48.2970 C   0  0  0  0  0  0  0  0  0  0  0  0
   37.4290   31.4330   44.9510 C   0  0  0  0  0  0  0  0  0  0  0  0
   36.8430   30.2030   44.6020 C   0  0  0  0  0  0  0  0  0  0  0  0
   36.1610   30.1200   43.3600 C   0  0  0  0  0  0  0  0  0  0  0  0
   36.1120   31.2350   42.5730 N   0  0  0  0  0  0  0  0  0  0  0  0
   36.6900   32.4060   42.9440 C   0  0  0  0  0  0  0  0  0  0  0  0
   37.3460   32.4990   44.1320 N   0  0  0  0  0  0  0  0  0  0  0  0
   39.7454   30.6335   47.0519 H   0  0  0  0  0  0  0  0  0  0  0  0
   40.1182   31.3882   45.5218 H   0  0  0  0  0  0  0  0  0  0  0  0
   40.7594   32.7529   47.6980 H   0  0  0  0  0  0  0  0  0  0  0  0
   39.8747   33.6842   46.5365 H   0  0  0  0  0  0  0  0  0  0  0  0
   38.9073   32.3972   49.1311 H   0  0  0  0  0  0  0  0  0  0  0  0
   38.2230   33.8060   48.3574 H   0  0  0  0  0  0  0  0  0  0  0  0
   36.6979   32.4571   47.3414 H   0  0  0  0  0  0  0  0  0  0  0  0
   39.1245   30.3569   48.9083 H   0  0  0  0  0  0  0  0  0  0  0  0
   38.2527   31.5562   49.9213 H   0  0  0  0  0  0  0  0  0  0  0  0
   37.4631   28.6209   49.6365 H   0  0  0  0  0  0  0  0  0  0  0  0
   38.4302   29.2737   50.9839 H   0  0  0  0  0  0  0  0  0  0  0  0
   35.9981   29.1616   51.4828 H   0  0  0  0  0  0  0  0  0  0  0  0
   36.6764   30.8531   51.5228 H   0  0  0  0  0  0  0  0  0  0  0  0
   34.5948   29.6825   49.8974 H   0  0  0  0  0  0  0  0  0  0  0  0
   35.0528   31.4271   50.2902 H   0  0  0  0  0  0  0  0  0  0  0  0
   35.5044   31.6855   48.3052 H   0  0  0  0  0  0  0  0  0  0  0  0
   36.0199   29.2499   46.9490 H   0  0  0  0  0  0  0  0  0  0  0  0
   34.4705   30.2175   47.0062 H   0  0  0  0  0  0  0  0  0  0  0  0
   34.6047   28.6699   49.3853 H   0  0  0  0  0  0  0  0  0  0  0  0
   33.4582   28.5283   48.0097 H   0  0  0  0  0  0  0  0  0  0  0  0
   34.9827   27.5783   48.0097 H   0  0  0  0  0  0  0  0  0  0  0  0
   36.9111   29.3324   45.2708 H   0  0  0  0  0  0  0  0  0  0  0  0
   35.6843   29.1819   43.0397 H   0  0  0  0  0  0  0  0  0  0  0  0
   36.6277   33.2822   42.2819 H   0  0  0  0  0  0  0  0  0  0  0  0
  1  2  1  0
  1  5  1  0
  2  3  1  0
  3  4  1  0
  5  4  1  0
  5  6  1  0
  6 11  1  0
  6  7  1  0
  7  8  1  0
  8  9  1  0
 10  9  1  0
 11 10  1  0
 12 13  1  0
 12 11  1  0
 14  1  1  0
 15 14  2  0
 16 15  1  0
 17 18  1  0
 17 16  2  0
 18 19  2  0
 19 14  1  0
  2 20  1  0
  2 21  1  0
  3 22  1  0
  3 23  1  0
  4 24  1  0
  4 25  1  0
  5 26  1  6
  7 27  1  0
  7 28  1  0
  8 29  1  0
  8 30  1  0
  9 31  1  0
  9 32  1  0
 10 33  1  0
 10 34  1  0
 11 35  1  6
 12 36  1  0
 12 37  1  0
 13 38  1  0
 13 39  1  0
 13 40  1  0
 15 41  1  0
 16 42  1  0
 18 43  1  0
M  ISO  8  20  13  21  13  22  13  23  13  24  13  25  13  26  13  27  13
M  ISO  8  28  13  29  13  30  13  31  13  32  13  33  13  34  13  35  13
M  ISO  8  36   8  37   8  38   8  39   8  40   8  41  14  42  14  43  14
M  END
>  <minimizedAffinity>  (1) 
-5.19334984

>  <minimizedRMSD>  (1) 
2.24957061

$$$$
