
     RDKit          3D

 27 29  0  0  0  0  0  0  0  0999 V2000
   35.5610   28.9550   50.3390 C   0  0  0  0  0  0  0  0  0  0  0  0
   36.1000   30.1200   49.7890 C   0  0  0  0  0  0  0  0  0  0  0  0
   35.6260   30.4960   48.5310 C   0  0  0  0  0  0  0  0  0  0  0  0
   34.6790   29.7350   47.8990 N   0  0  0  0  0  0  0  0  0  0  0  0
   34.1930   28.6030   48.4970 C   0  0  0  0  0  0  0  0  0  0  0  0
   34.6440   28.2340   49.7080 N   0  0  0  0  0  0  0  0  0  0  0  0
   33.2120   27.8690   47.7750 N   0  0  0  0  0  0  0  0  0  0  0  0
   33.4240   27.2940   46.5970 C   0  0  0  0  0  0  0  0  0  0  0  0
   32.2900   26.6900   46.2080 N   0  0  0  0  0  0  0  0  0  0  0  0
   31.3290   26.8840   47.1570 C   0  0  0  0  0  0  0  0  0  0  0  0
   29.9960   26.5470   47.3780 C   0  0  0  0  0  0  0  0  0  0  0  0
   29.4780   25.8630   46.4580 O   0  0  0  0  0  0  0  0  0  0  0  0
   29.3560   26.9320   48.4780 N   0  0  0  0  0  0  0  0  0  0  0  0
   29.9690   27.6600   49.4170 C   0  0  0  0  0  0  0  0  0  0  0  0
   29.2820   28.0670   50.5860 N   0  0  0  0  0  0  0  0  0  0  0  0
   31.2690   28.0260   49.2730 N   0  0  0  0  0  0  0  0  0  0  0  0
   31.9400   27.6390   48.1520 C   0  0  0  0  0  0  0  0  0  0  0  0
   37.1310   30.9620   50.4580 C   0  0  0  0  0  0  0  0  0  0  0  0
   38.3670   30.8770   49.8860 F   0  0  0  0  0  0  0  0  0  0  0  0
   37.2750   30.6130   51.7690 F   0  0  0  0  0  0  0  0  0  0  0  0
   36.7510   32.2920   50.3830 F   0  0  0  0  0  0  0  0  0  0  0  0
   35.9087   28.6243   51.3288 H   0  0  0  0  0  0  0  0  0  0  0  0
   36.0136   31.4045   48.0468 H   0  0  0  0  0  0  0  0  0  0  0  0
   34.3693   27.3099   46.0348 H   0  0  0  0  0  0  0  0  0  0  0  0
   28.3700   26.6645   48.6091 H   0  0  0  0  0  0  0  0  0  0  0  0
   29.7683   28.6276   51.3003 H   0  0  0  0  0  0  0  0  0  0  0  0
   28.2959   27.8025   50.7223 H   0  0  0  0  0  0  0  0  0  0  0  0
  2  1  2  0
  2 18  1  0
  3  2  1  0
  4  5  1  0
  4  3  2  0
  5  6  2  0
  6  1  1  0
  7 17  1  0
  7  5  1  0
  8  7  1  0
  9  8  2  0
  9 10  1  0
 10 11  1  0
 10 17  2  0
 11 13  1  0
 12 11  2  0
 13 14  1  0
 14 15  1  0
 16 14  2  0
 17 16  1  0
 18 20  1  0
 19 18  1  0
 21 18  1  0
  1 22  1  0
  3 23  1  0
  8 24  1  0
 13 25  1  0
 15 26  1  0
 15 27  1  0
M  ISO  4  22  14  23  14  24  14  25   9
M  END
>  <minimizedAffinity>  (1) 
-6.46616077

>  <minimizedRMSD>  (1) 
0.822656631

$$$$
