
     RDKit          3D

 29 30  0  0  0  0  0  0  0  0999 V2000
   35.4600   29.0910   50.3770 C   0  0  0  0  0  0  0  0  0  0  0  0
   36.1430   30.1780   49.7820 C   0  0  0  0  0  0  0  0  0  0  0  0
   35.8080   30.4830   48.4650 C   0  0  0  0  0  0  0  0  0  0  0  0
   34.8590   29.7440   47.8050 N   0  0  0  0  0  0  0  0  0  0  0  0
   34.2370   28.7050   48.4430 C   0  0  0  0  0  0  0  0  0  0  0  0
   34.5470   28.3980   49.7100 N   0  0  0  0  0  0  0  0  0  0  0  0
   33.2020   27.9000   47.7240 C   0  0  0  0  0  0  0  0  0  0  0  0
   32.0030   27.6820   48.5840 C   0  0  0  0  0  0  0  0  0  0  0  0
   31.0900   26.6670   47.9310 C   0  0  0  0  0  0  0  0  0  0  0  0
   31.8430   25.3650   47.7380 C   0  0  0  0  0  0  0  0  0  0  0  0
   32.9020   25.6450   46.7010 C   0  0  0  0  0  0  0  0  0  0  0  0
   33.8770   26.6260   47.2890 C   0  0  0  0  0  0  0  0  0  0  0  0
   37.1750   30.9880   50.4840 C   0  0  0  0  0  0  0  0  0  0  0  0
   38.4220   30.8770   49.9340 F   0  0  0  0  0  0  0  0  0  0  0  0
   37.2940   30.6130   51.7970 F   0  0  0  0  0  0  0  0  0  0  0  0
   36.8220   32.3270   50.4300 F   0  0  0  0  0  0  0  0  0  0  0  0
   35.6915   28.8145   51.4162 H   0  0  0  0  0  0  0  0  0  0  0  0
   36.3059   31.3192   47.9523 H   0  0  0  0  0  0  0  0  0  0  0  0
   32.8140   28.4233   46.8377 H   0  0  0  0  0  0  0  0  0  0  0  0
   32.3212   27.3087   49.5686 H   0  0  0  0  0  0  0  0  0  0  0  0
   31.4639   28.6327   48.7084 H   0  0  0  0  0  0  0  0  0  0  0  0
   30.2146   26.4931   48.5740 H   0  0  0  0  0  0  0  0  0  0  0  0
   30.7559   27.0472   46.9544 H   0  0  0  0  0  0  0  0  0  0  0  0
   32.3083   25.0492   48.6834 H   0  0  0  0  0  0  0  0  0  0  0  0
   31.1708   24.5552   47.4180 H   0  0  0  0  0  0  0  0  0  0  0  0
   32.4386   26.0732   45.7999 H   0  0  0  0  0  0  0  0  0  0  0  0
   33.4174   24.7150   46.4191 H   0  0  0  0  0  0  0  0  0  0  0  0
   34.3619   26.1649   48.1621 H   0  0  0  0  0  0  0  0  0  0  0  0
   34.6138   26.8797   46.5127 H   0  0  0  0  0  0  0  0  0  0  0  0
  2  1  2  0
  2 13  1  0
  3  2  1  0
  4  5  1  0
  4  3  2  0
  5  6  2  0
  6  1  1  0
  7  5  1  0
  7  8  1  0
  9  8  1  0
 10  9  1  0
 11 12  1  0
 11 10  1  0
 12  7  1  0
 13 15  1  0
 14 13  1  0
 16 13  1  0
  1 17  1  0
  3 18  1  0
  7 19  1  0
  8 20  1  0
  8 21  1  0
  9 22  1  0
  9 23  1  0
 10 24  1  0
 10 25  1  0
 11 26  1  0
 11 27  1  0
 12 28  1  0
 12 29  1  0
M  ISO  8  17  14  18  14  19  13  20  13  21  13  22  13  23  13  24  13
M  ISO  5  25  13  26  13  27  13  28  13  29  13
M  END
>  <minimizedAffinity>  (1) 
-5.34784937

>  <minimizedRMSD>  (1) 
0.518714964

$$$$
