
     RDKit          3D

 25 26  0  0  0  0  0  0  0  0999 V2000
   35.5800   29.2800   50.5000 C   0  0  0  0  0  0  0  0  0  0  0  0
   36.2670   30.1850   49.6840 C   0  0  0  0  0  0  0  0  0  0  0  0
   35.9150   30.2130   48.3210 C   0  0  0  0  0  0  0  0  0  0  0  0
   34.9350   29.3640   47.8790 N   0  0  0  0  0  0  0  0  0  0  0  0
   34.3020   28.5040   48.7180 C   0  0  0  0  0  0  0  0  0  0  0  0
   34.6360   28.4810   50.0090 N   0  0  0  0  0  0  0  0  0  0  0  0
   33.3110   27.6760   48.1570 N   0  0  0  0  0  0  0  0  0  0  0  0
   33.5410   26.7150   47.0930 C   0  0  0  0  0  0  0  0  0  0  0  0
   32.6350   25.5750   47.5110 C   0  0  0  0  0  0  0  0  0  0  0  0
   31.4020   26.3330   47.9630 C   0  0  0  0  0  0  0  0  0  0  0  0
   31.9140   27.6450   48.5390 C   0  0  0  0  0  0  0  0  0  0  0  0
   37.3290   31.1080   50.1570 C   0  0  0  0  0  0  0  0  0  0  0  0
   38.4120   31.1860   49.3450 F   0  0  0  0  0  0  0  0  0  0  0  0
   37.7730   30.7370   51.4150 F   0  0  0  0  0  0  0  0  0  0  0  0
   36.8020   32.4070   50.2660 F   0  0  0  0  0  0  0  0  0  0  0  0
   35.8255   29.2277   51.5710 H   0  0  0  0  0  0  0  0  0  0  0  0
   36.4164   30.9022   47.6256 H   0  0  0  0  0  0  0  0  0  0  0  0
   34.5940   26.3988   47.0584 H   0  0  0  0  0  0  0  0  0  0  0  0
   33.3339   27.1048   46.0855 H   0  0  0  0  0  0  0  0  0  0  0  0
   32.4110   24.9070   46.6663 H   0  0  0  0  0  0  0  0  0  0  0  0
   33.0650   24.9126   48.2767 H   0  0  0  0  0  0  0  0  0  0  0  0
   30.7344   26.5232   47.1097 H   0  0  0  0  0  0  0  0  0  0  0  0
   30.8234   25.7623   48.7043 H   0  0  0  0  0  0  0  0  0  0  0  0
   31.8079   27.6589   49.6338 H   0  0  0  0  0  0  0  0  0  0  0  0
   31.3548   28.5164   48.1676 H   0  0  0  0  0  0  0  0  0  0  0  0
  2 12  1  0
  2  1  2  0
  3  2  1  0
  4  3  2  0
  4  5  1  0
  5  6  2  0
  6  1  1  0
  7 11  1  0
  7  5  1  0
  8  9  1  0
  8  7  1  0
  9 10  1  0
 10 11  1  0
 12 15  1  0
 12 14  1  0
 13 12  1  0
  1 16  1  0
  3 17  1  0
  8 18  1  0
  8 19  1  0
  9 20  1  0
  9 21  1  0
 10 22  1  0
 10 23  1  0
 11 24  1  0
 11 25  1  0
M  ISO  8  16  14  17  14  18  13  19  13  20  13  21  13  22  13  23  13
M  ISO  2  24  13  25  13
M  END
>  <minimizedAffinity>  (1) 
-5.05071068

>  <minimizedRMSD>  (1) 
0.9216851

$$$$
