
     RDKit          3D

 25 25  0  0  0  0  0  0  0  0999 V2000
   35.4080   29.0800   50.4360 C   0  0  0  0  0  0  0  0  0  0  0  0
   36.2120   30.0620   49.8180 C   0  0  0  0  0  0  0  0  0  0  0  0
   36.0280   30.2650   48.4480 C   0  0  0  0  0  0  0  0  0  0  0  0
   35.0940   29.5210   47.7790 N   0  0  0  0  0  0  0  0  0  0  0  0
   34.3460   28.5920   48.4170 C   0  0  0  0  0  0  0  0  0  0  0  0
   34.5130   28.3870   49.7270 N   0  0  0  0  0  0  0  0  0  0  0  0
   37.2280   30.8720   50.5470 C   0  0  0  0  0  0  0  0  0  0  0  0
   38.4840   30.7560   50.0580 F   0  0  0  0  0  0  0  0  0  0  0  0
   37.2750   30.5290   51.8780 F   0  0  0  0  0  0  0  0  0  0  0  0
   36.8680   32.2240   50.4720 F   0  0  0  0  0  0  0  0  0  0  0  0
   33.3240   27.7570   47.7510 C   0  0  0  0  0  0  0  0  0  0  0  0
   33.7890   26.3420   47.5160 C   0  0  0  0  0  0  0  0  0  0  0  0
   33.0650   28.3830   46.3860 C   0  0  0  0  0  0  0  0  0  0  0  0
   32.0590   27.7180   48.5800 C   0  0  0  0  0  0  0  0  0  0  0  0
   35.5197   28.8835   51.5125 H   0  0  0  0  0  0  0  0  0  0  0  0
   36.6279   31.0154   47.9122 H   0  0  0  0  0  0  0  0  0  0  0  0
   33.9525   25.8444   48.4833 H   0  0  0  0  0  0  0  0  0  0  0  0
   33.0236   25.7943   46.9466 H   0  0  0  0  0  0  0  0  0  0  0  0
   34.7301   26.3551   46.9466 H   0  0  0  0  0  0  0  0  0  0  0  0
   32.6475   29.3920   46.5186 H   0  0  0  0  0  0  0  0  0  0  0  0
   34.0102   28.4478   45.8270 H   0  0  0  0  0  0  0  0  0  0  0  0
   32.3503   27.7611   45.8270 H   0  0  0  0  0  0  0  0  0  0  0  0
   32.3204   27.7261   49.6485 H   0  0  0  0  0  0  0  0  0  0  0  0
   31.4407   28.5975   48.3471 H   0  0  0  0  0  0  0  0  0  0  0  0
   31.4961   26.8021   48.3471 H   0  0  0  0  0  0  0  0  0  0  0  0
  2  1  2  0
  2  7  1  0
  3  2  1  0
  4  5  1  0
  4  3  2  0
  5  6  2  0
  6  1  1  0
  7  9  1  0
  8  7  1  0
 10  7  1  0
 11  5  1  0
 11 14  1  0
 12 11  1  0
 13 11  1  0
  1 15  1  0
  3 16  1  0
 12 17  1  0
 12 18  1  0
 12 19  1  0
 13 20  1  0
 13 21  1  0
 13 22  1  0
 14 23  1  0
 14 24  1  0
 14 25  1  0
M  ISO  8  15  14  16  14  17   8  18   8  19   8  20   8  21   8  22   8
M  ISO  3  23   8  24   8  25   8
M  END
>  <minimizedAffinity>  (1) 
-4.99823332

>  <minimizedRMSD>  (1) 
0.354052603

$$$$
