
     RDKit          3D

 20 21  0  0  0  0  0  0  0  0999 V2000
   35.3800   29.1260   50.3730 C   0  0  0  0  0  0  0  0  0  0  0  0
   36.1380   30.1630   49.7820 C   0  0  0  0  0  0  0  0  0  0  0  0
   35.8000   30.5190   48.4730 C   0  0  0  0  0  0  0  0  0  0  0  0
   34.7790   29.8730   47.8270 N   0  0  0  0  0  0  0  0  0  0  0  0
   34.0860   28.8800   48.4560 C   0  0  0  0  0  0  0  0  0  0  0  0
   34.3920   28.5210   49.7110 N   0  0  0  0  0  0  0  0  0  0  0  0
   32.9910   28.1630   47.8090 C   0  0  0  0  0  0  0  0  0  0  0  0
   31.9590   27.6190   48.5550 C   0  0  0  0  0  0  0  0  0  0  0  0
   31.0860   27.0110   47.6500 C   0  0  0  0  0  0  0  0  0  0  0  0
   31.6530   27.2300   46.3910 C   0  0  0  0  0  0  0  0  0  0  0  0
   32.7800   27.9170   46.5340 O   0  0  0  0  0  0  0  0  0  0  0  0
   37.2390   30.8590   50.4770 C   0  0  0  0  0  0  0  0  0  0  0  0
   38.4770   30.5870   49.9700 F   0  0  0  0  0  0  0  0  0  0  0  0
   37.2720   30.5600   51.8140 F   0  0  0  0  0  0  0  0  0  0  0  0
   37.0480   32.2430   50.3500 F   0  0  0  0  0  0  0  0  0  0  0  0
   35.6099   28.8110   51.4015 H   0  0  0  0  0  0  0  0  0  0  0  0
   36.3547   31.3190   47.9609 H   0  0  0  0  0  0  0  0  0  0  0  0
   31.8482   27.6581   49.6487 H   0  0  0  0  0  0  0  0  0  0  0  0
   30.1530   26.4751   47.8787 H   0  0  0  0  0  0  0  0  0  0  0  0
   31.2322   26.8875   45.4341 H   0  0  0  0  0  0  0  0  0  0  0  0
  2  1  2  0
  2 12  1  0
  3  2  1  0
  4  5  1  0
  4  3  2  0
  5  6  2  0
  6  1  1  0
  7  5  1  0
  7  8  2  0
  9  8  1  0
 10 11  1  0
 10  9  2  0
 11  7  1  0
 12 14  1  0
 13 12  1  0
 15 12  1  0
  1 16  1  0
  3 17  1  0
  8 18  1  0
  9 19  1  0
 10 20  1  0
M  ISO  5  16  14  17  14  18  14  19  14  20  14
M  END
>  <minimizedAffinity>  (1) 
-4.82135105

>  <minimizedRMSD>  (1) 
0.624325573

$$$$
