
     RDKit          3D

 44 47  0  0  0  0  0  0  0  0999 V2000
   38.3670   32.4290   44.8890 C   0  0  0  0  0  0  0  0  0  0  0  0
   38.8550   31.7780   43.6460 C   0  0  0  0  0  0  0  0  0  0  0  0
   39.4640   32.5630   42.6290 C   0  0  0  0  0  0  0  0  0  0  0  0
   39.8440   31.2740   41.3780 S   0  0  0  0  0  0  0  0  0  0  0  0
   39.1120   29.9140   42.4590 C   0  0  0  0  0  0  0  0  0  0  0  0
   38.7840   30.5050   43.3560 N   0  0  0  0  0  0  0  0  0  0  0  0
   39.1950   28.5480   41.8150 C   0  0  0  0  0  0  0  0  0  0  0  0
   40.2390   28.1400   41.0400 C   0  0  0  0  0  0  0  0  0  0  0  0
   40.2820   26.8880   40.4670 C   0  0  0  0  0  0  0  0  0  0  0  0
   39.2370   26.0190   40.6850 C   0  0  0  0  0  0  0  0  0  0  0  0
   38.1590   26.3880   41.4610 C   0  0  0  0  0  0  0  0  0  0  0  0
   37.1140   25.5150   41.6770 C   0  0  0  0  0  0  0  0  0  0  0  0
   36.0220   25.8900   42.4640 C   0  0  0  0  0  0  0  0  0  0  0  0
   36.0730   27.1810   43.0000 C   0  0  0  0  0  0  0  0  0  0  0  0
   37.1270   28.0360   42.7710 C   0  0  0  0  0  0  0  0  0  0  0  0
   38.1860   27.6360   41.9910 C   0  0  0  0  0  0  0  0  0  0  0  0
   39.3160   32.3400   46.0320 C   0  0  0  0  0  0  0  0  0  0  0  0
   38.0040   32.6990   49.5720 C   0  0  0  0  0  0  0  0  0  0  0  0
   38.8090   32.9370   48.4480 C   0  0  0  0  0  0  0  0  0  0  0  0
   38.5610   32.2030   47.2860 C   0  0  0  0  0  0  0  0  0  0  0  0
   37.5300   31.2800   47.3140 N   0  0  0  0  0  0  0  0  0  0  0  0
   36.7780   31.0780   48.4100 C   0  0  0  0  0  0  0  0  0  0  0  0
   37.0080   31.7800   49.5370 N   0  0  0  0  0  0  0  0  0  0  0  0
   40.1510   31.0740   45.8800 C   0  0  0  0  0  0  0  0  0  0  0  0
   40.2280   33.5210   46.0030 C   0  0  0  0  0  0  0  0  0  0  0  0
   37.4235   31.9468   45.1845 H   0  0  0  0  0  0  0  0  0  0  0  0
   38.2432   33.4979   44.6608 H   0  0  0  0  0  0  0  0  0  0  0  0
   39.6551   33.6459   42.5997 H   0  0  0  0  0  0  0  0  0  0  0  0
   41.0751   28.8334   40.8662 H   0  0  0  0  0  0  0  0  0  0  0  0
   41.1380   26.5874   39.8450 H   0  0  0  0  0  0  0  0  0  0  0  0
   39.2624   25.0161   40.2337 H   0  0  0  0  0  0  0  0  0  0  0  0
   37.1402   24.5125   41.2249 H   0  0  0  0  0  0  0  0  0  0  0  0
   35.1756   25.2126   42.6503 H   0  0  0  0  0  0  0  0  0  0  0  0
   35.2389   27.5261   43.6286 H   0  0  0  0  0  0  0  0  0  0  0  0
   37.1220   29.0430   43.2137 H   0  0  0  0  0  0  0  0  0  0  0  0
   38.1838   33.2672   50.4966 H   0  0  0  0  0  0  0  0  0  0  0  0
   39.6161   33.6837   48.4811 H   0  0  0  0  0  0  0  0  0  0  0  0
   35.9684   30.3337   48.3866 H   0  0  0  0  0  0  0  0  0  0  0  0
   40.4088   30.6831   46.8754 H   0  0  0  0  0  0  0  0  0  0  0  0
   39.5737   30.3181   45.3275 H   0  0  0  0  0  0  0  0  0  0  0  0
   41.0732   31.3071   45.3275 H   0  0  0  0  0  0  0  0  0  0  0  0
   40.4644   33.8271   47.0328 H   0  0  0  0  0  0  0  0  0  0  0  0
   41.1568   33.2542   45.4774 H   0  0  0  0  0  0  0  0  0  0  0  0
   39.7350   34.3521   45.4774 H   0  0  0  0  0  0  0  0  0  0  0  0
  1 17  1  0
  2  1  1  0
  3  2  2  0
  4  5  1  0
  4  3  1  0
  5  6  2  0
  6  2  1  0
  7 16  1  0
  7  5  1  0
  8  7  2  0
  9 10  2  0
  9  8  1  0
 10 11  1  0
 11 12  1  0
 11 16  2  0
 12 13  2  0
 13 14  1  0
 15 14  2  0
 16 15  1  0
 17 20  1  0
 19 18  2  0
 20 21  2  0
 20 19  1  0
 21 22  1  0
 22 23  2  0
 23 18  1  0
 24 17  1  0
 25 17  1  0
  1 26  1  0
  1 27  1  0
  3 28  1  0
  8 29  1  0
  9 30  1  0
 10 31  1  0
 12 32  1  0
 13 33  1  0
 14 34  1  0
 15 35  1  0
 18 36  1  0
 19 37  1  0
 22 38  1  0
 24 39  1  0
 24 40  1  0
 24 41  1  0
 25 42  1  0
 25 43  1  0
 25 44  1  0
M  ISO  8  26   8  27   8  28  14  29  14  30  14  31  14  32  14  33  14
M  ISO  8  34  14  35  14  36  14  37  14  38  14  39   8  40   8  41   8
M  ISO  3  42   8  43   8  44   8
M  END
>  <minimizedAffinity>  (1) 
-5.34951115

>  <minimizedRMSD>  (1) 
1.18021977

$$$$
