
     RDKit          3D

 14 14  0  0  0  0  0  0  0  0999 V2000
   35.5980   28.9610   50.1390 C   0  0  0  0  0  0  0  0  0  0  0  0
   36.2630   30.1060   49.6990 C   0  0  0  0  0  0  0  0  0  0  0  0
   36.0070   30.5220   48.3920 C   0  0  0  0  0  0  0  0  0  0  0  0
   35.1320   29.8080   47.6090 N   0  0  0  0  0  0  0  0  0  0  0  0
   34.5110   28.6950   48.0990 C   0  0  0  0  0  0  0  0  0  0  0  0
   34.7560   28.2890   49.3600 N   0  0  0  0  0  0  0  0  0  0  0  0
   37.2130   30.8980   50.5190 C   0  0  0  0  0  0  0  0  0  0  0  0
   38.5090   30.8180   50.1190 F   0  0  0  0  0  0  0  0  0  0  0  0
   37.1610   30.4840   51.8380 F   0  0  0  0  0  0  0  0  0  0  0  0
   36.8480   32.2380   50.4740 F   0  0  0  0  0  0  0  0  0  0  0  0
   33.3740   27.7740   47.0680 S   0  0  0  0  0  0  0  0  0  0  0  0
   35.7762   28.6027   51.1636 H   0  0  0  0  0  0  0  0  0  0  0  0
   36.5034   31.4176   47.9901 H   0  0  0  0  0  0  0  0  0  0  0  0
   32.5058   27.0707   47.8608 H   0  0  0  0  0  0  0  0  0  0  0  0
  2  1  2  0
  2  7  1  0
  3  2  1  0
  4  5  1  0
  4  3  2  0
  5  6  2  0
  6  1  1  0
  7  9  1  0
  8  7  1  0
 10  7  1  0
 11  5  1  0
  1 12  1  0
  3 13  1  0
 11 14  1  0
M  ISO  3  12  14  13  14  14  11
M  END
>  <minimizedAffinity>  (1) 
-4.37065125

>  <minimizedRMSD>  (1) 
0.0529057086

$$$$
