
     RDKit          3D

 15 15  0  0  0  0  0  0  0  0999 V2000
   35.4880   29.0320   50.3650 C   0  0  0  0  0  0  0  0  0  0  0  0
   36.2540   30.0510   49.7910 C   0  0  0  0  0  0  0  0  0  0  0  0
   36.0760   30.2820   48.4290 C   0  0  0  0  0  0  0  0  0  0  0  0
   35.1850   29.5260   47.7220 N   0  0  0  0  0  0  0  0  0  0  0  0
   34.4650   28.5420   48.3410 C   0  0  0  0  0  0  0  0  0  0  0  0
   34.6300   28.3160   49.6420 N   0  0  0  0  0  0  0  0  0  0  0  0
   37.2320   30.8910   50.5400 C   0  0  0  0  0  0  0  0  0  0  0  0
   38.5040   30.8090   50.0990 F   0  0  0  0  0  0  0  0  0  0  0  0
   37.2370   30.5360   51.8720 F   0  0  0  0  0  0  0  0  0  0  0  0
   36.8470   32.2190   50.4650 F   0  0  0  0  0  0  0  0  0  0  0  0
   33.5060   27.7160   47.6160 C   0  0  0  0  0  0  0  0  0  0  0  0
   32.5940   27.0630   48.1850 O   0  0  0  0  0  0  0  0  0  0  0  0
   35.5969   28.8172   51.4383 H   0  0  0  0  0  0  0  0  0  0  0  0
   36.6518   31.0716   47.9239 H   0  0  0  0  0  0  0  0  0  0  0  0
   33.5841   27.6616   46.5201 H   0  0  0  0  0  0  0  0  0  0  0  0
  2  1  2  0
  2  7  1  0
  3  2  1  0
  4  5  1  0
  4  3  2  0
  5  6  2  0
  6  1  1  0
  7  9  1  0
  8  7  1  0
 10  7  1  0
 11 12  2  0
 11  5  1  0
  1 13  1  0
  3 14  1  0
 11 15  1  0
M  ISO  3  13  14  14  14  15   6
M  END
>  <minimizedAffinity>  (1) 
-4.32272291

>  <minimizedRMSD>  (1) 
0.250718147

$$$$
