
     RDKit          3D

 24 25  0  0  0  0  0  0  0  0999 V2000
   35.5730   28.8880   50.3530 C   0  0  0  0  0  0  0  0  0  0  0  0
   36.0640   30.1170   49.8660 C   0  0  0  0  0  0  0  0  0  0  0  0
   35.4420   30.6340   48.7280 C   0  0  0  0  0  0  0  0  0  0  0  0
   34.4040   29.9380   48.1460 N   0  0  0  0  0  0  0  0  0  0  0  0
   33.9770   28.7430   48.6770 C   0  0  0  0  0  0  0  0  0  0  0  0
   34.5620   28.2530   49.7520 N   0  0  0  0  0  0  0  0  0  0  0  0
   32.8800   28.0930   47.9890 C   0  0  0  0  0  0  0  0  0  0  0  0
   31.7470   27.6960   48.6710 C   0  0  0  0  0  0  0  0  0  0  0  0
   30.6770   27.0700   48.0340 C   0  0  0  0  0  0  0  0  0  0  0  0
   30.8180   26.8670   46.6560 C   0  0  0  0  0  0  0  0  0  0  0  0
   31.9410   27.2520   45.9390 C   0  0  0  0  0  0  0  0  0  0  0  0
   32.9570   27.8660   46.6410 C   0  0  0  0  0  0  0  0  0  0  0  0
   34.0830   28.2480   45.9010 O   0  0  0  0  0  0  0  0  0  0  0  0
   37.1740   30.8620   50.4860 C   0  0  0  0  0  0  0  0  0  0  0  0
   38.3940   30.6250   49.9130 F   0  0  0  0  0  0  0  0  0  0  0  0
   37.2930   30.5630   51.8310 F   0  0  0  0  0  0  0  0  0  0  0  0
   36.9380   32.2390   50.3770 F   0  0  0  0  0  0  0  0  0  0  0  0
   36.0323   28.4420   51.2475 H   0  0  0  0  0  0  0  0  0  0  0  0
   35.7777   31.5896   48.2989 H   0  0  0  0  0  0  0  0  0  0  0  0
   31.6868   27.8800   49.7538 H   0  0  0  0  0  0  0  0  0  0  0  0
   29.7762   26.7545   48.5809 H   0  0  0  0  0  0  0  0  0  0  0  0
   29.9957   26.3769   46.1141 H   0  0  0  0  0  0  0  0  0  0  0  0
   32.0181   27.0751   44.8561 H   0  0  0  0  0  0  0  0  0  0  0  0
   34.8439   28.6931   46.3517 H   0  0  0  0  0  0  0  0  0  0  0  0
  2  1  2  0
  2 14  1  0
  3  2  1  0
  4  5  1  0
  4  3  2  0
  5  6  2  0
  6  1  1  0
  7  8  2  0
  7  5  1  0
  9  8  1  0
 10  9  2  0
 11 12  2  0
 11 10  1  0
 12  7  1  0
 13 12  1  0
 14 16  1  0
 15 14  1  0
 17 14  1  0
  1 18  1  0
  3 19  1  0
  8 20  1  0
  9 21  1  0
 10 22  1  0
 11 23  1  0
 13 24  1  0
M  ISO  7  18  14  19  14  20  14  21  14  22  14  23  14  24   3
M  END
>  <minimizedAffinity>  (1) 
-5.09291029

>  <minimizedRMSD>  (1) 
1.53493488

$$$$
