
     RDKit          3D

 35 37  0  0  0  0  0  0  0  0999 V2000
   39.2140   32.3030   46.0770 C   0  0  0  0  0  0  0  0  0  0  0  0
   37.7620   32.5910   49.5710 C   0  0  0  0  0  0  0  0  0  0  0  0
   38.5960   32.8600   48.4730 C   0  0  0  0  0  0  0  0  0  0  0  0
   38.4220   32.1330   47.3000 C   0  0  0  0  0  0  0  0  0  0  0  0
   37.4270   31.1850   47.3020 N   0  0  0  0  0  0  0  0  0  0  0  0
   36.6450   30.9480   48.3630 C   0  0  0  0  0  0  0  0  0  0  0  0
   36.8010   31.6410   49.4990 N   0  0  0  0  0  0  0  0  0  0  0  0
   40.0860   31.0570   45.9420 C   0  0  0  0  0  0  0  0  0  0  0  0
   40.1100   33.4950   46.0970 C   0  0  0  0  0  0  0  0  0  0  0  0
   38.2780   32.3810   44.9040 C   0  0  0  0  0  0  0  0  0  0  0  0
   38.8410   31.7740   43.6740 C   0  0  0  0  0  0  0  0  0  0  0  0
   39.3870   32.6290   42.6470 C   0  0  0  0  0  0  0  0  0  0  0  0
   39.9270   31.3950   41.3940 S   0  0  0  0  0  0  0  0  0  0  0  0
   39.3210   29.9650   42.4780 C   0  0  0  0  0  0  0  0  0  0  0  0
   38.9100   30.4930   43.3840 N   0  0  0  0  0  0  0  0  0  0  0  0
   39.3510   28.4550   42.2400 N   0  0  0  0  0  0  0  0  0  0  0  0
   39.6800   27.9410   41.0920 N   0  0  0  0  0  0  0  0  0  0  0  0
   39.6120   26.6080   41.2050 C   0  0  0  0  0  0  0  0  0  0  0  0
   39.2160   26.3640   42.5190 C   0  0  0  0  0  0  0  0  0  0  0  0
   39.0520   27.5670   43.1730 C   0  0  0  0  0  0  0  0  0  0  0  0
   37.8920   33.1609   50.5028 H   0  0  0  0  0  0  0  0  0  0  0  0
   39.3749   33.6339   48.5399 H   0  0  0  0  0  0  0  0  0  0  0  0
   35.8650   30.1749   48.3011 H   0  0  0  0  0  0  0  0  0  0  0  0
   40.3480   30.6826   46.9426 H   0  0  0  0  0  0  0  0  0  0  0  0
   39.5333   30.2804   45.3931 H   0  0  0  0  0  0  0  0  0  0  0  0
   41.0050   31.3103   45.3931 H   0  0  0  0  0  0  0  0  0  0  0  0
   40.3219   33.7769   47.1389 H   0  0  0  0  0  0  0  0  0  0  0  0
   41.0524   33.2540   45.5834 H   0  0  0  0  0  0  0  0  0  0  0  0
   39.6165   34.3333   45.5834 H   0  0  0  0  0  0  0  0  0  0  0  0
   37.3479   31.8532   45.1616 H   0  0  0  0  0  0  0  0  0  0  0  0
   38.1002   33.4461   44.6944 H   0  0  0  0  0  0  0  0  0  0  0  0
   39.4606   33.7262   42.6207 H   0  0  0  0  0  0  0  0  0  0  0  0
   39.8241   25.8624   40.4246 H   0  0  0  0  0  0  0  0  0  0  0  0
   39.0593   25.3701   42.9635 H   0  0  0  0  0  0  0  0  0  0  0  0
   38.7473   27.7443   44.2150 H   0  0  0  0  0  0  0  0  0  0  0  0
  1  9  1  0
  1  4  1  0
  3  2  2  0
  4  5  2  0
  4  3  1  0
  5  6  1  0
  6  7  2  0
  7  2  1  0
  8  1  1  0
 10  1  1  0
 11 10  1  0
 12 11  2  0
 13 14  1  0
 13 12  1  0
 14 15  2  0
 15 11  1  0
 16 14  1  0
 16 20  1  0
 17 18  2  0
 17 16  1  0
 18 19  1  0
 19 20  2  0
  2 21  1  0
  3 22  1  0
  6 23  1  0
  8 24  1  0
  8 25  1  0
  8 26  1  0
  9 27  1  0
  9 28  1  0
  9 29  1  0
 10 30  1  0
 10 31  1  0
 12 32  1  0
 18 33  1  0
 19 34  1  0
 20 35  1  0
M  ISO  8  21  14  22  14  23  14  24   8  25   8  26   8  27   8  28   8
M  ISO  7  29   8  30   8  31   8  32  14  33  14  34  14  35  14
M  END
>  <minimizedAffinity>  (1) 
-5.32566547

>  <minimizedRMSD>  (1) 
0.754619598

$$$$
