
     RDKit          3D

 37 39  0  0  0  0  0  0  0  0999 V2000
   31.7610   26.2900   47.5000 C   0  0  0  0  0  0  0  0  0  0  0  0
   31.4960   25.1340   46.8420 C   0  0  0  0  0  0  0  0  0  0  0  0
   32.4390   24.3890   46.1660 C   0  0  0  0  0  0  0  0  0  0  0  0
   33.7280   24.8910   46.1870 C   0  0  0  0  0  0  0  0  0  0  0  0
   34.0430   26.0620   46.8440 C   0  0  0  0  0  0  0  0  0  0  0  0
   33.0650   26.7700   47.5030 C   0  0  0  0  0  0  0  0  0  0  0  0
   29.4930   27.5540   50.1030 C   0  0  0  0  0  0  0  0  0  0  0  0
   28.7380   28.5210   49.4060 C   0  0  0  0  0  0  0  0  0  0  0  0
   29.0370   28.7030   48.0690 C   0  0  0  0  0  0  0  0  0  0  0  0
   30.0330   27.9570   47.4750 N   0  0  0  0  0  0  0  0  0  0  0  0
   30.7270   27.0370   48.1980 C   0  0  0  0  0  0  0  0  0  0  0  0
   30.4470   26.8560   49.4820 N   0  0  0  0  0  0  0  0  0  0  0  0
   27.6650   29.3300   50.0330 C   0  0  0  0  0  0  0  0  0  0  0  0
   28.0370   30.5990   50.3410 F   0  0  0  0  0  0  0  0  0  0  0  0
   27.2320   28.7470   51.2140 F   0  0  0  0  0  0  0  0  0  0  0  0
   26.5620   29.3930   49.1820 F   0  0  0  0  0  0  0  0  0  0  0  0
   33.3440   28.0200   48.2170 C   0  0  0  0  0  0  0  0  0  0  0  0
   34.4020   27.9450   49.2720 C   0  0  0  0  0  0  0  0  0  0  0  0
   35.2800   29.1370   49.1000 C   0  0  0  0  0  0  0  0  0  0  0  0
   35.8810   29.6650   50.2490 C   0  0  0  0  0  0  0  0  0  0  0  0
   36.7200   30.7590   50.2800 C   0  0  0  0  0  0  0  0  0  0  0  0
   36.9550   31.3410   49.0690 N   0  0  0  0  0  0  0  0  0  0  0  0
   36.3690   30.8260   47.9510 C   0  0  0  0  0  0  0  0  0  0  0  0
   35.5450   29.7500   47.9310 N   0  0  0  0  0  0  0  0  0  0  0  0
   30.4594   24.7661   46.8480 H   0  0  0  0  0  0  0  0  0  0  0  0
   32.1828   23.4555   45.6436 H   0  0  0  0  0  0  0  0  0  0  0  0
   34.5244   24.3405   45.6648 H   0  0  0  0  0  0  0  0  0  0  0  0
   35.0793   26.4308   46.8410 H   0  0  0  0  0  0  0  0  0  0  0  0
   29.2935   27.3732   51.1695 H   0  0  0  0  0  0  0  0  0  0  0  0
   28.4795   29.4443   47.4777 H   0  0  0  0  0  0  0  0  0  0  0  0
   33.6592   28.7690   47.4756 H   0  0  0  0  0  0  0  0  0  0  0  0
   32.4136   28.2767   48.7447 H   0  0  0  0  0  0  0  0  0  0  0  0
   33.9404   27.9576   50.2704 H   0  0  0  0  0  0  0  0  0  0  0  0
   34.9824   27.0153   49.1781 H   0  0  0  0  0  0  0  0  0  0  0  0
   35.6663   29.1662   51.2056 H   0  0  0  0  0  0  0  0  0  0  0  0
   37.1667   31.1345   51.2124 H   0  0  0  0  0  0  0  0  0  0  0  0
   36.5811   31.3215   46.9921 H   0  0  0  0  0  0  0  0  0  0  0  0
  1  6  1  0
  1 11  1  0
  2  1  2  0
  3  4  2  0
  3  2  1  0
  4  5  1  0
  5  6  2  0
  6 17  1  0
  8 13  1  0
  8  7  2  0
  9  8  1  0
 10  9  2  0
 10 11  1  0
 11 12  2  0
 12  7  1  0
 13 14  1  0
 13 15  1  0
 16 13  1  0
 17 18  1  0
 19 18  1  0
 19 20  2  0
 20 21  1  0
 22 21  2  0
 23 22  1  0
 24 23  2  0
 24 19  1  0
  2 25  1  0
  3 26  1  0
  4 27  1  0
  5 28  1  0
  7 29  1  0
  9 30  1  0
 17 31  1  0
 17 32  1  0
 18 33  1  0
 18 34  1  0
 20 35  1  0
 21 36  1  0
 23 37  1  0
M  ISO  8  25  14  26  14  27  14  28  14  29  14  30  14  31   8  32   8
M  ISO  5  33   8  34   8  35  14  36  14  37  14
M  END
>  <minimizedAffinity>  (1) 
-5.88037157

>  <minimizedRMSD>  (1) 
6.75897169

$$$$
