
     RDKit          3D

 43 46  0  0  0  0  0  0  0  0999 V2000
   32.7510   27.7760   48.5610 C   0  0  0  0  0  0  0  0  0  0  0  0
   31.6480   28.2110   49.2140 C   0  0  0  0  0  0  0  0  0  0  0  0
   30.4190   27.5810   49.1760 C   0  0  0  0  0  0  0  0  0  0  0  0
   30.3640   26.4340   48.4070 C   0  0  0  0  0  0  0  0  0  0  0  0
   31.4670   25.9490   47.7190 C   0  0  0  0  0  0  0  0  0  0  0  0
   32.6590   26.6230   47.7980 C   0  0  0  0  0  0  0  0  0  0  0  0
   36.0850   28.9000   49.6270 C   0  0  0  0  0  0  0  0  0  0  0  0
   36.3950   29.8720   48.6590 C   0  0  0  0  0  0  0  0  0  0  0  0
   35.4510   30.1200   47.6590 C   0  0  0  0  0  0  0  0  0  0  0  0
   34.2820   29.4010   47.6850 N   0  0  0  0  0  0  0  0  0  0  0  0
   34.0220   28.4760   48.6320 C   0  0  0  0  0  0  0  0  0  0  0  0
   34.9210   28.2410   49.5830 N   0  0  0  0  0  0  0  0  0  0  0  0
   37.6700   30.6360   48.6540 C   0  0  0  0  0  0  0  0  0  0  0  0
   38.4590   30.3880   47.5720 F   0  0  0  0  0  0  0  0  0  0  0  0
   38.4390   30.3400   49.7700 F   0  0  0  0  0  0  0  0  0  0  0  0
   37.4060   32.0030   48.6880 F   0  0  0  0  0  0  0  0  0  0  0  0
   33.8490   26.1490   47.0910 C   0  0  0  0  0  0  0  0  0  0  0  0
   33.7210   24.8030   46.4270 C   0  0  0  0  0  0  0  0  0  0  0  0
   34.8340   24.6870   45.4340 C   0  0  0  0  0  0  0  0  0  0  0  0
   34.9840   25.3890   44.2340 C   0  0  0  0  0  0  0  0  0  0  0  0
   36.1310   24.9570   43.6730 N   0  0  0  0  0  0  0  0  0  0  0  0
   36.6920   24.0150   44.4830 C   0  0  0  0  0  0  0  0  0  0  0  0
   37.8520   23.2670   44.3750 C   0  0  0  0  0  0  0  0  0  0  0  0
   38.1790   22.3570   45.3840 C   0  0  0  0  0  0  0  0  0  0  0  0
   37.3810   22.1710   46.4950 C   0  0  0  0  0  0  0  0  0  0  0  0
   36.2440   22.9130   46.5840 C   0  0  0  0  0  0  0  0  0  0  0  0
   35.8910   23.8200   45.6120 C   0  0  0  0  0  0  0  0  0  0  0  0
   31.7361   29.1278   49.8154 H   0  0  0  0  0  0  0  0  0  0  0  0
   29.5442   27.9660   49.7205 H   0  0  0  0  0  0  0  0  0  0  0  0
   29.4125   25.8864   48.3379 H   0  0  0  0  0  0  0  0  0  0  0  0
   31.3863   25.0326   47.1159 H   0  0  0  0  0  0  0  0  0  0  0  0
   36.8061   28.6793   50.4279 H   0  0  0  0  0  0  0  0  0  0  0  0
   35.6389   30.8684   46.8751 H   0  0  0  0  0  0  0  0  0  0  0  0
   34.0969   26.8871   46.3139 H   0  0  0  0  0  0  0  0  0  0  0  0
   34.6275   26.0317   47.8592 H   0  0  0  0  0  0  0  0  0  0  0  0
   33.8025   24.0037   47.1783 H   0  0  0  0  0  0  0  0  0  0  0  0
   32.7447   24.7063   45.9295 H   0  0  0  0  0  0  0  0  0  0  0  0
   34.2987   26.1470   43.8267 H   0  0  0  0  0  0  0  0  0  0  0  0
   36.5203   25.2853   42.7777 H   0  0  0  0  0  0  0  0  0  0  0  0
   38.5107   23.3879   43.5024 H   0  0  0  0  0  0  0  0  0  0  0  0
   39.1038   21.7689   45.2897 H   0  0  0  0  0  0  0  0  0  0  0  0
   37.6542   21.4497   47.2792 H   0  0  0  0  0  0  0  0  0  0  0  0
   35.5886   22.7839   47.4579 H   0  0  0  0  0  0  0  0  0  0  0  0
  1 11  1  0
  1  2  2  0
  3  2  1  0
  4  3  2  0
  5  6  2  0
  5  4  1  0
  6  1  1  0
  8  7  2  0
  9 10  2  0
  9  8  1  0
 10 11  1  0
 11 12  2  0
 12  7  1  0
 13  8  1  0
 13 16  1  0
 13 15  1  0
 14 13  1  0
 17  6  1  0
 18 17  1  0
 19 27  1  0
 19 18  1  0
 20 19  2  0
 21 20  1  0
 21 22  1  0
 22 27  2  0
 23 22  1  0
 23 24  2  0
 24 25  1  0
 25 26  2  0
 27 26  1  0
  2 28  1  0
  3 29  1  0
  4 30  1  0
  5 31  1  0
  7 32  1  0
  9 33  1  0
 17 34  1  0
 17 35  1  0
 18 36  1  0
 18 37  1  0
 20 38  1  0
 21 39  1  0
 23 40  1  0
 24 41  1  0
 25 42  1  0
 26 43  1  0
M  ISO  8  28  14  29  14  30  14  31  14  32  14  33  14  34   8  35   8
M  ISO  8  36   8  37   8  38  14  39   9  40  14  41  14  42  14  43  14
M  END
>  <minimizedAffinity>  (1) 
-5.69891596

>  <minimizedRMSD>  (1) 
0.80998385

$$$$
