
     RDKit          3D

 42 45  0  0  0  0  0  0  0  0999 V2000
   32.8080   28.0080   48.6810 C   0  0  0  0  0  0  0  0  0  0  0  0
   31.7650   28.2880   49.5020 C   0  0  0  0  0  0  0  0  0  0  0  0
   30.5310   27.6640   49.4390 C   0  0  0  0  0  0  0  0  0  0  0  0
   30.3990   26.6990   48.4600 C   0  0  0  0  0  0  0  0  0  0  0  0
   31.4410   26.3880   47.6060 C   0  0  0  0  0  0  0  0  0  0  0  0
   32.6550   27.0450   47.7130 C   0  0  0  0  0  0  0  0  0  0  0  0
   36.2250   28.9480   49.6650 C   0  0  0  0  0  0  0  0  0  0  0  0
   36.4540   30.1060   48.8920 C   0  0  0  0  0  0  0  0  0  0  0  0
   35.4230   30.5300   48.0550 C   0  0  0  0  0  0  0  0  0  0  0  0
   34.2530   29.8100   48.0220 N   0  0  0  0  0  0  0  0  0  0  0  0
   34.0910   28.7000   48.7920 C   0  0  0  0  0  0  0  0  0  0  0  0
   35.0670   28.2880   49.5920 N   0  0  0  0  0  0  0  0  0  0  0  0
   37.7180   30.8830   48.9260 C   0  0  0  0  0  0  0  0  0  0  0  0
   38.5350   30.6570   47.8510 F   0  0  0  0  0  0  0  0  0  0  0  0
   38.4510   30.5800   50.0610 F   0  0  0  0  0  0  0  0  0  0  0  0
   37.4410   32.2460   48.9590 F   0  0  0  0  0  0  0  0  0  0  0  0
   33.7710   26.7420   46.8310 C   0  0  0  0  0  0  0  0  0  0  0  0
   33.4980   26.8310   45.3520 C   0  0  0  0  0  0  0  0  0  0  0  0
   33.6370   28.2430   44.9810 N   0  0  0  0  0  0  0  0  0  0  0  0
   34.7770   28.8820   44.6220 C   0  0  0  0  0  0  0  0  0  0  0  0
   34.5270   30.1790   44.3480 N   0  0  0  0  0  0  0  0  0  0  0  0
   33.2250   30.3700   44.5350 C   0  0  0  0  0  0  0  0  0  0  0  0
   32.3700   31.4490   44.4230 C   0  0  0  0  0  0  0  0  0  0  0  0
   31.0630   31.3500   44.6800 N   0  0  0  0  0  0  0  0  0  0  0  0
   30.5510   30.1710   45.0600 C   0  0  0  0  0  0  0  0  0  0  0  0
   31.3010   29.0540   45.2000 N   0  0  0  0  0  0  0  0  0  0  0  0
   32.6350   29.1670   44.9340 C   0  0  0  0  0  0  0  0  0  0  0  0
   32.8950   32.7160   44.0200 N   0  0  0  0  0  0  0  0  0  0  0  0
   31.9096   29.0629   50.2692 H   0  0  0  0  0  0  0  0  0  0  0  0
   29.7093   27.9200   50.1240 H   0  0  0  0  0  0  0  0  0  0  0  0
   29.4426   26.1653   48.3572 H   0  0  0  0  0  0  0  0  0  0  0  0
   31.3046   25.6137   46.8367 H   0  0  0  0  0  0  0  0  0  0  0  0
   37.0139   28.5830   50.3391 H   0  0  0  0  0  0  0  0  0  0  0  0
   35.5442   31.4273   47.4304 H   0  0  0  0  0  0  0  0  0  0  0  0
   34.5832   27.4462   47.0646 H   0  0  0  0  0  0  0  0  0  0  0  0
   34.0155   25.6864   47.0205 H   0  0  0  0  0  0  0  0  0  0  0  0
   34.2236   26.2197   44.7953 H   0  0  0  0  0  0  0  0  0  0  0  0
   32.4917   26.4566   45.1126 H   0  0  0  0  0  0  0  0  0  0  0  0
   35.7682   28.4088   44.5623 H   0  0  0  0  0  0  0  0  0  0  0  0
   29.4725   30.1090   45.2673 H   0  0  0  0  0  0  0  0  0  0  0  0
   32.2685   33.5288   43.9325 H   0  0  0  0  0  0  0  0  0  0  0  0
   33.8998   32.8161   43.8171 H   0  0  0  0  0  0  0  0  0  0  0  0
  1 11  1  0
  1  2  2  0
  3  2  1  0
  4  3  2  0
  5  6  2  0
  5  4  1  0
  6  1  1  0
  8 13  1  0
  8  7  2  0
  9  8  1  0
 10  9  2  0
 10 11  1  0
 11 12  2  0
 12  7  1  0
 13 16  1  0
 13 15  1  0
 14 13  1  0
 17  6  1  0
 18 17  1  0
 19 18  1  0
 20 19  1  0
 21 22  1  0
 21 20  2  0
 22 27  2  0
 23 22  1  0
 23 24  2  0
 24 25  1  0
 25 26  2  0
 27 19  1  0
 27 26  1  0
 28 23  1  0
  2 29  1  0
  3 30  1  0
  4 31  1  0
  5 32  1  0
  7 33  1  0
  9 34  1  0
 17 35  1  0
 17 36  1  0
 18 37  1  0
 18 38  1  0
 20 39  1  0
 25 40  1  0
 28 41  1  0
 28 42  1  0
M  ISO  8  29  14  30  14  31  14  32  14  33  14  34  14  35   8  36   8
M  ISO  4  37   8  38   8  39  14  40  14
M  END
>  <minimizedAffinity>  (1) 
-5.47676849

>  <minimizedRMSD>  (1) 
4.83440542

$$$$
