
     RDKit          3D

 40 43  0  0  0  0  0  0  0  0999 V2000
   32.8260   27.9100   48.6970 C   0  0  0  0  0  0  0  0  0  0  0  0
   31.7190   28.3180   49.3860 C   0  0  0  0  0  0  0  0  0  0  0  0
   30.4950   27.6730   49.3310 C   0  0  0  0  0  0  0  0  0  0  0  0
   30.4360   26.5540   48.5170 C   0  0  0  0  0  0  0  0  0  0  0  0
   31.5240   26.1170   47.8130 C   0  0  0  0  0  0  0  0  0  0  0  0
   32.7310   26.7860   47.8910 C   0  0  0  0  0  0  0  0  0  0  0  0
   36.1750   28.9770   49.7280 C   0  0  0  0  0  0  0  0  0  0  0  0
   36.4460   30.0390   48.8230 C   0  0  0  0  0  0  0  0  0  0  0  0
   35.4670   30.3410   47.8980 C   0  0  0  0  0  0  0  0  0  0  0  0
   34.2990   29.6150   47.8970 N   0  0  0  0  0  0  0  0  0  0  0  0
   34.0860   28.6120   48.7810 C   0  0  0  0  0  0  0  0  0  0  0  0
   35.0200   28.3210   49.6640 N   0  0  0  0  0  0  0  0  0  0  0  0
   37.7150   30.8020   48.8490 C   0  0  0  0  0  0  0  0  0  0  0  0
   38.5250   30.5480   47.7660 F   0  0  0  0  0  0  0  0  0  0  0  0
   38.4630   30.5280   49.9730 F   0  0  0  0  0  0  0  0  0  0  0  0
   37.4350   32.1730   48.8370 F   0  0  0  0  0  0  0  0  0  0  0  0
   33.9120   26.3570   47.1600 C   0  0  0  0  0  0  0  0  0  0  0  0
   33.9630   24.9040   46.7960 C   0  0  0  0  0  0  0  0  0  0  0  0
   34.8620   24.6050   45.7290 N   0  0  0  0  0  0  0  0  0  0  0  0
   34.8210   25.2380   44.5240 C   0  0  0  0  0  0  0  0  0  0  0  0
   35.7870   24.7390   43.7350 N   0  0  0  0  0  0  0  0  0  0  0  0
   36.4880   23.7770   44.3790 C   0  0  0  0  0  0  0  0  0  0  0  0
   37.5490   22.9340   44.1080 C   0  0  0  0  0  0  0  0  0  0  0  0
   37.9840   22.0640   45.0600 N   0  0  0  0  0  0  0  0  0  0  0  0
   37.3580   22.0510   46.2500 C   0  0  0  0  0  0  0  0  0  0  0  0
   36.3090   22.8690   46.5460 N   0  0  0  0  0  0  0  0  0  0  0  0
   35.8670   23.7400   45.6080 C   0  0  0  0  0  0  0  0  0  0  0  0
   31.8052   29.2115   50.0218 H   0  0  0  0  0  0  0  0  0  0  0  0
   29.6225   28.0278   49.8993 H   0  0  0  0  0  0  0  0  0  0  0  0
   29.4883   26.0017   48.4345 H   0  0  0  0  0  0  0  0  0  0  0  0
   31.4376   25.2232   47.1776 H   0  0  0  0  0  0  0  0  0  0  0  0
   36.9233   28.6968   50.4840 H   0  0  0  0  0  0  0  0  0  0  0  0
   35.6191   31.1522   47.1708 H   0  0  0  0  0  0  0  0  0  0  0  0
   33.9624   26.9400   46.2286 H   0  0  0  0  0  0  0  0  0  0  0  0
   34.7606   26.5242   47.8397 H   0  0  0  0  0  0  0  0  0  0  0  0
   34.2782   24.3358   47.6836 H   0  0  0  0  0  0  0  0  0  0  0  0
   32.9559   24.6263   46.4514 H   0  0  0  0  0  0  0  0  0  0  0  0
   34.1115   26.0300   44.2422 H   0  0  0  0  0  0  0  0  0  0  0  0
   38.0410   22.9661   43.1247 H   0  0  0  0  0  0  0  0  0  0  0  0
   37.7087   21.3479   47.0198 H   0  0  0  0  0  0  0  0  0  0  0  0
  1 11  1  0
  1  2  2  0
  3  2  1  0
  4  3  2  0
  5  6  2  0
  5  4  1  0
  6  1  1  0
  8 13  1  0
  8  7  2  0
  9  8  1  0
 10  9  2  0
 10 11  1  0
 11 12  2  0
 12  7  1  0
 13 15  1  0
 14 13  1  0
 16 13  1  0
 17  6  1  0
 18 17  1  0
 19 18  1  0
 20 19  1  0
 21 22  1  0
 21 20  2  0
 22 27  2  0
 23 22  1  0
 23 24  2  0
 24 25  1  0
 25 26  2  0
 27 19  1  0
 27 26  1  0
  2 28  1  0
  3 29  1  0
  4 30  1  0
  5 31  1  0
  7 32  1  0
  9 33  1  0
 17 34  1  0
 17 35  1  0
 18 36  1  0
 18 37  1  0
 20 38  1  0
 23 39  1  0
 25 40  1  0
M  ISO  8  28  14  29  14  30  14  31  14  32  14  33  14  34   8  35   8
M  ISO  5  36   8  37   8  38  14  39  14  40  14
M  END
>  <minimizedAffinity>  (1) 
-5.28133869

>  <minimizedRMSD>  (1) 
1.12232304

$$$$
