
     RDKit          3D

 37 39  0  0  0  0  0  0  0  0999 V2000
   32.8520   27.8550   48.5710 C   0  0  0  0  0  0  0  0  0  0  0  0
   31.7430   28.2190   49.2660 C   0  0  0  0  0  0  0  0  0  0  0  0
   30.5240   27.5760   49.1920 C   0  0  0  0  0  0  0  0  0  0  0  0
   30.4760   26.4910   48.3350 C   0  0  0  0  0  0  0  0  0  0  0  0
   31.5750   26.0870   47.6100 C   0  0  0  0  0  0  0  0  0  0  0  0
   32.7750   26.7720   47.7240 C   0  0  0  0  0  0  0  0  0  0  0  0
   36.1740   28.9610   49.6820 C   0  0  0  0  0  0  0  0  0  0  0  0
   36.4590   30.0090   48.7890 C   0  0  0  0  0  0  0  0  0  0  0  0
   35.5020   30.3070   47.8320 C   0  0  0  0  0  0  0  0  0  0  0  0
   34.3350   29.5770   47.7950 N   0  0  0  0  0  0  0  0  0  0  0  0
   34.1130   28.5700   48.6880 C   0  0  0  0  0  0  0  0  0  0  0  0
   35.0260   28.2870   49.6010 N   0  0  0  0  0  0  0  0  0  0  0  0
   37.7190   30.7870   48.8410 C   0  0  0  0  0  0  0  0  0  0  0  0
   38.5380   30.5730   47.7700 F   0  0  0  0  0  0  0  0  0  0  0  0
   38.4490   30.4950   49.9780 F   0  0  0  0  0  0  0  0  0  0  0  0
   37.4200   32.1600   48.8730 F   0  0  0  0  0  0  0  0  0  0  0  0
   33.9550   26.3730   46.9740 C   0  0  0  0  0  0  0  0  0  0  0  0
   33.7720   25.2490   45.9860 C   0  0  0  0  0  0  0  0  0  0  0  0
   34.6450   24.1230   46.4740 C   0  0  0  0  0  0  0  0  0  0  0  0
   35.7210   23.8240   45.6800 C   0  0  0  0  0  0  0  0  0  0  0  0
   36.5330   22.8010   46.1030 C   0  0  0  0  0  0  0  0  0  0  0  0
   36.3310   22.0950   47.2270 N   0  0  0  0  0  0  0  0  0  0  0  0
   35.2460   22.4320   47.9790 C   0  0  0  0  0  0  0  0  0  0  0  0
   34.4340   23.4290   47.5930 N   0  0  0  0  0  0  0  0  0  0  0  0
   31.8222   29.0882   49.9355 H   0  0  0  0  0  0  0  0  0  0  0  0
   29.6504   27.9038   49.7746 H   0  0  0  0  0  0  0  0  0  0  0  0
   29.5328   25.9349   48.2296 H   0  0  0  0  0  0  0  0  0  0  0  0
   31.5005   25.2187   46.9388 H   0  0  0  0  0  0  0  0  0  0  0  0
   36.9072   28.6936   50.4572 H   0  0  0  0  0  0  0  0  0  0  0  0
   35.6729   31.1185   47.1093 H   0  0  0  0  0  0  0  0  0  0  0  0
   34.3117   27.2526   46.4181 H   0  0  0  0  0  0  0  0  0  0  0  0
   34.6630   25.9908   47.7241 H   0  0  0  0  0  0  0  0  0  0  0  0
   34.0856   25.5682   44.9811 H   0  0  0  0  0  0  0  0  0  0  0  0
   32.7183   24.9412   45.9156 H   0  0  0  0  0  0  0  0  0  0  0  0
   35.9240   24.3759   44.7504 H   0  0  0  0  0  0  0  0  0  0  0  0
   37.4037   22.5436   45.4821 H   0  0  0  0  0  0  0  0  0  0  0  0
   35.0339   21.8835   48.9086 H   0  0  0  0  0  0  0  0  0  0  0  0
  1 11  1  0
  1  2  2  0
  3  2  1  0
  4  3  2  0
  5  6  2  0
  5  4  1  0
  6  1  1  0
  8 13  1  0
  8  7  2  0
  9  8  1  0
 10  9  2  0
 10 11  1  0
 11 12  2  0
 12  7  1  0
 13 16  1  0
 13 15  1  0
 14 13  1  0
 17  6  1  0
 18 19  1  0
 18 17  1  0
 19 24  2  0
 20 21  2  0
 20 19  1  0
 21 22  1  0
 22 23  2  0
 24 23  1  0
  2 25  1  0
  3 26  1  0
  4 27  1  0
  5 28  1  0
  7 29  1  0
  9 30  1  0
 17 31  1  0
 17 32  1  0
 18 33  1  0
 18 34  1  0
 20 35  1  0
 21 36  1  0
 23 37  1  0
M  ISO  8  25  14  26  14  27  14  28  14  29  14  30  14  31   8  32   8
M  ISO  5  33   8  34   8  35  14  36  14  37  14
M  END
>  <minimizedAffinity>  (1) 
-5.20180893

>  <minimizedRMSD>  (1) 
1.46370161

$$$$
