
     RDKit          3D

 36 37  0  0  0  0  0  0  0  0999 V2000
   32.8600   27.8230   48.5570 C   0  0  0  0  0  0  0  0  0  0  0  0
   31.7440   28.2080   49.2250 C   0  0  0  0  0  0  0  0  0  0  0  0
   30.5230   27.5700   49.1590 C   0  0  0  0  0  0  0  0  0  0  0  0
   30.4730   26.4560   48.3390 C   0  0  0  0  0  0  0  0  0  0  0  0
   31.5760   26.0350   47.6490 C   0  0  0  0  0  0  0  0  0  0  0  0
   32.7850   26.7010   47.7390 C   0  0  0  0  0  0  0  0  0  0  0  0
   36.1750   28.9580   49.6510 C   0  0  0  0  0  0  0  0  0  0  0  0
   36.4660   29.9690   48.7260 C   0  0  0  0  0  0  0  0  0  0  0  0
   35.5120   30.2320   47.7510 C   0  0  0  0  0  0  0  0  0  0  0  0
   34.3470   29.5030   47.7350 N   0  0  0  0  0  0  0  0  0  0  0  0
   34.1190   28.5320   48.6590 C   0  0  0  0  0  0  0  0  0  0  0  0
   35.0240   28.2800   49.5890 N   0  0  0  0  0  0  0  0  0  0  0  0
   37.7230   30.7530   48.7460 C   0  0  0  0  0  0  0  0  0  0  0  0
   38.5330   30.5260   47.6620 F   0  0  0  0  0  0  0  0  0  0  0  0
   38.4600   30.4910   49.8750 F   0  0  0  0  0  0  0  0  0  0  0  0
   37.4300   32.1250   48.7350 F   0  0  0  0  0  0  0  0  0  0  0  0
   33.9840   26.2680   47.0140 C   0  0  0  0  0  0  0  0  0  0  0  0
   33.8340   25.0360   46.2030 C   0  0  0  0  0  0  0  0  0  0  0  0
   34.7310   23.9590   46.5200 N   0  0  0  0  0  0  0  0  0  0  0  0
   35.8040   23.8420   45.5980 C   0  0  0  0  0  0  0  0  0  0  0  0
   36.0010   24.3470   44.4300 N   0  0  0  0  0  0  0  0  0  0  0  0
   36.9350   23.0160   45.9480 N   0  0  0  0  0  0  0  0  0  0  0  0
   35.2470   24.9840   44.0280 H   0  0  0  0  0  0  0  0  0  0  0  0
   31.8185   29.0970   49.8685 H   0  0  0  0  0  0  0  0  0  0  0  0
   29.6461   27.9234   49.7213 H   0  0  0  0  0  0  0  0  0  0  0  0
   29.5293   25.8995   48.2406 H   0  0  0  0  0  0  0  0  0  0  0  0
   31.5000   25.1452   47.0068 H   0  0  0  0  0  0  0  0  0  0  0  0
   36.9036   28.7184   50.4395 H   0  0  0  0  0  0  0  0  0  0  0  0
   35.6873   31.0158   46.9994 H   0  0  0  0  0  0  0  0  0  0  0  0
   34.2836   27.0830   46.3387 H   0  0  0  0  0  0  0  0  0  0  0  0
   34.7318   26.0307   47.7851 H   0  0  0  0  0  0  0  0  0  0  0  0
   33.9921   25.3061   45.1485 H   0  0  0  0  0  0  0  0  0  0  0  0
   32.8256   24.6565   46.4246 H   0  0  0  0  0  0  0  0  0  0  0  0
   34.6082   23.3368   47.3316 H   0  0  0  0  0  0  0  0  0  0  0  0
   37.7236   22.9181   45.2927 H   0  0  0  0  0  0  0  0  0  0  0  0
   36.9533   22.5245   46.8530 H   0  0  0  0  0  0  0  0  0  0  0  0
  1 11  1  0
  1  2  2  0
  3  2  1  0
  4  3  2  0
  5  6  2  0
  5  4  1  0
  6  1  1  0
  8 13  1  0
  8  7  2  0
  9  8  1  0
 10  9  2  0
 10 11  1  0
 11 12  2  0
 12  7  1  0
 13 15  1  0
 14 13  1  0
 16 13  1  0
 17  6  1  0
 18 19  1  0
 18 17  1  0
 20 22  1  0
 20 19  1  0
 21 20  2  0
 23 21  1  0
  2 24  1  0
  3 25  1  0
  4 26  1  0
  5 27  1  0
  7 28  1  0
  9 29  1  0
 17 30  1  0
 17 31  1  0
 18 32  1  0
 18 33  1  0
 19 34  1  0
 22 35  1  0
 22 36  1  0
M  ISO  8  24  14  25  14  26  14  27  14  28  14  29  14  30   8  31   8
M  ISO  2  32   8  33   8
M  END
>  <minimizedAffinity>  (1) 
-4.90777397

>  <minimizedRMSD>  (1) 
0.815004826

$$$$
