
     RDKit          3D

 38 40  0  0  0  0  0  0  0  0999 V2000
   39.2230   32.3380   46.1120 C   0  0  0  0  0  0  0  0  0  0  0  0
   37.7000   32.5570   49.5840 C   0  0  0  0  0  0  0  0  0  0  0  0
   38.5580   32.8510   48.5000 C   0  0  0  0  0  0  0  0  0  0  0  0
   38.4130   32.1450   47.3140 C   0  0  0  0  0  0  0  0  0  0  0  0
   37.4220   31.1830   47.2680 N   0  0  0  0  0  0  0  0  0  0  0  0
   36.6170   30.9220   48.3140 C   0  0  0  0  0  0  0  0  0  0  0  0
   36.7470   31.5970   49.4670 N   0  0  0  0  0  0  0  0  0  0  0  0
   40.0870   31.0870   45.9550 C   0  0  0  0  0  0  0  0  0  0  0  0
   40.1200   33.5310   46.1830 C   0  0  0  0  0  0  0  0  0  0  0  0
   38.3170   32.4390   44.9320 C   0  0  0  0  0  0  0  0  0  0  0  0
   38.8500   31.7680   43.7160 C   0  0  0  0  0  0  0  0  0  0  0  0
   39.4880   32.5420   42.6890 C   0  0  0  0  0  0  0  0  0  0  0  0
   39.9300   31.2440   41.4770 S   0  0  0  0  0  0  0  0  0  0  0  0
   39.1770   29.8920   42.5690 C   0  0  0  0  0  0  0  0  0  0  0  0
   38.8030   30.4800   43.4560 N   0  0  0  0  0  0  0  0  0  0  0  0
   39.1890   28.4650   42.1570 C   0  0  0  0  0  0  0  0  0  0  0  0
   39.1080   27.5290   43.1390 C   0  0  0  0  0  0  0  0  0  0  0  0
   39.1190   26.2110   42.7520 C   0  0  0  0  0  0  0  0  0  0  0  0
   39.2090   25.8600   41.4220 C   0  0  0  0  0  0  0  0  0  0  0  0
   39.2910   26.8310   40.4340 C   0  0  0  0  0  0  0  0  0  0  0  0
   39.2810   28.1750   40.8160 C   0  0  0  0  0  0  0  0  0  0  0  0
   37.8051   33.1099   50.5291 H   0  0  0  0  0  0  0  0  0  0  0  0
   39.3301   33.6287   48.5951 H   0  0  0  0  0  0  0  0  0  0  0  0
   35.8428   30.1459   48.2232 H   0  0  0  0  0  0  0  0  0  0  0  0
   40.3548   30.6992   46.9489 H   0  0  0  0  0  0  0  0  0  0  0  0
   39.5250   30.3203   45.4015 H   0  0  0  0  0  0  0  0  0  0  0  0
   41.0030   31.3411   45.4015 H   0  0  0  0  0  0  0  0  0  0  0  0
   40.3105   33.7843   47.2363 H   0  0  0  0  0  0  0  0  0  0  0  0
   41.0728   33.3037   45.6825 H   0  0  0  0  0  0  0  0  0  0  0  0
   39.6370   34.3832   45.6825 H   0  0  0  0  0  0  0  0  0  0  0  0
   37.3539   31.9754   45.1917 H   0  0  0  0  0  0  0  0  0  0  0  0
   38.2143   33.5079   44.6932 H   0  0  0  0  0  0  0  0  0  0  0  0
   39.6643   33.6268   42.6428 H   0  0  0  0  0  0  0  0  0  0  0  0
   39.0367   27.8147   44.1988 H   0  0  0  0  0  0  0  0  0  0  0  0
   39.0549   25.4224   43.5162 H   0  0  0  0  0  0  0  0  0  0  0  0
   39.2159   24.7967   41.1403 H   0  0  0  0  0  0  0  0  0  0  0  0
   39.3623   26.5488   39.3732 H   0  0  0  0  0  0  0  0  0  0  0  0
   39.3448   28.9773   40.0662 H   0  0  0  0  0  0  0  0  0  0  0  0
  1  9  1  0
  1  4  1  0
  3  2  2  0
  4  3  1  0
  5  4  2  0
  5  6  1  0
  6  7  2  0
  7  2  1  0
  8  1  1  0
 10  1  1  0
 11 10  1  0
 12 11  2  0
 13 14  1  0
 13 12  1  0
 14 15  2  0
 15 11  1  0
 16 14  1  0
 16 17  2  0
 18 17  1  0
 19 18  2  0
 20 21  2  0
 20 19  1  0
 21 16  1  0
  2 22  1  0
  3 23  1  0
  6 24  1  0
  8 25  1  0
  8 26  1  0
  8 27  1  0
  9 28  1  0
  9 29  1  0
  9 30  1  0
 10 31  1  0
 10 32  1  0
 12 33  1  0
 17 34  1  0
 18 35  1  0
 19 36  1  0
 20 37  1  0
 21 38  1  0
M  ISO  8  22  14  23  14  24  14  25   8  26   8  27   8  28   8  29   8
M  ISO  8  30   8  31   8  32   8  33  14  34  14  35  14  36  14  37  14
M  ISO  1  38  14
M  END
>  <minimizedAffinity>  (1) 
-5.21429539

>  <minimizedRMSD>  (1) 
0.788815916

$$$$
