
     RDKit          3D

 30 31  0  0  0  0  0  0  0  0999 V2000
   32.7800   27.7900   48.5660 C   0  0  0  0  0  0  0  0  0  0  0  0
   31.6720   28.2150   49.2150 C   0  0  0  0  0  0  0  0  0  0  0  0
   30.4440   27.5820   49.1570 C   0  0  0  0  0  0  0  0  0  0  0  0
   30.3960   26.4500   48.3760 C   0  0  0  0  0  0  0  0  0  0  0  0
   31.4940   25.9870   47.7030 C   0  0  0  0  0  0  0  0  0  0  0  0
   32.6990   26.6570   47.7930 C   0  0  0  0  0  0  0  0  0  0  0  0
   36.0910   28.9180   49.6840 C   0  0  0  0  0  0  0  0  0  0  0  0
   36.4230   29.8970   48.7380 C   0  0  0  0  0  0  0  0  0  0  0  0
   35.4910   30.1420   47.7330 C   0  0  0  0  0  0  0  0  0  0  0  0
   34.3150   29.4370   47.7090 N   0  0  0  0  0  0  0  0  0  0  0  0
   34.0500   28.4970   48.6610 C   0  0  0  0  0  0  0  0  0  0  0  0
   34.9390   28.2620   49.6180 N   0  0  0  0  0  0  0  0  0  0  0  0
   37.6900   30.6690   48.7490 C   0  0  0  0  0  0  0  0  0  0  0  0
   38.4730   30.4700   47.6580 F   0  0  0  0  0  0  0  0  0  0  0  0
   38.4500   30.3500   49.8700 F   0  0  0  0  0  0  0  0  0  0  0  0
   37.4120   32.0410   48.8210 F   0  0  0  0  0  0  0  0  0  0  0  0
   33.8990   26.1970   47.0910 C   0  0  0  0  0  0  0  0  0  0  0  0
   34.0540   24.7100   46.9670 C   0  0  0  0  0  0  0  0  0  0  0  0
   34.9350   24.3720   45.4330 S   0  0  0  0  0  0  0  0  0  0  0  0
   31.7531   29.1239   49.8293 H   0  0  0  0  0  0  0  0  0  0  0  0
   29.5640   27.9583   49.6991 H   0  0  0  0  0  0  0  0  0  0  0  0
   29.4467   25.9009   48.2901 H   0  0  0  0  0  0  0  0  0  0  0  0
   31.4169   25.0781   47.0882 H   0  0  0  0  0  0  0  0  0  0  0  0
   36.7974   28.6891   50.4955 H   0  0  0  0  0  0  0  0  0  0  0  0
   35.6972   30.8982   46.9612 H   0  0  0  0  0  0  0  0  0  0  0  0
   33.8789   26.6199   46.0757 H   0  0  0  0  0  0  0  0  0  0  0  0
   34.7497   26.5359   47.7005 H   0  0  0  0  0  0  0  0  0  0  0  0
   34.6280   24.3214   47.8212 H   0  0  0  0  0  0  0  0  0  0  0  0
   33.0686   24.2211   46.9590 H   0  0  0  0  0  0  0  0  0  0  0  0
   36.1856   23.8922   45.7208 H   0  0  0  0  0  0  0  0  0  0  0  0
  1 11  1  0
  1  2  2  0
  3  2  1  0
  4  3  2  0
  5  6  2  0
  5  4  1  0
  6  1  1  0
  8 13  1  0
  8  7  2  0
  9  8  1  0
 10  9  2  0
 10 11  1  0
 11 12  2  0
 12  7  1  0
 13 16  1  0
 13 15  1  0
 14 13  1  0
 17  6  1  0
 18 17  1  0
 19 18  1  0
  2 20  1  0
  3 21  1  0
  4 22  1  0
  5 23  1  0
  7 24  1  0
  9 25  1  0
 17 26  1  0
 17 27  1  0
 18 28  1  0
 18 29  1  0
 19 30  1  0
M  ISO  8  20  14  21  14  22  14  23  14  24  14  25  14  26   8  27   8
M  ISO  3  28   8  29   8  30  11
M  END
>  <minimizedAffinity>  (1) 
-4.79646921

>  <minimizedRMSD>  (1) 
0.237526953

$$$$
