
     RDKit          3D

 36 38  0  0  0  0  0  0  0  0999 V2000
   31.7280   26.2940   47.6340 C   0  0  0  0  0  0  0  0  0  0  0  0
   31.4820   25.1570   46.9350 C   0  0  0  0  0  0  0  0  0  0  0  0
   32.4650   24.3860   46.3440 C   0  0  0  0  0  0  0  0  0  0  0  0
   33.7610   24.8400   46.5010 C   0  0  0  0  0  0  0  0  0  0  0  0
   34.0470   25.9840   47.2000 C   0  0  0  0  0  0  0  0  0  0  0  0
   33.0290   26.7300   47.7790 C   0  0  0  0  0  0  0  0  0  0  0  0
   29.2690   27.6260   50.0230 C   0  0  0  0  0  0  0  0  0  0  0  0
   28.6040   28.6050   49.2570 C   0  0  0  0  0  0  0  0  0  0  0  0
   29.0230   28.7760   47.9410 C   0  0  0  0  0  0  0  0  0  0  0  0
   30.0470   27.9970   47.4590 N   0  0  0  0  0  0  0  0  0  0  0  0
   30.6520   27.0710   48.2370 C   0  0  0  0  0  0  0  0  0  0  0  0
   30.2540   26.9070   49.4880 N   0  0  0  0  0  0  0  0  0  0  0  0
   27.5020   29.4370   49.7920 C   0  0  0  0  0  0  0  0  0  0  0  0
   27.9200   30.6490   50.2780 F   0  0  0  0  0  0  0  0  0  0  0  0
   26.8300   28.7900   50.8150 F   0  0  0  0  0  0  0  0  0  0  0  0
   26.5720   29.6920   48.7760 F   0  0  0  0  0  0  0  0  0  0  0  0
   33.2880   27.9610   48.5360 C   0  0  0  0  0  0  0  0  0  0  0  0
   34.1820   28.9500   47.8500 C   0  0  0  0  0  0  0  0  0  0  0  0
   35.1060   29.5210   48.8470 C   0  0  0  0  0  0  0  0  0  0  0  0
   35.5260   28.8660   50.0050 C   0  0  0  0  0  0  0  0  0  0  0  0
   36.3810   29.7020   50.6900 C   0  0  0  0  0  0  0  0  0  0  0  0
   36.4580   30.8370   49.9350 N   0  0  0  0  0  0  0  0  0  0  0  0
   35.7060   30.7400   48.8400 N   0  0  0  0  0  0  0  0  0  0  0  0
   30.4370   24.8293   46.8326 H   0  0  0  0  0  0  0  0  0  0  0  0
   32.2307   23.4687   45.7839 H   0  0  0  0  0  0  0  0  0  0  0  0
   34.5861   24.2672   46.0525 H   0  0  0  0  0  0  0  0  0  0  0  0
   35.0914   26.3137   47.3031 H   0  0  0  0  0  0  0  0  0  0  0  0
   28.9726   27.4551   51.0684 H   0  0  0  0  0  0  0  0  0  0  0  0
   28.5408   29.5248   47.2954 H   0  0  0  0  0  0  0  0  0  0  0  0
   32.3228   28.4513   48.7309 H   0  0  0  0  0  0  0  0  0  0  0  0
   33.8145   27.6540   49.4517 H   0  0  0  0  0  0  0  0  0  0  0  0
   34.7562   28.4443   47.0597 H   0  0  0  0  0  0  0  0  0  0  0  0
   33.5784   29.7499   47.3962 H   0  0  0  0  0  0  0  0  0  0  0  0
   35.2260   27.8550   50.3178 H   0  0  0  0  0  0  0  0  0  0  0  0
   36.8925   29.4983   51.6423 H   0  0  0  0  0  0  0  0  0  0  0  0
   37.0244   31.6616   50.1805 H   0  0  0  0  0  0  0  0  0  0  0  0
  1  6  1  0
  1 11  1  0
  2  1  2  0
  3  4  2  0
  3  2  1  0
  4  5  1  0
  5  6  2  0
  6 17  1  0
  8 13  1  0
  8  7  2  0
  9  8  1  0
 10  9  2  0
 10 11  1  0
 11 12  2  0
 12  7  1  0
 13 14  1  0
 13 15  1  0
 16 13  1  0
 18 17  1  0
 18 19  1  0
 19 20  1  0
 20 21  2  0
 22 21  1  0
 23 19  2  0
 23 22  1  0
  2 24  1  0
  3 25  1  0
  4 26  1  0
  5 27  1  0
  7 28  1  0
  9 29  1  0
 17 30  1  0
 17 31  1  0
 18 32  1  0
 18 33  1  0
 20 34  1  0
 21 35  1  0
 22 36  1  0
M  ISO  8  24  14  25  14  26  14  27  14  28  14  29  14  30   8  31   8
M  ISO  5  32   8  33   8  34  14  35  14  36   9
M  END
>  <minimizedAffinity>  (1) 
-5.56887579

>  <minimizedRMSD>  (1) 
6.75969982

$$$$
