
     RDKit          3D

 43 46  0  0  0  0  0  0  0  0999 V2000
   31.6920   26.5940   47.8190 C   0  0  0  0  0  0  0  0  0  0  0  0
   31.4740   25.3950   47.2400 C   0  0  0  0  0  0  0  0  0  0  0  0
   32.4840   24.5500   46.8220 C   0  0  0  0  0  0  0  0  0  0  0  0
   33.7710   25.0050   47.0300 C   0  0  0  0  0  0  0  0  0  0  0  0
   34.0160   26.2140   47.6140 C   0  0  0  0  0  0  0  0  0  0  0  0
   32.9850   27.0300   48.0190 C   0  0  0  0  0  0  0  0  0  0  0  0
   29.1380   28.2780   49.8800 C   0  0  0  0  0  0  0  0  0  0  0  0
   28.4960   29.1170   48.9340 C   0  0  0  0  0  0  0  0  0  0  0  0
   28.9650   29.0750   47.6170 C   0  0  0  0  0  0  0  0  0  0  0  0
   30.0120   28.2330   47.3090 N   0  0  0  0  0  0  0  0  0  0  0  0
   30.5870   27.4560   48.2460 C   0  0  0  0  0  0  0  0  0  0  0  0
   30.1450   27.4910   49.5020 N   0  0  0  0  0  0  0  0  0  0  0  0
   27.3710   30.0130   49.2890 C   0  0  0  0  0  0  0  0  0  0  0  0
   27.7220   31.0130   50.1530 F   0  0  0  0  0  0  0  0  0  0  0  0
   26.3270   29.3030   49.8710 F   0  0  0  0  0  0  0  0  0  0  0  0
   26.8760   30.6230   48.1290 F   0  0  0  0  0  0  0  0  0  0  0  0
   33.2020   28.3470   48.6530 C   0  0  0  0  0  0  0  0  0  0  0  0
   34.0650   29.2760   47.8790 C   0  0  0  0  0  0  0  0  0  0  0  0
   35.2720   29.6120   48.6370 C   0  0  0  0  0  0  0  0  0  0  0  0
   35.7770   28.8170   49.6510 C   0  0  0  0  0  0  0  0  0  0  0  0
   36.9150   29.4040   50.1660 C   0  0  0  0  0  0  0  0  0  0  0  0
   37.0650   30.5580   49.4310 N   0  0  0  0  0  0  0  0  0  0  0  0
   36.0980   30.6730   48.5370 N   0  0  0  0  0  0  0  0  0  0  0  0
   38.1580   31.5140   49.6330 C   0  0  0  0  0  0  0  0  0  0  0  0
   37.8670   32.9340   49.3460 C   0  0  0  0  0  0  0  0  0  0  0  0
   38.7200   32.1980   48.4070 C   0  0  0  0  0  0  0  0  0  0  0  0
   30.4330   25.0719   47.0924 H   0  0  0  0  0  0  0  0  0  0  0  0
   32.2761   23.5768   46.3534 H   0  0  0  0  0  0  0  0  0  0  0  0
   34.6191   24.3780   46.7175 H   0  0  0  0  0  0  0  0  0  0  0  0
   35.0554   26.5415   47.7634 H   0  0  0  0  0  0  0  0  0  0  0  0
   28.8041   28.2767   50.9281 H   0  0  0  0  0  0  0  0  0  0  0  0
   28.5059   29.7036   46.8398 H   0  0  0  0  0  0  0  0  0  0  0  0
   32.2215   28.8259   48.7915 H   0  0  0  0  0  0  0  0  0  0  0  0
   33.7273   28.1523   49.5997 H   0  0  0  0  0  0  0  0  0  0  0  0
   33.5038   30.1978   47.6661 H   0  0  0  0  0  0  0  0  0  0  0  0
   34.3614   28.7850   46.9404 H   0  0  0  0  0  0  0  0  0  0  0  0
   35.3402   27.8670   49.9927 H   0  0  0  0  0  0  0  0  0  0  0  0
   37.5565   29.0337   50.9792 H   0  0  0  0  0  0  0  0  0  0  0  0
   38.5803   30.9509   50.4783 H   0  0  0  0  0  0  0  0  0  0  0  0
   36.8526   33.2318   49.0422 H   0  0  0  0  0  0  0  0  0  0  0  0
   37.9798   33.8699   49.9129 H   0  0  0  0  0  0  0  0  0  0  0  0
   38.3423   31.9363   47.4076 H   0  0  0  0  0  0  0  0  0  0  0  0
   39.7258   32.3441   47.9863 H   0  0  0  0  0  0  0  0  0  0  0  0
  1  6  1  0
  1 11  1  0
  2  1  2  0
  3  4  2  0
  3  2  1  0
  4  5  1  0
  5  6  2  0
  6 17  1  0
  8 13  1  0
  8  7  2  0
  9  8  1  0
 10  9  2  0
 10 11  1  0
 11 12  2  0
 12  7  1  0
 13 15  1  0
 13 14  1  0
 16 13  1  0
 18 19  1  0
 18 17  1  0
 19 20  1  0
 20 21  2  0
 22 24  1  0
 22 21  1  0
 23 19  2  0
 23 22  1  0
 25 24  1  0
 26 25  1  0
 26 24  1  0
  2 27  1  0
  3 28  1  0
  4 29  1  0
  5 30  1  0
  7 31  1  0
  9 32  1  0
 17 33  1  0
 17 34  1  0
 18 35  1  0
 18 36  1  0
 20 37  1  0
 21 38  1  0
 24 39  1  0
 25 40  1  0
 25 41  1  0
 26 42  1  0
 26 43  1  0
M  ISO  8  27  14  28  14  29  14  30  14  31  14  32  14  33   8  34   8
M  ISO  8  35   8  36   8  37  14  38  14  39  13  40  13  41  13  42  13
M  ISO  1  43  13
M  END
>  <minimizedAffinity>  (1) 
-6.59011459

>  <minimizedRMSD>  (1) 
0.878938317

$$$$
