
     RDKit          3D

 35 37  0  0  0  0  0  0  0  0999 V2000
   39.2830   32.2770   46.0570 C   0  0  0  0  0  0  0  0  0  0  0  0
   37.7210   32.4360   49.5110 C   0  0  0  0  0  0  0  0  0  0  0  0
   38.5860   32.7260   48.4530 C   0  0  0  0  0  0  0  0  0  0  0  0
   38.4400   32.0640   47.2440 C   0  0  0  0  0  0  0  0  0  0  0  0
   37.4300   31.1400   47.1570 N   0  0  0  0  0  0  0  0  0  0  0  0
   36.5980   30.8620   48.1790 C   0  0  0  0  0  0  0  0  0  0  0  0
   36.7360   31.5010   49.3500 N   0  0  0  0  0  0  0  0  0  0  0  0
   40.2390   31.0830   45.9730 C   0  0  0  0  0  0  0  0  0  0  0  0
   40.0890   33.5320   46.1040 C   0  0  0  0  0  0  0  0  0  0  0  0
   38.4010   32.2820   44.8450 C   0  0  0  0  0  0  0  0  0  0  0  0
   38.9920   31.5440   43.6930 C   0  0  0  0  0  0  0  0  0  0  0  0
   39.6660   32.2670   42.6530 C   0  0  0  0  0  0  0  0  0  0  0  0
   40.1730   30.8930   41.5360 S   0  0  0  0  0  0  0  0  0  0  0  0
   39.3840   29.6080   42.6770 C   0  0  0  0  0  0  0  0  0  0  0  0
   38.9660   30.2420   43.5100 N   0  0  0  0  0  0  0  0  0  0  0  0
   39.3930   28.1300   42.4040 C   0  0  0  0  0  0  0  0  0  0  0  0
   38.9030   27.0980   43.1690 C   0  0  0  0  0  0  0  0  0  0  0  0
   39.1790   25.9660   42.4400 C   0  0  0  0  0  0  0  0  0  0  0  0
   39.8130   26.2980   41.2790 N   0  0  0  0  0  0  0  0  0  0  0  0
   39.9300   27.6130   41.2800 N   0  0  0  0  0  0  0  0  0  0  0  0
   37.8320   32.9590   50.4723 H   0  0  0  0  0  0  0  0  0  0  0  0
   39.3799   33.4769   48.5789 H   0  0  0  0  0  0  0  0  0  0  0  0
   35.8048   30.1104   48.0531 H   0  0  0  0  0  0  0  0  0  0  0  0
   40.5034   30.7528   46.9884 H   0  0  0  0  0  0  0  0  0  0  0  0
   39.7490   30.2580   45.4351 H   0  0  0  0  0  0  0  0  0  0  0  0
   41.1512   31.3808   45.4351 H   0  0  0  0  0  0  0  0  0  0  0  0
   40.2694   33.8129   47.1521 H   0  0  0  0  0  0  0  0  0  0  0  0
   41.0516   33.3688   45.5973 H   0  0  0  0  0  0  0  0  0  0  0  0
   39.5402   34.3395   45.5973 H   0  0  0  0  0  0  0  0  0  0  0  0
   37.4416   31.8123   45.1075 H   0  0  0  0  0  0  0  0  0  0  0  0
   38.2734   33.3296   44.5347 H   0  0  0  0  0  0  0  0  0  0  0  0
   39.8344   33.3492   42.5505 H   0  0  0  0  0  0  0  0  0  0  0  0
   38.4020   27.1636   44.1461 H   0  0  0  0  0  0  0  0  0  0  0  0
   38.9254   24.9410   42.7482 H   0  0  0  0  0  0  0  0  0  0  0  0
   40.1366   25.6506   40.5461 H   0  0  0  0  0  0  0  0  0  0  0  0
  1  9  1  0
  1  4  1  0
  3  2  2  0
  4  3  1  0
  5  4  2  0
  5  6  1  0
  6  7  2  0
  7  2  1  0
  8  1  1  0
 10  1  1  0
 11 10  1  0
 12 11  2  0
 13 12  1  0
 13 14  1  0
 14 15  2  0
 15 11  1  0
 16 14  1  0
 16 17  1  0
 18 17  2  0
 19 20  1  0
 19 18  1  0
 20 16  2  0
  2 21  1  0
  3 22  1  0
  6 23  1  0
  8 24  1  0
  8 25  1  0
  8 26  1  0
  9 27  1  0
  9 28  1  0
  9 29  1  0
 10 30  1  0
 10 31  1  0
 12 32  1  0
 17 33  1  0
 18 34  1  0
 19 35  1  0
M  ISO  8  21  14  22  14  23  14  24   8  25   8  26   8  27   8  28   8
M  ISO  7  29   8  30   8  31   8  32  14  33  14  34  14  35   9
M  END
>  <minimizedAffinity>  (1) 
-5.17134762

>  <minimizedRMSD>  (1) 
0.877815962

$$$$
