
     RDKit          3D

 15 15  0  0  0  0  0  0  0  0999 V2000
   37.4930   30.4400   49.7680 C   0  0  0  0  0  0  0  0  0  0  0  0
   38.1350   31.6780   49.9760 C   0  0  0  0  0  0  0  0  0  0  0  0
   38.4330   32.4450   48.8550 C   0  0  0  0  0  0  0  0  0  0  0  0
   38.0920   31.9630   47.6400 N   0  0  0  0  0  0  0  0  0  0  0  0
   37.4750   30.7690   47.4760 C   0  0  0  0  0  0  0  0  0  0  0  0
   37.1830   30.0230   48.5430 N   0  0  0  0  0  0  0  0  0  0  0  0
   37.1660   29.6020   50.9720 C   0  0  0  0  0  0  0  0  0  0  0  0
   35.8040   29.4320   51.0780 F   0  0  0  0  0  0  0  0  0  0  0  0
   37.8620   28.4340   50.8840 F   0  0  0  0  0  0  0  0  0  0  0  0
   37.5920   30.3040   52.1030 F   0  0  0  0  0  0  0  0  0  0  0  0
   39.0970   33.7300   49.0400 C   0  0  0  0  0  0  0  0  0  0  0  0
   39.6550   34.0660   50.1170 O   0  0  0  0  0  0  0  0  0  0  0  0
   38.3908   32.0245   50.9882 H   0  0  0  0  0  0  0  0  0  0  0  0
   37.2155   30.4154   46.4672 H   0  0  0  0  0  0  0  0  0  0  0  0
   39.1109   34.4389   48.1990 H   0  0  0  0  0  0  0  0  0  0  0  0
  1  2  2  0
  1  7  1  0
  3 11  1  0
  3  2  1  0
  4  3  2  0
  5  4  1  0
  5  6  2  0
  6  1  1  0
  7  8  1  0
  7 10  1  0
  9  7  1  0
 11 12  2  0
  2 13  1  0
  5 14  1  0
 11 15  1  0
M  ISO  3  13  14  14  14  15   6
M  END
>  <minimizedAffinity>  (1) 
-4.90343809

>  <minimizedRMSD>  (1) 
0.631086826

$$$$
