
     RDKit          3D

 26 27  0  0  0  0  0  0  0  0999 V2000
   36.1700   29.5820   50.0990 C   0  0  0  0  0  0  0  0  0  0  0  0
   37.0680   30.3220   49.3360 C   0  0  0  0  0  0  0  0  0  0  0  0
   36.7730   30.5470   48.0010 C   0  0  0  0  0  0  0  0  0  0  0  0
   35.6150   30.0280   47.5050 N   0  0  0  0  0  0  0  0  0  0  0  0
   34.7500   29.3040   48.2750 C   0  0  0  0  0  0  0  0  0  0  0  0
   35.0370   29.0880   49.5610 N   0  0  0  0  0  0  0  0  0  0  0  0
   39.2100   32.7030   45.3450 C   0  0  0  0  0  0  0  0  0  0  0  0
   38.1240   31.9970   44.8770 C   0  0  0  0  0  0  0  0  0  0  0  0
   37.3250   31.2860   45.7800 C   0  0  0  0  0  0  0  0  0  0  0  0
   37.6330   31.2970   47.1290 C   0  0  0  0  0  0  0  0  0  0  0  0
   38.7110   32.0030   47.5530 C   0  0  0  0  0  0  0  0  0  0  0  0
   39.5290   32.7230   46.6850 C   0  0  0  0  0  0  0  0  0  0  0  0
   40.1700   33.5720   44.1630 S   0  0  0  0  0  0  0  0  0  0  0  0
   40.3950   34.9830   44.5950 O   0  0  0  0  0  0  0  0  0  0  0  0
   39.4870   33.5890   42.8190 O   0  0  0  0  0  0  0  0  0  0  0  0
   36.4840   29.3290   51.5570 C   0  0  0  0  0  0  0  0  0  0  0  0
   35.3330   29.0610   52.2520 F   0  0  0  0  0  0  0  0  0  0  0  0
   37.4020   28.3130   51.6080 F   0  0  0  0  0  0  0  0  0  0  0  0
   37.0440   30.4910   52.0580 F   0  0  0  0  0  0  0  0  0  0  0  0
   37.9913   30.7194   49.7826 H   0  0  0  0  0  0  0  0  0  0  0  0
   33.8237   28.9018   47.8389 H   0  0  0  0  0  0  0  0  0  0  0  0
   37.8866   31.9919   43.8029 H   0  0  0  0  0  0  0  0  0  0  0  0
   36.4542   30.7198   45.4180 H   0  0  0  0  0  0  0  0  0  0  0  0
   38.9492   32.0072   48.6269 H   0  0  0  0  0  0  0  0  0  0  0  0
   40.3977   33.2867   47.0560 H   0  0  0  0  0  0  0  0  0  0  0  0
   41.3710   32.9207   44.0610 H   0  0  0  0  0  0  0  0  0  0  0  0
  1 16  1  0
  2  1  2  0
  3  2  1  0
  4  3  2  0
  4  5  1  0
  5  6  2  0
  6  1  1  0
  7 12  2  0
  8  7  1  0
  8  9  2  0
  9 10  1  0
 10 11  2  0
 10  3  1  0
 12 11  1  0
 13 14  2  0
 13  7  1  0
 15 13  2  0
 16 18  1  0
 16 19  1  0
 16 17  1  0
  2 20  1  0
  5 21  1  0
  8 22  1  0
  9 23  1  0
 11 24  1  0
 12 25  1  0
 13 26  1  0
M  ISO  7  20  14  21  14  22  14  23  14  24  14  25  14  26  11
M  END
>  <minimizedAffinity>  (1) 
-4.58060455

>  <minimizedRMSD>  (1) 
3.58071947

$$$$
