
     RDKit          3D

 20 20  0  0  0  0  0  0  0  0999 V2000
   36.8910   29.9510   49.8430 C   0  0  0  0  0  0  0  0  0  0  0  0
   38.0020   30.6550   49.3890 C   0  0  0  0  0  0  0  0  0  0  0  0
   37.9830   31.1190   48.0680 C   0  0  0  0  0  0  0  0  0  0  0  0
   36.8920   30.8600   47.3110 N   0  0  0  0  0  0  0  0  0  0  0  0
   35.8310   30.1700   47.7960 C   0  0  0  0  0  0  0  0  0  0  0  0
   35.8440   29.7250   49.0550 N   0  0  0  0  0  0  0  0  0  0  0  0
   39.0770   31.8380   47.5470 N   0  0  0  0  0  0  0  0  0  0  0  0
   38.9700   32.5800   46.3500 C   0  0  0  0  0  0  0  0  0  0  0  0
   37.8830   32.4840   45.6630 N   0  0  0  0  0  0  0  0  0  0  0  0
   40.0520   33.4040   45.9380 N   0  0  0  0  0  0  0  0  0  0  0  0
   37.8090   33.0370   44.7750 H   0  0  0  0  0  0  0  0  0  0  0  0
   36.8960   29.4440   51.2640 C   0  0  0  0  0  0  0  0  0  0  0  0
   35.5960   29.1400   51.6490 F   0  0  0  0  0  0  0  0  0  0  0  0
   37.7610   28.4070   51.3550 F   0  0  0  0  0  0  0  0  0  0  0  0
   37.3210   30.5080   52.0680 F   0  0  0  0  0  0  0  0  0  0  0  0
   38.8652   30.8406   50.0450 H   0  0  0  0  0  0  0  0  0  0  0  0
   34.9597   29.9767   47.1529 H   0  0  0  0  0  0  0  0  0  0  0  0
   39.9753   31.8221   48.0506 H   0  0  0  0  0  0  0  0  0  0  0  0
   39.9820   33.9483   45.0664 H   0  0  0  0  0  0  0  0  0  0  0  0
   40.9063   33.4569   46.5110 H   0  0  0  0  0  0  0  0  0  0  0  0
  1 12  1  0
  2  1  2  0
  3  2  1  0
  4  5  1  0
  4  3  2  0
  5  6  2  0
  6  1  1  0
  7  3  1  0
  8  7  1  0
  9  8  2  0
 10  8  1  0
 11  9  1  0
 12 14  1  0
 12 13  1  0
 12 15  1  0
  2 16  1  0
  5 17  1  0
  7 18  1  0
 10 19  1  0
 10 20  1  0
M  ISO  2  16  14  17  14
M  END
>  <minimizedAffinity>  (1) 
-5.87328196

>  <minimizedRMSD>  (1) 
1.42387581

$$$$
