
     RDKit          3D

 32 33  0  0  0  0  0  0  0  0999 V2000
   36.9280   29.9450   49.8330 C   0  0  0  0  0  0  0  0  0  0  0  0
   38.0340   30.6610   49.3900 C   0  0  0  0  0  0  0  0  0  0  0  0
   38.0510   31.1070   48.0640 C   0  0  0  0  0  0  0  0  0  0  0  0
   36.9810   30.8120   47.2790 N   0  0  0  0  0  0  0  0  0  0  0  0
   35.9330   30.1150   47.7550 C   0  0  0  0  0  0  0  0  0  0  0  0
   35.9090   29.6890   49.0120 N   0  0  0  0  0  0  0  0  0  0  0  0
   39.1430   31.8360   47.5640 N   0  0  0  0  0  0  0  0  0  0  0  0
   39.0280   32.6210   46.3870 C   0  0  0  0  0  0  0  0  0  0  0  0
   37.9740   32.4650   45.6530 N   0  0  0  0  0  0  0  0  0  0  0  0
   40.0580   33.5370   46.0650 N   0  0  0  0  0  0  0  0  0  0  0  0
   37.9520   32.9620   44.7360 H   0  0  0  0  0  0  0  0  0  0  0  0
   34.8460   29.8420   46.8780 N   0  0  0  0  0  0  0  0  0  0  0  0
   34.9220   29.9880   45.4370 C   0  0  0  0  0  0  0  0  0  0  0  0
   33.5170   29.8940   44.9210 C   0  0  0  0  0  0  0  0  0  0  0  0
   32.6890   30.1340   46.1660 C   0  0  0  0  0  0  0  0  0  0  0  0
   33.5110   29.3870   47.2180 C   0  0  0  0  0  0  0  0  0  0  0  0
   36.8910   29.4580   51.2560 C   0  0  0  0  0  0  0  0  0  0  0  0
   35.5910   29.1560   51.6190 F   0  0  0  0  0  0  0  0  0  0  0  0
   37.7540   28.4150   51.3730 F   0  0  0  0  0  0  0  0  0  0  0  0
   37.3160   30.5290   52.0550 F   0  0  0  0  0  0  0  0  0  0  0  0
   38.8758   30.8719   50.0659 H   0  0  0  0  0  0  0  0  0  0  0  0
   40.0444   31.8001   48.0611 H   0  0  0  0  0  0  0  0  0  0  0  0
   39.9875   34.1129   45.2140 H   0  0  0  0  0  0  0  0  0  0  0  0
   40.8780   33.6276   46.6817 H   0  0  0  0  0  0  0  0  0  0  0  0
   35.3571   30.9643   45.1771 H   0  0  0  0  0  0  0  0  0  0  0  0
   35.5601   29.2097   44.9930 H   0  0  0  0  0  0  0  0  0  0  0  0
   33.3215   30.6638   44.1600 H   0  0  0  0  0  0  0  0  0  0  0  0
   33.2961   28.9360   44.4276 H   0  0  0  0  0  0  0  0  0  0  0  0
   32.6140   31.2063   46.3998 H   0  0  0  0  0  0  0  0  0  0  0  0
   31.6450   29.7969   46.0858 H   0  0  0  0  0  0  0  0  0  0  0  0
   33.4135   28.2965   47.1112 H   0  0  0  0  0  0  0  0  0  0  0  0
   33.2106   29.5804   48.2584 H   0  0  0  0  0  0  0  0  0  0  0  0
  1 17  1  0
  2  1  2  0
  3  2  1  0
  4  5  1  0
  4  3  2  0
  5  6  2  0
  6  1  1  0
  7  3  1  0
  8  7  1  0
  9  8  2  0
 10  8  1  0
 11  9  1  0
 12 16  1  0
 12  5  1  0
 13 12  1  0
 14 13  1  0
 14 15  1  0
 15 16  1  0
 17 19  1  0
 17 18  1  0
 17 20  1  0
  2 21  1  0
  7 22  1  0
 10 23  1  0
 10 24  1  0
 13 25  1  0
 13 26  1  0
 14 27  1  0
 14 28  1  0
 15 29  1  0
 15 30  1  0
 16 31  1  0
 16 32  1  0
M  ISO  8  21  14  25  13  26  13  27  13  28  13  29  13  30  13  31  13
M  ISO  1  32  13
M  END
>  <minimizedAffinity>  (1) 
-6.88847494

>  <minimizedRMSD>  (1) 
0.14921023

$$$$
