
     RDKit          3D

 27 28  0  0  0  0  0  0  0  0999 V2000
   36.8750   29.9680   49.8170 C   0  0  0  0  0  0  0  0  0  0  0  0
   38.0060   30.5900   49.3270 C   0  0  0  0  0  0  0  0  0  0  0  0
   38.0020   31.0710   48.0130 C   0  0  0  0  0  0  0  0  0  0  0  0
   36.8760   30.8950   47.2900 N   0  0  0  0  0  0  0  0  0  0  0  0
   35.7910   30.2810   47.8030 C   0  0  0  0  0  0  0  0  0  0  0  0
   35.7960   29.8270   49.0510 N   0  0  0  0  0  0  0  0  0  0  0  0
   39.1380   31.7080   47.4870 N   0  0  0  0  0  0  0  0  0  0  0  0
   39.0750   32.4170   46.2670 C   0  0  0  0  0  0  0  0  0  0  0  0
   37.9470   32.4550   45.6210 N   0  0  0  0  0  0  0  0  0  0  0  0
   40.2330   33.0690   45.7720 N   0  0  0  0  0  0  0  0  0  0  0  0
   37.8890   33.0450   44.7660 H   0  0  0  0  0  0  0  0  0  0  0  0
   34.6160   30.1340   46.9490 C   0  0  0  0  0  0  0  0  0  0  0  0
   34.4700   29.3270   45.8400 C   0  0  0  0  0  0  0  0  0  0  0  0
   33.2410   29.4670   45.3200 N   0  0  0  0  0  0  0  0  0  0  0  0
   32.5980   30.3700   46.1040 C   0  0  0  0  0  0  0  0  0  0  0  0
   33.4370   30.7620   47.0790 N   0  0  0  0  0  0  0  0  0  0  0  0
   36.8810   29.4530   51.2300 C   0  0  0  0  0  0  0  0  0  0  0  0
   35.5830   29.1450   51.6190 F   0  0  0  0  0  0  0  0  0  0  0  0
   37.7470   28.4300   51.3240 F   0  0  0  0  0  0  0  0  0  0  0  0
   37.3100   30.5200   52.0410 F   0  0  0  0  0  0  0  0  0  0  0  0
   38.8977   30.7058   49.9606 H   0  0  0  0  0  0  0  0  0  0  0  0
   40.0305   31.6573   47.9987 H   0  0  0  0  0  0  0  0  0  0  0  0
   40.1918   33.5872   44.8828 H   0  0  0  0  0  0  0  0  0  0  0  0
   41.1152   33.0243   46.3017 H   0  0  0  0  0  0  0  0  0  0  0  0
   35.2500   28.6631   45.4389 H   0  0  0  0  0  0  0  0  0  0  0  0
   31.5650   30.7216   45.9650 H   0  0  0  0  0  0  0  0  0  0  0  0
   33.2086   31.4436   47.8167 H   0  0  0  0  0  0  0  0  0  0  0  0
  1 17  1  0
  2  1  2  0
  3  2  1  0
  4  5  1  0
  4  3  2  0
  5  6  2  0
  6  1  1  0
  7  3  1  0
  8  7  1  0
  9  8  2  0
 10  8  1  0
 11  9  1  0
 12 16  1  0
 12  5  1  0
 13 12  2  0
 14 13  1  0
 14 15  2  0
 15 16  1  0
 17 19  1  0
 17 18  1  0
 17 20  1  0
  2 21  1  0
  7 22  1  0
 10 23  1  0
 10 24  1  0
 13 25  1  0
 15 26  1  0
 16 27  1  0
M  ISO  4  21  14  25  14  26  14  27   9
M  END
>  <minimizedAffinity>  (1) 
-6.88666534

>  <minimizedRMSD>  (1) 
0.236078858

$$$$
