
     RDKit          3D

 26 27  0  0  0  0  0  0  0  0999 V2000
   36.9180   29.9400   49.8610 C   0  0  0  0  0  0  0  0  0  0  0  0
   38.0180   30.6670   49.4290 C   0  0  0  0  0  0  0  0  0  0  0  0
   38.0300   31.1340   48.1120 C   0  0  0  0  0  0  0  0  0  0  0  0
   36.9570   30.8440   47.3310 N   0  0  0  0  0  0  0  0  0  0  0  0
   35.9020   30.1270   47.8000 C   0  0  0  0  0  0  0  0  0  0  0  0
   35.9010   29.6870   49.0590 N   0  0  0  0  0  0  0  0  0  0  0  0
   39.1090   31.8730   47.6150 N   0  0  0  0  0  0  0  0  0  0  0  0
   39.0070   32.6120   46.4180 C   0  0  0  0  0  0  0  0  0  0  0  0
   37.9370   32.4860   45.6960 N   0  0  0  0  0  0  0  0  0  0  0  0
   40.0670   33.4770   46.0230 N   0  0  0  0  0  0  0  0  0  0  0  0
   37.9060   32.9640   44.7740 H   0  0  0  0  0  0  0  0  0  0  0  0
   34.8130   29.8610   46.9260 N   0  0  0  0  0  0  0  0  0  0  0  0
   33.6880   29.3720   47.5060 C   0  0  0  0  0  0  0  0  0  0  0  0
   32.7620   29.1800   46.5260 N   0  0  0  0  0  0  0  0  0  0  0  0
   33.3300   29.5570   45.3470 C   0  0  0  0  0  0  0  0  0  0  0  0
   34.5870   29.9690   45.6300 N   0  0  0  0  0  0  0  0  0  0  0  0
   36.9150   29.4400   51.2890 C   0  0  0  0  0  0  0  0  0  0  0  0
   35.6060   29.1380   51.6650 F   0  0  0  0  0  0  0  0  0  0  0  0
   37.7800   28.3960   51.3860 F   0  0  0  0  0  0  0  0  0  0  0  0
   37.3390   30.5000   52.0910 F   0  0  0  0  0  0  0  0  0  0  0  0
   38.8601   30.8708   50.1067 H   0  0  0  0  0  0  0  0  0  0  0  0
   39.9981   31.8775   48.1351 H   0  0  0  0  0  0  0  0  0  0  0  0
   39.9927   34.0167   45.1489 H   0  0  0  0  0  0  0  0  0  0  0  0
   40.9080   33.5629   46.6114 H   0  0  0  0  0  0  0  0  0  0  0  0
   33.5486   29.1670   48.5777 H   0  0  0  0  0  0  0  0  0  0  0  0
   32.8570   29.5314   44.3542 H   0  0  0  0  0  0  0  0  0  0  0  0
  1 17  1  0
  2  1  2  0
  3  2  1  0
  4  5  1  0
  4  3  2  0
  5  6  2  0
  6  1  1  0
  7  3  1  0
  8  7  1  0
  9  8  2  0
 10  8  1  0
 11  9  1  0
 12 13  1  0
 12  5  1  0
 14 13  2  0
 15 16  2  0
 15 14  1  0
 16 12  1  0
 17 19  1  0
 17 18  1  0
 17 20  1  0
  2 21  1  0
  7 22  1  0
 10 23  1  0
 10 24  1  0
 13 25  1  0
 15 26  1  0
M  ISO  3  21  14  25  14  26  14
M  END
>  <minimizedAffinity>  (1) 
-6.82304668

>  <minimizedRMSD>  (1) 
0.103062265

$$$$
