
     RDKit          3D

 27 28  0  0  0  0  0  0  0  0999 V2000
   36.9310   29.9330   49.8780 C   0  0  0  0  0  0  0  0  0  0  0  0
   38.0340   30.6770   49.4510 C   0  0  0  0  0  0  0  0  0  0  0  0
   38.0060   31.1400   48.1220 C   0  0  0  0  0  0  0  0  0  0  0  0
   36.9410   30.8430   47.3520 N   0  0  0  0  0  0  0  0  0  0  0  0
   35.9020   30.1200   47.8140 C   0  0  0  0  0  0  0  0  0  0  0  0
   35.8980   29.6650   49.0780 N   0  0  0  0  0  0  0  0  0  0  0  0
   39.0830   31.8970   47.6210 N   0  0  0  0  0  0  0  0  0  0  0  0
   38.9820   32.6060   46.4110 C   0  0  0  0  0  0  0  0  0  0  0  0
   37.9260   32.4580   45.6980 N   0  0  0  0  0  0  0  0  0  0  0  0
   40.0480   33.4640   46.0070 N   0  0  0  0  0  0  0  0  0  0  0  0
   37.8710   32.9670   44.7810 H   0  0  0  0  0  0  0  0  0  0  0  0
   34.7510   29.8030   46.9750 C   0  0  0  0  0  0  0  0  0  0  0  0
   33.6390   29.1430   47.4830 C   0  0  0  0  0  0  0  0  0  0  0  0
   32.7360   28.9940   46.4530 C   0  0  0  0  0  0  0  0  0  0  0  0
   33.3040   29.5570   45.3460 N   0  0  0  0  0  0  0  0  0  0  0  0
   34.5110   30.0420   45.6540 N   0  0  0  0  0  0  0  0  0  0  0  0
   36.9290   29.4250   51.2960 C   0  0  0  0  0  0  0  0  0  0  0  0
   35.6130   29.1490   51.6820 F   0  0  0  0  0  0  0  0  0  0  0  0
   37.7820   28.3950   51.4050 F   0  0  0  0  0  0  0  0  0  0  0  0
   37.3320   30.5100   52.1000 F   0  0  0  0  0  0  0  0  0  0  0  0
   38.8812   30.8901   50.1195 H   0  0  0  0  0  0  0  0  0  0  0  0
   39.9643   31.9320   48.1530 H   0  0  0  0  0  0  0  0  0  0  0  0
   39.9812   33.9866   45.1219 H   0  0  0  0  0  0  0  0  0  0  0  0
   40.8843   33.5608   46.6004 H   0  0  0  0  0  0  0  0  0  0  0  0
   33.5039   28.8013   48.5198 H   0  0  0  0  0  0  0  0  0  0  0  0
   31.7479   28.5140   46.5112 H   0  0  0  0  0  0  0  0  0  0  0  0
   32.8679   29.6013   44.4139 H   0  0  0  0  0  0  0  0  0  0  0  0
  1 17  1  0
  2  1  2  0
  3  2  1  0
  4  5  1  0
  4  3  2  0
  5  6  2  0
  6  1  1  0
  7  3  1  0
  8  7  1  0
  9  8  2  0
 10  8  1  0
 11  9  1  0
 12 13  1  0
 12  5  1  0
 14 13  2  0
 15 16  1  0
 15 14  1  0
 16 12  2  0
 17 19  1  0
 17 18  1  0
 17 20  1  0
  2 21  1  0
  7 22  1  0
 10 23  1  0
 10 24  1  0
 13 25  1  0
 14 26  1  0
 15 27  1  0
M  ISO  4  21  14  25  14  26  14  27   9
M  END
>  <minimizedAffinity>  (1) 
-6.48926449

>  <minimizedRMSD>  (1) 
0.20776847

$$$$
