
     RDKit          3D

 22 22  0  0  0  0  0  0  0  0999 V2000
   36.8590   30.0060   49.8710 C   0  0  0  0  0  0  0  0  0  0  0  0
   37.9870   30.6490   49.4020 C   0  0  0  0  0  0  0  0  0  0  0  0
   37.9690   31.1870   48.1150 C   0  0  0  0  0  0  0  0  0  0  0  0
   36.8410   31.0490   47.3950 N   0  0  0  0  0  0  0  0  0  0  0  0
   35.7550   30.4130   47.8840 C   0  0  0  0  0  0  0  0  0  0  0  0
   35.7720   29.8980   49.1150 N   0  0  0  0  0  0  0  0  0  0  0  0
   39.1040   31.8540   47.6020 N   0  0  0  0  0  0  0  0  0  0  0  0
   39.0390   32.5850   46.3970 C   0  0  0  0  0  0  0  0  0  0  0  0
   37.9530   32.5390   45.7090 N   0  0  0  0  0  0  0  0  0  0  0  0
   40.1520   33.3450   45.9720 N   0  0  0  0  0  0  0  0  0  0  0  0
   37.8460   33.1910   44.8840 H   0  0  0  0  0  0  0  0  0  0  0  0
   34.6300   30.3410   47.0100 N   0  0  0  0  0  0  0  0  0  0  0  0
   36.8920   29.4310   51.2600 C   0  0  0  0  0  0  0  0  0  0  0  0
   35.5870   29.1140   51.6520 F   0  0  0  0  0  0  0  0  0  0  0  0
   37.7430   28.3930   51.2960 F   0  0  0  0  0  0  0  0  0  0  0  0
   37.3290   30.4640   52.1140 F   0  0  0  0  0  0  0  0  0  0  0  0
   38.8844   30.7356   50.0322 H   0  0  0  0  0  0  0  0  0  0  0  0
   39.9948   31.8057   48.1169 H   0  0  0  0  0  0  0  0  0  0  0  0
   40.1054   33.8790   45.0924 H   0  0  0  0  0  0  0  0  0  0  0  0
   41.0098   33.3650   46.5418 H   0  0  0  0  0  0  0  0  0  0  0  0
   33.7675   29.8699   47.3184 H   0  0  0  0  0  0  0  0  0  0  0  0
   34.6801   30.7601   46.0705 H   0  0  0  0  0  0  0  0  0  0  0  0
  1 13  1  0
  2  1  2  0
  3  2  1  0
  4  5  1  0
  4  3  2  0
  5  6  2  0
  6  1  1  0
  7  3  1  0
  8  7  1  0
  9  8  2  0
 10  8  1  0
 11  9  1  0
 12  5  1  0
 13 15  1  0
 13 14  1  0
 13 16  1  0
  2 17  1  0
  7 18  1  0
 10 19  1  0
 10 20  1  0
 12 21  1  0
 12 22  1  0
M  ISO  1  17  14
M  END
>  <minimizedAffinity>  (1) 
-6.24832153

>  <minimizedRMSD>  (1) 
0.1500002

$$$$
