
     RDKit          3D

 26 26  0  0  0  0  0  0  0  0999 V2000
   36.8940   29.9650   49.8900 C   0  0  0  0  0  0  0  0  0  0  0  0
   38.0020   30.6760   49.4420 C   0  0  0  0  0  0  0  0  0  0  0  0
   37.9920   31.1770   48.1400 C   0  0  0  0  0  0  0  0  0  0  0  0
   36.8970   30.9410   47.3840 N   0  0  0  0  0  0  0  0  0  0  0  0
   35.8430   30.2490   47.8540 C   0  0  0  0  0  0  0  0  0  0  0  0
   35.8540   29.7690   49.1000 N   0  0  0  0  0  0  0  0  0  0  0  0
   39.0900   31.9030   47.6370 N   0  0  0  0  0  0  0  0  0  0  0  0
   39.0200   32.6210   46.4340 C   0  0  0  0  0  0  0  0  0  0  0  0
   37.9610   32.5050   45.7270 N   0  0  0  0  0  0  0  0  0  0  0  0
   40.0930   33.4460   46.0240 N   0  0  0  0  0  0  0  0  0  0  0  0
   37.9000   33.0060   44.8050 H   0  0  0  0  0  0  0  0  0  0  0  0
   36.9030   29.4230   51.2960 C   0  0  0  0  0  0  0  0  0  0  0  0
   35.6120   29.1250   51.6790 F   0  0  0  0  0  0  0  0  0  0  0  0
   37.7660   28.3950   51.3710 F   0  0  0  0  0  0  0  0  0  0  0  0
   37.3330   30.4800   52.1210 F   0  0  0  0  0  0  0  0  0  0  0  0
   34.6290   29.9870   47.0190 C   0  0  0  0  0  0  0  0  0  0  0  0
   33.7770   28.8900   47.5910 C   0  0  0  0  0  0  0  0  0  0  0  0
   38.8679   30.8399   50.1003 H   0  0  0  0  0  0  0  0  0  0  0  0
   39.9717   31.9066   48.1694 H   0  0  0  0  0  0  0  0  0  0  0  0
   40.0314   33.9690   45.1388 H   0  0  0  0  0  0  0  0  0  0  0  0
   40.9361   33.5239   46.6106 H   0  0  0  0  0  0  0  0  0  0  0  0
   34.9498   29.6965   46.0077 H   0  0  0  0  0  0  0  0  0  0  0  0
   34.0272   30.9075   46.9972 H   0  0  0  0  0  0  0  0  0  0  0  0
   33.8113   28.9341   48.6896 H   0  0  0  0  0  0  0  0  0  0  0  0
   32.7386   29.0172   47.2511 H   0  0  0  0  0  0  0  0  0  0  0  0
   34.1573   27.9154   47.2511 H   0  0  0  0  0  0  0  0  0  0  0  0
  1 12  1  0
  2  1  2  0
  3  2  1  0
  4  5  1  0
  4  3  2  0
  5  6  2  0
  6  1  1  0
  7  3  1  0
  8  7  1  0
  9  8  2  0
 10  8  1  0
 11  9  1  0
 12 14  1  0
 12 13  1  0
 12 15  1  0
 16 17  1  0
 16  5  1  0
  2 18  1  0
  7 19  1  0
 10 20  1  0
 10 21  1  0
 16 22  1  0
 16 23  1  0
 17 24  1  0
 17 25  1  0
 17 26  1  0
M  ISO  6  18  14  22   8  23   8  24   8  25   8  26   8
M  END
>  <minimizedAffinity>  (1) 
-6.14241552

>  <minimizedRMSD>  (1) 
0.273552597

$$$$
