
     RDKit          3D

 13 13  0  0  0  0  0  0  0  0999 V2000
   37.9570   30.5190   49.3460 C   0  0  0  0  0  0  0  0  0  0  0  0
   38.4330   31.7980   49.7640 C   0  0  0  0  0  0  0  0  0  0  0  0
   38.5910   32.7620   48.7520 C   0  0  0  0  0  0  0  0  0  0  0  0
   38.2900   32.4310   47.4740 N   0  0  0  0  0  0  0  0  0  0  0  0
   37.8400   31.1930   47.1380 C   0  0  0  0  0  0  0  0  0  0  0  0
   37.6730   30.2430   48.0630 N   0  0  0  0  0  0  0  0  0  0  0  0
   37.7970   29.5610   50.3320 O   0  0  0  0  0  0  0  0  0  0  0  0
   36.9050   29.7590   51.4030 C   0  0  0  0  0  0  0  0  0  0  0  0
   35.7300   29.3180   51.4230 O   0  0  0  0  0  0  0  0  0  0  0  0
   38.6631   32.0172   50.8171 H   0  0  0  0  0  0  0  0  0  0  0  0
   38.9542   33.7713   48.9955 H   0  0  0  0  0  0  0  0  0  0  0  0
   37.6092   30.9692   46.0860 H   0  0  0  0  0  0  0  0  0  0  0  0
   37.2580   30.3332   52.2723 H   0  0  0  0  0  0  0  0  0  0  0  0
  1  2  2  0
  1  7  1  0
  3  2  1  0
  4  3  2  0
  5  4  1  0
  5  6  2  0
  6  1  1  0
  7  8  1  0
  8  9  2  0
  2 10  1  0
  3 11  1  0
  5 12  1  0
  8 13  1  0
M  ISO  4  10  14  11  14  12  14  13   6
M  END
>  <minimizedAffinity>  (1) 
-3.46844101

>  <minimizedRMSD>  (1) 
2.21916962

$$$$
