
     RDKit          3D

 14 14  0  0  0  0  0  0  0  0999 V2000
   37.1260   30.5760   49.5080 C   0  0  0  0  0  0  0  0  0  0  0  0
   37.8860   30.7330   48.3160 C   0  0  0  0  0  0  0  0  0  0  0  0
   37.1860   30.6620   47.1070 C   0  0  0  0  0  0  0  0  0  0  0  0
   35.8490   30.4520   47.1230 N   0  0  0  0  0  0  0  0  0  0  0  0
   35.1650   30.3080   48.2870 C   0  0  0  0  0  0  0  0  0  0  0  0
   35.8070   30.3710   49.4540 N   0  0  0  0  0  0  0  0  0  0  0  0
   37.7910   30.6410   50.7070 O   0  0  0  0  0  0  0  0  0  0  0  0
   37.3710   29.9510   51.8750 C   0  0  0  0  0  0  0  0  0  0  0  0
   38.9726   30.9022   48.3436 H   0  0  0  0  0  0  0  0  0  0  0  0
   37.7179   30.7759   46.1509 H   0  0  0  0  0  0  0  0  0  0  0  0
   34.0783   30.1389   48.2673 H   0  0  0  0  0  0  0  0  0  0  0  0
   37.7061   30.5015   52.7665 H   0  0  0  0  0  0  0  0  0  0  0  0
   36.2736   29.8755   51.8816 H   0  0  0  0  0  0  0  0  0  0  0  0
   37.8080   28.9416   51.8816 H   0  0  0  0  0  0  0  0  0  0  0  0
  1  7  1  0
  2  1  2  0
  3  4  2  0
  3  2  1  0
  4  5  1  0
  5  6  2  0
  6  1  1  0
  7  8  1  0
  2  9  1  0
  3 10  1  0
  5 11  1  0
  8 12  1  0
  8 13  1  0
  8 14  1  0
M  ISO  6   9  14  10  14  11  14  12   8  13   8  14   8
M  END
>  <minimizedAffinity>  (1) 
-2.92093301

>  <minimizedRMSD>  (1) 
1.67545021

$$$$
