
     RDKit          3D

 30 32  0  0  0  0  0  0  0  0999 V2000
   37.2690   30.4120   49.3130 C   0  0  0  0  0  0  0  0  0  0  0  0
   37.2010   31.5920   50.0710 C   0  0  0  0  0  0  0  0  0  0  0  0
   37.7540   32.7350   49.5150 C   0  0  0  0  0  0  0  0  0  0  0  0
   38.3270   32.6730   48.2940 N   0  0  0  0  0  0  0  0  0  0  0  0
   38.3810   31.5400   47.5920 C   0  0  0  0  0  0  0  0  0  0  0  0
   37.8510   30.4550   48.1270 N   0  0  0  0  0  0  0  0  0  0  0  0
   38.9460   31.2720   46.2630 C   0  0  0  0  0  0  0  0  0  0  0  0
   40.3020   31.4360   45.9490 C   0  0  0  0  0  0  0  0  0  0  0  0
   40.8440   31.1890   44.7170 C   0  0  0  0  0  0  0  0  0  0  0  0
   40.0450   30.7520   43.6940 C   0  0  0  0  0  0  0  0  0  0  0  0
   38.7230   30.5710   43.9290 C   0  0  0  0  0  0  0  0  0  0  0  0
   37.9550   30.1290   42.8760 C   0  0  0  0  0  0  0  0  0  0  0  0
   36.6100   29.9180   43.0290 C   0  0  0  0  0  0  0  0  0  0  0  0
   36.0620   30.1720   44.2910 C   0  0  0  0  0  0  0  0  0  0  0  0
   36.8770   30.6140   45.3090 C   0  0  0  0  0  0  0  0  0  0  0  0
   38.2250   30.8320   45.1790 C   0  0  0  0  0  0  0  0  0  0  0  0
   36.7340   29.2570   49.8280 O   0  0  0  0  0  0  0  0  0  0  0  0
   35.4050   29.0410   50.1570 C   0  0  0  0  0  0  0  0  0  0  0  0
   34.9020   27.8550   49.6640 F   0  0  0  0  0  0  0  0  0  0  0  0
   35.1490   29.1530   51.5060 F   0  0  0  0  0  0  0  0  0  0  0  0
   34.6840   30.0800   49.5370 F   0  0  0  0  0  0  0  0  0  0  0  0
   36.7287   31.6087   51.0643 H   0  0  0  0  0  0  0  0  0  0  0  0
   37.7262   33.6870   50.0653 H   0  0  0  0  0  0  0  0  0  0  0  0
   40.9750   31.7864   46.7454 H   0  0  0  0  0  0  0  0  0  0  0  0
   41.9203   31.3413   44.5484 H   0  0  0  0  0  0  0  0  0  0  0  0
   40.4692   30.5515   42.6991 H   0  0  0  0  0  0  0  0  0  0  0  0
   38.4267   29.9429   41.8998 H   0  0  0  0  0  0  0  0  0  0  0  0
   35.9870   29.5637   42.1945 H   0  0  0  0  0  0  0  0  0  0  0  0
   34.9872   30.0196   44.4688 H   0  0  0  0  0  0  0  0  0  0  0  0
   36.4173   30.8046   46.2900 H   0  0  0  0  0  0  0  0  0  0  0  0
  1 17  1  0
  1  2  2  0
  3  2  1  0
  4  3  2  0
  5  6  2  0
  5  4  1  0
  6  1  1  0
  7  5  1  0
  8  7  2  0
  9  8  1  0
 10 11  1  0
 10  9  2  0
 11 16  2  0
 12 13  2  0
 12 11  1  0
 13 14  1  0
 14 15  2  0
 16 15  1  0
 16  7  1  0
 17 18  1  0
 18 20  1  0
 19 18  1  0
 21 18  1  0
  2 22  1  0
  3 23  1  0
  8 24  1  0
  9 25  1  0
 10 26  1  0
 12 27  1  0
 13 28  1  0
 14 29  1  0
 15 30  1  0
M  ISO  8  22  14  23  14  24  14  25  14  26  14  27  14  28  14  29  14
M  ISO  1  30  14
M  END
>  <minimizedAffinity>  (1) 
-6.49703503

>  <minimizedRMSD>  (1) 
1.66810226

$$$$
