
     RDKit          3D

 29 30  0  0  0  0  0  0  0  0999 V2000
   37.3820   30.5490   49.0000 C   0  0  0  0  0  0  0  0  0  0  0  0
   37.2580   31.6870   49.8560 C   0  0  0  0  0  0  0  0  0  0  0  0
   37.9310   32.8540   49.4870 C   0  0  0  0  0  0  0  0  0  0  0  0
   38.6660   32.8550   48.3380 N   0  0  0  0  0  0  0  0  0  0  0  0
   38.7460   31.7450   47.5680 C   0  0  0  0  0  0  0  0  0  0  0  0
   38.1270   30.6160   47.8760 N   0  0  0  0  0  0  0  0  0  0  0  0
   39.5360   31.8470   46.3940 N   0  0  0  0  0  0  0  0  0  0  0  0
   39.6840   30.6960   45.4930 C   0  0  0  0  0  0  0  0  0  0  0  0
   40.5620   31.0560   44.3410 C   0  0  0  0  0  0  0  0  0  0  0  0
   39.9700   32.2670   43.6500 C   0  0  0  0  0  0  0  0  0  0  0  0
   39.7440   33.4270   44.6030 C   0  0  0  0  0  0  0  0  0  0  0  0
   40.2330   33.0330   45.9960 C   0  0  0  0  0  0  0  0  0  0  0  0
   36.7210   29.4110   49.3690 O   0  0  0  0  0  0  0  0  0  0  0  0
   35.5290   29.3730   50.1060 C   0  0  0  0  0  0  0  0  0  0  0  0
   35.7110   29.3570   51.4730 F   0  0  0  0  0  0  0  0  0  0  0  0
   34.6250   30.3340   49.7660 F   0  0  0  0  0  0  0  0  0  0  0  0
   34.9300   28.1480   49.7820 F   0  0  0  0  0  0  0  0  0  0  0  0
   36.6533   31.6451   50.7739 H   0  0  0  0  0  0  0  0  0  0  0  0
   37.8693   33.7568   50.1124 H   0  0  0  0  0  0  0  0  0  0  0  0
   40.1335   29.8574   46.0449 H   0  0  0  0  0  0  0  0  0  0  0  0
   38.6931   30.4060   45.1136 H   0  0  0  0  0  0  0  0  0  0  0  0
   41.5731   31.2925   44.7040 H   0  0  0  0  0  0  0  0  0  0  0  0
   40.6273   30.2131   43.6372 H   0  0  0  0  0  0  0  0  0  0  0  0
   40.6584   32.5917   42.8559 H   0  0  0  0  0  0  0  0  0  0  0  0
   38.9915   31.9740   43.2418 H   0  0  0  0  0  0  0  0  0  0  0  0
   40.3032   34.3066   44.2516 H   0  0  0  0  0  0  0  0  0  0  0  0
   38.6721   33.6708   44.6420 H   0  0  0  0  0  0  0  0  0  0  0  0
   41.3153   32.8382   45.9698 H   0  0  0  0  0  0  0  0  0  0  0  0
   40.0403   33.8461   46.7113 H   0  0  0  0  0  0  0  0  0  0  0  0
  1 13  1  0
  1  2  2  0
  3  2  1  0
  4  3  2  0
  5  6  2  0
  5  4  1  0
  6  1  1  0
  7  5  1  0
  8  7  1  0
  9  8  1  0
 10  9  1  0
 10 11  1  0
 11 12  1  0
 12  7  1  0
 13 14  1  0
 14 15  1  0
 16 14  1  0
 17 14  1  0
  2 18  1  0
  3 19  1  0
  8 20  1  0
  8 21  1  0
  9 22  1  0
  9 23  1  0
 10 24  1  0
 10 25  1  0
 11 26  1  0
 11 27  1  0
 12 28  1  0
 12 29  1  0
M  ISO  8  18  14  19  14  20  13  21  13  22  13  23  13  24  13  25  13
M  ISO  4  26  13  27  13  28  13  29  13
M  END
>  <minimizedAffinity>  (1) 
-6.3747716

>  <minimizedRMSD>  (1) 
1.67360687

$$$$
