
     RDKit          3D

 26 27  0  0  0  0  0  0  0  0999 V2000
   37.3570   30.2080   49.1820 C   0  0  0  0  0  0  0  0  0  0  0  0
   37.6680   31.1590   50.1920 C   0  0  0  0  0  0  0  0  0  0  0  0
   38.4300   32.2630   49.8380 C   0  0  0  0  0  0  0  0  0  0  0  0
   38.8470   32.3870   48.5400 N   0  0  0  0  0  0  0  0  0  0  0  0
   38.5310   31.4670   47.6230 C   0  0  0  0  0  0  0  0  0  0  0  0
   37.7980   30.3920   47.9330 N   0  0  0  0  0  0  0  0  0  0  0  0
   39.0070   31.6750   46.2960 N   0  0  0  0  0  0  0  0  0  0  0  0
   40.2820   31.1850   45.8030 C   0  0  0  0  0  0  0  0  0  0  0  0
   40.6800   32.1640   44.7110 C   0  0  0  0  0  0  0  0  0  0  0  0
   39.5710   33.1940   44.6660 C   0  0  0  0  0  0  0  0  0  0  0  0
   38.3910   32.3730   45.1820 C   0  0  0  0  0  0  0  0  0  0  0  0
   36.6040   29.1250   49.5460 O   0  0  0  0  0  0  0  0  0  0  0  0
   35.3650   29.1900   50.2050 C   0  0  0  0  0  0  0  0  0  0  0  0
   35.4760   29.1620   51.5830 F   0  0  0  0  0  0  0  0  0  0  0  0
   34.5830   30.2480   49.8100 F   0  0  0  0  0  0  0  0  0  0  0  0
   34.6770   28.0300   49.8390 F   0  0  0  0  0  0  0  0  0  0  0  0
   37.3145   31.0233   51.2248 H   0  0  0  0  0  0  0  0  0  0  0  0
   38.6942   33.0246   50.5864 H   0  0  0  0  0  0  0  0  0  0  0  0
   41.0314   31.1774   46.6082 H   0  0  0  0  0  0  0  0  0  0  0  0
   40.2130   30.1527   45.4293 H   0  0  0  0  0  0  0  0  0  0  0  0
   41.6396   32.6430   44.9554 H   0  0  0  0  0  0  0  0  0  0  0  0
   40.8098   31.6620   43.7409 H   0  0  0  0  0  0  0  0  0  0  0  0
   39.7867   34.0491   45.3235 H   0  0  0  0  0  0  0  0  0  0  0  0
   39.4111   33.6458   43.6759 H   0  0  0  0  0  0  0  0  0  0  0  0
   37.5651   33.0181   45.5162 H   0  0  0  0  0  0  0  0  0  0  0  0
   37.9335   31.7133   44.4300 H   0  0  0  0  0  0  0  0  0  0  0  0
  1 12  1  0
  1  2  2  0
  3  2  1  0
  4  3  2  0
  5  6  2  0
  5  4  1  0
  6  1  1  0
  7  5  1  0
  8  7  1  0
  9  8  1  0
 10  9  1  0
 10 11  1  0
 11  7  1  0
 12 13  1  0
 13 14  1  0
 15 13  1  0
 16 13  1  0
  2 17  1  0
  3 18  1  0
  8 19  1  0
  8 20  1  0
  9 21  1  0
  9 22  1  0
 10 23  1  0
 10 24  1  0
 11 25  1  0
 11 26  1  0
M  ISO  8  17  14  18  14  19  13  20  13  21  13  22  13  23  13  24  13
M  ISO  2  25  13  26  13
M  END
>  <minimizedAffinity>  (1) 
-6.10730457

>  <minimizedRMSD>  (1) 
1.40580809

$$$$
