
     RDKit          3D

 19 20  0  0  0  0  0  0  0  0999 V2000
   37.3830   30.5450   49.1460 C   0  0  0  0  0  0  0  0  0  0  0  0
   37.1770   31.7010   49.9590 C   0  0  0  0  0  0  0  0  0  0  0  0
   37.7720   32.8990   49.5370 C   0  0  0  0  0  0  0  0  0  0  0  0
   38.4970   32.8770   48.3910 N   0  0  0  0  0  0  0  0  0  0  0  0
   38.6620   31.7710   47.6630 C   0  0  0  0  0  0  0  0  0  0  0  0
   38.1210   30.6140   48.0180 N   0  0  0  0  0  0  0  0  0  0  0  0
   39.4690   31.9050   46.4520 C   0  0  0  0  0  0  0  0  0  0  0  0
   40.2950   30.9820   45.8960 N   0  0  0  0  0  0  0  0  0  0  0  0
   40.8520   31.4410   44.8280 O   0  0  0  0  0  0  0  0  0  0  0  0
   40.4230   32.6630   44.6400 C   0  0  0  0  0  0  0  0  0  0  0  0
   39.5600   32.9910   45.6320 N   0  0  0  0  0  0  0  0  0  0  0  0
   36.7890   29.3770   49.5810 O   0  0  0  0  0  0  0  0  0  0  0  0
   35.5050   29.3000   50.1370 C   0  0  0  0  0  0  0  0  0  0  0  0
   35.5370   29.3000   51.5250 F   0  0  0  0  0  0  0  0  0  0  0  0
   34.6500   30.2650   49.6850 F   0  0  0  0  0  0  0  0  0  0  0  0
   34.9790   28.0740   49.7480 F   0  0  0  0  0  0  0  0  0  0  0  0
   36.5759   31.6537   50.8790 H   0  0  0  0  0  0  0  0  0  0  0  0
   37.6544   33.8264   50.1168 H   0  0  0  0  0  0  0  0  0  0  0  0
   40.7166   33.3201   43.8081 H   0  0  0  0  0  0  0  0  0  0  0  0
  1 12  1  0
  1  2  2  0
  3  2  1  0
  4  3  2  0
  5  6  2  0
  5  4  1  0
  6  1  1  0
  7  5  1  0
  8  7  2  0
  9  8  1  0
 10  9  1  0
 10 11  2  0
 11  7  1  0
 12 13  1  0
 13 14  1  0
 15 13  1  0
 16 13  1  0
  2 17  1  0
  3 18  1  0
 10 19  1  0
M  ISO  3  17  14  18  14  19  14
M  END
>  <minimizedAffinity>  (1) 
-5.68356466

>  <minimizedRMSD>  (1) 
1.59668005

$$$$
