
     RDKit          3D

 30 31  0  0  0  0  0  0  0  0999 V2000
   35.3420   30.2520   48.1030 C   0  0  0  0  0  0  0  0  0  0  0  0
   35.6630   30.1290   46.7130 C   0  0  0  0  0  0  0  0  0  0  0  0
   36.8250   30.7420   46.2780 C   0  0  0  0  0  0  0  0  0  0  0  0
   37.5880   31.4190   47.1800 N   0  0  0  0  0  0  0  0  0  0  0  0
   37.2470   31.5080   48.4720 C   0  0  0  0  0  0  0  0  0  0  0  0
   36.1380   30.9290   48.9180 N   0  0  0  0  0  0  0  0  0  0  0  0
   37.2280   30.6780   44.9270 N   0  0  0  0  0  0  0  0  0  0  0  0
   38.5830   30.6350   44.8040 C   0  0  0  0  0  0  0  0  0  0  0  0
   39.1720   30.5690   43.5490 C   0  0  0  0  0  0  0  0  0  0  0  0
   40.6520   30.5210   43.3630 C   0  0  0  0  0  0  0  0  0  0  0  0
   38.3240   30.5490   42.4600 C   0  0  0  0  0  0  0  0  0  0  0  0
   38.7790   30.4900   41.2710 O   0  0  0  0  0  0  0  0  0  0  0  0
   36.9800   30.5930   42.6030 N   0  0  0  0  0  0  0  0  0  0  0  0
   36.4280   30.6570   43.8450 C   0  0  0  0  0  0  0  0  0  0  0  0
   35.2100   30.6990   44.0690 O   0  0  0  0  0  0  0  0  0  0  0  0
   38.1860   32.2820   49.3270 C   0  0  0  0  0  0  0  0  0  0  0  0
   38.7400   31.4570   50.2960 F   0  0  0  0  0  0  0  0  0  0  0  0
   39.2330   32.7410   48.5550 F   0  0  0  0  0  0  0  0  0  0  0  0
   37.5810   33.3870   49.9060 F   0  0  0  0  0  0  0  0  0  0  0  0
   34.1800   29.6390   48.5370 O   0  0  0  0  0  0  0  0  0  0  0  0
   34.1040   28.3810   49.1230 C   0  0  0  0  0  0  0  0  0  0  0  0
   34.3900   27.3510   48.2320 F   0  0  0  0  0  0  0  0  0  0  0  0
   34.8540   28.2450   50.2640 F   0  0  0  0  0  0  0  0  0  0  0  0
   32.7680   28.2180   49.4730 F   0  0  0  0  0  0  0  0  0  0  0  0
   35.0144   29.5716   46.0212 H   0  0  0  0  0  0  0  0  0  0  0  0
   39.2147   30.6527   45.7044 H   0  0  0  0  0  0  0  0  0  0  0  0
   41.1448   30.5050   44.3463 H   0  0  0  0  0  0  0  0  0  0  0  0
   40.9219   29.6136   42.8028 H   0  0  0  0  0  0  0  0  0  0  0  0
   40.9801   31.4090   42.8028 H   0  0  0  0  0  0  0  0  0  0  0  0
   36.3734   30.5780   41.7707 H   0  0  0  0  0  0  0  0  0  0  0  0
  1 20  1  0
  1  6  2  0
  2  1  1  0
  3  2  2  0
  3  4  1  0
  4  5  2  0
  5  6  1  0
  5 16  1  0
  7  3  1  0
  8  7  1  0
  9  8  2  0
 10  9  1  0
 11 13  1  0
 11  9  1  0
 12 11  2  0
 13 14  1  0
 14 15  2  0
 14  7  1  0
 16 19  1  0
 16 17  1  0
 18 16  1  0
 20 21  1  0
 21 24  1  0
 21 23  1  0
 22 21  1  0
  2 25  1  0
  8 26  1  0
 10 27  1  0
 10 28  1  0
 10 29  1  0
 13 30  1  0
M  ISO  6  25  14  26  14  27   8  28   8  29   8  30   9
M  END
>  <minimizedAffinity>  (1) 
-6.42217588

>  <minimizedRMSD>  (1) 
6.34733343

$$$$
