
     RDKit          3D

 27 28  0  0  0  0  0  0  0  0999 V2000
   37.3070   31.2040   44.7920 C   0  0  0  0  0  0  0  0  0  0  0  0
   36.9380   30.6850   46.0680 C   0  0  0  0  0  0  0  0  0  0  0  0
   37.6890   31.0610   47.1650 C   0  0  0  0  0  0  0  0  0  0  0  0
   38.7370   31.9090   46.9470 N   0  0  0  0  0  0  0  0  0  0  0  0
   39.0610   32.3800   45.7420 C   0  0  0  0  0  0  0  0  0  0  0  0
   38.3540   32.0320   44.6760 N   0  0  0  0  0  0  0  0  0  0  0  0
   37.4030   30.5970   48.4910 C   0  0  0  0  0  0  0  0  0  0  0  0
   38.0750   31.0040   49.6180 C   0  0  0  0  0  0  0  0  0  0  0  0
   37.7960   30.5510   50.9110 C   0  0  0  0  0  0  0  0  0  0  0  0
   36.7790   29.6340   51.0650 C   0  0  0  0  0  0  0  0  0  0  0  0
   36.0650   29.1850   49.9700 C   0  0  0  0  0  0  0  0  0  0  0  0
   36.3960   29.6790   48.7060 C   0  0  0  0  0  0  0  0  0  0  0  0
   40.2350   33.2900   45.7150 C   0  0  0  0  0  0  0  0  0  0  0  0
   40.3610   33.9490   46.9500 F   0  0  0  0  0  0  0  0  0  0  0  0
   41.3910   32.5770   45.5470 F   0  0  0  0  0  0  0  0  0  0  0  0
   40.1490   34.2230   44.6870 F   0  0  0  0  0  0  0  0  0  0  0  0
   36.5580   30.8310   43.6910 O   0  0  0  0  0  0  0  0  0  0  0  0
   35.4790   31.5270   43.1860 C   0  0  0  0  0  0  0  0  0  0  0  0
   34.2710   31.2460   43.8190 F   0  0  0  0  0  0  0  0  0  0  0  0
   35.6620   32.8930   43.1420 F   0  0  0  0  0  0  0  0  0  0  0  0
   35.3450   31.1000   41.8610 F   0  0  0  0  0  0  0  0  0  0  0  0
   36.0802   30.0049   46.1757 H   0  0  0  0  0  0  0  0  0  0  0  0
   38.8872   31.7355   49.4948 H   0  0  0  0  0  0  0  0  0  0  0  0
   38.3693   30.9145   51.7766 H   0  0  0  0  0  0  0  0  0  0  0  0
   36.5332   29.2560   52.0683 H   0  0  0  0  0  0  0  0  0  0  0  0
   35.2525   28.4535   50.0915 H   0  0  0  0  0  0  0  0  0  0  0  0
   35.8248   29.3177   47.8382 H   0  0  0  0  0  0  0  0  0  0  0  0
  1  2  2  0
  2  3  1  0
  3  7  1  0
  4  3  2  0
  5  4  1  0
  6  1  1  0
  6  5  2  0
  7 12  1  0
  7  8  2  0
  8  9  1  0
  9 10  2  0
 11 10  1  0
 12 11  2  0
 13  5  1  0
 13 14  1  0
 15 13  1  0
 16 13  1  0
 17  1  1  0
 18 17  1  0
 18 19  1  0
 20 18  1  0
 21 18  1  0
  2 22  1  0
  8 23  1  0
  9 24  1  0
 10 25  1  0
 11 26  1  0
 12 27  1  0
M  ISO  6  22  14  23  14  24  14  25  14  26  14  27  14
M  END
>  <minimizedAffinity>  (1) 
-6.42055321

>  <minimizedRMSD>  (1) 
5.18386126

$$$$
