
     RDKit          3D

 34 35  0  0  0  0  0  0  0  0999 V2000
   39.2140   32.2760   46.0700 C   0  0  0  0  0  0  0  0  0  0  0  0
   37.7140   32.4230   49.5470 C   0  0  0  0  0  0  0  0  0  0  0  0
   38.5700   32.7220   48.4770 C   0  0  0  0  0  0  0  0  0  0  0  0
   38.3920   32.0590   47.2690 C   0  0  0  0  0  0  0  0  0  0  0  0
   37.3720   31.1320   47.1900 N   0  0  0  0  0  0  0  0  0  0  0  0
   36.5680   30.8640   48.2320 C   0  0  0  0  0  0  0  0  0  0  0  0
   36.7190   31.4910   49.4080 N   0  0  0  0  0  0  0  0  0  0  0  0
   40.0710   31.0230   45.8870 C   0  0  0  0  0  0  0  0  0  0  0  0
   40.1080   33.4640   46.1470 C   0  0  0  0  0  0  0  0  0  0  0  0
   38.2940   32.4060   44.8880 C   0  0  0  0  0  0  0  0  0  0  0  0
   38.7820   31.6710   43.6860 C   0  0  0  0  0  0  0  0  0  0  0  0
   39.6350   32.3340   42.7400 C   0  0  0  0  0  0  0  0  0  0  0  0
   39.9170   31.0040   41.5080 S   0  0  0  0  0  0  0  0  0  0  0  0
   38.8360   29.7960   42.4890 C   0  0  0  0  0  0  0  0  0  0  0  0
   38.5140   30.4250   43.3670 N   0  0  0  0  0  0  0  0  0  0  0  0
   38.6040   28.3910   42.0210 C   0  0  0  0  0  0  0  0  0  0  0  0
   39.8090   27.5990   42.5040 C   0  0  0  0  0  0  0  0  0  0  0  0
   37.8427   32.9422   50.5082 H   0  0  0  0  0  0  0  0  0  0  0  0
   39.3691   33.4691   48.5923 H   0  0  0  0  0  0  0  0  0  0  0  0
   35.7699   30.1155   48.1187 H   0  0  0  0  0  0  0  0  0  0  0  0
   40.3466   30.6201   46.8728 H   0  0  0  0  0  0  0  0  0  0  0  0
   39.5001   30.2667   45.3283 H   0  0  0  0  0  0  0  0  0  0  0  0
   40.9828   31.2808   45.3283 H   0  0  0  0  0  0  0  0  0  0  0  0
   40.2959   33.7137   47.2017 H   0  0  0  0  0  0  0  0  0  0  0  0
   41.0620   33.2380   45.6481 H   0  0  0  0  0  0  0  0  0  0  0  0
   39.6267   34.3181   45.6481 H   0  0  0  0  0  0  0  0  0  0  0  0
   37.3074   32.0070   45.1662 H   0  0  0  0  0  0  0  0  0  0  0  0
   38.2461   33.4728   44.6242 H   0  0  0  0  0  0  0  0  0  0  0  0
   40.0177   33.3652   42.7510 H   0  0  0  0  0  0  0  0  0  0  0  0
   37.6785   27.9879   42.4580 H   0  0  0  0  0  0  0  0  0  0  0  0
   38.4914   28.3377   40.9281 H   0  0  0  0  0  0  0  0  0  0  0  0
   39.8243   27.5890   43.6038 H   0  0  0  0  0  0  0  0  0  0  0  0
   39.7439   26.5670   42.1288 H   0  0  0  0  0  0  0  0  0  0  0  0
   40.7305   28.0681   42.1288 H   0  0  0  0  0  0  0  0  0  0  0  0
  1  9  1  0
  1  4  1  0
  3  2  2  0
  4  3  1  0
  5  4  2  0
  5  6  1  0
  6  7  2  0
  7  2  1  0
  8  1  1  0
 10  1  1  0
 11 10  1  0
 12 11  2  0
 13 14  1  0
 13 12  1  0
 14 15  2  0
 15 11  1  0
 16 14  1  0
 16 17  1  0
  2 18  1  0
  3 19  1  0
  6 20  1  0
  8 21  1  0
  8 22  1  0
  8 23  1  0
  9 24  1  0
  9 25  1  0
  9 26  1  0
 10 27  1  0
 10 28  1  0
 12 29  1  0
 16 30  1  0
 16 31  1  0
 17 32  1  0
 17 33  1  0
 17 34  1  0
M  ISO  8  18  14  19  14  20  14  21   8  22   8  23   8  24   8  25   8
M  ISO  8  26   8  27   8  28   8  29  14  30   8  31   8  32   8  33   8
M  ISO  1  34   8
M  END
>  <minimizedAffinity>  (1) 
-4.64881134

>  <minimizedRMSD>  (1) 
0.345736057

$$$$
