
     RDKit          3D

 32 33  0  0  0  0  0  0  0  0999 V2000
   36.7680   29.6280   48.9370 C   0  0  0  0  0  0  0  0  0  0  0  0
   37.8300   30.2390   48.1940 C   0  0  0  0  0  0  0  0  0  0  0  0
   37.5520   30.7050   46.9200 C   0  0  0  0  0  0  0  0  0  0  0  0
   36.3000   30.5630   46.4360 N   0  0  0  0  0  0  0  0  0  0  0  0
   35.3140   29.9820   47.1580 C   0  0  0  0  0  0  0  0  0  0  0  0
   35.5630   29.5290   48.3860 N   0  0  0  0  0  0  0  0  0  0  0  0
   38.5770   31.3130   46.1560 N   0  0  0  0  0  0  0  0  0  0  0  0
   39.0030   32.6530   46.4750 C   0  0  0  0  0  0  0  0  0  0  0  0
   40.3150   33.0200   45.8410 C   0  0  0  0  0  0  0  0  0  0  0  0
   40.4010   32.6750   44.3840 C   0  0  0  0  0  0  0  0  0  0  0  0
   39.3690   31.6690   43.9490 C   0  0  0  0  0  0  0  0  0  0  0  0
   39.2190   30.6450   45.0630 C   0  0  0  0  0  0  0  0  0  0  0  0
   33.9840   29.8980   46.4900 C   0  0  0  0  0  0  0  0  0  0  0  0
   33.1760   30.9470   46.9160 F   0  0  0  0  0  0  0  0  0  0  0  0
   34.1420   30.0630   45.1310 F   0  0  0  0  0  0  0  0  0  0  0  0
   33.3740   28.6700   46.6840 F   0  0  0  0  0  0  0  0  0  0  0  0
   37.0550   29.1710   50.1970 O   0  0  0  0  0  0  0  0  0  0  0  0
   36.8690   29.8940   51.3740 C   0  0  0  0  0  0  0  0  0  0  0  0
   37.8030   29.6170   52.3530 F   0  0  0  0  0  0  0  0  0  0  0  0
   36.7720   31.2620   51.1920 F   0  0  0  0  0  0  0  0  0  0  0  0
   35.6340   29.4920   51.8790 F   0  0  0  0  0  0  0  0  0  0  0  0
   38.8380   30.3352   48.6237 H   0  0  0  0  0  0  0  0  0  0  0  0
   38.2349   33.3577   46.1237 H   0  0  0  0  0  0  0  0  0  0  0  0
   39.1396   32.7034   47.5653 H   0  0  0  0  0  0  0  0  0  0  0  0
   40.4612   34.1048   45.9497 H   0  0  0  0  0  0  0  0  0  0  0  0
   41.0932   32.4366   46.3547 H   0  0  0  0  0  0  0  0  0  0  0  0
   40.2602   33.5954   43.7982 H   0  0  0  0  0  0  0  0  0  0  0  0
   41.3892   32.2228   44.2138 H   0  0  0  0  0  0  0  0  0  0  0  0
   38.4072   32.1725   43.7717 H   0  0  0  0  0  0  0  0  0  0  0  0
   39.6809   31.1780   43.0154 H   0  0  0  0  0  0  0  0  0  0  0  0
   38.6027   29.8006   44.7207 H   0  0  0  0  0  0  0  0  0  0  0  0
   40.1979   30.2447   45.3654 H   0  0  0  0  0  0  0  0  0  0  0  0
  1 17  1  0
  2  1  2  0
  3  2  1  0
  4  3  2  0
  4  5  1  0
  5  6  2  0
  6  1  1  0
  7  8  1  0
  7  3  1  0
  9  8  1  0
 10  9  1  0
 11 10  1  0
 11 12  1  0
 12  7  1  0
 13 16  1  0
 13 14  1  0
 13  5  1  0
 15 13  1  0
 17 18  1  0
 18 21  1  0
 18 19  1  0
 20 18  1  0
  2 22  1  0
  8 23  1  0
  8 24  1  0
  9 25  1  0
  9 26  1  0
 10 27  1  0
 10 28  1  0
 11 29  1  0
 11 30  1  0
 12 31  1  0
 12 32  1  0
M  ISO  8  22  14  23  13  24  13  25  13  26  13  27  13  28  13  29  13
M  ISO  3  30  13  31  13  32  13
M  END
>  <minimizedAffinity>  (1) 
-6.09916449

>  <minimizedRMSD>  (1) 
4.78597212

$$$$
