
     RDKit          3D

 24 24  0  0  0  0  0  0  0  0999 V2000
   36.5650   30.3440   47.9610 C   0  0  0  0  0  0  0  0  0  0  0  0
   36.8340   31.3890   48.8890 C   0  0  0  0  0  0  0  0  0  0  0  0
   37.9590   32.1970   48.6680 C   0  0  0  0  0  0  0  0  0  0  0  0
   38.7050   31.9200   47.5860 N   0  0  0  0  0  0  0  0  0  0  0  0
   38.4340   30.9330   46.7270 C   0  0  0  0  0  0  0  0  0  0  0  0
   37.3740   30.1630   46.9240 N   0  0  0  0  0  0  0  0  0  0  0  0
   38.2410   33.2290   49.5740 N   0  0  0  0  0  0  0  0  0  0  0  0
   39.3600   34.0670   49.3810 C   0  0  0  0  0  0  0  0  0  0  0  0
   39.7100   34.4340   48.2000 N   0  0  0  0  0  0  0  0  0  0  0  0
   40.1390   34.5370   50.4890 N   0  0  0  0  0  0  0  0  0  0  0  0
   39.2680   34.1940   47.3080 H   0  0  0  0  0  0  0  0  0  0  0  0
   39.3840   30.7890   45.5880 C   0  0  0  0  0  0  0  0  0  0  0  0
   39.2190   31.8330   44.6860 F   0  0  0  0  0  0  0  0  0  0  0  0
   40.6770   30.8610   46.0490 F   0  0  0  0  0  0  0  0  0  0  0  0
   39.2390   29.5690   44.9390 F   0  0  0  0  0  0  0  0  0  0  0  0
   35.4550   29.5580   48.1910 O   0  0  0  0  0  0  0  0  0  0  0  0
   35.2030   28.8420   49.3440 C   0  0  0  0  0  0  0  0  0  0  0  0
   36.3300   28.4730   50.0530 F   0  0  0  0  0  0  0  0  0  0  0  0
   34.2970   29.4520   50.1930 F   0  0  0  0  0  0  0  0  0  0  0  0
   34.5830   27.6570   48.9260 F   0  0  0  0  0  0  0  0  0  0  0  0
   36.1779   31.5583   49.7555 H   0  0  0  0  0  0  0  0  0  0  0  0
   37.6264   33.3768   50.3872 H   0  0  0  0  0  0  0  0  0  0  0  0
   40.9518   35.1479   50.3247 H   0  0  0  0  0  0  0  0  0  0  0  0
   39.8858   34.2638   51.4493 H   0  0  0  0  0  0  0  0  0  0  0  0
  1 16  1  0
  1  2  2  0
  3  2  1  0
  3  7  1  0
  4  3  2  0
  5  6  2  0
  5  4  1  0
  6  1  1  0
  8  7  1  0
  8 10  1  0
  9  8  2  0
 11  9  1  0
 12 14  1  0
 12  5  1  0
 13 12  1  0
 15 12  1  0
 16 17  1  0
 17 18  1  0
 17 19  1  0
 20 17  1  0
  2 21  1  0
  7 22  1  0
 10 23  1  0
 10 24  1  0
M  ISO  1  21  14
M  END
>  <minimizedAffinity>  (1) 
-5.71479559

>  <minimizedRMSD>  (1) 
1.22690916

$$$$
