
     RDKit          3D

 26 27  0  0  0  0  0  0  0  0999 V2000
   34.8990   29.8690   47.5980 C   0  0  0  0  0  0  0  0  0  0  0  0
   35.8800   30.3760   48.5210 C   0  0  0  0  0  0  0  0  0  0  0  0
   37.0660   30.8920   47.9940 C   0  0  0  0  0  0  0  0  0  0  0  0
   37.2200   30.8810   46.6390 N   0  0  0  0  0  0  0  0  0  0  0  0
   36.2840   30.4000   45.8100 C   0  0  0  0  0  0  0  0  0  0  0  0
   35.1490   29.9040   46.2810 N   0  0  0  0  0  0  0  0  0  0  0  0
   36.6260   30.4710   44.3670 C   0  0  0  0  0  0  0  0  0  0  0  0
   37.9510   30.8760   44.2020 F   0  0  0  0  0  0  0  0  0  0  0  0
   36.5370   29.2230   43.8030 F   0  0  0  0  0  0  0  0  0  0  0  0
   35.7620   31.3060   43.6620 F   0  0  0  0  0  0  0  0  0  0  0  0
   38.0910   31.4180   48.8810 C   0  0  0  0  0  0  0  0  0  0  0  0
   38.3590   30.8150   49.9400 O   0  0  0  0  0  0  0  0  0  0  0  0
   38.8090   32.6410   48.5480 C   0  0  0  0  0  0  0  0  0  0  0  0
   39.0080   33.7000   49.4200 C   0  0  0  0  0  0  0  0  0  0  0  0
   39.7290   34.6410   48.7040 C   0  0  0  0  0  0  0  0  0  0  0  0
   39.9180   34.1240   47.4920 N   0  0  0  0  0  0  0  0  0  0  0  0
   39.3830   32.9130   47.3410 N   0  0  0  0  0  0  0  0  0  0  0  0
   33.7320   29.3610   48.1170 O   0  0  0  0  0  0  0  0  0  0  0  0
   33.6520   28.5940   49.2740 C   0  0  0  0  0  0  0  0  0  0  0  0
   34.6490   27.6260   49.3700 F   0  0  0  0  0  0  0  0  0  0  0  0
   33.5990   29.3130   50.4390 F   0  0  0  0  0  0  0  0  0  0  0  0
   32.4330   27.8940   49.1850 F   0  0  0  0  0  0  0  0  0  0  0  0
   35.7015   30.3577   49.6063 H   0  0  0  0  0  0  0  0  0  0  0  0
   38.6651   33.7769   50.4624 H   0  0  0  0  0  0  0  0  0  0  0  0
   40.0763   35.6204   49.0649 H   0  0  0  0  0  0  0  0  0  0  0  0
   40.4287   34.6130   46.7430 H   0  0  0  0  0  0  0  0  0  0  0  0
  1 18  1  0
  1  2  2  0
  3  2  1  0
  3 11  1  0
  4  3  2  0
  5  6  2  0
  5  4  1  0
  6  1  1  0
  7  5  1  0
  8  7  1  0
  9  7  1  0
 10  7  1  0
 11 12  2  0
 13 11  1  0
 13 14  1  0
 15 14  2  0
 16 15  1  0
 17 16  1  0
 17 13  2  0
 18 19  1  0
 19 20  1  0
 19 21  1  0
 22 19  1  0
  2 23  1  0
 14 24  1  0
 15 25  1  0
 16 26  1  0
M  ISO  4  23  14  24  14  25  14  26   9
M  END
>  <minimizedAffinity>  (1) 
-5.72860813

>  <minimizedRMSD>  (1) 
2.82569695

$$$$
