
     RDKit          3D

 25 26  0  0  0  0  0  0  0  0999 V2000
   36.3570   29.9300   48.4920 C   0  0  0  0  0  0  0  0  0  0  0  0
   37.5290   30.6500   48.0710 C   0  0  0  0  0  0  0  0  0  0  0  0
   37.6130   31.0820   46.7600 C   0  0  0  0  0  0  0  0  0  0  0  0
   36.5550   30.7880   45.9390 N   0  0  0  0  0  0  0  0  0  0  0  0
   35.4740   30.1170   46.3510 C   0  0  0  0  0  0  0  0  0  0  0  0
   35.3810   29.6950   47.6130 N   0  0  0  0  0  0  0  0  0  0  0  0
   34.4330   29.8930   45.3270 C   0  0  0  0  0  0  0  0  0  0  0  0
   34.7430   30.6040   44.1600 F   0  0  0  0  0  0  0  0  0  0  0  0
   34.4080   28.5780   44.9660 F   0  0  0  0  0  0  0  0  0  0  0  0
   33.1580   30.2190   45.7800 F   0  0  0  0  0  0  0  0  0  0  0  0
   38.7770   31.8190   46.2720 C   0  0  0  0  0  0  0  0  0  0  0  0
   39.3910   32.5420   47.0820 O   0  0  0  0  0  0  0  0  0  0  0  0
   39.2410   31.7330   44.8700 C   0  0  0  0  0  0  0  0  0  0  0  0
   38.8090   32.6980   44.0000 C   0  0  0  0  0  0  0  0  0  0  0  0
   39.6210   32.1900   42.4230 S   0  0  0  0  0  0  0  0  0  0  0  0
   40.4280   30.6980   43.2840 C   0  0  0  0  0  0  0  0  0  0  0  0
   40.0490   30.8050   44.3400 N   0  0  0  0  0  0  0  0  0  0  0  0
   36.2840   29.5050   49.7970 O   0  0  0  0  0  0  0  0  0  0  0  0
   35.1010   29.3000   50.5020 C   0  0  0  0  0  0  0  0  0  0  0  0
   35.2630   29.1590   51.8680 F   0  0  0  0  0  0  0  0  0  0  0  0
   34.1140   30.2280   50.2520 F   0  0  0  0  0  0  0  0  0  0  0  0
   34.6070   28.0690   50.0250 F   0  0  0  0  0  0  0  0  0  0  0  0
   38.3449   30.8536   48.7801 H   0  0  0  0  0  0  0  0  0  0  0  0
   38.1477   33.5558   44.1919 H   0  0  0  0  0  0  0  0  0  0  0  0
   41.0923   29.9300   42.8610 H   0  0  0  0  0  0  0  0  0  0  0  0
  1 18  1  0
  2  1  2  0
  3  2  1  0
  4  5  1  0
  4  3  2  0
  5  6  2  0
  6  1  1  0
  7 10  1  0
  7  5  1  0
  8  7  1  0
  9  7  1  0
 11  3  1  0
 11 12  2  0
 13 11  1  0
 14 13  2  0
 15 16  1  0
 15 14  1  0
 16 17  2  0
 17 13  1  0
 18 19  1  0
 19 20  1  0
 21 19  1  0
 22 19  1  0
  2 23  1  0
 14 24  1  0
 16 25  1  0
M  ISO  3  23  14  24  14  25  14
M  END
>  <minimizedAffinity>  (1) 
-5.16901398

>  <minimizedRMSD>  (1) 
3.83246517

$$$$
