
     RDKit          3D

 41 43  0  0  1  0  0  0  0  0999 V2000
   35.4800   30.1860   45.9470 C   0  0  0  0  0  0  0  0  0  0  0  0
   34.9120   29.9490   47.0200 O   0  0  0  0  0  0  0  0  0  0  0  0
   34.7080   29.9310   44.7840 N   0  0  0  0  0  0  0  0  0  0  0  0
   34.7550   30.9790   43.7640 C   0  0  0  0  0  0  0  0  0  0  0  0
   33.6430   30.8140   42.7630 C   0  0  0  0  0  0  0  0  0  0  0  0
   32.5250   30.3590   43.4880 O   0  0  0  0  0  0  0  0  0  0  0  0
   32.7560   28.9890   43.6580 C   0  0  0  0  0  0  0  0  0  0  0  0
   33.9300   28.7230   44.5940 C   0  0  2  0  0  0  0  0  0  0  0  0
   38.6510   31.9530   47.0010 C   0  0  0  0  0  0  0  0  0  0  0  0
   37.2950   31.4890   47.0180 C   0  0  0  0  0  0  0  0  0  0  0  0
   36.8520   30.6870   45.9780 C   0  0  0  0  0  0  0  0  0  0  0  0
   37.7550   30.3940   45.0000 N   0  0  0  0  0  0  0  0  0  0  0  0
   39.0150   30.8420   45.0110 C   0  0  0  0  0  0  0  0  0  0  0  0
   39.4470   31.6070   45.9970 N   0  0  0  0  0  0  0  0  0  0  0  0
   39.8510   30.4200   43.8620 C   0  0  0  0  0  0  0  0  0  0  0  0
   39.6740   29.0610   43.6130 F   0  0  0  0  0  0  0  0  0  0  0  0
   39.4250   31.0650   42.7230 F   0  0  0  0  0  0  0  0  0  0  0  0
   41.1890   30.7340   44.0260 F   0  0  0  0  0  0  0  0  0  0  0  0
   39.0670   32.7510   48.0490 O   0  0  0  0  0  0  0  0  0  0  0  0
   38.6020   32.6510   49.3560 C   0  0  0  0  0  0  0  0  0  0  0  0
   37.2920   33.1140   49.5140 F   0  0  0  0  0  0  0  0  0  0  0  0
   38.7430   31.4160   49.9170 F   0  0  0  0  0  0  0  0  0  0  0  0
   39.4250   33.5280   50.0910 F   0  0  0  0  0  0  0  0  0  0  0  0
   33.4410   28.1040   45.8510 C   0  0  0  0  0  0  0  0  0  0  0  0
   33.9750   27.0190   46.5030 C   0  0  0  0  0  0  0  0  0  0  0  0
   33.4670   26.4860   47.6630 C   0  0  0  0  0  0  0  0  0  0  0  0
   32.3620   27.0320   48.2450 C   0  0  0  0  0  0  0  0  0  0  0  0
   31.8520   28.1060   47.5790 C   0  0  0  0  0  0  0  0  0  0  0  0
   32.3360   28.6230   46.4630 N   0  0  0  0  0  0  0  0  0  0  0  0
   34.6558   31.9597   44.2522 H   0  0  0  0  0  0  0  0  0  0  0  0
   35.7156   30.9057   43.2330 H   0  0  0  0  0  0  0  0  0  0  0  0
   33.9261   30.0772   41.9968 H   0  0  0  0  0  0  0  0  0  0  0  0
   33.4266   31.7601   42.2453 H   0  0  0  0  0  0  0  0  0  0  0  0
   31.8522   28.5255   44.0803 H   0  0  0  0  0  0  0  0  0  0  0  0
   32.9991   28.5594   42.6750 H   0  0  0  0  0  0  0  0  0  0  0  0
   34.6227   27.9956   44.1455 H   0  0  0  0  0  0  0  0  0  0  0  0
   36.6188   31.7642   47.8408 H   0  0  0  0  0  0  0  0  0  0  0  0
   34.8677   26.5460   46.0678 H   0  0  0  0  0  0  0  0  0  0  0  0
   33.9544   25.6144   48.1243 H   0  0  0  0  0  0  0  0  0  0  0  0
   31.9199   26.6394   49.1726 H   0  0  0  0  0  0  0  0  0  0  0  0
   30.9592   28.5846   48.0078 H   0  0  0  0  0  0  0  0  0  0  0  0
  1 11  1  0
  1  2  2  0
  3  1  1  0
  4  3  1  0
  5  6  1  0
  5  4  1  0
  6  7  1  0
  7  8  1  0
  8  3  1  0
  8 24  1  0
  9 10  2  0
  9 19  1  0
 11 10  1  0
 12 13  1  0
 12 11  2  0
 13 14  2  0
 14  9  1  0
 15 18  1  0
 15 13  1  0
 16 15  1  0
 17 15  1  0
 19 20  1  0
 20 21  1  0
 20 22  1  0
 20 23  1  0
 24 29  1  0
 24 25  2  0
 25 26  1  0
 26 27  2  0
 28 27  1  0
 29 28  2  0
  4 30  1  0
  4 31  1  0
  5 32  1  0
  5 33  1  0
  7 34  1  0
  7 35  1  0
  8 36  1  6
 10 37  1  0
 25 38  1  0
 26 39  1  0
 27 40  1  0
 28 41  1  0
M  ISO  8  30  13  31  13  32  13  33  13  34  13  35  13  36  13  37  14
M  ISO  4  38  14  39  14  40  14  41  14
M  END
>  <minimizedAffinity>  (1) 
-5.8016305

>  <minimizedRMSD>  (1) 
6.79342127

$$$$
