
     RDKit          3D

 41 44  0  0  1  0  0  0  0  0999 V2000
   37.3920   30.9920   46.5990 C   0  0  0  0  0  0  0  0  0  0  0  0
   37.5190   31.3030   47.7920 O   0  0  0  0  0  0  0  0  0  0  0  0
   38.5030   31.3140   45.7650 N   0  0  0  0  0  0  0  0  0  0  0  0
   38.9100   30.2780   44.8430 C   0  0  0  0  0  0  0  0  0  0  0  0
   40.2900   30.5360   44.2960 C   0  0  0  0  0  0  0  0  0  0  0  0
   41.0320   31.1280   45.3360 O   0  0  0  0  0  0  0  0  0  0  0  0
   40.6190   32.4680   45.3370 C   0  0  0  0  0  0  0  0  0  0  0  0
   39.1850   32.6010   45.8360 C   0  0  2  0  0  0  0  0  0  0  0  0
   34.0150   29.3060   46.6290 C   0  0  0  0  0  0  0  0  0  0  0  0
   35.2130   29.9380   47.1010 C   0  0  0  0  0  0  0  0  0  0  0  0
   36.1570   30.3440   46.1660 C   0  0  0  0  0  0  0  0  0  0  0  0
   35.8750   30.1100   44.8560 N   0  0  0  0  0  0  0  0  0  0  0  0
   34.7510   29.5190   44.4440 C   0  0  0  0  0  0  0  0  0  0  0  0
   33.8430   29.1270   45.3120 N   0  0  0  0  0  0  0  0  0  0  0  0
   34.6190   29.3480   42.9790 C   0  0  0  0  0  0  0  0  0  0  0  0
   34.4680   30.5900   42.3580 F   0  0  0  0  0  0  0  0  0  0  0  0
   35.7860   28.8200   42.4750 F   0  0  0  0  0  0  0  0  0  0  0  0
   33.6070   28.4700   42.6300 F   0  0  0  0  0  0  0  0  0  0  0  0
   33.0910   28.9130   47.5850 O   0  0  0  0  0  0  0  0  0  0  0  0
   33.3640   28.0410   48.6330 C   0  0  0  0  0  0  0  0  0  0  0  0
   34.2230   27.0060   48.2720 F   0  0  0  0  0  0  0  0  0  0  0  0
   33.7830   28.6400   49.7780 F   0  0  0  0  0  0  0  0  0  0  0  0
   32.1240   27.4340   48.9220 F   0  0  0  0  0  0  0  0  0  0  0  0
   39.2770   33.1250   47.2100 C   0  0  0  0  0  0  0  0  0  0  0  0
   39.9410   34.2740   47.6470 C   0  0  0  0  0  0  0  0  0  0  0  0
   39.9320   34.5810   48.9720 C   0  0  0  0  0  0  0  0  0  0  0  0
   39.2090   33.6510   49.8180 C   0  0  0  0  0  0  0  0  0  0  0  0
   38.5930   32.4070   48.6740 S   0  0  1  0  0  0  0  0  0  0  0  0
   36.9488   31.9767   46.3895 H   0  0  0  0  0  0  0  0  0  0  0  0
   38.9087   29.3115   45.3682 H   0  0  0  0  0  0  0  0  0  0  0  0
   38.2018   30.2675   44.0014 H   0  0  0  0  0  0  0  0  0  0  0  0
   40.7584   29.5900   43.9867 H   0  0  0  0  0  0  0  0  0  0  0  0
   40.2503   31.1924   43.4142 H   0  0  0  0  0  0  0  0  0  0  0  0
   41.2832   33.0480   45.9946 H   0  0  0  0  0  0  0  0  0  0  0  0
   40.6663   32.8485   44.3060 H   0  0  0  0  0  0  0  0  0  0  0  0
   38.5879   33.2856   45.2157 H   0  0  0  0  0  0  0  0  0  0  0  0
   35.3802   30.0973   48.1765 H   0  0  0  0  0  0  0  0  0  0  0  0
   40.4644   34.9221   46.9286 H   0  0  0  0  0  0  0  0  0  0  0  0
   40.4374   35.4717   49.3735 H   0  0  0  0  0  0  0  0  0  0  0  0
   39.0695   33.6960   50.9082 H   0  0  0  0  0  0  0  0  0  0  0  0
   38.3920   31.6371   49.7892 H   0  0  0  0  0  0  0  0  0  0  0  0
  1 11  1  0
  1  2  1  0
  2 28  1  0
  3  4  1  0
  3  8  1  0
  3  1  1  0
  5  4  1  0
  5  6  1  0
  6  7  1  0
  7  8  1  0
  8 24  1  0
  9 10  2  0
  9 19  1  0
 11 10  1  0
 12 11  2  0
 13 12  1  0
 13 14  2  0
 14  9  1  0
 15 13  1  0
 16 15  1  0
 17 15  1  0
 18 15  1  0
 19 20  1  0
 20 23  1  0
 20 22  1  0
 21 20  1  0
 24 25  2  0
 24 28  1  0
 25 26  1  0
 26 27  2  0
 28 27  1  0
  1 29  1  0
  4 30  1  0
  4 31  1  0
  5 32  1  0
  5 33  1  0
  7 34  1  0
  7 35  1  0
  8 36  1  6
 10 37  1  0
 25 38  1  0
 26 39  1  0
 27 40  1  0
 28 41  1  0
M  ISO  8  29  13  30  13  31  13  32  13  33  13  34  13  35  13  36  13
M  ISO  4  37  14  38  13  39  13  40  13
M  END
>  <minimizedAffinity>  (1) 
-5.20629597

>  <minimizedRMSD>  (1) 
1.64950883

$$$$
