
     RDKit          3D

 16 17  0  0  0  0  0  0  0  0999 V2000
   38.8310   32.7910   48.6050 C   0  0  0  0  0  0  0  0  0  0  0  0
   38.9180   32.5730   47.2240 C   0  0  0  0  0  0  0  0  0  0  0  0
   37.9980   31.6780   46.6550 C   0  0  0  0  0  0  0  0  0  0  0  0
   37.0900   31.0850   47.4700 N   0  0  0  0  0  0  0  0  0  0  0  0
   37.0380   31.3230   48.7990 C   0  0  0  0  0  0  0  0  0  0  0  0
   37.9140   32.1800   49.3670 N   0  0  0  0  0  0  0  0  0  0  0  0
   35.9930   30.5720   49.4110 N   0  0  0  0  0  0  0  0  0  0  0  0
   34.7000   30.2460   49.2160 C   0  0  0  0  0  0  0  0  0  0  0  0
   34.2970   29.4560   50.2400 N   0  0  0  0  0  0  0  0  0  0  0  0
   35.3560   29.2960   51.0720 C   0  0  0  0  0  0  0  0  0  0  0  0
   36.3750   29.9910   50.5340 N   0  0  0  0  0  0  0  0  0  0  0  0
   39.5388   33.4867   49.0794 H   0  0  0  0  0  0  0  0  0  0  0  0
   39.6760   33.0821   46.6106 H   0  0  0  0  0  0  0  0  0  0  0  0
   38.0131   31.4632   45.5763 H   0  0  0  0  0  0  0  0  0  0  0  0
   34.0769   30.5672   48.3683 H   0  0  0  0  0  0  0  0  0  0  0  0
   35.3777   28.7124   52.0041 H   0  0  0  0  0  0  0  0  0  0  0  0
  1  6  2  0
  2  1  1  0
  3  2  2  0
  3  4  1  0
  4  5  2  0
  5  6  1  0
  5  7  1  0
  7 11  1  0
  8  7  1  0
  8  9  2  0
  9 10  1  0
 11 10  2  0
  1 12  1  0
  2 13  1  0
  3 14  1  0
  8 15  1  0
 10 16  1  0
M  ISO  5  12  14  13  14  14  14  15  14  16  14
M  END
>  <minimizedAffinity>  (1) 
-4.02713203

>  <minimizedRMSD>  (1) 
3.13385201

$$$$
