
     RDKit          3D

 33 34  0  0  1  0  0  0  0  0999 V2000
   37.9460   31.4310   46.9590 C   0  0  0  0  0  0  0  0  0  0  0  0
   38.3030   31.9960   48.0210 O   0  0  0  0  0  0  0  0  0  0  0  0
   38.8240   31.6280   45.8550 N   0  0  0  0  0  0  0  0  0  0  0  0
   39.1320   30.4450   45.0720 C   0  0  0  0  0  0  0  0  0  0  0  0
   40.3620   30.6520   44.2140 C   0  0  0  0  0  0  0  0  0  0  0  0
   41.2170   31.4840   44.9190 O   0  0  0  0  0  0  0  0  0  0  0  0
   40.6960   32.7880   44.7840 C   0  0  0  0  0  0  0  0  0  0  0  0
   39.3910   32.9230   45.5130 C   0  0  2  0  0  0  0  0  0  0  0  0
   34.9900   29.3630   48.0420 C   0  0  0  0  0  0  0  0  0  0  0  0
   36.2050   30.1230   48.1120 C   0  0  0  0  0  0  0  0  0  0  0  0
   36.7200   30.6560   46.9360 C   0  0  0  0  0  0  0  0  0  0  0  0
   36.0200   30.4120   45.7910 N   0  0  0  0  0  0  0  0  0  0  0  0
   34.8970   29.7030   45.7650 C   0  0  0  0  0  0  0  0  0  0  0  0
   34.3900   29.1880   46.8700 N   0  0  0  0  0  0  0  0  0  0  0  0
   34.2760   29.5460   44.4160 C   0  0  0  0  0  0  0  0  0  0  0  0
   34.0570   30.7950   43.8350 F   0  0  0  0  0  0  0  0  0  0  0  0
   35.1620   28.8980   43.5720 F   0  0  0  0  0  0  0  0  0  0  0  0
   33.1190   28.7860   44.4400 F   0  0  0  0  0  0  0  0  0  0  0  0
   34.4920   28.8390   49.2290 O   0  0  0  0  0  0  0  0  0  0  0  0
   34.2340   29.5820   50.3720 C   0  0  0  0  0  0  0  0  0  0  0  0
   35.0390   29.2420   51.4450 F   0  0  0  0  0  0  0  0  0  0  0  0
   34.2290   30.9410   50.1840 F   0  0  0  0  0  0  0  0  0  0  0  0
   32.9120   29.2360   50.7310 F   0  0  0  0  0  0  0  0  0  0  0  0
   39.7220   33.5140   46.7560 O   0  0  0  0  0  0  0  0  0  0  0  0
   39.3103   29.6011   45.7546 H   0  0  0  0  0  0  0  0  0  0  0  0
   38.2792   30.2387   44.4085 H   0  0  0  0  0  0  0  0  0  0  0  0
   40.0813   31.1212   43.2595 H   0  0  0  0  0  0  0  0  0  0  0  0
   40.8484   29.6912   43.9897 H   0  0  0  0  0  0  0  0  0  0  0  0
   41.4164   33.5081   45.1993 H   0  0  0  0  0  0  0  0  0  0  0  0
   40.5237   32.9882   43.7162 H   0  0  0  0  0  0  0  0  0  0  0  0
   38.6803   33.4836   44.8880 H   0  0  0  0  0  0  0  0  0  0  0  0
   36.7166   30.2801   49.0730 H   0  0  0  0  0  0  0  0  0  0  0  0
   39.3987   32.9367   47.4924 H   0  0  0  0  0  0  0  0  0  0  0  0
  1  2  2  0
  3  1  1  0
  4  3  1  0
  5  6  1  0
  5  4  1  0
  7  6  1  0
  7  8  1  0
  8  3  1  0
  8 24  1  0
  9 10  2  0
  9 19  1  0
 11  1  1  0
 11 10  1  0
 12 11  2  0
 13 12  1  0
 13 14  2  0
 14  9  1  0
 15 18  1  0
 15 13  1  0
 16 15  1  0
 17 15  1  0
 19 20  1  0
 20 23  1  0
 20 21  1  0
 22 20  1  0
  4 25  1  0
  4 26  1  0
  5 27  1  0
  5 28  1  0
  7 29  1  0
  7 30  1  0
  8 31  1  6
 10 32  1  0
 24 33  1  0
M  ISO  8  25  13  26  13  27  13  28  13  29  13  30  13  31  13  32  14
M  ISO  1  33   3
M  END
>  <minimizedAffinity>  (1) 
-5.60218477

>  <minimizedRMSD>  (1) 
0.294165313

$$$$
