
     RDKit          3D

 39 40  0  0  1  0  0  0  0  0999 V2000
   38.0340   30.4470   45.9590 C   0  0  0  0  0  0  0  0  0  0  0  0
   38.9440   30.5520   46.8020 O   0  0  0  0  0  0  0  0  0  0  0  0
   38.4670   30.4010   44.6080 N   0  0  0  0  0  0  0  0  0  0  0  0
   37.8390   29.3870   43.7740 C   0  0  0  0  0  0  0  0  0  0  0  0
   38.6310   29.1200   42.5230 C   0  0  0  0  0  0  0  0  0  0  0  0
   39.9690   29.2810   42.8380 O   0  0  0  0  0  0  0  0  0  0  0  0
   40.1950   30.6630   42.9020 C   0  0  0  0  0  0  0  0  0  0  0  0
   39.4640   31.2890   44.0630 C   0  0  2  0  0  0  0  0  0  0  0  0
   34.9750   30.4110   48.1630 C   0  0  0  0  0  0  0  0  0  0  0  0
   36.3450   30.4810   47.7660 C   0  0  0  0  0  0  0  0  0  0  0  0
   36.6450   30.3800   46.4050 C   0  0  0  0  0  0  0  0  0  0  0  0
   35.6040   30.2220   45.5550 N   0  0  0  0  0  0  0  0  0  0  0  0
   34.3370   30.1610   45.9620 C   0  0  0  0  0  0  0  0  0  0  0  0
   34.0280   30.2540   47.2450 N   0  0  0  0  0  0  0  0  0  0  0  0
   33.3260   29.9840   44.8710 C   0  0  0  0  0  0  0  0  0  0  0  0
   33.6790   30.7390   43.7590 F   0  0  0  0  0  0  0  0  0  0  0  0
   33.3370   28.6640   44.4390 F   0  0  0  0  0  0  0  0  0  0  0  0
   32.0330   30.2540   45.2920 F   0  0  0  0  0  0  0  0  0  0  0  0
   34.6800   30.5120   49.5140 O   0  0  0  0  0  0  0  0  0  0  0  0
   34.5440   29.4380   50.3690 C   0  0  0  0  0  0  0  0  0  0  0  0
   34.4300   28.2180   49.7450 F   0  0  0  0  0  0  0  0  0  0  0  0
   35.4910   29.3760   51.3660 F   0  0  0  0  0  0  0  0  0  0  0  0
   33.3100   29.6700   51.0170 F   0  0  0  0  0  0  0  0  0  0  0  0
   40.4490   31.3920   45.0770 O   0  0  0  0  0  0  0  0  0  0  0  0
   40.9740   32.6700   45.0220 C   0  0  0  0  0  0  0  0  0  0  0  0
   39.9150   33.7340   44.9020 C   0  0  0  0  0  0  0  0  0  0  0  0
   37.7581   28.4532   44.3497 H   0  0  0  0  0  0  0  0  0  0  0  0
   36.8466   29.7569   43.4767 H   0  0  0  0  0  0  0  0  0  0  0  0
   38.3418   29.8318   41.7358 H   0  0  0  0  0  0  0  0  0  0  0  0
   38.4391   28.1025   42.1516 H   0  0  0  0  0  0  0  0  0  0  0  0
   41.2737   30.8438   43.0193 H   0  0  0  0  0  0  0  0  0  0  0  0
   39.8207   31.1175   41.9728 H   0  0  0  0  0  0  0  0  0  0  0  0
   38.9857   32.2276   43.7462 H   0  0  0  0  0  0  0  0  0  0  0  0
   37.1430   30.6110   48.5119 H   0  0  0  0  0  0  0  0  0  0  0  0
   41.5518   32.8519   45.9402 H   0  0  0  0  0  0  0  0  0  0  0  0
   41.6048   32.7293   44.1228 H   0  0  0  0  0  0  0  0  0  0  0  0
   39.5989   34.0516   45.9066 H   0  0  0  0  0  0  0  0  0  0  0  0
   40.3229   34.5974   44.3559 H   0  0  0  0  0  0  0  0  0  0  0  0
   39.0497   33.3302   44.3559 H   0  0  0  0  0  0  0  0  0  0  0  0
  1 11  1  0
  1  2  2  0
  3  1  1  0
  4  3  1  0
  5  6  1  0
  5  4  1  0
  6  7  1  0
  7  8  1  0
  8  3  1  0
  8 24  1  0
  9 19  1  0
 10  9  2  0
 11 10  1  0
 12 13  1  0
 12 11  2  0
 13 14  2  0
 14  9  1  0
 15 18  1  0
 15 13  1  0
 16 15  1  0
 17 15  1  0
 19 20  1  0
 20 23  1  0
 20 22  1  0
 21 20  1  0
 25 24  1  0
 26 25  1  0
  4 27  1  0
  4 28  1  0
  5 29  1  0
  5 30  1  0
  7 31  1  0
  7 32  1  0
  8 33  1  6
 10 34  1  0
 25 35  1  0
 25 36  1  0
 26 37  1  0
 26 38  1  0
 26 39  1  0
M  ISO  8  27  13  28  13  29  13  30  13  31  13  32  13  33  13  34  14
M  ISO  5  35   8  36   8  37   8  38   8  39   8
M  END
>  <minimizedAffinity>  (1) 
-5.2045579

>  <minimizedRMSD>  (1) 
1.91275024

$$$$
