
     RDKit          3D

 35 36  0  0  1  0  0  0  0  0999 V2000
   38.0300   31.1640   47.0940 C   0  0  0  0  0  0  0  0  0  0  0  0
   38.4940   31.4490   48.2160 O   0  0  0  0  0  0  0  0  0  0  0  0
   38.8660   31.5140   45.9860 N   0  0  0  0  0  0  0  0  0  0  0  0
   38.9990   30.5130   44.9430 C   0  0  0  0  0  0  0  0  0  0  0  0
   40.1910   30.7950   44.0560 C   0  0  0  0  0  0  0  0  0  0  0  0
   41.1790   31.3480   44.8710 O   0  0  0  0  0  0  0  0  0  0  0  0
   40.7980   32.6900   45.0520 C   0  0  0  0  0  0  0  0  0  0  0  0
   39.5480   32.7790   45.8840 C   0  0  2  0  0  0  0  0  0  0  0  0
   34.8240   29.3880   47.9880 C   0  0  0  0  0  0  0  0  0  0  0  0
   36.1170   30.0170   48.1400 C   0  0  0  0  0  0  0  0  0  0  0  0
   36.7310   30.5240   46.9880 C   0  0  0  0  0  0  0  0  0  0  0  0
   36.0530   30.3830   45.8090 N   0  0  0  0  0  0  0  0  0  0  0  0
   34.8670   29.7970   45.7220 C   0  0  0  0  0  0  0  0  0  0  0  0
   34.2630   29.3090   46.7900 N   0  0  0  0  0  0  0  0  0  0  0  0
   34.2910   29.7390   44.3520 C   0  0  0  0  0  0  0  0  0  0  0  0
   34.2730   31.0220   43.7840 F   0  0  0  0  0  0  0  0  0  0  0  0
   35.1150   28.9820   43.5370 F   0  0  0  0  0  0  0  0  0  0  0  0
   33.0410   29.1430   44.3110 F   0  0  0  0  0  0  0  0  0  0  0  0
   34.2360   28.8920   49.1470 O   0  0  0  0  0  0  0  0  0  0  0  0
   34.1200   29.6000   50.3410 C   0  0  0  0  0  0  0  0  0  0  0  0
   35.0040   29.1600   51.3200 F   0  0  0  0  0  0  0  0  0  0  0  0
   34.1850   30.9670   50.2150 F   0  0  0  0  0  0  0  0  0  0  0  0
   32.8160   29.3130   50.8040 F   0  0  0  0  0  0  0  0  0  0  0  0
   39.9790   33.0800   47.1840 O   0  0  0  0  0  0  0  0  0  0  0  0
   40.0940   34.3050   47.7660 C   0  0  0  0  0  0  0  0  0  0  0  0
   39.6590   34.4470   48.9340 O   0  0  0  0  0  0  0  0  0  0  0  0
   39.1258   29.5249   45.4094 H   0  0  0  0  0  0  0  0  0  0  0  0
   38.0916   30.5379   44.3217 H   0  0  0  0  0  0  0  0  0  0  0  0
   39.9132   31.5050   43.2630 H   0  0  0  0  0  0  0  0  0  0  0  0
   40.5488   29.8744   43.5718 H   0  0  0  0  0  0  0  0  0  0  0  0
   41.6098   33.2306   45.5606 H   0  0  0  0  0  0  0  0  0  0  0  0
   40.6005   33.1380   44.0670 H   0  0  0  0  0  0  0  0  0  0  0  0
   38.8694   33.5163   45.4302 H   0  0  0  0  0  0  0  0  0  0  0  0
   36.6009   30.0945   49.1248 H   0  0  0  0  0  0  0  0  0  0  0  0
   40.5551   35.1462   47.2277 H   0  0  0  0  0  0  0  0  0  0  0  0
  1  2  2  0
  3  1  1  0
  4  3  1  0
  5  6  1  0
  5  4  1  0
  6  7  1  0
  7  8  1  0
  8  3  1  0
  8 24  1  0
  9 10  2  0
  9 19  1  0
 11  1  1  0
 11 10  1  0
 12 11  2  0
 13 12  1  0
 13 14  2  0
 14  9  1  0
 15 13  1  0
 16 15  1  0
 17 15  1  0
 18 15  1  0
 19 20  1  0
 20 23  1  0
 20 21  1  0
 22 20  1  0
 24 25  1  0
 25 26  2  0
  4 27  1  0
  4 28  1  0
  5 29  1  0
  5 30  1  0
  7 31  1  0
  7 32  1  0
  8 33  1  6
 10 34  1  0
 25 35  1  0
M  ISO  8  27  13  28  13  29  13  30  13  31  13  32  13  33  13  34  14
M  ISO  1  35   6
M  END
>  <minimizedAffinity>  (1) 
-5.15053988

>  <minimizedRMSD>  (1) 
0.468082219

$$$$
