
     RDKit          3D

 26 27  0  0  0  0  0  0  0  0999 V2000
   35.0860   30.3840   48.7730 C   0  0  0  0  0  0  0  0  0  0  0  0
   35.5640   30.2880   50.0940 C   0  0  0  0  0  0  0  0  0  0  0  0
   36.9590   30.2920   50.2900 C   0  0  0  0  0  0  0  0  0  0  0  0
   37.7620   30.3900   49.1910 N   0  0  0  0  0  0  0  0  0  0  0  0
   37.2800   30.4820   47.9460 C   0  0  0  0  0  0  0  0  0  0  0  0
   35.9400   30.4770   47.7470 N   0  0  0  0  0  0  0  0  0  0  0  0
   38.2220   30.5840   46.8100 C   0  0  0  0  0  0  0  0  0  0  0  0
   38.3160   31.9620   46.2460 C   0  0  0  0  0  0  0  0  0  0  0  0
   38.0740   32.0300   44.7680 C   0  0  0  0  0  0  0  0  0  0  0  0
   39.0660   33.0010   44.1710 C   0  0  0  0  0  0  0  0  0  0  0  0
   39.9530   33.4790   45.3000 C   0  0  0  0  0  0  0  0  0  0  0  0
   39.7270   32.4630   46.4010 C   0  0  0  0  0  0  0  0  0  0  0  0
   34.0025   30.3825   48.5830 H   0  0  0  0  0  0  0  0  0  0  0  0
   34.8710   30.2124   50.9449 H   0  0  0  0  0  0  0  0  0  0  0  0
   37.3887   30.2182   51.2999 H   0  0  0  0  0  0  0  0  0  0  0  0
   39.2207   30.2789   47.1556 H   0  0  0  0  0  0  0  0  0  0  0  0
   37.8430   29.9292   46.0115 H   0  0  0  0  0  0  0  0  0  0  0  0
   37.5545   32.5446   46.7852 H   0  0  0  0  0  0  0  0  0  0  0  0
   38.2130   31.0342   44.3218 H   0  0  0  0  0  0  0  0  0  0  0  0
   37.0459   32.3653   44.5665 H   0  0  0  0  0  0  0  0  0  0  0  0
   39.6712   32.4978   43.4025 H   0  0  0  0  0  0  0  0  0  0  0  0
   38.5487   33.8464   43.6939 H   0  0  0  0  0  0  0  0  0  0  0  0
   41.0083   33.4907   44.9897 H   0  0  0  0  0  0  0  0  0  0  0  0
   39.7173   34.5056   45.6172 H   0  0  0  0  0  0  0  0  0  0  0  0
   39.8549   32.9365   47.3856 H   0  0  0  0  0  0  0  0  0  0  0  0
   40.4497   31.6367   46.3306 H   0  0  0  0  0  0  0  0  0  0  0  0
  1  2  2  0
  2  3  1  0
  4  3  2  0
  5  4  1  0
  6  5  2  0
  6  1  1  0
  7  5  1  0
  8 12  1  0
  8  7  1  0
  9  8  1  0
 10  9  1  0
 10 11  1  0
 11 12  1  0
  1 13  1  0
  2 14  1  0
  3 15  1  0
  7 16  1  0
  7 17  1  0
  8 18  1  0
  9 19  1  0
  9 20  1  0
 10 21  1  0
 10 22  1  0
 11 23  1  0
 11 24  1  0
 12 25  1  0
 12 26  1  0
M  ISO  8  13  14  14  14  15  14  16   8  17   8  18  13  19  13  20  13
M  ISO  6  21  13  22  13  23  13  24  13  25  13  26  13
M  END
>  <minimizedAffinity>  (1) 
-4.11752462

>  <minimizedRMSD>  (1) 
6.78718758

$$$$
