
     RDKit          3D

 14 14  0  0  0  0  0  0  0  0999 V2000
   37.2660   30.1710   51.3930 C   0  0  0  0  0  0  0  0  0  0  0  0
   38.0800   30.6620   50.3600 C   0  0  0  0  0  0  0  0  0  0  0  0
   37.6910   30.3810   49.0250 C   0  0  0  0  0  0  0  0  0  0  0  0
   36.5480   29.6510   48.8360 N   0  0  0  0  0  0  0  0  0  0  0  0
   35.8040   29.2040   49.8580 C   0  0  0  0  0  0  0  0  0  0  0  0
   36.1580   29.4620   51.1320 N   0  0  0  0  0  0  0  0  0  0  0  0
   34.5680   28.4130   49.5750 C   0  0  0  0  0  0  0  0  0  0  0  0
   33.4940   29.2550   49.9410 O   0  0  0  0  0  0  0  0  0  0  0  0
   37.5428   30.3720   52.4384 H   0  0  0  0  0  0  0  0  0  0  0  0
   38.9875   31.2441   50.5781 H   0  0  0  0  0  0  0  0  0  0  0  0
   38.2867   30.7371   48.1716 H   0  0  0  0  0  0  0  0  0  0  0  0
   34.5104   28.1575   48.5066 H   0  0  0  0  0  0  0  0  0  0  0  0
   34.5525   27.4639   50.1308 H   0  0  0  0  0  0  0  0  0  0  0  0
   33.4334   29.3025   50.9280 H   0  0  0  0  0  0  0  0  0  0  0  0
  2  1  2  0
  3  2  1  0
  4  3  2  0
  4  5  1  0
  5  6  2  0
  6  1  1  0
  7  5  1  0
  7  8  1  0
  1  9  1  0
  2 10  1  0
  3 11  1  0
  7 12  1  0
  7 13  1  0
  8 14  1  0
M  ISO  6   9  14  10  14  11  14  12   8  13   8  14   3
M  END
>  <minimizedAffinity>  (1) 
-3.48852134

>  <minimizedRMSD>  (1) 
0.244086102

$$$$
