
     RDKit          3D

 30 32  0  0  1  0  0  0  0  0999 V2000
   36.3900   30.3480   50.4320 C   0  0  2  0  0  0  0  0  0  0  0  0
   35.6630   29.3440   51.2330 C   0  0  0  0  0  0  0  0  0  0  0  0
   36.0030   28.9970   49.8380 C   0  0  1  0  0  0  0  0  0  0  0  0
   34.9780   28.9830   48.7590 C   0  0  0  0  0  0  0  0  0  0  0  0
   33.8700   28.1510   48.9350 C   0  0  0  0  0  0  0  0  0  0  0  0
   32.9080   28.1270   47.9390 C   0  0  0  0  0  0  0  0  0  0  0  0
   33.0750   28.9140   46.8260 C   0  0  0  0  0  0  0  0  0  0  0  0
   34.1690   29.7520   46.6230 C   0  0  0  0  0  0  0  0  0  0  0  0
   35.1330   29.7710   47.6290 C   0  0  0  0  0  0  0  0  0  0  0  0
   37.8740   30.5460   50.6060 C   0  0  0  0  0  0  0  0  0  0  0  0
   39.0310   33.5880   48.8980 C   0  0  0  0  0  0  0  0  0  0  0  0
   39.1820   33.1560   47.5640 C   0  0  0  0  0  0  0  0  0  0  0  0
   38.8830   31.8280   47.2720 C   0  0  0  0  0  0  0  0  0  0  0  0
   38.4620   31.0220   48.2970 N   0  0  0  0  0  0  0  0  0  0  0  0
   38.3310   31.4720   49.5580 C   0  0  0  0  0  0  0  0  0  0  0  0
   38.6210   32.7590   49.8410 N   0  0  0  0  0  0  0  0  0  0  0  0
   36.2127   31.4150   50.2320 H   0  0  0  0  0  0  0  0  0  0  0  0
   36.1766   28.8334   52.0610 H   0  0  0  0  0  0  0  0  0  0  0  0
   34.7271   29.3588   51.8108 H   0  0  0  0  0  0  0  0  0  0  0  0
   36.5144   28.1429   49.3700 H   0  0  0  0  0  0  0  0  0  0  0  0
   33.7645   27.5327   49.8386 H   0  0  0  0  0  0  0  0  0  0  0  0
   32.0204   27.4849   48.0383 H   0  0  0  0  0  0  0  0  0  0  0  0
   32.2981   28.8806   46.0480 H   0  0  0  0  0  0  0  0  0  0  0  0
   34.2668   30.3666   45.7160 H   0  0  0  0  0  0  0  0  0  0  0  0
   36.0200   30.4134   47.5262 H   0  0  0  0  0  0  0  0  0  0  0  0
   38.0805   30.9730   51.5985 H   0  0  0  0  0  0  0  0  0  0  0  0
   38.4017   29.5842   50.5252 H   0  0  0  0  0  0  0  0  0  0  0  0
   39.2584   34.6325   49.1574 H   0  0  0  0  0  0  0  0  0  0  0  0
   39.5251   33.8463   46.7793 H   0  0  0  0  0  0  0  0  0  0  0  0
   38.9818   31.4373   46.2485 H   0  0  0  0  0  0  0  0  0  0  0  0
  1 10  1  0
  1  2  1  0
  3  1  1  0
  3  2  1  0
  4  5  2  0
  4  3  1  0
  6  5  1  0
  7  6  2  0
  8  7  1  0
  8  9  2  0
  9  4  1  0
 11 16  2  0
 12 11  1  0
 13 12  2  0
 13 14  1  0
 14 15  2  0
 15 16  1  0
 15 10  1  0
  1 17  1  6
  2 18  1  0
  2 19  1  0
  3 20  1  1
  5 21  1  0
  6 22  1  0
  7 23  1  0
  8 24  1  0
  9 25  1  0
 10 26  1  0
 10 27  1  0
 11 28  1  0
 12 29  1  0
 13 30  1  0
M  ISO  8  17  13  18  13  19  13  20  13  21  14  22  14  23  14  24  14
M  ISO  6  25  14  26   8  27   8  28  14  29  14  30  14
M  END
>  <minimizedAffinity>  (1) 
-5.62820625

>  <minimizedRMSD>  (1) 
1.68357146

$$$$
