
     RDKit          3D

 33 36  0  0  1  0  0  0  0  0999 V2000
   35.2040   29.3650   49.0310 C   0  0  2  0  0  0  0  0  0  0  0  0
   34.0930   29.5800   50.0060 C   0  0  0  0  0  0  0  0  0  0  0  0
   34.3240   28.2200   49.4620 C   0  0  1  0  0  0  0  0  0  0  0  0
   33.3920   27.6640   48.4900 N   0  0  0  0  0  0  0  0  0  0  0  0
   33.8150   27.1600   47.3010 C   0  0  0  0  0  0  0  0  0  0  0  0
   32.7290   26.7190   46.6160 N   0  0  0  0  0  0  0  0  0  0  0  0
   31.6610   26.9510   47.3770 C   0  0  0  0  0  0  0  0  0  0  0  0
   30.3030   26.7450   47.2620 C   0  0  0  0  0  0  0  0  0  0  0  0
   29.4060   27.0920   48.2280 N   0  0  0  0  0  0  0  0  0  0  0  0
   29.8610   27.6750   49.3750 C   0  0  0  0  0  0  0  0  0  0  0  0
   31.1850   27.8870   49.5080 N   0  0  0  0  0  0  0  0  0  0  0  0
   32.0460   27.5440   48.5590 C   0  0  0  0  0  0  0  0  0  0  0  0
   29.7760   26.1390   46.0870 N   0  0  0  0  0  0  0  0  0  0  0  0
   36.6290   29.2970   49.5450 C   0  0  0  0  0  0  0  0  0  0  0  0
   37.7590   32.7980   49.5010 C   0  0  0  0  0  0  0  0  0  0  0  0
   38.5690   32.8620   48.3490 C   0  0  0  0  0  0  0  0  0  0  0  0
   38.7090   31.6830   47.6060 C   0  0  0  0  0  0  0  0  0  0  0  0
   38.0640   30.5570   48.0310 N   0  0  0  0  0  0  0  0  0  0  0  0
   37.2920   30.5510   49.1520 C   0  0  0  0  0  0  0  0  0  0  0  0
   37.1420   31.6740   49.8850 N   0  0  0  0  0  0  0  0  0  0  0  0
   35.4905   29.8528   48.0876 H   0  0  0  0  0  0  0  0  0  0  0  0
   34.3232   29.7946   51.0600 H   0  0  0  0  0  0  0  0  0  0  0  0
   33.2269   30.2564   50.0540 H   0  0  0  0  0  0  0  0  0  0  0  0
   34.4859   27.2288   49.9107 H   0  0  0  0  0  0  0  0  0  0  0  0
   34.8577   27.1168   46.9534 H   0  0  0  0  0  0  0  0  0  0  0  0
   29.1622   27.9654   50.1734 H   0  0  0  0  0  0  0  0  0  0  0  0
   28.7616   25.9838   45.9982 H   0  0  0  0  0  0  0  0  0  0  0  0
   30.4090   25.8557   45.3254 H   0  0  0  0  0  0  0  0  0  0  0  0
   36.6305   29.1968   50.6404 H   0  0  0  0  0  0  0  0  0  0  0  0
   37.1555   28.4276   49.1243 H   0  0  0  0  0  0  0  0  0  0  0  0
   37.6291   33.7065   50.1075 H   0  0  0  0  0  0  0  0  0  0  0  0
   39.0680   33.7948   48.0476 H   0  0  0  0  0  0  0  0  0  0  0  0
   39.3274   31.6645   46.6965 H   0  0  0  0  0  0  0  0  0  0  0  0
  1  3  1  0
  1 14  1  0
  1  2  1  0
  3  2  1  0
  4 12  1  0
  4  3  1  0
  5  4  1  0
  6  5  2  0
  6  7  1  0
  7 12  2  0
  8  7  1  0
  8  9  2  0
  9 10  1  0
 10 11  2  0
 12 11  1  0
 13  8  1  0
 15 20  2  0
 16 15  1  0
 17 18  1  0
 17 16  2  0
 18 19  2  0
 19 14  1  0
 19 20  1  0
  1 21  1  6
  2 22  1  0
  2 23  1  0
  3 24  1  1
  5 25  1  0
 10 26  1  0
 13 27  1  0
 13 28  1  0
 14 29  1  0
 14 30  1  0
 15 31  1  0
 16 32  1  0
 17 33  1  0
M  ISO  8  21  13  22  13  23  13  24  13  25  14  26  14  29   8  30   8
M  ISO  3  31  14  32  14  33  14
M  END
>  <minimizedAffinity>  (1) 
-5.42916822

>  <minimizedRMSD>  (1) 
0.94360745

$$$$
