
     RDKit          3D

 32 33  0  0  1  0  0  0  0  0999 V2000
   36.8130   29.3450   49.6480 C   0  0  0  0  0  0  0  0  0  0  0  0
   38.4090   32.6540   49.4040 C   0  0  0  0  0  0  0  0  0  0  0  0
   38.8950   32.6680   48.0980 C   0  0  0  0  0  0  0  0  0  0  0  0
   38.6750   31.5340   47.2850 C   0  0  0  0  0  0  0  0  0  0  0  0
   37.9880   30.4870   47.8610 N   0  0  0  0  0  0  0  0  0  0  0  0
   37.5400   30.5210   49.1260 C   0  0  0  0  0  0  0  0  0  0  0  0
   37.7490   31.6040   49.9030 N   0  0  0  0  0  0  0  0  0  0  0  0
   35.3810   29.4420   49.1810 C   0  0  2  0  0  0  0  0  0  0  0  0
   34.2700   29.3980   50.1600 C   0  0  0  0  0  0  0  0  0  0  0  0
   34.5620   28.1980   49.3520 C   0  0  1  0  0  0  0  0  0  0  0  0
   33.6000   27.8980   48.2280 C   0  0  0  0  0  0  0  0  0  0  0  0
   33.8870   26.5230   47.6230 C   0  0  0  0  0  0  0  0  0  0  0  0
   32.1700   27.8340   48.7070 C   0  0  0  0  0  0  0  0  0  0  0  0
   33.7320   28.9300   47.1560 C   0  0  0  0  0  0  0  0  0  0  0  0
   37.2702   28.4215   49.2631 H   0  0  0  0  0  0  0  0  0  0  0  0
   36.8577   29.3228   50.7469 H   0  0  0  0  0  0  0  0  0  0  0  0
   38.5734   33.5336   50.0437 H   0  0  0  0  0  0  0  0  0  0  0  0
   39.4376   33.5423   47.7091 H   0  0  0  0  0  0  0  0  0  0  0  0
   39.0334   31.4888   46.2460 H   0  0  0  0  0  0  0  0  0  0  0  0
   35.6417   30.1350   48.3675 H   0  0  0  0  0  0  0  0  0  0  0  0
   34.4898   29.3990   51.2378 H   0  0  0  0  0  0  0  0  0  0  0  0
   33.3732   30.0095   50.3385 H   0  0  0  0  0  0  0  0  0  0  0  0
   34.7731   27.1427   49.5794 H   0  0  0  0  0  0  0  0  0  0  0  0
   34.0396   25.7917   48.4304 H   0  0  0  0  0  0  0  0  0  0  0  0
   33.0347   26.2106   47.0017 H   0  0  0  0  0  0  0  0  0  0  0  0
   34.7931   26.5777   47.0017 H   0  0  0  0  0  0  0  0  0  0  0  0
   32.1514   27.8332   49.8068 H   0  0  0  0  0  0  0  0  0  0  0  0
   31.6181   28.7083   48.3316 H   0  0  0  0  0  0  0  0  0  0  0  0
   31.6984   26.9138   48.3316 H   0  0  0  0  0  0  0  0  0  0  0  0
   33.8588   29.9215   47.6152 H   0  0  0  0  0  0  0  0  0  0  0  0
   34.6081   28.7003   46.5317 H   0  0  0  0  0  0  0  0  0  0  0  0
   32.8263   28.9282   46.5317 H   0  0  0  0  0  0  0  0  0  0  0  0
  2  7  2  0
  3  2  1  0
  4  5  1  0
  4  3  2  0
  5  6  2  0
  6  1  1  0
  6  7  1  0
  8 10  1  0
  8  1  1  0
  8  9  1  0
 10  9  1  0
 11 13  1  0
 11 10  1  0
 12 11  1  0
 14 11  1  0
  1 15  1  0
  1 16  1  0
  2 17  1  0
  3 18  1  0
  4 19  1  0
  8 20  1  6
  9 21  1  0
  9 22  1  0
 10 23  1  1
 12 24  1  0
 12 25  1  0
 12 26  1  0
 13 27  1  0
 13 28  1  0
 13 29  1  0
 14 30  1  0
 14 31  1  0
 14 32  1  0
M  ISO  8  15   8  16   8  17  14  18  14  19  14  20  13  21  13  22  13
M  ISO  8  23  13  24   8  25   8  26   8  27   8  28   8  29   8  30   8
M  ISO  2  31   8  32   8
M  END
>  <minimizedAffinity>  (1) 
-5.09965038

>  <minimizedRMSD>  (1) 
0.16648528

$$$$
