
     RDKit          3D

 21 22  0  0  1  0  0  0  0  0999 V2000
   36.4360   29.5770   49.2940 C   0  0  0  0  0  0  0  0  0  0  0  0
   37.9520   32.9270   49.4150 C   0  0  0  0  0  0  0  0  0  0  0  0
   38.8320   32.9230   48.3130 C   0  0  0  0  0  0  0  0  0  0  0  0
   38.8940   31.7560   47.5330 C   0  0  0  0  0  0  0  0  0  0  0  0
   38.0880   30.7010   47.9050 N   0  0  0  0  0  0  0  0  0  0  0  0
   37.2650   30.7560   48.9670 C   0  0  0  0  0  0  0  0  0  0  0  0
   37.1950   31.8640   49.7230 N   0  0  0  0  0  0  0  0  0  0  0  0
   35.0000   30.0400   49.3740 C   0  0  2  0  0  0  0  0  0  0  0  0
   34.1000   29.5490   50.4500 C   0  0  0  0  0  0  0  0  0  0  0  0
   33.9980   28.9260   49.0990 C   0  0  2  0  0  0  0  0  0  0  0  0
   34.4690   27.6240   48.9650 O   0  0  0  0  0  0  0  0  0  0  0  0
   36.7487   29.1542   50.2602 H   0  0  0  0  0  0  0  0  0  0  0  0
   36.5498   28.7981   48.5257 H   0  0  0  0  0  0  0  0  0  0  0  0
   37.8846   33.8292   50.0406 H   0  0  0  0  0  0  0  0  0  0  0  0
   39.4479   33.8022   48.0727 H   0  0  0  0  0  0  0  0  0  0  0  0
   39.5594   31.6868   46.6598 H   0  0  0  0  0  0  0  0  0  0  0  0
   35.2315   31.0523   49.0111 H   0  0  0  0  0  0  0  0  0  0  0  0
   34.5162   28.9703   51.2878 H   0  0  0  0  0  0  0  0  0  0  0  0
   33.3822   30.0300   51.1308 H   0  0  0  0  0  0  0  0  0  0  0  0
   33.2010   28.7665   48.3578 H   0  0  0  0  0  0  0  0  0  0  0  0
   34.6113   27.2306   49.8623 H   0  0  0  0  0  0  0  0  0  0  0  0
  1  8  1  0
  2  7  2  0
  3  2  1  0
  4  5  1  0
  4  3  2  0
  5  6  2  0
  6  1  1  0
  6  7  1  0
  8  9  1  0
 10  8  1  0
 10  9  1  0
 11 10  1  0
  1 12  1  0
  1 13  1  0
  2 14  1  0
  3 15  1  0
  4 16  1  0
  8 17  1  6
  9 18  1  0
  9 19  1  0
 10 20  1  6
 11 21  1  0
M  ISO  8  12   8  13   8  14  14  15  14  16  14  17  13  18  13  19  13
M  ISO  2  20  13  21   3
M  END
>  <minimizedAffinity>  (1) 
-4.12380362

>  <minimizedRMSD>  (1) 
0.707198977

$$$$
