
     RDKit          3D

 22 23  0  0  1  0  0  0  0  0999 V2000
   36.4870   29.5550   49.0720 C   0  0  0  0  0  0  0  0  0  0  0  0
   37.9940   32.9120   49.3960 C   0  0  0  0  0  0  0  0  0  0  0  0
   38.8610   32.9540   48.3020 C   0  0  0  0  0  0  0  0  0  0  0  0
   38.9440   31.8430   47.4440 C   0  0  0  0  0  0  0  0  0  0  0  0
   38.1400   30.7640   47.7530 N   0  0  0  0  0  0  0  0  0  0  0  0
   37.3110   30.7580   48.8210 C   0  0  0  0  0  0  0  0  0  0  0  0
   37.2370   31.8350   49.6460 N   0  0  0  0  0  0  0  0  0  0  0  0
   35.0760   30.0300   49.2980 C   0  0  2  0  0  0  0  0  0  0  0  0
   34.2840   29.4980   50.4370 C   0  0  0  0  0  0  0  0  0  0  0  0
   34.0060   28.9820   49.0730 C   0  0  2  0  0  0  0  0  0  0  0  0
   34.4350   27.6600   48.6840 N   0  0  0  0  0  0  0  0  0  0  0  0
   36.8545   29.0240   49.9625 H   0  0  0  0  0  0  0  0  0  0  0  0
   36.5366   28.8595   48.2212 H   0  0  0  0  0  0  0  0  0  0  0  0
   37.9312   33.7816   50.0668 H   0  0  0  0  0  0  0  0  0  0  0  0
   39.4734   33.8480   48.1132 H   0  0  0  0  0  0  0  0  0  0  0  0
   39.6146   31.8341   46.5721 H   0  0  0  0  0  0  0  0  0  0  0  0
   35.3016   31.0485   48.9490 H   0  0  0  0  0  0  0  0  0  0  0  0
   34.7660   28.8457   51.1802 H   0  0  0  0  0  0  0  0  0  0  0  0
   33.6702   29.9541   51.2277 H   0  0  0  0  0  0  0  0  0  0  0  0
   33.0955   28.8875   48.4631 H   0  0  0  0  0  0  0  0  0  0  0  0
   34.6178   27.0966   49.5266 H   0  0  0  0  0  0  0  0  0  0  0  0
   33.6967   27.2104   48.1239 H   0  0  0  0  0  0  0  0  0  0  0  0
  1  8  1  0
  2  7  2  0
  3  2  1  0
  4  5  1  0
  4  3  2  0
  5  6  2  0
  6  1  1  0
  6  7  1  0
  8  9  1  0
 10  8  1  0
 10  9  1  0
 11 10  1  0
  1 12  1  0
  1 13  1  0
  2 14  1  0
  3 15  1  0
  4 16  1  0
  8 17  1  6
  9 18  1  0
  9 19  1  0
 10 20  1  6
 11 21  1  0
 11 22  1  0
M  ISO  8  12   8  13   8  14  14  15  14  16  14  17  13  18  13  19  13
M  ISO  3  20  13  21   5  22   5
M  END
>  <minimizedAffinity>  (1) 
-4.10002422

>  <minimizedRMSD>  (1) 
0.734203994

$$$$
