
     RDKit          3D

 36 38  0  0  1  0  0  0  0  0999 V2000
   35.2360   29.4770   49.0920 C   0  0  2  0  0  0  0  0  0  0  0  0
   34.1060   29.3740   50.0250 C   0  0  0  0  0  0  0  0  0  0  0  0
   34.4890   28.1490   49.3420 C   0  0  1  0  0  0  0  0  0  0  0  0
   36.6410   29.4610   49.7000 C   0  0  0  0  0  0  0  0  0  0  0  0
   37.9270   32.8810   49.4310 C   0  0  0  0  0  0  0  0  0  0  0  0
   38.6920   32.8400   48.2550 C   0  0  0  0  0  0  0  0  0  0  0  0
   38.7550   31.6180   47.5620 C   0  0  0  0  0  0  0  0  0  0  0  0
   38.0640   30.5380   48.0760 N   0  0  0  0  0  0  0  0  0  0  0  0
   37.3520   30.6390   49.2010 C   0  0  0  0  0  0  0  0  0  0  0  0
   37.2900   31.8130   49.8690 N   0  0  0  0  0  0  0  0  0  0  0  0
   33.5540   27.6760   48.2670 C   0  0  0  0  0  0  0  0  0  0  0  0
   33.9540   26.6280   47.6270 O   0  0  0  0  0  0  0  0  0  0  0  0
   32.3420   28.2650   47.9450 O   0  0  0  0  0  0  0  0  0  0  0  0
   31.1770   27.5210   47.7460 C   0  0  0  0  0  0  0  0  0  0  0  0
   30.7020   26.7840   48.9620 C   0  0  0  0  0  0  0  0  0  0  0  0
   29.9820   27.8820   49.7220 C   0  0  0  0  0  0  0  0  0  0  0  0
   29.1180   28.4720   48.6470 C   0  0  0  0  0  0  0  0  0  0  0  0
   30.0240   28.4520   47.4380 C   0  0  0  0  0  0  0  0  0  0  0  0
   35.4729   30.1417   48.2482 H   0  0  0  0  0  0  0  0  0  0  0  0
   34.2886   29.4686   51.1056 H   0  0  0  0  0  0  0  0  0  0  0  0
   33.1552   29.9185   50.1222 H   0  0  0  0  0  0  0  0  0  0  0  0
   34.7839   27.1324   49.6411 H   0  0  0  0  0  0  0  0  0  0  0  0
   36.5754   29.4993   50.7974 H   0  0  0  0  0  0  0  0  0  0  0  0
   37.1734   28.5404   49.4189 H   0  0  0  0  0  0  0  0  0  0  0  0
   37.8576   33.8213   49.9976 H   0  0  0  0  0  0  0  0  0  0  0  0
   39.2228   33.7311   47.8888 H   0  0  0  0  0  0  0  0  0  0  0  0
   39.3393   31.5246   46.6347 H   0  0  0  0  0  0  0  0  0  0  0  0
   31.4390   26.8176   46.9419 H   0  0  0  0  0  0  0  0  0  0  0  0
   30.0172   25.9660   48.6937 H   0  0  0  0  0  0  0  0  0  0  0  0
   31.5064   26.2976   49.5333 H   0  0  0  0  0  0  0  0  0  0  0  0
   29.3770   27.4717   50.5439 H   0  0  0  0  0  0  0  0  0  0  0  0
   30.6530   28.6066   50.2065 H   0  0  0  0  0  0  0  0  0  0  0  0
   28.2204   27.8586   48.4793 H   0  0  0  0  0  0  0  0  0  0  0  0
   28.7433   29.4766   48.8929 H   0  0  0  0  0  0  0  0  0  0  0  0
   30.4031   29.4648   47.2365 H   0  0  0  0  0  0  0  0  0  0  0  0
   29.4752   28.1067   46.5494 H   0  0  0  0  0  0  0  0  0  0  0  0
  1  3  1  0
  1  4  1  0
  1  2  1  0
  3  2  1  0
  5 10  2  0
  6  5  1  0
  7  8  1  0
  7  6  2  0
  8  9  2  0
  9  4  1  0
  9 10  1  0
 11  3  1  0
 12 11  2  0
 13 11  1  0
 14 13  1  0
 14 15  1  0
 15 16  1  0
 17 16  1  0
 18 14  1  0
 18 17  1  0
  1 19  1  6
  2 20  1  0
  2 21  1  0
  3 22  1  1
  4 23  1  0
  4 24  1  0
  5 25  1  0
  6 26  1  0
  7 27  1  0
 14 28  1  0
 15 29  1  0
 15 30  1  0
 16 31  1  0
 16 32  1  0
 17 33  1  0
 17 34  1  0
 18 35  1  0
 18 36  1  0
M  ISO  8  19  13  20  13  21  13  22  13  23   8  24   8  25  14  26  14
M  ISO  8  27  14  28  13  29  13  30  13  31  13  32  13  33  13  34  13
M  ISO  2  35  13  36  13
M  END
>  <minimizedAffinity>  (1) 
-5.22928953

>  <minimizedRMSD>  (1) 
1.39397216

$$$$
