
     RDKit          3D

 41 45  0  0  1  0  0  0  0  0999 V2000
   33.7580   27.4140   48.0000 C   0  0  0  0  0  0  0  0  0  0  0  0
   34.0680   26.1980   47.7120 O   0  0  0  0  0  0  0  0  0  0  0  0
   35.3960   29.3140   48.7070 C   0  0  2  0  0  0  0  0  0  0  0  0
   34.1950   29.3200   49.5410 C   0  0  0  0  0  0  0  0  0  0  0  0
   34.6040   28.0210   49.1000 C   0  0  1  0  0  0  0  0  0  0  0  0
   36.7380   29.3550   49.4560 C   0  0  0  0  0  0  0  0  0  0  0  0
   38.0910   32.7490   49.4170 C   0  0  0  0  0  0  0  0  0  0  0  0
   38.7860   32.7870   48.1930 C   0  0  0  0  0  0  0  0  0  0  0  0
   38.7770   31.6250   47.3930 C   0  0  0  0  0  0  0  0  0  0  0  0
   38.0940   30.5310   47.8530 N   0  0  0  0  0  0  0  0  0  0  0  0
   37.4500   30.5480   49.0240 C   0  0  0  0  0  0  0  0  0  0  0  0
   37.4510   31.6630   49.8060 N   0  0  0  0  0  0  0  0  0  0  0  0
   32.7260   28.0230   47.3190 O   0  0  0  0  0  0  0  0  0  0  0  0
   31.4380   28.0930   47.7620 C   0  0  0  0  0  0  0  0  0  0  0  0
   30.9730   27.5830   49.0580 C   0  0  0  0  0  0  0  0  0  0  0  0
   29.6730   27.7020   49.4130 C   0  0  0  0  0  0  0  0  0  0  0  0
   28.7590   28.3220   48.5260 C   0  0  0  0  0  0  0  0  0  0  0  0
   29.8300   28.7770   47.0580 S   0  0  0  0  0  0  0  0  0  0  0  0
   27.3640   28.5180   48.7680 N   0  0  0  0  0  0  0  0  0  0  0  0
   26.5620   27.5320   49.1510 C   0  0  0  0  0  0  0  0  0  0  0  0
   25.3510   28.1010   49.2720 N   0  0  0  0  0  0  0  0  0  0  0  0
   25.4300   29.4080   48.9660 C   0  0  0  0  0  0  0  0  0  0  0  0
   24.4430   30.4000   48.9470 C   0  0  0  0  0  0  0  0  0  0  0  0
   24.8320   31.6570   48.5880 N   0  0  0  0  0  0  0  0  0  0  0  0
   26.1150   31.9150   48.2700 C   0  0  0  0  0  0  0  0  0  0  0  0
   27.0600   30.9530   48.2890 N   0  0  0  0  0  0  0  0  0  0  0  0
   26.7490   29.6980   48.6320 C   0  0  0  0  0  0  0  0  0  0  0  0
   35.7088   29.8614   47.8056 H   0  0  0  0  0  0  0  0  0  0  0  0
   34.2864   29.5754   50.6070 H   0  0  0  0  0  0  0  0  0  0  0  0
   33.2418   29.8641   49.4684 H   0  0  0  0  0  0  0  0  0  0  0  0
   34.8477   27.0624   49.5814 H   0  0  0  0  0  0  0  0  0  0  0  0
   36.5604   29.3970   50.5408 H   0  0  0  0  0  0  0  0  0  0  0  0
   37.3289   28.4534   49.2369 H   0  0  0  0  0  0  0  0  0  0  0  0
   38.0815   33.6411   50.0605 H   0  0  0  0  0  0  0  0  0  0  0  0
   39.3189   33.6937   47.8708 H   0  0  0  0  0  0  0  0  0  0  0  0
   39.3035   31.5986   46.4275 H   0  0  0  0  0  0  0  0  0  0  0  0
   31.6855   27.1016   49.7440 H   0  0  0  0  0  0  0  0  0  0  0  0
   29.3277   27.3195   50.3848 H   0  0  0  0  0  0  0  0  0  0  0  0
   26.8300   26.4803   49.3300 H   0  0  0  0  0  0  0  0  0  0  0  0
   23.3988   30.1757   49.2102 H   0  0  0  0  0  0  0  0  0  0  0  0
   26.4001   32.9390   47.9869 H   0  0  0  0  0  0  0  0  0  0  0  0
  1  5  1  0
  2  1  2  0
  3  5  1  0
  3  6  1  0
  3  4  1  0
  5  4  1  0
  7 12  2  0
  8  7  1  0
  9 10  1  0
  9  8  2  0
 10 11  2  0
 11  6  1  0
 11 12  1  0
 13 14  1  0
 13  1  1  0
 14 15  2  0
 15 16  1  0
 17 19  1  0
 17 16  2  0
 18 14  1  0
 18 17  1  0
 19 20  1  0
 20 21  2  0
 22 21  1  0
 23 22  2  0
 24 23  1  0
 25 26  1  0
 25 24  2  0
 26 27  2  0
 27 19  1  0
 27 22  1  0
  3 28  1  6
  4 29  1  0
  4 30  1  0
  5 31  1  1
  6 32  1  0
  6 33  1  0
  7 34  1  0
  8 35  1  0
  9 36  1  0
 15 37  1  0
 16 38  1  0
 20 39  1  0
 23 40  1  0
 25 41  1  0
M  ISO  8  28  13  29  13  30  13  31  13  32   8  33   8  34  14  35  14
M  ISO  6  36  14  37  14  38  14  39  14  40  14  41  14
M  END
>  <minimizedAffinity>  (1) 
-6.69107199

>  <minimizedRMSD>  (1) 
1.73821771

$$$$
