
     RDKit          3D

 41 44  0  0  1  0  0  0  0  0999 V2000
   34.0140   27.3720   48.0420 C   0  0  0  0  0  0  0  0  0  0  0  0
   34.3690   26.1520   47.7950 O   0  0  0  0  0  0  0  0  0  0  0  0
   35.5280   29.3520   48.8090 C   0  0  2  0  0  0  0  0  0  0  0  0
   34.3240   29.2630   49.6380 C   0  0  0  0  0  0  0  0  0  0  0  0
   34.8200   28.0020   49.1620 C   0  0  1  0  0  0  0  0  0  0  0  0
   36.8580   29.4710   49.5740 C   0  0  0  0  0  0  0  0  0  0  0  0
   38.2460   32.8420   49.3800 C   0  0  0  0  0  0  0  0  0  0  0  0
   38.8810   32.8410   48.1190 C   0  0  0  0  0  0  0  0  0  0  0  0
   38.8170   31.6550   47.3510 C   0  0  0  0  0  0  0  0  0  0  0  0
   38.1470   30.5800   47.8650 N   0  0  0  0  0  0  0  0  0  0  0  0
   37.5600   30.6380   49.0690 C   0  0  0  0  0  0  0  0  0  0  0  0
   37.6160   31.7600   49.8070 N   0  0  0  0  0  0  0  0  0  0  0  0
   32.9850   27.9700   47.3150 O   0  0  0  0  0  0  0  0  0  0  0  0
   31.6930   28.0310   47.7490 C   0  0  0  0  0  0  0  0  0  0  0  0
   31.1720   27.3870   48.9600 C   0  0  0  0  0  0  0  0  0  0  0  0
   29.8660   27.5300   49.2730 C   0  0  0  0  0  0  0  0  0  0  0  0
   29.0150   28.2940   48.4390 C   0  0  0  0  0  0  0  0  0  0  0  0
   30.1380   28.8700   47.0850 S   0  0  0  0  0  0  0  0  0  0  0  0
   27.6390   28.5500   48.6070 N   0  0  0  0  0  0  0  0  0  0  0  0
   26.6460   27.8870   48.0210 C   0  0  0  0  0  0  0  0  0  0  0  0
   25.3300   28.2500   48.2790 C   0  0  0  0  0  0  0  0  0  0  0  0
   25.1300   29.3080   49.1540 C   0  0  0  0  0  0  0  0  0  0  0  0
   23.7870   29.6730   49.4140 N   0  0  0  0  0  0  0  0  0  0  0  0
   26.1500   29.9780   49.7490 N   0  0  0  0  0  0  0  0  0  0  0  0
   27.4200   29.5830   49.4610 C   0  0  0  0  0  0  0  0  0  0  0  0
   28.2930   30.2640   50.0570 O   0  0  0  0  0  0  0  0  0  0  0  0
   35.8109   29.9354   47.9204 H   0  0  0  0  0  0  0  0  0  0  0  0
   34.3951   29.4951   50.7109 H   0  0  0  0  0  0  0  0  0  0  0  0
   33.3386   29.7479   49.5757 H   0  0  0  0  0  0  0  0  0  0  0  0
   35.1253   27.0482   49.6172 H   0  0  0  0  0  0  0  0  0  0  0  0
   36.6612   29.5896   50.6497 H   0  0  0  0  0  0  0  0  0  0  0  0
   37.4658   28.5656   49.4294 H   0  0  0  0  0  0  0  0  0  0  0  0
   38.2752   33.7442   50.0086 H   0  0  0  0  0  0  0  0  0  0  0  0
   39.4075   33.7321   47.7466 H   0  0  0  0  0  0  0  0  0  0  0  0
   39.2957   31.5989   46.3622 H   0  0  0  0  0  0  0  0  0  0  0  0
   31.8373   26.7947   49.6054 H   0  0  0  0  0  0  0  0  0  0  0  0
   29.4629   27.0518   50.1779 H   0  0  0  0  0  0  0  0  0  0  0  0
   26.8656   27.0553   47.3354 H   0  0  0  0  0  0  0  0  0  0  0  0
   24.4855   27.7229   47.8111 H   0  0  0  0  0  0  0  0  0  0  0  0
   23.5799   30.4515   50.0559 H   0  0  0  0  0  0  0  0  0  0  0  0
   23.0170   29.1601   48.9613 H   0  0  0  0  0  0  0  0  0  0  0  0
  1  5  1  0
  2  1  2  0
  3  5  1  0
  3  6  1  0
  3  4  1  0
  5  4  1  0
  7 12  2  0
  8  7  1  0
  9 10  1  0
  9  8  2  0
 10 11  2  0
 11  6  1  0
 11 12  1  0
 13 14  1  0
 13  1  1  0
 14 15  2  0
 15 16  1  0
 17 19  1  0
 17 16  2  0
 18 14  1  0
 18 17  1  0
 19 25  1  0
 20 21  2  0
 20 19  1  0
 21 22  1  0
 22 23  1  0
 22 24  2  0
 25 24  1  0
 25 26  2  0
  3 27  1  6
  4 28  1  0
  4 29  1  0
  5 30  1  1
  6 31  1  0
  6 32  1  0
  7 33  1  0
  8 34  1  0
  9 35  1  0
 15 36  1  0
 16 37  1  0
 20 38  1  0
 21 39  1  0
 23 40  1  0
 23 41  1  0
M  ISO  8  27  13  28  13  29  13  30  13  31   8  32   8  33  14  34  14
M  ISO  5  35  14  36  14  37  14  38  14  39  14
M  END
>  <minimizedAffinity>  (1) 
-6.32876635

>  <minimizedRMSD>  (1) 
1.75209093

$$$$
