
     RDKit          3D

 44 47  0  0  1  0  0  0  0  0999 V2000
   35.3480   29.3570   48.8920 C   0  0  2  0  0  0  0  0  0  0  0  0
   34.1800   29.1980   49.7490 C   0  0  0  0  0  0  0  0  0  0  0  0
   34.6480   27.9830   49.1470 C   0  0  1  0  0  0  0  0  0  0  0  0
   36.7140   29.4010   49.5990 C   0  0  0  0  0  0  0  0  0  0  0  0
   38.1220   32.7670   49.4440 C   0  0  0  0  0  0  0  0  0  0  0  0
   38.7790   32.7710   48.1990 C   0  0  0  0  0  0  0  0  0  0  0  0
   38.7220   31.5890   47.4230 C   0  0  0  0  0  0  0  0  0  0  0  0
   38.0360   30.5130   47.9210 N   0  0  0  0  0  0  0  0  0  0  0  0
   37.4270   30.5730   49.1230 C   0  0  0  0  0  0  0  0  0  0  0  0
   37.4790   31.7010   49.8710 N   0  0  0  0  0  0  0  0  0  0  0  0
   33.8000   27.4550   48.0080 C   0  0  0  0  0  0  0  0  0  0  0  0
   34.0030   26.1910   47.7850 O   0  0  0  0  0  0  0  0  0  0  0  0
   32.8830   28.1810   47.2450 O   0  0  0  0  0  0  0  0  0  0  0  0
   31.5410   28.2000   47.5190 C   0  0  0  0  0  0  0  0  0  0  0  0
   30.9050   27.6090   48.7220 C   0  0  0  0  0  0  0  0  0  0  0  0
   29.5650   27.7170   48.8370 C   0  0  0  0  0  0  0  0  0  0  0  0
   28.7790   28.3660   47.8630 C   0  0  0  0  0  0  0  0  0  0  0  0
   30.0350   28.9100   46.6030 S   0  0  0  0  0  0  0  0  0  0  0  0
   27.4590   28.5900   47.7660 N   0  0  0  0  0  0  0  0  0  0  0  0
   26.3840   27.8060   48.3930 C   0  0  0  0  0  0  0  0  0  0  0  0
   25.8400   28.6970   49.4800 C   0  0  0  0  0  0  0  0  0  0  0  0
   25.5320   30.0220   49.0960 N   0  0  0  0  0  0  0  0  0  0  0  0
   26.3160   30.6270   48.0830 C   0  0  0  0  0  0  0  0  0  0  0  0
   26.8230   29.6800   47.0090 C   0  0  0  0  0  0  0  0  0  0  0  0
   35.5987   30.0223   48.0526 H   0  0  0  0  0  0  0  0  0  0  0  0
   34.2915   29.3338   50.8349 H   0  0  0  0  0  0  0  0  0  0  0  0
   33.1962   29.6898   49.7655 H   0  0  0  0  0  0  0  0  0  0  0  0
   34.9634   26.9913   49.5035 H   0  0  0  0  0  0  0  0  0  0  0  0
   36.5692   29.4684   50.6873 H   0  0  0  0  0  0  0  0  0  0  0  0
   37.2880   28.4887   49.3794 H   0  0  0  0  0  0  0  0  0  0  0  0
   38.1465   33.6706   50.0709 H   0  0  0  0  0  0  0  0  0  0  0  0
   39.3175   33.6613   47.8420 H   0  0  0  0  0  0  0  0  0  0  0  0
   39.2173   31.5355   46.4423 H   0  0  0  0  0  0  0  0  0  0  0  0
   31.5041   27.1012   49.4922 H   0  0  0  0  0  0  0  0  0  0  0  0
   29.0699   27.2848   49.7191 H   0  0  0  0  0  0  0  0  0  0  0  0
   25.6000   27.5675   47.6592 H   0  0  0  0  0  0  0  0  0  0  0  0
   26.7469   26.8453   48.7870 H   0  0  0  0  0  0  0  0  0  0  0  0
   24.9190   28.2350   49.8650 H   0  0  0  0  0  0  0  0  0  0  0  0
   26.6446   28.7825   50.2251 H   0  0  0  0  0  0  0  0  0  0  0  0
   24.5554   30.0255   48.7687 H   0  0  0  0  0  0  0  0  0  0  0  0
   25.7044   31.4000   47.5947 H   0  0  0  0  0  0  0  0  0  0  0  0
   27.2092   31.0275   48.5849 H   0  0  0  0  0  0  0  0  0  0  0  0
   27.5539   30.1823   46.3583 H   0  0  0  0  0  0  0  0  0  0  0  0
   26.0207   29.3230   46.3465 H   0  0  0  0  0  0  0  0  0  0  0  0
  1  3  1  0
  1  4  1  0
  1  2  1  0
  3  2  1  0
  5 10  2  0
  6  5  1  0
  7  8  1  0
  7  6  2  0
  8  9  2  0
  9  4  1  0
  9 10  1  0
 11  3  1  0
 12 11  2  0
 13 14  1  0
 13 11  1  0
 14 15  2  0
 15 16  1  0
 17 16  2  0
 18 14  1  0
 18 17  1  0
 19 17  1  0
 19 20  1  0
 20 21  1  0
 22 21  1  0
 23 22  1  0
 24 19  1  0
 24 23  1  0
  1 25  1  6
  2 26  1  0
  2 27  1  0
  3 28  1  1
  4 29  1  0
  4 30  1  0
  5 31  1  0
  6 32  1  0
  7 33  1  0
 15 34  1  0
 16 35  1  0
 20 36  1  0
 20 37  1  0
 21 38  1  0
 21 39  1  0
 22 40  1  0
 23 41  1  0
 23 42  1  0
 24 43  1  0
 24 44  1  0
M  ISO  8  25  13  26  13  27  13  28  13  29   8  30   8  31  14  32  14
M  ISO  8  33  14  34  14  35  14  36  13  37  13  38  13  39  13  40   5
M  ISO  4  41  13  42  13  43  13  44  13
M  END
>  <minimizedAffinity>  (1) 
-6.29409313

>  <minimizedRMSD>  (1) 
1.46589375

$$$$
