
     RDKit          3D

 37 40  0  0  1  0  0  0  0  0999 V2000
   35.2240   29.1880   48.6040 C   0  0  2  0  0  0  0  0  0  0  0  0
   34.0110   29.3930   49.3920 C   0  0  0  0  0  0  0  0  0  0  0  0
   34.3190   28.0190   49.1170 C   0  0  1  0  0  0  0  0  0  0  0  0
   36.5500   29.2180   49.3820 C   0  0  0  0  0  0  0  0  0  0  0  0
   37.5870   32.7140   49.5880 C   0  0  0  0  0  0  0  0  0  0  0  0
   38.4680   32.8400   48.5000 C   0  0  0  0  0  0  0  0  0  0  0  0
   38.6940   31.6970   47.7020 C   0  0  0  0  0  0  0  0  0  0  0  0
   38.0440   30.5390   48.0330 N   0  0  0  0  0  0  0  0  0  0  0  0
   37.2150   30.4750   49.0800 C   0  0  0  0  0  0  0  0  0  0  0  0
   36.9900   31.5690   49.8560 N   0  0  0  0  0  0  0  0  0  0  0  0
   33.4530   27.3490   48.0750 C   0  0  0  0  0  0  0  0  0  0  0  0
   33.7780   26.1210   47.8450 O   0  0  0  0  0  0  0  0  0  0  0  0
   32.3950   27.9150   47.3930 O   0  0  0  0  0  0  0  0  0  0  0  0
   31.1430   28.0740   47.9050 C   0  0  0  0  0  0  0  0  0  0  0  0
   30.7330   27.6170   49.2480 C   0  0  0  0  0  0  0  0  0  0  0  0
   29.4610   27.8240   49.6730 C   0  0  0  0  0  0  0  0  0  0  0  0
   28.5390   28.4790   48.8150 C   0  0  0  0  0  0  0  0  0  0  0  0
   29.5300   28.8330   47.2970 S   0  0  0  0  0  0  0  0  0  0  0  0
   27.2160   28.8230   48.9610 C   0  0  0  0  0  0  0  0  0  0  0  0
   26.6400   30.0410   48.7780 C   0  0  0  0  0  0  0  0  0  0  0  0
   25.3030   29.9230   49.0340 N   0  0  0  0  0  0  0  0  0  0  0  0
   25.0620   28.6230   49.3730 C   0  0  0  0  0  0  0  0  0  0  0  0
   26.2630   27.9750   49.3170 N   0  0  0  0  0  0  0  0  0  0  0  0
   35.6019   29.5942   47.6541 H   0  0  0  0  0  0  0  0  0  0  0  0
   34.1003   29.7646   50.4235 H   0  0  0  0  0  0  0  0  0  0  0  0
   33.1097   30.0015   49.2266 H   0  0  0  0  0  0  0  0  0  0  0  0
   34.4703   27.1073   49.7136 H   0  0  0  0  0  0  0  0  0  0  0  0
   36.3517   29.1497   50.4618 H   0  0  0  0  0  0  0  0  0  0  0  0
   37.1850   28.3682   49.0912 H   0  0  0  0  0  0  0  0  0  0  0  0
   37.3918   33.5870   50.2281 H   0  0  0  0  0  0  0  0  0  0  0  0
   38.9644   33.7961   48.2778 H   0  0  0  0  0  0  0  0  0  0  0  0
   39.3738   31.7364   46.8381 H   0  0  0  0  0  0  0  0  0  0  0  0
   31.4572   27.1099   49.9025 H   0  0  0  0  0  0  0  0  0  0  0  0
   29.1475   27.4876   50.6723 H   0  0  0  0  0  0  0  0  0  0  0  0
   27.1603   30.9620   48.4761 H   0  0  0  0  0  0  0  0  0  0  0  0
   24.0897   28.1829   49.6394 H   0  0  0  0  0  0  0  0  0  0  0  0
   26.4062   26.9757   49.5212 H   0  0  0  0  0  0  0  0  0  0  0  0
  1  3  1  0
  1  4  1  0
  1  2  1  0
  3  2  1  0
  5 10  2  0
  6  5  1  0
  7  8  1  0
  7  6  2  0
  8  9  2  0
  9  4  1  0
  9 10  1  0
 11  3  1  0
 12 11  2  0
 13 14  1  0
 13 11  1  0
 14 15  2  0
 15 16  1  0
 17 19  1  0
 17 16  2  0
 18 14  1  0
 18 17  1  0
 19 23  1  0
 20 19  2  0
 20 21  1  0
 21 22  2  0
 23 22  1  0
  1 24  1  6
  2 25  1  0
  2 26  1  0
  3 27  1  1
  4 28  1  0
  4 29  1  0
  5 30  1  0
  6 31  1  0
  7 32  1  0
 15 33  1  0
 16 34  1  0
 20 35  1  0
 22 36  1  0
 23 37  1  0
M  ISO  8  24  13  25  13  26  13  27  13  28   8  29   8  30  14  31  14
M  ISO  6  32  14  33  14  34  14  35  14  36  14  37   9
M  END
>  <minimizedAffinity>  (1) 
-6.27981806

>  <minimizedRMSD>  (1) 
1.55028725

$$$$
