
     RDKit          3D

 30 33  0  0  0  0  0  0  0  0999 V2000
   36.7370   31.2290   48.7530 N   0  0  0  0  0  0  0  0  0  0  0  0
   36.8420   32.0770   49.8060 C   0  0  0  0  0  0  0  0  0  0  0  0
   37.8430   32.9580   49.5280 N   0  0  0  0  0  0  0  0  0  0  0  0
   38.3250   32.6400   48.3330 C   0  0  0  0  0  0  0  0  0  0  0  0
   39.3340   33.1670   47.5390 C   0  0  0  0  0  0  0  0  0  0  0  0
   39.6240   32.6310   46.3260 N   0  0  0  0  0  0  0  0  0  0  0  0
   38.9500   31.5670   45.8420 C   0  0  0  0  0  0  0  0  0  0  0  0
   37.9720   31.0640   46.6230 N   0  0  0  0  0  0  0  0  0  0  0  0
   37.6480   31.5570   47.8260 C   0  0  0  0  0  0  0  0  0  0  0  0
   40.0710   34.2760   47.9920 N   0  0  0  0  0  0  0  0  0  0  0  0
   34.7520   30.2490   47.7240 C   0  0  0  0  0  0  0  0  0  0  0  0
   35.7860   30.1630   48.6900 C   0  0  0  0  0  0  0  0  0  0  0  0
   35.7850   29.0350   49.5000 C   0  0  0  0  0  0  0  0  0  0  0  0
   34.8210   28.0880   49.3390 N   0  0  0  0  0  0  0  0  0  0  0  0
   33.8590   28.2140   48.4070 C   0  0  0  0  0  0  0  0  0  0  0  0
   33.8200   29.2970   47.5940 N   0  0  0  0  0  0  0  0  0  0  0  0
   32.7930   27.1870   48.2160 C   0  0  0  0  0  0  0  0  0  0  0  0
   31.4280   27.5270   48.7780 C   0  0  0  0  0  0  0  0  0  0  0  0
   31.6620   27.5580   47.3130 C   0  0  0  0  0  0  0  0  0  0  0  0
   36.2295   32.0570   50.7195 H   0  0  0  0  0  0  0  0  0  0  0  0
   39.1862   31.1316   44.8598 H   0  0  0  0  0  0  0  0  0  0  0  0
   40.8207   34.6703   47.4060 H   0  0  0  0  0  0  0  0  0  0  0  0
   39.8610   34.6938   48.9097 H   0  0  0  0  0  0  0  0  0  0  0  0
   34.7144   31.1255   47.0605 H   0  0  0  0  0  0  0  0  0  0  0  0
   36.5609   28.9074   50.2692 H   0  0  0  0  0  0  0  0  0  0  0  0
   33.4852   26.3356   48.2933 H   0  0  0  0  0  0  0  0  0  0  0  0
   30.8018   26.7375   49.2191 H   0  0  0  0  0  0  0  0  0  0  0  0
   31.0477   28.2427   49.5217 H   0  0  0  0  0  0  0  0  0  0  0  0
   31.6794   28.5214   46.7823 H   0  0  0  0  0  0  0  0  0  0  0  0
   31.1807   27.0834   46.4452 H   0  0  0  0  0  0  0  0  0  0  0  0
  1  2  1  0
  3  2  2  0
  4  3  1  0
  5 10  1  0
  5  4  2  0
  6  5  1  0
  7  6  2  0
  7  8  1  0
  8  9  2  0
  9  4  1  0
  9  1  1  0
 11 12  2  0
 12  1  1  0
 12 13  1  0
 14 13  2  0
 15 14  1  0
 16 11  1  0
 16 15  2  0
 17 15  1  0
 17 18  1  0
 19 17  1  0
 19 18  1  0
  2 20  1  0
  7 21  1  0
 10 22  1  0
 10 23  1  0
 11 24  1  0
 13 25  1  0
 17 26  1  0
 18 27  1  0
 18 28  1  0
 19 29  1  0
 19 30  1  0
M  ISO  8  20  14  21  14  24  14  25  14  26  13  27  13  28  13  29  13
M  ISO  1  30  13
M  END
>  <minimizedAffinity>  (1) 
-5.63633823

>  <minimizedRMSD>  (1) 
2.52239799

$$$$
