
     RDKit          3D

 51 54  0  0  1  0  0  0  0  0999 V2000
   38.0350   32.2480   45.3630 C   0  0  0  0  0  0  0  0  0  0  0  0
   38.6350   31.8540   44.0610 C   0  0  0  0  0  0  0  0  0  0  0  0
   39.0880   32.8650   43.1420 C   0  0  0  0  0  0  0  0  0  0  0  0
   39.7080   31.8450   41.7690 S   0  0  0  0  0  0  0  0  0  0  0  0
   39.2660   30.2420   42.6400 C   0  0  0  0  0  0  0  0  0  0  0  0
   38.8280   30.6600   43.5950 N   0  0  0  0  0  0  0  0  0  0  0  0
   39.4540   28.8830   42.1760 N   0  0  0  0  0  0  0  0  0  0  0  0
   39.1040   27.7890   42.8400 C   0  0  0  0  0  0  0  0  0  0  0  0
   39.4410   26.7150   42.0910 N   0  0  0  0  0  0  0  0  0  0  0  0
   40.0010   27.2140   40.9580 C   0  0  0  0  0  0  0  0  0  0  0  0
   40.5160   26.5130   39.8590 C   0  0  0  0  0  0  0  0  0  0  0  0
   41.0270   27.2550   38.8430 N   0  0  0  0  0  0  0  0  0  0  0  0
   41.0280   28.6050   38.9100 C   0  0  0  0  0  0  0  0  0  0  0  0
   40.5310   29.3090   39.9730 N   0  0  0  0  0  0  0  0  0  0  0  0
   40.0160   28.6120   41.0020 C   0  0  0  0  0  0  0  0  0  0  0  0
   40.4900   25.0940   39.8430 N   0  0  0  0  0  0  0  0  0  0  0  0
   38.1930   31.2000   46.4320 C   0  0  1  0  0  0  0  0  0  0  0  0
   35.1030   29.6610   48.0180 C   0  0  0  0  0  0  0  0  0  0  0  0
   36.3840   30.2330   47.9210 C   0  0  0  0  0  0  0  0  0  0  0  0
   36.8790   30.5950   46.6810 C   0  0  0  0  0  0  0  0  0  0  0  0
   36.0570   30.3620   45.5760 N   0  0  0  0  0  0  0  0  0  0  0  0
   34.8370   29.8140   45.6980 C   0  0  0  0  0  0  0  0  0  0  0  0
   34.3530   29.4620   46.8990 N   0  0  0  0  0  0  0  0  0  0  0  0
   39.0880   30.0940   45.8810 C   0  0  0  0  0  0  0  0  0  0  0  0
   38.8230   31.7800   47.6220 C   0  0  0  0  0  0  0  0  0  0  0  0
   38.2600   33.0390   47.8760 O   0  0  0  0  0  0  0  0  0  0  0  0
   38.3680   33.2420   49.2500 C   0  0  0  0  0  0  0  0  0  0  0  0
   39.5020   34.1600   49.6220 C   0  0  0  0  0  0  0  0  0  0  0  0
   38.5880   31.9120   49.9770 C   0  0  0  0  0  0  0  0  0  0  0  0
   38.5214   33.1730   45.7061 H   0  0  0  0  0  0  0  0  0  0  0  0
   36.9562   32.3845   45.1970 H   0  0  0  0  0  0  0  0  0  0  0  0
   39.0654   33.9601   43.2428 H   0  0  0  0  0  0  0  0  0  0  0  0
   38.6229   27.7607   43.8288 H   0  0  0  0  0  0  0  0  0  0  0  0
   41.4509   29.1679   38.0648 H   0  0  0  0  0  0  0  0  0  0  0  0
   40.8691   24.5811   39.0342 H   0  0  0  0  0  0  0  0  0  0  0  0
   40.0921   24.5772   40.6402 H   0  0  0  0  0  0  0  0  0  0  0  0
   34.7050   29.3730   49.0022 H   0  0  0  0  0  0  0  0  0  0  0  0
   36.9889   30.3917   48.8259 H   0  0  0  0  0  0  0  0  0  0  0  0
   34.2246   29.6511   44.7989 H   0  0  0  0  0  0  0  0  0  0  0  0
   39.5387   29.5371   46.7157 H   0  0  0  0  0  0  0  0  0  0  0  0
   38.4871   29.4088   45.2650 H   0  0  0  0  0  0  0  0  0  0  0  0
   39.8835   30.5388   45.2650 H   0  0  0  0  0  0  0  0  0  0  0  0
   38.6538   31.1205   48.4860 H   0  0  0  0  0  0  0  0  0  0  0  0
   39.9045   31.8869   47.4520 H   0  0  0  0  0  0  0  0  0  0  0  0
   37.4205   33.7097   49.5560 H   0  0  0  0  0  0  0  0  0  0  0  0
   39.5790   34.2223   50.7175 H   0  0  0  0  0  0  0  0  0  0  0  0
   40.4428   33.7661   49.2101 H   0  0  0  0  0  0  0  0  0  0  0  0
   39.3126   35.1622   49.2101 H   0  0  0  0  0  0  0  0  0  0  0  0
   38.5603   32.0793   51.0639 H   0  0  0  0  0  0  0  0  0  0  0  0
   37.7947   31.2042   49.6946 H   0  0  0  0  0  0  0  0  0  0  0  0
   39.5669   31.4973   49.6946 H   0  0  0  0  0  0  0  0  0  0  0  0
  2  1  1  0
  3  2  2  0
  4  5  1  0
  4  3  1  0
  5  6  2  0
  6  2  1  0
  7  5  1  0
  7  8  1  0
  9  8  2  0
 10 15  2  0
 10  9  1  0
 11 10  1  0
 12 13  1  0
 12 11  2  0
 13 14  2  0
 14 15  1  0
 15  7  1  0
 16 11  1  0
 17  1  1  6
 17 20  1  0
 17 25  1  0
 19 18  2  0
 20 19  1  0
 21 22  1  0
 21 20  2  0
 22 23  2  0
 23 18  1  0
 24 17  1  0
 25 26  1  0
 26 27  1  0
 27 28  1  0
 27 29  1  0
  1 30  1  0
  1 31  1  0
  3 32  1  0
  8 33  1  0
 13 34  1  0
 16 35  1  0
 16 36  1  0
 18 37  1  0
 19 38  1  0
 22 39  1  0
 24 40  1  0
 24 41  1  0
 24 42  1  0
 25 43  1  0
 25 44  1  0
 27 45  1  0
 28 46  1  0
 28 47  1  0
 28 48  1  0
 29 49  1  0
 29 50  1  0
 29 51  1  0
M  ISO  8  30   8  31   8  32  14  33  14  34  14  37  14  38  14  39  14
M  ISO  8  40   8  41   8  42   8  43   8  44   8  45   8  46   8  47   8
M  ISO  4  48   8  49   8  50   8  51   8
M  END
>  <minimizedAffinity>  (1) 
-5.72678709

>  <minimizedRMSD>  (1) 
2.55470014

$$$$
