
     RDKit          3D

 32 33  0  0  0  0  0  0  0  0999 V2000
   37.0970   29.5360   50.7190 C   0  0  0  0  0  0  0  0  0  0  0  0
   37.6020   29.9950   49.4930 C   0  0  0  0  0  0  0  0  0  0  0  0
   36.7000   30.3820   48.5170 C   0  0  0  0  0  0  0  0  0  0  0  0
   35.3540   30.3020   48.7870 N   0  0  0  0  0  0  0  0  0  0  0  0
   34.9010   29.8530   49.9830 C   0  0  0  0  0  0  0  0  0  0  0  0
   35.7530   29.4730   50.9410 N   0  0  0  0  0  0  0  0  0  0  0  0
   37.2170   30.8440   47.2840 N   0  0  0  0  0  0  0  0  0  0  0  0
   36.4140   30.4600   46.2470 C   0  0  0  0  0  0  0  0  0  0  0  0
   36.7070   30.7900   44.9400 C   0  0  0  0  0  0  0  0  0  0  0  0
   37.8690   31.5420   44.7110 C   0  0  0  0  0  0  0  0  0  0  0  0
   38.1640   31.8590   43.5330 O   0  0  0  0  0  0  0  0  0  0  0  0
   38.6250   31.8960   45.7730 N   0  0  0  0  0  0  0  0  0  0  0  0
   38.3050   31.5550   47.0240 C   0  0  0  0  0  0  0  0  0  0  0  0
   38.9560   31.8480   48.0390 O   0  0  0  0  0  0  0  0  0  0  0  0
   39.8190   32.6690   45.5480 C   0  0  0  0  0  0  0  0  0  0  0  0
   39.7700   33.4880   44.2710 C   0  0  0  0  0  0  0  0  0  0  0  0
   40.1720   33.6090   46.6710 C   0  0  0  0  0  0  0  0  0  0  0  0
   40.9620   31.6600   45.4470 C   0  0  0  0  0  0  0  0  0  0  0  0
   37.7937   29.2232   51.5107 H   0  0  0  0  0  0  0  0  0  0  0  0
   38.6859   30.0459   49.3123 H   0  0  0  0  0  0  0  0  0  0  0  0
   33.8179   29.8005   50.1680 H   0  0  0  0  0  0  0  0  0  0  0  0
   35.5093   29.8717   46.4603 H   0  0  0  0  0  0  0  0  0  0  0  0
   36.0558   30.4762   44.1108 H   0  0  0  0  0  0  0  0  0  0  0  0
   39.7061   34.5568   44.5231 H   0  0  0  0  0  0  0  0  0  0  0  0
   40.6808   33.3040   43.6822 H   0  0  0  0  0  0  0  0  0  0  0  0
   38.8877   33.1967   43.6822 H   0  0  0  0  0  0  0  0  0  0  0  0
   39.9861   33.1140   47.6356 H   0  0  0  0  0  0  0  0  0  0  0  0
   41.2346   33.8839   46.5987 H   0  0  0  0  0  0  0  0  0  0  0  0
   39.5530   34.5154   46.5987 H   0  0  0  0  0  0  0  0  0  0  0  0
   41.2877   31.3725   46.4576 H   0  0  0  0  0  0  0  0  0  0  0  0
   40.6162   30.7672   44.9054 H   0  0  0  0  0  0  0  0  0  0  0  0
   41.8050   32.1139   44.9054 H   0  0  0  0  0  0  0  0  0  0  0  0
  1  6  2  0
  2  1  1  0
  3  4  1  0
  3  2  2  0
  4  5  2  0
  5  6  1  0
  7  3  1  0
  8  7  1  0
  9  8  2  0
 10  9  1  0
 10 12  1  0
 11 10  2  0
 12 13  1  0
 13  7  1  0
 13 14  2  0
 15 12  1  0
 15 17  1  0
 16 15  1  0
 18 15  1  0
  1 19  1  0
  2 20  1  0
  5 21  1  0
  8 22  1  0
  9 23  1  0
 16 24  1  0
 16 25  1  0
 16 26  1  0
 17 27  1  0
 17 28  1  0
 17 29  1  0
 18 30  1  0
 18 31  1  0
 18 32  1  0
M  ISO  8  19  14  20  14  21  14  22  14  23  14  24   8  25   8  26   8
M  ISO  6  27   8  28   8  29   8  30   8  31   8  32   8
M  END
>  <minimizedAffinity>  (1) 
-5.65460634

>  <minimizedRMSD>  (1) 
2.28081012

$$$$
