
     RDKit          3D

 33 35  0  0  1  0  0  0  0  0999 V2000
   38.0930   31.5080   47.2260 N   0  0  0  0  0  0  0  0  0  0  0  0
   38.8120   32.0940   48.2370 C   0  0  0  0  0  0  0  0  0  0  0  0
   38.3950   32.0140   49.5670 C   0  0  0  0  0  0  0  0  0  0  0  0
   37.2160   31.3130   49.8360 C   0  0  0  0  0  0  0  0  0  0  0  0
   36.8340   31.2370   51.0100 O   0  0  0  0  0  0  0  0  0  0  0  0
   36.5540   30.7570   48.7930 N   0  0  0  0  0  0  0  0  0  0  0  0
   36.9880   30.8600   47.5420 C   0  0  0  0  0  0  0  0  0  0  0  0
   36.4160   30.3740   46.5610 O   0  0  0  0  0  0  0  0  0  0  0  0
   40.4850   31.2860   44.4590 C   0  0  0  0  0  0  0  0  0  0  0  0
   39.8880   31.0600   45.7210 C   0  0  0  0  0  0  0  0  0  0  0  0
   38.7060   31.7170   45.9730 C   0  0  0  0  0  0  0  0  0  0  0  0
   38.1580   32.5500   45.0170 N   0  0  0  0  0  0  0  0  0  0  0  0
   38.7680   32.7360   43.8210 C   0  0  0  0  0  0  0  0  0  0  0  0
   39.9310   32.1070   43.5350 N   0  0  0  0  0  0  0  0  0  0  0  0
   35.3590   30.0440   49.1190 C   0  0  2  0  0  0  0  0  0  0  0  0
   35.1390   29.3870   50.4120 C   0  0  0  0  0  0  0  0  0  0  0  0
   35.2200   28.5860   49.0690 C   0  0  1  0  0  0  0  0  0  0  0  0
   33.9170   27.9620   48.5850 C   0  0  0  0  0  0  0  0  0  0  0  0
   33.5940   28.4840   47.2060 C   0  0  0  0  0  0  0  0  0  0  0  0
   39.7366   32.6384   47.9945 H   0  0  0  0  0  0  0  0  0  0  0  0
   38.9738   32.4859   50.3746 H   0  0  0  0  0  0  0  0  0  0  0  0
   41.4309   30.7780   44.2198 H   0  0  0  0  0  0  0  0  0  0  0  0
   40.3464   30.3916   46.4647 H   0  0  0  0  0  0  0  0  0  0  0  0
   38.3130   33.4049   43.0757 H   0  0  0  0  0  0  0  0  0  0  0  0
   34.8486   30.8588   48.5845 H   0  0  0  0  0  0  0  0  0  0  0  0
   35.9534   29.3218   51.1486 H   0  0  0  0  0  0  0  0  0  0  0  0
   34.4146   29.4815   51.2344 H   0  0  0  0  0  0  0  0  0  0  0  0
   35.8233   27.7711   48.6425 H   0  0  0  0  0  0  0  0  0  0  0  0
   34.0256   26.8680   48.5473 H   0  0  0  0  0  0  0  0  0  0  0  0
   33.1038   28.2248   49.2776 H   0  0  0  0  0  0  0  0  0  0  0  0
   33.0170   29.4165   47.2928 H   0  0  0  0  0  0  0  0  0  0  0  0
   34.5286   28.6805   46.6601 H   0  0  0  0  0  0  0  0  0  0  0  0
   33.0011   27.7354   46.6601 H   0  0  0  0  0  0  0  0  0  0  0  0
  1  7  1  0
  1  2  1  0
  2  3  2  0
  3  4  1  0
  4  5  2  0
  6 15  1  0
  6  4  1  0
  7  6  1  0
  8  7  2  0
  9 10  2  0
 10 11  1  0
 11  1  1  0
 12 11  2  0
 13 12  1  0
 14 13  2  0
 14  9  1  0
 15 16  1  0
 17 15  1  0
 17 16  1  0
 18 17  1  0
 19 18  1  0
  2 20  1  0
  3 21  1  0
  9 22  1  0
 10 23  1  0
 13 24  1  0
 15 25  1  6
 16 26  1  0
 16 27  1  0
 17 28  1  1
 18 29  1  0
 18 30  1  0
 19 31  1  0
 19 32  1  0
 19 33  1  0
M  ISO  8  20  14  21  14  22  14  23  14  24  14  25  13  26  13  27  13
M  ISO  6  28  13  29   8  30   8  31   8  32   8  33   8
M  END
>  <minimizedAffinity>  (1) 
-5.93866301

>  <minimizedRMSD>  (1) 
6.43429041

$$$$
