
     RDKit          3D

 24 26  0  0  0  0  0  0  0  0999 V2000
   38.4210   32.0220   48.7560 C   0  0  0  0  0  0  0  0  0  0  0  0
   38.6670   33.1360   49.5090 N   0  0  0  0  0  0  0  0  0  0  0  0
   39.4150   34.1590   49.0500 C   0  0  0  0  0  0  0  0  0  0  0  0
   39.9670   34.1420   47.8150 N   0  0  0  0  0  0  0  0  0  0  0  0
   39.7500   33.0610   47.0390 C   0  0  0  0  0  0  0  0  0  0  0  0
   40.2620   32.9140   45.7660 C   0  0  0  0  0  0  0  0  0  0  0  0
   40.0250   31.7780   44.9980 C   0  0  0  0  0  0  0  0  0  0  0  0
   39.2430   30.7360   45.5100 C   0  0  0  0  0  0  0  0  0  0  0  0
   38.7230   30.8670   46.7800 C   0  0  0  0  0  0  0  0  0  0  0  0
   38.9870   32.0120   47.5010 C   0  0  0  0  0  0  0  0  0  0  0  0
   36.2030   31.2250   49.2200 C   0  0  0  0  0  0  0  0  0  0  0  0
   37.5970   31.0340   49.4280 C   0  0  0  0  0  0  0  0  0  0  0  0
   37.9500   29.9390   50.2110 C   0  0  0  0  0  0  0  0  0  0  0  0
   36.9790   29.1410   50.7190 N   0  0  0  0  0  0  0  0  0  0  0  0
   35.6730   29.3630   50.4940 C   0  0  0  0  0  0  0  0  0  0  0  0
   35.2680   30.3980   49.7490 N   0  0  0  0  0  0  0  0  0  0  0  0
   39.5813   35.0323   49.6978 H   0  0  0  0  0  0  0  0  0  0  0  0
   40.8781   33.7218   45.3442 H   0  0  0  0  0  0  0  0  0  0  0  0
   40.4526   31.6988   43.9876 H   0  0  0  0  0  0  0  0  0  0  0  0
   39.0479   29.8332   44.9126 H   0  0  0  0  0  0  0  0  0  0  0  0
   38.1045   30.0671   47.2131 H   0  0  0  0  0  0  0  0  0  0  0  0
   35.8710   32.0758   48.6068 H   0  0  0  0  0  0  0  0  0  0  0  0
   39.0088   29.7227   50.4161 H   0  0  0  0  0  0  0  0  0  0  0  0
   34.9254   28.6834   50.9290 H   0  0  0  0  0  0  0  0  0  0  0  0
  1 12  1  0
  1  2  2  0
  3  2  1  0
  4  3  2  0
  5 10  2  0
  5  4  1  0
  6  5  1  0
  7  8  1  0
  7  6  2  0
  8  9  2  0
  9 10  1  0
 10  1  1  0
 11 12  2  0
 11 16  1  0
 12 13  1  0
 13 14  2  0
 15 14  1  0
 16 15  2  0
  3 17  1  0
  6 18  1  0
  7 19  1  0
  8 20  1  0
  9 21  1  0
 11 22  1  0
 13 23  1  0
 15 24  1  0
M  ISO  8  17  14  18  14  19  14  20  14  21  14  22  14  23  14  24  14
M  END
>  <minimizedAffinity>  (1) 
-5.72355604

>  <minimizedRMSD>  (1) 
4.0398736

$$$$
