
     RDKit          3D

 23 24  0  0  0  0  0  0  0  0999 V2000
   37.1030   30.1130   51.0820 C   0  0  0  0  0  0  0  0  0  0  0  0
   37.1080   30.8440   49.8860 C   0  0  0  0  0  0  0  0  0  0  0  0
   35.9880   30.7640   49.0560 C   0  0  0  0  0  0  0  0  0  0  0  0
   34.9510   29.9810   49.4510 N   0  0  0  0  0  0  0  0  0  0  0  0
   34.9680   29.2860   50.6040 C   0  0  0  0  0  0  0  0  0  0  0  0
   36.0430   29.3480   51.4250 N   0  0  0  0  0  0  0  0  0  0  0  0
   38.2350   31.6900   49.4670 C   0  0  0  0  0  0  0  0  0  0  0  0
   38.5790   31.5320   48.0030 C   0  0  0  0  0  0  0  0  0  0  0  0
   39.1770   32.8580   47.5790 C   0  0  0  0  0  0  0  0  0  0  0  0
   39.1720   33.7230   48.8210 C   0  0  0  0  0  0  0  0  0  0  0  0
   37.9540   33.1740   49.5390 C   0  0  0  0  0  0  0  0  0  0  0  0
   37.9746   30.1627   51.7512 H   0  0  0  0  0  0  0  0  0  0  0  0
   35.9467   31.3201   48.1078 H   0  0  0  0  0  0  0  0  0  0  0  0
   34.1037   28.6643   50.8806 H   0  0  0  0  0  0  0  0  0  0  0  0
   39.0244   31.3617   50.1591 H   0  0  0  0  0  0  0  0  0  0  0  0
   39.3086   30.7204   47.8655 H   0  0  0  0  0  0  0  0  0  0  0  0
   37.6940   31.2743   47.4027 H   0  0  0  0  0  0  0  0  0  0  0  0
   40.2050   32.7163   47.2140 H   0  0  0  0  0  0  0  0  0  0  0  0
   38.6053   33.3188   46.7600 H   0  0  0  0  0  0  0  0  0  0  0  0
   40.0883   33.5864   49.4141 H   0  0  0  0  0  0  0  0  0  0  0  0
   39.1380   34.8048   48.6246 H   0  0  0  0  0  0  0  0  0  0  0  0
   37.0223   33.4364   49.0164 H   0  0  0  0  0  0  0  0  0  0  0  0
   37.8089   33.5635   50.5575 H   0  0  0  0  0  0  0  0  0  0  0  0
  1  6  2  0
  2  1  1  0
  3  4  1  0
  3  2  2  0
  4  5  2  0
  5  6  1  0
  7 11  1  0
  7  2  1  0
  8  7  1  0
  9  8  1  0
  9 10  1  0
 10 11  1  0
  1 12  1  0
  3 13  1  0
  5 14  1  0
  7 15  1  0
  8 16  1  0
  8 17  1  0
  9 18  1  0
  9 19  1  0
 10 20  1  0
 10 21  1  0
 11 22  1  0
 11 23  1  0
M  ISO  8  12  14  13  14  14  14  15  13  16  13  17  13  18  13  19  13
M  ISO  4  20  13  21  13  22  13  23  13
M  END
>  <minimizedAffinity>  (1) 
-4.84716654

>  <minimizedRMSD>  (1) 
1.61685669

$$$$
