
     RDKit          3D

 16 17  0  0  0  0  0  0  0  0999 V2000
   37.6220   30.4520   50.8870 C   0  0  0  0  0  0  0  0  0  0  0  0
   38.3240   31.3600   50.0770 C   0  0  0  0  0  0  0  0  0  0  0  0
   37.8630   31.5980   48.7790 C   0  0  0  0  0  0  0  0  0  0  0  0
   36.7430   30.9290   48.3600 N   0  0  0  0  0  0  0  0  0  0  0  0
   36.0870   30.0610   49.1590 C   0  0  0  0  0  0  0  0  0  0  0  0
   36.5220   29.8250   50.4090 N   0  0  0  0  0  0  0  0  0  0  0  0
   34.8950   29.3760   48.6570 C   0  0  0  0  0  0  0  0  0  0  0  0
   34.3430   28.3130   49.3750 C   0  0  0  0  0  0  0  0  0  0  0  0
   32.8800   27.8330   48.2930 S   0  0  0  0  0  0  0  0  0  0  0  0
   33.3350   29.2100   47.0660 C   0  0  0  0  0  0  0  0  0  0  0  0
   34.2480   29.6790   47.5230 N   0  0  0  0  0  0  0  0  0  0  0  0
   37.9670   30.2502   51.9118 H   0  0  0  0  0  0  0  0  0  0  0  0
   39.2193   31.8739   50.4569 H   0  0  0  0  0  0  0  0  0  0  0  0
   38.3841   32.3018   48.1134 H   0  0  0  0  0  0  0  0  0  0  0  0
   34.6765   27.8712   50.3256 H   0  0  0  0  0  0  0  0  0  0  0  0
   32.8255   29.4833   46.1302 H   0  0  0  0  0  0  0  0  0  0  0  0
  2  1  2  0
  3  2  1  0
  4  3  2  0
  4  5  1  0
  5  6  2  0
  6  1  1  0
  7  5  1  0
  7  8  2  0
  9  8  1  0
 10 11  2  0
 10  9  1  0
 11  7  1  0
  1 12  1  0
  2 13  1  0
  3 14  1  0
  8 15  1  0
 10 16  1  0
M  ISO  5  12  14  13  14  14  14  15  14  16  14
M  END
>  <minimizedAffinity>  (1) 
-3.67453647

>  <minimizedRMSD>  (1) 
1.46262658

$$$$
