
     RDKit          3D

 17 18  0  0  0  0  0  0  0  0999 V2000
   38.0550   30.9040   50.5830 C   0  0  0  0  0  0  0  0  0  0  0  0
   37.8030   30.7060   49.1980 C   0  0  0  0  0  0  0  0  0  0  0  0
   36.7730   29.8130   48.8550 C   0  0  0  0  0  0  0  0  0  0  0  0
   36.0850   29.1970   49.8550 N   0  0  0  0  0  0  0  0  0  0  0  0
   36.3590   29.4140   51.1680 C   0  0  0  0  0  0  0  0  0  0  0  0
   37.3380   30.2620   51.5090 N   0  0  0  0  0  0  0  0  0  0  0  0
   38.5130   31.3430   48.1240 C   0  0  0  0  0  0  0  0  0  0  0  0
   38.7940   32.6930   48.1720 C   0  0  0  0  0  0  0  0  0  0  0  0
   39.4640   32.9740   47.0190 N   0  0  0  0  0  0  0  0  0  0  0  0
   39.5740   31.8330   46.3150 C   0  0  0  0  0  0  0  0  0  0  0  0
   38.9900   30.8110   46.9840 N   0  0  0  0  0  0  0  0  0  0  0  0
   38.8513   31.5953   50.8962 H   0  0  0  0  0  0  0  0  0  0  0  0
   36.5282   29.6162   47.8008 H   0  0  0  0  0  0  0  0  0  0  0  0
   35.7799   28.8960   51.9467 H   0  0  0  0  0  0  0  0  0  0  0  0
   38.5314   33.3972   48.9752 H   0  0  0  0  0  0  0  0  0  0  0  0
   40.0677   31.7432   45.3361 H   0  0  0  0  0  0  0  0  0  0  0  0
   38.9244   29.8284   46.6823 H   0  0  0  0  0  0  0  0  0  0  0  0
  1  6  2  0
  2  1  1  0
  3  2  2  0
  3  4  1  0
  4  5  2  0
  5  6  1  0
  7  8  2  0
  7  2  1  0
  9  8  1  0
 10 11  1  0
 10  9  2  0
 11  7  1  0
  1 12  1  0
  3 13  1  0
  5 14  1  0
  8 15  1  0
 10 16  1  0
 11 17  1  0
M  ISO  6  12  14  13  14  14  14  15  14  16  14  17   9
M  END
>  <minimizedAffinity>  (1) 
-4.28885984

>  <minimizedRMSD>  (1) 
2.6801281

$$$$
