
     RDKit          3D

 16 16  0  0  0  0  0  0  0  0999 V2000
   38.6280   32.5920   49.0600 C   0  0  0  0  0  0  0  0  0  0  0  0
   38.4840   32.3990   47.6710 C   0  0  0  0  0  0  0  0  0  0  0  0
   37.9790   31.1610   47.2270 C   0  0  0  0  0  0  0  0  0  0  0  0
   37.6590   30.2300   48.1650 N   0  0  0  0  0  0  0  0  0  0  0  0
   37.8100   30.4520   49.4830 C   0  0  0  0  0  0  0  0  0  0  0  0
   38.2960   31.6360   49.9320 N   0  0  0  0  0  0  0  0  0  0  0  0
   37.4500   29.4130   50.4650 C   0  0  0  0  0  0  0  0  0  0  0  0
   37.3280   29.9550   51.8670 C   0  0  0  0  0  0  0  0  0  0  0  0
   39.0216   33.5489   49.4333 H   0  0  0  0  0  0  0  0  0  0  0  0
   38.7572   33.1897   46.9567 H   0  0  0  0  0  0  0  0  0  0  0  0
   37.8476   30.9539   46.1547 H   0  0  0  0  0  0  0  0  0  0  0  0
   36.4856   28.9718   50.1730 H   0  0  0  0  0  0  0  0  0  0  0  0
   38.2557   28.6642   50.4671 H   0  0  0  0  0  0  0  0  0  0  0  0
   37.5101   29.1462   52.5899 H   0  0  0  0  0  0  0  0  0  0  0  0
   38.0687   30.7543   52.0169 H   0  0  0  0  0  0  0  0  0  0  0  0
   36.3163   30.3599   52.0169 H   0  0  0  0  0  0  0  0  0  0  0  0
  1  6  2  0
  2  1  1  0
  3  2  2  0
  3  4  1  0
  4  5  2  0
  5  6  1  0
  5  7  1  0
  7  8  1  0
  1  9  1  0
  2 10  1  0
  3 11  1  0
  7 12  1  0
  7 13  1  0
  8 14  1  0
  8 15  1  0
  8 16  1  0
M  ISO  8   9  14  10  14  11  14  12   8  13   8  14   8  15   8  16   8
M  END
>  <minimizedAffinity>  (1) 
-3.60407305

>  <minimizedRMSD>  (1) 
2.94751263

$$$$
