
     RDKit          3D

 13 13  0  0  0  0  0  0  0  0999 V2000
   37.0830   30.3310   51.0810 C   0  0  0  0  0  0  0  0  0  0  0  0
   37.4870   30.7630   49.8100 C   0  0  0  0  0  0  0  0  0  0  0  0
   36.8720   30.2260   48.6820 C   0  0  0  0  0  0  0  0  0  0  0  0
   35.8990   29.3000   48.8710 N   0  0  0  0  0  0  0  0  0  0  0  0
   35.5280   28.9000   50.1130 C   0  0  0  0  0  0  0  0  0  0  0  0
   36.1060   29.4030   51.2170 N   0  0  0  0  0  0  0  0  0  0  0  0
   38.5630   31.7840   49.7290 C   0  0  0  0  0  0  0  0  0  0  0  0
   37.5644   30.7500   51.9769 H   0  0  0  0  0  0  0  0  0  0  0  0
   37.1657   30.5425   47.6703 H   0  0  0  0  0  0  0  0  0  0  0  0
   34.7346   28.1455   50.2190 H   0  0  0  0  0  0  0  0  0  0  0  0
   38.8696   32.0749   50.7446 H   0  0  0  0  0  0  0  0  0  0  0  0
   39.4263   31.3650   49.1912 H   0  0  0  0  0  0  0  0  0  0  0  0
   38.1899   32.6681   49.1912 H   0  0  0  0  0  0  0  0  0  0  0  0
  1  6  2  0
  2  1  1  0
  3  4  1  0
  3  2  2  0
  4  5  2  0
  5  6  1  0
  7  2  1  0
  1  8  1  0
  3  9  1  0
  5 10  1  0
  7 11  1  0
  7 12  1  0
  7 13  1  0
M  ISO  6   8  14   9  14  10  14  11   8  12   8  13   8
M  END
>  <minimizedAffinity>  (1) 
-3.04115391

>  <minimizedRMSD>  (1) 
0.752266049

$$$$
