
     RDKit          3D

 11 11  0  0  0  0  0  0  0  0999 V2000
   37.4630   30.5210   51.0110 C   0  0  0  0  0  0  0  0  0  0  0  0
   37.2070   31.2560   49.8460 C   0  0  0  0  0  0  0  0  0  0  0  0
   36.0410   30.9720   49.1340 C   0  0  0  0  0  0  0  0  0  0  0  0
   35.2060   29.9850   49.6110 N   0  0  0  0  0  0  0  0  0  0  0  0
   35.5000   29.3100   50.7360 C   0  0  0  0  0  0  0  0  0  0  0  0
   36.6100   29.5580   51.4420 N   0  0  0  0  0  0  0  0  0  0  0  0
   38.3370   32.5310   49.2760 S   0  0  0  0  0  0  0  0  0  0  0  0
   38.3755   30.7293   51.5889 H   0  0  0  0  0  0  0  0  0  0  0  0
   35.7944   31.5227   48.2142 H   0  0  0  0  0  0  0  0  0  0  0  0
   34.8076   28.5305   51.0868 H   0  0  0  0  0  0  0  0  0  0  0  0
   38.8961   33.1618   50.3560 H   0  0  0  0  0  0  0  0  0  0  0  0
  1  6  2  0
  2  1  1  0
  3  4  1  0
  3  2  2  0
  4  5  2  0
  5  6  1  0
  7  2  1  0
  1  8  1  0
  3  9  1  0
  5 10  1  0
  7 11  1  0
M  ISO  4   8  14   9  14  10  14  11  11
M  END
>  <minimizedAffinity>  (1) 
-2.80065703

>  <minimizedRMSD>  (1) 
1.33418834

$$$$
