
     RDKit          3D

 33 35  0  0  0  0  0  0  0  0999 V2000
   36.7060   30.6320   47.1150 N   0  0  0  0  0  0  0  0  0  0  0  0
   36.0290   30.3580   46.0050 N   0  0  0  0  0  0  0  0  0  0  0  0
   36.6150   30.8960   44.9290 C   0  0  0  0  0  0  0  0  0  0  0  0
   37.7360   31.5450   45.4350 C   0  0  0  0  0  0  0  0  0  0  0  0
   37.7640   31.3620   46.7990 C   0  0  0  0  0  0  0  0  0  0  0  0
   37.2360   29.5050   49.1900 C   0  0  0  0  0  0  0  0  0  0  0  0
   36.3390   30.2070   48.3830 C   0  0  0  0  0  0  0  0  0  0  0  0
   35.0630   30.4600   48.9070 C   0  0  0  0  0  0  0  0  0  0  0  0
   34.7540   30.0220   50.1550 N   0  0  0  0  0  0  0  0  0  0  0  0
   35.6520   29.3440   50.9060 C   0  0  0  0  0  0  0  0  0  0  0  0
   36.8830   29.0860   50.4320 N   0  0  0  0  0  0  0  0  0  0  0  0
   38.8350   31.9270   47.6630 C   0  0  0  0  0  0  0  0  0  0  0  0
   39.6190   32.8360   46.7780 C   0  0  0  0  0  0  0  0  0  0  0  0
   40.4690   33.8400   47.4880 C   0  0  0  0  0  0  0  0  0  0  0  0
   39.5500   34.6610   48.3640 C   0  0  0  0  0  0  0  0  0  0  0  0
   38.8870   33.7890   49.3870 C   0  0  0  0  0  0  0  0  0  0  0  0
   38.1850   32.5970   48.8290 C   0  0  0  0  0  0  0  0  0  0  0  0
   36.2847   30.8380   43.8814 H   0  0  0  0  0  0  0  0  0  0  0  0
   38.4744   32.1085   44.8457 H   0  0  0  0  0  0  0  0  0  0  0  0
   38.2463   29.2876   48.8130 H   0  0  0  0  0  0  0  0  0  0  0  0
   34.3182   31.0089   48.3120 H   0  0  0  0  0  0  0  0  0  0  0  0
   35.3724   29.0010   51.9130 H   0  0  0  0  0  0  0  0  0  0  0  0
   39.5236   31.1851   48.0936 H   0  0  0  0  0  0  0  0  0  0  0  0
   38.9103   33.3821   46.1380 H   0  0  0  0  0  0  0  0  0  0  0  0
   40.3122   32.1920   46.2170 H   0  0  0  0  0  0  0  0  0  0  0  0
   41.2212   33.3279   48.1060 H   0  0  0  0  0  0  0  0  0  0  0  0
   41.0005   34.4811   46.7692 H   0  0  0  0  0  0  0  0  0  0  0  0
   40.1360   35.4387   48.8756 H   0  0  0  0  0  0  0  0  0  0  0  0
   38.7761   35.1241   47.7342 H   0  0  0  0  0  0  0  0  0  0  0  0
   39.6580   33.4358   50.0876 H   0  0  0  0  0  0  0  0  0  0  0  0
   38.1150   34.4070   49.8687 H   0  0  0  0  0  0  0  0  0  0  0  0
   37.1811   32.9175   48.5135 H   0  0  0  0  0  0  0  0  0  0  0  0
   38.1929   31.8497   49.6362 H   0  0  0  0  0  0  0  0  0  0  0  0
  1  7  1  0
  2  1  1  0
  3  4  1  0
  3  2  2  0
  4  5  2  0
  5  1  1  0
  5 12  1  0
  6 11  2  0
  7  8  2  0
  7  6  1  0
  8  9  1  0
  9 10  2  0
 11 10  1  0
 12 17  1  0
 13 14  1  0
 13 12  1  0
 14 15  1  0
 15 16  1  0
 17 16  1  0
  3 18  1  0
  4 19  1  0
  6 20  1  0
  8 21  1  0
 10 22  1  0
 12 23  1  0
 13 24  1  0
 13 25  1  0
 14 26  1  0
 14 27  1  0
 15 28  1  0
 15 29  1  0
 16 30  1  0
 16 31  1  0
 17 32  1  0
 17 33  1  0
M  ISO  8  18  14  19  14  20  14  21  14  22  14  23  13  24  13  25  13
M  ISO  8  26  13  27  13  28  13  29  13  30  13  31  13  32  13  33  13
M  END
>  <minimizedAffinity>  (1) 
-4.8099308

>  <minimizedRMSD>  (1) 
3.44526839

$$$$
