
     RDKit          3D

 26 28  0  0  0  0  0  0  0  0999 V2000
   38.6920   32.1330   44.7560 N   0  0  0  0  0  0  0  0  0  0  0  0
   39.5670   32.8710   44.0930 N   0  0  0  0  0  0  0  0  0  0  0  0
   40.3270   33.5770   44.9150 C   0  0  0  0  0  0  0  0  0  0  0  0
   39.8890   33.2500   46.1710 C   0  0  0  0  0  0  0  0  0  0  0  0
   38.8420   32.3250   46.0700 C   0  0  0  0  0  0  0  0  0  0  0  0
   38.0190   29.9070   43.9910 C   0  0  0  0  0  0  0  0  0  0  0  0
   37.7530   31.2810   44.1680 C   0  0  0  0  0  0  0  0  0  0  0  0
   36.5010   31.7710   43.7520 C   0  0  0  0  0  0  0  0  0  0  0  0
   35.6300   30.8730   43.2050 N   0  0  0  0  0  0  0  0  0  0  0  0
   35.9260   29.5600   43.0550 C   0  0  0  0  0  0  0  0  0  0  0  0
   37.1040   29.0820   43.4410 N   0  0  0  0  0  0  0  0  0  0  0  0
   38.1450   31.7830   47.2280 C   0  0  0  0  0  0  0  0  0  0  0  0
   38.6020   32.0410   48.5030 C   0  0  0  0  0  0  0  0  0  0  0  0
   38.0490   31.5980   49.6560 C   0  0  0  0  0  0  0  0  0  0  0  0
   36.9220   30.8120   49.5960 C   0  0  0  0  0  0  0  0  0  0  0  0
   36.4580   30.5490   48.3300 C   0  0  0  0  0  0  0  0  0  0  0  0
   37.0590   31.0230   47.2280 N   0  0  0  0  0  0  0  0  0  0  0  0
   41.1345   34.2745   44.6477 H   0  0  0  0  0  0  0  0  0  0  0  0
   40.2956   33.6508   47.1112 H   0  0  0  0  0  0  0  0  0  0  0  0
   38.9909   29.5005   44.3074 H   0  0  0  0  0  0  0  0  0  0  0  0
   36.2353   32.8327   43.8629 H   0  0  0  0  0  0  0  0  0  0  0  0
   35.1833   28.8822   42.6089 H   0  0  0  0  0  0  0  0  0  0  0  0
   39.5023   32.6668   48.5915 H   0  0  0  0  0  0  0  0  0  0  0  0
   38.4942   31.8626   50.6265 H   0  0  0  0  0  0  0  0  0  0  0  0
   36.4273   30.4217   50.4976 H   0  0  0  0  0  0  0  0  0  0  0  0
   35.5589   29.9257   48.2153 H   0  0  0  0  0  0  0  0  0  0  0  0
  1  5  1  0
  2  1  1  0
  2  3  2  0
  3  4  1  0
  5  4  2  0
  5 12  1  0
  6  7  2  0
  7  1  1  0
  8  7  1  0
  9  8  2  0
 10  9  1  0
 10 11  2  0
 11  6  1  0
 12 17  1  0
 12 13  2  0
 13 14  1  0
 15 14  2  0
 16 15  1  0
 17 16  2  0
  3 18  1  0
  4 19  1  0
  6 20  1  0
  8 21  1  0
 10 22  1  0
 13 23  1  0
 14 24  1  0
 15 25  1  0
 16 26  1  0
M  ISO  8  18  14  19  14  20  14  21  14  22  14  23  14  24  14  25  14
M  ISO  1  26  14
M  END
>  <minimizedAffinity>  (1) 
-4.70538378

>  <minimizedRMSD>  (1) 
5.059659

$$$$
