
     RDKit          3D

 30 32  0  0  0  0  0  0  0  0999 V2000
   38.8060   31.7220   45.8040 N   0  0  0  0  0  0  0  0  0  0  0  0
   39.6360   32.7500   45.7000 N   0  0  0  0  0  0  0  0  0  0  0  0
   39.6720   33.4550   46.8260 C   0  0  0  0  0  0  0  0  0  0  0  0
   38.8030   32.8130   47.6810 C   0  0  0  0  0  0  0  0  0  0  0  0
   38.2660   31.7200   47.0140 C   0  0  0  0  0  0  0  0  0  0  0  0
   37.3250   30.8400   47.6190 N   0  0  0  0  0  0  0  0  0  0  0  0
   37.7030   30.3580   48.8330 C   0  0  0  0  0  0  0  0  0  0  0  0
   36.9400   29.4960   49.5820 C   0  0  0  0  0  0  0  0  0  0  0  0
   37.3920   28.9910   50.9110 C   0  0  0  0  0  0  0  0  0  0  0  0
   35.7240   29.1070   49.0620 C   0  0  0  0  0  0  0  0  0  0  0  0
   34.9800   28.3180   49.7020 O   0  0  0  0  0  0  0  0  0  0  0  0
   35.3730   29.5910   47.8700 N   0  0  0  0  0  0  0  0  0  0  0  0
   36.1320   30.4340   47.1480 C   0  0  0  0  0  0  0  0  0  0  0  0
   35.8320   30.9100   46.0220 O   0  0  0  0  0  0  0  0  0  0  0  0
   39.2030   29.5670   44.7350 C   0  0  0  0  0  0  0  0  0  0  0  0
   38.5470   30.7940   44.7950 C   0  0  0  0  0  0  0  0  0  0  0  0
   37.6070   31.0530   43.7860 C   0  0  0  0  0  0  0  0  0  0  0  0
   37.3960   30.1100   42.8290 N   0  0  0  0  0  0  0  0  0  0  0  0
   38.0590   28.9330   42.8140 C   0  0  0  0  0  0  0  0  0  0  0  0
   38.9540   28.6660   43.7600 N   0  0  0  0  0  0  0  0  0  0  0  0
   40.2674   34.3569   47.0312 H   0  0  0  0  0  0  0  0  0  0  0  0
   38.5741   33.1144   48.7139 H   0  0  0  0  0  0  0  0  0  0  0  0
   38.6748   30.6765   49.2381 H   0  0  0  0  0  0  0  0  0  0  0  0
   36.8869   29.5553   51.7088 H   0  0  0  0  0  0  0  0  0  0  0  0
   37.1419   27.9237   51.0021 H   0  0  0  0  0  0  0  0  0  0  0  0
   38.4804   29.1217   51.0021 H   0  0  0  0  0  0  0  0  0  0  0  0
   34.4653   29.3015   47.4786 H   0  0  0  0  0  0  0  0  0  0  0  0
   39.9482   29.3237   45.5067 H   0  0  0  0  0  0  0  0  0  0  0  0
   37.0507   32.0018   43.7693 H   0  0  0  0  0  0  0  0  0  0  0  0
   37.8588   28.1974   42.0210 H   0  0  0  0  0  0  0  0  0  0  0  0
  1  5  1  0
  2  1  1  0
  2  3  2  0
  3  4  1  0
  5  6  1  0
  5  4  2  0
  6  7  1  0
  7  8  2  0
  8  9  1  0
 10  8  1  0
 10 11  2  0
 12 10  1  0
 13  6  1  0
 13 12  1  0
 14 13  2  0
 15 16  2  0
 16  1  1  0
 17 16  1  0
 18 17  2  0
 19 18  1  0
 19 20  2  0
 20 15  1  0
  3 21  1  0
  4 22  1  0
  7 23  1  0
  9 24  1  0
  9 25  1  0
  9 26  1  0
 12 27  1  0
 15 28  1  0
 17 29  1  0
 19 30  1  0
M  ISO  8  21  14  22  14  23  14  24   8  25   8  26   8  27   9  28  14
M  ISO  2  29  14  30  14
M  END
>  <minimizedAffinity>  (1) 
-4.67265844

>  <minimizedRMSD>  (1) 
5.67975044

$$$$
