
     RDKit          3D

 24 26  0  0  0  0  0  0  0  0999 V2000
   37.0230   30.8590   47.1460 N   0  0  0  0  0  0  0  0  0  0  0  0
   36.6190   30.3350   45.9940 N   0  0  0  0  0  0  0  0  0  0  0  0
   37.1360   30.9650   44.9510 C   0  0  0  0  0  0  0  0  0  0  0  0
   37.9130   31.9450   45.5060 C   0  0  0  0  0  0  0  0  0  0  0  0
   37.8390   31.8750   46.9020 C   0  0  0  0  0  0  0  0  0  0  0  0
   37.5330   29.6990   49.2210 C   0  0  0  0  0  0  0  0  0  0  0  0
   36.6300   30.3870   48.4000 C   0  0  0  0  0  0  0  0  0  0  0  0
   35.3320   30.5830   48.8930 C   0  0  0  0  0  0  0  0  0  0  0  0
   35.0320   30.0950   50.1300 N   0  0  0  0  0  0  0  0  0  0  0  0
   35.9390   29.4350   50.8900 C   0  0  0  0  0  0  0  0  0  0  0  0
   37.1890   29.2360   50.4380 N   0  0  0  0  0  0  0  0  0  0  0  0
   38.5370   32.7700   47.8170 C   0  0  0  0  0  0  0  0  0  0  0  0
   38.1820   33.0290   49.1240 C   0  0  0  0  0  0  0  0  0  0  0  0
   39.0510   33.9220   49.7170 C   0  0  0  0  0  0  0  0  0  0  0  0
   39.9400   34.1790   48.6950 C   0  0  0  0  0  0  0  0  0  0  0  0
   39.6020   33.5010   47.6440 O   0  0  0  0  0  0  0  0  0  0  0  0
   36.9775   30.7502   43.8839 H   0  0  0  0  0  0  0  0  0  0  0  0
   38.5067   32.6779   44.9400 H   0  0  0  0  0  0  0  0  0  0  0  0
   38.5582   29.5312   48.8592 H   0  0  0  0  0  0  0  0  0  0  0  0
   34.5762   31.1162   48.2976 H   0  0  0  0  0  0  0  0  0  0  0  0
   35.6505   29.0598   51.8830 H   0  0  0  0  0  0  0  0  0  0  0  0
   37.3148   32.5801   49.6304 H   0  0  0  0  0  0  0  0  0  0  0  0
   39.0378   34.3247   50.7405 H   0  0  0  0  0  0  0  0  0  0  0  0
   40.8042   34.8562   48.7617 H   0  0  0  0  0  0  0  0  0  0  0  0
  1  7  1  0
  2  1  1  0
  3  4  1  0
  3  2  2  0
  4  5  2  0
  5  1  1  0
  5 12  1  0
  6 11  2  0
  7  8  2  0
  7  6  1  0
  8  9  1  0
  9 10  2  0
 11 10  1  0
 12 13  2  0
 13 14  1  0
 15 14  2  0
 16 12  1  0
 16 15  1  0
  3 17  1  0
  4 18  1  0
  6 19  1  0
  8 20  1  0
 10 21  1  0
 13 22  1  0
 14 23  1  0
 15 24  1  0
M  ISO  8  17  14  18  14  19  14  20  14  21  14  22  14  23  14  24  14
M  END
>  <minimizedAffinity>  (1) 
-4.62254047

>  <minimizedRMSD>  (1) 
2.94942808

$$$$
