
     RDKit          3D

 28 31  0  0  0  0  0  0  0  0999 V2000
   38.8660   31.2100   44.7050 N   0  0  0  0  0  0  0  0  0  0  0  0
   39.8460   30.8660   43.8820 N   0  0  0  0  0  0  0  0  0  0  0  0
   41.0340   30.8840   44.5090 C   0  0  0  0  0  0  0  0  0  0  0  0
   40.7440   31.2660   45.7970 C   0  0  0  0  0  0  0  0  0  0  0  0
   39.3760   31.4660   45.9030 C   0  0  0  0  0  0  0  0  0  0  0  0
   38.7620   31.8650   47.1030 N   0  0  0  0  0  0  0  0  0  0  0  0
   39.0210   33.1080   47.6030 C   0  0  0  0  0  0  0  0  0  0  0  0
   38.3310   33.2890   48.7620 N   0  0  0  0  0  0  0  0  0  0  0  0
   37.6300   32.1840   49.0220 C   0  0  0  0  0  0  0  0  0  0  0  0
   36.7490   31.6890   49.9860 C   0  0  0  0  0  0  0  0  0  0  0  0
   36.2290   30.4630   49.8890 N   0  0  0  0  0  0  0  0  0  0  0  0
   36.5350   29.6680   48.8660 C   0  0  0  0  0  0  0  0  0  0  0  0
   37.3790   30.0870   47.9030 N   0  0  0  0  0  0  0  0  0  0  0  0
   37.9170   31.3310   47.9850 C   0  0  0  0  0  0  0  0  0  0  0  0
   36.6220   30.2820   44.6910 C   0  0  0  0  0  0  0  0  0  0  0  0
   37.5260   31.2830   44.3470 C   0  0  0  0  0  0  0  0  0  0  0  0
   37.0150   32.3610   43.6220 C   0  0  0  0  0  0  0  0  0  0  0  0
   35.6970   32.3930   43.2910 N   0  0  0  0  0  0  0  0  0  0  0  0
   34.8540   31.3940   43.6490 C   0  0  0  0  0  0  0  0  0  0  0  0
   35.3170   30.3440   44.3470 N   0  0  0  0  0  0  0  0  0  0  0  0
   42.0207   30.6457   44.0852 H   0  0  0  0  0  0  0  0  0  0  0  0
   41.4755   31.3921   46.6088 H   0  0  0  0  0  0  0  0  0  0  0  0
   39.6866   33.8511   47.1395 H   0  0  0  0  0  0  0  0  0  0  0  0
   36.4777   32.3225   50.8433 H   0  0  0  0  0  0  0  0  0  0  0  0
   36.0955   28.6614   48.8065 H   0  0  0  0  0  0  0  0  0  0  0  0
   36.9816   29.4127   45.2611 H   0  0  0  0  0  0  0  0  0  0  0  0
   37.6786   33.1842   43.3187 H   0  0  0  0  0  0  0  0  0  0  0  0
   33.7916   31.4430   43.3682 H   0  0  0  0  0  0  0  0  0  0  0  0
  1  5  1  0
  2  3  2  0
  2  1  1  0
  3  4  1  0
  4  5  2  0
  5  6  1  0
  6  7  1  0
  6 14  1  0
  7  8  2  0
  8  9  1  0
  9 10  2  0
 11 10  1  0
 12 11  2  0
 13 14  2  0
 13 12  1  0
 14  9  1  0
 16 15  2  0
 16  1  1  0
 17 16  1  0
 18 17  2  0
 18 19  1  0
 19 20  2  0
 20 15  1  0
  3 21  1  0
  4 22  1  0
  7 23  1  0
 10 24  1  0
 12 25  1  0
 15 26  1  0
 17 27  1  0
 19 28  1  0
M  ISO  8  21  14  22  14  23  14  24  14  25  14  26  14  27  14  28  14
M  END
>  <minimizedAffinity>  (1) 
-4.6042819

>  <minimizedRMSD>  (1) 
5.38325262

$$$$
