
     RDKit          3D

 23 25  0  0  0  0  0  0  0  0999 V2000
   36.5550   30.5170   46.9650 N   0  0  0  0  0  0  0  0  0  0  0  0
   36.2130   29.9410   45.8120 N   0  0  0  0  0  0  0  0  0  0  0  0
   36.8390   30.4690   44.7740 C   0  0  0  0  0  0  0  0  0  0  0  0
   37.6300   31.4550   45.3530 C   0  0  0  0  0  0  0  0  0  0  0  0
   37.4380   31.4730   46.7290 C   0  0  0  0  0  0  0  0  0  0  0  0
   36.8830   29.4200   49.1140 C   0  0  0  0  0  0  0  0  0  0  0  0
   36.0420   30.1200   48.2170 C   0  0  0  0  0  0  0  0  0  0  0  0
   34.7300   30.3980   48.5910 C   0  0  0  0  0  0  0  0  0  0  0  0
   34.3230   29.9730   49.8170 N   0  0  0  0  0  0  0  0  0  0  0  0
   35.1430   29.3020   50.6650 C   0  0  0  0  0  0  0  0  0  0  0  0
   36.4190   29.0220   50.3220 N   0  0  0  0  0  0  0  0  0  0  0  0
   38.0610   32.3630   47.6940 C   0  0  0  0  0  0  0  0  0  0  0  0
   39.3150   33.0460   47.3630 C   0  0  0  0  0  0  0  0  0  0  0  0
   39.6600   34.0430   48.9280 S   0  0  0  0  0  0  0  0  0  0  0  0
   38.1290   33.3870   49.6950 C   0  0  0  0  0  0  0  0  0  0  0  0
   37.6800   32.6910   48.8920 N   0  0  0  0  0  0  0  0  0  0  0  0
   36.7546   30.1952   43.7120 H   0  0  0  0  0  0  0  0  0  0  0  0
   38.3085   32.1231   44.8023 H   0  0  0  0  0  0  0  0  0  0  0  0
   37.9215   29.1975   48.8278 H   0  0  0  0  0  0  0  0  0  0  0  0
   34.0482   30.9410   47.9200 H   0  0  0  0  0  0  0  0  0  0  0  0
   34.7628   28.9814   51.6462 H   0  0  0  0  0  0  0  0  0  0  0  0
   39.9057   32.9913   46.4367 H   0  0  0  0  0  0  0  0  0  0  0  0
   37.7288   33.6075   50.6956 H   0  0  0  0  0  0  0  0  0  0  0  0
  1  7  1  0
  2  1  1  0
  3  4  1  0
  3  2  2  0
  4  5  2  0
  5  1  1  0
  5 12  1  0
  6 11  2  0
  7  8  2  0
  7  6  1  0
  8  9  1  0
  9 10  2  0
 11 10  1  0
 12 16  1  0
 13 12  2  0
 13 14  1  0
 14 15  1  0
 16 15  2  0
  3 17  1  0
  4 18  1  0
  6 19  1  0
  8 20  1  0
 10 21  1  0
 13 22  1  0
 15 23  1  0
M  ISO  7  17  14  18  14  19  14  20  14  21  14  22  14  23  14
M  END
>  <minimizedAffinity>  (1) 
-3.73193002

>  <minimizedRMSD>  (1) 
3.04963732

$$$$
