
     RDKit          3D

 17 18  0  0  0  0  0  0  0  0999 V2000
   37.4890   31.3170   49.3190 C   0  0  0  0  0  0  0  0  0  0  0  0
   38.0650   32.6020   49.4460 C   0  0  0  0  0  0  0  0  0  0  0  0
   38.8870   33.0680   48.4090 C   0  0  0  0  0  0  0  0  0  0  0  0
   39.0890   32.2570   47.3320 N   0  0  0  0  0  0  0  0  0  0  0  0
   38.5210   31.0220   47.2350 C   0  0  0  0  0  0  0  0  0  0  0  0
   37.7330   30.5670   48.2220 N   0  0  0  0  0  0  0  0  0  0  0  0
   36.6290   30.8460   50.4180 C   0  0  0  0  0  0  0  0  0  0  0  0
   36.3320   29.4380   50.6540 C   0  0  0  0  0  0  0  0  0  0  0  0
   37.4000   30.1030   51.5520 C   0  0  0  0  0  0  0  0  0  0  0  0
   37.8735   33.2206   50.3352 H   0  0  0  0  0  0  0  0  0  0  0  0
   39.3561   34.0615   48.4635 H   0  0  0  0  0  0  0  0  0  0  0  0
   38.7081   30.3983   46.3484 H   0  0  0  0  0  0  0  0  0  0  0  0
   35.9562   31.7093   50.3082 H   0  0  0  0  0  0  0  0  0  0  0  0
   35.3611   29.1527   51.0853 H   0  0  0  0  0  0  0  0  0  0  0  0
   36.3226   28.5427   50.0150 H   0  0  0  0  0  0  0  0  0  0  0  0
   38.4649   29.8533   51.4355 H   0  0  0  0  0  0  0  0  0  0  0  0
   37.5657   30.2409   52.6307 H   0  0  0  0  0  0  0  0  0  0  0  0
  1  2  2  0
  1  7  1  0
  3  2  1  0
  4  3  2  0
  5  4  1  0
  5  6  2  0
  6  1  1  0
  7  8  1  0
  7  9  1  0
  8  9  1  0
  2 10  1  0
  3 11  1  0
  5 12  1  0
  7 13  1  0
  8 14  1  0
  8 15  1  0
  9 16  1  0
  9 17  1  0
M  ISO  8  10  14  11  14  12  14  13  13  14  13  15  13  16  13  17  13
M  END
>  <minimizedAffinity>  (1) 
-4.12550402

>  <minimizedRMSD>  (1) 
3.14130068

$$$$
