
     RDKit          3D

 16 16  0  0  0  0  0  0  0  0999 V2000
   37.3880   30.8180   49.3630 C   0  0  0  0  0  0  0  0  0  0  0  0
   37.6240   32.1420   49.7620 C   0  0  0  0  0  0  0  0  0  0  0  0
   38.3220   32.9700   48.8540 C   0  0  0  0  0  0  0  0  0  0  0  0
   38.7170   32.4420   47.6660 N   0  0  0  0  0  0  0  0  0  0  0  0
   38.4680   31.1660   47.3260 C   0  0  0  0  0  0  0  0  0  0  0  0
   37.8080   30.3510   48.1630 N   0  0  0  0  0  0  0  0  0  0  0  0
   36.6530   29.9170   50.2980 C   0  0  0  0  0  0  0  0  0  0  0  0
   37.2750   29.9840   51.6990 C   0  0  0  0  0  0  0  0  0  0  0  0
   37.2814   32.5185   50.7371 H   0  0  0  0  0  0  0  0  0  0  0  0
   38.5407   34.0188   49.1035 H   0  0  0  0  0  0  0  0  0  0  0  0
   38.8087   30.7858   46.3516 H   0  0  0  0  0  0  0  0  0  0  0  0
   35.6002   30.2312   50.3527 H   0  0  0  0  0  0  0  0  0  0  0  0
   36.7184   28.8839   49.9259 H   0  0  0  0  0  0  0  0  0  0  0  0
   36.4821   29.8986   52.4567 H   0  0  0  0  0  0  0  0  0  0  0  0
   37.9906   29.1577   51.8224 H   0  0  0  0  0  0  0  0  0  0  0  0
   37.7982   30.9437   51.8224 H   0  0  0  0  0  0  0  0  0  0  0  0
  1  2  2  0
  1  7  1  0
  3  2  1  0
  4  3  2  0
  5  4  1  0
  5  6  2  0
  6  1  1  0
  7  8  1  0
  2  9  1  0
  3 10  1  0
  5 11  1  0
  7 12  1  0
  7 13  1  0
  8 14  1  0
  8 15  1  0
  8 16  1  0
M  ISO  8   9  14  10  14  11  14  12   8  13   8  14   8  15   8  16   8
M  END
>  <minimizedAffinity>  (1) 
-3.59435749

>  <minimizedRMSD>  (1) 
2.93638253

$$$$
