
     RDKit          3D

 11 11  0  0  0  0  0  0  0  0999 V2000
   37.7760   30.8140   49.6880 C   0  0  0  0  0  0  0  0  0  0  0  0
   38.3550   32.1080   49.6930 C   0  0  0  0  0  0  0  0  0  0  0  0
   38.7320   32.6670   48.4520 C   0  0  0  0  0  0  0  0  0  0  0  0
   38.5130   31.9250   47.3350 N   0  0  0  0  0  0  0  0  0  0  0  0
   37.9600   30.6990   47.3690 C   0  0  0  0  0  0  0  0  0  0  0  0
   37.5930   30.1470   48.5400 N   0  0  0  0  0  0  0  0  0  0  0  0
   37.2840   30.0670   51.2390 S   0  0  0  0  0  0  0  0  0  0  0  0
   38.5058   32.6589   50.6331 H   0  0  0  0  0  0  0  0  0  0  0  0
   39.1865   33.6669   48.3919 H   0  0  0  0  0  0  0  0  0  0  0  0
   37.8067   30.1434   46.4321 H   0  0  0  0  0  0  0  0  0  0  0  0
   37.7740   30.8109   52.2799 H   0  0  0  0  0  0  0  0  0  0  0  0
  1  2  2  0
  1  7  1  0
  3  2  1  0
  4  5  1  0
  4  3  2  0
  5  6  2  0
  6  1  1  0
  2  8  1  0
  3  9  1  0
  5 10  1  0
  7 11  1  0
M  ISO  4   8  14   9  14  10  14  11  11
M  END
>  <minimizedAffinity>  (1) 
-3.03484893

>  <minimizedRMSD>  (1) 
2.65166831

$$$$
