
     RDKit          3D

 21 22  0  0  0  0  0  0  0  0999 V2000
   37.3230   30.9770   46.3840 C   0  0  0  0  0  0  0  0  0  0  0  0
   36.2760   30.4200   45.9620 O   0  0  0  0  0  0  0  0  0  0  0  0
   38.5390   30.9380   45.5920 C   0  0  0  0  0  0  0  0  0  0  0  0
   39.6960   31.5070   46.1530 C   0  0  0  0  0  0  0  0  0  0  0  0
   40.8740   31.4740   45.3980 C   0  0  0  0  0  0  0  0  0  0  0  0
   40.8390   30.8990   44.1680 N   0  0  0  0  0  0  0  0  0  0  0  0
   39.7010   30.3590   43.6590 C   0  0  0  0  0  0  0  0  0  0  0  0
   38.5490   30.3830   44.3800 N   0  0  0  0  0  0  0  0  0  0  0  0
   37.2980   31.6230   47.6050 O   0  0  0  0  0  0  0  0  0  0  0  0
   37.3060   30.8990   48.7920 C   0  0  0  0  0  0  0  0  0  0  0  0
   36.4900   29.7790   48.8490 C   0  0  0  0  0  0  0  0  0  0  0  0
   36.4320   28.9930   49.9930 C   0  0  0  0  0  0  0  0  0  0  0  0
   37.1890   29.3540   51.0310 N   0  0  0  0  0  0  0  0  0  0  0  0
   37.9770   30.4550   50.9420 C   0  0  0  0  0  0  0  0  0  0  0  0
   38.0480   31.2340   49.8370 N   0  0  0  0  0  0  0  0  0  0  0  0
   39.6759   31.9636   47.1536 H   0  0  0  0  0  0  0  0  0  0  0  0
   41.8068   31.9039   45.7917 H   0  0  0  0  0  0  0  0  0  0  0  0
   39.7119   29.9004   42.6592 H   0  0  0  0  0  0  0  0  0  0  0  0
   35.8793   29.5089   47.9749 H   0  0  0  0  0  0  0  0  0  0  0  0
   35.7851   28.1047   50.0415 H   0  0  0  0  0  0  0  0  0  0  0  0
   38.5902   30.7290   51.8132 H   0  0  0  0  0  0  0  0  0  0  0  0
  1  9  1  0
  2  1  2  0
  3  4  2  0
  3  1  1  0
  5  4  1  0
  6  5  2  0
  7  6  1  0
  7  8  2  0
  8  3  1  0
  9 10  1  0
 10 11  2  0
 10 15  1  0
 11 12  1  0
 12 13  2  0
 14 13  1  0
 15 14  2  0
  4 16  1  0
  5 17  1  0
  7 18  1  0
 11 19  1  0
 12 20  1  0
 14 21  1  0
M  ISO  6  16  14  17  14  18  14  19  14  20  14  21  14
M  END
>  <minimizedAffinity>  (1) 
-4.3209796

>  <minimizedRMSD>  (1) 
4.6498642

$$$$
