
     RDKit          3D

 22 22  0  0  0  0  0  0  0  0999 V2000
   37.4070   31.4170   48.2180 C   0  0  0  0  0  0  0  0  0  0  0  0
   37.4130   32.2590   49.3290 C   0  0  0  0  0  0  0  0  0  0  0  0
   38.3710   33.2830   49.3590 C   0  0  0  0  0  0  0  0  0  0  0  0
   39.2360   33.3960   48.3040 N   0  0  0  0  0  0  0  0  0  0  0  0
   39.1900   32.5610   47.2590 C   0  0  0  0  0  0  0  0  0  0  0  0
   38.2780   31.5670   47.2030 N   0  0  0  0  0  0  0  0  0  0  0  0
   36.4060   30.3440   48.1810 C   0  0  0  0  0  0  0  0  0  0  0  0
   35.4340   30.4170   47.3770 O   0  0  0  0  0  0  0  0  0  0  0  0
   36.5550   29.2550   49.0440 O   0  0  0  0  0  0  0  0  0  0  0  0
   35.6950   29.0330   50.1520 C   0  0  0  0  0  0  0  0  0  0  0  0
   34.5460   30.0110   49.9920 C   0  0  0  0  0  0  0  0  0  0  0  0
   36.4690   29.5260   51.3790 C   0  0  0  0  0  0  0  0  0  0  0  0
   36.6940   32.1254   50.1507 H   0  0  0  0  0  0  0  0  0  0  0  0
   38.4259   33.9784   50.2096 H   0  0  0  0  0  0  0  0  0  0  0  0
   39.9060   32.6865   46.4334 H   0  0  0  0  0  0  0  0  0  0  0  0
   35.3655   27.9865   50.2311 H   0  0  0  0  0  0  0  0  0  0  0  0
   34.1851   30.3182   50.9846 H   0  0  0  0  0  0  0  0  0  0  0  0
   34.8921   30.8958   49.4377 H   0  0  0  0  0  0  0  0  0  0  0  0
   33.7278   29.5280   49.4377 H   0  0  0  0  0  0  0  0  0  0  0  0
   35.9537   29.1978   52.2938 H   0  0  0  0  0  0  0  0  0  0  0  0
   37.4870   29.1095   51.3621 H   0  0  0  0  0  0  0  0  0  0  0  0
   36.5220   30.6246   51.3621 H   0  0  0  0  0  0  0  0  0  0  0  0
  1  2  2  0
  2  3  1  0
  4  3  2  0
  5  4  1  0
  6  5  2  0
  6  1  1  0
  7  1  1  0
  7  9  1  0
  8  7  2  0
  9 10  1  0
 10 12  1  0
 11 10  1  0
  2 13  1  0
  3 14  1  0
  5 15  1  0
 10 16  1  0
 11 17  1  0
 11 18  1  0
 11 19  1  0
 12 20  1  0
 12 21  1  0
 12 22  1  0
M  ISO  8  13  14  14  14  15  14  16   8  17   8  18   8  19   8  20   8
M  ISO  2  21   8  22   8
M  END
>  <minimizedAffinity>  (1) 
-4.17706871

>  <minimizedRMSD>  (1) 
3.05640173

$$$$
