
     RDKit          3D

 19 19  0  0  0  0  0  0  0  0999 V2000
   38.8030   31.9730   47.6640 C   0  0  0  0  0  0  0  0  0  0  0  0
   39.5830   32.9510   47.0200 C   0  0  0  0  0  0  0  0  0  0  0  0
   40.0160   32.6600   45.7140 C   0  0  0  0  0  0  0  0  0  0  0  0
   39.6670   31.4750   45.1560 N   0  0  0  0  0  0  0  0  0  0  0  0
   38.9190   30.5710   45.8150 C   0  0  0  0  0  0  0  0  0  0  0  0
   38.4760   30.8120   47.0830 N   0  0  0  0  0  0  0  0  0  0  0  0
   38.3480   32.2690   49.0250 C   0  0  0  0  0  0  0  0  0  0  0  0
   37.9500   33.4400   49.3050 O   0  0  0  0  0  0  0  0  0  0  0  0
   38.3540   31.2770   49.9860 O   0  0  0  0  0  0  0  0  0  0  0  0
   37.1850   30.7750   50.5530 C   0  0  0  0  0  0  0  0  0  0  0  0
   37.3580   29.9700   51.7960 C   0  0  0  0  0  0  0  0  0  0  0  0
   39.8420   33.8987   47.5148 H   0  0  0  0  0  0  0  0  0  0  0  0
   40.6281   33.3825   45.1542 H   0  0  0  0  0  0  0  0  0  0  0  0
   38.6603   29.6217   45.3232 H   0  0  0  0  0  0  0  0  0  0  0  0
   36.5329   31.6281   50.7919 H   0  0  0  0  0  0  0  0  0  0  0  0
   36.7649   30.0844   49.8070 H   0  0  0  0  0  0  0  0  0  0  0  0
   37.2189   30.6173   52.6744 H   0  0  0  0  0  0  0  0  0  0  0  0
   36.6133   29.1607   51.8153 H   0  0  0  0  0  0  0  0  0  0  0  0
   38.3695   29.5381   51.8153 H   0  0  0  0  0  0  0  0  0  0  0  0
  1  7  1  0
  2  1  2  0
  3  2  1  0
  4  3  2  0
  4  5  1  0
  5  6  2  0
  6  1  1  0
  7  8  2  0
  7  9  1  0
  9 10  1  0
 10 11  1  0
  2 12  1  0
  3 13  1  0
  5 14  1  0
 10 15  1  0
 10 16  1  0
 11 17  1  0
 11 18  1  0
 11 19  1  0
M  ISO  8  12  14  13  14  14  14  15   8  16   8  17   8  18   8  19   8
M  END
>  <minimizedAffinity>  (1) 
-3.90837216

>  <minimizedRMSD>  (1) 
3.28518844

$$$$
