
     RDKit          3D

 27 28  0  0  0  0  0  0  0  0999 V2000
   37.6990   32.0010   48.7900 C   0  0  0  0  0  0  0  0  0  0  0  0
   38.2740   33.1100   49.4010 C   0  0  0  0  0  0  0  0  0  0  0  0
   39.2700   33.7880   48.6700 C   0  0  0  0  0  0  0  0  0  0  0  0
   39.6190   33.3520   47.4460 N   0  0  0  0  0  0  0  0  0  0  0  0
   39.0360   32.2670   46.8860 C   0  0  0  0  0  0  0  0  0  0  0  0
   38.0720   31.5880   47.5610 N   0  0  0  0  0  0  0  0  0  0  0  0
   39.3590   31.7510   45.5920 N   0  0  0  0  0  0  0  0  0  0  0  0
   38.9950   30.4500   45.4300 C   0  0  0  0  0  0  0  0  0  0  0  0
   39.2470   29.8190   44.2230 C   0  0  0  0  0  0  0  0  0  0  0  0
   39.8660   30.5730   43.2430 C   0  0  0  0  0  0  0  0  0  0  0  0
   40.1380   29.9680   42.0070 N   0  0  0  0  0  0  0  0  0  0  0  0
   40.2170   31.8630   43.4280 N   0  0  0  0  0  0  0  0  0  0  0  0
   39.9590   32.4560   44.6170 C   0  0  0  0  0  0  0  0  0  0  0  0
   40.2500   33.6640   44.8940 O   0  0  0  0  0  0  0  0  0  0  0  0
   36.6710   31.2780   49.5130 C   0  0  0  0  0  0  0  0  0  0  0  0
   35.6700   30.8010   48.9060 O   0  0  0  0  0  0  0  0  0  0  0  0
   36.7740   31.1020   50.8800 O   0  0  0  0  0  0  0  0  0  0  0  0
   36.9610   29.7640   51.3400 C   0  0  0  0  0  0  0  0  0  0  0  0
   35.7580   29.1250   51.5570 F   0  0  0  0  0  0  0  0  0  0  0  0
   37.7220   29.8240   52.5090 F   0  0  0  0  0  0  0  0  0  0  0  0
   37.6770   29.0180   50.4180 F   0  0  0  0  0  0  0  0  0  0  0  0
   37.9670   33.4412   50.4040 H   0  0  0  0  0  0  0  0  0  0  0  0
   39.7617   34.6731   49.0999 H   0  0  0  0  0  0  0  0  0  0  0  0
   38.5051   29.9044   46.2500 H   0  0  0  0  0  0  0  0  0  0  0  0
   38.9682   28.7687   44.0523 H   0  0  0  0  0  0  0  0  0  0  0  0
   39.8777   28.9844   41.8467 H   0  0  0  0  0  0  0  0  0  0  0  0
   40.5980   30.5073   41.2598 H   0  0  0  0  0  0  0  0  0  0  0  0
  1  2  2  0
  1 15  1  0
  3  2  1  0
  4  3  2  0
  5  4  1  0
  5  6  2  0
  6  1  1  0
  7  5  1  0
  8  7  1  0
  9  8  2  0
 10 12  2  0
 10  9  1  0
 11 10  1  0
 12 13  1  0
 13 14  2  0
 13  7  1  0
 15 17  1  0
 16 15  2  0
 17 18  1  0
 18 19  1  0
 18 20  1  0
 21 18  1  0
  2 22  1  0
  3 23  1  0
  8 24  1  0
  9 25  1  0
 11 26  1  0
 11 27  1  0
M  ISO  4  22  14  23  14  24  14  25  14
M  END
>  <minimizedAffinity>  (1) 
-6.64232969

>  <minimizedRMSD>  (1) 
1.65802574

$$$$
