
     RDKit          3D

 26 27  0  0  0  0  0  0  0  0999 V2000
   37.7130   32.0730   48.8670 C   0  0  0  0  0  0  0  0  0  0  0  0
   38.2970   33.1170   49.5700 C   0  0  0  0  0  0  0  0  0  0  0  0
   39.2930   33.8600   48.9080 C   0  0  0  0  0  0  0  0  0  0  0  0
   39.6260   33.5240   47.6350 N   0  0  0  0  0  0  0  0  0  0  0  0
   39.0300   32.5050   46.9990 C   0  0  0  0  0  0  0  0  0  0  0  0
   38.0760   31.7730   47.5980 N   0  0  0  0  0  0  0  0  0  0  0  0
   39.4330   32.1940   45.6320 C   0  0  0  0  0  0  0  0  0  0  0  0
   38.9880   32.9450   44.5630 C   0  0  0  0  0  0  0  0  0  0  0  0
   39.3480   32.6790   43.2600 C   0  0  0  0  0  0  0  0  0  0  0  0
   40.1870   31.6180   43.0230 C   0  0  0  0  0  0  0  0  0  0  0  0
   40.6580   30.8370   44.0840 C   0  0  0  0  0  0  0  0  0  0  0  0
   40.2750   31.1320   45.3770 C   0  0  0  0  0  0  0  0  0  0  0  0
   36.6880   31.2980   49.5300 C   0  0  0  0  0  0  0  0  0  0  0  0
   35.7320   30.7940   48.8610 O   0  0  0  0  0  0  0  0  0  0  0  0
   36.7310   31.0960   50.8950 O   0  0  0  0  0  0  0  0  0  0  0  0
   36.9520   29.7630   51.3240 C   0  0  0  0  0  0  0  0  0  0  0  0
   35.7640   29.0890   51.5250 F   0  0  0  0  0  0  0  0  0  0  0  0
   37.7050   29.8230   52.5000 F   0  0  0  0  0  0  0  0  0  0  0  0
   37.6970   29.0660   50.4040 F   0  0  0  0  0  0  0  0  0  0  0  0
   37.9947   33.3541   50.6007 H   0  0  0  0  0  0  0  0  0  0  0  0
   39.7933   34.6990   49.4137 H   0  0  0  0  0  0  0  0  0  0  0  0
   38.3162   33.7934   44.7600 H   0  0  0  0  0  0  0  0  0  0  0  0
   38.9737   33.2994   42.4323 H   0  0  0  0  0  0  0  0  0  0  0  0
   40.4906   31.3807   41.9927 H   0  0  0  0  0  0  0  0  0  0  0  0
   41.3319   29.9899   43.8883 H   0  0  0  0  0  0  0  0  0  0  0  0
   40.6441   30.5155   46.2099 H   0  0  0  0  0  0  0  0  0  0  0  0
  1 13  1  0
  1  2  2  0
  3  2  1  0
  4  3  2  0
  5  6  2  0
  5  4  1  0
  6  1  1  0
  7  5  1  0
  8  7  2  0
  9  8  1  0
 10  9  2  0
 10 11  1  0
 11 12  2  0
 12  7  1  0
 13 15  1  0
 14 13  2  0
 15 16  1  0
 16 17  1  0
 16 18  1  0
 19 16  1  0
  2 20  1  0
  3 21  1  0
  8 22  1  0
  9 23  1  0
 10 24  1  0
 11 25  1  0
 12 26  1  0
M  ISO  7  20  14  21  14  22  14  23  14  24  14  25  14  26  14
M  END
>  <minimizedAffinity>  (1) 
-6.16623831

>  <minimizedRMSD>  (1) 
1.82950819

$$$$
