
     RDKit          3D

 28 29  0  0  0  0  0  0  0  0999 V2000
   37.7960   32.1350   48.8710 C   0  0  0  0  0  0  0  0  0  0  0  0
   38.2850   33.2310   49.5900 C   0  0  0  0  0  0  0  0  0  0  0  0
   39.2960   33.9960   48.9610 C   0  0  0  0  0  0  0  0  0  0  0  0
   39.7230   33.6380   47.7370 N   0  0  0  0  0  0  0  0  0  0  0  0
   39.2190   32.5620   47.0730 C   0  0  0  0  0  0  0  0  0  0  0  0
   38.2470   31.8140   47.6580 N   0  0  0  0  0  0  0  0  0  0  0  0
   39.6790   32.1940   45.7800 N   0  0  0  0  0  0  0  0  0  0  0  0
   40.3000   30.9180   45.3980 C   0  0  0  0  0  0  0  0  0  0  0  0
   39.7590   30.7930   43.9720 C   0  0  0  0  0  0  0  0  0  0  0  0
   40.0950   32.2060   43.4780 C   0  0  0  0  0  0  0  0  0  0  0  0
   39.5920   33.0690   44.6120 C   0  0  0  0  0  0  0  0  0  0  0  0
   36.7560   31.3350   49.4980 C   0  0  0  0  0  0  0  0  0  0  0  0
   35.8380   30.8160   48.8010 O   0  0  0  0  0  0  0  0  0  0  0  0
   36.7640   31.1330   50.8700 O   0  0  0  0  0  0  0  0  0  0  0  0
   36.9810   29.7920   51.3030 C   0  0  0  0  0  0  0  0  0  0  0  0
   35.8080   29.1110   51.4750 F   0  0  0  0  0  0  0  0  0  0  0  0
   37.7170   29.8430   52.4960 F   0  0  0  0  0  0  0  0  0  0  0  0
   37.7630   29.0960   50.3930 F   0  0  0  0  0  0  0  0  0  0  0  0
   37.9042   33.4845   50.5904 H   0  0  0  0  0  0  0  0  0  0  0  0
   39.7271   34.8724   49.4669 H   0  0  0  0  0  0  0  0  0  0  0  0
   41.3984   30.9739   45.4171 H   0  0  0  0  0  0  0  0  0  0  0  0
   40.0746   30.0697   46.0611 H   0  0  0  0  0  0  0  0  0  0  0  0
   40.2838   30.0166   43.3960 H   0  0  0  0  0  0  0  0  0  0  0  0
   38.7038   30.4945   43.8854 H   0  0  0  0  0  0  0  0  0  0  0  0
   41.1782   32.3305   43.3323 H   0  0  0  0  0  0  0  0  0  0  0  0
   39.6465   32.4514   42.5040 H   0  0  0  0  0  0  0  0  0  0  0  0
   40.2273   33.9578   44.7398 H   0  0  0  0  0  0  0  0  0  0  0  0
   38.5741   33.4484   44.4391 H   0  0  0  0  0  0  0  0  0  0  0  0
  1 12  1  0
  1  2  2  0
  3  2  1  0
  4  3  2  0
  5  6  2  0
  5  4  1  0
  6  1  1  0
  7  5  1  0
  8  7  1  0
  9  8  1  0
 10  9  1  0
 10 11  1  0
 11  7  1  0
 12 14  1  0
 13 12  2  0
 14 15  1  0
 15 16  1  0
 15 17  1  0
 18 15  1  0
  2 19  1  0
  3 20  1  0
  8 21  1  0
  8 22  1  0
  9 23  1  0
  9 24  1  0
 10 25  1  0
 10 26  1  0
 11 27  1  0
 11 28  1  0
M  ISO  8  19  14  20  14  21  13  22  13  23  13  24  13  25  13  26  13
M  ISO  2  27  13  28  13
M  END
>  <minimizedAffinity>  (1) 
-6.00044727

>  <minimizedRMSD>  (1) 
1.76606965

$$$$
