
     RDKit          3D

 29 30  0  0  0  0  0  0  0  0999 V2000
   37.4040   31.6620   48.5440 C   0  0  0  0  0  0  0  0  0  0  0  0
   37.6090   32.7180   49.4390 C   0  0  0  0  0  0  0  0  0  0  0  0
   38.7000   33.5800   49.1580 C   0  0  0  0  0  0  0  0  0  0  0  0
   39.4680   33.3430   48.0690 N   0  0  0  0  0  0  0  0  0  0  0  0
   39.2220   32.3100   47.2450 C   0  0  0  0  0  0  0  0  0  0  0  0
   38.1930   31.4660   47.4760 N   0  0  0  0  0  0  0  0  0  0  0  0
   40.1460   32.1690   46.0870 C   0  0  0  0  0  0  0  0  0  0  0  0
   39.9090   30.9150   45.2990 C   0  0  0  0  0  0  0  0  0  0  0  0
   39.1280   31.2990   44.0670 C   0  0  0  0  0  0  0  0  0  0  0  0
   39.0780   32.8080   44.0100 C   0  0  0  0  0  0  0  0  0  0  0  0
   39.9700   33.3170   45.1050 C   0  0  0  0  0  0  0  0  0  0  0  0
   36.2980   30.7690   48.8090 C   0  0  0  0  0  0  0  0  0  0  0  0
   35.8100   30.0610   47.8840 O   0  0  0  0  0  0  0  0  0  0  0  0
   35.7670   30.6900   50.0880 O   0  0  0  0  0  0  0  0  0  0  0  0
   36.3580   29.7120   50.9530 C   0  0  0  0  0  0  0  0  0  0  0  0
   35.4010   29.0180   51.6670 F   0  0  0  0  0  0  0  0  0  0  0  0
   37.2250   30.3710   51.8110 F   0  0  0  0  0  0  0  0  0  0  0  0
   37.0870   28.7920   50.2320 F   0  0  0  0  0  0  0  0  0  0  0  0
   36.9592   32.8714   50.3132 H   0  0  0  0  0  0  0  0  0  0  0  0
   38.9195   34.4320   49.8182 H   0  0  0  0  0  0  0  0  0  0  0  0
   41.1531   32.1538   46.5293 H   0  0  0  0  0  0  0  0  0  0  0  0
   40.8702   30.4649   45.0100 H   0  0  0  0  0  0  0  0  0  0  0  0
   39.3534   30.1784   45.8979 H   0  0  0  0  0  0  0  0  0  0  0  0
   39.6270   30.9060   43.1689 H   0  0  0  0  0  0  0  0  0  0  0  0
   38.1118   30.8800   44.1075 H   0  0  0  0  0  0  0  0  0  0  0  0
   39.4393   33.1616   43.0330 H   0  0  0  0  0  0  0  0  0  0  0  0
   38.0483   33.1724   44.1404 H   0  0  0  0  0  0  0  0  0  0  0  0
   40.9446   33.6172   44.6926 H   0  0  0  0  0  0  0  0  0  0  0  0
   39.5326   34.1981   45.5972 H   0  0  0  0  0  0  0  0  0  0  0  0
  1 12  1  0
  1  2  2  0
  3  2  1  0
  4  3  2  0
  5  6  2  0
  5  4  1  0
  6  1  1  0
  7  5  1  0
  8  7  1  0
  9  8  1  0
 10  9  1  0
 10 11  1  0
 11  7  1  0
 12 14  1  0
 13 12  2  0
 14 15  1  0
 15 16  1  0
 15 17  1  0
 18 15  1  0
  2 19  1  0
  3 20  1  0
  7 21  1  0
  8 22  1  0
  8 23  1  0
  9 24  1  0
  9 25  1  0
 10 26  1  0
 10 27  1  0
 11 28  1  0
 11 29  1  0
M  ISO  8  19  14  20  14  21  13  22  13  23  13  24  13  25  13  26  13
M  ISO  3  27  13  28  13  29  13
M  END
>  <minimizedAffinity>  (1) 
-5.97186852

>  <minimizedRMSD>  (1) 
1.98455477

$$$$
