
     RDKit          3D

 23 24  0  0  0  0  0  0  0  0999 V2000
   37.8010   32.0800   48.8320 C   0  0  0  0  0  0  0  0  0  0  0  0
   38.2830   33.2030   49.5050 C   0  0  0  0  0  0  0  0  0  0  0  0
   39.2970   33.9400   48.8660 C   0  0  0  0  0  0  0  0  0  0  0  0
   39.7460   33.5410   47.6630 N   0  0  0  0  0  0  0  0  0  0  0  0
   39.2480   32.4390   47.0390 C   0  0  0  0  0  0  0  0  0  0  0  0
   38.2810   31.7240   47.6360 N   0  0  0  0  0  0  0  0  0  0  0  0
   39.7500   32.0210   45.7320 C   0  0  0  0  0  0  0  0  0  0  0  0
   39.6310   32.7870   44.5690 C   0  0  0  0  0  0  0  0  0  0  0  0
   40.2000   32.0920   43.5670 N   0  0  0  0  0  0  0  0  0  0  0  0
   40.6700   30.9280   44.0510 C   0  0  0  0  0  0  0  0  0  0  0  0
   40.3930   30.8790   45.3870 N   0  0  0  0  0  0  0  0  0  0  0  0
   36.7570   31.3130   49.4770 C   0  0  0  0  0  0  0  0  0  0  0  0
   35.8210   30.7970   48.7890 O   0  0  0  0  0  0  0  0  0  0  0  0
   36.7660   31.1300   50.8410 O   0  0  0  0  0  0  0  0  0  0  0  0
   36.9760   29.7990   51.2950 C   0  0  0  0  0  0  0  0  0  0  0  0
   35.7880   29.1350   51.4840 F   0  0  0  0  0  0  0  0  0  0  0  0
   37.6960   29.8700   52.4860 F   0  0  0  0  0  0  0  0  0  0  0  0
   37.7340   29.0770   50.3990 F   0  0  0  0  0  0  0  0  0  0  0  0
   37.8889   33.4983   50.4886 H   0  0  0  0  0  0  0  0  0  0  0  0
   39.7189   34.8351   49.3465 H   0  0  0  0  0  0  0  0  0  0  0  0
   39.1586   33.7770   44.4876 H   0  0  0  0  0  0  0  0  0  0  0  0
   41.1879   30.1502   43.4706 H   0  0  0  0  0  0  0  0  0  0  0  0
   40.6320   30.1058   46.0241 H   0  0  0  0  0  0  0  0  0  0  0  0
  1 12  1  0
  1  2  2  0
  3  2  1  0
  4  3  2  0
  5  6  2  0
  5  4  1  0
  6  1  1  0
  7  5  1  0
  8  7  2  0
  9 10  2  0
  9  8  1  0
 10 11  1  0
 11  7  1  0
 12 14  1  0
 13 12  2  0
 14 15  1  0
 15 16  1  0
 15 17  1  0
 18 15  1  0
  2 19  1  0
  3 20  1  0
  8 21  1  0
 10 22  1  0
 11 23  1  0
M  ISO  5  19  14  20  14  21  14  22  14  23   9
M  END
>  <minimizedAffinity>  (1) 
-5.93765831

>  <minimizedRMSD>  (1) 
1.66889763

$$$$
