
     RDKit          3D

 22 23  0  0  0  0  0  0  0  0999 V2000
   37.7250   32.1150   48.9130 C   0  0  0  0  0  0  0  0  0  0  0  0
   38.2780   33.1480   49.6570 C   0  0  0  0  0  0  0  0  0  0  0  0
   39.2930   33.9220   49.0420 C   0  0  0  0  0  0  0  0  0  0  0  0
   39.6690   33.6230   47.7740 N   0  0  0  0  0  0  0  0  0  0  0  0
   39.1010   32.6110   47.0960 C   0  0  0  0  0  0  0  0  0  0  0  0
   38.1330   31.8520   47.6520 N   0  0  0  0  0  0  0  0  0  0  0  0
   39.5000   32.2680   45.7100 C   0  0  0  0  0  0  0  0  0  0  0  0
   40.1200   31.1020   45.5570 C   0  0  0  0  0  0  0  0  0  0  0  0
   40.4630   31.0160   43.7010 S   0  0  0  0  0  0  0  0  0  0  0  0
   39.6200   32.7210   43.5240 C   0  0  0  0  0  0  0  0  0  0  0  0
   39.3140   32.9740   44.6210 N   0  0  0  0  0  0  0  0  0  0  0  0
   36.6910   31.3130   49.5200 C   0  0  0  0  0  0  0  0  0  0  0  0
   35.7760   30.7950   48.8240 O   0  0  0  0  0  0  0  0  0  0  0  0
   36.6950   31.1010   50.8920 O   0  0  0  0  0  0  0  0  0  0  0  0
   36.9400   29.7660   51.3250 C   0  0  0  0  0  0  0  0  0  0  0  0
   35.7670   29.0720   51.5230 F   0  0  0  0  0  0  0  0  0  0  0  0
   37.6860   29.8320   52.5000 F   0  0  0  0  0  0  0  0  0  0  0  0
   37.6870   29.0720   50.4020 F   0  0  0  0  0  0  0  0  0  0  0  0
   37.9417   33.3574   50.6832 H   0  0  0  0  0  0  0  0  0  0  0  0
   39.7685   34.7524   49.5846 H   0  0  0  0  0  0  0  0  0  0  0  0
   40.3737   30.3612   46.3296 H   0  0  0  0  0  0  0  0  0  0  0  0
   39.4621   33.3169   42.6130 H   0  0  0  0  0  0  0  0  0  0  0  0
  1 12  1  0
  1  2  2  0
  3  2  1  0
  4  3  2  0
  5  6  2  0
  5  4  1  0
  6  1  1  0
  7  5  1  0
  8  7  2  0
  9  8  1  0
 10  9  1  0
 10 11  2  0
 11  7  1  0
 12 14  1  0
 13 12  2  0
 14 15  1  0
 15 16  1  0
 15 17  1  0
 18 15  1  0
  2 19  1  0
  3 20  1  0
  8 21  1  0
 10 22  1  0
M  ISO  4  19  14  20  14  21  14  22  14
M  END
>  <minimizedAffinity>  (1) 
-5.77578688

>  <minimizedRMSD>  (1) 
1.82134938

$$$$
