
     RDKit          3D

 25 25  0  0  0  0  0  0  0  0999 V2000
   37.8300   32.1410   48.7310 C   0  0  0  0  0  0  0  0  0  0  0  0
   38.3630   33.1760   49.4800 C   0  0  0  0  0  0  0  0  0  0  0  0
   39.3690   33.9560   48.8830 C   0  0  0  0  0  0  0  0  0  0  0  0
   39.7680   33.6660   47.6210 N   0  0  0  0  0  0  0  0  0  0  0  0
   39.2270   32.6470   46.9190 C   0  0  0  0  0  0  0  0  0  0  0  0
   38.2540   31.8890   47.4890 N   0  0  0  0  0  0  0  0  0  0  0  0
   39.6700   32.3270   45.5230 C   0  0  0  0  0  0  0  0  0  0  0  0
   40.7900   31.3200   45.6020 C   0  0  0  0  0  0  0  0  0  0  0  0
   40.0630   33.5430   44.7520 C   0  0  0  0  0  0  0  0  0  0  0  0
   36.7860   31.3140   49.3220 C   0  0  0  0  0  0  0  0  0  0  0  0
   35.9360   30.7350   48.5990 O   0  0  0  0  0  0  0  0  0  0  0  0
   36.7380   31.1710   50.7030 O   0  0  0  0  0  0  0  0  0  0  0  0
   36.9850   29.8570   51.2040 C   0  0  0  0  0  0  0  0  0  0  0  0
   35.8260   29.1210   51.3140 F   0  0  0  0  0  0  0  0  0  0  0  0
   37.6130   29.9780   52.4340 F   0  0  0  0  0  0  0  0  0  0  0  0
   37.8530   29.1670   50.3770 F   0  0  0  0  0  0  0  0  0  0  0  0
   38.0130   33.3803   50.5026 H   0  0  0  0  0  0  0  0  0  0  0  0
   39.8264   34.7912   49.4336 H   0  0  0  0  0  0  0  0  0  0  0  0
   38.8238   31.8976   44.9667 H   0  0  0  0  0  0  0  0  0  0  0  0
   41.0219   31.1115   46.6569 H   0  0  0  0  0  0  0  0  0  0  0  0
   40.4820   30.3891   45.1034 H   0  0  0  0  0  0  0  0  0  0  0  0
   41.6830   31.7249   45.1034 H   0  0  0  0  0  0  0  0  0  0  0  0
   40.3243   34.3515   45.4506 H   0  0  0  0  0  0  0  0  0  0  0  0
   40.9318   33.3106   44.1186 H   0  0  0  0  0  0  0  0  0  0  0  0
   39.2226   33.8631   44.1186 H   0  0  0  0  0  0  0  0  0  0  0  0
  1 10  1  0
  1  2  2  0
  3  2  1  0
  4  3  2  0
  5  6  2  0
  5  4  1  0
  6  1  1  0
  7  8  1  0
  7  5  1  0
  9  7  1  0
 10 12  1  0
 11 10  2  0
 12 13  1  0
 13 14  1  0
 13 15  1  0
 16 13  1  0
  2 17  1  0
  3 18  1  0
  7 19  1  0
  8 20  1  0
  8 21  1  0
  8 22  1  0
  9 23  1  0
  9 24  1  0
  9 25  1  0
M  ISO  8  17  14  18  14  19   8  20   8  21   8  22   8  23   8  24   8
M  ISO  1  25   8
M  END
>  <minimizedAffinity>  (1) 
-5.63414526

>  <minimizedRMSD>  (1) 
1.52025199

$$$$
