
     RDKit          3D

 23 24  0  0  0  0  0  0  0  0999 V2000
   37.6660   32.0300   48.8000 C   0  0  0  0  0  0  0  0  0  0  0  0
   38.2250   33.0760   49.5260 C   0  0  0  0  0  0  0  0  0  0  0  0
   39.2460   33.8340   48.9100 C   0  0  0  0  0  0  0  0  0  0  0  0
   39.6280   33.5030   47.6460 N   0  0  0  0  0  0  0  0  0  0  0  0
   39.0510   32.4810   46.9930 C   0  0  0  0  0  0  0  0  0  0  0  0
   38.0790   31.7400   47.5470 N   0  0  0  0  0  0  0  0  0  0  0  0
   39.5130   32.1750   45.6220 C   0  0  0  0  0  0  0  0  0  0  0  0
   40.8180   32.5790   45.0960 C   0  0  0  0  0  0  0  0  0  0  0  0
   40.6530   31.1430   45.6150 C   0  0  0  0  0  0  0  0  0  0  0  0
   36.6190   31.2510   49.4280 C   0  0  0  0  0  0  0  0  0  0  0  0
   35.7130   30.7180   48.7380 O   0  0  0  0  0  0  0  0  0  0  0  0
   36.6130   31.0920   50.8090 O   0  0  0  0  0  0  0  0  0  0  0  0
   36.8760   29.7770   51.2910 C   0  0  0  0  0  0  0  0  0  0  0  0
   35.7010   29.0700   51.4940 F   0  0  0  0  0  0  0  0  0  0  0  0
   37.6030   29.9000   52.4680 F   0  0  0  0  0  0  0  0  0  0  0  0
   37.6400   29.0690   50.4010 F   0  0  0  0  0  0  0  0  0  0  0  0
   37.8836   33.3057   50.5461 H   0  0  0  0  0  0  0  0  0  0  0  0
   39.7214   34.6726   49.4398 H   0  0  0  0  0  0  0  0  0  0  0  0
   38.5098   32.3180   45.1941 H   0  0  0  0  0  0  0  0  0  0  0  0
   41.4351   33.2949   45.6588 H   0  0  0  0  0  0  0  0  0  0  0  0
   41.1615   33.0184   44.1479 H   0  0  0  0  0  0  0  0  0  0  0  0
   40.6342   30.2949   44.9148 H   0  0  0  0  0  0  0  0  0  0  0  0
   41.1517   30.5033   46.3580 H   0  0  0  0  0  0  0  0  0  0  0  0
  1 10  1  0
  1  2  2  0
  3  2  1  0
  4  3  2  0
  5  6  2  0
  5  4  1  0
  6  1  1  0
  7  5  1  0
  8  9  1  0
  8  7  1  0
  9  7  1  0
 10 12  1  0
 11 10  2  0
 12 13  1  0
 13 14  1  0
 13 15  1  0
 16 13  1  0
  2 17  1  0
  3 18  1  0
  7 19  1  0
  8 20  1  0
  8 21  1  0
  9 22  1  0
  9 23  1  0
M  ISO  7  17  14  18  14  19  13  20  13  21  13  22  13  23  13
M  END
>  <minimizedAffinity>  (1) 
-5.57772112

>  <minimizedRMSD>  (1) 
1.30726862

$$$$
