
     RDKit          3D

 18 18  0  0  0  0  0  0  0  0999 V2000
   37.5650   31.4130   48.3820 C   0  0  0  0  0  0  0  0  0  0  0  0
   38.2390   32.6080   48.6480 C   0  0  0  0  0  0  0  0  0  0  0  0
   39.2400   32.9940   47.7300 C   0  0  0  0  0  0  0  0  0  0  0  0
   39.4910   32.1980   46.6570 N   0  0  0  0  0  0  0  0  0  0  0  0
   38.8140   31.0590   46.4480 C   0  0  0  0  0  0  0  0  0  0  0  0
   37.8520   30.6690   47.3130 N   0  0  0  0  0  0  0  0  0  0  0  0
   39.0420   30.1940   45.3400 N   0  0  0  0  0  0  0  0  0  0  0  0
   36.5380   31.0010   49.3110 C   0  0  0  0  0  0  0  0  0  0  0  0
   35.4050   30.6230   48.8900 O   0  0  0  0  0  0  0  0  0  0  0  0
   36.7730   31.0120   50.6700 O   0  0  0  0  0  0  0  0  0  0  0  0
   36.8780   29.7500   51.3070 C   0  0  0  0  0  0  0  0  0  0  0  0
   35.6260   29.2670   51.6500 F   0  0  0  0  0  0  0  0  0  0  0  0
   37.6840   29.8900   52.4400 F   0  0  0  0  0  0  0  0  0  0  0  0
   37.4760   28.8150   50.4820 F   0  0  0  0  0  0  0  0  0  0  0  0
   38.0009   33.2192   49.5310 H   0  0  0  0  0  0  0  0  0  0  0  0
   39.8077   33.9241   47.8807 H   0  0  0  0  0  0  0  0  0  0  0  0
   38.4872   29.3324   45.2366 H   0  0  0  0  0  0  0  0  0  0  0  0
   39.7618   30.4299   44.6420 H   0  0  0  0  0  0  0  0  0  0  0  0
  1  2  2  0
  1  8  1  0
  3  2  1  0
  4  3  2  0
  5  4  1  0
  5  6  2  0
  6  1  1  0
  7  5  1  0
  8 10  1  0
  9  8  2  0
 10 11  1  0
 11 12  1  0
 11 13  1  0
 14 11  1  0
  2 15  1  0
  3 16  1  0
  7 17  1  0
  7 18  1  0
M  ISO  2  15  14  16  14
M  END
>  <minimizedAffinity>  (1) 
-4.97282219

>  <minimizedRMSD>  (1) 
0.1333808

$$$$
