
     RDKit          3D

 23 23  0  0  0  0  0  0  0  0999 V2000
   37.5740   31.6700   48.5740 C   0  0  0  0  0  0  0  0  0  0  0  0
   38.2180   32.8250   48.9950 C   0  0  0  0  0  0  0  0  0  0  0  0
   39.2060   33.3590   48.1280 C   0  0  0  0  0  0  0  0  0  0  0  0
   39.4590   32.7150   46.9530 N   0  0  0  0  0  0  0  0  0  0  0  0
   38.8050   31.5990   46.5970 C   0  0  0  0  0  0  0  0  0  0  0  0
   37.8680   31.0790   47.4050 N   0  0  0  0  0  0  0  0  0  0  0  0
   39.1050   30.9600   45.3580 N   0  0  0  0  0  0  0  0  0  0  0  0
   40.4660   30.7810   44.9840 C   0  0  0  0  0  0  0  0  0  0  0  0
   41.4080   30.7670   45.8940 N   0  0  0  0  0  0  0  0  0  0  0  0
   40.7350   30.6210   43.5830 N   0  0  0  0  0  0  0  0  0  0  0  0
   42.4020   30.6340   45.6000 H   0  0  0  0  0  0  0  0  0  0  0  0
   36.5580   31.1010   49.4440 C   0  0  0  0  0  0  0  0  0  0  0  0
   35.4770   30.6640   48.9650 O   0  0  0  0  0  0  0  0  0  0  0  0
   36.7730   31.0380   50.8140 O   0  0  0  0  0  0  0  0  0  0  0  0
   36.9010   29.7360   51.3760 C   0  0  0  0  0  0  0  0  0  0  0  0
   35.6650   29.2070   51.6900 F   0  0  0  0  0  0  0  0  0  0  0  0
   37.7160   29.8230   52.4940 F   0  0  0  0  0  0  0  0  0  0  0  0
   37.5080   28.8770   50.4940 F   0  0  0  0  0  0  0  0  0  0  0  0
   37.9741   33.3036   49.9549 H   0  0  0  0  0  0  0  0  0  0  0  0
   39.7559   34.2727   48.3978 H   0  0  0  0  0  0  0  0  0  0  0  0
   38.3469   30.6326   44.7424 H   0  0  0  0  0  0  0  0  0  0  0  0
   41.7027   30.4880   43.2563 H   0  0  0  0  0  0  0  0  0  0  0  0
   39.9603   30.6392   42.9045 H   0  0  0  0  0  0  0  0  0  0  0  0
  1  2  2  0
  1 12  1  0
  3  2  1  0
  4  3  2  0
  5  4  1  0
  5  6  2  0
  6  1  1  0
  7  5  1  0
  8  7  1  0
  8  9  2  0
 10  8  1  0
 11  9  1  0
 12 14  1  0
 13 12  2  0
 14 15  1  0
 15 16  1  0
 15 17  1  0
 18 15  1  0
  2 19  1  0
  3 20  1  0
  7 21  1  0
 10 22  1  0
 10 23  1  0
M  ISO  2  19  14  20  14
M  END
>  <minimizedAffinity>  (1) 
-6.05386257

>  <minimizedRMSD>  (1) 
0.6659109

$$$$
