
     RDKit          3D

 29 29  0  0  0  0  0  0  0  0999 V2000
   36.8850   31.1540   48.1910 C   0  0  0  0  0  0  0  0  0  0  0  0
   37.4800   32.1230   48.9690 C   0  0  0  0  0  0  0  0  0  0  0  0
   38.5770   32.8130   48.3940 C   0  0  0  0  0  0  0  0  0  0  0  0
   38.9690   32.4800   47.1250 N   0  0  0  0  0  0  0  0  0  0  0  0
   38.3520   31.5270   46.4140 C   0  0  0  0  0  0  0  0  0  0  0  0
   37.3130   30.8670   46.9490 N   0  0  0  0  0  0  0  0  0  0  0  0
   38.8070   31.2310   45.1080 N   0  0  0  0  0  0  0  0  0  0  0  0
   40.1900   31.0840   44.8580 C   0  0  0  0  0  0  0  0  0  0  0  0
   41.0060   30.7900   45.8280 N   0  0  0  0  0  0  0  0  0  0  0  0
   40.6290   31.2760   43.5010 N   0  0  0  0  0  0  0  0  0  0  0  0
   42.0290   30.6730   45.6400 H   0  0  0  0  0  0  0  0  0  0  0  0
   35.7570   30.4210   48.7430 C   0  0  0  0  0  0  0  0  0  0  0  0
   35.0350   29.6850   48.0180 O   0  0  0  0  0  0  0  0  0  0  0  0
   35.4610   30.5300   50.1050 O   0  0  0  0  0  0  0  0  0  0  0  0
   36.0990   29.5900   50.9640 C   0  0  0  0  0  0  0  0  0  0  0  0
   35.1820   28.9270   51.7480 F   0  0  0  0  0  0  0  0  0  0  0  0
   37.0210   30.2880   51.7390 F   0  0  0  0  0  0  0  0  0  0  0  0
   36.7900   28.6570   50.2520 F   0  0  0  0  0  0  0  0  0  0  0  0
   39.2870   33.8760   49.1520 C   0  0  0  0  0  0  0  0  0  0  0  0
   40.2050   34.6730   48.2760 C   0  0  0  0  0  0  0  0  0  0  0  0
   37.1223   32.3497   49.9842 H   0  0  0  0  0  0  0  0  0  0  0  0
   38.1303   31.1226   44.3391 H   0  0  0  0  0  0  0  0  0  0  0  0
   41.6268   31.1805   43.2641 H   0  0  0  0  0  0  0  0  0  0  0  0
   39.9454   31.5089   42.7666 H   0  0  0  0  0  0  0  0  0  0  0  0
   38.5424   34.5535   49.5954 H   0  0  0  0  0  0  0  0  0  0  0  0
   39.8958   33.3902   49.9288 H   0  0  0  0  0  0  0  0  0  0  0  0
   40.8875   35.2655   48.9031 H   0  0  0  0  0  0  0  0  0  0  0  0
   40.7895   33.9911   47.6409 H   0  0  0  0  0  0  0  0  0  0  0  0
   39.6119   35.3475   47.6409 H   0  0  0  0  0  0  0  0  0  0  0  0
  1 12  1  0
  1  2  2  0
  3  2  1  0
  3 19  1  0
  4  3  2  0
  5  6  2  0
  5  4  1  0
  6  1  1  0
  7  5  1  0
  8  7  1  0
  8  9  2  0
 10  8  1  0
 11  9  1  0
 12 14  1  0
 13 12  2  0
 14 15  1  0
 15 17  1  0
 15 16  1  0
 18 15  1  0
 20 19  1  0
  2 21  1  0
  7 22  1  0
 10 23  1  0
 10 24  1  0
 19 25  1  0
 19 26  1  0
 20 27  1  0
 20 28  1  0
 20 29  1  0
M  ISO  6  21  14  25   8  26   8  27   8  28   8  29   8
M  END
>  <minimizedAffinity>  (1) 
-6.24351072

>  <minimizedRMSD>  (1) 
0.944630146

$$$$
