
     RDKit          3D

 30 31  0  0  0  0  0  0  0  0999 V2000
   36.0930   30.3790   47.9010 C   0  0  0  0  0  0  0  0  0  0  0  0
   37.3580   30.8040   47.5180 C   0  0  0  0  0  0  0  0  0  0  0  0
   37.5870   30.9220   46.1330 C   0  0  0  0  0  0  0  0  0  0  0  0
   36.5940   30.6260   45.2610 N   0  0  0  0  0  0  0  0  0  0  0  0
   35.3800   30.2170   45.6860 C   0  0  0  0  0  0  0  0  0  0  0  0
   35.1270   30.0920   47.0080 N   0  0  0  0  0  0  0  0  0  0  0  0
   34.3550   29.9120   44.7470 N   0  0  0  0  0  0  0  0  0  0  0  0
   34.6810   29.1100   43.6120 C   0  0  0  0  0  0  0  0  0  0  0  0
   35.7220   28.3200   43.6220 N   0  0  0  0  0  0  0  0  0  0  0  0
   33.8150   29.2180   42.4760 N   0  0  0  0  0  0  0  0  0  0  0  0
   35.9430   27.7440   42.7820 H   0  0  0  0  0  0  0  0  0  0  0  0
   38.8620   31.3530   45.6680 N   0  0  0  0  0  0  0  0  0  0  0  0
   39.4410   32.5260   45.9800 C   0  0  0  0  0  0  0  0  0  0  0  0
   40.6680   32.5230   45.3090 C   0  0  0  0  0  0  0  0  0  0  0  0
   40.7680   31.3470   44.6240 N   0  0  0  0  0  0  0  0  0  0  0  0
   39.6500   30.6330   44.8520 C   0  0  0  0  0  0  0  0  0  0  0  0
   35.8160   30.2430   49.3290 C   0  0  0  0  0  0  0  0  0  0  0  0
   34.9470   29.4200   49.7320 O   0  0  0  0  0  0  0  0  0  0  0  0
   36.5070   31.0190   50.2390 O   0  0  0  0  0  0  0  0  0  0  0  0
   37.5830   30.3930   50.9190 C   0  0  0  0  0  0  0  0  0  0  0  0
   37.3250   30.2550   52.2640 F   0  0  0  0  0  0  0  0  0  0  0  0
   38.7360   31.1320   50.6840 F   0  0  0  0  0  0  0  0  0  0  0  0
   37.8050   29.1310   50.4120 F   0  0  0  0  0  0  0  0  0  0  0  0
   38.1396   31.0361   48.2564 H   0  0  0  0  0  0  0  0  0  0  0  0
   33.3964   30.2632   44.8837 H   0  0  0  0  0  0  0  0  0  0  0  0
   33.0036   29.8518   42.5054 H   0  0  0  0  0  0  0  0  0  0  0  0
   34.0037   28.6618   41.6298 H   0  0  0  0  0  0  0  0  0  0  0  0
   39.0357   33.3191   46.6256 H   0  0  0  0  0  0  0  0  0  0  0  0
   41.4193   33.3262   45.3297 H   0  0  0  0  0  0  0  0  0  0  0  0
   39.4221   29.6375   44.4432 H   0  0  0  0  0  0  0  0  0  0  0  0
  1 17  1  0
  2  1  2  0
  3  2  1  0
  4  5  1  0
  4  3  2  0
  5  6  2  0
  6  1  1  0
  7  5  1  0
  8  9  2  0
  8  7  1  0
 10  8  1  0
 11  9  1  0
 12 13  1  0
 12  3  1  0
 14 13  2  0
 15 16  2  0
 15 14  1  0
 16 12  1  0
 17 18  2  0
 17 19  1  0
 19 20  1  0
 20 21  1  0
 22 20  1  0
 23 20  1  0
  2 24  1  0
  7 25  1  0
 10 26  1  0
 10 27  1  0
 13 28  1  0
 14 29  1  0
 16 30  1  0
M  ISO  4  24  14  28  14  29  14  30  14
M  END
>  <minimizedAffinity>  (1) 
-6.0458827

>  <minimizedRMSD>  (1) 
4.13042927

$$$$
