
     RDKit          3D

 36 37  0  0  0  0  0  0  0  0999 V2000
   35.6880   30.0310   46.7020 C   0  0  0  0  0  0  0  0  0  0  0  0
   36.5050   30.4450   47.7480 C   0  0  0  0  0  0  0  0  0  0  0  0
   37.7470   31.0300   47.3770 C   0  0  0  0  0  0  0  0  0  0  0  0
   38.0590   31.1480   46.0670 N   0  0  0  0  0  0  0  0  0  0  0  0
   37.2240   30.7270   45.0970 C   0  0  0  0  0  0  0  0  0  0  0  0
   36.0410   30.1700   45.4220 N   0  0  0  0  0  0  0  0  0  0  0  0
   37.5840   30.8680   43.7300 N   0  0  0  0  0  0  0  0  0  0  0  0
   38.8880   30.5210   43.3110 C   0  0  0  0  0  0  0  0  0  0  0  0
   39.6060   29.6810   44.0270 N   0  0  0  0  0  0  0  0  0  0  0  0
   39.3730   31.1140   42.1030 N   0  0  0  0  0  0  0  0  0  0  0  0
   40.5620   29.4200   43.7010 H   0  0  0  0  0  0  0  0  0  0  0  0
   38.6940   31.5050   48.4250 C   0  0  0  0  0  0  0  0  0  0  0  0
   39.0430   32.9670   48.2450 C   0  0  0  0  0  0  0  0  0  0  0  0
   38.2570   33.7340   49.2850 C   0  0  0  0  0  0  0  0  0  0  0  0
   37.3170   32.7000   49.9070 C   0  0  0  0  0  0  0  0  0  0  0  0
   38.1320   31.4500   49.7950 C   0  0  0  0  0  0  0  0  0  0  0  0
   34.4170   29.4320   47.0530 C   0  0  0  0  0  0  0  0  0  0  0  0
   33.8550   28.6220   46.2700 O   0  0  0  0  0  0  0  0  0  0  0  0
   33.7970   29.7430   48.2600 O   0  0  0  0  0  0  0  0  0  0  0  0
   33.7900   28.7200   49.2520 C   0  0  0  0  0  0  0  0  0  0  0  0
   33.8500   29.2610   50.5200 F   0  0  0  0  0  0  0  0  0  0  0  0
   34.8620   27.8640   49.0040 F   0  0  0  0  0  0  0  0  0  0  0  0
   32.6420   27.9620   49.1700 F   0  0  0  0  0  0  0  0  0  0  0  0
   36.2082   30.3270   48.8006 H   0  0  0  0  0  0  0  0  0  0  0  0
   36.8979   31.2214   43.0478 H   0  0  0  0  0  0  0  0  0  0  0  0
   40.3182   30.8882   41.7618 H   0  0  0  0  0  0  0  0  0  0  0  0
   38.7770   31.7668   41.5743 H   0  0  0  0  0  0  0  0  0  0  0  0
   39.5577   30.8332   48.3122 H   0  0  0  0  0  0  0  0  0  0  0  0
   40.1217   33.1204   48.3961 H   0  0  0  0  0  0  0  0  0  0  0  0
   38.7951   33.3103   47.2298 H   0  0  0  0  0  0  0  0  0  0  0  0
   38.9299   34.1538   50.0473 H   0  0  0  0  0  0  0  0  0  0  0  0
   37.7098   34.5827   48.8488 H   0  0  0  0  0  0  0  0  0  0  0  0
   37.0929   32.9408   50.9567 H   0  0  0  0  0  0  0  0  0  0  0  0
   36.3326   32.6386   49.4199 H   0  0  0  0  0  0  0  0  0  0  0  0
   37.4995   30.5590   49.9219 H   0  0  0  0  0  0  0  0  0  0  0  0
   38.9116   31.3842   50.5682 H   0  0  0  0  0  0  0  0  0  0  0  0
  1 17  1  0
  1  2  2  0
  3  2  1  0
  3 12  1  0
  4  3  2  0
  5  6  2  0
  5  4  1  0
  6  1  1  0
  7  5  1  0
  8  7  1  0
  8  9  2  0
 10  8  1  0
 11  9  1  0
 12 16  1  0
 13 12  1  0
 13 14  1  0
 14 15  1  0
 16 15  1  0
 17 19  1  0
 18 17  2  0
 19 20  1  0
 20 21  1  0
 22 20  1  0
 23 20  1  0
  2 24  1  0
  7 25  1  0
 10 26  1  0
 10 27  1  0
 12 28  1  0
 13 29  1  0
 13 30  1  0
 14 31  1  0
 14 32  1  0
 15 33  1  0
 15 34  1  0
 16 35  1  0
 16 36  1  0
M  ISO  8  24  14  28  13  29  13  30  13  31  13  32  13  33  13  34  13
M  ISO  2  35  13  36  13
M  END
>  <minimizedAffinity>  (1) 
-5.90401936

>  <minimizedRMSD>  (1) 
3.26888418

$$$$
