
     RDKit          3D

 28 29  0  0  0  0  0  0  0  0999 V2000
   36.1810   30.3550   47.8510 C   0  0  0  0  0  0  0  0  0  0  0  0
   37.4100   30.9130   47.5330 C   0  0  0  0  0  0  0  0  0  0  0  0
   37.6790   31.1250   46.1560 C   0  0  0  0  0  0  0  0  0  0  0  0
   36.7190   30.7710   45.2410 N   0  0  0  0  0  0  0  0  0  0  0  0
   35.5470   30.2350   45.6090 C   0  0  0  0  0  0  0  0  0  0  0  0
   35.2860   30.0310   46.9020 N   0  0  0  0  0  0  0  0  0  0  0  0
   34.6000   29.8920   44.6110 N   0  0  0  0  0  0  0  0  0  0  0  0
   35.0160   29.1970   43.4520 C   0  0  0  0  0  0  0  0  0  0  0  0
   36.1190   28.4980   43.4580 N   0  0  0  0  0  0  0  0  0  0  0  0
   34.1670   29.3070   42.2870 N   0  0  0  0  0  0  0  0  0  0  0  0
   36.4160   27.9850   42.5990 H   0  0  0  0  0  0  0  0  0  0  0  0
   38.9490   31.7080   45.7260 C   0  0  0  0  0  0  0  0  0  0  0  0
   40.2510   31.3830   45.8690 N   0  0  0  0  0  0  0  0  0  0  0  0
   40.9890   32.2720   45.2700 O   0  0  0  0  0  0  0  0  0  0  0  0
   40.2340   33.1950   44.7210 C   0  0  0  0  0  0  0  0  0  0  0  0
   38.9480   32.8540   44.9990 N   0  0  0  0  0  0  0  0  0  0  0  0
   35.8860   30.1300   49.2560 C   0  0  0  0  0  0  0  0  0  0  0  0
   35.0940   29.2120   49.6000 O   0  0  0  0  0  0  0  0  0  0  0  0
   36.4800   30.9260   50.2230 O   0  0  0  0  0  0  0  0  0  0  0  0
   37.5880   30.3560   50.9120 C   0  0  0  0  0  0  0  0  0  0  0  0
   37.3350   30.2380   52.2680 F   0  0  0  0  0  0  0  0  0  0  0  0
   38.6970   31.1670   50.6710 F   0  0  0  0  0  0  0  0  0  0  0  0
   37.8830   29.1080   50.4400 F   0  0  0  0  0  0  0  0  0  0  0  0
   38.1412   31.1785   48.3108 H   0  0  0  0  0  0  0  0  0  0  0  0
   33.6097   30.1489   44.7302 H   0  0  0  0  0  0  0  0  0  0  0  0
   33.3056   29.8701   42.3288 H   0  0  0  0  0  0  0  0  0  0  0  0
   34.4236   28.8223   41.4152 H   0  0  0  0  0  0  0  0  0  0  0  0
   40.5746   34.0708   44.1493 H   0  0  0  0  0  0  0  0  0  0  0  0
  1 17  1  0
  2  1  2  0
  3  2  1  0
  4  5  1  0
  4  3  2  0
  5  6  2  0
  6  1  1  0
  7  5  1  0
  8  9  2  0
  8  7  1  0
 10  8  1  0
 11  9  1  0
 12 13  2  0
 12  3  1  0
 14 13  1  0
 15 16  2  0
 15 14  1  0
 16 12  1  0
 17 18  2  0
 17 19  1  0
 19 20  1  0
 20 21  1  0
 22 20  1  0
 23 20  1  0
  2 24  1  0
  7 25  1  0
 10 26  1  0
 10 27  1  0
 15 28  1  0
M  ISO  2  24  14  28  14
M  END
>  <minimizedAffinity>  (1) 
-5.86416626

>  <minimizedRMSD>  (1) 
3.92255735

$$$$
