
     RDKit          3D

 41 42  0  0  1  0  0  0  0  0999 V2000
   35.7350   30.3780   48.0910 C   0  0  0  0  0  0  0  0  0  0  0  0
   36.9770   30.5440   47.5140 C   0  0  0  0  0  0  0  0  0  0  0  0
   37.0590   30.4990   46.0910 C   0  0  0  0  0  0  0  0  0  0  0  0
   35.9060   30.2990   45.4160 N   0  0  0  0  0  0  0  0  0  0  0  0
   34.7250   30.1430   46.0060 C   0  0  0  0  0  0  0  0  0  0  0  0
   34.6480   30.1840   47.3440 N   0  0  0  0  0  0  0  0  0  0  0  0
   33.5600   29.9370   45.2210 N   0  0  0  0  0  0  0  0  0  0  0  0
   33.5820   29.0300   44.1350 C   0  0  0  0  0  0  0  0  0  0  0  0
   34.4640   28.0650   44.1160 N   0  0  0  0  0  0  0  0  0  0  0  0
   32.6100   29.2300   43.0940 N   0  0  0  0  0  0  0  0  0  0  0  0
   34.4810   27.3990   43.3090 H   0  0  0  0  0  0  0  0  0  0  0  0
   38.3210   30.6610   45.4700 N   0  0  0  0  0  0  0  0  0  0  0  0
   38.4180   30.2980   44.0950 C   0  0  0  0  0  0  0  0  0  0  0  0
   39.8410   30.2250   43.5900 C   0  0  0  0  0  0  0  0  0  0  0  0
   40.5090   31.5050   44.1310 C   0  0  0  0  0  0  0  0  0  0  0  0
   40.7160   31.2680   45.6030 C   0  0  0  0  0  0  0  0  0  0  0  0
   39.3990   31.1740   46.2690 C   0  0  1  0  0  0  0  0  0  0  0  0
   35.6420   30.4170   49.5430 C   0  0  0  0  0  0  0  0  0  0  0  0
   34.7410   29.7820   50.1380 O   0  0  0  0  0  0  0  0  0  0  0  0
   36.5530   31.1610   50.2840 O   0  0  0  0  0  0  0  0  0  0  0  0
   37.5780   30.4270   50.9410 C   0  0  0  0  0  0  0  0  0  0  0  0
   37.3290   30.2700   52.2830 F   0  0  0  0  0  0  0  0  0  0  0  0
   38.7880   31.0830   50.7180 F   0  0  0  0  0  0  0  0  0  0  0  0
   37.7260   29.1700   50.3960 F   0  0  0  0  0  0  0  0  0  0  0  0
   39.0120   32.5760   46.7010 C   0  0  0  0  0  0  0  0  0  0  0  0
   37.8735   30.7056   48.1305 H   0  0  0  0  0  0  0  0  0  0  0  0
   32.6949   30.4501   45.4430 H   0  0  0  0  0  0  0  0  0  0  0  0
   32.5863   28.5957   42.2828 H   0  0  0  0  0  0  0  0  0  0  0  0
   31.9376   30.0075   43.1597 H   0  0  0  0  0  0  0  0  0  0  0  0
   37.9500   29.3115   43.9614 H   0  0  0  0  0  0  0  0  0  0  0  0
   37.9090   31.0828   43.5163 H   0  0  0  0  0  0  0  0  0  0  0  0
   40.3461   29.3286   43.9791 H   0  0  0  0  0  0  0  0  0  0  0  0
   39.8926   30.1579   42.4933 H   0  0  0  0  0  0  0  0  0  0  0  0
   41.4739   31.6744   43.6308 H   0  0  0  0  0  0  0  0  0  0  0  0
   39.8885   32.3945   43.9472 H   0  0  0  0  0  0  0  0  0  0  0  0
   41.2709   30.3297   45.7504 H   0  0  0  0  0  0  0  0  0  0  0  0
   41.2905   32.1008   46.0348 H   0  0  0  0  0  0  0  0  0  0  0  0
   39.5299   30.4555   47.0916 H   0  0  0  0  0  0  0  0  0  0  0  0
   38.9970   32.6302   47.7996 H   0  0  0  0  0  0  0  0  0  0  0  0
   39.7450   33.2961   46.3083 H   0  0  0  0  0  0  0  0  0  0  0  0
   38.0134   32.8182   46.3083 H   0  0  0  0  0  0  0  0  0  0  0  0
  1 18  1  0
  2  1  2  0
  3  2  1  0
  4  5  1  0
  4  3  2  0
  5  6  2  0
  6  1  1  0
  7  5  1  0
  8  7  1  0
  9  8  2  0
 10  8  1  0
 11  9  1  0
 12  3  1  0
 12 17  1  0
 13 12  1  0
 14 13  1  0
 14 15  1  0
 15 16  1  0
 16 17  1  0
 17 25  1  0
 18 19  2  0
 18 20  1  0
 20 21  1  0
 21 22  1  0
 23 21  1  0
 24 21  1  0
  2 26  1  0
  7 27  1  0
 10 28  1  0
 10 29  1  0
 13 30  1  0
 13 31  1  0
 14 32  1  0
 14 33  1  0
 15 34  1  0
 15 35  1  0
 16 36  1  0
 16 37  1  0
 17 38  1  1
 25 39  1  0
 25 40  1  0
 25 41  1  0
M  ISO  8  26  14  30  13  31  13  32  13  33  13  34  13  35  13  36  13
M  ISO  5  37  13  38  13  39   8  40   8  41   8
M  END
>  <minimizedAffinity>  (1) 
-6.61248159

>  <minimizedRMSD>  (1) 
0.947459638

$$$$
