
     RDKit          3D

 32 35  0  0  0  0  0  0  0  0999 V2000
   36.9680   31.2660   48.6870 C   0  0  0  0  0  0  0  0  0  0  0  0
   37.3660   32.1720   49.6240 C   0  0  0  0  0  0  0  0  0  0  0  0
   38.4660   32.9710   49.3150 C   0  0  0  0  0  0  0  0  0  0  0  0
   39.1400   32.8840   48.1460 N   0  0  0  0  0  0  0  0  0  0  0  0
   38.7070   31.9700   47.2470 C   0  0  0  0  0  0  0  0  0  0  0  0
   37.6370   31.1770   47.5210 N   0  0  0  0  0  0  0  0  0  0  0  0
   39.3390   31.7890   45.9790 N   0  0  0  0  0  0  0  0  0  0  0  0
   40.5890   31.3460   45.7690 C   0  0  0  0  0  0  0  0  0  0  0  0
   40.8430   31.3040   44.4460 N   0  0  0  0  0  0  0  0  0  0  0  0
   39.7020   31.7380   43.8490 C   0  0  0  0  0  0  0  0  0  0  0  0
   39.4740   31.8700   42.5150 C   0  0  0  0  0  0  0  0  0  0  0  0
   40.2400   31.6290   41.5590 O   0  0  0  0  0  0  0  0  0  0  0  0
   38.2490   32.3260   42.1490 N   0  0  0  0  0  0  0  0  0  0  0  0
   37.2790   32.6420   43.0540 C   0  0  0  0  0  0  0  0  0  0  0  0
   36.0020   33.1180   42.6370 N   0  0  0  0  0  0  0  0  0  0  0  0
   37.5750   32.4860   44.3590 N   0  0  0  0  0  0  0  0  0  0  0  0
   38.7600   32.0420   44.8090 C   0  0  0  0  0  0  0  0  0  0  0  0
   35.6700   29.7900   50.1400 C   0  0  0  0  0  0  0  0  0  0  0  0
   35.8330   30.3680   48.8830 C   0  0  0  0  0  0  0  0  0  0  0  0
   34.9180   30.0680   47.8820 C   0  0  0  0  0  0  0  0  0  0  0  0
   33.8960   29.2150   48.1770 N   0  0  0  0  0  0  0  0  0  0  0  0
   33.7630   28.6660   49.4160 C   0  0  0  0  0  0  0  0  0  0  0  0
   34.6370   28.9490   50.3820 N   0  0  0  0  0  0  0  0  0  0  0  0
   36.8405   32.2690   50.5855 H   0  0  0  0  0  0  0  0  0  0  0  0
   38.8021   33.7084   50.0588 H   0  0  0  0  0  0  0  0  0  0  0  0
   41.2995   31.0601   46.5586 H   0  0  0  0  0  0  0  0  0  0  0  0
   38.0435   32.4380   41.1459 H   0  0  0  0  0  0  0  0  0  0  0  0
   35.2847   33.3505   43.3387 H   0  0  0  0  0  0  0  0  0  0  0  0
   35.7964   33.2296   41.6339 H   0  0  0  0  0  0  0  0  0  0  0  0
   36.3866   30.0188   50.9426 H   0  0  0  0  0  0  0  0  0  0  0  0
   35.0153   30.5069   46.8780 H   0  0  0  0  0  0  0  0  0  0  0  0
   32.9262   27.9823   49.6218 H   0  0  0  0  0  0  0  0  0  0  0  0
  1 19  1  0
  1  2  2  0
  3  2  1  0
  4  3  2  0
  5  6  2  0
  5  4  1  0
  6  1  1  0
  7  5  1  0
  8  7  1  0
  9  8  2  0
 10  9  1  0
 10 17  2  0
 11 10  1  0
 12 11  2  0
 13 11  1  0
 13 14  1  0
 14 16  2  0
 15 14  1  0
 16 17  1  0
 17  7  1  0
 18 23  2  0
 19 18  1  0
 20 21  1  0
 20 19  2  0
 21 22  2  0
 22 23  1  0
  2 24  1  0
  3 25  1  0
  8 26  1  0
 13 27  1  0
 15 28  1  0
 15 29  1  0
 18 30  1  0
 20 31  1  0
 22 32  1  0
M  ISO  7  24  14  25  14  26  14  27   9  30  14  31  14  32  14
M  END
>  <minimizedAffinity>  (1) 
-7.22141457

>  <minimizedRMSD>  (1) 
0.678743482

$$$$
