
     RDKit          3D

 32 35  0  0  0  0  0  0  0  0999 V2000
   36.7760   31.0980   48.6600 C   0  0  0  0  0  0  0  0  0  0  0  0
   37.0650   31.8930   49.7270 C   0  0  0  0  0  0  0  0  0  0  0  0
   38.1370   32.7730   49.5860 C   0  0  0  0  0  0  0  0  0  0  0  0
   38.8760   32.8680   48.4720 N   0  0  0  0  0  0  0  0  0  0  0  0
   38.5470   32.0550   47.4380 C   0  0  0  0  0  0  0  0  0  0  0  0
   37.5080   31.1770   47.5260 N   0  0  0  0  0  0  0  0  0  0  0  0
   39.3140   32.1240   46.2240 C   0  0  0  0  0  0  0  0  0  0  0  0
   40.1460   33.1430   45.8090 C   0  0  0  0  0  0  0  0  0  0  0  0
   40.7220   32.9030   44.6160 N   0  0  0  0  0  0  0  0  0  0  0  0
   40.2700   31.7050   44.2240 C   0  0  0  0  0  0  0  0  0  0  0  0
   40.5170   30.9460   43.0840 C   0  0  0  0  0  0  0  0  0  0  0  0
   39.9350   29.7110   42.8750 C   0  0  0  0  0  0  0  0  0  0  0  0
   39.0790   29.2450   43.8570 C   0  0  0  0  0  0  0  0  0  0  0  0
   38.8080   29.9710   45.0040 C   0  0  0  0  0  0  0  0  0  0  0  0
   39.4030   31.2120   45.2000 C   0  0  0  0  0  0  0  0  0  0  0  0
   35.7360   29.1010   49.6240 C   0  0  0  0  0  0  0  0  0  0  0  0
   35.6880   30.1330   48.6630 C   0  0  0  0  0  0  0  0  0  0  0  0
   34.6120   30.1570   47.7900 C   0  0  0  0  0  0  0  0  0  0  0  0
   33.6550   29.2000   47.8900 N   0  0  0  0  0  0  0  0  0  0  0  0
   33.7170   28.2170   48.8180 C   0  0  0  0  0  0  0  0  0  0  0  0
   34.7440   28.1720   49.6710 N   0  0  0  0  0  0  0  0  0  0  0  0
   36.4798   31.8432   50.6571 H   0  0  0  0  0  0  0  0  0  0  0  0
   38.3901   33.4248   50.4352 H   0  0  0  0  0  0  0  0  0  0  0  0
   40.3210   34.0584   46.3933 H   0  0  0  0  0  0  0  0  0  0  0  0
   41.3764   33.5155   44.1086 H   0  0  0  0  0  0  0  0  0  0  0  0
   41.2015   31.3446   42.3207 H   0  0  0  0  0  0  0  0  0  0  0  0
   40.1428   29.1240   41.9682 H   0  0  0  0  0  0  0  0  0  0  0  0
   38.5978   28.2651   43.7218 H   0  0  0  0  0  0  0  0  0  0  0  0
   38.1210   29.5654   45.7613 H   0  0  0  0  0  0  0  0  0  0  0  0
   36.5745   29.0480   50.3340 H   0  0  0  0  0  0  0  0  0  0  0  0
   34.5345   30.9431   47.0244 H   0  0  0  0  0  0  0  0  0  0  0  0
   32.9236   27.4569   48.8698 H   0  0  0  0  0  0  0  0  0  0  0  0
  1 17  1  0
  1  2  2  0
  3  2  1  0
  4  3  2  0
  5  6  2  0
  5  4  1  0
  6  1  1  0
  7  5  1  0
  8  7  2  0
  9  8  1  0
 10  9  1  0
 10 15  2  0
 11 10  1  0
 12 11  2  0
 12 13  1  0
 13 14  2  0
 14 15  1  0
 15  7  1  0
 16 21  2  0
 17 16  1  0
 18 19  1  0
 18 17  2  0
 19 20  2  0
 20 21  1  0
  2 22  1  0
  3 23  1  0
  8 24  1  0
  9 25  1  0
 11 26  1  0
 12 27  1  0
 13 28  1  0
 14 29  1  0
 16 30  1  0
 18 31  1  0
 20 32  1  0
M  ISO  8  22  14  23  14  24  14  25   9  26  14  27  14  28  14  29  14
M  ISO  3  30  14  31  14  32  14
M  END
>  <minimizedAffinity>  (1) 
-6.77058029

>  <minimizedRMSD>  (1) 
0.48641932

$$$$
