
     RDKit          3D

 34 36  0  0  0  0  0  0  0  0999 V2000
   36.8700   31.2090   48.6240 C   0  0  0  0  0  0  0  0  0  0  0  0
   37.1640   31.9580   49.7390 C   0  0  0  0  0  0  0  0  0  0  0  0
   38.1890   32.8920   49.6300 C   0  0  0  0  0  0  0  0  0  0  0  0
   38.8900   33.0860   48.4990 N   0  0  0  0  0  0  0  0  0  0  0  0
   38.5630   32.3220   47.4200 C   0  0  0  0  0  0  0  0  0  0  0  0
   37.5600   31.3970   47.5000 N   0  0  0  0  0  0  0  0  0  0  0  0
   35.8480   29.2090   49.5940 C   0  0  0  0  0  0  0  0  0  0  0  0
   35.8160   30.2010   48.6180 C   0  0  0  0  0  0  0  0  0  0  0  0
   34.7800   30.1880   47.6770 C   0  0  0  0  0  0  0  0  0  0  0  0
   33.8460   29.2120   47.7510 N   0  0  0  0  0  0  0  0  0  0  0  0
   33.8940   28.2500   48.7120 C   0  0  0  0  0  0  0  0  0  0  0  0
   34.8880   28.2510   49.6260 N   0  0  0  0  0  0  0  0  0  0  0  0
   39.2650   32.4500   46.1300 C   0  0  0  0  0  0  0  0  0  0  0  0
   40.1020   31.2090   45.9130 C   0  0  0  0  0  0  0  0  0  0  0  0
   40.9170   31.2990   44.6450 C   0  0  0  0  0  0  0  0  0  0  0  0
   40.0980   31.7240   43.4610 C   0  0  0  0  0  0  0  0  0  0  0  0
   39.1310   32.8280   43.7260 C   0  0  0  0  0  0  0  0  0  0  0  0
   38.3090   32.5210   44.9590 C   0  0  0  0  0  0  0  0  0  0  0  0
   36.6105   31.8239   50.6801 H   0  0  0  0  0  0  0  0  0  0  0  0
   38.4381   33.5012   50.5114 H   0  0  0  0  0  0  0  0  0  0  0  0
   36.6545   29.2019   50.3420 H   0  0  0  0  0  0  0  0  0  0  0  0
   34.7262   30.9568   46.8921 H   0  0  0  0  0  0  0  0  0  0  0  0
   33.1204   27.4687   48.7445 H   0  0  0  0  0  0  0  0  0  0  0  0
   39.8604   33.3738   46.1753 H   0  0  0  0  0  0  0  0  0  0  0  0
   40.7841   31.0854   46.7671 H   0  0  0  0  0  0  0  0  0  0  0  0
   39.4224   30.3487   45.8232 H   0  0  0  0  0  0  0  0  0  0  0  0
   41.7240   32.0311   44.7962 H   0  0  0  0  0  0  0  0  0  0  0  0
   41.3140   30.2954   44.4324 H   0  0  0  0  0  0  0  0  0  0  0  0
   39.5301   30.8506   43.1079 H   0  0  0  0  0  0  0  0  0  0  0  0
   40.8105   32.1117   42.7181 H   0  0  0  0  0  0  0  0  0  0  0  0
   39.6846   33.7655   43.8830 H   0  0  0  0  0  0  0  0  0  0  0  0
   38.4571   32.9286   42.8624 H   0  0  0  0  0  0  0  0  0  0  0  0
   37.5681   33.3169   45.1254 H   0  0  0  0  0  0  0  0  0  0  0  0
   37.7674   31.5710   44.8398 H   0  0  0  0  0  0  0  0  0  0  0  0
  1  2  2  0
  3  2  1  0
  4  3  2  0
  5  6  2  0
  5  4  1  0
  6  1  1  0
  7 12  2  0
  8  1  1  0
  8  7  1  0
  9 10  1  0
  9  8  2  0
 10 11  2  0
 11 12  1  0
 13  5  1  0
 14 13  1  0
 15 14  1  0
 16 17  1  0
 16 15  1  0
 17 18  1  0
 18 13  1  0
  2 19  1  0
  3 20  1  0
  7 21  1  0
  9 22  1  0
 11 23  1  0
 13 24  1  0
 14 25  1  0
 14 26  1  0
 15 27  1  0
 15 28  1  0
 16 29  1  0
 16 30  1  0
 17 31  1  0
 17 32  1  0
 18 33  1  0
 18 34  1  0
M  ISO  8  19  14  20  14  21  14  22  14  23  14  24  13  25  13  26  13
M  ISO  8  27  13  28  13  29  13  30  13  31  13  32  13  33  13  34  13
M  END
>  <minimizedAffinity>  (1) 
-6.29752588

>  <minimizedRMSD>  (1) 
0.872546732

$$$$
