
     RDKit          3D

 32 35  0  0  0  0  0  0  0  0999 V2000
   36.7530   30.9320   48.6210 C   0  0  0  0  0  0  0  0  0  0  0  0
   37.2440   31.5500   49.7160 C   0  0  0  0  0  0  0  0  0  0  0  0
   38.3360   32.4000   49.5170 C   0  0  0  0  0  0  0  0  0  0  0  0
   38.9040   32.6210   48.3140 N   0  0  0  0  0  0  0  0  0  0  0  0
   38.3820   31.9800   47.2310 C   0  0  0  0  0  0  0  0  0  0  0  0
   37.3380   31.1790   47.4720 N   0  0  0  0  0  0  0  0  0  0  0  0
   39.0750   32.2970   45.9970 C   0  0  0  0  0  0  0  0  0  0  0  0
   39.5830   33.5080   45.7470 N   0  0  0  0  0  0  0  0  0  0  0  0
   40.2250   33.8610   44.6430 C   0  0  0  0  0  0  0  0  0  0  0  0
   40.4290   32.9960   43.6390 N   0  0  0  0  0  0  0  0  0  0  0  0
   39.9550   31.7230   43.7790 C   0  0  0  0  0  0  0  0  0  0  0  0
   40.1450   30.8060   42.7690 C   0  0  0  0  0  0  0  0  0  0  0  0
   39.6750   29.5140   42.8840 C   0  0  0  0  0  0  0  0  0  0  0  0
   39.0030   29.1800   44.0640 C   0  0  0  0  0  0  0  0  0  0  0  0
   38.8490   30.1390   45.0280 C   0  0  0  0  0  0  0  0  0  0  0  0
   39.2990   31.4320   44.9520 C   0  0  0  0  0  0  0  0  0  0  0  0
   35.6240   29.0160   49.6260 C   0  0  0  0  0  0  0  0  0  0  0  0
   35.6340   30.0180   48.6300 C   0  0  0  0  0  0  0  0  0  0  0  0
   34.5710   30.0380   47.7530 C   0  0  0  0  0  0  0  0  0  0  0  0
   33.5760   29.1180   47.8760 N   0  0  0  0  0  0  0  0  0  0  0  0
   33.5990   28.1780   48.8370 C   0  0  0  0  0  0  0  0  0  0  0  0
   34.6080   28.1240   49.7040 N   0  0  0  0  0  0  0  0  0  0  0  0
   36.8075   31.3929   50.7134 H   0  0  0  0  0  0  0  0  0  0  0  0
   38.7559   32.9182   50.3917 H   0  0  0  0  0  0  0  0  0  0  0  0
   40.6004   34.8905   44.5476 H   0  0  0  0  0  0  0  0  0  0  0  0
   40.6798   31.1085   41.8566 H   0  0  0  0  0  0  0  0  0  0  0  0
   39.8227   28.7771   42.0808 H   0  0  0  0  0  0  0  0  0  0  0  0
   38.6056   28.1654   44.2145 H   0  0  0  0  0  0  0  0  0  0  0  0
   38.3170   29.8466   45.9453 H   0  0  0  0  0  0  0  0  0  0  0  0
   36.4523   28.9597   50.3476 H   0  0  0  0  0  0  0  0  0  0  0  0
   34.5271   30.7952   46.9563 H   0  0  0  0  0  0  0  0  0  0  0  0
   32.7786   27.4486   48.9074 H   0  0  0  0  0  0  0  0  0  0  0  0
  1 18  1  0
  1  2  2  0
  3  2  1  0
  4  3  2  0
  5  6  2  0
  5  4  1  0
  6  1  1  0
  7  5  1  0
  8  7  2  0
  9  8  1  0
 10 11  1  0
 10  9  2  0
 11 16  2  0
 12 13  2  0
 12 11  1  0
 13 14  1  0
 14 15  2  0
 16 15  1  0
 16  7  1  0
 17 22  2  0
 18 17  1  0
 19 20  1  0
 19 18  2  0
 20 21  2  0
 21 22  1  0
  2 23  1  0
  3 24  1  0
  9 25  1  0
 12 26  1  0
 13 27  1  0
 14 28  1  0
 15 29  1  0
 17 30  1  0
 19 31  1  0
 21 32  1  0
M  ISO  8  23  14  24  14  25  14  26  14  27  14  28  14  29  14  30  14
M  ISO  2  31  14  32  14
M  END
>  <minimizedAffinity>  (1) 
-6.17437077

>  <minimizedRMSD>  (1) 
0.658950567

$$$$
