
     RDKit          3D

 31 33  0  0  0  0  0  0  0  0999 V2000
   36.9940   31.1730   48.4620 C   0  0  0  0  0  0  0  0  0  0  0  0
   37.3630   32.0100   49.4750 C   0  0  0  0  0  0  0  0  0  0  0  0
   38.4190   32.8790   49.2520 C   0  0  0  0  0  0  0  0  0  0  0  0
   39.0910   32.9400   48.0980 N   0  0  0  0  0  0  0  0  0  0  0  0
   38.6970   32.0860   47.0990 C   0  0  0  0  0  0  0  0  0  0  0  0
   37.6650   31.2340   47.3130 N   0  0  0  0  0  0  0  0  0  0  0  0
   39.3660   32.0840   45.8290 N   0  0  0  0  0  0  0  0  0  0  0  0
   40.5050   31.2130   45.6200 C   0  0  0  0  0  0  0  0  0  0  0  0
   40.7490   30.9380   44.1570 C   0  0  0  0  0  0  0  0  0  0  0  0
   39.6560   31.2900   43.3700 O   0  0  0  0  0  0  0  0  0  0  0  0
   39.5280   32.6740   43.4870 C   0  0  0  0  0  0  0  0  0  0  0  0
   38.8640   32.9680   44.7930 C   0  0  0  0  0  0  0  0  0  0  0  0
   35.9670   29.2770   49.6040 C   0  0  0  0  0  0  0  0  0  0  0  0
   35.9120   30.2190   48.5600 C   0  0  0  0  0  0  0  0  0  0  0  0
   34.8330   30.1710   47.7020 C   0  0  0  0  0  0  0  0  0  0  0  0
   33.8710   29.2290   47.8880 N   0  0  0  0  0  0  0  0  0  0  0  0
   33.9530   28.3290   48.9090 C   0  0  0  0  0  0  0  0  0  0  0  0
   34.9890   28.3560   49.7540 N   0  0  0  0  0  0  0  0  0  0  0  0
   36.8370   31.9951   50.4410 H   0  0  0  0  0  0  0  0  0  0  0  0
   38.7200   33.5537   50.0669 H   0  0  0  0  0  0  0  0  0  0  0  0
   41.3998   31.6913   46.0449 H   0  0  0  0  0  0  0  0  0  0  0  0
   40.2924   30.2534   46.1139 H   0  0  0  0  0  0  0  0  0  0  0  0
   41.6244   31.5172   43.8281 H   0  0  0  0  0  0  0  0  0  0  0  0
   40.9187   29.8577   44.0384 H   0  0  0  0  0  0  0  0  0  0  0  0
   40.5220   33.1444   43.4594 H   0  0  0  0  0  0  0  0  0  0  0  0
   38.9291   33.0738   42.6555 H   0  0  0  0  0  0  0  0  0  0  0  0
   39.0688   34.0109   45.0765 H   0  0  0  0  0  0  0  0  0  0  0  0
   37.7808   32.8101   44.6848 H   0  0  0  0  0  0  0  0  0  0  0  0
   36.8145   29.2903   50.3051 H   0  0  0  0  0  0  0  0  0  0  0  0
   34.7517   30.8898   46.8733 H   0  0  0  0  0  0  0  0  0  0  0  0
   33.1618   27.5758   49.0384 H   0  0  0  0  0  0  0  0  0  0  0  0
  1 14  1  0
  1  2  2  0
  3  2  1  0
  4  3  2  0
  5  6  2  0
  5  4  1  0
  6  1  1  0
  7  5  1  0
  8  7  1  0
  9  8  1  0
 10 11  1  0
 10  9  1  0
 11 12  1  0
 12  7  1  0
 13 18  2  0
 14 13  1  0
 15 16  1  0
 15 14  2  0
 16 17  2  0
 17 18  1  0
  2 19  1  0
  3 20  1  0
  8 21  1  0
  8 22  1  0
  9 23  1  0
  9 24  1  0
 11 25  1  0
 11 26  1  0
 12 27  1  0
 12 28  1  0
 13 29  1  0
 15 30  1  0
 17 31  1  0
M  ISO  8  19  14  20  14  21  13  22  13  23  13  24  13  25  13  26  13
M  ISO  5  27  13  28  13  29  14  30  14  31  14
M  END
>  <minimizedAffinity>  (1) 
-6.07372236

>  <minimizedRMSD>  (1) 
0.312523663

$$$$
