
     RDKit          3D

 25 26  0  0  0  0  0  0  0  0999 V2000
   37.0260   31.2540   48.5130 C   0  0  0  0  0  0  0  0  0  0  0  0
   37.4170   31.8900   49.6630 C   0  0  0  0  0  0  0  0  0  0  0  0
   38.4260   32.8310   49.5830 C   0  0  0  0  0  0  0  0  0  0  0  0
   39.0340   33.1450   48.4370 N   0  0  0  0  0  0  0  0  0  0  0  0
   38.6220   32.4950   47.3080 C   0  0  0  0  0  0  0  0  0  0  0  0
   37.6290   31.5620   47.3580 N   0  0  0  0  0  0  0  0  0  0  0  0
   39.2330   32.7920   46.0750 N   0  0  0  0  0  0  0  0  0  0  0  0
   38.5910   32.7070   44.8100 C   0  0  0  0  0  0  0  0  0  0  0  0
   37.3180   32.4240   44.7870 N   0  0  0  0  0  0  0  0  0  0  0  0
   39.3180   32.9260   43.5830 N   0  0  0  0  0  0  0  0  0  0  0  0
   36.8500   32.3630   43.8460 H   0  0  0  0  0  0  0  0  0  0  0  0
   35.9890   29.2550   49.4630 C   0  0  0  0  0  0  0  0  0  0  0  0
   35.9750   30.2470   48.4820 C   0  0  0  0  0  0  0  0  0  0  0  0
   34.9670   30.2140   47.5410 C   0  0  0  0  0  0  0  0  0  0  0  0
   34.0280   29.2370   47.5880 N   0  0  0  0  0  0  0  0  0  0  0  0
   34.0670   28.2800   48.5600 C   0  0  0  0  0  0  0  0  0  0  0  0
   35.0320   28.2890   49.4850 N   0  0  0  0  0  0  0  0  0  0  0  0
   36.9392   31.6569   50.6260 H   0  0  0  0  0  0  0  0  0  0  0  0
   38.7417   33.3434   50.5037 H   0  0  0  0  0  0  0  0  0  0  0  0
   40.2179   33.0931   46.0909 H   0  0  0  0  0  0  0  0  0  0  0  0
   38.8318   32.8592   42.6774 H   0  0  0  0  0  0  0  0  0  0  0  0
   40.3231   33.1491   43.6127 H   0  0  0  0  0  0  0  0  0  0  0  0
   36.7815   29.2542   50.2258 H   0  0  0  0  0  0  0  0  0  0  0  0
   34.9249   30.9800   46.7527 H   0  0  0  0  0  0  0  0  0  0  0  0
   33.2976   27.4942   48.5826 H   0  0  0  0  0  0  0  0  0  0  0  0
  1  2  2  0
  3  2  1  0
  4  3  2  0
  5  6  2  0
  5  4  1  0
  6  1  1  0
  7  5  1  0
  8  7  1  0
  9  8  2  0
 10  8  1  0
 11  9  1  0
 12 17  2  0
 13  1  1  0
 13 12  1  0
 14 15  1  0
 14 13  2  0
 15 16  2  0
 16 17  1  0
  2 18  1  0
  3 19  1  0
  7 20  1  0
 10 21  1  0
 10 22  1  0
 12 23  1  0
 14 24  1  0
 16 25  1  0
M  ISO  5  18  14  19  14  23  14  24  14  25  14
M  END
>  <minimizedAffinity>  (1) 
-6.05139494

>  <minimizedRMSD>  (1) 
0.43338725

$$$$
