
     RDKit          3D

 26 28  0  0  0  0  0  0  0  0999 V2000
   36.9210   31.2770   48.6640 C   0  0  0  0  0  0  0  0  0  0  0  0
   37.3840   32.1180   49.6470 C   0  0  0  0  0  0  0  0  0  0  0  0
   38.4430   32.9530   49.3310 C   0  0  0  0  0  0  0  0  0  0  0  0
   39.0330   32.9790   48.1210 N   0  0  0  0  0  0  0  0  0  0  0  0
   38.5380   32.1290   47.1810 C   0  0  0  0  0  0  0  0  0  0  0  0
   37.4920   31.2860   47.4500 N   0  0  0  0  0  0  0  0  0  0  0  0
   35.6790   29.7690   50.1320 C   0  0  0  0  0  0  0  0  0  0  0  0
   35.8180   30.3540   48.8630 C   0  0  0  0  0  0  0  0  0  0  0  0
   34.9000   30.0180   47.8890 C   0  0  0  0  0  0  0  0  0  0  0  0
   33.9070   29.1350   48.2080 N   0  0  0  0  0  0  0  0  0  0  0  0
   33.7940   28.5870   49.4320 C   0  0  0  0  0  0  0  0  0  0  0  0
   34.6800   28.9000   50.4040 N   0  0  0  0  0  0  0  0  0  0  0  0
   39.1100   32.0820   45.8360 C   0  0  0  0  0  0  0  0  0  0  0  0
   40.1760   31.2220   45.6030 C   0  0  0  0  0  0  0  0  0  0  0  0
   40.6700   31.2250   44.3120 C   0  0  0  0  0  0  0  0  0  0  0  0
   40.1810   31.9930   43.3200 N   0  0  0  0  0  0  0  0  0  0  0  0
   39.1390   32.8210   43.5790 C   0  0  0  0  0  0  0  0  0  0  0  0
   38.6540   32.8300   44.8140 N   0  0  0  0  0  0  0  0  0  0  0  0
   36.9300   32.1278   50.6489 H   0  0  0  0  0  0  0  0  0  0  0  0
   38.8221   33.6309   50.1099 H   0  0  0  0  0  0  0  0  0  0  0  0
   36.3997   30.0238   50.9230 H   0  0  0  0  0  0  0  0  0  0  0  0
   34.9660   30.4506   46.8798 H   0  0  0  0  0  0  0  0  0  0  0  0
   32.9770   27.8812   49.6425 H   0  0  0  0  0  0  0  0  0  0  0  0
   40.5981   30.5823   46.3921 H   0  0  0  0  0  0  0  0  0  0  0  0
   41.5145   30.5591   44.0809 H   0  0  0  0  0  0  0  0  0  0  0  0
   38.7113   33.4619   42.7939 H   0  0  0  0  0  0  0  0  0  0  0  0
  1  8  1  0
  1  2  2  0
  3  2  1  0
  4  3  2  0
  5  6  2  0
  5  4  1  0
  6  1  1  0
  7 12  2  0
  8  7  1  0
  9 10  1  0
  9  8  2  0
 10 11  2  0
 11 12  1  0
 13  5  1  0
 14 13  2  0
 15 14  1  0
 16 17  1  0
 16 15  2  0
 17 18  2  0
 18 13  1  0
  2 19  1  0
  3 20  1  0
  7 21  1  0
  9 22  1  0
 11 23  1  0
 14 24  1  0
 15 25  1  0
 17 26  1  0
M  ISO  8  19  14  20  14  21  14  22  14  23  14  24  14  25  14  26  14
M  END
>  <minimizedAffinity>  (1) 
-5.95148897

>  <minimizedRMSD>  (1) 
0.627088606

$$$$
