
     RDKit          3D

 21 22  0  0  0  0  0  0  0  0999 V2000
   37.0100   31.3260   48.5990 C   0  0  0  0  0  0  0  0  0  0  0  0
   37.2350   32.1210   49.6730 C   0  0  0  0  0  0  0  0  0  0  0  0
   38.2570   33.0580   49.5610 C   0  0  0  0  0  0  0  0  0  0  0  0
   39.0200   33.2080   48.4530 N   0  0  0  0  0  0  0  0  0  0  0  0
   38.7510   32.3890   47.4130 C   0  0  0  0  0  0  0  0  0  0  0  0
   37.7570   31.4570   47.4810 N   0  0  0  0  0  0  0  0  0  0  0  0
   36.0320   29.2800   49.5320 C   0  0  0  0  0  0  0  0  0  0  0  0
   35.9760   30.2980   48.5600 C   0  0  0  0  0  0  0  0  0  0  0  0
   34.9490   30.2550   47.6350 C   0  0  0  0  0  0  0  0  0  0  0  0
   34.0390   29.2590   47.6810 N   0  0  0  0  0  0  0  0  0  0  0  0
   34.1090   28.2830   48.6310 C   0  0  0  0  0  0  0  0  0  0  0  0
   35.1010   28.2950   49.5500 N   0  0  0  0  0  0  0  0  0  0  0  0
   39.5880   32.5510   46.1910 C   0  0  0  0  0  0  0  0  0  0  0  0
   40.4150   31.4850   45.9800 F   0  0  0  0  0  0  0  0  0  0  0  0
   38.7900   32.7800   45.0680 F   0  0  0  0  0  0  0  0  0  0  0  0
   40.3790   33.6850   46.3000 F   0  0  0  0  0  0  0  0  0  0  0  0
   36.6368   32.0296   50.5916 H   0  0  0  0  0  0  0  0  0  0  0  0
   38.4564   33.7140   50.4212 H   0  0  0  0  0  0  0  0  0  0  0  0
   36.8369   29.2844   50.2817 H   0  0  0  0  0  0  0  0  0  0  0  0
   34.8735   31.0330   46.8611 H   0  0  0  0  0  0  0  0  0  0  0  0
   33.3550   27.4823   48.6498 H   0  0  0  0  0  0  0  0  0  0  0  0
  1  2  2  0
  3  2  1  0
  4  3  2  0
  5  6  2  0
  5  4  1  0
  6  1  1  0
  7 12  2  0
  8  1  1  0
  8  7  1  0
  9 10  1  0
  9  8  2  0
 10 11  2  0
 11 12  1  0
 13 16  1  0
 13  5  1  0
 14 13  1  0
 15 13  1  0
  2 17  1  0
  3 18  1  0
  7 19  1  0
  9 20  1  0
 11 21  1  0
M  ISO  5  17  14  18  14  19  14  20  14  21  14
M  END
>  <minimizedAffinity>  (1) 
-5.63499308

>  <minimizedRMSD>  (1) 
0.484206885

$$$$
