
     RDKit          3D

 19 20  0  0  0  0  0  0  0  0999 V2000
   37.0080   31.2950   48.5520 C   0  0  0  0  0  0  0  0  0  0  0  0
   37.2620   32.0910   49.6290 C   0  0  0  0  0  0  0  0  0  0  0  0
   38.2870   33.0250   49.5160 C   0  0  0  0  0  0  0  0  0  0  0  0
   39.0180   33.1660   48.4080 N   0  0  0  0  0  0  0  0  0  0  0  0
   38.7330   32.3480   47.3450 C   0  0  0  0  0  0  0  0  0  0  0  0
   37.7360   31.4280   47.4310 N   0  0  0  0  0  0  0  0  0  0  0  0
   36.0150   29.2770   49.5090 C   0  0  0  0  0  0  0  0  0  0  0  0
   35.9640   30.2850   48.5490 C   0  0  0  0  0  0  0  0  0  0  0  0
   34.9120   30.2470   47.6550 C   0  0  0  0  0  0  0  0  0  0  0  0
   33.9860   29.2670   47.7290 N   0  0  0  0  0  0  0  0  0  0  0  0
   34.0680   28.2940   48.6840 C   0  0  0  0  0  0  0  0  0  0  0  0
   35.0830   28.2970   49.5760 N   0  0  0  0  0  0  0  0  0  0  0  0
   39.6370   32.4350   45.8030 S   0  0  0  0  0  0  0  0  0  0  0  0
   36.6767   31.9981   50.5557 H   0  0  0  0  0  0  0  0  0  0  0  0
   38.5043   33.6750   50.3764 H   0  0  0  0  0  0  0  0  0  0  0  0
   36.8398   29.2771   50.2368 H   0  0  0  0  0  0  0  0  0  0  0  0
   34.8279   31.0204   46.8773 H   0  0  0  0  0  0  0  0  0  0  0  0
   33.3039   27.5039   48.7272 H   0  0  0  0  0  0  0  0  0  0  0  0
   40.9755   32.5638   46.0650 H   0  0  0  0  0  0  0  0  0  0  0  0
  1  2  2  0
  3  2  1  0
  4  3  2  0
  5  6  2  0
  5  4  1  0
  6  1  1  0
  7 12  2  0
  8  1  1  0
  8  7  1  0
  9 10  1  0
  9  8  2  0
 10 11  2  0
 11 12  1  0
 13  5  1  0
  2 14  1  0
  3 15  1  0
  7 16  1  0
  9 17  1  0
 11 18  1  0
 13 19  1  0
M  ISO  6  14  14  15  14  16  14  17  14  18  14  19  11
M  END
>  <minimizedAffinity>  (1) 
-4.73875475

>  <minimizedRMSD>  (1) 
0.0611851923

$$$$
