
     RDKit          3D

 30 32  0  0  0  0  0  0  0  0999 V2000
   36.0890   30.1270   48.7370 C   0  0  0  0  0  0  0  0  0  0  0  0
   35.9670   29.3360   49.8860 C   0  0  0  0  0  0  0  0  0  0  0  0
   34.9750   28.3990   49.7000 C   0  0  0  0  0  0  0  0  0  0  0  0
   34.5150   28.6280   48.4650 N   0  0  0  0  0  0  0  0  0  0  0  0
   35.1620   29.6360   47.8960 N   0  0  0  0  0  0  0  0  0  0  0  0
   38.0820   33.1740   49.3850 C   0  0  0  0  0  0  0  0  0  0  0  0
   39.0130   33.0990   48.3370 C   0  0  0  0  0  0  0  0  0  0  0  0
   38.9250   32.0170   47.4570 C   0  0  0  0  0  0  0  0  0  0  0  0
   37.9380   31.0890   47.6590 N   0  0  0  0  0  0  0  0  0  0  0  0
   37.0710   31.1990   48.6710 C   0  0  0  0  0  0  0  0  0  0  0  0
   37.1280   32.2310   49.5380 N   0  0  0  0  0  0  0  0  0  0  0  0
   33.4570   27.9080   47.7810 C   0  0  0  0  0  0  0  0  0  0  0  0
   32.3010   27.8560   48.7780 C   0  0  0  0  0  0  0  0  0  0  0  0
   31.4380   26.7810   48.1750 C   0  0  0  0  0  0  0  0  0  0  0  0
   32.3800   25.8240   47.4890 C   0  0  0  0  0  0  0  0  0  0  0  0
   33.7680   26.4640   47.5870 C   0  0  0  0  0  0  0  0  0  0  0  0
   36.5715   29.4463   50.7984 H   0  0  0  0  0  0  0  0  0  0  0  0
   34.6356   27.6311   50.4107 H   0  0  0  0  0  0  0  0  0  0  0  0
   38.1305   34.0146   50.0929 H   0  0  0  0  0  0  0  0  0  0  0  0
   39.7886   33.8689   48.2122 H   0  0  0  0  0  0  0  0  0  0  0  0
   39.6323   31.9129   46.6210 H   0  0  0  0  0  0  0  0  0  0  0  0
   33.2808   28.4015   46.8138 H   0  0  0  0  0  0  0  0  0  0  0  0
   32.6489   27.5761   49.7833 H   0  0  0  0  0  0  0  0  0  0  0  0
   31.7870   28.8179   48.9216 H   0  0  0  0  0  0  0  0  0  0  0  0
   30.8710   26.2609   48.9611 H   0  0  0  0  0  0  0  0  0  0  0  0
   30.7074   27.2015   47.4683 H   0  0  0  0  0  0  0  0  0  0  0  0
   32.0923   25.6922   46.4355 H   0  0  0  0  0  0  0  0  0  0  0  0
   32.3586   24.8288   47.9572 H   0  0  0  0  0  0  0  0  0  0  0  0
   34.3295   26.0618   48.4432 H   0  0  0  0  0  0  0  0  0  0  0  0
   34.3983   26.2703   46.7065 H   0  0  0  0  0  0  0  0  0  0  0  0
  1  2  1  0
  3  2  2  0
  4  3  1  0
  5  4  1  0
  5  1  2  0
  6 11  2  0
  7  6  1  0
  8  9  1  0
  8  7  2  0
  9 10  2  0
 10  1  1  0
 10 11  1  0
 12  4  1  0
 12 13  1  0
 14 13  1  0
 15 16  1  0
 15 14  1  0
 16 12  1  0
  2 17  1  0
  3 18  1  0
  6 19  1  0
  7 20  1  0
  8 21  1  0
 12 22  1  0
 13 23  1  0
 13 24  1  0
 14 25  1  0
 14 26  1  0
 15 27  1  0
 15 28  1  0
 16 29  1  0
 16 30  1  0
M  ISO  8  17  14  18  14  19  14  20  14  21  14  22  13  23  13  24  13
M  ISO  6  25  13  26  13  27  13  28  13  29  13  30  13
M  END
>  <minimizedAffinity>  (1) 
-5.08620167

>  <minimizedRMSD>  (1) 
1.36520898

$$$$
