
     RDKit          3D

 24 26  0  0  0  0  0  0  0  0999 V2000
   36.9460   31.2670   48.6410 C   0  0  0  0  0  0  0  0  0  0  0  0
   37.1490   32.1360   49.6910 C   0  0  0  0  0  0  0  0  0  0  0  0
   38.1960   33.0550   49.5460 C   0  0  0  0  0  0  0  0  0  0  0  0
   38.9840   33.1190   48.4600 N   0  0  0  0  0  0  0  0  0  0  0  0
   38.7370   32.2410   47.4630 C   0  0  0  0  0  0  0  0  0  0  0  0
   37.7300   31.3250   47.5510 N   0  0  0  0  0  0  0  0  0  0  0  0
   39.5500   32.2730   46.2860 N   0  0  0  0  0  0  0  0  0  0  0  0
   39.9790   33.2160   45.4310 C   0  0  0  0  0  0  0  0  0  0  0  0
   40.7380   32.6030   44.4970 N   0  0  0  0  0  0  0  0  0  0  0  0
   40.7600   31.2750   44.8020 C   0  0  0  0  0  0  0  0  0  0  0  0
   40.0150   31.0670   45.9250 N   0  0  0  0  0  0  0  0  0  0  0  0
   35.9070   29.3150   49.6710 C   0  0  0  0  0  0  0  0  0  0  0  0
   35.9000   30.2660   48.6590 C   0  0  0  0  0  0  0  0  0  0  0  0
   34.8770   30.2010   47.7120 C   0  0  0  0  0  0  0  0  0  0  0  0
   33.9460   29.2150   47.8300 N   0  0  0  0  0  0  0  0  0  0  0  0
   33.9810   28.3000   48.8310 C   0  0  0  0  0  0  0  0  0  0  0  0
   34.9660   28.3500   49.7570 N   0  0  0  0  0  0  0  0  0  0  0  0
   36.5223   32.1094   50.5947 H   0  0  0  0  0  0  0  0  0  0  0  0
   38.3833   33.7633   50.3665 H   0  0  0  0  0  0  0  0  0  0  0  0
   39.7533   34.2914   45.4822 H   0  0  0  0  0  0  0  0  0  0  0  0
   41.2922   30.4973   44.2346 H   0  0  0  0  0  0  0  0  0  0  0  0
   36.7051   29.3488   50.4273 H   0  0  0  0  0  0  0  0  0  0  0  0
   34.8242   30.9295   46.8895 H   0  0  0  0  0  0  0  0  0  0  0  0
   33.2093   27.5183   48.8896 H   0  0  0  0  0  0  0  0  0  0  0  0
  1 13  1  0
  1  2  2  0
  3  2  1  0
  4  3  2  0
  5  6  2  0
  5  4  1  0
  6  1  1  0
  7  5  1  0
  8  7  1  0
  9 10  1  0
  9  8  2  0
 10 11  2  0
 11  7  1  0
 12 17  2  0
 13 12  1  0
 14 15  1  0
 14 13  2  0
 15 16  2  0
 16 17  1  0
  2 18  1  0
  3 19  1  0
  8 20  1  0
 10 21  1  0
 12 22  1  0
 14 23  1  0
 16 24  1  0
M  ISO  7  18  14  19  14  20  14  21  14  22  14  23  14  24  14
M  END
>  <minimizedAffinity>  (1) 
-6.13635254

>  <minimizedRMSD>  (1) 
0.170545384

$$$$
