
     RDKit          3D

 31 34  0  0  0  0  0  0  0  0999 V2000
   36.8000   31.1990   48.5660 C   0  0  0  0  0  0  0  0  0  0  0  0
   37.0020   31.9350   49.7160 C   0  0  0  0  0  0  0  0  0  0  0  0
   38.1020   32.7920   49.7180 C   0  0  0  0  0  0  0  0  0  0  0  0
   38.9400   32.9230   48.6800 N   0  0  0  0  0  0  0  0  0  0  0  0
   38.6940   32.1780   47.5800 C   0  0  0  0  0  0  0  0  0  0  0  0
   37.6370   31.3330   47.5350 N   0  0  0  0  0  0  0  0  0  0  0  0
   39.5630   32.2900   46.4550 N   0  0  0  0  0  0  0  0  0  0  0  0
   40.0880   33.2830   45.7320 C   0  0  0  0  0  0  0  0  0  0  0  0
   40.8570   32.7220   44.7700 N   0  0  0  0  0  0  0  0  0  0  0  0
   40.7850   31.3700   44.9300 C   0  0  0  0  0  0  0  0  0  0  0  0
   39.9720   31.0970   45.9890 N   0  0  0  0  0  0  0  0  0  0  0  0
   35.4240   29.4050   49.4840 C   0  0  0  0  0  0  0  0  0  0  0  0
   35.6990   30.2750   48.4340 C   0  0  0  0  0  0  0  0  0  0  0  0
   34.8810   30.1970   47.3030 C   0  0  0  0  0  0  0  0  0  0  0  0
   33.8720   29.2870   47.2900 N   0  0  0  0  0  0  0  0  0  0  0  0
   33.6290   28.4530   48.3270 C   0  0  0  0  0  0  0  0  0  0  0  0
   34.4040   28.5120   49.4250 N   0  0  0  0  0  0  0  0  0  0  0  0
   32.5700   27.5000   48.3090 N   0  0  0  0  0  0  0  0  0  0  0  0
   32.6330   26.2980   47.7630 N   0  0  0  0  0  0  0  0  0  0  0  0
   31.4340   25.7120   47.9570 C   0  0  0  0  0  0  0  0  0  0  0  0
   30.5720   26.5640   48.6510 C   0  0  0  0  0  0  0  0  0  0  0  0
   31.3560   27.6820   48.8430 C   0  0  0  0  0  0  0  0  0  0  0  0
   36.3316   31.8501   50.5839 H   0  0  0  0  0  0  0  0  0  0  0  0
   38.2922   33.3927   50.6196 H   0  0  0  0  0  0  0  0  0  0  0  0
   39.9251   34.3594   45.8897 H   0  0  0  0  0  0  0  0  0  0  0  0
   41.2985   30.6228   44.3070 H   0  0  0  0  0  0  0  0  0  0  0  0
   36.0508   29.4420   50.3872 H   0  0  0  0  0  0  0  0  0  0  0  0
   35.0508   30.8589   46.4410 H   0  0  0  0  0  0  0  0  0  0  0  0
   31.1706   24.7002   47.6150 H   0  0  0  0  0  0  0  0  0  0  0  0
   29.5324   26.3880   48.9646 H   0  0  0  0  0  0  0  0  0  0  0  0
   31.0297   28.5953   49.3621 H   0  0  0  0  0  0  0  0  0  0  0  0
  1  2  2  0
  2  3  1  0
  4  3  2  0
  5  4  1  0
  6  5  2  0
  6  1  1  0
  7  5  1  0
  8  7  1  0
  9 10  1  0
  9  8  2  0
 10 11  2  0
 11  7  1  0
 13  1  1  0
 13 12  2  0
 14 13  1  0
 15 14  2  0
 15 16  1  0
 16 17  2  0
 17 12  1  0
 18 16  1  0
 18 22  1  0
 19 20  2  0
 19 18  1  0
 20 21  1  0
 21 22  2  0
  2 23  1  0
  3 24  1  0
  8 25  1  0
 10 26  1  0
 12 27  1  0
 14 28  1  0
 20 29  1  0
 21 30  1  0
 22 31  1  0
M  ISO  8  23  14  24  14  25  14  26  14  27  14  28  14  29  14  30  14
M  ISO  1  31  14
M  END
>  <minimizedAffinity>  (1) 
-6.94777918

>  <minimizedRMSD>  (1) 
0.56557852

$$$$
