
     RDKit          3D

 37 40  0  0  0  0  0  0  0  0999 V2000
   36.9400   31.2600   48.5910 C   0  0  0  0  0  0  0  0  0  0  0  0
   37.1200   32.0820   49.6830 C   0  0  0  0  0  0  0  0  0  0  0  0
   38.1730   33.0100   49.6080 C   0  0  0  0  0  0  0  0  0  0  0  0
   38.9840   33.1180   48.5450 N   0  0  0  0  0  0  0  0  0  0  0  0
   38.7640   32.2850   47.4990 C   0  0  0  0  0  0  0  0  0  0  0  0
   37.7560   31.3710   47.5260 N   0  0  0  0  0  0  0  0  0  0  0  0
   39.6100   32.3770   46.3550 N   0  0  0  0  0  0  0  0  0  0  0  0
   40.0710   33.3420   45.5550 C   0  0  0  0  0  0  0  0  0  0  0  0
   40.8540   32.7740   44.6230 N   0  0  0  0  0  0  0  0  0  0  0  0
   40.8640   31.4240   44.8710 C   0  0  0  0  0  0  0  0  0  0  0  0
   40.0850   31.1860   45.9530 N   0  0  0  0  0  0  0  0  0  0  0  0
   35.9230   29.2270   49.4430 C   0  0  0  0  0  0  0  0  0  0  0  0
   35.9000   30.2650   48.5350 C   0  0  0  0  0  0  0  0  0  0  0  0
   34.8630   30.2820   47.6150 C   0  0  0  0  0  0  0  0  0  0  0  0
   33.9310   29.2890   47.6500 N   0  0  0  0  0  0  0  0  0  0  0  0
   33.9800   28.2870   48.5500 C   0  0  0  0  0  0  0  0  0  0  0  0
   34.9830   28.2520   49.4570 N   0  0  0  0  0  0  0  0  0  0  0  0
   32.9630   27.2210   48.5740 C   0  0  0  0  0  0  0  0  0  0  0  0
   33.1100   26.1990   47.5000 C   0  0  0  0  0  0  0  0  0  0  0  0
   31.7780   25.4780   47.5430 C   0  0  0  0  0  0  0  0  0  0  0  0
   30.7850   26.4490   48.1260 C   0  0  0  0  0  0  0  0  0  0  0  0
   31.5620   27.7460   48.3560 C   0  0  0  0  0  0  0  0  0  0  0  0
   36.4717   32.0149   50.5691 H   0  0  0  0  0  0  0  0  0  0  0  0
   38.3403   33.6810   50.4634 H   0  0  0  0  0  0  0  0  0  0  0  0
   39.8482   34.4155   45.6439 H   0  0  0  0  0  0  0  0  0  0  0  0
   41.4106   30.6660   44.2908 H   0  0  0  0  0  0  0  0  0  0  0  0
   36.7354   29.1896   50.1837 H   0  0  0  0  0  0  0  0  0  0  0  0
   34.7937   31.0859   46.8674 H   0  0  0  0  0  0  0  0  0  0  0  0
   33.1190   26.7854   49.5720 H   0  0  0  0  0  0  0  0  0  0  0  0
   33.9406   25.5114   47.7175 H   0  0  0  0  0  0  0  0  0  0  0  0
   33.3416   26.6305   46.5150 H   0  0  0  0  0  0  0  0  0  0  0  0
   31.4717   25.1846   46.5281 H   0  0  0  0  0  0  0  0  0  0  0  0
   31.8409   24.5617   48.1483 H   0  0  0  0  0  0  0  0  0  0  0  0
   29.9557   26.6180   47.4234 H   0  0  0  0  0  0  0  0  0  0  0  0
   30.3443   26.0684   49.0592 H   0  0  0  0  0  0  0  0  0  0  0  0
   31.5120   28.4060   47.4774 H   0  0  0  0  0  0  0  0  0  0  0  0
   31.1779   28.3589   49.1847 H   0  0  0  0  0  0  0  0  0  0  0  0
  1  2  2  0
  3  2  1  0
  4  3  2  0
  5  6  2  0
  5  4  1  0
  6  1  1  0
  7  5  1  0
  8  7  1  0
  9 10  1  0
  9  8  2  0
 10 11  2  0
 11  7  1  0
 12 17  2  0
 13  1  1  0
 13 12  1  0
 14 15  1  0
 14 13  2  0
 15 16  2  0
 16 18  1  0
 16 17  1  0
 19 20  1  0
 19 18  1  0
 20 21  1  0
 21 22  1  0
 22 18  1  0
  2 23  1  0
  3 24  1  0
  8 25  1  0
 10 26  1  0
 12 27  1  0
 14 28  1  0
 18 29  1  0
 19 30  1  0
 19 31  1  0
 20 32  1  0
 20 33  1  0
 21 34  1  0
 21 35  1  0
 22 36  1  0
 22 37  1  0
M  ISO  8  23  14  24  14  25  14  26  14  27  14  28  14  29  13  30  13
M  ISO  7  31  13  32  13  33  13  34  13  35  13  36  13  37  13
M  END
>  <minimizedAffinity>  (1) 
-6.84549856

>  <minimizedRMSD>  (1) 
0.596425176

$$$$
