
     RDKit          3D

 31 34  0  0  0  0  0  0  0  0999 V2000
   36.8900   31.3750   48.6580 C   0  0  0  0  0  0  0  0  0  0  0  0
   37.1150   32.1710   49.7480 C   0  0  0  0  0  0  0  0  0  0  0  0
   38.2140   33.0420   49.6850 C   0  0  0  0  0  0  0  0  0  0  0  0
   39.0260   33.1100   48.6140 N   0  0  0  0  0  0  0  0  0  0  0  0
   38.7640   32.3080   47.5690 C   0  0  0  0  0  0  0  0  0  0  0  0
   37.7080   31.4530   47.5950 N   0  0  0  0  0  0  0  0  0  0  0  0
   39.6050   32.3520   46.4140 N   0  0  0  0  0  0  0  0  0  0  0  0
   40.0970   33.3150   45.6190 C   0  0  0  0  0  0  0  0  0  0  0  0
   40.8480   32.7060   44.6690 N   0  0  0  0  0  0  0  0  0  0  0  0
   40.7960   31.3710   44.9100 C   0  0  0  0  0  0  0  0  0  0  0  0
   40.0150   31.1550   46.0060 N   0  0  0  0  0  0  0  0  0  0  0  0
   35.4670   29.7130   49.7400 C   0  0  0  0  0  0  0  0  0  0  0  0
   35.7910   30.4340   48.5940 C   0  0  0  0  0  0  0  0  0  0  0  0
   35.0330   30.2010   47.4580 C   0  0  0  0  0  0  0  0  0  0  0  0
   34.0240   29.2890   47.5200 N   0  0  0  0  0  0  0  0  0  0  0  0
   33.7320   28.6050   48.6430 C   0  0  0  0  0  0  0  0  0  0  0  0
   34.4580   28.8150   49.7710 N   0  0  0  0  0  0  0  0  0  0  0  0
   32.6140   27.6640   48.5370 C   0  0  0  0  0  0  0  0  0  0  0  0
   32.6790   26.5010   47.8020 C   0  0  0  0  0  0  0  0  0  0  0  0
   31.4930   25.8320   47.8910 C   0  0  0  0  0  0  0  0  0  0  0  0
   30.7160   26.5920   48.6790 N   0  0  0  0  0  0  0  0  0  0  0  0
   31.3640   27.6970   49.0810 N   0  0  0  0  0  0  0  0  0  0  0  0
   36.4640   32.1302   50.6337 H   0  0  0  0  0  0  0  0  0  0  0  0
   38.4198   33.6953   50.5457 H   0  0  0  0  0  0  0  0  0  0  0  0
   39.9232   34.3965   45.7196 H   0  0  0  0  0  0  0  0  0  0  0  0
   41.3005   30.5926   44.3188 H   0  0  0  0  0  0  0  0  0  0  0  0
   36.0546   29.8807   50.6547 H   0  0  0  0  0  0  0  0  0  0  0  0
   35.2424   30.7425   46.5237 H   0  0  0  0  0  0  0  0  0  0  0  0
   33.5551   26.1624   47.2294 H   0  0  0  0  0  0  0  0  0  0  0  0
   31.2298   24.8744   47.4180 H   0  0  0  0  0  0  0  0  0  0  0  0
   29.7479   26.3577   48.9413 H   0  0  0  0  0  0  0  0  0  0  0  0
  1  2  2  0
  3  2  1  0
  4  3  2  0
  5  6  2  0
  5  4  1  0
  6  1  1  0
  7  5  1  0
  8  7  1  0
  9 10  1  0
  9  8  2  0
 10 11  2  0
 11  7  1  0
 12 17  2  0
 13  1  1  0
 13 12  1  0
 14 15  1  0
 14 13  2  0
 15 16  2  0
 16 17  1  0
 18 16  1  0
 18 22  2  0
 19 20  2  0
 19 18  1  0
 20 21  1  0
 21 22  1  0
  2 23  1  0
  3 24  1  0
  8 25  1  0
 10 26  1  0
 12 27  1  0
 14 28  1  0
 19 29  1  0
 20 30  1  0
 21 31  1  0
M  ISO  8  23  14  24  14  25  14  26  14  27  14  28  14  29  14  30  14
M  ISO  1  31   9
M  END
>  <minimizedAffinity>  (1) 
-6.77093124

>  <minimizedRMSD>  (1) 
0.444667071

$$$$
