
     RDKit          3D

 31 34  0  0  0  0  0  0  0  0999 V2000
   36.8460   31.1780   48.5980 C   0  0  0  0  0  0  0  0  0  0  0  0
   37.0400   31.9370   49.7380 C   0  0  0  0  0  0  0  0  0  0  0  0
   38.1260   32.8120   49.7180 C   0  0  0  0  0  0  0  0  0  0  0  0
   38.9620   32.9460   48.6730 N   0  0  0  0  0  0  0  0  0  0  0  0
   38.7170   32.1760   47.5900 C   0  0  0  0  0  0  0  0  0  0  0  0
   37.6690   31.3020   47.5560 N   0  0  0  0  0  0  0  0  0  0  0  0
   39.5820   32.2860   46.4580 N   0  0  0  0  0  0  0  0  0  0  0  0
   40.0940   33.2930   45.7260 C   0  0  0  0  0  0  0  0  0  0  0  0
   40.8610   32.7240   44.7660 N   0  0  0  0  0  0  0  0  0  0  0  0
   40.8050   31.3820   44.9270 C   0  0  0  0  0  0  0  0  0  0  0  0
   40.0010   31.1100   45.9910 N   0  0  0  0  0  0  0  0  0  0  0  0
   35.7160   29.1570   49.3550 C   0  0  0  0  0  0  0  0  0  0  0  0
   35.7600   30.2300   48.4840 C   0  0  0  0  0  0  0  0  0  0  0  0
   34.7390   30.3390   47.5330 C   0  0  0  0  0  0  0  0  0  0  0  0
   33.7640   29.3770   47.5260 N   0  0  0  0  0  0  0  0  0  0  0  0
   33.7600   28.3400   48.4000 C   0  0  0  0  0  0  0  0  0  0  0  0
   34.7400   28.2280   49.3190 N   0  0  0  0  0  0  0  0  0  0  0  0
   32.6710   27.3840   48.2910 C   0  0  0  0  0  0  0  0  0  0  0  0
   32.5440   26.1570   47.6800 C   0  0  0  0  0  0  0  0  0  0  0  0
   31.2520   25.7360   47.9350 C   0  0  0  0  0  0  0  0  0  0  0  0
   30.6410   26.7160   48.6880 C   0  0  0  0  0  0  0  0  0  0  0  0
   31.5280   27.6730   48.8730 O   0  0  0  0  0  0  0  0  0  0  0  0
   36.3755   31.8552   50.6108 H   0  0  0  0  0  0  0  0  0  0  0  0
   38.3096   33.4291   50.6099 H   0  0  0  0  0  0  0  0  0  0  0  0
   39.9227   34.3689   45.8781 H   0  0  0  0  0  0  0  0  0  0  0  0
   41.3215   30.6371   44.3038 H   0  0  0  0  0  0  0  0  0  0  0  0
   36.5108   29.0573   50.1089 H   0  0  0  0  0  0  0  0  0  0  0  0
   34.7201   31.1711   46.8138 H   0  0  0  0  0  0  0  0  0  0  0  0
   33.3138   25.6206   47.1058 H   0  0  0  0  0  0  0  0  0  0  0  0
   30.7958   24.7931   47.5991 H   0  0  0  0  0  0  0  0  0  0  0  0
   29.6073   26.7018   49.0638 H   0  0  0  0  0  0  0  0  0  0  0  0
  1  2  2  0
  3  2  1  0
  4  3  2  0
  5  4  1  0
  6  5  2  0
  6  1  1  0
  7  5  1  0
  8  7  1  0
  9 10  1  0
  9  8  2  0
 10 11  2  0
 11  7  1  0
 13  1  1  0
 13 12  2  0
 14 13  1  0
 15 14  2  0
 15 16  1  0
 16 17  2  0
 17 12  1  0
 18 16  1  0
 18 22  1  0
 19 20  1  0
 19 18  2  0
 20 21  2  0
 21 22  1  0
  2 23  1  0
  3 24  1  0
  8 25  1  0
 10 26  1  0
 12 27  1  0
 14 28  1  0
 19 29  1  0
 20 30  1  0
 21 31  1  0
M  ISO  8  23  14  24  14  25  14  26  14  27  14  28  14  29  14  30  14
M  ISO  1  31  14
M  END
>  <minimizedAffinity>  (1) 
-6.74828672

>  <minimizedRMSD>  (1) 
0.443297803

$$$$
