
     RDKit          3D

 34 37  0  0  0  0  0  0  0  0999 V2000
   35.7190   29.1800   49.2720 C   0  0  0  0  0  0  0  0  0  0  0  0
   35.7770   30.2710   48.4230 C   0  0  0  0  0  0  0  0  0  0  0  0
   34.7710   30.3910   47.4770 C   0  0  0  0  0  0  0  0  0  0  0  0
   33.7920   29.4490   47.4290 N   0  0  0  0  0  0  0  0  0  0  0  0
   33.7660   28.3860   48.2830 C   0  0  0  0  0  0  0  0  0  0  0  0
   34.7330   28.2550   49.2050 N   0  0  0  0  0  0  0  0  0  0  0  0
   36.8710   31.2070   48.5710 C   0  0  0  0  0  0  0  0  0  0  0  0
   37.0630   31.9320   49.7240 C   0  0  0  0  0  0  0  0  0  0  0  0
   38.1640   32.8000   49.7210 C   0  0  0  0  0  0  0  0  0  0  0  0
   39.0020   32.9420   48.6810 N   0  0  0  0  0  0  0  0  0  0  0  0
   38.7580   32.2010   47.5810 C   0  0  0  0  0  0  0  0  0  0  0  0
   37.7040   31.3400   47.5200 N   0  0  0  0  0  0  0  0  0  0  0  0
   39.6220   32.3220   46.4560 N   0  0  0  0  0  0  0  0  0  0  0  0
   40.1310   33.3400   45.7240 C   0  0  0  0  0  0  0  0  0  0  0  0
   40.9100   32.7810   44.7620 N   0  0  0  0  0  0  0  0  0  0  0  0
   40.8640   31.4380   44.9200 C   0  0  0  0  0  0  0  0  0  0  0  0
   40.0570   31.1400   45.9830 N   0  0  0  0  0  0  0  0  0  0  0  0
   32.6940   27.4000   48.1950 C   0  0  0  0  0  0  0  0  0  0  0  0
   32.9430   26.1860   47.5750 C   0  0  0  0  0  0  0  0  0  0  0  0
   31.9230   25.2570   47.4950 C   0  0  0  0  0  0  0  0  0  0  0  0
   30.6940   25.5500   48.0260 C   0  0  0  0  0  0  0  0  0  0  0  0
   30.4210   26.7510   48.6470 C   0  0  0  0  0  0  0  0  0  0  0  0
   31.4450   27.6640   48.7190 C   0  0  0  0  0  0  0  0  0  0  0  0
   36.5054   29.0595   50.0316 H   0  0  0  0  0  0  0  0  0  0  0  0
   34.7649   31.2373   46.7744 H   0  0  0  0  0  0  0  0  0  0  0  0
   36.3953   31.8369   50.5930 H   0  0  0  0  0  0  0  0  0  0  0  0
   38.3526   33.4000   50.6234 H   0  0  0  0  0  0  0  0  0  0  0  0
   39.9489   34.4138   45.8784 H   0  0  0  0  0  0  0  0  0  0  0  0
   41.3913   30.7034   44.2936 H   0  0  0  0  0  0  0  0  0  0  0  0
   33.9350   25.9656   47.1539 H   0  0  0  0  0  0  0  0  0  0  0  0
   32.0968   24.2865   47.0072 H   0  0  0  0  0  0  0  0  0  0  0  0
   29.8942   24.7982   47.9542 H   0  0  0  0  0  0  0  0  0  0  0  0
   29.4274   26.9681   49.0660 H   0  0  0  0  0  0  0  0  0  0  0  0
   31.2642   28.6326   49.2080 H   0  0  0  0  0  0  0  0  0  0  0  0
  2  7  1  0
  2  1  2  0
  3  2  1  0
  4  3  2  0
  4  5  1  0
  5  6  2  0
  6  1  1  0
  7  8  2  0
  9  8  1  0
 10  9  2  0
 11 10  1  0
 12 11  2  0
 12  7  1  0
 13 11  1  0
 14 13  1  0
 15 16  1  0
 15 14  2  0
 16 17  2  0
 17 13  1  0
 18  5  1  0
 18 23  1  0
 19 18  2  0
 20 19  1  0
 20 21  2  0
 21 22  1  0
 22 23  2  0
  1 24  1  0
  3 25  1  0
  8 26  1  0
  9 27  1  0
 14 28  1  0
 16 29  1  0
 19 30  1  0
 20 31  1  0
 21 32  1  0
 22 33  1  0
 23 34  1  0
M  ISO  8  24  14  25  14  26  14  27  14  28  14  29  14  30  14  31  14
M  ISO  3  32  14  33  14  34  14
M  END
>  <minimizedAffinity>  (1) 
-6.50149155

>  <minimizedRMSD>  (1) 
0.604985595

$$$$
