
     RDKit          3D

 32 35  0  0  0  0  0  0  0  0999 V2000
   36.8820   31.3860   48.6150 C   0  0  0  0  0  0  0  0  0  0  0  0
   37.0990   32.1690   49.7200 C   0  0  0  0  0  0  0  0  0  0  0  0
   38.2070   33.0240   49.6710 C   0  0  0  0  0  0  0  0  0  0  0  0
   39.0360   33.1070   48.6180 N   0  0  0  0  0  0  0  0  0  0  0  0
   38.7780   32.3170   47.5540 C   0  0  0  0  0  0  0  0  0  0  0  0
   37.7120   31.4620   47.5490 N   0  0  0  0  0  0  0  0  0  0  0  0
   39.6310   32.3660   46.4080 N   0  0  0  0  0  0  0  0  0  0  0  0
   40.1370   33.3390   45.6430 C   0  0  0  0  0  0  0  0  0  0  0  0
   40.8890   32.7390   44.6860 N   0  0  0  0  0  0  0  0  0  0  0  0
   40.8200   31.3940   44.8980 C   0  0  0  0  0  0  0  0  0  0  0  0
   40.0260   31.1730   45.9830 N   0  0  0  0  0  0  0  0  0  0  0  0
   35.2030   30.0120   49.7190 C   0  0  0  0  0  0  0  0  0  0  0  0
   35.7730   30.4540   48.5290 C   0  0  0  0  0  0  0  0  0  0  0  0
   35.2510   29.9820   47.3290 C   0  0  0  0  0  0  0  0  0  0  0  0
   34.2070   29.1090   47.3810 N   0  0  0  0  0  0  0  0  0  0  0  0
   33.6640   28.6890   48.5450 C   0  0  0  0  0  0  0  0  0  0  0  0
   34.1630   29.1420   49.7120 N   0  0  0  0  0  0  0  0  0  0  0  0
   32.5470   27.7520   48.4970 C   0  0  0  0  0  0  0  0  0  0  0  0
   32.6220   26.6030   47.7390 C   0  0  0  0  0  0  0  0  0  0  0  0
   31.4910   25.8000   47.7820 C   0  0  0  0  0  0  0  0  0  0  0  0
   30.3990   26.1090   48.5040 N   0  0  0  0  0  0  0  0  0  0  0  0
   30.3630   27.2350   49.2280 C   0  0  0  0  0  0  0  0  0  0  0  0
   31.4490   28.0620   49.2230 N   0  0  0  0  0  0  0  0  0  0  0  0
   36.4378   32.1276   50.5981 H   0  0  0  0  0  0  0  0  0  0  0  0
   38.4094   33.6629   50.5433 H   0  0  0  0  0  0  0  0  0  0  0  0
   39.9746   34.4200   45.7660 H   0  0  0  0  0  0  0  0  0  0  0  0
   41.3195   30.6202   44.2965 H   0  0  0  0  0  0  0  0  0  0  0  0
   35.6016   30.3733   50.6785 H   0  0  0  0  0  0  0  0  0  0  0  0
   35.6700   30.3050   46.3646 H   0  0  0  0  0  0  0  0  0  0  0  0
   33.5106   26.3425   47.1453 H   0  0  0  0  0  0  0  0  0  0  0  0
   31.4874   24.8675   47.1985 H   0  0  0  0  0  0  0  0  0  0  0  0
   29.4707   27.4899   49.8185 H   0  0  0  0  0  0  0  0  0  0  0  0
  1  2  2  0
  3  2  1  0
  4  3  2  0
  5  4  1  0
  6  5  2  0
  6  1  1  0
  7  5  1  0
  8  7  1  0
  9 10  1  0
  9  8  2  0
 10 11  2  0
 11  7  1  0
 13  1  1  0
 13 12  2  0
 14 15  2  0
 14 13  1  0
 15 16  1  0
 16 17  2  0
 17 12  1  0
 18 16  1  0
 18 23  2  0
 19 20  2  0
 19 18  1  0
 20 21  1  0
 21 22  2  0
 23 22  1  0
  2 24  1  0
  3 25  1  0
  8 26  1  0
 10 27  1  0
 12 28  1  0
 14 29  1  0
 19 30  1  0
 20 31  1  0
 22 32  1  0
M  ISO  8  24  14  25  14  26  14  27  14  28  14  29  14  30  14  31  14
M  ISO  1  32  14
M  END
>  <minimizedAffinity>  (1) 
-6.49579954

>  <minimizedRMSD>  (1) 
0.704586565

$$$$
