
     RDKit          3D

 27 29  0  0  0  0  0  0  0  0999 V2000
   36.8580   31.3770   48.6410 C   0  0  0  0  0  0  0  0  0  0  0  0
   37.1000   32.1730   49.7340 C   0  0  0  0  0  0  0  0  0  0  0  0
   38.2070   33.0250   49.6560 C   0  0  0  0  0  0  0  0  0  0  0  0
   39.0150   33.0880   48.5850 N   0  0  0  0  0  0  0  0  0  0  0  0
   38.7260   32.2790   47.5390 C   0  0  0  0  0  0  0  0  0  0  0  0
   37.6590   31.4280   47.5560 N   0  0  0  0  0  0  0  0  0  0  0  0
   39.5630   32.3160   46.3740 N   0  0  0  0  0  0  0  0  0  0  0  0
   40.0680   33.2680   45.5800 C   0  0  0  0  0  0  0  0  0  0  0  0
   40.8000   32.6370   44.6270 N   0  0  0  0  0  0  0  0  0  0  0  0
   40.7270   31.3030   44.8610 C   0  0  0  0  0  0  0  0  0  0  0  0
   39.9450   31.1100   45.9640 N   0  0  0  0  0  0  0  0  0  0  0  0
   35.1880   30.0200   49.7880 C   0  0  0  0  0  0  0  0  0  0  0  0
   35.7480   30.4560   48.5960 C   0  0  0  0  0  0  0  0  0  0  0  0
   35.1890   29.9650   47.4120 C   0  0  0  0  0  0  0  0  0  0  0  0
   34.1380   29.0970   47.4910 N   0  0  0  0  0  0  0  0  0  0  0  0
   33.6270   28.7000   48.6730 C   0  0  0  0  0  0  0  0  0  0  0  0
   34.1420   29.1540   49.8280 N   0  0  0  0  0  0  0  0  0  0  0  0
   32.5040   27.7700   48.6880 C   0  0  0  0  0  0  0  0  0  0  0  0
   32.5640   26.6740   48.0940 O   0  0  0  0  0  0  0  0  0  0  0  0
   31.3380   28.1050   49.3750 O   0  0  0  0  0  0  0  0  0  0  0  0
   36.4561   32.1421   50.6253 H   0  0  0  0  0  0  0  0  0  0  0  0
   38.4266   33.6760   50.5150 H   0  0  0  0  0  0  0  0  0  0  0  0
   39.9185   34.3531   45.6805 H   0  0  0  0  0  0  0  0  0  0  0  0
   41.2124   30.5149   44.2667 H   0  0  0  0  0  0  0  0  0  0  0  0
   35.6064   30.3892   50.7360 H   0  0  0  0  0  0  0  0  0  0  0  0
   35.5888   30.2725   46.4345 H   0  0  0  0  0  0  0  0  0  0  0  0
   30.5731   27.4766   49.3878 H   0  0  0  0  0  0  0  0  0  0  0  0
  1  2  2  0
  3  2  1  0
  4  3  2  0
  5  6  2  0
  5  4  1  0
  6  1  1  0
  7  5  1  0
  8  7  1  0
  9 10  1  0
  9  8  2  0
 10 11  2  0
 11  7  1  0
 12 17  2  0
 13  1  1  0
 13 12  1  0
 14 15  1  0
 14 13  2  0
 15 16  2  0
 16 18  1  0
 16 17  1  0
 18 20  1  0
 19 18  2  0
  2 21  1  0
  3 22  1  0
  8 23  1  0
 10 24  1  0
 12 25  1  0
 14 26  1  0
 20 27  1  0
M  ISO  7  21  14  22  14  23  14  24  14  25  14  26  14  27   3
M  END
>  <minimizedAffinity>  (1) 
-6.47018194

>  <minimizedRMSD>  (1) 
0.565478384

$$$$
