
     RDKit          3D

 25 26  0  0  0  0  0  0  0  0999 V2000
   36.2900   29.4950   51.2130 C   0  0  0  0  0  0  0  0  0  0  0  0
   37.2230   30.4170   50.7230 C   0  0  0  0  0  0  0  0  0  0  0  0
   36.8830   31.2740   49.6670 C   0  0  0  0  0  0  0  0  0  0  0  0
   35.6110   31.1370   49.1760 N   0  0  0  0  0  0  0  0  0  0  0  0
   34.7280   30.2530   49.6520 C   0  0  0  0  0  0  0  0  0  0  0  0
   35.0640   29.4280   50.6710 N   0  0  0  0  0  0  0  0  0  0  0  0
   37.7740   32.2330   49.1190 N   0  0  0  0  0  0  0  0  0  0  0  0
   38.0440   33.4640   49.8610 C   0  0  0  0  0  0  0  0  0  0  0  0
   39.3700   34.0140   49.4320 C   0  0  0  0  0  0  0  0  0  0  0  0
   39.5130   34.0900   48.0020 N   0  0  0  0  0  0  0  0  0  0  0  0
   39.2700   32.9040   47.2780 C   0  0  0  0  0  0  0  0  0  0  0  0
   38.3550   31.9140   47.8530 C   0  0  0  0  0  0  0  0  0  0  0  0
   38.0800   30.6700   47.1280 C   0  0  0  0  0  0  0  0  0  0  0  0
   39.0930   30.3750   46.2270 F   0  0  0  0  0  0  0  0  0  0  0  0
   37.9960   29.6350   48.0060 F   0  0  0  0  0  0  0  0  0  0  0  0
   36.8790   30.7410   46.4420 F   0  0  0  0  0  0  0  0  0  0  0  0
   36.5619   28.8255   52.0423 H   0  0  0  0  0  0  0  0  0  0  0  0
   38.2273   30.4691   51.1687 H   0  0  0  0  0  0  0  0  0  0  0  0
   33.7213   30.1958   49.2123 H   0  0  0  0  0  0  0  0  0  0  0  0
   37.2545   34.2008   49.6519 H   0  0  0  0  0  0  0  0  0  0  0  0
   38.0630   33.2499   50.9398 H   0  0  0  0  0  0  0  0  0  0  0  0
   39.4811   35.0257   49.8493 H   0  0  0  0  0  0  0  0  0  0  0  0
   40.1456   33.3281   49.8035 H   0  0  0  0  0  0  0  0  0  0  0  0
   39.7794   34.9663   47.5309 H   0  0  0  0  0  0  0  0  0  0  0  0
   39.7549   32.7267   46.3067 H   0  0  0  0  0  0  0  0  0  0  0  0
  2  1  2  0
  3  2  1  0
  4  5  1  0
  4  3  2  0
  5  6  2  0
  6  1  1  0
  7  3  1  0
  7  8  1  0
  9  8  1  0
 10  9  1  0
 11 12  2  0
 11 10  1  0
 12  7  1  0
 13 12  1  0
 13 15  1  0
 14 13  1  0
 16 13  1  0
  1 17  1  0
  2 18  1  0
  5 19  1  0
  8 20  1  0
  8 21  1  0
  9 22  1  0
  9 23  1  0
 10 24  1  0
 11 25  1  0
M  ISO  8  17  14  18  14  19  14  20  13  21  13  22  13  23  13  25  13
M  END
>  <minimizedAffinity>  (1) 
-5.31275654

>  <minimizedRMSD>  (1) 
0.548227489

$$$$
