
     RDKit          3D

 25 27  0  0  0  0  0  0  0  0999 V2000
   35.9320   30.3110   48.5830 C   0  0  0  0  0  0  0  0  0  0  0  0
   36.0370   29.1820   49.3890 C   0  0  0  0  0  0  0  0  0  0  0  0
   34.9200   28.3830   49.1810 C   0  0  0  0  0  0  0  0  0  0  0  0
   34.1760   29.0390   48.2660 N   0  0  0  0  0  0  0  0  0  0  0  0
   34.7580   30.1730   47.9060 N   0  0  0  0  0  0  0  0  0  0  0  0
   38.1690   33.1090   49.5040 C   0  0  0  0  0  0  0  0  0  0  0  0
   39.0130   33.1420   48.3800 C   0  0  0  0  0  0  0  0  0  0  0  0
   38.7920   32.2230   47.3610 C   0  0  0  0  0  0  0  0  0  0  0  0
   37.7600   31.3280   47.5050 N   0  0  0  0  0  0  0  0  0  0  0  0
   36.9690   31.3240   48.5990 C   0  0  0  0  0  0  0  0  0  0  0  0
   37.1760   32.2040   49.5800 N   0  0  0  0  0  0  0  0  0  0  0  0
   32.9370   28.5310   47.7870 C   0  0  0  0  0  0  0  0  0  0  0  0
   32.2480   27.7340   48.6920 C   0  0  0  0  0  0  0  0  0  0  0  0
   31.0350   27.2130   48.2790 C   0  0  0  0  0  0  0  0  0  0  0  0
   30.5710   27.4880   47.0430 N   0  0  0  0  0  0  0  0  0  0  0  0
   31.2410   28.2620   46.1670 C   0  0  0  0  0  0  0  0  0  0  0  0
   32.4150   28.7700   46.5600 N   0  0  0  0  0  0  0  0  0  0  0  0
   36.8663   28.9592   50.0764 H   0  0  0  0  0  0  0  0  0  0  0  0
   34.6906   27.4199   49.6604 H   0  0  0  0  0  0  0  0  0  0  0  0
   38.3210   33.8258   50.3245 H   0  0  0  0  0  0  0  0  0  0  0  0
   39.8282   33.8771   48.3088 H   0  0  0  0  0  0  0  0  0  0  0  0
   39.4269   32.2127   46.4628 H   0  0  0  0  0  0  0  0  0  0  0  0
   32.6498   27.5259   49.6946 H   0  0  0  0  0  0  0  0  0  0  0  0
   30.4497   26.5753   48.9578 H   0  0  0  0  0  0  0  0  0  0  0  0
   30.8375   28.4689   45.1648 H   0  0  0  0  0  0  0  0  0  0  0  0
  1 10  1  0
  1  2  1  0
  3  2  2  0
  4  3  1  0
  5  4  1  0
  5  1  2  0
  6 11  2  0
  7  6  1  0
  8  9  1  0
  8  7  2  0
  9 10  2  0
 10 11  1  0
 12  4  1  0
 12 13  2  0
 14 13  1  0
 15 14  2  0
 16 17  2  0
 16 15  1  0
 17 12  1  0
  2 18  1  0
  3 19  1  0
  6 20  1  0
  7 21  1  0
  8 22  1  0
 13 23  1  0
 14 24  1  0
 16 25  1  0
M  ISO  8  18  14  19  14  20  14  21  14  22  14  23  14  24  14  25  14
M  END
>  <minimizedAffinity>  (1) 
-4.95699596

>  <minimizedRMSD>  (1) 
0.851765215

$$$$
