
     RDKit          3D

 41 44  0  0  1  0  0  0  0  0999 V2000
   36.9050   29.0190   49.7280 C   0  0  0  0  0  0  0  0  0  0  0  0
   37.7000   29.7820   48.8610 C   0  0  0  0  0  0  0  0  0  0  0  0
   37.0980   30.9030   48.1980 C   0  0  0  0  0  0  0  0  0  0  0  0
   35.7690   31.1310   48.4780 N   0  0  0  0  0  0  0  0  0  0  0  0
   35.0510   30.3720   49.3160 C   0  0  0  0  0  0  0  0  0  0  0  0
   35.6090   29.3250   49.9370 N   0  0  0  0  0  0  0  0  0  0  0  0
   37.8200   31.7230   47.3120 N   0  0  0  0  0  0  0  0  0  0  0  0
   38.7600   32.7110   47.8870 C   0  0  0  0  0  0  0  0  0  0  0  0
   39.7820   33.0960   46.8840 C   0  0  0  0  0  0  0  0  0  0  0  0
   39.2270   33.3700   45.5670 N   0  0  0  0  0  0  0  0  0  0  0  0
   38.3340   32.4080   45.0260 C   0  0  0  0  0  0  0  0  0  0  0  0
   37.5910   31.5400   45.9350 C   0  0  0  0  0  0  0  0  0  0  0  0
   36.7670   30.6630   45.2640 N   0  0  0  0  0  0  0  0  0  0  0  0
   35.4500   30.4740   45.4940 C   0  0  0  0  0  0  0  0  0  0  0  0
   34.8890   29.5310   44.6530 C   0  0  0  0  0  0  0  0  0  0  0  0
   35.9110   29.1030   43.8490 N   0  0  0  0  0  0  0  0  0  0  0  0
   37.0120   29.8090   44.2540 C   0  0  0  0  0  0  0  0  0  0  0  0
   38.2860   29.6240   43.6320 N   0  0  0  0  0  0  0  0  0  0  0  0
   38.5830   28.3390   43.3360 C   0  0  0  0  0  0  0  0  0  0  0  0
   39.7780   28.0200   42.7350 C   0  0  0  0  0  0  0  0  0  0  0  0
   40.6820   29.0280   42.4320 C   0  0  0  0  0  0  0  0  0  0  0  0
   41.7940   28.7760   41.8760 O   0  0  0  0  0  0  0  0  0  0  0  0
   40.3430   30.2980   42.7450 N   0  0  0  0  0  0  0  0  0  0  0  0
   39.1590   30.5980   43.3390 C   0  0  0  0  0  0  0  0  0  0  0  0
   38.8300   31.7760   43.6360 O   0  0  0  0  0  0  0  0  0  0  0  0
   37.3467   28.1554   50.2468 H   0  0  0  0  0  0  0  0  0  0  0  0
   38.7571   29.5279   48.6936 H   0  0  0  0  0  0  0  0  0  0  0  0
   33.9925   30.6111   49.4959 H   0  0  0  0  0  0  0  0  0  0  0  0
   38.2006   33.6061   48.1966 H   0  0  0  0  0  0  0  0  0  0  0  0
   39.2637   32.2612   48.7554 H   0  0  0  0  0  0  0  0  0  0  0  0
   40.2964   34.0007   47.2404 H   0  0  0  0  0  0  0  0  0  0  0  0
   40.4673   32.2424   46.7756 H   0  0  0  0  0  0  0  0  0  0  0  0
   39.4718   34.2260   45.0490 H   0  0  0  0  0  0  0  0  0  0  0  0
   38.2037   32.3179   43.9375 H   0  0  0  0  0  0  0  0  0  0  0  0
   34.8838   31.0129   46.2680 H   0  0  0  0  0  0  0  0  0  0  0  0
   33.8417   29.1952   44.6339 H   0  0  0  0  0  0  0  0  0  0  0  0
   37.8636   27.5427   43.5776 H   0  0  0  0  0  0  0  0  0  0  0  0
   40.0156   26.9729   42.4961 H   0  0  0  0  0  0  0  0  0  0  0  0
   41.0009   31.0599   42.5270 H   0  0  0  0  0  0  0  0  0  0  0  0
   38.6931   30.7180   42.3498 H   0  0  0  0  0  0  0  0  0  0  0  0
   38.8030   31.8727   44.6209 H   0  0  0  0  0  0  0  0  0  0  0  0
  1  6  2  0
  2  1  1  0
  3  4  1  0
  3  2  2  0
  4  5  2  0
  5  6  1  0
  7  8  1  0
  7  3  1  0
  9  8  1  0
 10  9  1  0
 11 10  1  0
 11 12  2  0
 12  7  1  0
 13 14  1  0
 13 12  1  0
 15 14  2  0
 16 17  2  0
 16 15  1  0
 17 13  1  0
 18 17  1  0
 19 18  1  0
 20 19  2  0
 21 20  1  0
 21 23  1  0
 22 21  2  0
 23 24  1  0
 24 18  1  0
 24 25  1  0
  1 26  1  0
  2 27  1  0
  5 28  1  0
  8 29  1  0
  8 30  1  0
  9 31  1  0
  9 32  1  0
 10 33  1  0
 11 34  1  0
 14 35  1  0
 15 36  1  0
 19 37  1  0
 20 38  1  0
 23 39  1  0
 24 40  1  0
 25 41  1  0
M  ISO  8  26  14  27  14  28  14  29  13  30  13  31  13  32  13  34  13
M  ISO  7  35  14  36  14  37  13  38  13  39  10  40  13  41   3
M  END
>  <minimizedAffinity>  (1) 
-5.73164225

>  <minimizedRMSD>  (1) 
3.43297338

$$$$
