
     RDKit          3D

 39 42  0  0  0  0  0  0  0  0999 V2000
   36.8010   28.9920   50.0110 C   0  0  0  0  0  0  0  0  0  0  0  0
   37.5970   29.7210   49.1030 C   0  0  0  0  0  0  0  0  0  0  0  0
   37.0010   30.8380   48.4380 C   0  0  0  0  0  0  0  0  0  0  0  0
   35.6750   31.1100   48.7500 N   0  0  0  0  0  0  0  0  0  0  0  0
   34.9720   30.3830   49.6190 C   0  0  0  0  0  0  0  0  0  0  0  0
   35.5110   29.3390   50.2460 N   0  0  0  0  0  0  0  0  0  0  0  0
   37.7180   31.6250   47.5150 N   0  0  0  0  0  0  0  0  0  0  0  0
   38.6950   32.5990   48.0330 C   0  0  0  0  0  0  0  0  0  0  0  0
   39.7120   32.9160   47.0020 C   0  0  0  0  0  0  0  0  0  0  0  0
   39.1040   33.2100   45.7010 N   0  0  0  0  0  0  0  0  0  0  0  0
   38.1800   32.2600   45.2040 C   0  0  0  0  0  0  0  0  0  0  0  0
   37.4390   31.4140   46.1480 C   0  0  0  0  0  0  0  0  0  0  0  0
   36.5770   30.5390   45.5100 N   0  0  0  0  0  0  0  0  0  0  0  0
   35.3690   30.1670   45.9670 C   0  0  0  0  0  0  0  0  0  0  0  0
   34.7320   29.2870   45.1140 C   0  0  0  0  0  0  0  0  0  0  0  0
   35.6000   29.1030   44.0670 N   0  0  0  0  0  0  0  0  0  0  0  0
   36.6850   29.8760   44.3580 C   0  0  0  0  0  0  0  0  0  0  0  0
   37.8420   29.9380   43.4550 C   0  0  0  0  0  0  0  0  0  0  0  0
   38.8800   29.0580   43.7010 C   0  0  0  0  0  0  0  0  0  0  0  0
   40.0210   29.0300   42.9110 C   0  0  0  0  0  0  0  0  0  0  0  0
   40.1480   29.8990   41.8360 C   0  0  0  0  0  0  0  0  0  0  0  0
   39.1080   30.7730   41.5980 C   0  0  0  0  0  0  0  0  0  0  0  0
   37.9720   30.8010   42.3840 C   0  0  0  0  0  0  0  0  0  0  0  0
   37.2334   28.1281   50.5370 H   0  0  0  0  0  0  0  0  0  0  0  0
   38.6431   29.4393   48.9124 H   0  0  0  0  0  0  0  0  0  0  0  0
   33.9248   30.6512   49.8223 H   0  0  0  0  0  0  0  0  0  0  0  0
   38.1690   33.5221   48.3179 H   0  0  0  0  0  0  0  0  0  0  0  0
   39.2003   32.1637   48.9078 H   0  0  0  0  0  0  0  0  0  0  0  0
   40.2888   33.7931   47.3305 H   0  0  0  0  0  0  0  0  0  0  0  0
   40.3596   32.0349   46.8823 H   0  0  0  0  0  0  0  0  0  0  0  0
   39.3373   34.0644   45.1753 H   0  0  0  0  0  0  0  0  0  0  0  0
   38.0186   32.1565   44.1209 H   0  0  0  0  0  0  0  0  0  0  0  0
   34.9364   30.5232   46.9136 H   0  0  0  0  0  0  0  0  0  0  0  0
   33.7399   28.8306   45.2458 H   0  0  0  0  0  0  0  0  0  0  0  0
   38.7991   28.3599   44.5473 H   0  0  0  0  0  0  0  0  0  0  0  0
   40.8272   28.3168   43.1376 H   0  0  0  0  0  0  0  0  0  0  0  0
   41.0441   29.8908   41.1981 H   0  0  0  0  0  0  0  0  0  0  0  0
   39.1857   31.4725   40.7526 H   0  0  0  0  0  0  0  0  0  0  0  0
   37.1665   31.5145   42.1557 H   0  0  0  0  0  0  0  0  0  0  0  0
  1  6  2  0
  2  1  1  0
  3  4  1  0
  3  2  2  0
  4  5  2  0
  5  6  1  0
  7  8  1  0
  7  3  1  0
  9  8  1  0
 10  9  1  0
 11 10  1  0
 11 12  2  0
 12  7  1  0
 13 14  1  0
 13 12  1  0
 15 14  2  0
 16 17  2  0
 16 15  1  0
 17 13  1  0
 18 19  2  0
 18 17  1  0
 20 19  1  0
 21 20  2  0
 22 21  1  0
 22 23  2  0
 23 18  1  0
  1 24  1  0
  2 25  1  0
  5 26  1  0
  8 27  1  0
  8 28  1  0
  9 29  1  0
  9 30  1  0
 10 31  1  0
 11 32  1  0
 14 33  1  0
 15 34  1  0
 19 35  1  0
 20 36  1  0
 21 37  1  0
 22 38  1  0
 23 39  1  0
M  ISO  8  24  14  25  14  26  14  27  13  28  13  29  13  30  13  32  13
M  ISO  7  33  14  34  14  35  14  36  14  37  14  38  14  39  14
M  END
>  <minimizedAffinity>  (1) 
-5.31660891

>  <minimizedRMSD>  (1) 
3.50896883

$$$$
