
     RDKit          3D

 37 40  0  0  0  0  0  0  0  0999 V2000
   36.8090   28.9930   50.0220 C   0  0  0  0  0  0  0  0  0  0  0  0
   37.6060   29.7140   49.1130 C   0  0  0  0  0  0  0  0  0  0  0  0
   37.0100   30.8360   48.4480 C   0  0  0  0  0  0  0  0  0  0  0  0
   35.6800   31.1220   48.7590 N   0  0  0  0  0  0  0  0  0  0  0  0
   34.9750   30.3990   49.6320 C   0  0  0  0  0  0  0  0  0  0  0  0
   35.5110   29.3490   50.2620 N   0  0  0  0  0  0  0  0  0  0  0  0
   37.7250   31.6180   47.5230 N   0  0  0  0  0  0  0  0  0  0  0  0
   38.7080   32.5900   48.0440 C   0  0  0  0  0  0  0  0  0  0  0  0
   39.7020   32.9370   47.0080 C   0  0  0  0  0  0  0  0  0  0  0  0
   39.1130   33.1930   45.7040 N   0  0  0  0  0  0  0  0  0  0  0  0
   38.1750   32.2400   45.2080 C   0  0  0  0  0  0  0  0  0  0  0  0
   37.4440   31.4100   46.1570 C   0  0  0  0  0  0  0  0  0  0  0  0
   36.5820   30.5460   45.5340 N   0  0  0  0  0  0  0  0  0  0  0  0
   35.3600   30.1850   45.9830 C   0  0  0  0  0  0  0  0  0  0  0  0
   34.7140   29.3090   45.1320 C   0  0  0  0  0  0  0  0  0  0  0  0
   35.5810   29.1030   44.0800 N   0  0  0  0  0  0  0  0  0  0  0  0
   36.6720   29.8680   44.3810 C   0  0  0  0  0  0  0  0  0  0  0  0
   37.8370   29.9130   43.4810 C   0  0  0  0  0  0  0  0  0  0  0  0
   38.8800   29.0340   43.7140 C   0  0  0  0  0  0  0  0  0  0  0  0
   39.9780   29.0710   42.8730 C   0  0  0  0  0  0  0  0  0  0  0  0
   40.0420   29.9400   41.8430 N   0  0  0  0  0  0  0  0  0  0  0  0
   39.0060   30.7960   41.6310 C   0  0  0  0  0  0  0  0  0  0  0  0
   37.9120   30.7880   42.4370 N   0  0  0  0  0  0  0  0  0  0  0  0
   37.2381   28.1278   50.5486 H   0  0  0  0  0  0  0  0  0  0  0  0
   38.6500   29.4267   48.9194 H   0  0  0  0  0  0  0  0  0  0  0  0
   33.9298   30.6734   49.8375 H   0  0  0  0  0  0  0  0  0  0  0  0
   38.1808   33.5029   48.3582 H   0  0  0  0  0  0  0  0  0  0  0  0
   39.2325   32.1375   48.8985 H   0  0  0  0  0  0  0  0  0  0  0  0
   40.2406   33.8403   47.3305 H   0  0  0  0  0  0  0  0  0  0  0  0
   40.3708   32.0707   46.8973 H   0  0  0  0  0  0  0  0  0  0  0  0
   39.3634   34.0305   45.1591 H   0  0  0  0  0  0  0  0  0  0  0  0
   38.0060   32.1332   44.1263 H   0  0  0  0  0  0  0  0  0  0  0  0
   34.9257   30.5496   46.9256 H   0  0  0  0  0  0  0  0  0  0  0  0
   33.7154   28.8676   45.2660 H   0  0  0  0  0  0  0  0  0  0  0  0
   38.8371   28.3208   44.5503 H   0  0  0  0  0  0  0  0  0  0  0  0
   40.8148   28.3786   43.0475 H   0  0  0  0  0  0  0  0  0  0  0  0
   39.0548   31.5067   40.7928 H   0  0  0  0  0  0  0  0  0  0  0  0
  1  6  2  0
  2  1  1  0
  3  4  1  0
  3  2  2  0
  4  5  2  0
  5  6  1  0
  7  8  1  0
  7  3  1  0
  9  8  1  0
 10  9  1  0
 11 10  1  0
 11 12  2  0
 12  7  1  0
 13 14  1  0
 13 12  1  0
 15 14  2  0
 16 17  2  0
 16 15  1  0
 17 13  1  0
 18 19  2  0
 18 17  1  0
 20 19  1  0
 21 20  2  0
 22 21  1  0
 22 23  2  0
 23 18  1  0
  1 24  1  0
  2 25  1  0
  5 26  1  0
  8 27  1  0
  8 28  1  0
  9 29  1  0
  9 30  1  0
 10 31  1  0
 11 32  1  0
 14 33  1  0
 15 34  1  0
 19 35  1  0
 20 36  1  0
 22 37  1  0
M  ISO  8  24  14  25  14  26  14  27  13  28  13  29  13  30  13  32  13
M  ISO  5  33  14  34  14  35  14  36  14  37  14
M  END
>  <minimizedAffinity>  (1) 
-5.25767851

>  <minimizedRMSD>  (1) 
3.52404594

$$$$
