
     RDKit          3D

 30 32  0  0  0  0  0  0  0  0999 V2000
   37.0130   29.0440   50.0490 C   0  0  0  0  0  0  0  0  0  0  0  0
   37.8990   30.1090   49.7740 C   0  0  0  0  0  0  0  0  0  0  0  0
   37.4060   31.1930   48.9830 C   0  0  0  0  0  0  0  0  0  0  0  0
   36.0940   31.0990   48.5560 N   0  0  0  0  0  0  0  0  0  0  0  0
   35.2970   30.0650   48.8460 C   0  0  0  0  0  0  0  0  0  0  0  0
   35.7430   29.0450   49.5830 N   0  0  0  0  0  0  0  0  0  0  0  0
   38.2080   32.3030   48.6530 N   0  0  0  0  0  0  0  0  0  0  0  0
   38.4500   33.3260   49.6820 C   0  0  0  0  0  0  0  0  0  0  0  0
   39.6930   34.0780   49.3870 C   0  0  0  0  0  0  0  0  0  0  0  0
   39.7780   34.5070   48.0010 N   0  0  0  0  0  0  0  0  0  0  0  0
   39.5490   33.5160   47.0140 C   0  0  0  0  0  0  0  0  0  0  0  0
   38.7240   32.3470   47.3390 C   0  0  0  0  0  0  0  0  0  0  0  0
   38.5980   31.4730   46.2700 N   0  0  0  0  0  0  0  0  0  0  0  0
   37.4390   31.0200   45.7810 C   0  0  0  0  0  0  0  0  0  0  0  0
   37.6180   30.1670   44.7090 C   0  0  0  0  0  0  0  0  0  0  0  0
   38.9730   30.0900   44.5300 N   0  0  0  0  0  0  0  0  0  0  0  0
   39.5120   30.8970   45.4980 C   0  0  0  0  0  0  0  0  0  0  0  0
   41.2920   31.1300   45.6750 S   0  0  0  0  0  0  0  0  0  0  0  0
   37.3632   28.1955   50.6551 H   0  0  0  0  0  0  0  0  0  0  0  0
   38.9310   30.1045   50.1547 H   0  0  0  0  0  0  0  0  0  0  0  0
   34.2622   30.0548   48.4731 H   0  0  0  0  0  0  0  0  0  0  0  0
   37.6010   34.0250   49.7037 H   0  0  0  0  0  0  0  0  0  0  0  0
   38.5587   32.8294   50.6575 H   0  0  0  0  0  0  0  0  0  0  0  0
   39.7267   34.9679   50.0327 H   0  0  0  0  0  0  0  0  0  0  0  0
   40.5406   33.4029   49.5766 H   0  0  0  0  0  0  0  0  0  0  0  0
   39.9938   35.4820   47.7488 H   0  0  0  0  0  0  0  0  0  0  0  0
   39.9870   33.6226   46.0106 H   0  0  0  0  0  0  0  0  0  0  0  0
   36.4542   31.2953   46.1864 H   0  0  0  0  0  0  0  0  0  0  0  0
   36.8378   29.6581   44.1239 H   0  0  0  0  0  0  0  0  0  0  0  0
   41.6169   31.1725   47.0052 H   0  0  0  0  0  0  0  0  0  0  0  0
  2  1  2  0
  3  2  1  0
  4  5  1  0
  4  3  2  0
  5  6  2  0
  6  1  1  0
  7  3  1  0
  7  8  1  0
  9  8  1  0
 10  9  1  0
 11 12  2  0
 11 10  1  0
 12  7  1  0
 13 12  1  0
 14 13  1  0
 15 14  2  0
 16 15  1  0
 16 17  2  0
 17 18  1  0
 17 13  1  0
  1 19  1  0
  2 20  1  0
  5 21  1  0
  8 22  1  0
  8 23  1  0
  9 24  1  0
  9 25  1  0
 10 26  1  0
 11 27  1  0
 14 28  1  0
 15 29  1  0
 18 30  1  0
M  ISO  8  19  14  20  14  21  14  22  13  23  13  24  13  25  13  27  13
M  ISO  3  28  14  29  14  30  11
M  END
>  <minimizedAffinity>  (1) 
-4.9890542

>  <minimizedRMSD>  (1) 
0.442424655

$$$$
