
     RDKit          3D

 26 27  0  0  0  0  0  0  0  0999 V2000
   36.0200   30.0470   48.7900 C   0  0  0  0  0  0  0  0  0  0  0  0
   35.8980   29.2620   49.9230 C   0  0  0  0  0  0  0  0  0  0  0  0
   34.8880   28.3410   49.7440 C   0  0  0  0  0  0  0  0  0  0  0  0
   34.4090   28.5810   48.4970 N   0  0  0  0  0  0  0  0  0  0  0  0
   35.0680   29.5710   47.9500 N   0  0  0  0  0  0  0  0  0  0  0  0
   38.0380   33.0900   49.3710 C   0  0  0  0  0  0  0  0  0  0  0  0
   38.9520   32.9990   48.3240 C   0  0  0  0  0  0  0  0  0  0  0  0
   38.8520   31.9130   47.4580 C   0  0  0  0  0  0  0  0  0  0  0  0
   37.8690   30.9870   47.6720 N   0  0  0  0  0  0  0  0  0  0  0  0
   37.0060   31.1060   48.6920 C   0  0  0  0  0  0  0  0  0  0  0  0
   37.0870   32.1540   49.5430 N   0  0  0  0  0  0  0  0  0  0  0  0
   33.3370   27.9230   47.7590 C   0  0  0  0  0  0  0  0  0  0  0  0
   32.1010   27.7860   48.6180 C   0  0  0  0  0  0  0  0  0  0  0  0
   33.8080   26.5780   47.2570 C   0  0  0  0  0  0  0  0  0  0  0  0
   36.5138   29.3583   50.8294 H   0  0  0  0  0  0  0  0  0  0  0  0
   34.5447   27.5772   50.4572 H   0  0  0  0  0  0  0  0  0  0  0  0
   38.0945   33.9396   50.0674 H   0  0  0  0  0  0  0  0  0  0  0  0
   39.7308   33.7633   48.1851 H   0  0  0  0  0  0  0  0  0  0  0  0
   39.5516   31.8021   46.6165 H   0  0  0  0  0  0  0  0  0  0  0  0
   33.0690   28.5427   46.8906 H   0  0  0  0  0  0  0  0  0  0  0  0
   32.3870   27.8177   49.6797 H   0  0  0  0  0  0  0  0  0  0  0  0
   31.4093   28.6130   48.3997 H   0  0  0  0  0  0  0  0  0  0  0  0
   31.6072   26.8276   48.3997 H   0  0  0  0  0  0  0  0  0  0  0  0
   34.0362   25.9264   48.1134 H   0  0  0  0  0  0  0  0  0  0  0  0
   33.0177   26.1174   46.6461 H   0  0  0  0  0  0  0  0  0  0  0  0
   34.7130   26.7110   46.6461 H   0  0  0  0  0  0  0  0  0  0  0  0
  1  2  1  0
  3  2  2  0
  4  3  1  0
  5  4  1  0
  5  1  2  0
  6 11  2  0
  7  6  1  0
  8  9  1  0
  8  7  2  0
  9 10  2  0
 10  1  1  0
 10 11  1  0
 12  4  1  0
 12 13  1  0
 14 12  1  0
  2 15  1  0
  3 16  1  0
  6 17  1  0
  7 18  1  0
  8 19  1  0
 12 20  1  0
 13 21  1  0
 13 22  1  0
 13 23  1  0
 14 24  1  0
 14 25  1  0
 14 26  1  0
M  ISO  8  15  14  16  14  17  14  18  14  19  14  20   8  21   8  22   8
M  ISO  4  23   8  24   8  25   8  26   8
M  END
>  <minimizedAffinity>  (1) 
-4.59116173

>  <minimizedRMSD>  (1) 
1.06010342

$$$$
