
     RDKit          3D

 33 35  0  0  0  0  0  0  0  0999 V2000
   35.1950   28.1760   49.1890 C   0  0  0  0  0  0  0  0  0  0  0  0
   36.2320   29.1290   49.1650 C   0  0  0  0  0  0  0  0  0  0  0  0
   35.9900   30.3760   48.5060 C   0  0  0  0  0  0  0  0  0  0  0  0
   34.7300   30.5190   47.9460 N   0  0  0  0  0  0  0  0  0  0  0  0
   33.7780   29.5950   47.9900 C   0  0  0  0  0  0  0  0  0  0  0  0
   33.9990   28.4340   48.6020 N   0  0  0  0  0  0  0  0  0  0  0  0
   36.9600   31.3800   48.4320 N   0  0  0  0  0  0  0  0  0  0  0  0
   37.2140   32.1890   49.6420 C   0  0  0  0  0  0  0  0  0  0  0  0
   38.5570   32.8000   49.5950 C   0  0  0  0  0  0  0  0  0  0  0  0
   38.8490   33.4180   48.2930 N   0  0  0  0  0  0  0  0  0  0  0  0
   38.6100   32.6210   47.1580 C   0  0  0  0  0  0  0  0  0  0  0  0
   37.6220   31.5450   47.2090 C   0  0  0  0  0  0  0  0  0  0  0  0
   37.5070   30.8530   46.0030 N   0  0  0  0  0  0  0  0  0  0  0  0
   36.3780   30.5480   45.3890 C   0  0  0  0  0  0  0  0  0  0  0  0
   36.5790   29.8610   44.2130 C   0  0  0  0  0  0  0  0  0  0  0  0
   37.9320   29.7340   44.0930 N   0  0  0  0  0  0  0  0  0  0  0  0
   38.4690   30.3500   45.1990 C   0  0  0  0  0  0  0  0  0  0  0  0
   39.8470   30.4320   45.4440 O   0  0  0  0  0  0  0  0  0  0  0  0
   40.7140   31.1920   44.6420 C   0  0  0  0  0  0  0  0  0  0  0  0
   39.9840   32.2700   44.1790 F   0  0  0  0  0  0  0  0  0  0  0  0
   41.2190   30.5310   43.5630 F   0  0  0  0  0  0  0  0  0  0  0  0
   41.7070   31.7490   45.4530 F   0  0  0  0  0  0  0  0  0  0  0  0
   35.3567   27.2102   49.6900 H   0  0  0  0  0  0  0  0  0  0  0  0
   37.2019   28.9203   49.6401 H   0  0  0  0  0  0  0  0  0  0  0  0
   32.8031   29.7895   47.5190 H   0  0  0  0  0  0  0  0  0  0  0  0
   36.4581   32.9854   49.7079 H   0  0  0  0  0  0  0  0  0  0  0  0
   37.1576   31.5318   50.5223 H   0  0  0  0  0  0  0  0  0  0  0  0
   38.6203   33.5733   50.3747 H   0  0  0  0  0  0  0  0  0  0  0  0
   39.2942   32.0000   49.7582 H   0  0  0  0  0  0  0  0  0  0  0  0
   39.2083   34.3802   48.2160 H   0  0  0  0  0  0  0  0  0  0  0  0
   39.1687   32.8085   46.2292 H   0  0  0  0  0  0  0  0  0  0  0  0
   35.3834   30.8145   45.7760 H   0  0  0  0  0  0  0  0  0  0  0  0
   35.8109   29.4924   43.5172 H   0  0  0  0  0  0  0  0  0  0  0  0
  2  1  2  0
  3  2  1  0
  4  5  1  0
  4  3  2  0
  5  6  2  0
  6  1  1  0
  7  3  1  0
  7  8  1  0
  9  8  1  0
 10  9  1  0
 11 12  2  0
 11 10  1  0
 12  7  1  0
 13 12  1  0
 14 13  1  0
 15 14  2  0
 16 15  1  0
 16 17  2  0
 17 18  1  0
 17 13  1  0
 19 18  1  0
 19 22  1  0
 20 19  1  0
 21 19  1  0
  1 23  1  0
  2 24  1  0
  5 25  1  0
  8 26  1  0
  8 27  1  0
  9 28  1  0
  9 29  1  0
 10 30  1  0
 11 31  1  0
 14 32  1  0
 15 33  1  0
M  ISO  8  23  14  24  14  25  14  26  13  27  13  28  13  29  13  31  13
M  ISO  2  32  14  33  14
M  END
>  <minimizedAffinity>  (1) 
-5.85090351

>  <minimizedRMSD>  (1) 
1.91547132

$$$$
