
     RDKit          3D

 44 48  0  0  0  0  0  0  0  0999 V2000
   37.1840   29.3120   49.9990 C   0  0  0  0  0  0  0  0  0  0  0  0
   38.0790   30.2140   49.3860 C   0  0  0  0  0  0  0  0  0  0  0  0
   37.5230   31.2710   48.5870 C   0  0  0  0  0  0  0  0  0  0  0  0
   36.1400   31.2920   48.5020 N   0  0  0  0  0  0  0  0  0  0  0  0
   35.3370   30.4220   49.0970 C   0  0  0  0  0  0  0  0  0  0  0  0
   35.8380   29.4390   49.8400 N   0  0  0  0  0  0  0  0  0  0  0  0
   38.3260   32.2140   47.9410 N   0  0  0  0  0  0  0  0  0  0  0  0
   38.9250   33.2900   48.7610 C   0  0  0  0  0  0  0  0  0  0  0  0
   40.1100   33.8650   48.0860 C   0  0  0  0  0  0  0  0  0  0  0  0
   39.8950   34.1290   46.6580 N   0  0  0  0  0  0  0  0  0  0  0  0
   39.3300   33.0810   45.9050 C   0  0  0  0  0  0  0  0  0  0  0  0
   38.5030   32.0650   46.5650 C   0  0  0  0  0  0  0  0  0  0  0  0
   38.0250   31.1040   45.6710 N   0  0  0  0  0  0  0  0  0  0  0  0
   36.8050   30.5950   45.6520 C   0  0  0  0  0  0  0  0  0  0  0  0
   36.6120   29.6730   44.6670 C   0  0  0  0  0  0  0  0  0  0  0  0
   37.7890   29.5930   44.0180 N   0  0  0  0  0  0  0  0  0  0  0  0
   38.6520   30.4790   44.6460 C   0  0  0  0  0  0  0  0  0  0  0  0
   39.9800   30.6990   44.2770 O   0  0  0  0  0  0  0  0  0  0  0  0
   40.3630   30.4710   42.9710 C   0  0  0  0  0  0  0  0  0  0  0  0
   41.1940   29.4540   42.6760 N   0  0  0  0  0  0  0  0  0  0  0  0
   41.5980   29.1860   41.4160 C   0  0  0  0  0  0  0  0  0  0  0  0
   41.1410   29.9840   40.4210 N   0  0  0  0  0  0  0  0  0  0  0  0
   40.3050   31.0190   40.6690 C   0  0  0  0  0  0  0  0  0  0  0  0
   39.8380   31.8340   39.6570 C   0  0  0  0  0  0  0  0  0  0  0  0
   38.9840   32.8920   39.8930 C   0  0  0  0  0  0  0  0  0  0  0  0
   38.5990   33.1270   41.1830 C   0  0  0  0  0  0  0  0  0  0  0  0
   39.0450   32.3350   42.2260 C   0  0  0  0  0  0  0  0  0  0  0  0
   39.9020   31.2770   41.9620 C   0  0  0  0  0  0  0  0  0  0  0  0
   37.5806   28.4922   50.6159 H   0  0  0  0  0  0  0  0  0  0  0  0
   39.1665   30.1115   49.5154 H   0  0  0  0  0  0  0  0  0  0  0  0
   34.2475   30.5134   48.9756 H   0  0  0  0  0  0  0  0  0  0  0  0
   38.1786   34.0827   48.9173 H   0  0  0  0  0  0  0  0  0  0  0  0
   39.2393   32.8656   49.7259 H   0  0  0  0  0  0  0  0  0  0  0  0
   40.3679   34.8128   48.5811 H   0  0  0  0  0  0  0  0  0  0  0  0
   40.9191   33.1236   48.1616 H   0  0  0  0  0  0  0  0  0  0  0  0
   40.1439   35.0320   46.2296 H   0  0  0  0  0  0  0  0  0  0  0  0
   39.5091   33.0245   44.8212 H   0  0  0  0  0  0  0  0  0  0  0  0
   36.0196   30.8881   46.3642 H   0  0  0  0  0  0  0  0  0  0  0  0
   35.6906   29.1132   44.4487 H   0  0  0  0  0  0  0  0  0  0  0  0
   42.2765   28.3466   41.2040 H   0  0  0  0  0  0  0  0  0  0  0  0
   40.1586   31.6325   38.6242 H   0  0  0  0  0  0  0  0  0  0  0  0
   38.6246   33.5260   39.0690 H   0  0  0  0  0  0  0  0  0  0  0  0
   37.9191   33.9648   41.3969 H   0  0  0  0  0  0  0  0  0  0  0  0
   38.7223   32.5428   43.2569 H   0  0  0  0  0  0  0  0  0  0  0  0
  2  1  2  0
  3  2  1  0
  4  3  2  0
  4  5  1  0
  5  6  2  0
  6  1  1  0
  7  3  1  0
  7  8  1  0
  9  8  1  0
 10  9  1  0
 11 12  2  0
 11 10  1  0
 12  7  1  0
 13 12  1  0
 14 13  1  0
 15 14  2  0
 16 17  2  0
 16 15  1  0
 17 13  1  0
 18 17  1  0
 19 18  1  0
 20 19  2  0
 21 20  1  0
 22 23  1  0
 22 21  2  0
 23 28  2  0
 24 25  2  0
 24 23  1  0
 25 26  1  0
 26 27  2  0
 28 27  1  0
 28 19  1  0
  1 29  1  0
  2 30  1  0
  5 31  1  0
  8 32  1  0
  8 33  1  0
  9 34  1  0
  9 35  1  0
 10 36  1  0
 11 37  1  0
 14 38  1  0
 15 39  1  0
 21 40  1  0
 24 41  1  0
 25 42  1  0
 26 43  1  0
 27 44  1  0
M  ISO  8  29  14  30  14  31  14  32  13  33  13  34  13  35  13  37  13
M  ISO  7  38  14  39  14  40  14  41  14  42  14  43  14  44  14
M  END
>  <minimizedAffinity>  (1) 
-5.47187281

>  <minimizedRMSD>  (1) 
2.59100509

$$$$
