
     RDKit          3D

 24 26  0  0  0  0  0  0  0  0999 V2000
   36.1040   30.3170   48.6800 C   0  0  0  0  0  0  0  0  0  0  0  0
   36.1070   29.3480   49.6670 C   0  0  0  0  0  0  0  0  0  0  0  0
   35.0640   28.4740   49.4270 C   0  0  0  0  0  0  0  0  0  0  0  0
   34.4590   28.9210   48.3200 N   0  0  0  0  0  0  0  0  0  0  0  0
   35.0580   30.0090   47.8620 N   0  0  0  0  0  0  0  0  0  0  0  0
   38.1700   33.2780   49.5000 C   0  0  0  0  0  0  0  0  0  0  0  0
   39.0540   33.2860   48.3980 C   0  0  0  0  0  0  0  0  0  0  0  0
   38.9140   32.2980   47.4330 C   0  0  0  0  0  0  0  0  0  0  0  0
   37.9250   31.3820   47.6220 N   0  0  0  0  0  0  0  0  0  0  0  0
   37.0950   31.3850   48.6670 C   0  0  0  0  0  0  0  0  0  0  0  0
   37.2200   32.3300   49.6010 N   0  0  0  0  0  0  0  0  0  0  0  0
   33.3080   28.2740   47.7300 C   0  0  0  0  0  0  0  0  0  0  0  0
   33.6690   27.3720   46.5250 C   0  0  0  0  0  0  0  0  0  0  0  0
   33.1500   26.8060   47.7990 C   0  0  0  0  0  0  0  0  0  0  0  0
   36.8197   29.2839   50.5024 H   0  0  0  0  0  0  0  0  0  0  0  0
   34.7877   27.5919   50.0233 H   0  0  0  0  0  0  0  0  0  0  0  0
   38.2585   34.0498   50.2788 H   0  0  0  0  0  0  0  0  0  0  0  0
   39.8341   34.0562   48.3069 H   0  0  0  0  0  0  0  0  0  0  0  0
   39.5737   32.2571   46.5537 H   0  0  0  0  0  0  0  0  0  0  0  0
   32.6285   29.1055   47.9686 H   0  0  0  0  0  0  0  0  0  0  0  0
   33.0405   27.3744   45.6222 H   0  0  0  0  0  0  0  0  0  0  0  0
   34.5584   27.2144   45.8972 H   0  0  0  0  0  0  0  0  0  0  0  0
   33.8204   26.2187   48.4437 H   0  0  0  0  0  0  0  0  0  0  0  0
   32.3088   26.1429   48.0493 H   0  0  0  0  0  0  0  0  0  0  0  0
  1  2  1  0
  3  2  2  0
  4  3  1  0
  5  4  1  0
  5  1  2  0
  6 11  2  0
  7  6  1  0
  8  9  1  0
  8  7  2  0
  9 10  2  0
 10  1  1  0
 10 11  1  0
 12 14  1  0
 12  4  1  0
 13 12  1  0
 13 14  1  0
  2 15  1  0
  3 16  1  0
  6 17  1  0
  7 18  1  0
  8 19  1  0
 12 20  1  0
 13 21  1  0
 13 22  1  0
 14 23  1  0
 14 24  1  0
M  ISO  8  15  14  16  14  17  14  18  14  19  14  20  13  21  13  22  13
M  ISO  2  23  13  24  13
M  END
>  <minimizedAffinity>  (1) 
-4.51907253

>  <minimizedRMSD>  (1) 
1.34016633

$$$$
