
     RDKit          3D

 35 37  0  0  1  0  0  0  0  0999 V2000
   37.5100   31.3820   48.6970 N   0  0  0  0  0  0  0  0  0  0  0  0
   38.3450   31.5300   49.9050 C   0  0  0  0  0  0  0  0  0  0  0  0
   38.6000   33.0270   49.8540 C   0  0  0  0  0  0  0  0  0  0  0  0
   39.0310   33.1390   48.3950 C   0  0  0  0  0  0  0  0  0  0  0  0
   37.8550   32.4190   47.7450 C   0  0  1  0  0  0  0  0  0  0  0  0
   36.3000   29.2900   49.3200 C   0  0  0  0  0  0  0  0  0  0  0  0
   36.5210   30.3940   48.4770 C   0  0  0  0  0  0  0  0  0  0  0  0
   35.7180   30.5420   47.3390 C   0  0  0  0  0  0  0  0  0  0  0  0
   34.7500   29.5940   47.1060 N   0  0  0  0  0  0  0  0  0  0  0  0
   34.5680   28.5490   47.9360 C   0  0  0  0  0  0  0  0  0  0  0  0
   35.3360   28.4040   49.0280 N   0  0  0  0  0  0  0  0  0  0  0  0
   39.3860   30.9010   44.0410 C   0  0  0  0  0  0  0  0  0  0  0  0
   39.9350   30.5330   45.2550 C   0  0  0  0  0  0  0  0  0  0  0  0
   39.4070   31.0490   46.4200 C   0  0  0  0  0  0  0  0  0  0  0  0
   38.3580   31.9160   46.4610 C   0  0  0  0  0  0  0  0  0  0  0  0
   37.8180   32.2760   45.2260 C   0  0  0  0  0  0  0  0  0  0  0  0
   38.3200   31.7800   44.0400 C   0  0  0  0  0  0  0  0  0  0  0  0
   39.8770   30.3860   42.4430 S   0  0  0  0  0  0  0  0  0  0  0  0
   41.2160   29.7330   42.5600 O   0  0  0  0  0  0  0  0  0  0  0  0
   39.9810   31.5380   41.4880 O   0  0  0  0  0  0  0  0  0  0  0  0
   37.8032   31.2372   50.8164 H   0  0  0  0  0  0  0  0  0  0  0  0
   39.2481   30.9025   49.9288 H   0  0  0  0  0  0  0  0  0  0  0  0
   37.6900   33.6089   50.0623 H   0  0  0  0  0  0  0  0  0  0  0  0
   39.3178   33.4127   50.5929 H   0  0  0  0  0  0  0  0  0  0  0  0
   39.1068   34.1860   48.0662 H   0  0  0  0  0  0  0  0  0  0  0  0
   40.0249   32.7293   48.1618 H   0  0  0  0  0  0  0  0  0  0  0  0
   36.9580   33.0188   47.5315 H   0  0  0  0  0  0  0  0  0  0  0  0
   36.9182   29.1530   50.2195 H   0  0  0  0  0  0  0  0  0  0  0  0
   35.8576   31.3905   46.6530 H   0  0  0  0  0  0  0  0  0  0  0  0
   33.7843   27.8087   47.7177 H   0  0  0  0  0  0  0  0  0  0  0  0
   40.7847   29.8354   45.2916 H   0  0  0  0  0  0  0  0  0  0  0  0
   39.8608   30.7415   47.3737 H   0  0  0  0  0  0  0  0  0  0  0  0
   36.9687   32.9744   45.1968 H   0  0  0  0  0  0  0  0  0  0  0  0
   37.8675   32.0871   43.0856 H   0  0  0  0  0  0  0  0  0  0  0  0
   38.9324   29.5231   41.9530 H   0  0  0  0  0  0  0  0  0  0  0  0
  1  2  1  0
  3  2  1  0
  4  3  1  0
  5  4  1  0
  5  1  1  0
  7  1  1  0
  7  6  2  0
  8  7  1  0
  9  8  2  0
  9 10  1  0
 10 11  2  0
 11  6  1  0
 12 13  2  0
 13 14  1  0
 14 15  2  0
 15  5  1  0
 16 15  1  0
 17 12  1  0
 17 16  2  0
 18 19  2  0
 18 12  1  0
 20 18  2  0
  2 21  1  0
  2 22  1  0
  3 23  1  0
  3 24  1  0
  4 25  1  0
  4 26  1  0
  5 27  1  6
  6 28  1  0
  8 29  1  0
 10 30  1  0
 13 31  1  0
 14 32  1  0
 16 33  1  0
 17 34  1  0
 18 35  1  0
M  ISO  8  21  13  22  13  23  13  24  13  25  13  26  13  27  13  28  14
M  ISO  7  29  14  30  14  31  14  32  14  33  14  34  14  35  11
M  END
>  <minimizedAffinity>  (1) 
-5.36707592

>  <minimizedRMSD>  (1) 
2.18221974

$$$$
