
     RDKit          3D

 38 41  0  0  1  0  0  0  0  0999 V2000
   37.3890   31.2740   49.1070 N   0  0  0  0  0  0  0  0  0  0  0  0
   38.5600   31.4530   49.9830 C   0  0  0  0  0  0  0  0  0  0  0  0
   38.9120   32.8910   49.6460 C   0  0  0  0  0  0  0  0  0  0  0  0
   38.8920   32.7870   48.1310 C   0  0  0  0  0  0  0  0  0  0  0  0
   37.5170   32.1710   47.9660 C   0  0  1  0  0  0  0  0  0  0  0  0
   37.4340   31.3530   46.7320 C   0  0  0  0  0  0  0  0  0  0  0  0
   36.2390   30.7500   46.3530 C   0  0  0  0  0  0  0  0  0  0  0  0
   36.1530   29.9830   45.2010 C   0  0  0  0  0  0  0  0  0  0  0  0
   37.2450   29.7870   44.3880 C   0  0  0  0  0  0  0  0  0  0  0  0
   38.4380   30.3740   44.7420 C   0  0  0  0  0  0  0  0  0  0  0  0
   39.5410   30.1900   43.9440 C   0  0  0  0  0  0  0  0  0  0  0  0
   40.7680   30.7680   44.2680 C   0  0  0  0  0  0  0  0  0  0  0  0
   40.8570   31.5400   45.4270 C   0  0  0  0  0  0  0  0  0  0  0  0
   39.7170   31.6850   46.1860 C   0  0  0  0  0  0  0  0  0  0  0  0
   38.4960   31.1220   45.8810 C   0  0  0  0  0  0  0  0  0  0  0  0
   36.4120   28.9930   49.2670 C   0  0  0  0  0  0  0  0  0  0  0  0
   36.3070   30.3930   49.3050 C   0  0  0  0  0  0  0  0  0  0  0  0
   35.0420   30.9690   49.5530 C   0  0  0  0  0  0  0  0  0  0  0  0
   33.9770   30.1350   49.7440 N   0  0  0  0  0  0  0  0  0  0  0  0
   34.1230   28.7870   49.7000 C   0  0  0  0  0  0  0  0  0  0  0  0
   35.3320   28.2220   49.4630 N   0  0  0  0  0  0  0  0  0  0  0  0
   38.2995   31.3330   51.0449 H   0  0  0  0  0  0  0  0  0  0  0  0
   39.3716   30.7260   49.8319 H   0  0  0  0  0  0  0  0  0  0  0  0
   38.1590   33.5996   50.0215 H   0  0  0  0  0  0  0  0  0  0  0  0
   39.8491   33.2655   50.0838 H   0  0  0  0  0  0  0  0  0  0  0  0
   38.9656   33.7720   47.6470 H   0  0  0  0  0  0  0  0  0  0  0  0
   39.7238   32.2263   47.6797 H   0  0  0  0  0  0  0  0  0  0  0  0
   36.7391   32.9464   47.9051 H   0  0  0  0  0  0  0  0  0  0  0  0
   35.3448   30.8843   46.9794 H   0  0  0  0  0  0  0  0  0  0  0  0
   35.1914   29.5217   44.9317 H   0  0  0  0  0  0  0  0  0  0  0  0
   37.1665   29.1758   43.4768 H   0  0  0  0  0  0  0  0  0  0  0  0
   39.4549   29.5769   43.0348 H   0  0  0  0  0  0  0  0  0  0  0  0
   41.6470   30.6186   43.6237 H   0  0  0  0  0  0  0  0  0  0  0  0
   41.8035   32.0156   45.7237 H   0  0  0  0  0  0  0  0  0  0  0  0
   39.7855   32.2930   47.1002 H   0  0  0  0  0  0  0  0  0  0  0  0
   37.3886   28.5246   49.0748 H   0  0  0  0  0  0  0  0  0  0  0  0
   34.9172   32.0612   49.5914 H   0  0  0  0  0  0  0  0  0  0  0  0
   33.2461   28.1422   49.8592 H   0  0  0  0  0  0  0  0  0  0  0  0
  1 17  1  0
  1  2  1  0
  3  2  1  0
  4  3  1  0
  5  4  1  0
  5  1  1  0
  6  5  1  0
  7  6  2  0
  8  7  1  0
  9 10  1  0
  9  8  2  0
 10 15  2  0
 11 12  2  0
 11 10  1  0
 12 13  1  0
 13 14  2  0
 15 14  1  0
 15  6  1  0
 16 17  2  0
 16 21  1  0
 17 18  1  0
 18 19  2  0
 20 19  1  0
 21 20  2  0
  2 22  1  0
  2 23  1  0
  3 24  1  0
  3 25  1  0
  4 26  1  0
  4 27  1  0
  5 28  1  6
  7 29  1  0
  8 30  1  0
  9 31  1  0
 11 32  1  0
 12 33  1  0
 13 34  1  0
 14 35  1  0
 16 36  1  0
 18 37  1  0
 20 38  1  0
M  ISO  8  22  13  23  13  24  13  25  13  26  13  27  13  28  13  29  14
M  ISO  8  30  14  31  14  32  14  33  14  34  14  35  14  36  14  37  14
M  ISO  1  38  14
M  END
>  <minimizedAffinity>  (1) 
-5.32708454

>  <minimizedRMSD>  (1) 
1.33461142

$$$$
