
     RDKit          3D

 29 30  0  0  1  0  0  0  0  0999 V2000
   37.1070   31.3380   48.7350 N   0  0  0  0  0  0  0  0  0  0  0  0
   37.3500   31.9980   50.0130 C   0  0  0  0  0  0  0  0  0  0  0  0
   37.7920   33.3710   49.5180 C   0  0  0  0  0  0  0  0  0  0  0  0
   38.8120   32.9200   48.4900 C   0  0  0  0  0  0  0  0  0  0  0  0
   37.9930   31.9050   47.7280 C   0  0  1  0  0  0  0  0  0  0  0  0
   35.9360   29.2120   49.3210 C   0  0  0  0  0  0  0  0  0  0  0  0
   36.1790   30.3050   48.4390 C   0  0  0  0  0  0  0  0  0  0  0  0
   35.4700   30.3560   47.2340 C   0  0  0  0  0  0  0  0  0  0  0  0
   34.5810   29.3420   46.9800 N   0  0  0  0  0  0  0  0  0  0  0  0
   34.3750   28.3290   47.8270 C   0  0  0  0  0  0  0  0  0  0  0  0
   35.0450   28.2680   48.9820 N   0  0  0  0  0  0  0  0  0  0  0  0
   38.9130   30.9010   47.2240 N   0  0  0  0  0  0  0  0  0  0  0  0
   39.6550   31.1940   46.0530 C   0  0  0  0  0  0  0  0  0  0  0  0
   39.2040   32.0030   45.1430 N   0  0  0  0  0  0  0  0  0  0  0  0
   40.9530   30.6520   45.7380 N   0  0  0  0  0  0  0  0  0  0  0  0
   38.2730   32.4360   45.2970 H   0  0  0  0  0  0  0  0  0  0  0  0
   36.4362   32.0578   50.6225 H   0  0  0  0  0  0  0  0  0  0  0  0
   38.0692   31.4874   50.6703 H   0  0  0  0  0  0  0  0  0  0  0  0
   36.9642   33.9336   49.0617 H   0  0  0  0  0  0  0  0  0  0  0  0
   38.1638   34.0608   50.2900 H   0  0  0  0  0  0  0  0  0  0  0  0
   39.1346   33.7504   47.8447 H   0  0  0  0  0  0  0  0  0  0  0  0
   39.7513   32.5324   48.9113 H   0  0  0  0  0  0  0  0  0  0  0  0
   37.4256   32.3139   46.8790 H   0  0  0  0  0  0  0  0  0  0  0  0
   36.4771   29.1427   50.2762 H   0  0  0  0  0  0  0  0  0  0  0  0
   35.6194   31.1773   46.5177 H   0  0  0  0  0  0  0  0  0  0  0  0
   33.6504   27.5415   47.5724 H   0  0  0  0  0  0  0  0  0  0  0  0
   39.0236   29.9975   47.7061 H   0  0  0  0  0  0  0  0  0  0  0  0
   41.4238   30.9190   44.8617 H   0  0  0  0  0  0  0  0  0  0  0  0
   41.4097   29.9977   46.3893 H   0  0  0  0  0  0  0  0  0  0  0  0
  1  2  1  0
  3  2  1  0
  4  3  1  0
  5  4  1  0
  5  1  1  0
  7  1  1  0
  7  6  2  0
  8  7  1  0
  9  8  2  0
  9 10  1  0
 10 11  2  0
 11  6  1  0
 12  5  1  0
 13 12  1  0
 14 16  1  0
 14 13  2  0
 15 13  1  0
  2 17  1  0
  2 18  1  0
  3 19  1  0
  3 20  1  0
  4 21  1  0
  4 22  1  0
  5 23  1  6
  6 24  1  0
  8 25  1  0
 10 26  1  0
 12 27  1  0
 15 28  1  0
 15 29  1  0
M  ISO  8  17  13  18  13  19  13  20  13  21  13  22  13  23  13  24  14
M  ISO  2  25  14  26  14
M  END
>  <minimizedAffinity>  (1) 
-5.21237946

>  <minimizedRMSD>  (1) 
1.18501472

$$$$
