
     RDKit          3D

 20 21  0  0  0  0  0  0  0  0999 V2000
   39.5010   32.6460   46.6260 C   0  0  0  0  0  0  0  0  0  0  0  0
   38.8640   32.4540   45.3780 C   0  0  0  0  0  0  0  0  0  0  0  0
   37.7380   31.6340   45.3540 C   0  0  0  0  0  0  0  0  0  0  0  0
   37.3130   31.0640   46.5220 N   0  0  0  0  0  0  0  0  0  0  0  0
   37.9520   31.2750   47.6890 C   0  0  0  0  0  0  0  0  0  0  0  0
   39.0420   32.0640   47.7390 N   0  0  0  0  0  0  0  0  0  0  0  0
   37.4490   30.6400   48.9010 C   0  0  0  0  0  0  0  0  0  0  0  0
   38.0110   30.9640   50.1270 C   0  0  0  0  0  0  0  0  0  0  0  0
   37.5290   30.3550   51.2860 C   0  0  0  0  0  0  0  0  0  0  0  0
   36.4860   29.4340   51.1460 C   0  0  0  0  0  0  0  0  0  0  0  0
   35.9140   29.0970   49.9560 C   0  0  0  0  0  0  0  0  0  0  0  0
   36.4250   29.7270   48.8290 C   0  0  0  0  0  0  0  0  0  0  0  0
   40.3928   33.2876   46.6823 H   0  0  0  0  0  0  0  0  0  0  0  0
   39.2425   32.9329   44.4629 H   0  0  0  0  0  0  0  0  0  0  0  0
   37.2005   31.4484   44.4124 H   0  0  0  0  0  0  0  0  0  0  0  0
   38.8305   31.6955   50.1850 H   0  0  0  0  0  0  0  0  0  0  0  0
   37.9535   30.5905   52.2731 H   0  0  0  0  0  0  0  0  0  0  0  0
   36.1022   28.9499   52.0561 H   0  0  0  0  0  0  0  0  0  0  0  0
   35.0937   28.3670   49.8918 H   0  0  0  0  0  0  0  0  0  0  0  0
   35.9953   29.4869   47.8453 H   0  0  0  0  0  0  0  0  0  0  0  0
  1  6  2  0
  2  1  1  0
  3  2  2  0
  3  4  1  0
  4  5  2  0
  5  6  1  0
  5  7  1  0
  7  8  2  0
  8  9  1  0
 10  9  2  0
 11 10  1  0
 12  7  1  0
 12 11  2  0
  1 13  1  0
  2 14  1  0
  3 15  1  0
  8 16  1  0
  9 17  1  0
 10 18  1  0
 11 19  1  0
 12 20  1  0
M  ISO  8  13  14  14  14  15  14  16  14  17  14  18  14  19  14  20  14
M  END
>  <minimizedAffinity>  (1) 
-5.26273489

>  <minimizedRMSD>  (1) 
4.56521797

$$$$
