
     RDKit          3D

 31 32  0  0  1  0  0  0  0  0999 V2000
   37.3810   31.1230   48.6860 N   0  0  0  0  0  0  0  0  0  0  0  0
   38.2210   31.5850   49.7820 C   0  0  0  0  0  0  0  0  0  0  0  0
   38.5740   32.9760   49.3080 C   0  0  0  0  0  0  0  0  0  0  0  0
   38.9190   32.7140   47.8730 C   0  0  0  0  0  0  0  0  0  0  0  0
   37.8590   31.7340   47.4610 C   0  0  1  0  0  0  0  0  0  0  0  0
   36.2540   29.0820   49.5680 C   0  0  0  0  0  0  0  0  0  0  0  0
   36.2780   30.2330   48.7280 C   0  0  0  0  0  0  0  0  0  0  0  0
   35.1730   30.4840   47.9110 C   0  0  0  0  0  0  0  0  0  0  0  0
   34.1180   29.6090   47.9550 N   0  0  0  0  0  0  0  0  0  0  0  0
   34.1270   28.5220   48.7650 C   0  0  0  0  0  0  0  0  0  0  0  0
   35.1920   28.2660   49.5650 N   0  0  0  0  0  0  0  0  0  0  0  0
   38.4660   30.7280   46.5010 C   0  0  0  0  0  0  0  0  0  0  0  0
   37.6010   30.7910   45.2370 C   0  0  0  0  0  0  0  0  0  0  0  0
   39.8570   31.0750   46.0600 C   0  0  0  0  0  0  0  0  0  0  0  0
   37.6675   31.6103   50.7323 H   0  0  0  0  0  0  0  0  0  0  0  0
   39.0895   30.9426   49.9897 H   0  0  0  0  0  0  0  0  0  0  0  0
   37.7190   33.6621   49.3985 H   0  0  0  0  0  0  0  0  0  0  0  0
   39.3759   33.4602   49.8846 H   0  0  0  0  0  0  0  0  0  0  0  0
   38.8628   33.6358   47.2754 H   0  0  0  0  0  0  0  0  0  0  0  0
   39.9434   32.3405   47.7281 H   0  0  0  0  0  0  0  0  0  0  0  0
   37.0158   32.2027   46.9326 H   0  0  0  0  0  0  0  0  0  0  0  0
   37.1113   28.8629   50.2215 H   0  0  0  0  0  0  0  0  0  0  0  0
   35.1497   31.3619   47.2487 H   0  0  0  0  0  0  0  0  0  0  0  0
   33.2628   27.8415   48.7735 H   0  0  0  0  0  0  0  0  0  0  0  0
   38.5045   29.7524   47.0077 H   0  0  0  0  0  0  0  0  0  0  0  0
   36.5412   30.8682   45.5214 H   0  0  0  0  0  0  0  0  0  0  0  0
   37.8858   31.6708   44.6413 H   0  0  0  0  0  0  0  0  0  0  0  0
   37.7553   29.8792   44.6413 H   0  0  0  0  0  0  0  0  0  0  0  0
   40.4929   31.2336   46.9434 H   0  0  0  0  0  0  0  0  0  0  0  0
   40.2665   30.2515   45.4566 H   0  0  0  0  0  0  0  0  0  0  0  0
   39.8317   31.9944   45.4566 H   0  0  0  0  0  0  0  0  0  0  0  0
  1  7  1  0
  1  2  1  0
  3  2  1  0
  4  3  1  0
  5  4  1  0
  5  1  1  0
  7  6  2  0
  8  9  2  0
  8  7  1  0
  9 10  1  0
 10 11  2  0
 11  6  1  0
 12  5  1  0
 13 12  1  0
 14 12  1  0
  2 15  1  0
  2 16  1  0
  3 17  1  0
  3 18  1  0
  4 19  1  0
  4 20  1  0
  5 21  1  6
  6 22  1  0
  8 23  1  0
 10 24  1  0
 12 25  1  0
 13 26  1  0
 13 27  1  0
 13 28  1  0
 14 29  1  0
 14 30  1  0
 14 31  1  0
M  ISO  8  15  13  16  13  17  13  18  13  19  13  20  13  21  13  22  14
M  ISO  8  23  14  24  14  25   8  26   8  27   8  28   8  29   8  30   8
M  ISO  1  31   8
M  END
>  <minimizedAffinity>  (1) 
-4.79585314

>  <minimizedRMSD>  (1) 
0.992489219

$$$$
