
     RDKit          3D

 37 39  0  0  1  0  0  0  0  0999 V2000
   36.9150   31.1490   48.9560 N   0  0  0  0  0  0  0  0  0  0  0  0
   36.9060   32.1890   49.9790 C   0  0  0  0  0  0  0  0  0  0  0  0
   37.7660   33.2250   49.2870 C   0  0  0  0  0  0  0  0  0  0  0  0
   38.9090   32.3540   48.8260 C   0  0  0  0  0  0  0  0  0  0  0  0
   38.1140   31.2510   48.1560 C   0  0  2  0  0  0  0  0  0  0  0  0
   35.8460   28.9500   49.4640 C   0  0  0  0  0  0  0  0  0  0  0  0
   35.9270   30.1540   48.7480 C   0  0  0  0  0  0  0  0  0  0  0  0
   34.9660   30.3700   47.7580 C   0  0  0  0  0  0  0  0  0  0  0  0
   34.0200   29.4040   47.5530 N   0  0  0  0  0  0  0  0  0  0  0  0
   33.9880   28.2730   48.2650 C   0  0  0  0  0  0  0  0  0  0  0  0
   34.8970   28.0450   49.2170 N   0  0  0  0  0  0  0  0  0  0  0  0
   38.0040   31.3310   46.7780 N   0  0  0  0  0  0  0  0  0  0  0  0
   38.4030   32.4860   46.0770 C   0  0  0  0  0  0  0  0  0  0  0  0
   37.9810   32.4520   44.6250 C   0  0  0  0  0  0  0  0  0  0  0  0
   38.2940   31.1280   43.9680 C   0  0  0  0  0  0  0  0  0  0  0  0
   39.1380   30.2610   44.8840 C   0  0  0  0  0  0  0  0  0  0  0  0
   38.3490   30.0810   46.1530 C   0  0  0  0  0  0  0  0  0  0  0  0
   35.8904   32.5631   50.1753 H   0  0  0  0  0  0  0  0  0  0  0  0
   37.2596   31.8734   50.9717 H   0  0  0  0  0  0  0  0  0  0  0  0
   37.2411   33.6912   48.4401 H   0  0  0  0  0  0  0  0  0  0  0  0
   38.0592   34.0781   49.9165 H   0  0  0  0  0  0  0  0  0  0  0  0
   39.5661   32.8779   48.1162 H   0  0  0  0  0  0  0  0  0  0  0  0
   39.6004   32.0250   49.6157 H   0  0  0  0  0  0  0  0  0  0  0  0
   38.6353   30.2824   48.1553 H   0  0  0  0  0  0  0  0  0  0  0  0
   36.5862   28.7462   50.2517 H   0  0  0  0  0  0  0  0  0  0  0  0
   34.9699   31.2926   47.1590 H   0  0  0  0  0  0  0  0  0  0  0  0
   33.2072   27.5244   48.0654 H   0  0  0  0  0  0  0  0  0  0  0  0
   37.9485   33.3654   46.5567 H   0  0  0  0  0  0  0  0  0  0  0  0
   39.5015   32.5343   46.1066 H   0  0  0  0  0  0  0  0  0  0  0  0
   36.8967   32.6279   44.5675 H   0  0  0  0  0  0  0  0  0  0  0  0
   38.5434   33.2332   44.0926 H   0  0  0  0  0  0  0  0  0  0  0  0
   37.3527   30.6054   43.7423 H   0  0  0  0  0  0  0  0  0  0  0  0
   38.8570   31.3170   43.0421 H   0  0  0  0  0  0  0  0  0  0  0  0
   39.3283   29.2850   44.4137 H   0  0  0  0  0  0  0  0  0  0  0  0
   40.1128   30.7289   45.0860 H   0  0  0  0  0  0  0  0  0  0  0  0
   37.4216   29.5388   45.9162 H   0  0  0  0  0  0  0  0  0  0  0  0
   38.9804   29.5213   46.8587 H   0  0  0  0  0  0  0  0  0  0  0  0
  1  2  1  0
  3  2  1  0
  4  3  1  0
  5  4  1  0
  5  1  1  0
  7  1  1  0
  7  6  2  0
  8  7  1  0
  9  8  2  0
  9 10  1  0
 10 11  2  0
 11  6  1  0
 12  5  1  0
 13 12  1  0
 14 13  1  0
 15 14  1  0
 15 16  1  0
 16 17  1  0
 17 12  1  0
  2 18  1  0
  2 19  1  0
  3 20  1  0
  3 21  1  0
  4 22  1  0
  4 23  1  0
  5 24  1  6
  6 25  1  0
  8 26  1  0
 10 27  1  0
 13 28  1  0
 13 29  1  0
 14 30  1  0
 14 31  1  0
 15 32  1  0
 15 33  1  0
 16 34  1  0
 16 35  1  0
 17 36  1  0
 17 37  1  0
M  ISO  8  18  13  19  13  20  13  21  13  22  13  23  13  24  13  25  14
M  ISO  8  26  14  27  14  28  13  29  13  30  13  31  13  32  13  33  13
M  ISO  4  34  13  35  13  36  13  37  13
M  END
>  <minimizedAffinity>  (1) 
-4.68047857

>  <minimizedRMSD>  (1) 
1.93380356

$$$$
