
     RDKit          3D

 25 26  0  0  1  0  0  0  0  0999 V2000
   37.5130   31.2670   48.5870 N   0  0  0  0  0  0  0  0  0  0  0  0
   38.3260   31.8680   49.6530 C   0  0  0  0  0  0  0  0  0  0  0  0
   38.6630   33.1920   49.0080 C   0  0  0  0  0  0  0  0  0  0  0  0
   39.0580   32.7480   47.6340 C   0  0  0  0  0  0  0  0  0  0  0  0
   37.9510   31.7730   47.2990 C   0  0  1  0  0  0  0  0  0  0  0  0
   36.4650   29.2800   49.6730 C   0  0  0  0  0  0  0  0  0  0  0  0
   36.4610   30.3350   48.7440 C   0  0  0  0  0  0  0  0  0  0  0  0
   35.3290   30.4650   47.9180 C   0  0  0  0  0  0  0  0  0  0  0  0
   34.3050   29.5630   48.0670 N   0  0  0  0  0  0  0  0  0  0  0  0
   34.3660   28.5700   48.9780 C   0  0  0  0  0  0  0  0  0  0  0  0
   35.4420   28.4340   49.7740 N   0  0  0  0  0  0  0  0  0  0  0  0
   38.6570   30.6630   46.5080 C   0  0  0  0  0  0  0  0  0  0  0  0
   37.7501   32.0003   50.5808 H   0  0  0  0  0  0  0  0  0  0  0  0
   39.1944   31.2704   49.9673 H   0  0  0  0  0  0  0  0  0  0  0  0
   37.7909   33.8618   48.9810 H   0  0  0  0  0  0  0  0  0  0  0  0
   39.4346   33.7707   49.5369 H   0  0  0  0  0  0  0  0  0  0  0  0
   39.0761   33.5923   46.9291 H   0  0  0  0  0  0  0  0  0  0  0  0
   40.0677   32.3153   47.5767 H   0  0  0  0  0  0  0  0  0  0  0  0
   37.1011   32.1810   46.7322 H   0  0  0  0  0  0  0  0  0  0  0  0
   37.3353   29.1502   50.3331 H   0  0  0  0  0  0  0  0  0  0  0  0
   35.2663   31.2700   47.1710 H   0  0  0  0  0  0  0  0  0  0  0  0
   33.5274   27.8643   49.0710 H   0  0  0  0  0  0  0  0  0  0  0  0
   39.1125   29.9469   47.2078 H   0  0  0  0  0  0  0  0  0  0  0  0
   37.9244   30.1413   45.8747 H   0  0  0  0  0  0  0  0  0  0  0  0
   39.4401   31.1053   45.8747 H   0  0  0  0  0  0  0  0  0  0  0  0
  1  7  1  0
  1  2  1  0
  3  2  1  0
  4  3  1  0
  5  4  1  0
  5  1  1  0
  6 11  2  0
  7  6  1  0
  8  9  1  0
  8  7  2  0
  9 10  2  0
 10 11  1  0
 12  5  1  0
  2 13  1  0
  2 14  1  0
  3 15  1  0
  3 16  1  0
  4 17  1  0
  4 18  1  0
  5 19  1  6
  6 20  1  0
  8 21  1  0
 10 22  1  0
 12 23  1  0
 12 24  1  0
 12 25  1  0
M  ISO  8  13  13  14  13  15  13  16  13  17  13  18  13  19  13  20  14
M  ISO  5  21  14  22  14  23   8  24   8  25   8
M  END
>  <minimizedAffinity>  (1) 
-4.3493681

>  <minimizedRMSD>  (1) 
0.527084708

$$$$
