
     RDKit          3D

 30 32  0  0  1  0  0  0  0  0999 V2000
   37.5410   31.3810   48.6430 N   0  0  0  0  0  0  0  0  0  0  0  0
   38.4230   31.6350   49.7770 C   0  0  0  0  0  0  0  0  0  0  0  0
   38.7450   33.0900   49.5530 C   0  0  0  0  0  0  0  0  0  0  0  0
   39.0500   33.0710   48.0730 C   0  0  0  0  0  0  0  0  0  0  0  0
   37.8560   32.3040   47.5660 C   0  0  1  0  0  0  0  0  0  0  0  0
   36.4360   29.2870   49.4300 C   0  0  0  0  0  0  0  0  0  0  0  0
   36.5310   30.3950   48.5710 C   0  0  0  0  0  0  0  0  0  0  0  0
   35.5570   30.5340   47.5540 C   0  0  0  0  0  0  0  0  0  0  0  0
   34.5820   29.5870   47.4620 N   0  0  0  0  0  0  0  0  0  0  0  0
   34.5290   28.5330   48.3140 C   0  0  0  0  0  0  0  0  0  0  0  0
   35.4520   28.3860   49.2940 N   0  0  0  0  0  0  0  0  0  0  0  0
   38.2670   31.5960   46.3170 C   0  0  0  0  0  0  0  0  0  0  0  0
   39.0440   30.4550   46.0890 C   0  0  0  0  0  0  0  0  0  0  0  0
   39.2410   30.0520   44.7950 C   0  0  0  0  0  0  0  0  0  0  0  0
   38.7060   30.7320   43.7900 N   0  0  0  0  0  0  0  0  0  0  0  0
   37.9560   31.8310   43.9820 C   0  0  0  0  0  0  0  0  0  0  0  0
   37.7430   32.2560   45.2590 N   0  0  0  0  0  0  0  0  0  0  0  0
   37.9079   31.4759   50.7359 H   0  0  0  0  0  0  0  0  0  0  0  0
   39.3007   30.9743   49.8324 H   0  0  0  0  0  0  0  0  0  0  0  0
   37.8863   33.7376   49.7838 H   0  0  0  0  0  0  0  0  0  0  0  0
   39.5526   33.4868   50.1857 H   0  0  0  0  0  0  0  0  0  0  0  0
   39.0909   34.0865   47.6521 H   0  0  0  0  0  0  0  0  0  0  0  0
   40.0250   32.6362   47.8078 H   0  0  0  0  0  0  0  0  0  0  0  0
   36.9805   32.9219   47.3176 H   0  0  0  0  0  0  0  0  0  0  0  0
   37.1818   29.1564   50.2280 H   0  0  0  0  0  0  0  0  0  0  0  0
   35.5863   31.3840   46.8564 H   0  0  0  0  0  0  0  0  0  0  0  0
   33.7264   27.7884   48.2076 H   0  0  0  0  0  0  0  0  0  0  0  0
   39.4852   29.8961   46.9274 H   0  0  0  0  0  0  0  0  0  0  0  0
   39.8473   29.1579   44.5878 H   0  0  0  0  0  0  0  0  0  0  0  0
   37.5245   32.3743   43.1284 H   0  0  0  0  0  0  0  0  0  0  0  0
  1  2  1  0
  3  2  1  0
  4  3  1  0
  5  4  1  0
  5  1  1  0
  7  1  1  0
  7  6  2  0
  8  7  1  0
  9  8  2  0
  9 10  1  0
 10 11  2  0
 11  6  1  0
 12  5  1  0
 13 12  2  0
 14 13  1  0
 15 16  1  0
 15 14  2  0
 16 17  2  0
 17 12  1  0
  2 18  1  0
  2 19  1  0
  3 20  1  0
  3 21  1  0
  4 22  1  0
  4 23  1  0
  5 24  1  6
  6 25  1  0
  8 26  1  0
 10 27  1  0
 13 28  1  0
 14 29  1  0
 16 30  1  0
M  ISO  8  18  13  19  13  20  13  21  13  22  13  23  13  24  13  25  14
M  ISO  5  26  14  27  14  28  14  29  14  30  14
M  END
>  <minimizedAffinity>  (1) 
-4.98774672

>  <minimizedRMSD>  (1) 
1.27423644

$$$$
