
     RDKit          3D

 41 44  0  0  1  0  0  0  0  0999 V2000
   37.5330   31.3430   48.6970 N   0  0  0  0  0  0  0  0  0  0  0  0
   38.4070   31.6070   49.8230 C   0  0  0  0  0  0  0  0  0  0  0  0
   38.7480   33.0580   49.6140 C   0  0  0  0  0  0  0  0  0  0  0  0
   39.0530   33.0460   48.1350 C   0  0  0  0  0  0  0  0  0  0  0  0
   37.8630   32.2590   47.6420 C   0  0  1  0  0  0  0  0  0  0  0  0
   38.2140   31.6320   46.3680 C   0  0  0  0  0  0  0  0  0  0  0  0
   39.0100   30.5070   46.1140 C   0  0  0  0  0  0  0  0  0  0  0  0
   39.2270   30.0850   44.8340 C   0  0  0  0  0  0  0  0  0  0  0  0
   38.6710   30.7560   43.8350 N   0  0  0  0  0  0  0  0  0  0  0  0
   37.9060   31.8340   44.0360 C   0  0  0  0  0  0  0  0  0  0  0  0
   37.6970   32.2450   45.3080 N   0  0  0  0  0  0  0  0  0  0  0  0
   37.3250   32.5290   42.9110 N   0  0  0  0  0  0  0  0  0  0  0  0
   36.0050   32.5470   42.8010 C   0  0  0  0  0  0  0  0  0  0  0  0
   35.5340   33.2410   41.6850 C   0  0  0  0  0  0  0  0  0  0  0  0
   36.4240   33.8390   40.8060 C   0  0  0  0  0  0  0  0  0  0  0  0
   35.9910   34.5600   39.6510 N   0  0  0  0  0  0  0  0  0  0  0  0
   37.7550   33.7860   40.9720 N   0  0  0  0  0  0  0  0  0  0  0  0
   38.1960   33.1060   42.0630 C   0  0  0  0  0  0  0  0  0  0  0  0
   39.4510   33.0250   42.2700 O   0  0  0  0  0  0  0  0  0  0  0  0
   36.4360   29.2530   49.4710 C   0  0  0  0  0  0  0  0  0  0  0  0
   36.5250   30.3660   48.6150 C   0  0  0  0  0  0  0  0  0  0  0  0
   35.5470   30.5250   47.6000 C   0  0  0  0  0  0  0  0  0  0  0  0
   34.5630   29.5870   47.5060 N   0  0  0  0  0  0  0  0  0  0  0  0
   34.5100   28.5230   48.3530 C   0  0  0  0  0  0  0  0  0  0  0  0
   35.4390   28.3590   49.3270 N   0  0  0  0  0  0  0  0  0  0  0  0
   37.8862   31.4516   50.7794 H   0  0  0  0  0  0  0  0  0  0  0  0
   39.2845   30.9454   49.8707 H   0  0  0  0  0  0  0  0  0  0  0  0
   37.8980   33.7151   49.8501 H   0  0  0  0  0  0  0  0  0  0  0  0
   39.5596   33.4393   50.2511 H   0  0  0  0  0  0  0  0  0  0  0  0
   39.0770   34.0614   47.7127 H   0  0  0  0  0  0  0  0  0  0  0  0
   40.0345   32.6308   47.8626 H   0  0  0  0  0  0  0  0  0  0  0  0
   36.9718   32.8677   47.4294 H   0  0  0  0  0  0  0  0  0  0  0  0
   39.4638   29.9593   46.9531 H   0  0  0  0  0  0  0  0  0  0  0  0
   39.8529   29.2027   44.6348 H   0  0  0  0  0  0  0  0  0  0  0  0
   35.3380   32.0576   43.5260 H   0  0  0  0  0  0  0  0  0  0  0  0
   34.4517   33.3137   41.5022 H   0  0  0  0  0  0  0  0  0  0  0  0
   34.9854   34.6501   39.4472 H   0  0  0  0  0  0  0  0  0  0  0  0
   36.6845   34.9896   39.0222 H   0  0  0  0  0  0  0  0  0  0  0  0
   37.1859   29.1120   50.2633 H   0  0  0  0  0  0  0  0  0  0  0  0
   35.5818   31.3803   46.9091 H   0  0  0  0  0  0  0  0  0  0  0  0
   33.7014   27.7850   48.2458 H   0  0  0  0  0  0  0  0  0  0  0  0
  1  2  1  0
  3  2  1  0
  4  3  1  0
  5  4  1  0
  5  1  1  0
  6  5  1  0
  7  6  2  0
  8  7  1  0
  9 10  1  0
  9  8  2  0
 10 11  2  0
 11  6  1  0
 12 10  1  0
 13 12  1  0
 14 13  2  0
 15 17  2  0
 15 14  1  0
 16 15  1  0
 17 18  1  0
 18 19  2  0
 18 12  1  0
 21  1  1  0
 21 20  2  0
 22 21  1  0
 23 22  2  0
 23 24  1  0
 24 25  2  0
 25 20  1  0
  2 26  1  0
  2 27  1  0
  3 28  1  0
  3 29  1  0
  4 30  1  0
  4 31  1  0
  5 32  1  6
  7 33  1  0
  8 34  1  0
 13 35  1  0
 14 36  1  0
 16 37  1  0
 16 38  1  0
 20 39  1  0
 22 40  1  0
 24 41  1  0
M  ISO  8  26  13  27  13  28  13  29  13  30  13  31  13  32  13  33  14
M  ISO  6  34  14  35  14  36  14  39  14  40  14  41  14
M  END
>  <minimizedAffinity>  (1) 
-6.44852114

>  <minimizedRMSD>  (1) 
0.0922497362

$$$$
