
     RDKit          3D

 44 48  0  0  1  0  0  0  0  0999 V2000
   37.5940   31.4360   48.5490 N   0  0  0  0  0  0  0  0  0  0  0  0
   38.4660   31.7870   49.6520 C   0  0  0  0  0  0  0  0  0  0  0  0
   38.7720   33.2210   49.3510 C   0  0  0  0  0  0  0  0  0  0  0  0
   39.0900   33.1200   47.8720 C   0  0  0  0  0  0  0  0  0  0  0  0
   37.9220   32.2760   47.4290 C   0  0  1  0  0  0  0  0  0  0  0  0
   36.5170   29.3760   49.4370 C   0  0  0  0  0  0  0  0  0  0  0  0
   36.5890   30.4530   48.5330 C   0  0  0  0  0  0  0  0  0  0  0  0
   35.5900   30.5610   47.5290 C   0  0  0  0  0  0  0  0  0  0  0  0
   34.6140   29.6140   47.4930 N   0  0  0  0  0  0  0  0  0  0  0  0
   34.5820   28.5860   48.3880 C   0  0  0  0  0  0  0  0  0  0  0  0
   35.5300   28.4690   49.3540 N   0  0  0  0  0  0  0  0  0  0  0  0
   38.2860   31.5650   46.2060 C   0  0  0  0  0  0  0  0  0  0  0  0
   39.0700   30.4240   46.0460 C   0  0  0  0  0  0  0  0  0  0  0  0
   39.2800   29.9340   44.7870 C   0  0  0  0  0  0  0  0  0  0  0  0
   38.7430   30.5420   43.7500 N   0  0  0  0  0  0  0  0  0  0  0  0
   37.9850   31.6340   43.8510 C   0  0  0  0  0  0  0  0  0  0  0  0
   37.7930   32.0990   45.0970 N   0  0  0  0  0  0  0  0  0  0  0  0
   37.3100   32.4330   42.7990 C   0  0  0  0  0  0  0  0  0  0  0  0
   38.0110   33.3000   42.0130 N   0  0  0  0  0  0  0  0  0  0  0  0
   37.4670   34.0430   41.0560 C   0  0  0  0  0  0  0  0  0  0  0  0
   36.1660   33.9940   40.7870 N   0  0  0  0  0  0  0  0  0  0  0  0
   35.3760   33.1580   41.5160 C   0  0  0  0  0  0  0  0  0  0  0  0
   34.0320   33.0860   41.2610 C   0  0  0  0  0  0  0  0  0  0  0  0
   33.2020   32.2500   41.9800 C   0  0  0  0  0  0  0  0  0  0  0  0
   33.8210   31.4880   42.9770 C   0  0  0  0  0  0  0  0  0  0  0  0
   35.1760   31.5860   43.2060 C   0  0  0  0  0  0  0  0  0  0  0  0
   35.9890   32.4180   42.4870 C   0  0  0  0  0  0  0  0  0  0  0  0
   37.9524   31.6808   50.6189 H   0  0  0  0  0  0  0  0  0  0  0  0
   39.3574   31.1482   49.7378 H   0  0  0  0  0  0  0  0  0  0  0  0
   37.9046   33.8711   49.5382 H   0  0  0  0  0  0  0  0  0  0  0  0
   39.5697   33.6626   49.9664 H   0  0  0  0  0  0  0  0  0  0  0  0
   39.0936   34.1058   47.3839 H   0  0  0  0  0  0  0  0  0  0  0  0
   40.0829   32.7123   47.6313 H   0  0  0  0  0  0  0  0  0  0  0  0
   37.0239   32.8528   47.1632 H   0  0  0  0  0  0  0  0  0  0  0  0
   37.2803   29.2760   50.2227 H   0  0  0  0  0  0  0  0  0  0  0  0
   35.6051   31.3863   46.8019 H   0  0  0  0  0  0  0  0  0  0  0  0
   33.7761   27.8398   48.3270 H   0  0  0  0  0  0  0  0  0  0  0  0
   39.5135   29.9248   46.9201 H   0  0  0  0  0  0  0  0  0  0  0  0
   39.8959   29.0344   44.6409 H   0  0  0  0  0  0  0  0  0  0  0  0
   38.1099   34.7167   40.4705 H   0  0  0  0  0  0  0  0  0  0  0  0
   33.6035   33.7102   40.4631 H   0  0  0  0  0  0  0  0  0  0  0  0
   32.1219   32.1867   41.7818 H   0  0  0  0  0  0  0  0  0  0  0  0
   33.2167   30.8005   43.5870 H   0  0  0  0  0  0  0  0  0  0  0  0
   35.6224   30.9695   44.0001 H   0  0  0  0  0  0  0  0  0  0  0  0
  1  2  1  0
  3  2  1  0
  4  3  1  0
  5  4  1  0
  5  1  1  0
  7  1  1  0
  7  6  2  0
  8  7  1  0
  9  8  2  0
  9 10  1  0
 10 11  2  0
 11  6  1  0
 12  5  1  0
 13 12  2  0
 14 13  1  0
 15 16  1  0
 15 14  2  0
 16 17  2  0
 17 12  1  0
 18 16  1  0
 19 18  2  0
 20 19  1  0
 21 20  2  0
 21 22  1  0
 22 27  2  0
 23 22  1  0
 23 24  2  0
 24 25  1  0
 25 26  2  0
 27 18  1  0
 27 26  1  0
  2 28  1  0
  2 29  1  0
  3 30  1  0
  3 31  1  0
  4 32  1  0
  4 33  1  0
  5 34  1  6
  6 35  1  0
  8 36  1  0
 10 37  1  0
 13 38  1  0
 14 39  1  0
 20 40  1  0
 23 41  1  0
 24 42  1  0
 25 43  1  0
 26 44  1  0
M  ISO  8  28  13  29  13  30  13  31  13  32  13  33  13  34  13  35  14
M  ISO  8  36  14  37  14  38  14  39  14  40  14  41  14  42  14  43  14
M  ISO  1  44  14
M  END
>  <minimizedAffinity>  (1) 
-6.05020714

>  <minimizedRMSD>  (1) 
0.258386135

$$$$
