
     RDKit          3D

 40 43  0  0  1  0  0  0  0  0999 V2000
   37.5370   31.3880   48.6480 N   0  0  0  0  0  0  0  0  0  0  0  0
   38.3860   31.6760   49.7960 C   0  0  0  0  0  0  0  0  0  0  0  0
   38.7040   33.1250   49.5710 C   0  0  0  0  0  0  0  0  0  0  0  0
   39.0750   33.0790   48.0990 C   0  0  0  0  0  0  0  0  0  0  0  0
   37.8910   32.2890   47.5870 C   0  0  1  0  0  0  0  0  0  0  0  0
   36.4330   29.2910   49.4120 C   0  0  0  0  0  0  0  0  0  0  0  0
   36.5340   30.4050   48.5560 C   0  0  0  0  0  0  0  0  0  0  0  0
   35.5730   30.5570   47.5370 C   0  0  0  0  0  0  0  0  0  0  0  0
   34.5910   29.6180   47.4280 N   0  0  0  0  0  0  0  0  0  0  0  0
   34.5340   28.5540   48.2800 C   0  0  0  0  0  0  0  0  0  0  0  0
   35.4530   28.3950   49.2680 N   0  0  0  0  0  0  0  0  0  0  0  0
   38.2700   31.6440   46.3330 C   0  0  0  0  0  0  0  0  0  0  0  0
   38.9900   30.4590   46.1200 C   0  0  0  0  0  0  0  0  0  0  0  0
   39.2540   30.0220   44.8540 C   0  0  0  0  0  0  0  0  0  0  0  0
   38.8110   30.7500   43.8240 N   0  0  0  0  0  0  0  0  0  0  0  0
   38.1210   31.8860   43.9830 C   0  0  0  0  0  0  0  0  0  0  0  0
   37.8710   32.2980   45.2480 N   0  0  0  0  0  0  0  0  0  0  0  0
   37.6430   32.6700   42.8160 C   0  0  0  0  0  0  0  0  0  0  0  0
   36.3010   32.8290   42.6300 C   0  0  0  0  0  0  0  0  0  0  0  0
   35.9780   33.5700   41.5220 C   0  0  0  0  0  0  0  0  0  0  0  0
   36.9210   34.1140   40.6620 C   0  0  0  0  0  0  0  0  0  0  0  0
   38.2810   33.9100   40.9190 C   0  0  0  0  0  0  0  0  0  0  0  0
   38.6540   33.1700   42.0210 C   0  0  0  0  0  0  0  0  0  0  0  0
   37.8475   31.5244   50.7431 H   0  0  0  0  0  0  0  0  0  0  0  0
   39.2712   31.0278   49.8753 H   0  0  0  0  0  0  0  0  0  0  0  0
   37.8312   33.7691   49.7535 H   0  0  0  0  0  0  0  0  0  0  0  0
   39.4765   33.5416   50.2341 H   0  0  0  0  0  0  0  0  0  0  0  0
   39.1253   34.0836   47.6538 H   0  0  0  0  0  0  0  0  0  0  0  0
   40.0639   32.6544   47.8712 H   0  0  0  0  0  0  0  0  0  0  0  0
   37.0067   32.8966   47.3443 H   0  0  0  0  0  0  0  0  0  0  0  0
   37.1744   29.1565   50.2134 H   0  0  0  0  0  0  0  0  0  0  0  0
   35.6142   31.4123   46.8465 H   0  0  0  0  0  0  0  0  0  0  0  0
   33.7301   27.8120   48.1651 H   0  0  0  0  0  0  0  0  0  0  0  0
   39.3456   29.8758   46.9822 H   0  0  0  0  0  0  0  0  0  0  0  0
   39.8180   29.0927   44.6853 H   0  0  0  0  0  0  0  0  0  0  0  0
   35.5466   32.4018   43.3070 H   0  0  0  0  0  0  0  0  0  0  0  0
   34.9138   33.7423   41.3034 H   0  0  0  0  0  0  0  0  0  0  0  0
   36.6026   34.6997   39.7870 H   0  0  0  0  0  0  0  0  0  0  0  0
   39.0437   34.3349   40.2499 H   0  0  0  0  0  0  0  0  0  0  0  0
   39.7126   32.9860   42.2564 H   0  0  0  0  0  0  0  0  0  0  0  0
  1  2  1  0
  3  2  1  0
  4  3  1  0
  5  4  1  0
  5  1  1  0
  7  1  1  0
  7  6  2  0
  8  7  1  0
  9  8  2  0
  9 10  1  0
 10 11  2  0
 11  6  1  0
 12  5  1  0
 13 12  2  0
 14 13  1  0
 15 16  1  0
 15 14  2  0
 16 17  2  0
 17 12  1  0
 18 16  1  0
 19 18  2  0
 20 19  1  0
 21 22  1  0
 21 20  2  0
 22 23  2  0
 23 18  1  0
  2 24  1  0
  2 25  1  0
  3 26  1  0
  3 27  1  0
  4 28  1  0
  4 29  1  0
  5 30  1  6
  6 31  1  0
  8 32  1  0
 10 33  1  0
 13 34  1  0
 14 35  1  0
 19 36  1  0
 20 37  1  0
 21 38  1  0
 22 39  1  0
 23 40  1  0
M  ISO  8  24  13  25  13  26  13  27  13  28  13  29  13  30  13  31  14
M  ISO  8  32  14  33  14  34  14  35  14  36  14  37  14  38  14  39  14
M  ISO  1  40  14
M  END
>  <minimizedAffinity>  (1) 
-5.9213686

>  <minimizedRMSD>  (1) 
0.430589378

$$$$
