
     RDKit          3D

 39 42  0  0  1  0  0  0  0  0999 V2000
   37.5400   31.3780   48.6620 N   0  0  0  0  0  0  0  0  0  0  0  0
   38.3920   31.6590   49.8000 C   0  0  0  0  0  0  0  0  0  0  0  0
   38.7100   33.1180   49.5830 C   0  0  0  0  0  0  0  0  0  0  0  0
   39.0560   33.0860   48.1130 C   0  0  0  0  0  0  0  0  0  0  0  0
   37.8880   32.2820   47.5990 C   0  0  1  0  0  0  0  0  0  0  0  0
   36.4380   29.2860   49.4230 C   0  0  0  0  0  0  0  0  0  0  0  0
   36.5360   30.3950   48.5740 C   0  0  0  0  0  0  0  0  0  0  0  0
   35.5660   30.5520   47.5490 C   0  0  0  0  0  0  0  0  0  0  0  0
   34.5870   29.6110   47.4440 N   0  0  0  0  0  0  0  0  0  0  0  0
   34.5270   28.5500   48.2870 C   0  0  0  0  0  0  0  0  0  0  0  0
   35.4530   28.3870   49.2760 N   0  0  0  0  0  0  0  0  0  0  0  0
   38.2700   31.6410   46.3460 C   0  0  0  0  0  0  0  0  0  0  0  0
   38.9910   30.4550   46.1330 C   0  0  0  0  0  0  0  0  0  0  0  0
   39.2570   30.0290   44.8640 C   0  0  0  0  0  0  0  0  0  0  0  0
   38.8290   30.7440   43.8450 N   0  0  0  0  0  0  0  0  0  0  0  0
   38.1300   31.8960   43.9960 C   0  0  0  0  0  0  0  0  0  0  0  0
   37.8760   32.2990   45.2620 N   0  0  0  0  0  0  0  0  0  0  0  0
   37.6570   32.6860   42.8440 C   0  0  0  0  0  0  0  0  0  0  0  0
   38.6260   33.1720   41.9950 C   0  0  0  0  0  0  0  0  0  0  0  0
   38.1310   33.9100   40.9240 C   0  0  0  0  0  0  0  0  0  0  0  0
   36.7890   34.1520   40.7040 C   0  0  0  0  0  0  0  0  0  0  0  0
   35.9280   33.6040   41.6340 C   0  0  0  0  0  0  0  0  0  0  0  0
   36.3260   32.8780   42.6980 N   0  0  0  0  0  0  0  0  0  0  0  0
   37.8598   31.5004   50.7495 H   0  0  0  0  0  0  0  0  0  0  0  0
   39.2786   31.0115   49.8679 H   0  0  0  0  0  0  0  0  0  0  0  0
   37.8409   33.7612   49.7854 H   0  0  0  0  0  0  0  0  0  0  0  0
   39.4932   33.5273   50.2380 H   0  0  0  0  0  0  0  0  0  0  0  0
   39.0834   34.0951   47.6760 H   0  0  0  0  0  0  0  0  0  0  0  0
   40.0481   32.6749   47.8747 H   0  0  0  0  0  0  0  0  0  0  0  0
   36.9990   32.8808   47.3519 H   0  0  0  0  0  0  0  0  0  0  0  0
   37.1803   29.1496   50.2232 H   0  0  0  0  0  0  0  0  0  0  0  0
   35.6041   31.4086   46.8599 H   0  0  0  0  0  0  0  0  0  0  0  0
   33.7207   27.8107   48.1718 H   0  0  0  0  0  0  0  0  0  0  0  0
   39.3431   29.8665   46.9931 H   0  0  0  0  0  0  0  0  0  0  0  0
   39.8217   29.1003   44.6949 H   0  0  0  0  0  0  0  0  0  0  0  0
   39.7001   32.9922   42.1501 H   0  0  0  0  0  0  0  0  0  0  0  0
   38.8540   34.3269   40.2075 H   0  0  0  0  0  0  0  0  0  0  0  0
   36.4308   34.7409   39.8467 H   0  0  0  0  0  0  0  0  0  0  0  0
   34.8492   33.7703   41.4982 H   0  0  0  0  0  0  0  0  0  0  0  0
  1  2  1  0
  3  2  1  0
  4  3  1  0
  5  4  1  0
  5  1  1  0
  7  1  1  0
  7  6  2  0
  8  7  1  0
  9  8  2  0
  9 10  1  0
 10 11  2  0
 11  6  1  0
 12  5  1  0
 13 12  2  0
 14 13  1  0
 15 16  1  0
 15 14  2  0
 16 17  2  0
 17 12  1  0
 18 16  1  0
 19 18  2  0
 20 19  1  0
 21 20  2  0
 21 22  1  0
 22 23  2  0
 23 18  1  0
  2 24  1  0
  2 25  1  0
  3 26  1  0
  3 27  1  0
  4 28  1  0
  4 29  1  0
  5 30  1  6
  6 31  1  0
  8 32  1  0
 10 33  1  0
 13 34  1  0
 14 35  1  0
 19 36  1  0
 20 37  1  0
 21 38  1  0
 22 39  1  0
M  ISO  8  24  13  25  13  26  13  27  13  28  13  29  13  30  13  31  14
M  ISO  8  32  14  33  14  34  14  35  14  36  14  37  14  38  14  39  14
M  END
>  <minimizedAffinity>  (1) 
-5.91674042

>  <minimizedRMSD>  (1) 
0.35367468

$$$$
