
     RDKit          3D

 31 33  0  0  1  0  0  0  0  0999 V2000
   37.5470   31.3680   48.6540 N   0  0  0  0  0  0  0  0  0  0  0  0
   38.4210   31.6380   49.7820 C   0  0  0  0  0  0  0  0  0  0  0  0
   38.7420   33.0850   49.5790 C   0  0  0  0  0  0  0  0  0  0  0  0
   39.0530   33.0850   48.0950 C   0  0  0  0  0  0  0  0  0  0  0  0
   37.8780   32.2840   47.5950 C   0  0  1  0  0  0  0  0  0  0  0  0
   36.4370   29.2770   49.4280 C   0  0  0  0  0  0  0  0  0  0  0  0
   36.5360   30.3920   48.5650 C   0  0  0  0  0  0  0  0  0  0  0  0
   35.5700   30.5450   47.5490 C   0  0  0  0  0  0  0  0  0  0  0  0
   34.5880   29.6060   47.4530 N   0  0  0  0  0  0  0  0  0  0  0  0
   34.5280   28.5450   48.3050 C   0  0  0  0  0  0  0  0  0  0  0  0
   35.4560   28.3840   49.2920 N   0  0  0  0  0  0  0  0  0  0  0  0
   38.2410   31.6510   46.3310 C   0  0  0  0  0  0  0  0  0  0  0  0
   39.0220   30.5110   46.0930 C   0  0  0  0  0  0  0  0  0  0  0  0
   39.2530   30.0860   44.8160 C   0  0  0  0  0  0  0  0  0  0  0  0
   38.7290   30.7690   43.8030 N   0  0  0  0  0  0  0  0  0  0  0  0
   37.9810   31.8580   43.9930 C   0  0  0  0  0  0  0  0  0  0  0  0
   37.7560   32.2720   45.2590 N   0  0  0  0  0  0  0  0  0  0  0  0
   37.4620   32.5260   42.8820 O   0  0  0  0  0  0  0  0  0  0  0  0
   37.9036   31.4726   50.7385 H   0  0  0  0  0  0  0  0  0  0  0  0
   39.3063   30.9867   49.8262 H   0  0  0  0  0  0  0  0  0  0  0  0
   37.8828   33.7300   49.8152 H   0  0  0  0  0  0  0  0  0  0  0  0
   39.5477   33.4732   50.2194 H   0  0  0  0  0  0  0  0  0  0  0  0
   39.0632   34.1028   47.6778 H   0  0  0  0  0  0  0  0  0  0  0  0
   40.0414   32.6858   47.8236 H   0  0  0  0  0  0  0  0  0  0  0  0
   36.9857   32.8865   47.3695 H   0  0  0  0  0  0  0  0  0  0  0  0
   37.1823   29.1435   50.2259 H   0  0  0  0  0  0  0  0  0  0  0  0
   35.6084   31.3973   46.8547 H   0  0  0  0  0  0  0  0  0  0  0  0
   33.7195   27.8072   48.1957 H   0  0  0  0  0  0  0  0  0  0  0  0
   39.4512   29.9557   46.9400 H   0  0  0  0  0  0  0  0  0  0  0  0
   39.8642   29.1909   44.6281 H   0  0  0  0  0  0  0  0  0  0  0  0
   36.9054   33.3352   43.0064 H   0  0  0  0  0  0  0  0  0  0  0  0
  1  2  1  0
  3  2  1  0
  4  3  1  0
  5  4  1  0
  5  1  1  0
  7  1  1  0
  7  6  2  0
  8  7  1  0
  9  8  2  0
  9 10  1  0
 10 11  2  0
 11  6  1  0
 12  5  1  0
 13 12  2  0
 14 13  1  0
 15 16  1  0
 15 14  2  0
 16 17  2  0
 17 12  1  0
 18 16  1  0
  2 19  1  0
  2 20  1  0
  3 21  1  0
  3 22  1  0
  4 23  1  0
  4 24  1  0
  5 25  1  6
  6 26  1  0
  8 27  1  0
 10 28  1  0
 13 29  1  0
 14 30  1  0
 18 31  1  0
M  ISO  8  19  13  20  13  21  13  22  13  23  13  24  13  25  13  26  14
M  ISO  5  27  14  28  14  29  14  30  14  31   3
M  END
>  <minimizedAffinity>  (1) 
-5.20792866

>  <minimizedRMSD>  (1) 
0.0306693763

$$$$
