
     RDKit          3D

 30 32  0  0  0  0  0  0  0  0999 V2000
   37.5190   31.5930   48.4110 N   0  0  0  0  0  0  0  0  0  0  0  0
   37.6940   32.5400   49.3620 C   0  0  0  0  0  0  0  0  0  0  0  0
   38.6450   33.4190   49.0270 N   0  0  0  0  0  0  0  0  0  0  0  0
   39.1150   33.0410   47.8160 C   0  0  0  0  0  0  0  0  0  0  0  0
   40.0690   33.5100   46.9510 C   0  0  0  0  0  0  0  0  0  0  0  0
   40.3600   32.9370   45.7620 N   0  0  0  0  0  0  0  0  0  0  0  0
   39.6450   31.8380   45.4490 C   0  0  0  0  0  0  0  0  0  0  0  0
   38.7120   31.3700   46.2830 N   0  0  0  0  0  0  0  0  0  0  0  0
   38.3940   31.9060   47.4660 C   0  0  0  0  0  0  0  0  0  0  0  0
   35.5940   30.4570   47.4980 C   0  0  0  0  0  0  0  0  0  0  0  0
   36.6020   30.5390   48.4660 C   0  0  0  0  0  0  0  0  0  0  0  0
   36.6710   29.5700   49.4640 C   0  0  0  0  0  0  0  0  0  0  0  0
   35.7210   28.5790   49.4240 N   0  0  0  0  0  0  0  0  0  0  0  0
   34.7590   28.5160   48.4860 C   0  0  0  0  0  0  0  0  0  0  0  0
   34.6980   29.4420   47.5380 N   0  0  0  0  0  0  0  0  0  0  0  0
   33.8010   27.3660   48.5920 C   0  0  0  0  0  0  0  0  0  0  0  0
   32.3780   27.9320   48.6910 C   0  0  0  0  0  0  0  0  0  0  0  0
   33.8170   26.4740   47.3920 C   0  0  0  0  0  0  0  0  0  0  0  0
   37.1214   32.5819   50.3003 H   0  0  0  0  0  0  0  0  0  0  0  0
   40.6328   34.4084   47.2425 H   0  0  0  0  0  0  0  0  0  0  0  0
   39.8318   31.3207   44.4963 H   0  0  0  0  0  0  0  0  0  0  0  0
   35.5296   31.2167   46.7051 H   0  0  0  0  0  0  0  0  0  0  0  0
   37.4463   29.5970   50.2439 H   0  0  0  0  0  0  0  0  0  0  0  0
   34.1037   26.7797   49.4721 H   0  0  0  0  0  0  0  0  0  0  0  0
   32.1002   28.0425   49.7496 H   0  0  0  0  0  0  0  0  0  0  0  0
   32.3389   28.9141   48.1972 H   0  0  0  0  0  0  0  0  0  0  0  0
   31.6750   27.2450   48.1972 H   0  0  0  0  0  0  0  0  0  0  0  0
   33.8358   25.4231   47.7165 H   0  0  0  0  0  0  0  0  0  0  0  0
   32.9155   26.6552   46.7884 H   0  0  0  0  0  0  0  0  0  0  0  0
   34.7115   26.6875   46.7884 H   0  0  0  0  0  0  0  0  0  0  0  0
  1 11  1  0
  1  2  1  0
  3  2  2  0
  4  3  1  0
  5  4  2  0
  6  5  1  0
  7  6  2  0
  7  8  1  0
  8  9  2  0
  9  4  1  0
  9  1  1  0
 10 15  2  0
 10 11  1  0
 11 12  2  0
 13 12  1  0
 14 16  1  0
 14 13  2  0
 15 14  1  0
 16 17  1  0
 18 16  1  0
  2 19  1  0
  5 20  1  0
  7 21  1  0
 10 22  1  0
 12 23  1  0
 16 24  1  0
 17 25  1  0
 17 26  1  0
 17 27  1  0
 18 28  1  0
 18 29  1  0
 18 30  1  0
M  ISO  8  19  14  20  14  21  14  22  14  23  14  24   8  25   8  26   8
M  ISO  4  27   8  28   8  29   8  30   8
M  END
>  <minimizedAffinity>  (1) 
-5.20765924

>  <minimizedRMSD>  (1) 
2.26306438

$$$$
