
     RDKit          3D

 22 24  0  0  0  0  0  0  0  0999 V2000
   38.5310   32.1050   48.4000 N   0  0  0  0  0  0  0  0  0  0  0  0
   39.0000   33.3410   48.6470 C   0  0  0  0  0  0  0  0  0  0  0  0
   39.7520   33.8120   47.6510 N   0  0  0  0  0  0  0  0  0  0  0  0
   39.7810   32.8490   46.7090 C   0  0  0  0  0  0  0  0  0  0  0  0
   40.3640   32.7040   45.4710 C   0  0  0  0  0  0  0  0  0  0  0  0
   40.2500   31.6200   44.6900 N   0  0  0  0  0  0  0  0  0  0  0  0
   39.4900   30.6140   45.2070 C   0  0  0  0  0  0  0  0  0  0  0  0
   38.9210   30.7360   46.3990 N   0  0  0  0  0  0  0  0  0  0  0  0
   39.0170   31.8020   47.2000 C   0  0  0  0  0  0  0  0  0  0  0  0
   36.3980   31.0460   48.8600 C   0  0  0  0  0  0  0  0  0  0  0  0
   37.7220   31.3470   49.2410 C   0  0  0  0  0  0  0  0  0  0  0  0
   38.1800   30.8690   50.4600 C   0  0  0  0  0  0  0  0  0  0  0  0
   37.3170   30.1280   51.2280 N   0  0  0  0  0  0  0  0  0  0  0  0
   36.0580   29.8590   50.8350 C   0  0  0  0  0  0  0  0  0  0  0  0
   35.6000   30.3130   49.6610 N   0  0  0  0  0  0  0  0  0  0  0  0
   35.2780   29.0940   51.7060 O   0  0  0  0  0  0  0  0  0  0  0  0
   38.7869   33.9019   49.5690 H   0  0  0  0  0  0  0  0  0  0  0  0
   40.9696   33.5410   45.0933 H   0  0  0  0  0  0  0  0  0  0  0  0
   39.3466   29.6893   44.6287 H   0  0  0  0  0  0  0  0  0  0  0  0
   36.0122   31.4139   47.8978 H   0  0  0  0  0  0  0  0  0  0  0  0
   39.2047   31.0777   50.8011 H   0  0  0  0  0  0  0  0  0  0  0  0
   34.3448   28.8674   51.4654 H   0  0  0  0  0  0  0  0  0  0  0  0
  1  2  1  0
  1 11  1  0
  3  2  2  0
  4  9  2  0
  4  3  1  0
  5  4  1  0
  6  7  1  0
  6  5  2  0
  7  8  2  0
  8  9  1  0
  9  1  1  0
 10 11  2  0
 10 15  1  0
 11 12  1  0
 12 13  2  0
 14 13  1  0
 14 16  1  0
 15 14  2  0
  2 17  1  0
  5 18  1  0
  7 19  1  0
 10 20  1  0
 12 21  1  0
 16 22  1  0
M  ISO  6  17  14  18  14  19  14  20  14  21  14  22   3
M  END
>  <minimizedAffinity>  (1) 
-5.11081839

>  <minimizedRMSD>  (1) 
0.927930892

$$$$
