
     RDKit          3D

 33 35  0  0  0  0  0  0  0  0999 V2000
   36.6670   31.0570   48.5010 N   0  0  0  0  0  0  0  0  0  0  0  0
   36.9560   31.6810   49.6670 C   0  0  0  0  0  0  0  0  0  0  0  0
   38.0120   32.4970   49.5430 N   0  0  0  0  0  0  0  0  0  0  0  0
   38.4220   32.4080   48.2710 C   0  0  0  0  0  0  0  0  0  0  0  0
   39.4230   32.9710   47.5120 C   0  0  0  0  0  0  0  0  0  0  0  0
   39.6410   32.7130   46.2070 N   0  0  0  0  0  0  0  0  0  0  0  0
   38.7900   31.8340   45.6400 C   0  0  0  0  0  0  0  0  0  0  0  0
   37.8090   31.2710   46.3480 N   0  0  0  0  0  0  0  0  0  0  0  0
   37.5620   31.4980   47.6340 C   0  0  0  0  0  0  0  0  0  0  0  0
   34.6270   30.4070   47.3730 C   0  0  0  0  0  0  0  0  0  0  0  0
   35.6300   30.1480   48.3030 C   0  0  0  0  0  0  0  0  0  0  0  0
   35.5570   28.9620   49.0190 C   0  0  0  0  0  0  0  0  0  0  0  0
   34.5060   28.1210   48.7670 N   0  0  0  0  0  0  0  0  0  0  0  0
   33.5570   28.3970   47.8650 C   0  0  0  0  0  0  0  0  0  0  0  0
   33.6170   29.5470   47.1650 N   0  0  0  0  0  0  0  0  0  0  0  0
   32.4730   27.3950   47.6930 C   0  0  0  0  0  0  0  0  0  0  0  0
   32.9960   25.9880   47.6790 C   0  0  0  0  0  0  0  0  0  0  0  0
   31.7280   27.6090   46.3860 C   0  0  0  0  0  0  0  0  0  0  0  0
   31.4470   27.4780   48.8010 C   0  0  0  0  0  0  0  0  0  0  0  0
   36.3935   31.5362   50.6011 H   0  0  0  0  0  0  0  0  0  0  0  0
   40.0961   33.6857   48.0081 H   0  0  0  0  0  0  0  0  0  0  0  0
   38.9063   31.5769   44.5768 H   0  0  0  0  0  0  0  0  0  0  0  0
   34.6628   31.3410   46.7931 H   0  0  0  0  0  0  0  0  0  0  0  0
   36.3211   28.7046   49.7673 H   0  0  0  0  0  0  0  0  0  0  0  0
   33.1271   25.6353   48.7126 H   0  0  0  0  0  0  0  0  0  0  0  0
   32.2802   25.3359   47.1571 H   0  0  0  0  0  0  0  0  0  0  0  0
   33.9639   25.9618   47.1571 H   0  0  0  0  0  0  0  0  0  0  0  0
   30.6909   27.9069   46.5996 H   0  0  0  0  0  0  0  0  0  0  0  0
   32.2249   28.4007   45.8061 H   0  0  0  0  0  0  0  0  0  0  0  0
   31.7289   26.6743   45.8061 H   0  0  0  0  0  0  0  0  0  0  0  0
   31.9556   27.4369   49.7755 H   0  0  0  0  0  0  0  0  0  0  0  0
   30.8920   28.4240   48.7167 H   0  0  0  0  0  0  0  0  0  0  0  0
   30.7472   26.6335   48.7167 H   0  0  0  0  0  0  0  0  0  0  0  0
  1  2  1  0
  3  2  2  0
  4  3  1  0
  5  4  2  0
  6  5  1  0
  7  6  2  0
  7  8  1  0
  8  9  2  0
  9  4  1  0
  9  1  1  0
 10 11  2  0
 11  1  1  0
 11 12  1  0
 13 12  2  0
 14 13  1  0
 15 10  1  0
 15 14  2  0
 16 14  1  0
 16 19  1  0
 17 16  1  0
 18 16  1  0
  2 20  1  0
  5 21  1  0
  7 22  1  0
 10 23  1  0
 12 24  1  0
 17 25  1  0
 17 26  1  0
 17 27  1  0
 18 28  1  0
 18 29  1  0
 18 30  1  0
 19 31  1  0
 19 32  1  0
 19 33  1  0
M  ISO  8  20  14  21  14  22  14  23  14  24  14  25   8  26   8  27   8
M  ISO  6  28   8  29   8  30   8  31   8  32   8  33   8
M  END
>  <minimizedAffinity>  (1) 
-5.06569958

>  <minimizedRMSD>  (1) 
3.10430765

$$$$
