
     RDKit          3D

 23 25  0  0  0  0  0  0  0  0999 V2000
   38.3690   31.5260   47.3720 N   0  0  0  0  0  0  0  0  0  0  0  0
   38.8620   32.6660   47.8830 C   0  0  0  0  0  0  0  0  0  0  0  0
   39.7840   33.2200   47.0950 N   0  0  0  0  0  0  0  0  0  0  0  0
   39.9070   32.4210   46.0230 C   0  0  0  0  0  0  0  0  0  0  0  0
   40.6660   32.4340   44.8820 C   0  0  0  0  0  0  0  0  0  0  0  0
   40.6100   31.4870   43.9180 N   0  0  0  0  0  0  0  0  0  0  0  0
   39.7270   30.4800   44.1440 C   0  0  0  0  0  0  0  0  0  0  0  0
   38.9870   30.4630   45.2510 N   0  0  0  0  0  0  0  0  0  0  0  0
   39.0140   31.3680   46.2140 C   0  0  0  0  0  0  0  0  0  0  0  0
   36.1620   30.5330   47.3240 C   0  0  0  0  0  0  0  0  0  0  0  0
   37.3900   30.7040   47.9500 C   0  0  0  0  0  0  0  0  0  0  0  0
   37.6410   30.0500   49.1610 C   0  0  0  0  0  0  0  0  0  0  0  0
   36.6240   29.2640   49.6530 N   0  0  0  0  0  0  0  0  0  0  0  0
   35.4380   29.1170   49.0170 C   0  0  0  0  0  0  0  0  0  0  0  0
   35.2150   29.7480   47.8630 N   0  0  0  0  0  0  0  0  0  0  0  0
   34.4440   28.2450   49.6630 C   0  0  0  0  0  0  0  0  0  0  0  0
   33.2450   28.3950   49.3300 O   0  0  0  0  0  0  0  0  0  0  0  0
   38.5411   33.0946   48.8439 H   0  0  0  0  0  0  0  0  0  0  0  0
   41.3671   33.2698   44.7409 H   0  0  0  0  0  0  0  0  0  0  0  0
   39.6222   29.6712   43.4059 H   0  0  0  0  0  0  0  0  0  0  0  0
   35.9622   31.0481   46.3728 H   0  0  0  0  0  0  0  0  0  0  0  0
   38.5988   30.1581   49.6910 H   0  0  0  0  0  0  0  0  0  0  0  0
   34.7412   27.4921   50.4079 H   0  0  0  0  0  0  0  0  0  0  0  0
  1  2  1  0
  1 11  1  0
  3  2  2  0
  4  9  2  0
  4  3  1  0
  5  4  1  0
  6  7  1  0
  6  5  2  0
  7  8  2  0
  8  9  1  0
  9  1  1  0
 10 15  2  0
 10 11  1  0
 11 12  2  0
 12 13  1  0
 14 13  2  0
 14 16  1  0
 15 14  1  0
 17 16  2  0
  2 18  1  0
  5 19  1  0
  7 20  1  0
 10 21  1  0
 12 22  1  0
 16 23  1  0
M  ISO  6  18  14  19  14  20  14  21  14  22  14  23   6
M  END
>  <minimizedAffinity>  (1) 
-4.97984171

>  <minimizedRMSD>  (1) 
1.83687282

$$$$
