
     RDKit          3D

 41 45  0  0  1  0  0  0  0  0999 V2000
   35.5650   30.3730   46.9700 C   0  0  0  0  0  0  0  0  0  0  0  0
   36.6630   30.4310   47.8050 C   0  0  0  0  0  0  0  0  0  0  0  0
   36.6640   29.6460   48.9570 C   0  0  0  0  0  0  0  0  0  0  0  0
   35.5540   28.8640   49.1780 N   0  0  0  0  0  0  0  0  0  0  0  0
   34.5190   28.8330   48.3570 C   0  0  0  0  0  0  0  0  0  0  0  0
   34.5190   29.5810   47.2550 N   0  0  0  0  0  0  0  0  0  0  0  0
   37.7550   31.2540   47.5080 N   0  0  0  0  0  0  0  0  0  0  0  0
   38.1810   32.3130   48.2390 C   0  0  0  0  0  0  0  0  0  0  0  0
   39.2470   32.8960   47.6950 N   0  0  0  0  0  0  0  0  0  0  0  0
   39.5420   32.1990   46.5610 C   0  0  0  0  0  0  0  0  0  0  0  0
   40.4930   32.3060   45.6030 C   0  0  0  0  0  0  0  0  0  0  0  0
   40.5810   31.4770   44.5510 N   0  0  0  0  0  0  0  0  0  0  0  0
   39.6420   30.4860   44.4810 C   0  0  0  0  0  0  0  0  0  0  0  0
   38.7150   30.3970   45.4320 N   0  0  0  0  0  0  0  0  0  0  0  0
   38.5960   31.1880   46.4760 C   0  0  0  0  0  0  0  0  0  0  0  0
   33.3490   27.9470   48.6980 C   0  0  2  0  0  0  0  0  0  0  0  0
   33.3310   26.6390   47.8370 C   0  0  0  0  0  0  0  0  0  0  0  0
   32.3040   27.6780   47.6960 C   0  0  1  0  0  0  0  0  0  0  0  0
   30.9320   27.4670   48.0610 N   0  0  0  0  0  0  0  0  0  0  0  0
   30.4640   27.4050   49.3250 C   0  0  0  0  0  0  0  0  0  0  0  0
   29.1420   27.2000   49.6540 C   0  0  0  0  0  0  0  0  0  0  0  0
   28.6730   27.1400   51.0510 C   0  0  0  0  0  0  0  0  0  0  0  0
   28.2310   27.0470   48.6100 C   0  0  0  0  0  0  0  0  0  0  0  0
   27.0040   26.8560   48.8040 O   0  0  0  0  0  0  0  0  0  0  0  0
   28.6930   27.1080   47.3450 N   0  0  0  0  0  0  0  0  0  0  0  0
   30.0050   27.3110   47.1010 C   0  0  0  0  0  0  0  0  0  0  0  0
   30.3860   27.3600   45.8980 O   0  0  0  0  0  0  0  0  0  0  0  0
   35.5469   30.9855   46.0565 H   0  0  0  0  0  0  0  0  0  0  0  0
   37.5128   29.6516   49.6567 H   0  0  0  0  0  0  0  0  0  0  0  0
   37.7030   32.6504   49.1705 H   0  0  0  0  0  0  0  0  0  0  0  0
   41.2327   33.1153   45.6916 H   0  0  0  0  0  0  0  0  0  0  0  0
   39.6524   29.7690   43.6468 H   0  0  0  0  0  0  0  0  0  0  0  0
   33.3089   28.2582   49.7523 H   0  0  0  0  0  0  0  0  0  0  0  0
   34.0782   26.4852   47.0445 H   0  0  0  0  0  0  0  0  0  0  0  0
   33.3379   25.5584   48.0424 H   0  0  0  0  0  0  0  0  0  0  0  0
   31.9236   28.2418   46.8314 H   0  0  0  0  0  0  0  0  0  0  0  0
   31.1853   27.5261   50.1466 H   0  0  0  0  0  0  0  0  0  0  0  0
   29.5308   27.2497   51.7308 H   0  0  0  0  0  0  0  0  0  0  0  0
   27.9552   27.9536   51.2321 H   0  0  0  0  0  0  0  0  0  0  0  0
   28.1832   26.1719   51.2321 H   0  0  0  0  0  0  0  0  0  0  0  0
   28.0386   26.9987   46.5571 H   0  0  0  0  0  0  0  0  0  0  0  0
  1  6  2  0
  1  2  1  0
  2  3  2  0
  3  4  1  0
  5 16  1  0
  5  4  2  0
  6  5  1  0
  7  2  1  0
  7  8  1  0
  9  8  2  0
 10  9  1  0
 11 10  2  0
 12 11  1  0
 13 12  2  0
 13 14  1  0
 14 15  2  0
 15 10  1  0
 15  7  1  0
 17 16  1  0
 18 17  1  0
 18 19  1  0
 18 16  1  0
 19 20  1  0
 20 21  2  0
 21 22  1  0
 23 24  2  0
 23 21  1  0
 25 23  1  0
 26 25  1  0
 26 19  1  0
 27 26  2  0
  1 28  1  0
  3 29  1  0
  8 30  1  0
 11 31  1  0
 13 32  1  0
 16 33  1  1
 17 34  1  0
 17 35  1  0
 18 36  1  6
 20 37  1  0
 22 38  1  0
 22 39  1  0
 22 40  1  0
 25 41  1  0
M  ISO  8  28  14  29  14  30  14  31  14  32  14  33  13  34  13  35  13
M  ISO  6  36  13  37  14  38   8  39   8  40   8  41   9
M  END
>  <minimizedAffinity>  (1) 
-7.04875088

>  <minimizedRMSD>  (1) 
1.48195791

$$$$
