
     RDKit          3D

 37 41  0  0  1  0  0  0  0  0999 V2000
   34.9670   30.3840   47.5040 C   0  0  0  0  0  0  0  0  0  0  0  0
   36.1250   30.2310   48.2680 C   0  0  0  0  0  0  0  0  0  0  0  0
   36.1400   29.2350   49.2420 C   0  0  0  0  0  0  0  0  0  0  0  0
   35.0020   28.4700   49.3820 N   0  0  0  0  0  0  0  0  0  0  0  0
   33.9210   28.6440   48.6400 C   0  0  0  0  0  0  0  0  0  0  0  0
   33.9010   29.5940   47.7070 N   0  0  0  0  0  0  0  0  0  0  0  0
   37.2250   31.0560   48.0500 N   0  0  0  0  0  0  0  0  0  0  0  0
   37.6350   32.0640   48.8590 C   0  0  0  0  0  0  0  0  0  0  0  0
   38.7210   32.6770   48.3870 N   0  0  0  0  0  0  0  0  0  0  0  0
   39.0410   32.0610   47.2360 C   0  0  0  0  0  0  0  0  0  0  0  0
   40.0170   32.2070   46.2970 C   0  0  0  0  0  0  0  0  0  0  0  0
   40.1340   31.4420   45.1920 N   0  0  0  0  0  0  0  0  0  0  0  0
   39.1960   30.4690   45.0360 C   0  0  0  0  0  0  0  0  0  0  0  0
   38.2330   30.3220   45.9560 N   0  0  0  0  0  0  0  0  0  0  0  0
   38.0880   31.0440   47.0400 C   0  0  0  0  0  0  0  0  0  0  0  0
   32.7290   27.7650   48.8830 C   0  0  2  0  0  0  0  0  0  0  0  0
   32.5480   26.6940   47.7490 C   0  0  0  0  0  0  0  0  0  0  0  0
   31.5780   27.7820   47.9670 C   0  0  1  0  0  0  0  0  0  0  0  0
   30.2180   27.4870   48.5190 C   0  0  0  0  0  0  0  0  0  0  0  0
   30.0190   27.6230   49.8950 C   0  0  0  0  0  0  0  0  0  0  0  0
   28.7920   27.3730   50.5170 C   0  0  0  0  0  0  0  0  0  0  0  0
   27.7880   26.9760   49.6380 C   0  0  0  0  0  0  0  0  0  0  0  0
   28.0030   26.8460   48.2860 C   0  0  0  0  0  0  0  0  0  0  0  0
   29.1930   27.0990   47.7590 N   0  0  0  0  0  0  0  0  0  0  0  0
   34.9275   31.1611   46.7264 H   0  0  0  0  0  0  0  0  0  0  0  0
   37.0244   29.0659   49.8739 H   0  0  0  0  0  0  0  0  0  0  0  0
   37.1304   32.3435   49.7956 H   0  0  0  0  0  0  0  0  0  0  0  0
   40.7605   33.0031   46.4502 H   0  0  0  0  0  0  0  0  0  0  0  0
   39.2280   29.8061   44.1588 H   0  0  0  0  0  0  0  0  0  0  0  0
   32.8042   27.8267   49.9787 H   0  0  0  0  0  0  0  0  0  0  0  0
   32.2855   25.6559   48.0010 H   0  0  0  0  0  0  0  0  0  0  0  0
   33.1490   26.3275   46.9037 H   0  0  0  0  0  0  0  0  0  0  0  0
   31.1523   28.5394   47.2923 H   0  0  0  0  0  0  0  0  0  0  0  0
   30.8674   27.9417   50.5184 H   0  0  0  0  0  0  0  0  0  0  0  0
   28.6345   27.4801   51.6004 H   0  0  0  0  0  0  0  0  0  0  0  0
   26.7871   26.7586   50.0393 H   0  0  0  0  0  0  0  0  0  0  0  0
   27.1768   26.5279   47.6332 H   0  0  0  0  0  0  0  0  0  0  0  0
  1  6  2  0
  1  2  1  0
  2  3  2  0
  3  4  1  0
  5 16  1  0
  5  4  2  0
  6  5  1  0
  7  2  1  0
  7  8  1  0
  9  8  2  0
 10  9  1  0
 11 10  2  0
 12 11  1  0
 13 12  2  0
 13 14  1  0
 14 15  2  0
 15 10  1  0
 15  7  1  0
 17 18  1  0
 17 16  1  0
 18 19  1  0
 18 16  1  0
 19 20  2  0
 20 21  1  0
 22 21  2  0
 23 22  1  0
 24 23  2  0
 24 19  1  0
  1 25  1  0
  3 26  1  0
  8 27  1  0
 11 28  1  0
 13 29  1  0
 16 30  1  1
 17 31  1  0
 17 32  1  0
 18 33  1  6
 20 34  1  0
 21 35  1  0
 22 36  1  0
 23 37  1  0
M  ISO  8  25  14  26  14  27  14  28  14  29  14  30  13  31  13  32  13
M  ISO  5  33  13  34  14  35  14  36  14  37  14
M  END
>  <minimizedAffinity>  (1) 
-6.49189949

>  <minimizedRMSD>  (1) 
1.30799949

$$$$
