
     RDKit          3D

 38 41  0  0  0  0  0  0  0  0999 V2000
   32.0930   28.1890   47.7420 C   0  0  0  0  0  0  0  0  0  0  0  0
   32.7650   28.9820   46.8710 C   0  0  0  0  0  0  0  0  0  0  0  0
   34.0060   29.5160   47.1600 C   0  0  0  0  0  0  0  0  0  0  0  0
   34.5980   29.2450   48.3650 C   0  0  0  0  0  0  0  0  0  0  0  0
   33.9000   28.4390   49.2320 C   0  0  0  0  0  0  0  0  0  0  0  0
   32.6670   27.9020   48.9610 C   0  0  0  0  0  0  0  0  0  0  0  0
   37.4880   31.1780   48.7400 C   0  0  0  0  0  0  0  0  0  0  0  0
   37.7940   30.1850   49.6640 C   0  0  0  0  0  0  0  0  0  0  0  0
   36.7600   29.2800   49.6880 C   0  0  0  0  0  0  0  0  0  0  0  0
   35.8600   29.7160   48.8050 N   0  0  0  0  0  0  0  0  0  0  0  0
   36.2840   30.8220   48.2510 N   0  0  0  0  0  0  0  0  0  0  0  0
   39.5300   34.2500   49.0440 C   0  0  0  0  0  0  0  0  0  0  0  0
   40.1470   34.2690   47.7940 C   0  0  0  0  0  0  0  0  0  0  0  0
   39.8600   33.2460   46.8820 C   0  0  0  0  0  0  0  0  0  0  0  0
   38.9850   32.2920   47.2850 N   0  0  0  0  0  0  0  0  0  0  0  0
   38.4010   32.2900   48.4890 C   0  0  0  0  0  0  0  0  0  0  0  0
   38.6580   33.2650   49.3960 N   0  0  0  0  0  0  0  0  0  0  0  0
   30.5200   27.5210   47.4060 S   0  0  0  0  0  0  0  0  0  0  0  0
   29.9630   28.1670   46.1700 O   0  0  0  0  0  0  0  0  0  0  0  0
   30.6680   26.0520   47.2070 O   0  0  0  0  0  0  0  0  0  0  0  0
   29.4530   27.7840   48.7770 C   0  0  0  0  0  0  0  0  0  0  0  0
   29.3890   26.9420   49.8680 C   0  0  0  0  0  0  0  0  0  0  0  0
   28.5030   27.2810   50.8630 C   0  0  0  0  0  0  0  0  0  0  0  0
   27.7140   28.3690   50.8250 N   0  0  0  0  0  0  0  0  0  0  0  0
   27.8030   29.1700   49.7440 C   0  0  0  0  0  0  0  0  0  0  0  0
   28.6610   28.8740   48.7410 N   0  0  0  0  0  0  0  0  0  0  0  0
   32.3048   29.2086   45.8979 H   0  0  0  0  0  0  0  0  0  0  0  0
   34.5165   30.1561   46.4254 H   0  0  0  0  0  0  0  0  0  0  0  0
   34.3591   28.2099   50.2050 H   0  0  0  0  0  0  0  0  0  0  0  0
   32.1530   27.2626   49.6938 H   0  0  0  0  0  0  0  0  0  0  0  0
   38.7088   30.1327   50.2727 H   0  0  0  0  0  0  0  0  0  0  0  0
   36.6887   28.3763   50.3111 H   0  0  0  0  0  0  0  0  0  0  0  0
   39.7532   35.0509   49.7642 H   0  0  0  0  0  0  0  0  0  0  0  0
   40.8477   35.0743   47.5286 H   0  0  0  0  0  0  0  0  0  0  0  0
   40.3231   33.2177   45.8846 H   0  0  0  0  0  0  0  0  0  0  0  0
   30.0173   26.0418   49.9384 H   0  0  0  0  0  0  0  0  0  0  0  0
   28.4356   26.6233   51.7421 H   0  0  0  0  0  0  0  0  0  0  0  0
   27.1739   30.0699   49.6773 H   0  0  0  0  0  0  0  0  0  0  0  0
  1  6  2  0
  2  3  2  0
  2  1  1  0
  3  4  1  0
  4 10  1  0
  4  5  2  0
  6  5  1  0
  7  8  1  0
  8  9  2  0
 10  9  1  0
 11  7  2  0
 11 10  1  0
 12 17  2  0
 13 12  1  0
 14 15  1  0
 14 13  2  0
 15 16  2  0
 16  7  1  0
 16 17  1  0
 18  1  1  0
 18 21  1  0
 19 18  2  0
 20 18  2  0
 21 22  2  0
 22 23  1  0
 24 23  2  0
 25 24  1  0
 26 21  1  0
 26 25  2  0
  2 27  1  0
  3 28  1  0
  5 29  1  0
  6 30  1  0
  8 31  1  0
  9 32  1  0
 12 33  1  0
 13 34  1  0
 14 35  1  0
 22 36  1  0
 23 37  1  0
 25 38  1  0
M  ISO  8  27  14  28  14  29  14  30  14  31  14  32  14  33  14  34  14
M  ISO  4  35  14  36  14  37  14  38  14
M  END
>  <minimizedAffinity>  (1) 
-6.86129189

>  <minimizedRMSD>  (1) 
3.78379178

$$$$
