
     RDKit          3D

 42 46  0  0  1  0  0  0  0  0999 V2000
   34.7940   30.4080   47.7890 C   0  0  0  0  0  0  0  0  0  0  0  0
   35.9250   30.2430   48.5970 C   0  0  0  0  0  0  0  0  0  0  0  0
   35.9790   29.1600   49.4430 C   0  0  0  0  0  0  0  0  0  0  0  0
   34.9060   28.3000   49.4390 N   0  0  0  0  0  0  0  0  0  0  0  0
   33.8420   28.4770   48.6630 C   0  0  0  0  0  0  0  0  0  0  0  0
   33.7770   29.5300   47.8320 N   0  0  0  0  0  0  0  0  0  0  0  0
   36.9600   31.1800   48.5200 N   0  0  0  0  0  0  0  0  0  0  0  0
   37.3020   32.0620   49.4950 C   0  0  0  0  0  0  0  0  0  0  0  0
   38.3310   32.8350   49.1350 N   0  0  0  0  0  0  0  0  0  0  0  0
   38.6800   32.4530   47.8880 C   0  0  0  0  0  0  0  0  0  0  0  0
   39.6260   32.8310   46.9730 C   0  0  0  0  0  0  0  0  0  0  0  0
   39.7870   32.2860   45.7570 N   0  0  0  0  0  0  0  0  0  0  0  0
   38.9240   31.2870   45.4440 C   0  0  0  0  0  0  0  0  0  0  0  0
   37.9930   30.9060   46.3240 N   0  0  0  0  0  0  0  0  0  0  0  0
   37.8080   31.4220   47.5340 C   0  0  0  0  0  0  0  0  0  0  0  0
   32.7240   27.4850   48.7430 C   0  0  2  0  0  0  0  0  0  0  0  0
   32.5350   26.6920   47.4030 C   0  0  0  0  0  0  0  0  0  0  0  0
   31.5220   27.6240   47.9080 C   0  0  1  0  0  0  0  0  0  0  0  0
   30.2950   27.1270   48.5500 N   0  0  0  0  0  0  0  0  0  0  0  0
   30.1170   27.8620   49.7640 C   0  0  0  0  0  0  0  0  0  0  0  0
   28.6820   27.8600   50.2460 C   0  0  0  0  0  0  0  0  0  0  0  0
   27.9860   26.7280   49.7020 N   0  0  0  0  0  0  0  0  0  0  0  0
   27.8950   26.9250   48.2640 C   0  0  0  0  0  0  0  0  0  0  0  0
   29.2080   27.2130   47.6170 C   0  0  0  0  0  0  0  0  0  0  0  0
   34.7365   31.2699   47.1080 H   0  0  0  0  0  0  0  0  0  0  0  0
   36.8465   28.9885   50.0972 H   0  0  0  0  0  0  0  0  0  0  0  0
   36.7917   32.1317   50.4670 H   0  0  0  0  0  0  0  0  0  0  0  0
   40.3081   33.6459   47.2570 H   0  0  0  0  0  0  0  0  0  0  0  0
   38.9906   30.7901   44.4649 H   0  0  0  0  0  0  0  0  0  0  0  0
   32.8633   27.3015   49.8186 H   0  0  0  0  0  0  0  0  0  0  0  0
   32.3505   25.6077   47.4200 H   0  0  0  0  0  0  0  0  0  0  0  0
   33.1030   26.5723   46.4686 H   0  0  0  0  0  0  0  0  0  0  0  0
   31.0014   28.4483   47.3987 H   0  0  0  0  0  0  0  0  0  0  0  0
   30.7501   27.4123   50.5431 H   0  0  0  0  0  0  0  0  0  0  0  0
   30.3973   28.9065   49.5629 H   0  0  0  0  0  0  0  0  0  0  0  0
   28.6662   27.8046   51.3445 H   0  0  0  0  0  0  0  0  0  0  0  0
   28.1867   28.7841   49.9134 H   0  0  0  0  0  0  0  0  0  0  0  0
   28.5062   25.8629   49.9068 H   0  0  0  0  0  0  0  0  0  0  0  0
   27.4780   26.0122   47.8135 H   0  0  0  0  0  0  0  0  0  0  0  0
   27.2539   27.8034   48.0984 H   0  0  0  0  0  0  0  0  0  0  0  0
   29.3739   26.4845   46.8096 H   0  0  0  0  0  0  0  0  0  0  0  0
   29.1764   28.2401   47.2244 H   0  0  0  0  0  0  0  0  0  0  0  0
  1  6  2  0
  1  2  1  0
  2  3  2  0
  4  3  1  0
  5 16  1  0
  5  4  2  0
  6  5  1  0
  7  2  1  0
  7  8  1  0
  9  8  2  0
 10  9  1  0
 11 10  2  0
 12 11  1  0
 13 12  2  0
 13 14  1  0
 14 15  2  0
 15 10  1  0
 15  7  1  0
 17 18  1  0
 17 16  1  0
 18 19  1  0
 18 16  1  0
 19 20  1  0
 20 21  1  0
 22 21  1  0
 23 22  1  0
 24 23  1  0
 24 19  1  0
  1 25  1  0
  3 26  1  0
  8 27  1  0
 11 28  1  0
 13 29  1  0
 16 30  1  1
 17 31  1  0
 17 32  1  0
 18 33  1  6
 20 34  1  0
 20 35  1  0
 21 36  1  0
 21 37  1  0
 22 38  1  0
 23 39  1  0
 23 40  1  0
 24 41  1  0
 24 42  1  0
M  ISO  8  25  14  26  14  27  14  28  14  29  14  30  13  31  13  32  13
M  ISO  8  33  13  34  13  35  13  36  13  37  13  38   5  39  13  40  13
M  ISO  2  41  13  42  13
M  END
>  <minimizedAffinity>  (1) 
-6.20919323

>  <minimizedRMSD>  (1) 
1.60294867

$$$$
