
     RDKit          3D

 35 39  0  0  1  0  0  0  0  0999 V2000
   35.8680   30.4360   47.0950 C   0  0  0  0  0  0  0  0  0  0  0  0
   37.0280   30.5530   47.8710 C   0  0  0  0  0  0  0  0  0  0  0  0
   37.1130   29.7990   49.0190 C   0  0  0  0  0  0  0  0  0  0  0  0
   36.0530   28.9740   49.3340 N   0  0  0  0  0  0  0  0  0  0  0  0
   34.9700   28.8830   48.5810 C   0  0  0  0  0  0  0  0  0  0  0  0
   34.8880   29.6050   47.4830 N   0  0  0  0  0  0  0  0  0  0  0  0
   38.0540   31.4130   47.4810 N   0  0  0  0  0  0  0  0  0  0  0  0
   38.4660   32.5170   48.1500 C   0  0  0  0  0  0  0  0  0  0  0  0
   39.4730   33.1340   47.5230 N   0  0  0  0  0  0  0  0  0  0  0  0
   39.7330   32.4080   46.4000 C   0  0  0  0  0  0  0  0  0  0  0  0
   40.6240   32.5320   45.3880 C   0  0  0  0  0  0  0  0  0  0  0  0
   40.6970   31.6580   44.3480 N   0  0  0  0  0  0  0  0  0  0  0  0
   39.8110   30.6300   44.3740 C   0  0  0  0  0  0  0  0  0  0  0  0
   38.9370   30.5190   45.3780 N   0  0  0  0  0  0  0  0  0  0  0  0
   38.8350   31.3400   46.3990 C   0  0  0  0  0  0  0  0  0  0  0  0
   33.8650   27.9830   48.9850 C   0  0  2  0  0  0  0  0  0  0  0  0
   33.6900   26.7420   48.0470 C   0  0  0  0  0  0  0  0  0  0  0  0
   32.6600   27.7780   48.1550 C   0  0  2  0  0  0  0  0  0  0  0  0
   32.3970   28.5220   46.9030 C   0  0  0  0  0  0  0  0  0  0  0  0
   32.4510   28.1750   45.5470 C   0  0  0  0  0  0  0  0  0  0  0  0
   32.1330   29.2140   44.7800 N   0  0  0  0  0  0  0  0  0  0  0  0
   31.8660   30.2540   45.5620 C   0  0  0  0  0  0  0  0  0  0  0  0
   32.0300   29.8170   46.8230 N   0  0  0  0  0  0  0  0  0  0  0  0
   35.7605   31.0230   46.1709 H   0  0  0  0  0  0  0  0  0  0  0  0
   38.0004   29.8525   49.6668 H   0  0  0  0  0  0  0  0  0  0  0  0
   38.0247   32.8642   49.0959 H   0  0  0  0  0  0  0  0  0  0  0  0
   41.3231   33.3810   45.4077 H   0  0  0  0  0  0  0  0  0  0  0  0
   39.8128   29.8850   43.5647 H   0  0  0  0  0  0  0  0  0  0  0  0
   33.9997   28.2236   50.0499 H   0  0  0  0  0  0  0  0  0  0  0  0
   33.5191   25.7430   48.4746 H   0  0  0  0  0  0  0  0  0  0  0  0
   34.2658   26.2856   47.2283 H   0  0  0  0  0  0  0  0  0  0  0  0
   31.5984   27.8301   48.4384 H   0  0  0  0  0  0  0  0  0  0  0  0
   32.7200   27.1781   45.1678 H   0  0  0  0  0  0  0  0  0  0  0  0
   31.5713   31.2648   45.2435 H   0  0  0  0  0  0  0  0  0  0  0  0
   31.8886   30.4149   47.6497 H   0  0  0  0  0  0  0  0  0  0  0  0
  1  6  2  0
  1  2  1  0
  2  3  2  0
  3  4  1  0
  5 16  1  0
  5  4  2  0
  6  5  1  0
  7  2  1  0
  7  8  1  0
  9  8  2  0
 10  9  1  0
 11 10  2  0
 12 13  2  0
 12 11  1  0
 13 14  1  0
 14 15  2  0
 15 10  1  0
 15  7  1  0
 17 18  1  0
 17 16  1  0
 18 16  1  0
 19 18  1  0
 20 19  2  0
 21 20  1  0
 21 22  2  0
 22 23  1  0
 23 19  1  0
  1 24  1  0
  3 25  1  0
  8 26  1  0
 11 27  1  0
 13 28  1  0
 16 29  1  1
 17 30  1  0
 17 31  1  0
 18 32  1  1
 20 33  1  0
 22 34  1  0
 23 35  1  0
M  ISO  8  24  14  25  14  26  14  27  14  28  14  29  13  30  13  31  13
M  ISO  4  32  13  33  14  34  14  35   9
M  END
>  <minimizedAffinity>  (1) 
-5.96310568

>  <minimizedRMSD>  (1) 
0.326662242

$$$$
