
     RDKit          3D

 40 43  0  0  1  0  0  0  0  0999 V2000
   35.8050   30.4780   46.9480 C   0  0  0  0  0  0  0  0  0  0  0  0
   36.9240   30.5810   47.7480 C   0  0  0  0  0  0  0  0  0  0  0  0
   36.9560   29.8270   48.9160 C   0  0  0  0  0  0  0  0  0  0  0  0
   35.8680   29.0320   49.1860 N   0  0  0  0  0  0  0  0  0  0  0  0
   34.8080   28.9560   48.3960 C   0  0  0  0  0  0  0  0  0  0  0  0
   34.7710   29.6820   47.2670 N   0  0  0  0  0  0  0  0  0  0  0  0
   37.9950   31.4130   47.4060 N   0  0  0  0  0  0  0  0  0  0  0  0
   38.4320   32.4800   48.1030 C   0  0  0  0  0  0  0  0  0  0  0  0
   39.4750   33.0740   47.5220 N   0  0  0  0  0  0  0  0  0  0  0  0
   39.7320   32.3620   46.3930 C   0  0  0  0  0  0  0  0  0  0  0  0
   40.6530   32.4700   45.4000 C   0  0  0  0  0  0  0  0  0  0  0  0
   40.7170   31.6230   44.3500 N   0  0  0  0  0  0  0  0  0  0  0  0
   39.7850   30.6240   44.3300 C   0  0  0  0  0  0  0  0  0  0  0  0
   38.8880   30.5320   45.3100 N   0  0  0  0  0  0  0  0  0  0  0  0
   38.7950   31.3340   46.3460 C   0  0  0  0  0  0  0  0  0  0  0  0
   33.6730   28.0620   48.7840 C   0  0  2  0  0  0  0  0  0  0  0  0
   33.6110   26.7670   47.9140 C   0  0  0  0  0  0  0  0  0  0  0  0
   32.5740   27.8050   47.8430 C   0  0  1  0  0  0  0  0  0  0  0  0
   31.1930   27.4700   48.2160 C   0  0  0  0  0  0  0  0  0  0  0  0
   30.1890   28.1420   47.2770 C   0  0  0  0  0  0  0  0  0  0  0  0
   30.9830   25.9790   48.0580 C   0  0  0  0  0  0  0  0  0  0  0  0
   30.7760   27.8800   49.5990 C   0  0  0  0  0  0  0  0  0  0  0  0
   35.7579   31.0662   46.0196 H   0  0  0  0  0  0  0  0  0  0  0  0
   37.8187   29.8654   49.5974 H   0  0  0  0  0  0  0  0  0  0  0  0
   37.9794   32.8226   49.0452 H   0  0  0  0  0  0  0  0  0  0  0  0
   41.3844   33.2898   45.4540 H   0  0  0  0  0  0  0  0  0  0  0  0
   39.7756   29.8964   43.5051 H   0  0  0  0  0  0  0  0  0  0  0  0
   33.6940   28.3577   49.8433 H   0  0  0  0  0  0  0  0  0  0  0  0
   34.3127   26.6245   47.0789 H   0  0  0  0  0  0  0  0  0  0  0  0
   33.6328   25.6842   48.1067 H   0  0  0  0  0  0  0  0  0  0  0  0
   32.1442   28.4404   47.0546 H   0  0  0  0  0  0  0  0  0  0  0  0
   29.4195   28.6570   47.8708 H   0  0  0  0  0  0  0  0  0  0  0  0
   30.7124   28.8724   46.6426 H   0  0  0  0  0  0  0  0  0  0  0  0
   29.7133   27.3796   46.6426 H   0  0  0  0  0  0  0  0  0  0  0  0
   30.9170   25.5107   49.0512 H   0  0  0  0  0  0  0  0  0  0  0  0
   30.0503   25.7967   47.5040 H   0  0  0  0  0  0  0  0  0  0  0  0
   31.8291   25.5462   47.5040 H   0  0  0  0  0  0  0  0  0  0  0  0
   31.3553   27.3104   50.3406 H   0  0  0  0  0  0  0  0  0  0  0  0
   30.9633   28.9554   49.7348 H   0  0  0  0  0  0  0  0  0  0  0  0
   29.7039   27.6745   49.7348 H   0  0  0  0  0  0  0  0  0  0  0  0
  1  6  2  0
  1  2  1  0
  2  3  2  0
  3  4  1  0
  5 16  1  0
  5  4  2  0
  6  5  1  0
  7  2  1  0
  7  8  1  0
  9  8  2  0
 10  9  1  0
 11 10  2  0
 12 11  1  0
 13 12  2  0
 13 14  1  0
 14 15  2  0
 15 10  1  0
 15  7  1  0
 17 16  1  0
 18 17  1  0
 18 19  1  0
 18 16  1  0
 19 22  1  0
 20 19  1  0
 21 19  1  0
  1 23  1  0
  3 24  1  0
  8 25  1  0
 11 26  1  0
 13 27  1  0
 16 28  1  1
 17 29  1  0
 17 30  1  0
 18 31  1  6
 20 32  1  0
 20 33  1  0
 20 34  1  0
 21 35  1  0
 21 36  1  0
 21 37  1  0
 22 38  1  0
 22 39  1  0
 22 40  1  0
M  ISO  8  23  14  24  14  25  14  26  14  27  14  28  13  29  13  30  13
M  ISO  8  31  13  32   8  33   8  34   8  35   8  36   8  37   8  38   8
M  ISO  2  39   8  40   8
M  END
>  <minimizedAffinity>  (1) 
-5.75831509

>  <minimizedRMSD>  (1) 
0.448827446

$$$$
