
     RDKit          3D

 38 42  0  0  1  0  0  0  0  0999 V2000
   35.7810   30.5270   47.0600 C   0  0  0  0  0  0  0  0  0  0  0  0
   36.9450   30.5830   47.7970 C   0  0  0  0  0  0  0  0  0  0  0  0
   37.0410   29.7780   48.9350 C   0  0  0  0  0  0  0  0  0  0  0  0
   35.9600   28.9850   49.2320 N   0  0  0  0  0  0  0  0  0  0  0  0
   34.8550   28.9510   48.5060 C   0  0  0  0  0  0  0  0  0  0  0  0
   34.7770   29.7150   47.4360 N   0  0  0  0  0  0  0  0  0  0  0  0
   38.0010   31.4170   47.4290 N   0  0  0  0  0  0  0  0  0  0  0  0
   38.4410   32.5000   48.1140 C   0  0  0  0  0  0  0  0  0  0  0  0
   39.4780   33.0790   47.4930 N   0  0  0  0  0  0  0  0  0  0  0  0
   39.7260   32.3670   46.3850 C   0  0  0  0  0  0  0  0  0  0  0  0
   40.6290   32.4620   45.3820 C   0  0  0  0  0  0  0  0  0  0  0  0
   40.6830   31.5970   44.3310 N   0  0  0  0  0  0  0  0  0  0  0  0
   39.7580   30.5990   44.3370 C   0  0  0  0  0  0  0  0  0  0  0  0
   38.8730   30.5120   45.3290 N   0  0  0  0  0  0  0  0  0  0  0  0
   38.7900   31.3240   46.3530 C   0  0  0  0  0  0  0  0  0  0  0  0
   33.7320   28.0740   48.9080 C   0  0  2  0  0  0  0  0  0  0  0  0
   33.7140   26.7000   48.1570 C   0  0  0  0  0  0  0  0  0  0  0  0
   32.6560   27.6920   47.9580 C   0  0  2  0  0  0  0  0  0  0  0  0
   32.5430   28.2830   46.6130 C   0  0  0  0  0  0  0  0  0  0  0  0
   33.1800   27.5930   45.5990 C   0  0  0  0  0  0  0  0  0  0  0  0
   33.2110   27.9900   44.2560 C   0  0  0  0  0  0  0  0  0  0  0  0
   32.5600   29.1560   43.9140 C   0  0  0  0  0  0  0  0  0  0  0  0
   31.9190   29.8620   44.8990 C   0  0  0  0  0  0  0  0  0  0  0  0
   31.9070   29.4470   46.2080 C   0  0  0  0  0  0  0  0  0  0  0  0
   35.6730   31.1498   46.1597 H   0  0  0  0  0  0  0  0  0  0  0  0
   37.9426   29.7794   49.5651 H   0  0  0  0  0  0  0  0  0  0  0  0
   38.0037   32.8578   49.0578 H   0  0  0  0  0  0  0  0  0  0  0  0
   41.3600   33.2832   45.4171 H   0  0  0  0  0  0  0  0  0  0  0  0
   39.7409   29.8621   43.5205 H   0  0  0  0  0  0  0  0  0  0  0  0
   33.7153   28.4735   49.9327 H   0  0  0  0  0  0  0  0  0  0  0  0
   34.4405   26.4969   47.3564 H   0  0  0  0  0  0  0  0  0  0  0  0
   33.7532   25.6415   48.4537 H   0  0  0  0  0  0  0  0  0  0  0  0
   31.5616   27.7075   48.0676 H   0  0  0  0  0  0  0  0  0  0  0  0
   33.7018   26.6623   45.8666 H   0  0  0  0  0  0  0  0  0  0  0  0
   33.7378   27.3907   43.4988 H   0  0  0  0  0  0  0  0  0  0  0  0
   32.5549   29.5122   42.8733 H   0  0  0  0  0  0  0  0  0  0  0  0
   31.3966   30.7924   44.6317 H   0  0  0  0  0  0  0  0  0  0  0  0
   31.3779   30.0551   46.9566 H   0  0  0  0  0  0  0  0  0  0  0  0
  1  6  2  0
  1  2  1  0
  2  3  2  0
  3  4  1  0
  5 16  1  0
  5  4  2  0
  6  5  1  0
  7  2  1  0
  7  8  1  0
  9  8  2  0
 10  9  1  0
 11 10  2  0
 12 13  2  0
 12 11  1  0
 13 14  1  0
 14 15  2  0
 15 10  1  0
 15  7  1  0
 17 16  1  0
 18 17  1  0
 18 16  1  0
 19 18  1  0
 20 19  2  0
 21 20  1  0
 22 21  2  0
 22 23  1  0
 23 24  2  0
 24 19  1  0
  1 25  1  0
  3 26  1  0
  8 27  1  0
 11 28  1  0
 13 29  1  0
 16 30  1  1
 17 31  1  0
 17 32  1  0
 18 33  1  1
 20 34  1  0
 21 35  1  0
 22 36  1  0
 23 37  1  0
 24 38  1  0
M  ISO  8  25  14  26  14  27  14  28  14  29  14  30  13  31  13  32  13
M  ISO  6  33  13  34  14  35  14  36  14  37  14  38  14
M  END
>  <minimizedAffinity>  (1) 
-5.58209753

>  <minimizedRMSD>  (1) 
0.89957267

$$$$
