
     RDKit          3D

 17 17  0  0  0  0  0  0  0  0999 V2000
   37.1970   31.0960   47.9410 C   0  0  0  0  0  0  0  0  0  0  0  0
   38.0410   31.9360   48.6870 C   0  0  0  0  0  0  0  0  0  0  0  0
   38.9820   32.6970   47.9870 C   0  0  0  0  0  0  0  0  0  0  0  0
   39.0240   32.5770   46.6180 N   0  0  0  0  0  0  0  0  0  0  0  0
   38.1960   31.7600   45.9570 C   0  0  0  0  0  0  0  0  0  0  0  0
   37.2730   31.0110   46.6110 N   0  0  0  0  0  0  0  0  0  0  0  0
   36.2180   30.3070   48.6810 C   0  0  0  0  0  0  0  0  0  0  0  0
   34.9780   30.5060   48.5100 O   0  0  0  0  0  0  0  0  0  0  0  0
   36.6460   29.3400   49.5670 O   0  0  0  0  0  0  0  0  0  0  0  0
   36.6240   29.5060   50.9530 C   0  0  0  0  0  0  0  0  0  0  0  0
   37.7530   29.9420   51.6980 N   0  0  0  0  0  0  0  0  0  0  0  0
   35.5070   29.2310   51.4550 O   0  0  0  0  0  0  0  0  0  0  0  0
   37.9641   31.9928   49.7828 H   0  0  0  0  0  0  0  0  0  0  0  0
   39.6695   33.3728   48.5167 H   0  0  0  0  0  0  0  0  0  0  0  0
   38.2650   31.6942   44.8611 H   0  0  0  0  0  0  0  0  0  0  0  0
   37.6855   30.0488   52.7202 H   0  0  0  0  0  0  0  0  0  0  0  0
   38.6388   30.1512   51.2157 H   0  0  0  0  0  0  0  0  0  0  0  0
  1  7  1  0
  1  2  2  0
  3  2  1  0
  4  3  2  0
  5  6  2  0
  5  4  1  0
  6  1  1  0
  7  9  1  0
  8  7  2  0
  9 10  1  0
 10 12  2  0
 10 11  1  0
  2 13  1  0
  3 14  1  0
  5 15  1  0
 11 16  1  0
 11 17  1  0
M  ISO  3  13  14  14  14  15  14
M  END
>  <minimizedAffinity>  (1) 
-4.10862684

>  <minimizedRMSD>  (1) 
2.40017366

$$$$
