
     RDKit          3D

 31 32  0  0  0  0  0  0  0  0999 V2000
   37.5540   31.5790   48.4990 C   0  0  0  0  0  0  0  0  0  0  0  0
   37.7680   32.5530   49.4720 C   0  0  0  0  0  0  0  0  0  0  0  0
   38.7410   33.5210   49.2090 C   0  0  0  0  0  0  0  0  0  0  0  0
   39.4170   33.4520   48.0230 N   0  0  0  0  0  0  0  0  0  0  0  0
   39.1760   32.4910   47.1120 C   0  0  0  0  0  0  0  0  0  0  0  0
   38.2370   31.5520   47.3580 N   0  0  0  0  0  0  0  0  0  0  0  0
   39.8820   32.4220   45.8780 N   0  0  0  0  0  0  0  0  0  0  0  0
   39.8610   33.4870   44.9020 C   0  0  0  0  0  0  0  0  0  0  0  0
   39.4990   33.0150   43.5220 C   0  0  0  0  0  0  0  0  0  0  0  0
   39.6620   31.6180   43.3060 N   0  0  0  0  0  0  0  0  0  0  0  0
   40.6930   30.9710   44.0530 C   0  0  0  0  0  0  0  0  0  0  0  0
   40.6730   31.2530   45.5350 C   0  0  0  0  0  0  0  0  0  0  0  0
   36.5350   30.5650   48.7720 C   0  0  0  0  0  0  0  0  0  0  0  0
   35.3850   30.6530   48.2580 O   0  0  0  0  0  0  0  0  0  0  0  0
   36.8130   29.5020   49.5910 O   0  0  0  0  0  0  0  0  0  0  0  0
   36.6650   29.5140   50.9800 C   0  0  0  0  0  0  0  0  0  0  0  0
   37.7110   29.8210   51.8810 N   0  0  0  0  0  0  0  0  0  0  0  0
   35.4980   29.2200   51.3250 O   0  0  0  0  0  0  0  0  0  0  0  0
   37.1937   32.5598   50.4102 H   0  0  0  0  0  0  0  0  0  0  0  0
   38.9570   34.3170   49.9368 H   0  0  0  0  0  0  0  0  0  0  0  0
   39.1232   34.2385   45.2197 H   0  0  0  0  0  0  0  0  0  0  0  0
   40.8775   33.9041   44.8498 H   0  0  0  0  0  0  0  0  0  0  0  0
   38.4442   33.2684   43.3396 H   0  0  0  0  0  0  0  0  0  0  0  0
   40.1925   33.5175   42.8316 H   0  0  0  0  0  0  0  0  0  0  0  0
   38.7705   31.1593   43.5419 H   0  0  0  0  0  0  0  0  0  0  0  0
   40.5893   29.8853   43.9099 H   0  0  0  0  0  0  0  0  0  0  0  0
   41.6459   31.3697   43.6749 H   0  0  0  0  0  0  0  0  0  0  0  0
   40.2505   30.3792   46.0527 H   0  0  0  0  0  0  0  0  0  0  0  0
   41.7088   31.4527   45.8467 H   0  0  0  0  0  0  0  0  0  0  0  0
   37.5357   29.8122   52.8959 H   0  0  0  0  0  0  0  0  0  0  0  0
   38.6481   30.0534   51.5223 H   0  0  0  0  0  0  0  0  0  0  0  0
  1 13  1  0
  1  2  2  0
  3  2  1  0
  4  3  2  0
  5  6  2  0
  5  4  1  0
  6  1  1  0
  7  5  1  0
  8  7  1  0
  9  8  1  0
 10  9  1  0
 10 11  1  0
 11 12  1  0
 12  7  1  0
 13 15  1  0
 14 13  2  0
 15 16  1  0
 16 18  2  0
 16 17  1  0
  2 19  1  0
  3 20  1  0
  8 21  1  0
  8 22  1  0
  9 23  1  0
  9 24  1  0
 10 25  1  0
 11 26  1  0
 11 27  1  0
 12 28  1  0
 12 29  1  0
 17 30  1  0
 17 31  1  0
M  ISO  8  19  14  20  14  21  13  22  13  23  13  24  13  25   5  26  13
M  ISO  3  27  13  28  13  29  13
M  END
>  <minimizedAffinity>  (1) 
-6.04730511

>  <minimizedRMSD>  (1) 
1.81799769

$$$$
