
     RDKit          3D

 23 24  0  0  0  0  0  0  0  0999 V2000
   37.2350   31.4550   48.6190 C   0  0  0  0  0  0  0  0  0  0  0  0
   37.5400   32.4390   49.5610 C   0  0  0  0  0  0  0  0  0  0  0  0
   38.5250   33.3780   49.2180 C   0  0  0  0  0  0  0  0  0  0  0  0
   39.1270   33.2720   47.9800 N   0  0  0  0  0  0  0  0  0  0  0  0
   38.7910   32.3090   47.1270 C   0  0  0  0  0  0  0  0  0  0  0  0
   37.8440   31.3930   47.4370 N   0  0  0  0  0  0  0  0  0  0  0  0
   39.4140   32.2040   45.8540 N   0  0  0  0  0  0  0  0  0  0  0  0
   40.2640   31.2010   45.4880 C   0  0  0  0  0  0  0  0  0  0  0  0
   40.6790   31.3780   44.2430 N   0  0  0  0  0  0  0  0  0  0  0  0
   40.0980   32.5020   43.7900 C   0  0  0  0  0  0  0  0  0  0  0  0
   39.3300   32.9760   44.8090 N   0  0  0  0  0  0  0  0  0  0  0  0
   36.2130   30.4770   48.9710 C   0  0  0  0  0  0  0  0  0  0  0  0
   35.0310   30.6020   48.5600 O   0  0  0  0  0  0  0  0  0  0  0  0
   36.5400   29.3970   49.7670 O   0  0  0  0  0  0  0  0  0  0  0  0
   36.5420   29.4460   51.1690 C   0  0  0  0  0  0  0  0  0  0  0  0
   37.6990   29.7240   51.9580 N   0  0  0  0  0  0  0  0  0  0  0  0
   35.4010   29.2140   51.6400 O   0  0  0  0  0  0  0  0  0  0  0  0
   37.0283   32.4769   50.5340 H   0  0  0  0  0  0  0  0  0  0  0  0
   38.8100   34.1778   49.9174 H   0  0  0  0  0  0  0  0  0  0  0  0
   40.5623   30.3636   46.1359 H   0  0  0  0  0  0  0  0  0  0  0  0
   40.2191   32.9503   42.7928 H   0  0  0  0  0  0  0  0  0  0  0  0
   37.6290   29.7444   52.9854 H   0  0  0  0  0  0  0  0  0  0  0  0
   38.6037   29.9041   51.4998 H   0  0  0  0  0  0  0  0  0  0  0  0
  1 12  1  0
  1  2  2  0
  3  2  1  0
  4  3  2  0
  5  6  2  0
  5  4  1  0
  6  1  1  0
  7  5  1  0
  8  7  1  0
  9  8  2  0
 10  9  1  0
 10 11  2  0
 11  7  1  0
 12 14  1  0
 13 12  2  0
 14 15  1  0
 15 17  2  0
 15 16  1  0
  2 18  1  0
  3 19  1  0
  8 20  1  0
 10 21  1  0
 16 22  1  0
 16 23  1  0
M  ISO  4  18  14  19  14  20  14  21  14
M  END
>  <minimizedAffinity>  (1) 
-5.64296484

>  <minimizedRMSD>  (1) 
1.46039855

$$$$
