
     RDKit          3D

 24 25  0  0  0  0  0  0  0  0999 V2000
   37.2490   31.3780   48.5180 C   0  0  0  0  0  0  0  0  0  0  0  0
   37.7150   32.3860   49.3590 C   0  0  0  0  0  0  0  0  0  0  0  0
   38.7090   33.2550   48.9100 C   0  0  0  0  0  0  0  0  0  0  0  0
   39.1780   33.0550   47.6280 N   0  0  0  0  0  0  0  0  0  0  0  0
   38.7050   32.0800   46.8610 C   0  0  0  0  0  0  0  0  0  0  0  0
   37.7340   31.2240   47.2850 N   0  0  0  0  0  0  0  0  0  0  0  0
   39.2250   31.9010   45.5120 C   0  0  0  0  0  0  0  0  0  0  0  0
   40.2910   31.0410   45.1020 C   0  0  0  0  0  0  0  0  0  0  0  0
   40.6530   30.9920   43.7950 C   0  0  0  0  0  0  0  0  0  0  0  0
   39.9900   31.7810   42.8320 C   0  0  0  0  0  0  0  0  0  0  0  0
   38.7110   32.6940   43.8950 S   0  0  0  0  0  0  0  0  0  0  0  0
   36.2110   30.4910   49.0250 C   0  0  0  0  0  0  0  0  0  0  0  0
   34.9940   30.7110   48.7250 O   0  0  0  0  0  0  0  0  0  0  0  0
   36.5540   29.4160   49.8280 O   0  0  0  0  0  0  0  0  0  0  0  0
   36.5360   29.4690   51.2200 C   0  0  0  0  0  0  0  0  0  0  0  0
   37.6930   29.7860   51.9740 N   0  0  0  0  0  0  0  0  0  0  0  0
   35.4130   29.2130   51.7120 O   0  0  0  0  0  0  0  0  0  0  0  0
   37.3010   32.4960   50.3722 H   0  0  0  0  0  0  0  0  0  0  0  0
   39.1004   34.0614   49.5475 H   0  0  0  0  0  0  0  0  0  0  0  0
   40.8161   30.4210   45.8436 H   0  0  0  0  0  0  0  0  0  0  0  0
   41.4734   30.3290   43.4829 H   0  0  0  0  0  0  0  0  0  0  0  0
   40.1679   31.8491   41.7486 H   0  0  0  0  0  0  0  0  0  0  0  0
   37.6451   29.8166   53.0024 H   0  0  0  0  0  0  0  0  0  0  0  0
   38.5820   29.9858   51.4937 H   0  0  0  0  0  0  0  0  0  0  0  0
  1 12  1  0
  1  2  2  0
  3  2  1  0
  4  3  2  0
  5  6  2  0
  5  4  1  0
  6  1  1  0
  7  5  1  0
  8  7  2  0
  9  8  1  0
 10  9  2  0
 10 11  1  0
 11  7  1  0
 12 14  1  0
 13 12  2  0
 14 15  1  0
 15 17  2  0
 15 16  1  0
  2 18  1  0
  3 19  1  0
  8 20  1  0
  9 21  1  0
 10 22  1  0
 16 23  1  0
 16 24  1  0
M  ISO  5  18  14  19  14  20  14  21  14  22  14
M  END
>  <minimizedAffinity>  (1) 
-5.22533417

>  <minimizedRMSD>  (1) 
1.24196982

$$$$
