
     RDKit          3D

 26 26  0  0  0  0  0  0  0  0999 V2000
   37.4090   31.4300   48.4430 C   0  0  0  0  0  0  0  0  0  0  0  0
   37.7450   32.4260   49.3830 C   0  0  0  0  0  0  0  0  0  0  0  0
   38.7330   33.3460   48.9960 C   0  0  0  0  0  0  0  0  0  0  0  0
   39.3010   33.2200   47.7440 N   0  0  0  0  0  0  0  0  0  0  0  0
   38.9320   32.2540   46.9120 C   0  0  0  0  0  0  0  0  0  0  0  0
   37.9790   31.3340   47.2330 N   0  0  0  0  0  0  0  0  0  0  0  0
   39.5580   32.1390   45.5660 C   0  0  0  0  0  0  0  0  0  0  0  0
   40.0640   33.5150   45.1450 C   0  0  0  0  0  0  0  0  0  0  0  0
   40.6730   31.1370   45.6480 C   0  0  0  0  0  0  0  0  0  0  0  0
   36.3860   30.4730   48.8390 C   0  0  0  0  0  0  0  0  0  0  0  0
   35.2010   30.5880   48.4240 O   0  0  0  0  0  0  0  0  0  0  0  0
   36.7010   29.4280   49.6780 O   0  0  0  0  0  0  0  0  0  0  0  0
   36.6040   29.4860   51.0670 C   0  0  0  0  0  0  0  0  0  0  0  0
   37.6920   29.8070   51.9070 N   0  0  0  0  0  0  0  0  0  0  0  0
   35.4340   29.2190   51.4710 O   0  0  0  0  0  0  0  0  0  0  0  0
   37.2585   32.4796   50.3681 H   0  0  0  0  0  0  0  0  0  0  0  0
   39.0479   34.1507   49.6767 H   0  0  0  0  0  0  0  0  0  0  0  0
   38.8354   31.7943   44.8117 H   0  0  0  0  0  0  0  0  0  0  0  0
   40.2844   34.1144   46.0406 H   0  0  0  0  0  0  0  0  0  0  0  0
   40.9792   33.4015   44.5454 H   0  0  0  0  0  0  0  0  0  0  0  0
   39.2933   34.0214   44.5454 H   0  0  0  0  0  0  0  0  0  0  0  0
   40.9032   30.9301   46.7036 H   0  0  0  0  0  0  0  0  0  0  0  0
   40.3661   30.2053   45.1503 H   0  0  0  0  0  0  0  0  0  0  0  0
   41.5667   31.5414   45.1503 H   0  0  0  0  0  0  0  0  0  0  0  0
   37.5631   29.8353   52.9285 H   0  0  0  0  0  0  0  0  0  0  0  0
   38.6148   30.0129   51.4984 H   0  0  0  0  0  0  0  0  0  0  0  0
  1 10  1  0
  1  2  2  0
  3  2  1  0
  4  3  2  0
  5  6  2  0
  5  4  1  0
  6  1  1  0
  7  9  1  0
  7  5  1  0
  8  7  1  0
 10 12  1  0
 11 10  2  0
 12 13  1  0
 13 15  2  0
 13 14  1  0
  2 16  1  0
  3 17  1  0
  7 18  1  0
  8 19  1  0
  8 20  1  0
  8 21  1  0
  9 22  1  0
  9 23  1  0
  9 24  1  0
 14 25  1  0
 14 26  1  0
M  ISO  8  16  14  17  14  18   8  19   8  20   8  21   8  22   8  23   8
M  ISO  1  24   8
M  END
>  <minimizedAffinity>  (1) 
-5.18756676

>  <minimizedRMSD>  (1) 
1.13351035

$$$$
