
     RDKit          3D

 20 20  0  0  0  0  0  0  0  0999 V2000
   37.4920   31.5470   48.5080 C   0  0  0  0  0  0  0  0  0  0  0  0
   37.6350   32.5450   49.4800 C   0  0  0  0  0  0  0  0  0  0  0  0
   38.5900   33.5320   49.2560 C   0  0  0  0  0  0  0  0  0  0  0  0
   39.3370   33.4690   48.0950 N   0  0  0  0  0  0  0  0  0  0  0  0
   39.1540   32.4940   47.2090 C   0  0  0  0  0  0  0  0  0  0  0  0
   38.2320   31.5140   47.3940 N   0  0  0  0  0  0  0  0  0  0  0  0
   36.4820   30.5130   48.7560 C   0  0  0  0  0  0  0  0  0  0  0  0
   35.3500   30.5770   48.2160 O   0  0  0  0  0  0  0  0  0  0  0  0
   36.7680   29.4620   49.5850 O   0  0  0  0  0  0  0  0  0  0  0  0
   36.6420   29.4850   50.9750 C   0  0  0  0  0  0  0  0  0  0  0  0
   37.7120   29.7840   51.8540 N   0  0  0  0  0  0  0  0  0  0  0  0
   35.4780   29.2120   51.3340 O   0  0  0  0  0  0  0  0  0  0  0  0
   39.9290   32.3790   45.9470 C   0  0  0  0  0  0  0  0  0  0  0  0
   37.0145   32.5486   50.3883 H   0  0  0  0  0  0  0  0  0  0  0  0
   38.7463   34.3415   49.9842 H   0  0  0  0  0  0  0  0  0  0  0  0
   37.5570   29.7853   52.8723 H   0  0  0  0  0  0  0  0  0  0  0  0
   38.6450   30.0001   51.4748 H   0  0  0  0  0  0  0  0  0  0  0  0
   40.9919   32.2213   46.1825 H   0  0  0  0  0  0  0  0  0  0  0  0
   39.5527   31.5269   45.3620 H   0  0  0  0  0  0  0  0  0  0  0  0
   39.8164   33.3037   45.3620 H   0  0  0  0  0  0  0  0  0  0  0  0
  1  7  1  0
  1  2  2  0
  3  2  1  0
  4  3  2  0
  5  6  2  0
  5  4  1  0
  6  1  1  0
  7  9  1  0
  8  7  2  0
  9 10  1  0
 10 12  2  0
 10 11  1  0
 13  5  1  0
  2 14  1  0
  3 15  1  0
 11 16  1  0
 11 17  1  0
 13 18  1  0
 13 19  1  0
 13 20  1  0
M  ISO  5  14  14  15  14  18   8  19   8  20   8
M  END
>  <minimizedAffinity>  (1) 
-4.67602587

>  <minimizedRMSD>  (1) 
1.18205142

$$$$
