
     RDKit          3D

 33 35  0  0  0  0  0  0  0  0999 V2000
   30.0130   27.6220   47.0550 C   0  0  0  0  0  0  0  0  0  0  0  0
   30.7850   28.4690   46.3270 C   0  0  0  0  0  0  0  0  0  0  0  0
   32.0450   28.8580   46.7230 C   0  0  0  0  0  0  0  0  0  0  0  0
   32.5480   28.3740   47.9010 C   0  0  0  0  0  0  0  0  0  0  0  0
   31.7520   27.5050   48.6430 C   0  0  0  0  0  0  0  0  0  0  0  0
   30.4950   27.1190   48.2440 C   0  0  0  0  0  0  0  0  0  0  0  0
   35.5830   29.9590   48.6320 C   0  0  0  0  0  0  0  0  0  0  0  0
   35.7150   28.8600   49.5030 C   0  0  0  0  0  0  0  0  0  0  0  0
   34.5980   28.0680   49.3830 C   0  0  0  0  0  0  0  0  0  0  0  0
   33.8250   28.6640   48.4780 N   0  0  0  0  0  0  0  0  0  0  0  0
   34.3940   29.7640   48.0370 N   0  0  0  0  0  0  0  0  0  0  0  0
   37.9250   32.7220   49.3730 C   0  0  0  0  0  0  0  0  0  0  0  0
   38.6110   32.7930   48.1710 C   0  0  0  0  0  0  0  0  0  0  0  0
   38.2700   31.9090   47.1400 C   0  0  0  0  0  0  0  0  0  0  0  0
   37.2710   31.0200   47.3790 N   0  0  0  0  0  0  0  0  0  0  0  0
   36.6200   30.9680   48.5470 C   0  0  0  0  0  0  0  0  0  0  0  0
   36.9360   31.8140   49.5560 N   0  0  0  0  0  0  0  0  0  0  0  0
   28.3990   27.1460   46.5660 S   0  0  0  0  0  0  0  0  0  0  0  0
   28.1170   27.7150   45.2030 O   0  0  0  0  0  0  0  0  0  0  0  0
   28.3370   25.6600   46.5450 O   0  0  0  0  0  0  0  0  0  0  0  0
   27.2170   27.7670   47.7060 C   0  0  0  0  0  0  0  0  0  0  0  0
   26.1220   28.2690   47.0250 F   0  0  0  0  0  0  0  0  0  0  0  0
   26.7960   26.6960   48.4930 F   0  0  0  0  0  0  0  0  0  0  0  0
   27.7320   28.7200   48.5510 F   0  0  0  0  0  0  0  0  0  0  0  0
   30.3866   28.8614   45.3798 H   0  0  0  0  0  0  0  0  0  0  0  0
   32.6380   29.5465   46.1030 H   0  0  0  0  0  0  0  0  0  0  0  0
   32.1470   27.1100   49.5906 H   0  0  0  0  0  0  0  0  0  0  0  0
   29.8925   26.4302   48.8544 H   0  0  0  0  0  0  0  0  0  0  0  0
   36.5696   28.6676   50.1684 H   0  0  0  0  0  0  0  0  0  0  0  0
   34.3864   27.1337   49.9237 H   0  0  0  0  0  0  0  0  0  0  0  0
   38.1867   33.4116   50.1890 H   0  0  0  0  0  0  0  0  0  0  0  0
   39.4121   33.5333   48.0288 H   0  0  0  0  0  0  0  0  0  0  0  0
   38.7919   31.9335   46.1720 H   0  0  0  0  0  0  0  0  0  0  0  0
  1  6  2  0
  2  3  2  0
  2  1  1  0
  3  4  1  0
  4 10  1  0
  4  5  2  0
  6  5  1  0
  7  8  1  0
  9  8  2  0
 10  9  1  0
 11 10  1  0
 11  7  2  0
 12 17  2  0
 13 12  1  0
 14 15  1  0
 14 13  2  0
 15 16  2  0
 16  7  1  0
 16 17  1  0
 18  1  1  0
 18 21  1  0
 19 18  2  0
 20 18  2  0
 21 23  1  0
 21 24  1  0
 22 21  1  0
  2 25  1  0
  3 26  1  0
  5 27  1  0
  6 28  1  0
  8 29  1  0
  9 30  1  0
 12 31  1  0
 13 32  1  0
 14 33  1  0
M  ISO  8  25  14  26  14  27  14  28  14  29  14  30  14  31  14  32  14
M  ISO  1  33  14
M  END
>  <minimizedAffinity>  (1) 
-6.03809023

>  <minimizedRMSD>  (1) 
1.78223372

$$$$
