
     RDKit          3D

 37 39  0  0  0  0  0  0  0  0999 V2000
   39.3580   31.8070   45.7550 C   0  0  0  0  0  0  0  0  0  0  0  0
   40.6920   31.4100   45.6410 C   0  0  0  0  0  0  0  0  0  0  0  0
   40.9770   31.3160   44.2680 C   0  0  0  0  0  0  0  0  0  0  0  0
   39.7800   31.6660   43.6530 C   0  0  0  0  0  0  0  0  0  0  0  0
   38.8740   31.9420   44.5520 O   0  0  0  0  0  0  0  0  0  0  0  0
   39.7170   31.6750   42.2330 N   0  0  0  0  0  0  0  0  0  0  0  0
   39.0000   32.6970   41.6980 C   0  0  0  0  0  0  0  0  0  0  0  0
   38.8740   32.8010   40.3200 C   0  0  0  0  0  0  0  0  0  0  0  0
   38.0810   33.9300   39.7220 C   0  0  0  0  0  0  0  0  0  0  0  0
   39.4680   31.8800   39.4690 C   0  0  0  0  0  0  0  0  0  0  0  0
   39.3750   31.9410   38.2040 O   0  0  0  0  0  0  0  0  0  0  0  0
   40.1680   30.8850   40.0660 N   0  0  0  0  0  0  0  0  0  0  0  0
   40.2990   30.7730   41.4100 C   0  0  0  0  0  0  0  0  0  0  0  0
   40.9460   29.8540   41.9580 O   0  0  0  0  0  0  0  0  0  0  0  0
   37.1310   31.3190   48.5960 C   0  0  0  0  0  0  0  0  0  0  0  0
   37.4840   32.3710   49.4690 C   0  0  0  0  0  0  0  0  0  0  0  0
   38.4930   33.2420   49.0670 C   0  0  0  0  0  0  0  0  0  0  0  0
   39.0790   33.0140   47.8340 N   0  0  0  0  0  0  0  0  0  0  0  0
   38.7120   32.0090   47.0460 C   0  0  0  0  0  0  0  0  0  0  0  0
   37.7280   31.1440   47.4180 N   0  0  0  0  0  0  0  0  0  0  0  0
   36.0760   30.4270   49.0430 C   0  0  0  0  0  0  0  0  0  0  0  0
   34.8700   30.6450   48.6980 O   0  0  0  0  0  0  0  0  0  0  0  0
   36.4010   29.3360   49.8510 O   0  0  0  0  0  0  0  0  0  0  0  0
   36.4690   29.4150   51.2370 C   0  0  0  0  0  0  0  0  0  0  0  0
   37.6640   29.6890   51.9330 N   0  0  0  0  0  0  0  0  0  0  0  0
   35.3550   29.2170   51.7940 O   0  0  0  0  0  0  0  0  0  0  0  0
   41.3878   31.2090   46.4689 H   0  0  0  0  0  0  0  0  0  0  0  0
   41.9264   31.0316   43.7908 H   0  0  0  0  0  0  0  0  0  0  0  0
   38.5214   33.4389   42.3541 H   0  0  0  0  0  0  0  0  0  0  0  0
   37.6506   34.5428   40.5277 H   0  0  0  0  0  0  0  0  0  0  0  0
   38.7411   34.5528   39.1004 H   0  0  0  0  0  0  0  0  0  0  0  0
   37.2712   33.5203   39.1004 H   0  0  0  0  0  0  0  0  0  0  0  0
   40.6226   30.1795   39.4690 H   0  0  0  0  0  0  0  0  0  0  0  0
   36.9774   32.4985   50.4370 H   0  0  0  0  0  0  0  0  0  0  0  0
   38.8123   34.0793   49.7049 H   0  0  0  0  0  0  0  0  0  0  0  0
   37.6613   29.7369   52.9619 H   0  0  0  0  0  0  0  0  0  0  0  0
   38.5397   29.8413   51.4126 H   0  0  0  0  0  0  0  0  0  0  0  0
  1 19  1  0
  2  1  2  0
  3  2  1  0
  4  3  2  0
  4  5  1  0
  5  1  1  0
  6  4  1  0
  7  6  1  0
  8  7  2  0
  9  8  1  0
 10 12  1  0
 10  8  1  0
 11 10  2  0
 12 13  1  0
 13 14  2  0
 13  6  1  0
 15 21  1  0
 15 16  2  0
 17 16  1  0
 18 17  2  0
 19 20  2  0
 19 18  1  0
 20 15  1  0
 21 23  1  0
 22 21  2  0
 23 24  1  0
 24 26  2  0
 24 25  1  0
  2 27  1  0
  3 28  1  0
  7 29  1  0
  9 30  1  0
  9 31  1  0
  9 32  1  0
 12 33  1  0
 16 34  1  0
 17 35  1  0
 25 36  1  0
 25 37  1  0
M  ISO  8  27  14  28  14  29  14  30   8  31   8  32   8  33   9  34  14
M  ISO  1  35  14
M  END
>  <minimizedAffinity>  (1) 
-6.04060841

>  <minimizedRMSD>  (1) 
1.59620655

$$$$
