
     RDKit          3D

 32 34  0  0  0  0  0  0  0  0999 V2000
   37.1960   31.3790   48.5810 C   0  0  0  0  0  0  0  0  0  0  0  0
   37.5880   32.4120   49.4660 C   0  0  0  0  0  0  0  0  0  0  0  0
   38.5800   33.2870   49.0400 C   0  0  0  0  0  0  0  0  0  0  0  0
   39.1110   33.0850   47.7800 N   0  0  0  0  0  0  0  0  0  0  0  0
   38.6970   32.0890   46.9870 C   0  0  0  0  0  0  0  0  0  0  0  0
   37.7320   31.2210   47.3810 N   0  0  0  0  0  0  0  0  0  0  0  0
   39.2950   31.9190   45.6600 C   0  0  0  0  0  0  0  0  0  0  0  0
   40.5050   31.2550   45.4660 C   0  0  0  0  0  0  0  0  0  0  0  0
   40.7500   31.2930   44.0800 C   0  0  0  0  0  0  0  0  0  0  0  0
   39.6800   31.9700   43.5380 C   0  0  0  0  0  0  0  0  0  0  0  0
   38.8660   32.3110   44.4990 O   0  0  0  0  0  0  0  0  0  0  0  0
   39.4350   32.2890   42.1360 C   0  0  0  0  0  0  0  0  0  0  0  0
   39.8560   31.3990   41.1700 C   0  0  0  0  0  0  0  0  0  0  0  0
   39.6320   31.6860   39.8350 C   0  0  0  0  0  0  0  0  0  0  0  0
   39.0050   32.8340   39.5200 N   0  0  0  0  0  0  0  0  0  0  0  0
   38.5830   33.7240   40.4630 C   0  0  0  0  0  0  0  0  0  0  0  0
   38.8100   33.4290   41.7620 N   0  0  0  0  0  0  0  0  0  0  0  0
   36.1520   30.4740   49.0550 C   0  0  0  0  0  0  0  0  0  0  0  0
   34.9330   30.6930   48.7320 O   0  0  0  0  0  0  0  0  0  0  0  0
   36.4980   29.3920   49.8460 O   0  0  0  0  0  0  0  0  0  0  0  0
   36.5140   29.4470   51.2310 C   0  0  0  0  0  0  0  0  0  0  0  0
   37.6830   29.7360   51.9690 N   0  0  0  0  0  0  0  0  0  0  0  0
   35.3890   29.2140   51.7570 O   0  0  0  0  0  0  0  0  0  0  0  0
   37.1231   32.5185   50.4573 H   0  0  0  0  0  0  0  0  0  0  0  0
   38.9295   34.1094   49.6814 H   0  0  0  0  0  0  0  0  0  0  0  0
   41.1392   30.7951   46.2382 H   0  0  0  0  0  0  0  0  0  0  0  0
   41.6130   30.8714   43.5438 H   0  0  0  0  0  0  0  0  0  0  0  0
   40.3660   30.4681   41.4587 H   0  0  0  0  0  0  0  0  0  0  0  0
   39.9595   30.9905   39.0482 H   0  0  0  0  0  0  0  0  0  0  0  0
   38.0727   34.6549   40.1747 H   0  0  0  0  0  0  0  0  0  0  0  0
   37.6481   29.7664   52.9980 H   0  0  0  0  0  0  0  0  0  0  0  0
   38.5704   29.9164   51.4783 H   0  0  0  0  0  0  0  0  0  0  0  0
  1 18  1  0
  1  2  2  0
  3  2  1  0
  4  3  2  0
  5  6  2  0
  5  4  1  0
  6  1  1  0
  7  5  1  0
  8  7  2  0
  9  8  1  0
 10  9  2  0
 10 11  1  0
 11  7  1  0
 12 10  1  0
 13 12  2  0
 14 13  1  0
 15 14  2  0
 15 16  1  0
 16 17  2  0
 17 12  1  0
 18 20  1  0
 19 18  2  0
 20 21  1  0
 21 23  2  0
 21 22  1  0
  2 24  1  0
  3 25  1  0
  8 26  1  0
  9 27  1  0
 13 28  1  0
 14 29  1  0
 16 30  1  0
 22 31  1  0
 22 32  1  0
M  ISO  7  24  14  25  14  26  14  27  14  28  14  29  14  30  14
M  END
>  <minimizedAffinity>  (1) 
-5.90436888

>  <minimizedRMSD>  (1) 
1.00558209

$$$$
