
     RDKit          3D

 34 36  0  0  1  0  0  0  0  0999 V2000
   44.6760   35.0910   45.7560 C   0  0  0  0  0  0  0  0  0  0  0  0
   44.4770   35.6890   44.5080 C   0  0  0  0  0  0  0  0  0  0  0  0
   45.0510   35.0800   43.3760 C   0  0  0  0  0  0  0  0  0  0  0  0
   45.7580   33.9570   43.5690 N   0  0  0  0  0  0  0  0  0  0  0  0
   45.9500   33.3760   44.7960 C   0  0  0  0  0  0  0  0  0  0  0  0
   45.4040   33.9560   45.8650 N   0  0  0  0  0  0  0  0  0  0  0  0
   46.7110   32.1860   44.9710 N   0  0  0  0  0  0  0  0  0  0  0  0
   47.5610   31.8670   43.9850 C   0  0  0  0  0  0  0  0  0  0  0  0
   48.1750   30.6860   44.3990 C   0  0  0  0  0  0  0  0  0  0  0  0
   47.6770   30.3320   45.6130 N   0  0  0  0  0  0  0  0  0  0  0  0
   46.7770   31.2660   45.9520 C   0  0  0  0  0  0  0  0  0  0  0  0
   45.9870   31.2820   47.1720 C   0  0  2  0  0  0  0  0  0  0  0  0
   46.7430   32.1720   48.1830 C   0  0  0  0  0  0  0  0  0  0  0  0
   45.9170   29.9290   47.8080 C   0  0  0  0  0  0  0  0  0  0  0  0
   44.9910   28.9760   47.1990 C   0  0  0  0  0  0  0  0  0  0  0  0
   44.1370   29.0600   46.1210 C   0  0  0  0  0  0  0  0  0  0  0  0
   43.3520   27.9940   45.7470 C   0  0  0  0  0  0  0  0  0  0  0  0
   43.4090   26.8290   46.4440 N   0  0  0  0  0  0  0  0  0  0  0  0
   44.2370   26.7470   47.4910 C   0  0  0  0  0  0  0  0  0  0  0  0
   45.0270   27.7920   47.8810 N   0  0  0  0  0  0  0  0  0  0  0  0
   44.2374   35.5468   46.6559 H   0  0  0  0  0  0  0  0  0  0  0  0
   43.8867   36.6123   44.4130 H   0  0  0  0  0  0  0  0  0  0  0  0
   44.9243   35.5091   42.3711 H   0  0  0  0  0  0  0  0  0  0  0  0
   47.7364   32.4188   43.0497 H   0  0  0  0  0  0  0  0  0  0  0  0
   48.9387   30.1307   43.8347 H   0  0  0  0  0  0  0  0  0  0  0  0
   44.9732   31.6303   46.9251 H   0  0  0  0  0  0  0  0  0  0  0  0
   46.4830   31.8659   49.2071 H   0  0  0  0  0  0  0  0  0  0  0  0
   47.8267   32.0605   48.0310 H   0  0  0  0  0  0  0  0  0  0  0  0
   46.4577   33.2234   48.0310 H   0  0  0  0  0  0  0  0  0  0  0  0
   46.9242   29.4884   47.7710 H   0  0  0  0  0  0  0  0  0  0  0  0
   45.5348   30.1015   48.8249 H   0  0  0  0  0  0  0  0  0  0  0  0
   44.0818   29.9976   45.5484 H   0  0  0  0  0  0  0  0  0  0  0  0
   42.6775   28.0848   44.8828 H   0  0  0  0  0  0  0  0  0  0  0  0
   44.2839   25.8056   48.0581 H   0  0  0  0  0  0  0  0  0  0  0  0
  1  6  2  0
  2  1  1  0
  3  4  1  0
  3  2  2  0
  4  5  2  0
  5  7  1  0
  5  6  1  0
  7 11  1  0
  8  9  2  0
  8  7  1  0
  9 10  1  0
 10 11  2  0
 11 12  1  0
 12 14  1  0
 12 13  1  0
 15 14  1  0
 15 20  1  0
 16 15  2  0
 17 16  1  0
 17 18  2  0
 18 19  1  0
 19 20  2  0
  1 21  1  0
  2 22  1  0
  3 23  1  0
  8 24  1  0
  9 25  1  0
 12 26  1  6
 13 27  1  0
 13 28  1  0
 13 29  1  0
 14 30  1  0
 14 31  1  0
 16 32  1  0
 17 33  1  0
 19 34  1  0
M  ISO  8  21  14  22  14  23  14  24  14  25  14  26   8  27   8  28   8
M  ISO  6  29   8  30   8  31   8  32  14  33  14  34  14
M  END
>  <minimizedAffinity>  (1) 
-4.61175632

>  <minimizedRMSD>  (1) 
0.898102522

$$$$
