
     RDKit          3D

 17 17  0  0  0  0  0  0  0  0999 V2000
   45.3210   35.9740   43.1200 C   0  0  0  0  0  0  0  0  0  0  0  0
   46.1840   34.8850   42.9230 C   0  0  0  0  0  0  0  0  0  0  0  0
   46.2890   33.9590   43.9720 C   0  0  0  0  0  0  0  0  0  0  0  0
   45.5590   34.1850   45.0800 N   0  0  0  0  0  0  0  0  0  0  0  0
   44.7440   35.2320   45.2440 C   0  0  0  0  0  0  0  0  0  0  0  0
   44.6260   36.1320   44.2540 N   0  0  0  0  0  0  0  0  0  0  0  0
   46.9130   34.7680   41.6710 C   0  0  0  0  0  0  0  0  0  0  0  0
   48.3110   35.3540   41.8800 C   0  0  0  0  0  0  0  0  0  0  0  0
   48.9250   35.6600   40.6860 O   0  0  0  0  0  0  0  0  0  0  0  0
   45.2121   36.7201   42.3191 H   0  0  0  0  0  0  0  0  0  0  0  0
   46.9447   33.0795   43.8917 H   0  0  0  0  0  0  0  0  0  0  0  0
   44.1769   35.3549   46.1785 H   0  0  0  0  0  0  0  0  0  0  0  0
   46.3891   35.3256   40.8807 H   0  0  0  0  0  0  0  0  0  0  0  0
   46.9828   33.7131   41.3672 H   0  0  0  0  0  0  0  0  0  0  0  0
   48.2255   36.2714   42.4809 H   0  0  0  0  0  0  0  0  0  0  0  0
   48.9234   34.5981   42.3935 H   0  0  0  0  0  0  0  0  0  0  0  0
   49.7965   36.0943   40.8649 H   0  0  0  0  0  0  0  0  0  0  0  0
  1  6  2  0
  2  1  1  0
  2  3  2  0
  3  4  1  0
  4  5  2  0
  6  5  1  0
  7  8  1  0
  7  2  1  0
  9  8  1  0
  1 10  1  0
  3 11  1  0
  5 12  1  0
  7 13  1  0
  7 14  1  0
  8 15  1  0
  8 16  1  0
  9 17  1  0
M  ISO  8  10  14  11  14  12  14  13   8  14   8  15   8  16   8  17   3
M  END
>  <minimizedAffinity>  (1) 
-3.61387348

>  <minimizedRMSD>  (1) 
1.28886068

$$$$
