
     RDKit          3D

 32 33  0  0  0  0  0  0  0  0999 V2000
   46.6810   34.8070   42.0700 C   0  0  0  0  0  0  0  0  0  0  0  0
   47.9470   35.2820   42.0060 C   0  0  0  0  0  0  0  0  0  0  0  0
   48.7500   35.1730   40.8640 C   0  0  0  0  0  0  0  0  0  0  0  0
   48.2390   34.5510   39.7360 C   0  0  0  0  0  0  0  0  0  0  0  0
   46.9610   34.0730   39.8070 C   0  0  0  0  0  0  0  0  0  0  0  0
   46.1610   34.1820   40.9470 C   0  0  0  0  0  0  0  0  0  0  0  0
   44.4430   36.1070   44.7960 C   0  0  0  0  0  0  0  0  0  0  0  0
   45.0980   36.0830   43.5410 C   0  0  0  0  0  0  0  0  0  0  0  0
   45.9530   34.9940   43.3030 C   0  0  0  0  0  0  0  0  0  0  0  0
   46.0960   34.0620   44.2580 N   0  0  0  0  0  0  0  0  0  0  0  0
   45.4480   34.1240   45.4470 C   0  0  0  0  0  0  0  0  0  0  0  0
   44.6280   35.1390   45.7110 N   0  0  0  0  0  0  0  0  0  0  0  0
   44.7800   33.6340   40.9270 C   0  0  0  0  0  0  0  0  0  0  0  0
   44.3840   32.9620   39.6530 C   0  0  0  0  0  0  0  0  0  0  0  0
   44.5210   32.7230   42.1180 C   0  0  0  0  0  0  0  0  0  0  0  0
   43.8010   34.7860   41.0900 C   0  0  0  0  0  0  0  0  0  0  0  0
   48.3653   35.7778   42.8944 H   0  0  0  0  0  0  0  0  0  0  0  0
   49.7735   35.5760   40.8623 H   0  0  0  0  0  0  0  0  0  0  0  0
   48.8386   34.4462   38.8197 H   0  0  0  0  0  0  0  0  0  0  0  0
   46.5401   33.5765   38.9203 H   0  0  0  0  0  0  0  0  0  0  0  0
   43.7640   36.9405   45.0290 H   0  0  0  0  0  0  0  0  0  0  0  0
   44.9456   36.8745   42.7925 H   0  0  0  0  0  0  0  0  0  0  0  0
   45.6002   33.3331   46.1962 H   0  0  0  0  0  0  0  0  0  0  0  0
   43.8378   32.0350   39.8818 H   0  0  0  0  0  0  0  0  0  0  0  0
   43.7375   33.6340   39.0695 H   0  0  0  0  0  0  0  0  0  0  0  0
   45.2851   32.7221   39.0695 H   0  0  0  0  0  0  0  0  0  0  0  0
   44.6806   33.2843   43.0505 H   0  0  0  0  0  0  0  0  0  0  0  0
   43.4837   32.3587   42.0822 H   0  0  0  0  0  0  0  0  0  0  0  0
   45.2115   31.8675   42.0822 H   0  0  0  0  0  0  0  0  0  0  0  0
   43.6369   34.9791   42.1604 H   0  0  0  0  0  0  0  0  0  0  0  0
   44.2133   35.6878   40.6137 H   0  0  0  0  0  0  0  0  0  0  0  0
   42.8445   34.5245   40.6137 H   0  0  0  0  0  0  0  0  0  0  0  0
  1  9  1  0
  2  1  2  0
  3  2  1  0
  4  5  1  0
  4  3  2  0
  5  6  2  0
  6  1  1  0
  7 12  2  0
  8  7  1  0
  9  8  2  0
  9 10  1  0
 10 11  2  0
 11 12  1  0
 13  6  1  0
 13 16  1  0
 13 15  1  0
 14 13  1  0
  2 17  1  0
  3 18  1  0
  4 19  1  0
  5 20  1  0
  7 21  1  0
  8 22  1  0
 11 23  1  0
 14 24  1  0
 14 25  1  0
 14 26  1  0
 15 27  1  0
 15 28  1  0
 15 29  1  0
 16 30  1  0
 16 31  1  0
 16 32  1  0
M  ISO  8  17  14  18  14  19  14  20  14  21  14  22  14  23  14  24   8
M  ISO  8  25   8  26   8  27   8  28   8  29   8  30   8  31   8  32   8
M  END
>  <minimizedAffinity>  (1) 
-5.43040276

>  <minimizedRMSD>  (1) 
0.669604421

$$$$
