
     RDKit          3D

 26 27  0  0  0  0  0  0  0  0999 V2000
   47.3430   34.9120   41.2140 C   0  0  0  0  0  0  0  0  0  0  0  0
   48.1870   33.8190   40.7300 C   0  0  0  0  0  0  0  0  0  0  0  0
   47.8950   33.1260   39.5940 C   0  0  0  0  0  0  0  0  0  0  0  0
   48.8400   32.1950   39.4100 N   0  0  0  0  0  0  0  0  0  0  0  0
   49.7350   32.2890   40.4200 C   0  0  0  0  0  0  0  0  0  0  0  0
   49.3130   33.3000   41.2260 N   0  0  0  0  0  0  0  0  0  0  0  0
   49.9180   33.8050   42.4470 C   0  0  0  0  0  0  0  0  0  0  0  0
   51.0840   33.1340   42.7410 F   0  0  0  0  0  0  0  0  0  0  0  0
   50.2030   35.1340   42.3860 F   0  0  0  0  0  0  0  0  0  0  0  0
   48.9990   33.5770   43.4520 F   0  0  0  0  0  0  0  0  0  0  0  0
   45.8890   34.4990   41.3940 C   0  0  0  0  0  0  0  0  0  0  0  0
   45.0160   35.9210   43.1720 C   0  0  0  0  0  0  0  0  0  0  0  0
   45.5250   34.6850   42.7780 C   0  0  0  0  0  0  0  0  0  0  0  0
   45.6460   33.7120   43.7520 C   0  0  0  0  0  0  0  0  0  0  0  0
   45.2680   34.0100   45.0230 N   0  0  0  0  0  0  0  0  0  0  0  0
   44.7750   35.2290   45.3690 C   0  0  0  0  0  0  0  0  0  0  0  0
   44.6460   36.1940   44.4410 N   0  0  0  0  0  0  0  0  0  0  0  0
   47.3866   35.7376   40.4884 H   0  0  0  0  0  0  0  0  0  0  0  0
   47.7259   35.2146   42.1998 H   0  0  0  0  0  0  0  0  0  0  0  0
   47.0292   33.3015   38.9385 H   0  0  0  0  0  0  0  0  0  0  0  0
   50.6314   31.6675   40.5621 H   0  0  0  0  0  0  0  0  0  0  0  0
   45.2453   35.1211   40.7548 H   0  0  0  0  0  0  0  0  0  0  0  0
   45.7603   33.4440   41.1103 H   0  0  0  0  0  0  0  0  0  0  0  0
   44.9109   36.7108   42.4136 H   0  0  0  0  0  0  0  0  0  0  0  0
   46.0406   32.7158   43.5034 H   0  0  0  0  0  0  0  0  0  0  0  0
   44.4809   35.4265   46.4104 H   0  0  0  0  0  0  0  0  0  0  0  0
  1 11  1  0
  2  1  1  0
  2  6  1  0
  3  2  2  0
  4  3  1  0
  4  5  2  0
  5  6  1  0
  6  7  1  0
  7  8  1  0
  7 10  1  0
  9  7  1  0
 11 13  1  0
 12 17  2  0
 13 12  1  0
 13 14  2  0
 14 15  1  0
 15 16  2  0
 17 16  1  0
  1 18  1  0
  1 19  1  0
  3 20  1  0
  5 21  1  0
 11 22  1  0
 11 23  1  0
 12 24  1  0
 14 25  1  0
 16 26  1  0
M  ISO  8  18   8  19   8  20  14  21  14  22   8  23   8  24  14  25  14
M  ISO  1  26  14
M  END
>  <minimizedAffinity>  (1) 
-4.63379288

>  <minimizedRMSD>  (1) 
1.68467891

$$$$
