
     RDKit          3D

 29 30  0  0  0  0  0  0  0  0999 V2000
   47.5480   34.8560   41.5450 C   0  0  0  0  0  0  0  0  0  0  0  0
   48.1310   33.9380   40.5730 C   0  0  0  0  0  0  0  0  0  0  0  0
   47.8620   33.9610   39.2500 C   0  0  0  0  0  0  0  0  0  0  0  0
   48.5770   32.9720   38.6650 N   0  0  0  0  0  0  0  0  0  0  0  0
   49.2930   32.3250   39.6080 C   0  0  0  0  0  0  0  0  0  0  0  0
   49.0000   32.9430   40.7880 N   0  0  0  0  0  0  0  0  0  0  0  0
   49.5790   32.5350   42.0680 C   0  0  0  0  0  0  0  0  0  0  0  0
   50.8650   33.2700   42.3450 C   0  0  0  0  0  0  0  0  0  0  0  0
   46.0160   34.7510   41.5730 C   0  0  0  0  0  0  0  0  0  0  0  0
   44.9530   36.0010   43.3980 C   0  0  0  0  0  0  0  0  0  0  0  0
   45.6020   34.8390   42.9560 C   0  0  0  0  0  0  0  0  0  0  0  0
   45.8000   33.8390   43.9060 C   0  0  0  0  0  0  0  0  0  0  0  0
   45.3620   34.0440   45.1800 N   0  0  0  0  0  0  0  0  0  0  0  0
   44.7410   35.1930   45.5430 C   0  0  0  0  0  0  0  0  0  0  0  0
   44.5320   36.1770   44.6620 N   0  0  0  0  0  0  0  0  0  0  0  0
   47.8305   35.8851   41.2783 H   0  0  0  0  0  0  0  0  0  0  0  0
   47.9296   34.5899   42.5418 H   0  0  0  0  0  0  0  0  0  0  0  0
   47.1828   34.6591   38.7388 H   0  0  0  0  0  0  0  0  0  0  0  0
   49.9732   31.4740   39.4563 H   0  0  0  0  0  0  0  0  0  0  0  0
   48.8609   32.7533   42.8722 H   0  0  0  0  0  0  0  0  0  0  0  0
   49.7969   31.4577   42.0234 H   0  0  0  0  0  0  0  0  0  0  0  0
   51.0124   33.3542   43.4318 H   0  0  0  0  0  0  0  0  0  0  0  0
   51.7063   32.7164   41.9027 H   0  0  0  0  0  0  0  0  0  0  0  0
   50.8150   34.2759   41.9027 H   0  0  0  0  0  0  0  0  0  0  0  0
   45.5720   35.5745   40.9944 H   0  0  0  0  0  0  0  0  0  0  0  0
   45.6834   33.8018   41.1275 H   0  0  0  0  0  0  0  0  0  0  0  0
   44.7797   36.8098   42.6729 H   0  0  0  0  0  0  0  0  0  0  0  0
   46.3018   32.8993   43.6320 H   0  0  0  0  0  0  0  0  0  0  0  0
   44.4026   35.3183   46.5821 H   0  0  0  0  0  0  0  0  0  0  0  0
  1  9  1  0
  2  6  1  0
  2  1  1  0
  3  2  2  0
  4  3  1  0
  4  5  2  0
  5  6  1  0
  6  7  1  0
  7  8  1  0
  9 11  1  0
 10 15  2  0
 11 10  1  0
 11 12  2  0
 12 13  1  0
 13 14  2  0
 15 14  1  0
  1 16  1  0
  1 17  1  0
  3 18  1  0
  5 19  1  0
  7 20  1  0
  7 21  1  0
  8 22  1  0
  8 23  1  0
  8 24  1  0
  9 25  1  0
  9 26  1  0
 10 27  1  0
 12 28  1  0
 14 29  1  0
M  ISO  8  16   8  17   8  18  14  19  14  20   8  21   8  22   8  23   8
M  ISO  6  24   8  25   8  26   8  27  14  28  14  29  14
M  END
>  <minimizedAffinity>  (1) 
-4.20071125

>  <minimizedRMSD>  (1) 
2.10713983

$$$$
