
     RDKit          3D

 48 51  0  0  1  0  0  0  0  0999 V2000
   47.3640   33.1800   39.6160 C   0  0  0  0  0  0  0  0  0  0  0  0
   46.0510   33.1560   38.9680 C   0  0  0  0  0  0  0  0  0  0  0  0
   44.8840   33.3540   39.6490 C   0  0  0  0  0  0  0  0  0  0  0  0
   43.8860   33.2980   38.7640 N   0  0  0  0  0  0  0  0  0  0  0  0
   44.3960   33.0710   37.5550 C   0  0  0  0  0  0  0  0  0  0  0  0
   45.7200   32.9850   37.6890 N   0  0  0  0  0  0  0  0  0  0  0  0
   47.7150   33.6750   36.4940 N   0  0  0  0  0  0  0  0  0  0  0  0
   48.6810   32.9920   35.6490 C   0  0  0  0  0  0  0  0  0  0  0  0
   48.5460   31.5020   35.9020 C   0  0  0  0  0  0  0  0  0  0  0  0
   47.3380   31.4330   36.8090 C   0  0  0  0  0  0  0  0  0  0  0  0
   46.6870   32.7230   36.6410 C   0  0  1  0  0  0  0  0  0  0  0  0
   47.5470   34.4470   40.4310 C   0  0  0  0  0  0  0  0  0  0  0  0
   47.6200   32.9610   42.3700 C   0  0  0  0  0  0  0  0  0  0  0  0
   47.2250   34.1510   41.7980 C   0  0  0  0  0  0  0  0  0  0  0  0
   46.4950   35.0550   42.5930 C   0  0  0  0  0  0  0  0  0  0  0  0
   46.2220   34.7050   43.8710 N   0  0  0  0  0  0  0  0  0  0  0  0
   46.6340   33.5130   44.3950 C   0  0  0  0  0  0  0  0  0  0  0  0
   47.3350   32.6370   43.6450 N   0  0  0  0  0  0  0  0  0  0  0  0
   46.3090   33.2150   45.7490 N   0  0  0  0  0  0  0  0  0  0  0  0
   47.0420   32.2230   46.3320 C   0  0  0  0  0  0  0  0  0  0  0  0
   46.8160   31.8460   47.6410 C   0  0  0  0  0  0  0  0  0  0  0  0
   47.6140   30.7620   48.2880 C   0  0  0  0  0  0  0  0  0  0  0  0
   45.8360   32.4790   48.3750 C   0  0  0  0  0  0  0  0  0  0  0  0
   45.5970   32.1680   49.5710 O   0  0  0  0  0  0  0  0  0  0  0  0
   45.1340   33.4600   47.7490 N   0  0  0  0  0  0  0  0  0  0  0  0
   45.3550   33.8220   46.4800 C   0  0  0  0  0  0  0  0  0  0  0  0
   44.7250   34.7210   45.8770 O   0  0  0  0  0  0  0  0  0  0  0  0
   48.1465   33.1328   38.8444 H   0  0  0  0  0  0  0  0  0  0  0  0
   47.4360   32.3156   40.2924 H   0  0  0  0  0  0  0  0  0  0  0  0
   44.7843   33.5281   40.7306 H   0  0  0  0  0  0  0  0  0  0  0  0
   43.8290   32.9725   36.6175 H   0  0  0  0  0  0  0  0  0  0  0  0
   47.3646   34.5297   36.0383 H   0  0  0  0  0  0  0  0  0  0  0  0
   49.6991   33.3237   35.9008 H   0  0  0  0  0  0  0  0  0  0  0  0
   48.4943   33.2205   34.5893 H   0  0  0  0  0  0  0  0  0  0  0  0
   48.3712   30.9537   34.9645 H   0  0  0  0  0  0  0  0  0  0  0  0
   49.4481   31.0473   36.3373 H   0  0  0  0  0  0  0  0  0  0  0  0
   46.6679   30.6159   36.5037 H   0  0  0  0  0  0  0  0  0  0  0  0
   47.6099   31.2331   37.8560 H   0  0  0  0  0  0  0  0  0  0  0  0
   46.0595   32.7603   35.7383 H   0  0  0  0  0  0  0  0  0  0  0  0
   48.5903   34.7883   40.3596 H   0  0  0  0  0  0  0  0  0  0  0  0
   46.8901   35.2425   40.0495 H   0  0  0  0  0  0  0  0  0  0  0  0
   48.1917   32.2466   41.7595 H   0  0  0  0  0  0  0  0  0  0  0  0
   46.1560   36.0192   42.1863 H   0  0  0  0  0  0  0  0  0  0  0  0
   47.8254   31.7155   45.7501 H   0  0  0  0  0  0  0  0  0  0  0  0
   47.5436   30.8577   49.3816 H   0  0  0  0  0  0  0  0  0  0  0  0
   47.2198   29.7825   47.9795 H   0  0  0  0  0  0  0  0  0  0  0  0
   48.6664   30.8474   47.9795 H   0  0  0  0  0  0  0  0  0  0  0  0
   44.3965   33.9482   48.2768 H   0  0  0  0  0  0  0  0  0  0  0  0
  1 12  1  0
  2  1  1  0
  2  3  2  0
  4  3  1  0
  5  6  1  0
  5  4  2  0
  6  2  1  0
  7 11  1  0
  8  9  1  0
  8  7  1  0
  9 10  1  0
 11 10  1  0
 11  6  1  0
 12 14  1  0
 13 18  2  0
 14 13  1  0
 14 15  2  0
 15 16  1  0
 16 17  2  0
 17 19  1  0
 18 17  1  0
 19 20  1  0
 19 26  1  0
 20 21  2  0
 21 22  1  0
 21 23  1  0
 23 24  2  0
 25 23  1  0
 26 25  1  0
 27 26  2  0
  1 28  1  0
  1 29  1  0
  3 30  1  0
  5 31  1  0
  7 32  1  0
  8 33  1  0
  8 34  1  0
  9 35  1  0
  9 36  1  0
 10 37  1  0
 10 38  1  0
 11 39  1  6
 12 40  1  0
 12 41  1  0
 13 42  1  0
 15 43  1  0
 20 44  1  0
 22 45  1  0
 22 46  1  0
 22 47  1  0
 25 48  1  0
M  ISO  8  28   8  29   8  30  14  31  14  32   5  33  13  34  13  35  13
M  ISO  8  36  13  37  13  38  13  39  13  40   8  41   8  42  14  43  14
M  ISO  5  44  14  45   8  46   8  47   8  48   9
M  END
>  <minimizedAffinity>  (1) 
-6.47189903

>  <minimizedRMSD>  (1) 
2.39916611

$$$$
