
     RDKit          3D

 23 24  0  0  0  0  0  0  0  0999 V2000
   46.6890   34.8030   42.0480 C   0  0  0  0  0  0  0  0  0  0  0  0
   47.9610   35.2860   41.9850 C   0  0  0  0  0  0  0  0  0  0  0  0
   48.7420   35.1660   40.8320 C   0  0  0  0  0  0  0  0  0  0  0  0
   48.2000   34.5260   39.7000 C   0  0  0  0  0  0  0  0  0  0  0  0
   46.9210   34.0440   39.7750 C   0  0  0  0  0  0  0  0  0  0  0  0
   46.1630   34.1740   40.9290 C   0  0  0  0  0  0  0  0  0  0  0  0
   44.4400   36.0900   44.7830 C   0  0  0  0  0  0  0  0  0  0  0  0
   45.0970   36.0260   43.5540 C   0  0  0  0  0  0  0  0  0  0  0  0
   45.9540   34.9740   43.2900 C   0  0  0  0  0  0  0  0  0  0  0  0
   46.1260   34.0280   44.2500 N   0  0  0  0  0  0  0  0  0  0  0  0
   45.4730   34.1110   45.4460 C   0  0  0  0  0  0  0  0  0  0  0  0
   44.6450   35.1260   45.7040 N   0  0  0  0  0  0  0  0  0  0  0  0
   44.7780   33.6500   41.0040 C   0  0  0  0  0  0  0  0  0  0  0  0
   44.3750   32.9780   39.8810 F   0  0  0  0  0  0  0  0  0  0  0  0
   44.6660   32.9070   42.1640 F   0  0  0  0  0  0  0  0  0  0  0  0
   43.9010   34.7310   41.1540 F   0  0  0  0  0  0  0  0  0  0  0  0
   48.3864   35.7855   42.8679 H   0  0  0  0  0  0  0  0  0  0  0  0
   49.7664   35.5660   40.8088 H   0  0  0  0  0  0  0  0  0  0  0  0
   48.7902   34.4163   38.7783 H   0  0  0  0  0  0  0  0  0  0  0  0
   46.4842   33.5417   38.8993 H   0  0  0  0  0  0  0  0  0  0  0  0
   43.7567   36.9242   45.0004 H   0  0  0  0  0  0  0  0  0  0  0  0
   44.9339   36.8089   42.7987 H   0  0  0  0  0  0  0  0  0  0  0  0
   45.6310   33.3320   46.2064 H   0  0  0  0  0  0  0  0  0  0  0  0
  1  9  1  0
  2  1  2  0
  3  2  1  0
  4  5  1  0
  4  3  2  0
  5  6  2  0
  6 13  1  0
  6  1  1  0
  7 12  2  0
  8  7  1  0
  9  8  2  0
  9 10  1  0
 10 11  2  0
 11 12  1  0
 13 16  1  0
 13 15  1  0
 14 13  1  0
  2 17  1  0
  3 18  1  0
  4 19  1  0
  5 20  1  0
  7 21  1  0
  8 22  1  0
 11 23  1  0
M  ISO  7  17  14  18  14  19  14  20  14  21  14  22  14  23  14
M  END
>  <minimizedAffinity>  (1) 
-5.27224922

>  <minimizedRMSD>  (1) 
0.288709909

$$$$
