
     RDKit          3D

 44 47  0  0  1  0  0  0  0  0999 V2000
   46.7240   34.2580   41.1400 C   0  0  0  0  0  0  0  0  0  0  0  0
   45.6700   33.7900   40.2770 C   0  0  0  0  0  0  0  0  0  0  0  0
   44.3490   33.8360   40.6440 C   0  0  0  0  0  0  0  0  0  0  0  0
   43.6240   33.3410   39.6280 N   0  0  0  0  0  0  0  0  0  0  0  0
   44.4500   32.9900   38.6440 C   0  0  0  0  0  0  0  0  0  0  0  0
   45.6960   33.2680   39.0490 N   0  0  0  0  0  0  0  0  0  0  0  0
   47.4560   34.2540   37.6980 N   0  0  0  0  0  0  0  0  0  0  0  0
   48.7620   33.8580   37.2620 C   0  0  0  0  0  0  0  0  0  0  0  0
   49.1280   32.6210   37.9940 C   0  0  0  0  0  0  0  0  0  0  0  0
   47.9890   32.4730   39.0350 C   0  0  0  0  0  0  0  0  0  0  0  0
   46.9280   33.0700   38.3220 C   0  0  1  0  0  0  0  0  0  0  0  0
   46.2140   35.2650   42.1730 C   0  0  0  0  0  0  0  0  0  0  0  0
   47.1220   33.6150   43.7100 C   0  0  0  0  0  0  0  0  0  0  0  0
   46.1620   34.6030   43.4520 C   0  0  0  0  0  0  0  0  0  0  0  0
   45.2190   34.8590   44.4370 C   0  0  0  0  0  0  0  0  0  0  0  0
   45.2850   34.1280   45.5980 N   0  0  0  0  0  0  0  0  0  0  0  0
   46.2250   33.1830   45.8100 C   0  0  0  0  0  0  0  0  0  0  0  0
   47.1360   32.9330   44.8660 N   0  0  0  0  0  0  0  0  0  0  0  0
   46.2150   32.4580   47.0770 C   0  0  0  0  0  0  0  0  0  0  0  0
   47.4360   32.0910   47.6360 C   0  0  0  0  0  0  0  0  0  0  0  0
   47.4080   31.3950   48.8510 C   0  0  0  0  0  0  0  0  0  0  0  0
   46.1590   31.1420   49.3790 C   0  0  0  0  0  0  0  0  0  0  0  0
   44.9440   31.5010   48.8350 C   0  0  0  0  0  0  0  0  0  0  0  0
   45.0280   32.1760   47.6530 N   0  0  0  0  0  0  0  0  0  0  0  0
   47.4982   34.7407   40.5255 H   0  0  0  0  0  0  0  0  0  0  0  0
   47.1297   33.3910   41.6820 H   0  0  0  0  0  0  0  0  0  0  0  0
   43.9543   34.2113   41.5997 H   0  0  0  0  0  0  0  0  0  0  0  0
   44.1619   32.5524   37.6768 H   0  0  0  0  0  0  0  0  0  0  0  0
   46.8727   34.5382   36.8981 H   0  0  0  0  0  0  0  0  0  0  0  0
   48.7522   33.6633   36.1794 H   0  0  0  0  0  0  0  0  0  0  0  0
   49.4929   34.6549   37.4641 H   0  0  0  0  0  0  0  0  0  0  0  0
   49.1569   31.7555   37.3157 H   0  0  0  0  0  0  0  0  0  0  0  0
   50.1266   32.6714   38.4525 H   0  0  0  0  0  0  0  0  0  0  0  0
   47.7824   31.4178   39.2671 H   0  0  0  0  0  0  0  0  0  0  0  0
   48.1976   32.9213   40.0176 H   0  0  0  0  0  0  0  0  0  0  0  0
   46.5758   32.3589   37.5603 H   0  0  0  0  0  0  0  0  0  0  0  0
   46.8979   36.1250   42.2253 H   0  0  0  0  0  0  0  0  0  0  0  0
   45.2154   35.6298   41.8905 H   0  0  0  0  0  0  0  0  0  0  0  0
   47.8824   33.3931   42.9467 H   0  0  0  0  0  0  0  0  0  0  0  0
   44.4421   35.6242   44.2925 H   0  0  0  0  0  0  0  0  0  0  0  0
   48.3871   32.3384   47.1419 H   0  0  0  0  0  0  0  0  0  0  0  0
   48.3294   31.0687   49.3555 H   0  0  0  0  0  0  0  0  0  0  0  0
   46.1292   30.5968   50.3339 H   0  0  0  0  0  0  0  0  0  0  0  0
   43.9839   31.2621   49.3158 H   0  0  0  0  0  0  0  0  0  0  0  0
  1 12  1  0
  2  3  2  0
  2  1  1  0
  4  3  1  0
  5  6  1  0
  5  4  2  0
  6  2  1  0
  7 11  1  0
  8  7  1  0
  8  9  1  0
  9 10  1  0
 11 10  1  0
 11  6  1  0
 12 14  1  0
 13 18  2  0
 14 13  1  0
 14 15  2  0
 15 16  1  0
 16 17  2  0
 17 19  1  0
 18 17  1  0
 19 20  2  0
 19 24  1  0
 20 21  1  0
 21 22  2  0
 23 22  1  0
 24 23  2  0
  1 25  1  0
  1 26  1  0
  3 27  1  0
  5 28  1  0
  7 29  1  0
  8 30  1  0
  8 31  1  0
  9 32  1  0
  9 33  1  0
 10 34  1  0
 10 35  1  0
 11 36  1  6
 12 37  1  0
 12 38  1  0
 13 39  1  0
 15 40  1  0
 20 41  1  0
 21 42  1  0
 22 43  1  0
 23 44  1  0
M  ISO  8  25   8  26   8  27  14  28  14  29   5  30  13  31  13  32  13
M  ISO  8  33  13  34  13  35  13  36  13  37   8  38   8  39  14  40  14
M  ISO  4  41  14  42  14  43  14  44  14
M  END
>  <minimizedAffinity>  (1) 
-5.71318388

>  <minimizedRMSD>  (1) 
2.45121837

$$$$
