
     RDKit          3D

 45 48  0  0  1  0  0  0  0  0999 V2000
   46.8010   34.2530   40.9940 C   0  0  0  0  0  0  0  0  0  0  0  0
   45.6800   33.8160   40.1880 C   0  0  0  0  0  0  0  0  0  0  0  0
   44.3830   33.8770   40.6440 C   0  0  0  0  0  0  0  0  0  0  0  0
   43.5870   33.4150   39.6700 N   0  0  0  0  0  0  0  0  0  0  0  0
   44.3430   33.0720   38.6290 C   0  0  0  0  0  0  0  0  0  0  0  0
   45.6190   33.3190   38.9540 N   0  0  0  0  0  0  0  0  0  0  0  0
   47.2300   34.2260   37.3790 N   0  0  0  0  0  0  0  0  0  0  0  0
   48.5230   33.8270   36.8980 C   0  0  0  0  0  0  0  0  0  0  0  0
   49.0550   32.7630   37.7990 C   0  0  0  0  0  0  0  0  0  0  0  0
   47.9150   32.6020   38.8400 C   0  0  0  0  0  0  0  0  0  0  0  0
   46.7950   33.1000   38.1390 C   0  0  1  0  0  0  0  0  0  0  0  0
   46.3550   35.1980   42.1050 C   0  0  0  0  0  0  0  0  0  0  0  0
   45.4160   34.7570   44.3020 C   0  0  0  0  0  0  0  0  0  0  0  0
   46.3650   34.4600   43.3390 C   0  0  0  0  0  0  0  0  0  0  0  0
   47.2940   33.4590   43.6340 C   0  0  0  0  0  0  0  0  0  0  0  0
   47.2100   32.8420   44.8440 N   0  0  0  0  0  0  0  0  0  0  0  0
   46.2690   33.1660   45.7540 C   0  0  0  0  0  0  0  0  0  0  0  0
   45.3650   34.1240   45.4930 N   0  0  0  0  0  0  0  0  0  0  0  0
   46.2370   32.4630   47.0380 C   0  0  0  0  0  0  0  0  0  0  0  0
   45.0410   32.2910   47.7030 C   0  0  0  0  0  0  0  0  0  0  0  0
   44.9820   31.6280   48.9240 C   0  0  0  0  0  0  0  0  0  0  0  0
   46.1500   31.1280   49.4850 C   0  0  0  0  0  0  0  0  0  0  0  0
   47.3560   31.3020   48.8140 C   0  0  0  0  0  0  0  0  0  0  0  0
   47.4210   31.9650   47.5920 C   0  0  0  0  0  0  0  0  0  0  0  0
   47.5232   34.7750   40.3490 H   0  0  0  0  0  0  0  0  0  0  0  0
   47.2594   33.3670   41.4575 H   0  0  0  0  0  0  0  0  0  0  0  0
   44.0582   34.2397   41.6304 H   0  0  0  0  0  0  0  0  0  0  0  0
   43.9845   32.6600   37.6741 H   0  0  0  0  0  0  0  0  0  0  0  0
   46.5873   34.4121   36.5959 H   0  0  0  0  0  0  0  0  0  0  0  0
   48.4335   33.4356   35.8739 H   0  0  0  0  0  0  0  0  0  0  0  0
   49.2051   34.6899   36.8896 H   0  0  0  0  0  0  0  0  0  0  0  0
   49.2263   31.8258   37.2492 H   0  0  0  0  0  0  0  0  0  0  0  0
   50.0266   33.0152   38.2488 H   0  0  0  0  0  0  0  0  0  0  0  0
   47.7746   31.5468   39.1171 H   0  0  0  0  0  0  0  0  0  0  0  0
   48.1082   33.1235   39.7891 H   0  0  0  0  0  0  0  0  0  0  0  0
   46.4207   32.3296   37.4489 H   0  0  0  0  0  0  0  0  0  0  0  0
   47.0478   36.0497   42.1726 H   0  0  0  0  0  0  0  0  0  0  0  0
   45.3472   35.5869   41.8976 H   0  0  0  0  0  0  0  0  0  0  0  0
   44.6738   35.5402   44.0881 H   0  0  0  0  0  0  0  0  0  0  0  0
   48.0715   33.1775   42.9085 H   0  0  0  0  0  0  0  0  0  0  0  0
   44.1155   32.6861   47.2588 H   0  0  0  0  0  0  0  0  0  0  0  0
   44.0193   31.5008   49.4407 H   0  0  0  0  0  0  0  0  0  0  0  0
   46.1217   30.6000   50.4496 H   0  0  0  0  0  0  0  0  0  0  0  0
   48.2804   30.9061   49.2598 H   0  0  0  0  0  0  0  0  0  0  0  0
   48.3823   32.0945   47.0732 H   0  0  0  0  0  0  0  0  0  0  0  0
  1 12  1  0
  2  3  2  0
  2  1  1  0
  4  3  1  0
  5  6  1  0
  5  4  2  0
  6  2  1  0
  7 11  1  0
  8  7  1  0
  8  9  1  0
  9 10  1  0
 11 10  1  0
 11  6  1  0
 12 14  1  0
 13 18  2  0
 14 15  2  0
 14 13  1  0
 15 16  1  0
 16 17  2  0
 17 19  1  0
 18 17  1  0
 19 24  1  0
 19 20  2  0
 20 21  1  0
 21 22  2  0
 23 22  1  0
 24 23  2  0
  1 25  1  0
  1 26  1  0
  3 27  1  0
  5 28  1  0
  7 29  1  0
  8 30  1  0
  8 31  1  0
  9 32  1  0
  9 33  1  0
 10 34  1  0
 10 35  1  0
 11 36  1  6
 12 37  1  0
 12 38  1  0
 13 39  1  0
 15 40  1  0
 20 41  1  0
 21 42  1  0
 22 43  1  0
 23 44  1  0
 24 45  1  0
M  ISO  8  25   8  26   8  27  14  28  14  29   5  30  13  31  13  32  13
M  ISO  8  33  13  34  13  35  13  36  13  37   8  38   8  39  14  40  14
M  ISO  5  41  14  42  14  43  14  44  14  45  14
M  END
>  <minimizedAffinity>  (1) 
-5.86736441

>  <minimizedRMSD>  (1) 
2.70982814

$$$$
