
     RDKit          3D

 41 44  0  0  1  0  0  0  0  0999 V2000
   46.5640   34.2100   41.1030 C   0  0  0  0  0  0  0  0  0  0  0  0
   45.5070   33.7700   40.2180 C   0  0  0  0  0  0  0  0  0  0  0  0
   44.1850   33.8470   40.5740 C   0  0  0  0  0  0  0  0  0  0  0  0
   43.4620   33.3750   39.5390 N   0  0  0  0  0  0  0  0  0  0  0  0
   44.2990   33.0150   38.5660 C   0  0  0  0  0  0  0  0  0  0  0  0
   45.5440   33.2600   38.9890 N   0  0  0  0  0  0  0  0  0  0  0  0
   47.4180   34.2260   37.7770 N   0  0  0  0  0  0  0  0  0  0  0  0
   48.7070   33.7550   37.3480 C   0  0  0  0  0  0  0  0  0  0  0  0
   48.9800   32.4620   38.0310 C   0  0  0  0  0  0  0  0  0  0  0  0
   47.7600   32.3040   38.9730 C   0  0  0  0  0  0  0  0  0  0  0  0
   46.7770   33.0310   38.2730 C   0  0  1  0  0  0  0  0  0  0  0  0
   46.0610   35.2410   42.1070 C   0  0  0  0  0  0  0  0  0  0  0  0
   47.0220   33.6290   43.6840 C   0  0  0  0  0  0  0  0  0  0  0  0
   46.0650   34.6200   43.4140 C   0  0  0  0  0  0  0  0  0  0  0  0
   45.1430   34.9340   44.4190 C   0  0  0  0  0  0  0  0  0  0  0  0
   45.2320   34.2520   45.6050 N   0  0  0  0  0  0  0  0  0  0  0  0
   46.1730   33.3060   45.8100 C   0  0  0  0  0  0  0  0  0  0  0  0
   47.0790   32.9780   44.8640 N   0  0  0  0  0  0  0  0  0  0  0  0
   46.2090   32.6070   47.1160 C   0  0  0  0  0  0  0  0  0  0  0  0
   45.0680   32.3040   47.8530 C   0  0  0  0  0  0  0  0  0  0  0  0
   45.8400   31.4550   49.3300 S   0  0  0  0  0  0  0  0  0  0  0  0
   47.5870   31.6960   48.6160 C   0  0  0  0  0  0  0  0  0  0  0  0
   47.4120   32.2660   47.5750 N   0  0  0  0  0  0  0  0  0  0  0  0
   47.3687   34.6592   40.5025 H   0  0  0  0  0  0  0  0  0  0  0  0
   46.9319   33.3365   41.6612 H   0  0  0  0  0  0  0  0  0  0  0  0
   43.7879   34.2243   41.5280 H   0  0  0  0  0  0  0  0  0  0  0  0
   44.0165   32.5924   37.5905 H   0  0  0  0  0  0  0  0  0  0  0  0
   46.8907   34.6277   36.9887 H   0  0  0  0  0  0  0  0  0  0  0  0
   48.7057   33.6074   36.2579 H   0  0  0  0  0  0  0  0  0  0  0  0
   49.4843   34.4906   37.6021 H   0  0  0  0  0  0  0  0  0  0  0  0
   49.0310   31.6351   37.3073 H   0  0  0  0  0  0  0  0  0  0  0  0
   49.9435   32.4458   38.5615 H   0  0  0  0  0  0  0  0  0  0  0  0
   47.4743   31.2481   39.0887 H   0  0  0  0  0  0  0  0  0  0  0  0
   47.9349   32.6555   40.0006 H   0  0  0  0  0  0  0  0  0  0  0  0
   46.4052   32.4237   37.4345 H   0  0  0  0  0  0  0  0  0  0  0  0
   46.7242   36.1186   42.1071 H   0  0  0  0  0  0  0  0  0  0  0  0
   45.0469   35.5745   41.8418 H   0  0  0  0  0  0  0  0  0  0  0  0
   47.7535   33.3736   42.9032 H   0  0  0  0  0  0  0  0  0  0  0  0
   44.3721   35.7029   44.2624 H   0  0  0  0  0  0  0  0  0  0  0  0
   44.0101   32.5067   47.6298 H   0  0  0  0  0  0  0  0  0  0  0  0
   48.5439   31.3826   49.0589 H   0  0  0  0  0  0  0  0  0  0  0  0
  1 12  1  0
  2  3  2  0
  2  1  1  0
  4  3  1  0
  5  6  1  0
  5  4  2  0
  6  2  1  0
  7 11  1  0
  8  7  1  0
  8  9  1  0
  9 10  1  0
 11 10  1  0
 11  6  1  0
 12 14  1  0
 13 18  2  0
 14 13  1  0
 14 15  2  0
 15 16  1  0
 16 17  2  0
 17 19  1  0
 18 17  1  0
 19 23  1  0
 19 20  2  0
 20 21  1  0
 22 21  1  0
 23 22  2  0
  1 24  1  0
  1 25  1  0
  3 26  1  0
  5 27  1  0
  7 28  1  0
  8 29  1  0
  8 30  1  0
  9 31  1  0
  9 32  1  0
 10 33  1  0
 10 34  1  0
 11 35  1  6
 12 36  1  0
 12 37  1  0
 13 38  1  0
 15 39  1  0
 20 40  1  0
 22 41  1  0
M  ISO  8  24   8  25   8  26  14  27  14  28   5  29  13  30  13  31  13
M  ISO  8  32  13  33  13  34  13  35  13  36   8  37   8  38  14  39  14
M  ISO  2  40  14  41  14
M  END
>  <minimizedAffinity>  (1) 
-5.31566

>  <minimizedRMSD>  (1) 
2.21631885

$$$$
