
     RDKit          3D

 27 29  0  0  0  0  0  0  0  0999 V2000
   46.6900   34.8080   42.0450 C   0  0  0  0  0  0  0  0  0  0  0  0
   47.9620   35.2980   41.9900 C   0  0  0  0  0  0  0  0  0  0  0  0
   48.7380   35.1780   40.8410 C   0  0  0  0  0  0  0  0  0  0  0  0
   48.2300   34.5510   39.7100 C   0  0  0  0  0  0  0  0  0  0  0  0
   46.9510   34.0640   39.7810 C   0  0  0  0  0  0  0  0  0  0  0  0
   46.1640   34.1780   40.9260 C   0  0  0  0  0  0  0  0  0  0  0  0
   44.4580   36.0890   44.7920 C   0  0  0  0  0  0  0  0  0  0  0  0
   45.1080   36.0600   43.5370 C   0  0  0  0  0  0  0  0  0  0  0  0
   45.9480   34.9800   43.2970 C   0  0  0  0  0  0  0  0  0  0  0  0
   46.1090   34.0170   44.2510 N   0  0  0  0  0  0  0  0  0  0  0  0
   45.4560   34.1040   45.4350 C   0  0  0  0  0  0  0  0  0  0  0  0
   44.6390   35.1290   45.7030 N   0  0  0  0  0  0  0  0  0  0  0  0
   44.7870   33.6720   41.0530 C   0  0  0  0  0  0  0  0  0  0  0  0
   43.5970   34.3510   40.5400 C   0  0  0  0  0  0  0  0  0  0  0  0
   44.1630   33.1620   39.7640 C   0  0  0  0  0  0  0  0  0  0  0  0
   48.3838   35.7992   42.8737 H   0  0  0  0  0  0  0  0  0  0  0  0
   49.7609   35.5825   40.8282 H   0  0  0  0  0  0  0  0  0  0  0  0
   48.8305   34.4495   38.7940 H   0  0  0  0  0  0  0  0  0  0  0  0
   46.5279   33.5625   38.8981 H   0  0  0  0  0  0  0  0  0  0  0  0
   43.7837   36.9263   45.0251 H   0  0  0  0  0  0  0  0  0  0  0  0
   44.9564   36.8520   42.7889 H   0  0  0  0  0  0  0  0  0  0  0  0
   45.6003   33.3172   46.1900 H   0  0  0  0  0  0  0  0  0  0  0  0
   45.0140   33.3007   42.0632 H   0  0  0  0  0  0  0  0  0  0  0  0
   42.6388   34.2516   41.0710 H   0  0  0  0  0  0  0  0  0  0  0  0
   43.3526   35.3928   40.2853 H   0  0  0  0  0  0  0  0  0  0  0  0
   43.6266   32.2018   39.7465 H   0  0  0  0  0  0  0  0  0  0  0  0
   44.5066   32.9774   38.7355 H   0  0  0  0  0  0  0  0  0  0  0  0
  1  9  1  0
  2  1  2  0
  3  2  1  0
  4  5  1  0
  4  3  2  0
  5  6  2  0
  6 13  1  0
  6  1  1  0
  7 12  2  0
  8  7  1  0
  9  8  2  0
  9 10  1  0
 10 11  2  0
 11 12  1  0
 14 13  1  0
 15 14  1  0
 15 13  1  0
  2 16  1  0
  3 17  1  0
  4 18  1  0
  5 19  1  0
  7 20  1  0
  8 21  1  0
 11 22  1  0
 13 23  1  0
 14 24  1  0
 14 25  1  0
 15 26  1  0
 15 27  1  0
M  ISO  8  16  14  17  14  18  14  19  14  20  14  21  14  22  14  23  13
M  ISO  4  24  13  25  13  26  13  27  13
M  END
>  <minimizedAffinity>  (1) 
-5.25873852

>  <minimizedRMSD>  (1) 
0.649075031

$$$$
