
     RDKit          3D

 37 39  0  0  1  0  0  0  0  0999 V2000
   45.5150   33.7350   40.1760 C   0  0  0  0  0  0  0  0  0  0  0  0
   44.2030   33.7800   40.5860 C   0  0  0  0  0  0  0  0  0  0  0  0
   43.4440   33.3710   39.5650 N   0  0  0  0  0  0  0  0  0  0  0  0
   44.2360   33.0750   38.5340 C   0  0  0  0  0  0  0  0  0  0  0  0
   45.5000   33.2990   38.9180 N   0  0  0  0  0  0  0  0  0  0  0  0
   47.1410   34.2660   37.4090 N   0  0  0  0  0  0  0  0  0  0  0  0
   48.4520   33.8990   36.9560 C   0  0  0  0  0  0  0  0  0  0  0  0
   48.9750   32.8260   37.8490 C   0  0  0  0  0  0  0  0  0  0  0  0
   47.8170   32.6320   38.8630 C   0  0  0  0  0  0  0  0  0  0  0  0
   46.7070   33.1170   38.1410 C   0  0  1  0  0  0  0  0  0  0  0  0
   46.6090   34.1270   41.0410 C   0  0  0  0  0  0  0  0  0  0  0  0
   46.1790   35.1920   42.0430 C   0  0  0  0  0  0  0  0  0  0  0  0
   47.0550   33.5900   43.6510 C   0  0  0  0  0  0  0  0  0  0  0  0
   46.1340   34.5790   43.3450 C   0  0  0  0  0  0  0  0  0  0  0  0
   45.1930   34.9180   44.3210 C   0  0  0  0  0  0  0  0  0  0  0  0
   45.2380   34.2600   45.5110 N   0  0  0  0  0  0  0  0  0  0  0  0
   46.1510   33.3020   45.7700 C   0  0  0  0  0  0  0  0  0  0  0  0
   47.0670   32.9610   44.8410 N   0  0  0  0  0  0  0  0  0  0  0  0
   46.1250   32.6480   47.0730 C   0  0  0  0  0  0  0  0  0  0  0  0
   45.1140   32.8570   47.7860 O   0  0  0  0  0  0  0  0  0  0  0  0
   43.8431   34.0959   41.5763 H   0  0  0  0  0  0  0  0  0  0  0  0
   43.9108   32.7128   37.5476 H   0  0  0  0  0  0  0  0  0  0  0  0
   46.5152   34.4531   36.6126 H   0  0  0  0  0  0  0  0  0  0  0  0
   48.3974   33.5279   35.9219 H   0  0  0  0  0  0  0  0  0  0  0  0
   49.1198   34.7727   36.9836 H   0  0  0  0  0  0  0  0  0  0  0  0
   49.1687   31.9009   37.2862 H   0  0  0  0  0  0  0  0  0  0  0  0
   49.9333   33.0822   38.3244 H   0  0  0  0  0  0  0  0  0  0  0  0
   47.6899   31.5714   39.1256 H   0  0  0  0  0  0  0  0  0  0  0  0
   47.9788   33.1447   39.8227 H   0  0  0  0  0  0  0  0  0  0  0  0
   46.3690   32.3456   37.4334 H   0  0  0  0  0  0  0  0  0  0  0  0
   46.9640   33.2426   41.5905 H   0  0  0  0  0  0  0  0  0  0  0  0
   47.4091   34.5478   40.4142 H   0  0  0  0  0  0  0  0  0  0  0  0
   46.9039   36.0194   42.0438 H   0  0  0  0  0  0  0  0  0  0  0  0
   45.1918   35.5960   41.7743 H   0  0  0  0  0  0  0  0  0  0  0  0
   47.8027   33.3090   42.8948 H   0  0  0  0  0  0  0  0  0  0  0  0
   44.4373   35.6948   44.1325 H   0  0  0  0  0  0  0  0  0  0  0  0
   46.9495   32.0044   47.4134 H   0  0  0  0  0  0  0  0  0  0  0  0
  1  2  2  0
  1 11  1  0
  3  2  1  0
  4  5  1  0
  4  3  2  0
  5  1  1  0
  6 10  1  0
  7  6  1  0
  7  8  1  0
  8  9  1  0
 10  9  1  0
 10  5  1  0
 11 12  1  0
 12 14  1  0
 13 18  2  0
 14 13  1  0
 14 15  2  0
 15 16  1  0
 16 17  2  0
 17 19  1  0
 18 17  1  0
 19 20  2  0
  2 21  1  0
  4 22  1  0
  6 23  1  0
  7 24  1  0
  7 25  1  0
  8 26  1  0
  8 27  1  0
  9 28  1  0
  9 29  1  0
 10 30  1  6
 11 31  1  0
 11 32  1  0
 12 33  1  0
 12 34  1  0
 13 35  1  0
 15 36  1  0
 19 37  1  0
M  ISO  8  21  14  22  14  23   5  24  13  25  13  26  13  27  13  28  13
M  ISO  8  29  13  30  13  31   8  32   8  33   8  34   8  35  14  36  14
M  ISO  1  37   6
M  END
>  <minimizedAffinity>  (1) 
-4.65575552

>  <minimizedRMSD>  (1) 
1.49735427

$$$$
