
     RDKit          3D

 40 42  0  0  1  0  0  0  0  0999 V2000
   45.5400   33.7630   40.1550 C   0  0  0  0  0  0  0  0  0  0  0  0
   44.2450   33.8150   40.5810 C   0  0  0  0  0  0  0  0  0  0  0  0
   43.4790   33.3840   39.5590 N   0  0  0  0  0  0  0  0  0  0  0  0
   44.2580   33.0720   38.5340 C   0  0  0  0  0  0  0  0  0  0  0  0
   45.5310   33.3040   38.8990 N   0  0  0  0  0  0  0  0  0  0  0  0
   47.1770   34.2600   37.4000 N   0  0  0  0  0  0  0  0  0  0  0  0
   48.4620   33.8520   36.9220 C   0  0  0  0  0  0  0  0  0  0  0  0
   48.9890   32.7940   37.8400 C   0  0  0  0  0  0  0  0  0  0  0  0
   47.8080   32.5560   38.8290 C   0  0  0  0  0  0  0  0  0  0  0  0
   46.7430   33.1090   38.1350 C   0  0  1  0  0  0  0  0  0  0  0  0
   46.6590   34.1780   40.9980 C   0  0  0  0  0  0  0  0  0  0  0  0
   46.2120   35.2310   41.9960 C   0  0  0  0  0  0  0  0  0  0  0  0
   47.0010   33.6230   43.6100 C   0  0  0  0  0  0  0  0  0  0  0  0
   46.1250   34.6340   43.3050 C   0  0  0  0  0  0  0  0  0  0  0  0
   45.1770   35.0170   44.2640 C   0  0  0  0  0  0  0  0  0  0  0  0
   45.1800   34.3580   45.4480 N   0  0  0  0  0  0  0  0  0  0  0  0
   46.0420   33.3730   45.7250 C   0  0  0  0  0  0  0  0  0  0  0  0
   46.9620   32.9980   44.8020 N   0  0  0  0  0  0  0  0  0  0  0  0
   45.9410   32.7260   47.0540 C   0  0  0  0  0  0  0  0  0  0  0  0
   44.8890   33.2820   47.7630 F   0  0  0  0  0  0  0  0  0  0  0  0
   45.5690   31.4030   46.7960 F   0  0  0  0  0  0  0  0  0  0  0  0
   47.1420   32.7840   47.7330 F   0  0  0  0  0  0  0  0  0  0  0  0
   44.2830   36.0690   43.9210 N   0  0  0  0  0  0  0  0  0  0  0  0
   43.8932   34.1455   41.5695 H   0  0  0  0  0  0  0  0  0  0  0  0
   43.9230   32.6910   37.5580 H   0  0  0  0  0  0  0  0  0  0  0  0
   46.5374   34.4668   36.6195 H   0  0  0  0  0  0  0  0  0  0  0  0
   48.3691   33.4481   35.9031 H   0  0  0  0  0  0  0  0  0  0  0  0
   49.1487   34.7110   36.8989 H   0  0  0  0  0  0  0  0  0  0  0  0
   49.2295   31.8751   37.2852 H   0  0  0  0  0  0  0  0  0  0  0  0
   49.9208   33.0879   38.3453 H   0  0  0  0  0  0  0  0  0  0  0  0
   47.6513   31.4833   39.0153 H   0  0  0  0  0  0  0  0  0  0  0  0
   47.9660   32.9932   39.8259 H   0  0  0  0  0  0  0  0  0  0  0  0
   46.4153   32.3504   37.4089 H   0  0  0  0  0  0  0  0  0  0  0  0
   47.0452   33.3039   41.5428 H   0  0  0  0  0  0  0  0  0  0  0  0
   47.4459   34.6052   40.3591 H   0  0  0  0  0  0  0  0  0  0  0  0
   46.9415   36.0541   42.0144 H   0  0  0  0  0  0  0  0  0  0  0  0
   45.2279   35.6253   41.7026 H   0  0  0  0  0  0  0  0  0  0  0  0
   47.7506   33.3168   42.8654 H   0  0  0  0  0  0  0  0  0  0  0  0
   43.5712   36.3809   44.5970 H   0  0  0  0  0  0  0  0  0  0  0  0
   44.3475   36.5188   42.9966 H   0  0  0  0  0  0  0  0  0  0  0  0
  1  2  2  0
  1 11  1  0
  3  2  1  0
  4  5  1  0
  4  3  2  0
  5  1  1  0
  6 10  1  0
  7  6  1  0
  7  8  1  0
  8  9  1  0
 10  9  1  0
 10  5  1  0
 11 12  1  0
 12 14  1  0
 13 18  2  0
 14 13  1  0
 14 15  2  0
 15 16  1  0
 16 17  2  0
 17 19  1  0
 18 17  1  0
 19 22  1  0
 19 20  1  0
 21 19  1  0
 23 15  1  0
  2 24  1  0
  4 25  1  0
  6 26  1  0
  7 27  1  0
  7 28  1  0
  8 29  1  0
  8 30  1  0
  9 31  1  0
  9 32  1  0
 10 33  1  6
 11 34  1  0
 11 35  1  0
 12 36  1  0
 12 37  1  0
 13 38  1  0
 23 39  1  0
 23 40  1  0
M  ISO  8  24  14  25  14  26   5  27  13  28  13  29  13  30  13  31  13
M  ISO  7  32  13  33  13  34   8  35   8  36   8  37   8  38  14
M  END
>  <minimizedAffinity>  (1) 
-5.73573732

>  <minimizedRMSD>  (1) 
0.138698921

$$$$
