
     RDKit          3D

 23 24  0  0  0  0  0  0  0  0999 V2000
   46.6640   34.7490   42.0090 C   0  0  0  0  0  0  0  0  0  0  0  0
   47.9020   35.3240   41.8860 C   0  0  0  0  0  0  0  0  0  0  0  0
   48.6650   35.2010   40.7190 C   0  0  0  0  0  0  0  0  0  0  0  0
   48.1500   34.4640   39.6350 C   0  0  0  0  0  0  0  0  0  0  0  0
   46.9120   33.8900   39.7580 C   0  0  0  0  0  0  0  0  0  0  0  0
   46.1800   34.0310   40.9300 C   0  0  0  0  0  0  0  0  0  0  0  0
   44.4700   36.0200   44.7790 C   0  0  0  0  0  0  0  0  0  0  0  0
   45.0970   35.9810   43.5200 C   0  0  0  0  0  0  0  0  0  0  0  0
   45.9500   34.9280   43.2510 C   0  0  0  0  0  0  0  0  0  0  0  0
   46.1460   33.9770   44.2120 N   0  0  0  0  0  0  0  0  0  0  0  0
   45.5200   34.0520   45.4190 C   0  0  0  0  0  0  0  0  0  0  0  0
   44.6860   35.0760   45.6910 N   0  0  0  0  0  0  0  0  0  0  0  0
   44.8610   33.4030   41.0230 C   0  0  0  0  0  0  0  0  0  0  0  0
   48.3085   35.8999   42.7304 H   0  0  0  0  0  0  0  0  0  0  0  0
   49.6554   35.6745   40.6494 H   0  0  0  0  0  0  0  0  0  0  0  0
   48.7305   34.3514   38.7075 H   0  0  0  0  0  0  0  0  0  0  0  0
   46.4938   33.3120   38.9207 H   0  0  0  0  0  0  0  0  0  0  0  0
   43.7864   36.8491   45.0142 H   0  0  0  0  0  0  0  0  0  0  0  0
   44.9134   36.7660   42.7717 H   0  0  0  0  0  0  0  0  0  0  0  0
   45.6956   33.2733   46.1759 H   0  0  0  0  0  0  0  0  0  0  0  0
   44.5901   33.2740   42.0813 H   0  0  0  0  0  0  0  0  0  0  0  0
   44.1148   34.0425   40.5288 H   0  0  0  0  0  0  0  0  0  0  0  0
   44.8870   32.4206   40.5288 H   0  0  0  0  0  0  0  0  0  0  0  0
  1  9  1  0
  2  1  2  0
  3  2  1  0
  4  5  1  0
  4  3  2  0
  5  6  2  0
  6 13  1  0
  6  1  1  0
  7 12  2  0
  8  7  1  0
  9  8  2  0
  9 10  1  0
 10 11  2  0
 11 12  1  0
  2 14  1  0
  3 15  1  0
  4 16  1  0
  5 17  1  0
  7 18  1  0
  8 19  1  0
 11 20  1  0
 13 21  1  0
 13 22  1  0
 13 23  1  0
M  ISO  8  14  14  15  14  16  14  17  14  18  14  19  14  20  14  21   8
M  ISO  2  22   8  23   8
M  END
>  <minimizedAffinity>  (1) 
-5.12695789

>  <minimizedRMSD>  (1) 
0.0607229657

$$$$
