
     RDKit          3D

 50 52  0  0  1  0  0  0  0  0999 V2000
   46.8070   33.4280   40.3920 C   0  0  0  0  0  0  0  0  0  0  0  0
   45.6360   33.2570   39.5470 C   0  0  0  0  0  0  0  0  0  0  0  0
   44.3750   33.2550   40.0420 C   0  0  0  0  0  0  0  0  0  0  0  0
   43.5300   33.1070   39.0160 N   0  0  0  0  0  0  0  0  0  0  0  0
   44.2490   33.0140   37.8980 C   0  0  0  0  0  0  0  0  0  0  0  0
   45.5470   33.1050   38.2320 N   0  0  0  0  0  0  0  0  0  0  0  0
   47.4630   34.2290   37.2610 N   0  0  0  0  0  0  0  0  0  0  0  0
   48.6410   33.8080   36.5590 C   0  0  0  0  0  0  0  0  0  0  0  0
   48.8070   32.3480   36.7730 C   0  0  0  0  0  0  0  0  0  0  0  0
   47.5580   31.9450   37.6090 C   0  0  0  0  0  0  0  0  0  0  0  0
   46.7110   33.0270   37.3720 C   0  0  1  0  0  0  0  0  0  0  0  0
   46.5770   34.5230   41.4470 C   0  0  0  0  0  0  0  0  0  0  0  0
   47.5060   32.8400   42.9340 C   0  0  0  0  0  0  0  0  0  0  0  0
   46.6550   33.9360   42.7420 C   0  0  0  0  0  0  0  0  0  0  0  0
   45.9080   34.3920   43.8170 C   0  0  0  0  0  0  0  0  0  0  0  0
   46.0700   33.7060   44.9960 N   0  0  0  0  0  0  0  0  0  0  0  0
   46.8830   32.6610   45.1560 C   0  0  0  0  0  0  0  0  0  0  0  0
   47.6130   32.2200   44.1190 N   0  0  0  0  0  0  0  0  0  0  0  0
   46.9380   32.0280   46.4920 C   0  0  0  0  0  0  0  0  0  0  0  0
   45.6860   31.5300   46.8290 F   0  0  0  0  0  0  0  0  0  0  0  0
   47.7500   30.8960   46.3360 F   0  0  0  0  0  0  0  0  0  0  0  0
   47.4580   32.8890   47.4370 F   0  0  0  0  0  0  0  0  0  0  0  0
   45.0230   35.5590   43.8520 C   0  0  0  0  0  0  0  0  0  0  0  0
   43.7600   35.1910   42.9830 C   0  0  0  0  0  0  0  0  0  0  0  0
   45.4460   36.8230   43.1920 C   0  0  0  0  0  0  0  0  0  0  0  0
   44.4120   35.7920   45.2200 C   0  0  0  0  0  0  0  0  0  0  0  0
   47.6647   33.7098   39.7636 H   0  0  0  0  0  0  0  0  0  0  0  0
   47.0024   32.4788   40.9124 H   0  0  0  0  0  0  0  0  0  0  0  0
   44.0954   33.3571   41.1010 H   0  0  0  0  0  0  0  0  0  0  0  0
   43.8501   32.8854   36.8810 H   0  0  0  0  0  0  0  0  0  0  0  0
   46.9467   34.9407   36.7245 H   0  0  0  0  0  0  0  0  0  0  0  0
   49.5190   34.3443   36.9483 H   0  0  0  0  0  0  0  0  0  0  0  0
   48.5445   34.0278   35.4855 H   0  0  0  0  0  0  0  0  0  0  0  0
   48.8243   31.8117   35.8128 H   0  0  0  0  0  0  0  0  0  0  0  0
   49.7522   32.0991   37.2776 H   0  0  0  0  0  0  0  0  0  0  0  0
   47.1188   31.0031   37.2486 H   0  0  0  0  0  0  0  0  0  0  0  0
   47.7678   31.7613   38.6731 H   0  0  0  0  0  0  0  0  0  0  0  0
   46.2363   32.8517   36.3953 H   0  0  0  0  0  0  0  0  0  0  0  0
   47.3482   35.3009   41.3466 H   0  0  0  0  0  0  0  0  0  0  0  0
   45.5866   34.9792   41.3024 H   0  0  0  0  0  0  0  0  0  0  0  0
   48.1054   32.4762   42.0865 H   0  0  0  0  0  0  0  0  0  0  0  0
   42.9175   34.9455   43.6462 H   0  0  0  0  0  0  0  0  0  0  0  0
   43.4894   36.0477   42.3482 H   0  0  0  0  0  0  0  0  0  0  0  0
   43.9919   34.3231   42.3482 H   0  0  0  0  0  0  0  0  0  0  0  0
   45.6963   37.5710   43.9587 H   0  0  0  0  0  0  0  0  0  0  0  0
   46.3290   36.6314   42.5646 H   0  0  0  0  0  0  0  0  0  0  0  0
   44.6255   37.2014   42.5646 H   0  0  0  0  0  0  0  0  0  0  0  0
   45.1385   35.5149   45.9981 H   0  0  0  0  0  0  0  0  0  0  0  0
   44.1471   36.8542   45.3272 H   0  0  0  0  0  0  0  0  0  0  0  0
   43.5071   35.1758   45.3272 H   0  0  0  0  0  0  0  0  0  0  0  0
  1 12  1  0
  2  3  2  0
  2  1  1  0
  4  3  1  0
  5  6  1  0
  5  4  2  0
  6  2  1  0
  7 11  1  0
  8  9  1  0
  8  7  1  0
  9 10  1  0
 11 10  1  0
 11  6  1  0
 12 14  1  0
 13 18  2  0
 14 13  1  0
 14 15  2  0
 15 23  1  0
 15 16  1  0
 16 17  2  0
 17 19  1  0
 18 17  1  0
 19 20  1  0
 19 22  1  0
 21 19  1  0
 23 26  1  0
 24 23  1  0
 25 23  1  0
  1 27  1  0
  1 28  1  0
  3 29  1  0
  5 30  1  0
  7 31  1  0
  8 32  1  0
  8 33  1  0
  9 34  1  0
  9 35  1  0
 10 36  1  0
 10 37  1  0
 11 38  1  6
 12 39  1  0
 12 40  1  0
 13 41  1  0
 24 42  1  0
 24 43  1  0
 24 44  1  0
 25 45  1  0
 25 46  1  0
 25 47  1  0
 26 48  1  0
 26 49  1  0
 26 50  1  0
M  ISO  8  27   8  28   8  29  14  30  14  31   5  32  13  33  13  34  13
M  ISO  8  35  13  36  13  37  13  38  13  39   8  40   8  41  14  42   8
M  ISO  8  43   8  44   8  45   8  46   8  47   8  48   8  49   8  50   8
M  END
>  <minimizedAffinity>  (1) 
-5.20752096

>  <minimizedRMSD>  (1) 
1.05270755

$$$$
