
     RDKit          3D

 44 46  0  0  1  0  0  0  0  0999 V2000
   45.6900   33.3840   39.9120 C   0  0  0  0  0  0  0  0  0  0  0  0
   44.4110   33.4600   40.3770 C   0  0  0  0  0  0  0  0  0  0  0  0
   43.5930   33.2980   39.3290 N   0  0  0  0  0  0  0  0  0  0  0  0
   44.3200   33.1250   38.2380 C   0  0  0  0  0  0  0  0  0  0  0  0
   45.6160   33.1760   38.5920 N   0  0  0  0  0  0  0  0  0  0  0  0
   47.3860   34.2680   37.3510 N   0  0  0  0  0  0  0  0  0  0  0  0
   48.6100   33.8370   36.7430 C   0  0  0  0  0  0  0  0  0  0  0  0
   48.9700   32.5050   37.3120 C   0  0  0  0  0  0  0  0  0  0  0  0
   47.7620   32.1670   38.2390 C   0  0  0  0  0  0  0  0  0  0  0  0
   46.7890   33.0310   37.7600 C   0  0  1  0  0  0  0  0  0  0  0  0
   46.8620   33.5340   40.7730 C   0  0  0  0  0  0  0  0  0  0  0  0
   46.6940   34.7310   41.7010 C   0  0  0  0  0  0  0  0  0  0  0  0
   47.3560   33.3200   43.5360 C   0  0  0  0  0  0  0  0  0  0  0  0
   46.4870   34.2660   43.0410 C   0  0  0  0  0  0  0  0  0  0  0  0
   45.4500   34.6890   43.8590 C   0  0  0  0  0  0  0  0  0  0  0  0
   45.3370   34.1530   45.1000 N   0  0  0  0  0  0  0  0  0  0  0  0
   46.1950   33.2270   45.5600 C   0  0  0  0  0  0  0  0  0  0  0  0
   47.2160   32.8040   44.7750 N   0  0  0  0  0  0  0  0  0  0  0  0
   45.9770   32.7030   46.9280 C   0  0  0  0  0  0  0  0  0  0  0  0
   44.9070   33.3660   47.5080 F   0  0  0  0  0  0  0  0  0  0  0  0
   45.5580   31.3780   46.7580 F   0  0  0  0  0  0  0  0  0  0  0  0
   47.1310   32.7750   47.6820 F   0  0  0  0  0  0  0  0  0  0  0  0
   44.4900   35.7210   43.3990 C   0  0  0  0  0  0  0  0  0  0  0  0
   44.9810   37.1180   43.8030 C   0  0  0  0  0  0  0  0  0  0  0  0
   44.1066   33.6242   41.4212 H   0  0  0  0  0  0  0  0  0  0  0  0
   43.9328   32.9672   37.2206 H   0  0  0  0  0  0  0  0  0  0  0  0
   46.7886   34.7635   36.6739 H   0  0  0  0  0  0  0  0  0  0  0  0
   49.4085   34.5622   36.9589 H   0  0  0  0  0  0  0  0  0  0  0  0
   48.4870   33.7635   35.6524 H   0  0  0  0  0  0  0  0  0  0  0  0
   49.0773   31.7534   36.5161 H   0  0  0  0  0  0  0  0  0  0  0  0
   49.9314   32.5129   37.8465 H   0  0  0  0  0  0  0  0  0  0  0  0
   47.4544   31.1166   38.1296 H   0  0  0  0  0  0  0  0  0  0  0  0
   47.9755   32.2858   39.3115 H   0  0  0  0  0  0  0  0  0  0  0  0
   46.3584   32.5532   36.8676 H   0  0  0  0  0  0  0  0  0  0  0  0
   46.9865   32.6229   41.3766 H   0  0  0  0  0  0  0  0  0  0  0  0
   47.7483   33.6953   40.1418 H   0  0  0  0  0  0  0  0  0  0  0  0
   47.5995   35.3545   41.6641 H   0  0  0  0  0  0  0  0  0  0  0  0
   45.8274   35.3275   41.3799 H   0  0  0  0  0  0  0  0  0  0  0  0
   48.1876   32.9751   42.9040 H   0  0  0  0  0  0  0  0  0  0  0  0
   43.5079   35.5341   43.8578 H   0  0  0  0  0  0  0  0  0  0  0  0
   44.4076   35.6721   42.3032 H   0  0  0  0  0  0  0  0  0  0  0  0
   45.0078   37.1942   44.9000 H   0  0  0  0  0  0  0  0  0  0  0  0
   45.9909   37.2827   43.3992 H   0  0  0  0  0  0  0  0  0  0  0  0
   44.2962   37.8783   43.3992 H   0  0  0  0  0  0  0  0  0  0  0  0
  1  2  2  0
  1 11  1  0
  3  2  1  0
  4  5  1  0
  4  3  2  0
  5  1  1  0
  6 10  1  0
  7  8  1  0
  7  6  1  0
  8  9  1  0
 10  9  1  0
 10  5  1  0
 11 12  1  0
 12 14  1  0
 13 18  2  0
 14 13  1  0
 14 15  2  0
 15 16  1  0
 16 17  2  0
 17 19  1  0
 18 17  1  0
 19 20  1  0
 19 22  1  0
 21 19  1  0
 23 24  1  0
 23 15  1  0
  2 25  1  0
  4 26  1  0
  6 27  1  0
  7 28  1  0
  7 29  1  0
  8 30  1  0
  8 31  1  0
  9 32  1  0
  9 33  1  0
 10 34  1  6
 11 35  1  0
 11 36  1  0
 12 37  1  0
 12 38  1  0
 13 39  1  0
 23 40  1  0
 23 41  1  0
 24 42  1  0
 24 43  1  0
 24 44  1  0
M  ISO  8  25  14  26  14  27   5  28  13  29  13  30  13  31  13  32  13
M  ISO  8  33  13  34  13  35   8  36   8  37   8  38   8  39  14  40   8
M  ISO  4  41   8  42   8  43   8  44   8
M  END
>  <minimizedAffinity>  (1) 
-5.27697182

>  <minimizedRMSD>  (1) 
0.397684276

$$$$
