
     RDKit          3D

 31 34  0  0  0  0  0  0  0  0999 V2000
   46.7640   34.7960   42.0900 C   0  0  0  0  0  0  0  0  0  0  0  0
   47.9900   35.3600   41.8200 C   0  0  0  0  0  0  0  0  0  0  0  0
   48.6280   35.1350   40.6390 C   0  0  0  0  0  0  0  0  0  0  0  0
   47.8880   34.2650   39.7340 C   0  0  0  0  0  0  0  0  0  0  0  0
   46.3810   33.8800   40.6840 S   0  0  0  0  0  0  0  0  0  0  0  0
   48.2960   33.8460   38.4250 C   0  0  0  0  0  0  0  0  0  0  0  0
   48.1600   34.5140   37.2290 C   0  0  0  0  0  0  0  0  0  0  0  0
   48.7020   33.6910   36.3150 N   0  0  0  0  0  0  0  0  0  0  0  0
   49.1670   32.5530   36.8600 C   0  0  0  0  0  0  0  0  0  0  0  0
   49.7850   31.4710   36.2520 C   0  0  0  0  0  0  0  0  0  0  0  0
   50.1690   30.4180   37.0610 C   0  0  0  0  0  0  0  0  0  0  0  0
   49.9440   30.4400   38.4340 C   0  0  0  0  0  0  0  0  0  0  0  0
   49.3220   31.5510   38.9660 C   0  0  0  0  0  0  0  0  0  0  0  0
   48.9150   32.6320   38.2260 C   0  0  0  0  0  0  0  0  0  0  0  0
   44.4620   35.9860   44.7970 C   0  0  0  0  0  0  0  0  0  0  0  0
   45.1170   35.9890   43.5490 C   0  0  0  0  0  0  0  0  0  0  0  0
   46.0020   34.9580   43.2950 C   0  0  0  0  0  0  0  0  0  0  0  0
   46.1970   34.0030   44.2460 N   0  0  0  0  0  0  0  0  0  0  0  0
   45.5560   34.0330   45.4250 C   0  0  0  0  0  0  0  0  0  0  0  0
   44.6930   35.0110   45.7100 N   0  0  0  0  0  0  0  0  0  0  0  0
   48.4639   36.0057   42.5740 H   0  0  0  0  0  0  0  0  0  0  0  0
   49.6083   35.5683   40.3914 H   0  0  0  0  0  0  0  0  0  0  0  0
   47.7079   35.5023   37.0590 H   0  0  0  0  0  0  0  0  0  0  0  0
   48.7552   33.9077   35.3095 H   0  0  0  0  0  0  0  0  0  0  0  0
   49.9630   31.4513   35.1667 H   0  0  0  0  0  0  0  0  0  0  0  0
   50.6627   29.5445   36.6100 H   0  0  0  0  0  0  0  0  0  0  0  0
   50.2517   29.5999   39.0739 H   0  0  0  0  0  0  0  0  0  0  0  0
   49.1413   31.5710   40.0509 H   0  0  0  0  0  0  0  0  0  0  0  0
   43.7499   36.7900   45.0346 H   0  0  0  0  0  0  0  0  0  0  0  0
   44.9314   36.7798   42.8072 H   0  0  0  0  0  0  0  0  0  0  0  0
   45.7441   33.2418   46.1657 H   0  0  0  0  0  0  0  0  0  0  0  0
  1 17  1  0
  2  1  2  0
  3  2  1  0
  4  3  2  0
  4  5  1  0
  5  1  1  0
  6  4  1  0
  7  6  2  0
  8  9  1  0
  8  7  1  0
  9 14  2  0
 10  9  1  0
 10 11  2  0
 11 12  1  0
 12 13  2  0
 14  6  1  0
 14 13  1  0
 15 20  2  0
 16 15  1  0
 17 16  2  0
 17 18  1  0
 18 19  2  0
 19 20  1  0
  2 21  1  0
  3 22  1  0
  7 23  1  0
  8 24  1  0
 10 25  1  0
 11 26  1  0
 12 27  1  0
 13 28  1  0
 15 29  1  0
 16 30  1  0
 19 31  1  0
M  ISO  8  21  14  22  14  23  14  24   9  25  14  26  14  27  14  28  14
M  ISO  3  29  14  30  14  31  14
M  END
>  <minimizedAffinity>  (1) 
-5.99694633

>  <minimizedRMSD>  (1) 
0.173619524

$$$$
