
     RDKit          3D

 30 32  0  0  0  0  0  0  0  0999 V2000
   46.4800   34.5880   41.8600 C   0  0  0  0  0  0  0  0  0  0  0  0
   47.7380   34.9850   41.4820 C   0  0  0  0  0  0  0  0  0  0  0  0
   48.2340   34.6810   40.2560 C   0  0  0  0  0  0  0  0  0  0  0  0
   47.3070   33.9110   39.4230 C   0  0  0  0  0  0  0  0  0  0  0  0
   45.8500   33.7240   40.5010 S   0  0  0  0  0  0  0  0  0  0  0  0
   44.5300   36.0910   44.6970 C   0  0  0  0  0  0  0  0  0  0  0  0
   45.0820   35.9870   43.3990 C   0  0  0  0  0  0  0  0  0  0  0  0
   45.8460   34.8490   43.1220 C   0  0  0  0  0  0  0  0  0  0  0  0
   46.0120   33.9320   44.0870 N   0  0  0  0  0  0  0  0  0  0  0  0
   45.4860   34.0420   45.3050 C   0  0  0  0  0  0  0  0  0  0  0  0
   44.7410   35.1250   45.6180 N   0  0  0  0  0  0  0  0  0  0  0  0
   47.7240   32.4140   35.5740 C   0  0  0  0  0  0  0  0  0  0  0  0
   48.7210   33.2150   36.0910 C   0  0  0  0  0  0  0  0  0  0  0  0
   48.6590   33.7510   37.3610 C   0  0  0  0  0  0  0  0  0  0  0  0
   47.5330   33.4380   38.0860 C   0  0  0  0  0  0  0  0  0  0  0  0
   46.5210   32.6390   37.5940 C   0  0  0  0  0  0  0  0  0  0  0  0
   46.5980   32.1070   36.3120 C   0  0  0  0  0  0  0  0  0  0  0  0
   47.8810   31.7740   33.9520 S   0  0  0  0  0  0  0  0  0  0  0  0
   46.5770   31.1170   33.5780 O   0  0  0  0  0  0  0  0  0  0  0  0
   48.0420   32.9370   32.9960 O   0  0  0  0  0  0  0  0  0  0  0  0
   48.3563   35.5608   42.1864 H   0  0  0  0  0  0  0  0  0  0  0  0
   49.2366   34.9839   39.9197 H   0  0  0  0  0  0  0  0  0  0  0  0
   43.9216   36.9689   44.9600 H   0  0  0  0  0  0  0  0  0  0  0  0
   44.9176   36.7669   42.6408 H   0  0  0  0  0  0  0  0  0  0  0  0
   45.6572   33.2544   46.0536 H   0  0  0  0  0  0  0  0  0  0  0  0
   49.5995   33.4350   35.4666 H   0  0  0  0  0  0  0  0  0  0  0  0
   49.4587   34.3877   37.7674 H   0  0  0  0  0  0  0  0  0  0  0  0
   45.6449   32.4210   38.2224 H   0  0  0  0  0  0  0  0  0  0  0  0
   45.7987   31.4707   35.9042 H   0  0  0  0  0  0  0  0  0  0  0  0
   48.9382   30.9046   33.8935 H   0  0  0  0  0  0  0  0  0  0  0  0
  1  8  1  0
  2  1  2  0
  3  2  1  0
  4  3  2  0
  4  5  1  0
  5  1  1  0
  6 11  2  0
  7  6  1  0
  8  7  2  0
  8  9  1  0
  9 10  2  0
 10 11  1  0
 12 13  2  0
 12 17  1  0
 13 14  1  0
 14 15  2  0
 15  4  1  0
 16 15  1  0
 17 16  2  0
 18 12  1  0
 19 18  2  0
 20 18  2  0
  2 21  1  0
  3 22  1  0
  6 23  1  0
  7 24  1  0
 10 25  1  0
 13 26  1  0
 14 27  1  0
 16 28  1  0
 17 29  1  0
 18 30  1  0
M  ISO  8  21  14  22  14  23  14  24  14  25  14  26  14  27  14  28  14
M  ISO  2  29  14  30  11
M  END
>  <minimizedAffinity>  (1) 
-5.62660837

>  <minimizedRMSD>  (1) 
1.03230357

$$$$
