
     RDKit          3D

 31 33  0  0  0  0  0  0  0  0999 V2000
   46.8120   34.8080   42.0920 C   0  0  0  0  0  0  0  0  0  0  0  0
   48.0200   35.3890   41.8160 C   0  0  0  0  0  0  0  0  0  0  0  0
   48.6630   35.1420   40.6500 C   0  0  0  0  0  0  0  0  0  0  0  0
   47.9530   34.2250   39.7560 C   0  0  0  0  0  0  0  0  0  0  0  0
   46.4320   33.8240   40.7050 S   0  0  0  0  0  0  0  0  0  0  0  0
   44.4580   35.9960   44.7720 C   0  0  0  0  0  0  0  0  0  0  0  0
   45.1400   36.0000   43.5250 C   0  0  0  0  0  0  0  0  0  0  0  0
   46.0320   34.9720   43.2830 C   0  0  0  0  0  0  0  0  0  0  0  0
   46.1910   34.0390   44.2490 N   0  0  0  0  0  0  0  0  0  0  0  0
   45.5430   34.0480   45.4170 C   0  0  0  0  0  0  0  0  0  0  0  0
   44.6700   35.0350   45.6810 N   0  0  0  0  0  0  0  0  0  0  0  0
   48.2930   33.7250   38.4940 N   0  0  0  0  0  0  0  0  0  0  0  0
   48.6610   32.3220   38.4430 C   0  0  0  0  0  0  0  0  0  0  0  0
   49.9310   32.2130   37.6230 C   0  0  0  0  0  0  0  0  0  0  0  0
   49.5350   32.4130   36.2360 N   0  0  0  0  0  0  0  0  0  0  0  0
   48.3540   33.2510   36.1460 C   0  0  0  0  0  0  0  0  0  0  0  0
   48.3580   34.3610   37.1880 C   0  0  0  0  0  0  0  0  0  0  0  0
   48.4757   36.0671   42.5526 H   0  0  0  0  0  0  0  0  0  0  0  0
   49.6345   35.5913   40.3964 H   0  0  0  0  0  0  0  0  0  0  0  0
   43.7406   36.7993   44.9956 H   0  0  0  0  0  0  0  0  0  0  0  0
   44.9647   36.7909   42.7809 H   0  0  0  0  0  0  0  0  0  0  0  0
   45.7225   33.2540   46.1568 H   0  0  0  0  0  0  0  0  0  0  0  0
   48.8373   31.9429   39.4604 H   0  0  0  0  0  0  0  0  0  0  0  0
   47.8550   31.7266   37.9894 H   0  0  0  0  0  0  0  0  0  0  0  0
   50.6509   32.9861   37.9297 H   0  0  0  0  0  0  0  0  0  0  0  0
   50.4183   31.2371   37.7649 H   0  0  0  0  0  0  0  0  0  0  0  0
   50.3080   32.8652   35.7273 H   0  0  0  0  0  0  0  0  0  0  0  0
   48.3167   33.7048   35.1447 H   0  0  0  0  0  0  0  0  0  0  0  0
   47.4742   32.6170   36.3302 H   0  0  0  0  0  0  0  0  0  0  0  0
   49.2804   34.9542   37.1032 H   0  0  0  0  0  0  0  0  0  0  0  0
   47.5037   35.0381   37.0405 H   0  0  0  0  0  0  0  0  0  0  0  0
  1  8  1  0
  2  1  2  0
  3  2  1  0
  4  3  2  0
  4  5  1  0
  5  1  1  0
  6 11  2  0
  7  6  1  0
  8  7  2  0
  8  9  1  0
  9 10  2  0
 10 11  1  0
 12  4  1  0
 13 12  1  0
 14 13  1  0
 15 14  1  0
 16 15  1  0
 16 17  1  0
 17 12  1  0
  2 18  1  0
  3 19  1  0
  6 20  1  0
  7 21  1  0
 10 22  1  0
 13 23  1  0
 13 24  1  0
 14 25  1  0
 14 26  1  0
 15 27  1  0
 16 28  1  0
 16 29  1  0
 17 30  1  0
 17 31  1  0
M  ISO  8  18  14  19  14  20  14  21  14  22  14  23  13  24  13  25  13
M  ISO  6  26  13  27   5  28  13  29  13  30  13  31  13
M  END
>  <minimizedAffinity>  (1) 
-5.73407507

>  <minimizedRMSD>  (1) 
0.19890444

$$$$
