
     RDKit          3D

 28 30  0  0  0  0  0  0  0  0999 V2000
   46.8030   34.6430   42.2440 C   0  0  0  0  0  0  0  0  0  0  0  0
   47.8960   35.3720   41.8470 C   0  0  0  0  0  0  0  0  0  0  0  0
   48.5520   35.0630   40.6980 C   0  0  0  0  0  0  0  0  0  0  0  0
   47.9900   33.9260   39.9670 C   0  0  0  0  0  0  0  0  0  0  0  0
   46.5860   33.4330   41.0200 S   0  0  0  0  0  0  0  0  0  0  0  0
   48.4400   33.3780   38.7700 N   0  0  0  0  0  0  0  0  0  0  0  0
   48.0300   34.0370   37.6690 C   0  0  0  0  0  0  0  0  0  0  0  0
   48.4120   33.5910   36.3990 C   0  0  0  0  0  0  0  0  0  0  0  0
   49.2150   32.4570   36.3960 C   0  0  0  0  0  0  0  0  0  0  0  0
   49.5900   32.0230   35.0780 N   0  0  0  0  0  0  0  0  0  0  0  0
   49.5860   31.8490   37.5380 N   0  0  0  0  0  0  0  0  0  0  0  0
   49.2100   32.2930   38.7380 C   0  0  0  0  0  0  0  0  0  0  0  0
   49.5670   31.7140   39.7770 O   0  0  0  0  0  0  0  0  0  0  0  0
   44.4450   35.9690   44.8590 C   0  0  0  0  0  0  0  0  0  0  0  0
   45.1350   35.9000   43.6380 C   0  0  0  0  0  0  0  0  0  0  0  0
   46.0210   34.8570   43.4290 C   0  0  0  0  0  0  0  0  0  0  0  0
   46.1750   33.9570   44.4120 N   0  0  0  0  0  0  0  0  0  0  0  0
   45.5140   34.0280   45.5750 C   0  0  0  0  0  0  0  0  0  0  0  0
   44.6480   35.0360   45.7980 N   0  0  0  0  0  0  0  0  0  0  0  0
   48.2438   36.2135   42.4642 H   0  0  0  0  0  0  0  0  0  0  0  0
   49.4323   35.6209   40.3462 H   0  0  0  0  0  0  0  0  0  0  0  0
   47.3931   34.9283   37.7686 H   0  0  0  0  0  0  0  0  0  0  0  0
   48.1007   34.0989   35.4743 H   0  0  0  0  0  0  0  0  0  0  0  0
   50.1853   31.1908   34.9597 H   0  0  0  0  0  0  0  0  0  0  0  0
   49.2635   32.5442   34.2518 H   0  0  0  0  0  0  0  0  0  0  0  0
   43.7370   36.7902   45.0444 H   0  0  0  0  0  0  0  0  0  0  0  0
   44.9743   36.6617   42.8608 H   0  0  0  0  0  0  0  0  0  0  0  0
   45.6782   33.2631   46.3483 H   0  0  0  0  0  0  0  0  0  0  0  0
  1 16  1  0
  2  1  2  0
  3  2  1  0
  4  3  2  0
  4  5  1  0
  5  1  1  0
  6  4  1  0
  7  6  1  0
  8  7  2  0
  9  8  1  0
  9 11  2  0
 10  9  1  0
 11 12  1  0
 12  6  1  0
 12 13  2  0
 14 19  2  0
 15 14  1  0
 16 15  2  0
 16 17  1  0
 17 18  2  0
 18 19  1  0
  2 20  1  0
  3 21  1  0
  7 22  1  0
  8 23  1  0
 10 24  1  0
 10 25  1  0
 14 26  1  0
 15 27  1  0
 18 28  1  0
M  ISO  7  20  14  21  14  22  14  23  14  26  14  27  14  28  14
M  END
>  <minimizedAffinity>  (1) 
-5.71022367

>  <minimizedRMSD>  (1) 
0.85605216

$$$$
