
     RDKit          3D

 24 25  0  0  0  0  0  0  0  0999 V2000
   46.6130   34.5970   42.1980 C   0  0  0  0  0  0  0  0  0  0  0  0
   47.8190   35.1350   41.8360 C   0  0  0  0  0  0  0  0  0  0  0  0
   48.4170   34.8090   40.6660 C   0  0  0  0  0  0  0  0  0  0  0  0
   47.6580   33.8570   39.8650 C   0  0  0  0  0  0  0  0  0  0  0  0
   46.1890   33.5540   40.8960 S   0  0  0  0  0  0  0  0  0  0  0  0
   44.4350   36.0710   44.8750 C   0  0  0  0  0  0  0  0  0  0  0  0
   45.0710   35.9590   43.6200 C   0  0  0  0  0  0  0  0  0  0  0  0
   45.8920   34.8650   43.4030 C   0  0  0  0  0  0  0  0  0  0  0  0
   46.0340   33.9750   44.4000 N   0  0  0  0  0  0  0  0  0  0  0  0
   45.4320   34.0800   45.5890 C   0  0  0  0  0  0  0  0  0  0  0  0
   44.6270   35.1350   45.8290 N   0  0  0  0  0  0  0  0  0  0  0  0
   47.9820   33.3020   38.6200 N   0  0  0  0  0  0  0  0  0  0  0  0
   48.3510   34.1460   37.5420 C   0  0  0  0  0  0  0  0  0  0  0  0
   49.1070   35.1600   37.7400 N   0  0  0  0  0  0  0  0  0  0  0  0
   47.8640   33.8250   36.2360 N   0  0  0  0  0  0  0  0  0  0  0  0
   49.4510   35.3680   38.6920 H   0  0  0  0  0  0  0  0  0  0  0  0
   48.3134   35.8486   42.5115 H   0  0  0  0  0  0  0  0  0  0  0  0
   49.3853   35.2239   40.3495 H   0  0  0  0  0  0  0  0  0  0  0  0
   43.7768   36.9287   45.0778 H   0  0  0  0  0  0  0  0  0  0  0  0
   44.9192   36.7176   42.8380 H   0  0  0  0  0  0  0  0  0  0  0  0
   45.5915   33.3146   46.3628 H   0  0  0  0  0  0  0  0  0  0  0  0
   47.9521   32.2810   38.4878 H   0  0  0  0  0  0  0  0  0  0  0  0
   47.2569   33.0041   36.1001 H   0  0  0  0  0  0  0  0  0  0  0  0
   48.1204   34.4147   35.4314 H   0  0  0  0  0  0  0  0  0  0  0  0
  1  8  1  0
  2  1  2  0
  3  2  1  0
  4  3  2  0
  4  5  1  0
  5  1  1  0
  6 11  2  0
  7  6  1  0
  8  7  2  0
  8  9  1  0
  9 10  2  0
 10 11  1  0
 12  4  1  0
 13 14  2  0
 13 12  1  0
 14 16  1  0
 15 13  1  0
  2 17  1  0
  3 18  1  0
  6 19  1  0
  7 20  1  0
 10 21  1  0
 12 22  1  0
 15 23  1  0
 15 24  1  0
M  ISO  5  17  14  18  14  19  14  20  14  21  14
M  END
>  <minimizedAffinity>  (1) 
-5.5165782

>  <minimizedRMSD>  (1) 
0.523778617

$$$$
