
     RDKit          3D

 22 23  0  0  0  0  0  0  0  0999 V2000
   46.6510   34.7420   42.0160 C   0  0  0  0  0  0  0  0  0  0  0  0
   47.9070   35.3000   41.9060 C   0  0  0  0  0  0  0  0  0  0  0  0
   48.6670   35.1800   40.7390 C   0  0  0  0  0  0  0  0  0  0  0  0
   48.1450   34.4720   39.6450 C   0  0  0  0  0  0  0  0  0  0  0  0
   46.8910   33.9210   39.7680 C   0  0  0  0  0  0  0  0  0  0  0  0
   46.1730   34.0590   40.9300 C   0  0  0  0  0  0  0  0  0  0  0  0
   44.4640   36.0590   44.7780 C   0  0  0  0  0  0  0  0  0  0  0  0
   45.0920   36.0000   43.5270 C   0  0  0  0  0  0  0  0  0  0  0  0
   45.9400   34.9210   43.2670 C   0  0  0  0  0  0  0  0  0  0  0  0
   46.1300   33.9660   44.2230 N   0  0  0  0  0  0  0  0  0  0  0  0
   45.4890   34.0780   45.4240 C   0  0  0  0  0  0  0  0  0  0  0  0
   44.6660   35.1110   45.6980 N   0  0  0  0  0  0  0  0  0  0  0  0
   44.8530   33.4600   41.0180 C   0  0  0  0  0  0  0  0  0  0  0  0
   43.8770   34.0980   40.5330 O   0  0  0  0  0  0  0  0  0  0  0  0
   48.3224   35.8549   42.7601 H   0  0  0  0  0  0  0  0  0  0  0  0
   49.6659   35.6366   40.6784 H   0  0  0  0  0  0  0  0  0  0  0  0
   48.7227   34.3611   38.7155 H   0  0  0  0  0  0  0  0  0  0  0  0
   46.4579   33.3628   38.9249 H   0  0  0  0  0  0  0  0  0  0  0  0
   43.7931   36.9001   45.0069 H   0  0  0  0  0  0  0  0  0  0  0  0
   44.9221   36.7810   42.7712 H   0  0  0  0  0  0  0  0  0  0  0  0
   45.6484   33.3040   46.1892 H   0  0  0  0  0  0  0  0  0  0  0  0
   44.7075   32.4788   41.4934 H   0  0  0  0  0  0  0  0  0  0  0  0
  1  9  1  0
  2  1  2  0
  3  2  1  0
  4  5  1  0
  4  3  2  0
  5  6  2  0
  6 13  1  0
  6  1  1  0
  7 12  2  0
  8  7  1  0
  9  8  2  0
  9 10  1  0
 10 11  2  0
 11 12  1  0
 14 13  2  0
  2 15  1  0
  3 16  1  0
  4 17  1  0
  5 18  1  0
  7 19  1  0
  8 20  1  0
 11 21  1  0
 13 22  1  0
M  ISO  8  15  14  16  14  17  14  18  14  19  14  20  14  21  14  22   6
M  END
>  <minimizedAffinity>  (1) 
-5.03182936

>  <minimizedRMSD>  (1) 
0.105568901

$$$$
