
     RDKit          3D

 29 30  0  0  0  0  0  0  0  0999 V2000
   46.6600   34.7080   42.0690 C   0  0  0  0  0  0  0  0  0  0  0  0
   47.8920   35.2200   41.7480 C   0  0  0  0  0  0  0  0  0  0  0  0
   48.4680   34.9380   40.5530 C   0  0  0  0  0  0  0  0  0  0  0  0
   47.6620   34.0730   39.7020 C   0  0  0  0  0  0  0  0  0  0  0  0
   46.1700   33.7560   40.6930 S   0  0  0  0  0  0  0  0  0  0  0  0
   44.4580   36.0670   44.8060 C   0  0  0  0  0  0  0  0  0  0  0  0
   45.0970   35.9880   43.5620 C   0  0  0  0  0  0  0  0  0  0  0  0
   45.9370   34.9220   43.2900 C   0  0  0  0  0  0  0  0  0  0  0  0
   46.1040   33.9840   44.2650 N   0  0  0  0  0  0  0  0  0  0  0  0
   45.4820   34.0840   45.4450 C   0  0  0  0  0  0  0  0  0  0  0  0
   44.6680   35.1020   45.7300 N   0  0  0  0  0  0  0  0  0  0  0  0
   48.0100   33.5920   38.3540 C   0  0  0  0  0  0  0  0  0  0  0  0
   48.5060   34.6500   37.4190 C   0  0  0  0  0  0  0  0  0  0  0  0
   46.7330   33.0000   37.8000 C   0  0  0  0  0  0  0  0  0  0  0  0
   48.9780   32.4520   38.5090 C   0  0  0  0  0  0  0  0  0  0  0  0
   48.4176   35.8655   42.4670 H   0  0  0  0  0  0  0  0  0  0  0  0
   49.4527   35.3265   40.2540 H   0  0  0  0  0  0  0  0  0  0  0  0
   43.7883   36.9103   45.0304 H   0  0  0  0  0  0  0  0  0  0  0  0
   44.9321   36.7691   42.8052 H   0  0  0  0  0  0  0  0  0  0  0  0
   45.6465   33.3038   46.2028 H   0  0  0  0  0  0  0  0  0  0  0  0
   48.9026   35.4959   37.9997 H   0  0  0  0  0  0  0  0  0  0  0  0
   49.3032   34.2346   36.7850 H   0  0  0  0  0  0  0  0  0  0  0  0
   47.6768   34.9971   36.7850 H   0  0  0  0  0  0  0  0  0  0  0  0
   46.0789   32.6967   38.6307 H   0  0  0  0  0  0  0  0  0  0  0  0
   46.2180   33.7512   37.1832 H   0  0  0  0  0  0  0  0  0  0  0  0
   46.9735   32.1215   37.1832 H   0  0  0  0  0  0  0  0  0  0  0  0
   49.1449   32.2555   39.5784 H   0  0  0  0  0  0  0  0  0  0  0  0
   48.5640   31.5519   38.0310 H   0  0  0  0  0  0  0  0  0  0  0  0
   49.9333   32.7146   38.0310 H   0  0  0  0  0  0  0  0  0  0  0  0
  1  8  1  0
  2  1  2  0
  3  2  1  0
  4  3  2  0
  4  5  1  0
  5  1  1  0
  6 11  2  0
  7  6  1  0
  8  7  2  0
  8  9  1  0
  9 10  2  0
 10 11  1  0
 12 15  1  0
 12  4  1  0
 13 12  1  0
 14 12  1  0
  2 16  1  0
  3 17  1  0
  6 18  1  0
  7 19  1  0
 10 20  1  0
 13 21  1  0
 13 22  1  0
 13 23  1  0
 14 24  1  0
 14 25  1  0
 14 26  1  0
 15 27  1  0
 15 28  1  0
 15 29  1  0
M  ISO  8  16  14  17  14  18  14  19  14  20  14  21   8  22   8  23   8
M  ISO  6  24   8  25   8  26   8  27   8  28   8  29   8
M  END
>  <minimizedAffinity>  (1) 
-5.14468193

>  <minimizedRMSD>  (1) 
0.385838896

$$$$
