
     RDKit          3D

 24 26  0  0  0  0  0  0  0  0999 V2000
   46.8010   34.7360   42.1390 C   0  0  0  0  0  0  0  0  0  0  0  0
   47.9760   35.3760   41.8290 C   0  0  0  0  0  0  0  0  0  0  0  0
   48.6200   35.1300   40.6600 C   0  0  0  0  0  0  0  0  0  0  0  0
   47.9500   34.1530   39.8090 C   0  0  0  0  0  0  0  0  0  0  0  0
   46.4590   33.6940   40.7930 S   0  0  0  0  0  0  0  0  0  0  0  0
   44.4580   36.0060   44.7900 C   0  0  0  0  0  0  0  0  0  0  0  0
   45.1370   35.9670   43.5650 C   0  0  0  0  0  0  0  0  0  0  0  0
   46.0300   34.9120   43.3390 C   0  0  0  0  0  0  0  0  0  0  0  0
   46.1930   33.9930   44.3010 N   0  0  0  0  0  0  0  0  0  0  0  0
   45.5350   34.0410   45.4690 C   0  0  0  0  0  0  0  0  0  0  0  0
   44.6680   35.0520   45.7110 N   0  0  0  0  0  0  0  0  0  0  0  0
   48.3420   33.6750   38.5470 N   0  0  0  0  0  0  0  0  0  0  0  0
   48.9160   32.5100   38.3080 C   0  0  0  0  0  0  0  0  0  0  0  0
   49.1200   32.4750   36.9280 C   0  0  0  0  0  0  0  0  0  0  0  0
   48.6570   33.6340   36.3800 N   0  0  0  0  0  0  0  0  0  0  0  0
   48.1700   34.3850   37.4030 C   0  0  0  0  0  0  0  0  0  0  0  0
   48.4019   36.0996   42.5396 H   0  0  0  0  0  0  0  0  0  0  0  0
   49.5625   35.6230   40.3795 H   0  0  0  0  0  0  0  0  0  0  0  0
   43.7499   36.8217   44.9980 H   0  0  0  0  0  0  0  0  0  0  0  0
   44.9734   36.7428   42.8026 H   0  0  0  0  0  0  0  0  0  0  0  0
   45.6994   33.2615   46.2275 H   0  0  0  0  0  0  0  0  0  0  0  0
   49.1777   31.7325   39.0409 H   0  0  0  0  0  0  0  0  0  0  0  0
   49.5805   31.6453   36.3717 H   0  0  0  0  0  0  0  0  0  0  0  0
   47.7192   35.3849   37.3191 H   0  0  0  0  0  0  0  0  0  0  0  0
  1  8  1  0
  2  1  2  0
  3  2  1  0
  4  3  2  0
  4  5  1  0
  5  1  1  0
  6 11  2  0
  7  6  1  0
  8  7  2  0
  8  9  1  0
  9 10  2  0
 10 11  1  0
 12  4  1  0
 13 12  1  0
 14 13  2  0
 15 14  1  0
 15 16  2  0
 16 12  1  0
  2 17  1  0
  3 18  1  0
  6 19  1  0
  7 20  1  0
 10 21  1  0
 13 22  1  0
 14 23  1  0
 16 24  1  0
M  ISO  8  17  14  18  14  19  14  20  14  21  14  22  14  23  14  24  14
M  END
>  <minimizedAffinity>  (1) 
-5.30526352

>  <minimizedRMSD>  (1) 
0.396286577

$$$$
