
     RDKit          3D

 20 21  0  0  0  0  0  0  0  0999 V2000
   46.8270   34.8140   42.0730 C   0  0  0  0  0  0  0  0  0  0  0  0
   48.0560   35.3710   41.8170 C   0  0  0  0  0  0  0  0  0  0  0  0
   48.6580   35.1900   40.6150 C   0  0  0  0  0  0  0  0  0  0  0  0
   47.8960   34.3770   39.6670 C   0  0  0  0  0  0  0  0  0  0  0  0
   46.3970   33.9700   40.6300 S   0  0  0  0  0  0  0  0  0  0  0  0
   44.4970   35.8650   44.8300 C   0  0  0  0  0  0  0  0  0  0  0  0
   45.1520   35.9100   43.5810 C   0  0  0  0  0  0  0  0  0  0  0  0
   46.0720   34.9190   43.2910 C   0  0  0  0  0  0  0  0  0  0  0  0
   46.2880   33.9720   44.2130 N   0  0  0  0  0  0  0  0  0  0  0  0
   45.6720   33.9220   45.3960 C   0  0  0  0  0  0  0  0  0  0  0  0
   44.7660   34.8800   45.7090 N   0  0  0  0  0  0  0  0  0  0  0  0
   48.2600   34.0010   38.3080 C   0  0  0  0  0  0  0  0  0  0  0  0
   48.8200   35.1320   37.7130 F   0  0  0  0  0  0  0  0  0  0  0  0
   49.1100   32.9320   38.2850 F   0  0  0  0  0  0  0  0  0  0  0  0
   47.0810   33.7720   37.5830 F   0  0  0  0  0  0  0  0  0  0  0  0
   48.5563   35.9688   42.5931 H   0  0  0  0  0  0  0  0  0  0  0  0
   49.6409   35.6202   40.3724 H   0  0  0  0  0  0  0  0  0  0  0  0
   43.7608   36.6404   45.0881 H   0  0  0  0  0  0  0  0  0  0  0  0
   44.9369   36.7109   42.8583 H   0  0  0  0  0  0  0  0  0  0  0  0
   45.8968   33.1138   46.1076 H   0  0  0  0  0  0  0  0  0  0  0  0
  1  8  1  0
  2  1  2  0
  3  2  1  0
  4  3  2  0
  4  5  1  0
  5  1  1  0
  6 11  2  0
  7  6  1  0
  8  7  2  0
  8  9  1  0
  9 10  2  0
 10 11  1  0
 12  4  1  0
 13 12  1  0
 14 12  1  0
 15 12  1  0
  2 16  1  0
  3 17  1  0
  6 18  1  0
  7 19  1  0
 10 20  1  0
M  ISO  5  16  14  17  14  18  14  19  14  20  14
M  END
>  <minimizedAffinity>  (1) 
-5.29482794

>  <minimizedRMSD>  (1) 
0.320586741

$$$$
