
     RDKit          3D

 18 19  0  0  0  0  0  0  0  0999 V2000
   44.4910   35.8940   44.7420 C   0  0  0  0  0  0  0  0  0  0  0  0
   45.1900   35.9450   43.5310 C   0  0  0  0  0  0  0  0  0  0  0  0
   46.1410   34.9550   43.2670 C   0  0  0  0  0  0  0  0  0  0  0  0
   46.3280   34.0080   44.1950 N   0  0  0  0  0  0  0  0  0  0  0  0
   45.6470   33.9760   45.3510 C   0  0  0  0  0  0  0  0  0  0  0  0
   44.7330   34.9070   45.6330 N   0  0  0  0  0  0  0  0  0  0  0  0
   46.9410   34.8700   42.0780 C   0  0  0  0  0  0  0  0  0  0  0  0
   48.1480   35.4930   41.8760 C   0  0  0  0  0  0  0  0  0  0  0  0
   48.8190   35.3420   40.7050 C   0  0  0  0  0  0  0  0  0  0  0  0
   48.1310   34.4780   39.7380 C   0  0  0  0  0  0  0  0  0  0  0  0
   46.6130   33.9930   40.6250 S   0  0  0  0  0  0  0  0  0  0  0  0
   48.5660   34.1460   38.4830 O   0  0  0  0  0  0  0  0  0  0  0  0
   43.7386   36.6632   44.9707 H   0  0  0  0  0  0  0  0  0  0  0  0
   44.9955   36.7463   42.8029 H   0  0  0  0  0  0  0  0  0  0  0  0
   45.8446   33.1722   46.0754 H   0  0  0  0  0  0  0  0  0  0  0  0
   48.5759   36.1211   42.6712 H   0  0  0  0  0  0  0  0  0  0  0  0
   49.7873   35.8221   40.5003 H   0  0  0  0  0  0  0  0  0  0  0  0
   49.4275   34.5004   38.1478 H   0  0  0  0  0  0  0  0  0  0  0  0
  1  6  2  0
  2  1  1  0
  3  2  2  0
  3  4  1  0
  4  5  2  0
  5  6  1  0
  7  3  1  0
  8  7  2  0
  9  8  1  0
 10 11  1  0
 10  9  2  0
 11  7  1  0
 12 10  1  0
  1 13  1  0
  2 14  1  0
  5 15  1  0
  8 16  1  0
  9 17  1  0
 12 18  1  0
M  ISO  6  13  14  14  14  15  14  16  14  17  14  18   3
M  END
>  <minimizedAffinity>  (1) 
-4.76004028

>  <minimizedRMSD>  (1) 
0.147969157

$$$$
