
     RDKit          3D

 24 26  0  0  0  0  0  0  0  0999 V2000
   46.8090   34.7310   42.1380 C   0  0  0  0  0  0  0  0  0  0  0  0
   47.9570   35.4020   41.8070 C   0  0  0  0  0  0  0  0  0  0  0  0
   48.6040   35.1660   40.6430 C   0  0  0  0  0  0  0  0  0  0  0  0
   47.9610   34.1530   39.8150 C   0  0  0  0  0  0  0  0  0  0  0  0
   46.5220   33.6740   40.8080 S   0  0  0  0  0  0  0  0  0  0  0  0
   44.4650   35.9420   44.8220 C   0  0  0  0  0  0  0  0  0  0  0  0
   45.1450   35.9180   43.5850 C   0  0  0  0  0  0  0  0  0  0  0  0
   46.0430   34.8970   43.3390 C   0  0  0  0  0  0  0  0  0  0  0  0
   46.2310   33.9620   44.3000 N   0  0  0  0  0  0  0  0  0  0  0  0
   45.5720   34.0070   45.4690 C   0  0  0  0  0  0  0  0  0  0  0  0
   44.6960   34.9840   45.7340 N   0  0  0  0  0  0  0  0  0  0  0  0
   48.2900   33.5700   38.4860 C   0  0  0  0  0  0  0  0  0  0  0  0
   48.5010   34.5570   37.4280 C   0  0  0  0  0  0  0  0  0  0  0  0
   47.2150   33.7920   37.3960 C   0  0  0  0  0  0  0  0  0  0  0  0
   48.3618   36.1502   42.5044 H   0  0  0  0  0  0  0  0  0  0  0  0
   49.5266   35.6881   40.3493 H   0  0  0  0  0  0  0  0  0  0  0  0
   43.7458   36.7456   45.0387 H   0  0  0  0  0  0  0  0  0  0  0  0
   44.9633   36.6978   42.8308 H   0  0  0  0  0  0  0  0  0  0  0  0
   45.7552   33.2269   46.2226 H   0  0  0  0  0  0  0  0  0  0  0  0
   48.8441   32.7009   38.8702 H   0  0  0  0  0  0  0  0  0  0  0  0
   48.4876   35.6285   37.6766 H   0  0  0  0  0  0  0  0  0  0  0  0
   49.3036   34.7246   36.6946 H   0  0  0  0  0  0  0  0  0  0  0  0
   46.2651   34.2886   37.6433 H   0  0  0  0  0  0  0  0  0  0  0  0
   46.6846   33.1630   36.6658 H   0  0  0  0  0  0  0  0  0  0  0  0
  1  8  1  0
  2  1  2  0
  3  2  1  0
  4  3  2  0
  4  5  1  0
  5  1  1  0
  6 11  2  0
  7  6  1  0
  8  7  2  0
  8  9  1  0
  9 10  2  0
 10 11  1  0
 12  4  1  0
 13 12  1  0
 14 13  1  0
 14 12  1  0
  2 15  1  0
  3 16  1  0
  6 17  1  0
  7 18  1  0
 10 19  1  0
 12 20  1  0
 13 21  1  0
 13 22  1  0
 14 23  1  0
 14 24  1  0
M  ISO  8  15  14  16  14  17  14  18  14  19  14  20  13  21  13  22  13
M  ISO  2  23  13  24  13
M  END
>  <minimizedAffinity>  (1) 
-5.08731031

>  <minimizedRMSD>  (1) 
0.524478853

$$$$
