
     RDKit          3D

 19 20  0  0  0  0  0  0  0  0999 V2000
   46.9480   34.8590   42.0630 C   0  0  0  0  0  0  0  0  0  0  0  0
   48.1500   35.4780   41.8480 C   0  0  0  0  0  0  0  0  0  0  0  0
   48.8040   35.3390   40.6780 C   0  0  0  0  0  0  0  0  0  0  0  0
   48.1110   34.4820   39.7020 C   0  0  0  0  0  0  0  0  0  0  0  0
   46.5820   33.9840   40.6120 S   0  0  0  0  0  0  0  0  0  0  0  0
   44.4990   35.8800   44.7320 C   0  0  0  0  0  0  0  0  0  0  0  0
   45.2010   35.9340   43.5100 C   0  0  0  0  0  0  0  0  0  0  0  0
   46.1590   34.9360   43.2610 C   0  0  0  0  0  0  0  0  0  0  0  0
   46.3600   33.9870   44.1870 N   0  0  0  0  0  0  0  0  0  0  0  0
   45.6780   33.9600   45.3410 C   0  0  0  0  0  0  0  0  0  0  0  0
   44.7580   34.8850   45.6220 N   0  0  0  0  0  0  0  0  0  0  0  0
   48.5240   34.1300   38.3850 N   0  0  0  0  0  0  0  0  0  0  0  0
   48.5890   36.0987   42.6430 H   0  0  0  0  0  0  0  0  0  0  0  0
   49.7698   35.8229   40.4706 H   0  0  0  0  0  0  0  0  0  0  0  0
   43.7417   36.6430   44.9653 H   0  0  0  0  0  0  0  0  0  0  0  0
   45.0055   36.7302   42.7766 H   0  0  0  0  0  0  0  0  0  0  0  0
   45.8804   33.1609   46.0694 H   0  0  0  0  0  0  0  0  0  0  0  0
   49.4134   34.4901   38.0107 H   0  0  0  0  0  0  0  0  0  0  0  0
   47.9332   33.5154   37.8070 H   0  0  0  0  0  0  0  0  0  0  0  0
  1  8  1  0
  2  1  2  0
  3  2  1  0
  4  5  1  0
  4  3  2  0
  5  1  1  0
  6 11  2  0
  7  6  1  0
  8  7  2  0
  8  9  1  0
  9 10  2  0
 10 11  1  0
 12  4  1  0
  2 13  1  0
  3 14  1  0
  6 15  1  0
  7 16  1  0
 10 17  1  0
 12 18  1  0
 12 19  1  0
M  ISO  5  13  14  14  14  15  14  16  14  17  14
M  END
>  <minimizedAffinity>  (1) 
-4.80294561

>  <minimizedRMSD>  (1) 
0.137213275

$$$$
