
     RDKit          3D

 26 27  0  0  0  0  0  0  0  0999 V2000
   46.5440   34.6210   42.0090 C   0  0  0  0  0  0  0  0  0  0  0  0
   47.7940   35.0670   41.6660 C   0  0  0  0  0  0  0  0  0  0  0  0
   48.3310   34.8040   40.4470 C   0  0  0  0  0  0  0  0  0  0  0  0
   47.4460   34.0210   39.5850 C   0  0  0  0  0  0  0  0  0  0  0  0
   45.9740   33.7680   40.6250 S   0  0  0  0  0  0  0  0  0  0  0  0
   44.4780   36.0010   44.8370 C   0  0  0  0  0  0  0  0  0  0  0  0
   45.0540   35.9250   43.5560 C   0  0  0  0  0  0  0  0  0  0  0  0
   45.8790   34.8390   43.2630 C   0  0  0  0  0  0  0  0  0  0  0  0
   46.0830   33.9210   44.2180 N   0  0  0  0  0  0  0  0  0  0  0  0
   45.5230   34.0120   45.4380 C   0  0  0  0  0  0  0  0  0  0  0  0
   44.7250   35.0470   45.7450 N   0  0  0  0  0  0  0  0  0  0  0  0
   47.7220   33.5720   38.2130 C   0  0  0  0  0  0  0  0  0  0  0  0
   46.5020   33.1680   37.4340 C   0  0  0  0  0  0  0  0  0  0  0  0
   48.5200   34.6120   37.4350 C   0  0  0  0  0  0  0  0  0  0  0  0
   48.3751   35.6511   42.3948 H   0  0  0  0  0  0  0  0  0  0  0  0
   49.3303   35.1452   40.1389 H   0  0  0  0  0  0  0  0  0  0  0  0
   43.8227   36.8462   45.0942 H   0  0  0  0  0  0  0  0  0  0  0  0
   44.8586   36.7031   42.8035 H   0  0  0  0  0  0  0  0  0  0  0  0
   45.7204   33.2330   46.1891 H   0  0  0  0  0  0  0  0  0  0  0  0
   48.3257   32.6604   38.3338 H   0  0  0  0  0  0  0  0  0  0  0  0
   45.6940   32.9004   38.1308 H   0  0  0  0  0  0  0  0  0  0  0  0
   46.1772   34.0065   36.8005 H   0  0  0  0  0  0  0  0  0  0  0  0
   46.7418   32.3013   36.8005 H   0  0  0  0  0  0  0  0  0  0  0  0
   49.0342   35.2821   38.1397 H   0  0  0  0  0  0  0  0  0  0  0  0
   49.2634   34.1054   36.8019 H   0  0  0  0  0  0  0  0  0  0  0  0
   47.8383   35.1989   36.8019 H   0  0  0  0  0  0  0  0  0  0  0  0
  1  8  1  0
  2  1  2  0
  3  2  1  0
  4  3  2  0
  4  5  1  0
  5  1  1  0
  6 11  2  0
  7  6  1  0
  8  7  2  0
  8  9  1  0
  9 10  2  0
 10 11  1  0
 12  4  1  0
 13 12  1  0
 14 12  1  0
  2 15  1  0
  3 16  1  0
  6 17  1  0
  7 18  1  0
 10 19  1  0
 12 20  1  0
 13 21  1  0
 13 22  1  0
 13 23  1  0
 14 24  1  0
 14 25  1  0
 14 26  1  0
M  ISO  8  15  14  16  14  17  14  18  14  19  14  20   8  21   8  22   8
M  ISO  4  23   8  24   8  25   8  26   8
M  END
>  <minimizedAffinity>  (1) 
-4.96986675

>  <minimizedRMSD>  (1) 
0.755348802

$$$$
