
     RDKit          3D

 29 32  0  0  0  0  0  0  0  0999 V2000
   46.7830   34.7650   42.1420 C   0  0  0  0  0  0  0  0  0  0  0  0
   47.9880   35.3420   41.8730 C   0  0  0  0  0  0  0  0  0  0  0  0
   48.5900   35.1150   40.6800 C   0  0  0  0  0  0  0  0  0  0  0  0
   47.8560   34.2510   39.7930 C   0  0  0  0  0  0  0  0  0  0  0  0
   46.3570   33.8330   40.7450 S   0  0  0  0  0  0  0  0  0  0  0  0
   48.2750   33.8350   38.4380 C   0  0  0  0  0  0  0  0  0  0  0  0
   48.0210   34.4300   37.2910 N   0  0  0  0  0  0  0  0  0  0  0  0
   48.5970   33.6980   36.3720 O   0  0  0  0  0  0  0  0  0  0  0  0
   49.2030   32.6600   36.9340 C   0  0  0  0  0  0  0  0  0  0  0  0
   48.9990   32.7420   38.2690 N   0  0  0  0  0  0  0  0  0  0  0  0
   49.9500   31.6100   36.3210 N   0  0  0  0  0  0  0  0  0  0  0  0
   51.1100   31.1900   36.8300 N   0  0  0  0  0  0  0  0  0  0  0  0
   51.6110   30.1960   36.0690 C   0  0  0  0  0  0  0  0  0  0  0  0
   50.7390   29.9680   35.0300 C   0  0  0  0  0  0  0  0  0  0  0  0
   49.6960   30.8680   35.2030 C   0  0  0  0  0  0  0  0  0  0  0  0
   44.4500   35.9550   44.8550 C   0  0  0  0  0  0  0  0  0  0  0  0
   45.1130   35.9530   43.6120 C   0  0  0  0  0  0  0  0  0  0  0  0
   46.0190   34.9110   43.3620 C   0  0  0  0  0  0  0  0  0  0  0  0
   46.2000   33.9820   44.3160 N   0  0  0  0  0  0  0  0  0  0  0  0
   45.5530   34.0120   45.4900 C   0  0  0  0  0  0  0  0  0  0  0  0
   44.6770   35.0030   45.7560 N   0  0  0  0  0  0  0  0  0  0  0  0
   48.4699   35.9891   42.6207 H   0  0  0  0  0  0  0  0  0  0  0  0
   49.5614   35.5556   40.4112 H   0  0  0  0  0  0  0  0  0  0  0  0
   52.5546   29.6598   36.2482 H   0  0  0  0  0  0  0  0  0  0  0  0
   50.8461   29.2246   34.2263 H   0  0  0  0  0  0  0  0  0  0  0  0
   48.8156   30.9665   34.5510 H   0  0  0  0  0  0  0  0  0  0  0  0
   43.7328   36.7569   45.0843 H   0  0  0  0  0  0  0  0  0  0  0  0
   44.9274   36.7390   42.8652 H   0  0  0  0  0  0  0  0  0  0  0  0
   45.7369   33.2268   46.2381 H   0  0  0  0  0  0  0  0  0  0  0  0
  1 18  1  0
  2  1  2  0
  3  2  1  0
  4  3  2  0
  4  5  1  0
  5  1  1  0
  6  4  1  0
  7  6  2  0
  8  9  1  0
  8  7  1  0
  9 10  2  0
 10  6  1  0
 11 12  1  0
 11  9  1  0
 13 12  2  0
 14 15  2  0
 14 13  1  0
 15 11  1  0
 16 21  2  0
 17 16  1  0
 18 17  2  0
 18 19  1  0
 19 20  2  0
 20 21  1  0
  2 22  1  0
  3 23  1  0
 13 24  1  0
 14 25  1  0
 15 26  1  0
 16 27  1  0
 17 28  1  0
 20 29  1  0
M  ISO  8  22  14  23  14  24  14  25  14  26  14  27  14  28  14  29  14
M  END
>  <minimizedAffinity>  (1) 
-6.05916786

>  <minimizedRMSD>  (1) 
0.221496165

$$$$
