
     RDKit          3D

 29 32  0  0  0  0  0  0  0  0999 V2000
   46.7870   34.7780   42.1330 C   0  0  0  0  0  0  0  0  0  0  0  0
   47.9940   35.3560   41.8700 C   0  0  0  0  0  0  0  0  0  0  0  0
   48.6080   35.1290   40.6810 C   0  0  0  0  0  0  0  0  0  0  0  0
   47.8790   34.2620   39.7910 C   0  0  0  0  0  0  0  0  0  0  0  0
   46.3700   33.8440   40.7370 S   0  0  0  0  0  0  0  0  0  0  0  0
   48.3020   33.8490   38.4410 C   0  0  0  0  0  0  0  0  0  0  0  0
   48.1340   34.5240   37.3060 N   0  0  0  0  0  0  0  0  0  0  0  0
   48.6710   33.7510   36.3790 O   0  0  0  0  0  0  0  0  0  0  0  0
   49.1520   32.6410   36.9240 C   0  0  0  0  0  0  0  0  0  0  0  0
   48.9180   32.6950   38.2610 N   0  0  0  0  0  0  0  0  0  0  0  0
   49.8020   31.5730   36.2440 N   0  0  0  0  0  0  0  0  0  0  0  0
   51.0110   31.1160   36.6850 C   0  0  0  0  0  0  0  0  0  0  0  0
   51.3330   30.0910   35.7960 C   0  0  0  0  0  0  0  0  0  0  0  0
   50.3600   29.9330   34.8540 N   0  0  0  0  0  0  0  0  0  0  0  0
   49.4330   30.8630   35.1620 C   0  0  0  0  0  0  0  0  0  0  0  0
   44.4530   35.9460   44.8490 C   0  0  0  0  0  0  0  0  0  0  0  0
   45.1150   35.9530   43.6070 C   0  0  0  0  0  0  0  0  0  0  0  0
   46.0180   34.9270   43.3480 C   0  0  0  0  0  0  0  0  0  0  0  0
   46.1960   34.0020   44.2980 N   0  0  0  0  0  0  0  0  0  0  0  0
   45.5590   34.0050   45.4790 C   0  0  0  0  0  0  0  0  0  0  0  0
   44.6790   34.9920   45.7500 N   0  0  0  0  0  0  0  0  0  0  0  0
   48.4691   36.0051   42.6203 H   0  0  0  0  0  0  0  0  0  0  0  0
   49.5810   35.5702   40.4189 H   0  0  0  0  0  0  0  0  0  0  0  0
   51.5966   31.4743   37.5445 H   0  0  0  0  0  0  0  0  0  0  0  0
   52.2519   29.4886   35.8479 H   0  0  0  0  0  0  0  0  0  0  0  0
   48.4989   31.0203   34.6028 H   0  0  0  0  0  0  0  0  0  0  0  0
   43.7337   36.7455   45.0803 H   0  0  0  0  0  0  0  0  0  0  0  0
   44.9247   36.7433   42.8659 H   0  0  0  0  0  0  0  0  0  0  0  0
   45.7516   33.2127   46.2174 H   0  0  0  0  0  0  0  0  0  0  0  0
  1 18  1  0
  2  1  2  0
  3  2  1  0
  4  3  2  0
  4  5  1  0
  5  1  1  0
  6  4  1  0
  7  6  2  0
  8  9  1  0
  8  7  1  0
  9 10  2  0
 10  6  1  0
 11 12  1  0
 11  9  1  0
 13 12  2  0
 14 15  2  0
 14 13  1  0
 15 11  1  0
 16 21  2  0
 17 16  1  0
 18 17  2  0
 18 19  1  0
 19 20  2  0
 20 21  1  0
  2 22  1  0
  3 23  1  0
 12 24  1  0
 13 25  1  0
 15 26  1  0
 16 27  1  0
 17 28  1  0
 20 29  1  0
M  ISO  8  22  14  23  14  24  14  25  14  26  14  27  14  28  14  29  14
M  END
>  <minimizedAffinity>  (1) 
-6.05928898

>  <minimizedRMSD>  (1) 
0.0865941271

$$$$
