
     RDKit          3D

 31 34  0  0  0  0  0  0  0  0999 V2000
   46.6330   34.6920   42.0490 C   0  0  0  0  0  0  0  0  0  0  0  0
   47.8870   35.1350   41.7530 C   0  0  0  0  0  0  0  0  0  0  0  0
   48.4120   34.9190   40.5210 C   0  0  0  0  0  0  0  0  0  0  0  0
   47.5370   34.2080   39.6230 C   0  0  0  0  0  0  0  0  0  0  0  0
   46.0370   33.9120   40.6210 S   0  0  0  0  0  0  0  0  0  0  0  0
   44.4830   35.9140   44.8910 C   0  0  0  0  0  0  0  0  0  0  0  0
   45.0750   35.9020   43.6080 C   0  0  0  0  0  0  0  0  0  0  0  0
   45.9450   34.8470   43.3090 C   0  0  0  0  0  0  0  0  0  0  0  0
   46.1670   33.9060   44.2530 N   0  0  0  0  0  0  0  0  0  0  0  0
   45.5830   33.9600   45.4550 C   0  0  0  0  0  0  0  0  0  0  0  0
   44.7490   34.9470   45.7800 N   0  0  0  0  0  0  0  0  0  0  0  0
   47.8500   33.8380   38.2290 C   0  0  0  0  0  0  0  0  0  0  0  0
   48.7640   34.3450   37.4370 N   0  0  0  0  0  0  0  0  0  0  0  0
   48.6430   33.6740   36.3020 O   0  0  0  0  0  0  0  0  0  0  0  0
   47.6910   32.7850   36.3860 C   0  0  0  0  0  0  0  0  0  0  0  0
   47.1470   32.8620   37.6340 N   0  0  0  0  0  0  0  0  0  0  0  0
   47.3160   31.8890   35.2950 C   0  0  0  0  0  0  0  0  0  0  0  0
   48.0420   31.9500   34.1400 C   0  0  0  0  0  0  0  0  0  0  0  0
   47.6640   31.0830   33.1110 C   0  0  0  0  0  0  0  0  0  0  0  0
   46.5960   30.1900   33.2460 C   0  0  0  0  0  0  0  0  0  0  0  0
   45.9180   30.1910   34.4400 C   0  0  0  0  0  0  0  0  0  0  0  0
   46.2740   31.0260   35.4450 N   0  0  0  0  0  0  0  0  0  0  0  0
   48.4747   35.6687   42.5144 H   0  0  0  0  0  0  0  0  0  0  0  0
   49.4182   35.2571   40.2323 H   0  0  0  0  0  0  0  0  0  0  0  0
   43.7948   36.7277   45.1637 H   0  0  0  0  0  0  0  0  0  0  0  0
   44.8604   36.6913   42.8725 H   0  0  0  0  0  0  0  0  0  0  0  0
   45.7960   33.1717   46.1920 H   0  0  0  0  0  0  0  0  0  0  0  0
   48.8842   32.6482   34.0250 H   0  0  0  0  0  0  0  0  0  0  0  0
   48.2244   31.1036   32.1647 H   0  0  0  0  0  0  0  0  0  0  0  0
   46.3103   29.5131   32.4273 H   0  0  0  0  0  0  0  0  0  0  0  0
   45.0721   29.5025   34.5825 H   0  0  0  0  0  0  0  0  0  0  0  0
  1  8  1  0
  2  1  2  0
  3  2  1  0
  4  3  2  0
  4  5  1  0
  5  1  1  0
  6 11  2  0
  7  6  1  0
  8  7  2  0
  8  9  1  0
  9 10  2  0
 10 11  1  0
 12  4  1  0
 13 12  2  0
 14 15  1  0
 14 13  1  0
 15 16  2  0
 16 12  1  0
 17 22  1  0
 17 15  1  0
 18 17  2  0
 19 20  2  0
 19 18  1  0
 20 21  1  0
 21 22  2  0
  2 23  1  0
  3 24  1  0
  6 25  1  0
  7 26  1  0
 10 27  1  0
 18 28  1  0
 19 29  1  0
 20 30  1  0
 21 31  1  0
M  ISO  8  23  14  24  14  25  14  26  14  27  14  28  14  29  14  30  14
M  ISO  1  31  14
M  END
>  <minimizedAffinity>  (1) 
-5.97755671

>  <minimizedRMSD>  (1) 
1.99889529

$$$$
