
     RDKit          3D

 28 31  0  0  0  0  0  0  0  0999 V2000
   46.6230   34.6980   42.0610 C   0  0  0  0  0  0  0  0  0  0  0  0
   47.8770   35.1400   41.7650 C   0  0  0  0  0  0  0  0  0  0  0  0
   48.4110   34.9190   40.5370 C   0  0  0  0  0  0  0  0  0  0  0  0
   47.5380   34.2040   39.6400 C   0  0  0  0  0  0  0  0  0  0  0  0
   46.0280   33.9090   40.6390 S   0  0  0  0  0  0  0  0  0  0  0  0
   44.4740   35.9310   44.8990 C   0  0  0  0  0  0  0  0  0  0  0  0
   45.0700   35.9080   43.6230 C   0  0  0  0  0  0  0  0  0  0  0  0
   45.9340   34.8600   43.3200 C   0  0  0  0  0  0  0  0  0  0  0  0
   46.1590   33.9180   44.2610 N   0  0  0  0  0  0  0  0  0  0  0  0
   45.5680   33.9780   45.4680 C   0  0  0  0  0  0  0  0  0  0  0  0
   44.7350   34.9680   45.7930 N   0  0  0  0  0  0  0  0  0  0  0  0
   47.8460   33.8250   38.2490 C   0  0  0  0  0  0  0  0  0  0  0  0
   48.7100   34.3680   37.4300 N   0  0  0  0  0  0  0  0  0  0  0  0
   48.6230   33.6840   36.3110 O   0  0  0  0  0  0  0  0  0  0  0  0
   47.7150   32.7220   36.4250 C   0  0  0  0  0  0  0  0  0  0  0  0
   47.2170   32.8170   37.6760 N   0  0  0  0  0  0  0  0  0  0  0  0
   47.3340   31.7500   35.3870 C   0  0  0  0  0  0  0  0  0  0  0  0
   47.8790   31.8460   34.0330 C   0  0  0  0  0  0  0  0  0  0  0  0
   47.1090   30.4510   33.1860 S   0  0  0  0  0  0  0  0  0  0  0  0
   46.1750   29.9440   34.7600 C   0  0  0  0  0  0  0  0  0  0  0  0
   46.5010   30.7270   35.5400 N   0  0  0  0  0  0  0  0  0  0  0  0
   48.4604   35.6793   42.5258 H   0  0  0  0  0  0  0  0  0  0  0  0
   49.4189   35.2551   40.2520 H   0  0  0  0  0  0  0  0  0  0  0  0
   43.7871   36.7482   45.1642 H   0  0  0  0  0  0  0  0  0  0  0  0
   44.8583   36.6968   42.8862 H   0  0  0  0  0  0  0  0  0  0  0  0
   45.7771   33.1900   46.2064 H   0  0  0  0  0  0  0  0  0  0  0  0
   48.5851   32.5869   33.6299 H   0  0  0  0  0  0  0  0  0  0  0  0
   45.4836   29.0993   34.8955 H   0  0  0  0  0  0  0  0  0  0  0  0
  1  8  1  0
  2  1  2  0
  3  2  1  0
  4  3  2  0
  4  5  1  0
  5  1  1  0
  6 11  2  0
  7  6  1  0
  8  7  2  0
  8  9  1  0
  9 10  2  0
 10 11  1  0
 12  4  1  0
 13 12  2  0
 14 15  1  0
 14 13  1  0
 15 16  2  0
 16 12  1  0
 17 21  1  0
 17 15  1  0
 18 17  2  0
 19 18  1  0
 19 20  1  0
 20 21  2  0
  2 22  1  0
  3 23  1  0
  6 24  1  0
  7 25  1  0
 10 26  1  0
 18 27  1  0
 20 28  1  0
M  ISO  7  22  14  23  14  24  14  25  14  26  14  27  14  28  14
M  END
>  <minimizedAffinity>  (1) 
-5.75579405

>  <minimizedRMSD>  (1) 
1.78141546

$$$$
