
     RDKit          3D

 29 32  0  0  0  0  0  0  0  0999 V2000
   46.7780   34.7700   42.1370 C   0  0  0  0  0  0  0  0  0  0  0  0
   47.9860   35.3420   41.8710 C   0  0  0  0  0  0  0  0  0  0  0  0
   48.5970   35.1190   40.6810 C   0  0  0  0  0  0  0  0  0  0  0  0
   47.8580   34.2560   39.7920 C   0  0  0  0  0  0  0  0  0  0  0  0
   46.3500   33.8410   40.7400 S   0  0  0  0  0  0  0  0  0  0  0  0
   44.4510   35.9530   44.8590 C   0  0  0  0  0  0  0  0  0  0  0  0
   45.1140   35.9500   43.6140 C   0  0  0  0  0  0  0  0  0  0  0  0
   46.0150   34.9180   43.3560 C   0  0  0  0  0  0  0  0  0  0  0  0
   46.1970   33.9920   44.3060 N   0  0  0  0  0  0  0  0  0  0  0  0
   45.5570   34.0070   45.4900 C   0  0  0  0  0  0  0  0  0  0  0  0
   44.6810   34.9970   45.7580 N   0  0  0  0  0  0  0  0  0  0  0  0
   48.2800   33.8450   38.4370 C   0  0  0  0  0  0  0  0  0  0  0  0
   48.0810   34.5030   37.2970 N   0  0  0  0  0  0  0  0  0  0  0  0
   48.6350   33.7430   36.3750 O   0  0  0  0  0  0  0  0  0  0  0  0
   49.1590   32.6530   36.9240 C   0  0  0  0  0  0  0  0  0  0  0  0
   48.9350   32.7100   38.2620 N   0  0  0  0  0  0  0  0  0  0  0  0
   49.8580   31.5680   36.2470 C   0  0  0  0  0  0  0  0  0  0  0  0
   49.4360   30.8970   35.1000 C   0  0  0  0  0  0  0  0  0  0  0  0
   50.4270   29.9520   34.8370 C   0  0  0  0  0  0  0  0  0  0  0  0
   51.3810   30.0670   35.7840 N   0  0  0  0  0  0  0  0  0  0  0  0
   51.0350   31.0360   36.6240 N   0  0  0  0  0  0  0  0  0  0  0  0
   48.4662   35.9856   42.6227 H   0  0  0  0  0  0  0  0  0  0  0  0
   49.5706   35.5576   40.4168 H   0  0  0  0  0  0  0  0  0  0  0  0
   43.7348   36.7551   45.0907 H   0  0  0  0  0  0  0  0  0  0  0  0
   44.9259   36.7377   42.8696 H   0  0  0  0  0  0  0  0  0  0  0  0
   45.7468   33.2183   46.2330 H   0  0  0  0  0  0  0  0  0  0  0  0
   48.5158   31.0754   34.5243 H   0  0  0  0  0  0  0  0  0  0  0  0
   50.4304   29.2363   34.0017 H   0  0  0  0  0  0  0  0  0  0  0  0
   52.2368   29.4972   35.8455 H   0  0  0  0  0  0  0  0  0  0  0  0
  1  8  1  0
  2  1  2  0
  3  2  1  0
  4  3  2  0
  4  5  1  0
  5  1  1  0
  6 11  2  0
  7  6  1  0
  8  7  2  0
  8  9  1  0
  9 10  2  0
 10 11  1  0
 12  4  1  0
 13 12  2  0
 14 15  1  0
 14 13  1  0
 15 16  2  0
 16 12  1  0
 17 21  2  0
 17 15  1  0
 18 17  1  0
 19 18  2  0
 19 20  1  0
 20 21  1  0
  2 22  1  0
  3 23  1  0
  6 24  1  0
  7 25  1  0
 10 26  1  0
 18 27  1  0
 19 28  1  0
 20 29  1  0
M  ISO  8  22  14  23  14  24  14  25  14  26  14  27  14  28  14  29   9
M  END
>  <minimizedAffinity>  (1) 
-5.72609615

>  <minimizedRMSD>  (1) 
0.201590478

$$$$
