
     RDKit          3D

 27 30  0  0  0  0  0  0  0  0999 V2000
   46.7790   34.7580   42.1290 C   0  0  0  0  0  0  0  0  0  0  0  0
   47.9880   35.3260   41.8610 C   0  0  0  0  0  0  0  0  0  0  0  0
   48.5920   35.1130   40.6690 C   0  0  0  0  0  0  0  0  0  0  0  0
   47.8440   34.2640   39.7740 C   0  0  0  0  0  0  0  0  0  0  0  0
   46.3500   33.8540   40.7250 S   0  0  0  0  0  0  0  0  0  0  0  0
   44.4570   35.9520   44.8500 C   0  0  0  0  0  0  0  0  0  0  0  0
   45.1140   35.9480   43.6080 C   0  0  0  0  0  0  0  0  0  0  0  0
   46.0240   34.9000   43.3530 C   0  0  0  0  0  0  0  0  0  0  0  0
   46.2000   33.9840   44.3030 N   0  0  0  0  0  0  0  0  0  0  0  0
   45.5580   34.0140   45.4810 C   0  0  0  0  0  0  0  0  0  0  0  0
   44.6940   34.9850   45.7570 N   0  0  0  0  0  0  0  0  0  0  0  0
   48.2590   33.8620   38.4130 C   0  0  0  0  0  0  0  0  0  0  0  0
   48.1110   34.5240   37.2910 N   0  0  0  0  0  0  0  0  0  0  0  0
   48.6390   33.7600   36.3570 O   0  0  0  0  0  0  0  0  0  0  0  0
   49.1030   32.6560   36.8820 C   0  0  0  0  0  0  0  0  0  0  0  0
   48.8730   32.6830   38.2320 N   0  0  0  0  0  0  0  0  0  0  0  0
   49.7680   31.5420   36.1790 C   0  0  0  0  0  0  0  0  0  0  0  0
   49.4400   30.7600   35.1350 N   0  0  0  0  0  0  0  0  0  0  0  0
   50.3850   29.9210   34.9120 O   0  0  0  0  0  0  0  0  0  0  0  0
   51.3610   30.0850   35.7580 C   0  0  0  0  0  0  0  0  0  0  0  0
   50.9920   31.0990   36.5630 N   0  0  0  0  0  0  0  0  0  0  0  0
   48.4750   35.9601   42.6165 H   0  0  0  0  0  0  0  0  0  0  0  0
   49.5671   35.5487   40.4057 H   0  0  0  0  0  0  0  0  0  0  0  0
   43.7412   36.7538   45.0841 H   0  0  0  0  0  0  0  0  0  0  0  0
   44.9258   36.7335   42.8613 H   0  0  0  0  0  0  0  0  0  0  0  0
   45.7489   33.2270   46.2255 H   0  0  0  0  0  0  0  0  0  0  0  0
   52.2981   29.5108   35.8054 H   0  0  0  0  0  0  0  0  0  0  0  0
  1  8  1  0
  2  1  2  0
  3  2  1  0
  4  3  2  0
  4  5  1  0
  5  1  1  0
  6 11  2  0
  7  6  1  0
  8  7  2  0
  8  9  1  0
  9 10  2  0
 10 11  1  0
 12  4  1  0
 13 12  2  0
 14 15  1  0
 14 13  1  0
 15 16  2  0
 16 12  1  0
 17 21  1  0
 17 15  1  0
 18 17  2  0
 19 18  1  0
 19 20  1  0
 20 21  2  0
  2 22  1  0
  3 23  1  0
  6 24  1  0
  7 25  1  0
 10 26  1  0
 20 27  1  0
M  ISO  6  22  14  23  14  24  14  25  14  26  14  27  14
M  END
>  <minimizedAffinity>  (1) 
-5.73038292

>  <minimizedRMSD>  (1) 
0.198267147

$$$$
