
     RDKit          3D

 25 27  0  0  0  0  0  0  0  0999 V2000
   46.7820   34.7700   42.1340 C   0  0  0  0  0  0  0  0  0  0  0  0
   47.9860   35.3400   41.8520 C   0  0  0  0  0  0  0  0  0  0  0  0
   48.5890   35.1110   40.6580 C   0  0  0  0  0  0  0  0  0  0  0  0
   47.8390   34.2410   39.7840 C   0  0  0  0  0  0  0  0  0  0  0  0
   46.3430   33.8320   40.7440 S   0  0  0  0  0  0  0  0  0  0  0  0
   44.4530   35.9630   44.8480 C   0  0  0  0  0  0  0  0  0  0  0  0
   45.1150   35.9610   43.6030 C   0  0  0  0  0  0  0  0  0  0  0  0
   46.0210   34.9160   43.3500 C   0  0  0  0  0  0  0  0  0  0  0  0
   46.1940   33.9980   44.3020 N   0  0  0  0  0  0  0  0  0  0  0  0
   45.5530   34.0200   45.4780 C   0  0  0  0  0  0  0  0  0  0  0  0
   44.6790   35.0090   45.7490 N   0  0  0  0  0  0  0  0  0  0  0  0
   48.2650   33.8290   38.4310 C   0  0  0  0  0  0  0  0  0  0  0  0
   48.1980   34.5350   37.3100 N   0  0  0  0  0  0  0  0  0  0  0  0
   48.6980   33.7520   36.3800 O   0  0  0  0  0  0  0  0  0  0  0  0
   49.0630   32.6070   36.8960 C   0  0  0  0  0  0  0  0  0  0  0  0
   48.7940   32.6210   38.2400 N   0  0  0  0  0  0  0  0  0  0  0  0
   49.6760   31.4650   36.1420 C   0  0  0  0  0  0  0  0  0  0  0  0
   48.4721   35.9890   42.5953 H   0  0  0  0  0  0  0  0  0  0  0  0
   49.5599   35.5481   40.3817 H   0  0  0  0  0  0  0  0  0  0  0  0
   43.7378   36.7662   45.0788 H   0  0  0  0  0  0  0  0  0  0  0  0
   44.9295   36.7480   42.8572 H   0  0  0  0  0  0  0  0  0  0  0  0
   45.7400   33.2314   46.2218 H   0  0  0  0  0  0  0  0  0  0  0  0
   50.0725   30.7263   36.8541 H   0  0  0  0  0  0  0  0  0  0  0  0
   48.9112   30.9907   35.5094 H   0  0  0  0  0  0  0  0  0  0  0  0
   50.4939   31.8403   35.5094 H   0  0  0  0  0  0  0  0  0  0  0  0
  1  8  1  0
  2  1  2  0
  3  2  1  0
  4  3  2  0
  4  5  1  0
  5  1  1  0
  6 11  2  0
  7  6  1  0
  8  7  2  0
  8  9  1  0
  9 10  2  0
 10 11  1  0
 12  4  1  0
 13 12  2  0
 14 15  1  0
 14 13  1  0
 15 16  2  0
 16 12  1  0
 17 15  1  0
  2 18  1  0
  3 19  1  0
  6 20  1  0
  7 21  1  0
 10 22  1  0
 17 23  1  0
 17 24  1  0
 17 25  1  0
M  ISO  8  18  14  19  14  20  14  21  14  22  14  23   8  24   8  25   8
M  END
>  <minimizedAffinity>  (1) 
-5.55755711

>  <minimizedRMSD>  (1) 
0.0293777436

$$$$
