
     RDKit          3D

 28 30  0  0  0  0  0  0  0  0999 V2000
   46.7790   34.7800   42.1230 C   0  0  0  0  0  0  0  0  0  0  0  0
   47.9880   35.3470   41.8560 C   0  0  0  0  0  0  0  0  0  0  0  0
   48.5970   35.1140   40.6610 C   0  0  0  0  0  0  0  0  0  0  0  0
   47.8510   34.2530   39.7780 C   0  0  0  0  0  0  0  0  0  0  0  0
   46.3500   33.8520   40.7300 S   0  0  0  0  0  0  0  0  0  0  0  0
   44.4550   35.9560   44.8470 C   0  0  0  0  0  0  0  0  0  0  0  0
   45.1150   35.9650   43.5950 C   0  0  0  0  0  0  0  0  0  0  0  0
   46.0130   34.9320   43.3400 C   0  0  0  0  0  0  0  0  0  0  0  0
   46.1930   33.9980   44.2980 N   0  0  0  0  0  0  0  0  0  0  0  0
   45.5510   34.0220   45.4720 C   0  0  0  0  0  0  0  0  0  0  0  0
   44.6840   34.9990   45.7470 N   0  0  0  0  0  0  0  0  0  0  0  0
   48.2670   33.8330   38.4250 C   0  0  0  0  0  0  0  0  0  0  0  0
   48.1900   34.5440   37.3030 N   0  0  0  0  0  0  0  0  0  0  0  0
   48.6780   33.7620   36.3670 O   0  0  0  0  0  0  0  0  0  0  0  0
   49.0470   32.6020   36.8880 C   0  0  0  0  0  0  0  0  0  0  0  0
   48.7850   32.6330   38.2300 N   0  0  0  0  0  0  0  0  0  0  0  0
   49.6400   31.4810   36.1100 C   0  0  0  0  0  0  0  0  0  0  0  0
   49.3140   31.5540   34.6350 C   0  0  0  0  0  0  0  0  0  0  0  0
   48.4715   35.9920   42.6044 H   0  0  0  0  0  0  0  0  0  0  0  0
   49.5729   35.5450   40.3928 H   0  0  0  0  0  0  0  0  0  0  0  0
   43.7376   36.7558   45.0828 H   0  0  0  0  0  0  0  0  0  0  0  0
   44.9262   36.7556   42.8539 H   0  0  0  0  0  0  0  0  0  0  0  0
   45.7388   33.2323   46.2144 H   0  0  0  0  0  0  0  0  0  0  0  0
   50.7331   31.5095   36.2301 H   0  0  0  0  0  0  0  0  0  0  0  0
   49.2109   30.5454   36.4980 H   0  0  0  0  0  0  0  0  0  0  0  0
   48.2479   31.7927   34.5065 H   0  0  0  0  0  0  0  0  0  0  0  0
   49.9247   32.3376   34.1628 H   0  0  0  0  0  0  0  0  0  0  0  0
   49.5322   30.5847   34.1628 H   0  0  0  0  0  0  0  0  0  0  0  0
  1  8  1  0
  2  1  2  0
  3  2  1  0
  4  3  2  0
  4  5  1  0
  5  1  1  0
  6 11  2  0
  7  6  1  0
  8  7  2  0
  8  9  1  0
  9 10  2  0
 10 11  1  0
 12  4  1  0
 13 12  2  0
 14 15  1  0
 14 13  1  0
 15 16  2  0
 16 12  1  0
 17 15  1  0
 18 17  1  0
  2 19  1  0
  3 20  1  0
  6 21  1  0
  7 22  1  0
 10 23  1  0
 17 24  1  0
 17 25  1  0
 18 26  1  0
 18 27  1  0
 18 28  1  0
M  ISO  8  19  14  20  14  21  14  22  14  23  14  24   8  25   8  26   8
M  ISO  2  27   8  28   8
M  END
>  <minimizedAffinity>  (1) 
-5.45644951

>  <minimizedRMSD>  (1) 
0.291701436

$$$$
