
     RDKit          3D

 41 45  0  0  0  0  0  0  0  0999 V2000
   48.2690   33.7540   38.4530 C   0  0  0  0  0  0  0  0  0  0  0  0
   47.9160   34.2110   37.2910 N   0  0  0  0  0  0  0  0  0  0  0  0
   48.5820   33.4750   36.4170 O   0  0  0  0  0  0  0  0  0  0  0  0
   49.3320   32.5830   37.0230 C   0  0  0  0  0  0  0  0  0  0  0  0
   49.1520   32.7370   38.3560 N   0  0  0  0  0  0  0  0  0  0  0  0
   46.7750   34.7420   42.1380 C   0  0  0  0  0  0  0  0  0  0  0  0
   47.9530   35.3360   41.8400 C   0  0  0  0  0  0  0  0  0  0  0  0
   48.5590   35.1010   40.6570 C   0  0  0  0  0  0  0  0  0  0  0  0
   47.8420   34.1980   39.8050 C   0  0  0  0  0  0  0  0  0  0  0  0
   46.3600   33.7620   40.7760 S   0  0  0  0  0  0  0  0  0  0  0  0
   44.4450   36.0210   44.8130 C   0  0  0  0  0  0  0  0  0  0  0  0
   45.1190   35.9920   43.5690 C   0  0  0  0  0  0  0  0  0  0  0  0
   46.0120   34.9040   43.3630 C   0  0  0  0  0  0  0  0  0  0  0  0
   46.1610   34.0020   44.3150 N   0  0  0  0  0  0  0  0  0  0  0  0
   45.5070   34.0580   45.4830 C   0  0  0  0  0  0  0  0  0  0  0  0
   44.6500   35.0620   45.7370 N   0  0  0  0  0  0  0  0  0  0  0  0
   50.2150   31.5860   36.4360 C   0  0  0  0  0  0  0  0  0  0  0  0
   50.0270   30.7710   35.3610 C   0  0  0  0  0  0  0  0  0  0  0  0
   51.1930   30.0220   35.2480 C   0  0  0  0  0  0  0  0  0  0  0  0
   52.0350   30.4160   36.2620 C   0  0  0  0  0  0  0  0  0  0  0  0
   51.4300   31.3410   36.9460 O   0  0  0  0  0  0  0  0  0  0  0  0
   53.3380   29.9030   36.5160 N   0  0  0  0  0  0  0  0  0  0  0  0
   54.0060   29.6240   37.7740 C   0  0  0  0  0  0  0  0  0  0  0  0
   55.2910   30.4370   37.5650 C   0  0  0  0  0  0  0  0  0  0  0  0
   55.5460   30.2960   36.0730 C   0  0  0  0  0  0  0  0  0  0  0  0
   54.3390   29.5260   35.5350 C   0  0  0  0  0  0  0  0  0  0  0  0
   48.4208   36.0158   42.5673 H   0  0  0  0  0  0  0  0  0  0  0  0
   49.5168   35.5609   40.3723 H   0  0  0  0  0  0  0  0  0  0  0  0
   43.7426   36.8395   45.0291 H   0  0  0  0  0  0  0  0  0  0  0  0
   44.9613   36.7670   42.8045 H   0  0  0  0  0  0  0  0  0  0  0  0
   45.6725   33.2768   46.2395 H   0  0  0  0  0  0  0  0  0  0  0  0
   49.1375   30.7166   34.7162 H   0  0  0  0  0  0  0  0  0  0  0  0
   51.4034   29.2554   34.4877 H   0  0  0  0  0  0  0  0  0  0  0  0
   53.4264   29.9870   38.6356 H   0  0  0  0  0  0  0  0  0  0  0  0
   54.1580   28.5576   37.9967 H   0  0  0  0  0  0  0  0  0  0  0  0
   55.1417   31.4908   37.8427 H   0  0  0  0  0  0  0  0  0  0  0  0
   56.1308   30.0870   38.1833 H   0  0  0  0  0  0  0  0  0  0  0  0
   55.6162   31.2856   35.5978 H   0  0  0  0  0  0  0  0  0  0  0  0
   56.4932   29.7775   35.8634 H   0  0  0  0  0  0  0  0  0  0  0  0
   54.0627   29.8565   34.5229 H   0  0  0  0  0  0  0  0  0  0  0  0
   54.4935   28.4424   35.4254 H   0  0  0  0  0  0  0  0  0  0  0  0
  1  9  1  0
  2  1  2  0
  3  4  1  0
  3  2  1  0
  4  5  2  0
  5  1  1  0
  6 13  1  0
  7  6  2  0
  8  7  1  0
  9  8  2  0
  9 10  1  0
 10  6  1  0
 11 16  2  0
 12 11  1  0
 13 12  2  0
 13 14  1  0
 14 15  2  0
 15 16  1  0
 17 21  1  0
 17  4  1  0
 18 17  2  0
 19 18  1  0
 19 20  2  0
 20 22  1  0
 20 21  1  0
 22 23  1  0
 24 23  1  0
 25 24  1  0
 26 25  1  0
 26 22  1  0
  7 27  1  0
  8 28  1  0
 11 29  1  0
 12 30  1  0
 15 31  1  0
 18 32  1  0
 19 33  1  0
 23 34  1  0
 23 35  1  0
 24 36  1  0
 24 37  1  0
 25 38  1  0
 25 39  1  0
 26 40  1  0
 26 41  1  0
M  ISO  8  27  14  28  14  29  14  30  14  31  14  32  14  33  14  34  13
M  ISO  7  35  13  36  13  37  13  38  13  39  13  40  13  41  13
M  END
>  <minimizedAffinity>  (1) 
-6.19768047

>  <minimizedRMSD>  (1) 
0.616492927

$$$$
