
     RDKit          3D

 32 35  0  0  0  0  0  0  0  0999 V2000
   46.8110   34.7700   42.1280 C   0  0  0  0  0  0  0  0  0  0  0  0
   48.0080   35.3370   41.8610 C   0  0  0  0  0  0  0  0  0  0  0  0
   48.6000   35.1170   40.6640 C   0  0  0  0  0  0  0  0  0  0  0  0
   47.8610   34.2740   39.7780 C   0  0  0  0  0  0  0  0  0  0  0  0
   46.3550   33.8520   40.7320 S   0  0  0  0  0  0  0  0  0  0  0  0
   44.4570   35.9470   44.8400 C   0  0  0  0  0  0  0  0  0  0  0  0
   45.1320   35.9420   43.5990 C   0  0  0  0  0  0  0  0  0  0  0  0
   46.0420   34.9020   43.3580 C   0  0  0  0  0  0  0  0  0  0  0  0
   46.2170   33.9850   44.3030 N   0  0  0  0  0  0  0  0  0  0  0  0
   45.5650   34.0080   45.4740 C   0  0  0  0  0  0  0  0  0  0  0  0
   44.6930   34.9790   45.7430 N   0  0  0  0  0  0  0  0  0  0  0  0
   48.2640   33.8650   38.4080 C   0  0  0  0  0  0  0  0  0  0  0  0
   48.0830   34.4940   37.2860 N   0  0  0  0  0  0  0  0  0  0  0  0
   48.6210   33.7190   36.3630 O   0  0  0  0  0  0  0  0  0  0  0  0
   49.1190   32.6460   36.8920 C   0  0  0  0  0  0  0  0  0  0  0  0
   48.9040   32.7030   38.2350 N   0  0  0  0  0  0  0  0  0  0  0  0
   49.8050   31.5210   36.2530 C   0  0  0  0  0  0  0  0  0  0  0  0
   49.3000   30.6030   35.3660 C   0  0  0  0  0  0  0  0  0  0  0  0
   50.3690   29.7570   35.0750 C   0  0  0  0  0  0  0  0  0  0  0  0
   51.4580   30.2090   35.8000 C   0  0  0  0  0  0  0  0  0  0  0  0
   51.0900   31.2400   36.4760 O   0  0  0  0  0  0  0  0  0  0  0  0
   52.7460   29.5270   35.7120 C   0  0  0  0  0  0  0  0  0  0  0  0
   53.4430   29.6440   34.6830 O   0  0  0  0  0  0  0  0  0  0  0  0
   53.1110   28.7640   36.8370 O   0  0  0  0  0  0  0  0  0  0  0  0
   48.4985   35.9737   42.6121 H   0  0  0  0  0  0  0  0  0  0  0  0
   49.5733   35.5528   40.3944 H   0  0  0  0  0  0  0  0  0  0  0  0
   43.7358   36.7456   45.0684 H   0  0  0  0  0  0  0  0  0  0  0  0
   44.9505   36.7255   42.8486 H   0  0  0  0  0  0  0  0  0  0  0  0
   45.7511   33.2196   46.2182 H   0  0  0  0  0  0  0  0  0  0  0  0
   48.2749   30.5472   34.9709 H   0  0  0  0  0  0  0  0  0  0  0  0
   50.3506   28.8918   34.3960 H   0  0  0  0  0  0  0  0  0  0  0  0
   53.9717   28.2750   36.8454 H   0  0  0  0  0  0  0  0  0  0  0  0
  1  8  1  0
  2  1  2  0
  3  2  1  0
  4  3  2  0
  4  5  1  0
  5  1  1  0
  6 11  2  0
  7  6  1  0
  8  7  2  0
  8  9  1  0
  9 10  2  0
 10 11  1  0
 12  4  1  0
 13 12  2  0
 14 15  1  0
 14 13  1  0
 15 16  2  0
 16 12  1  0
 17 21  1  0
 17 15  1  0
 18 17  2  0
 19 18  1  0
 19 20  2  0
 20 21  1  0
 22 20  1  0
 22 24  1  0
 23 22  2  0
  2 25  1  0
  3 26  1  0
  6 27  1  0
  7 28  1  0
 10 29  1  0
 18 30  1  0
 19 31  1  0
 24 32  1  0
M  ISO  8  25  14  26  14  27  14  28  14  29  14  30  14  31  14  32   3
M  END
>  <minimizedAffinity>  (1) 
-5.75897455

>  <minimizedRMSD>  (1) 
0.116492897

$$$$
