
     RDKit          3D

 36 40  0  0  0  0  0  0  0  0999 V2000
   46.7950   34.7890   42.1150 C   0  0  0  0  0  0  0  0  0  0  0  0
   47.9880   35.3660   41.8400 C   0  0  0  0  0  0  0  0  0  0  0  0
   48.5950   35.1130   40.6550 C   0  0  0  0  0  0  0  0  0  0  0  0
   47.8770   34.2270   39.7950 C   0  0  0  0  0  0  0  0  0  0  0  0
   46.3730   33.8150   40.7460 S   0  0  0  0  0  0  0  0  0  0  0  0
   44.4410   36.0410   44.7880 C   0  0  0  0  0  0  0  0  0  0  0  0
   45.1270   36.0200   43.5500 C   0  0  0  0  0  0  0  0  0  0  0  0
   46.0140   34.9530   43.3320 C   0  0  0  0  0  0  0  0  0  0  0  0
   46.1580   34.0330   44.2850 N   0  0  0  0  0  0  0  0  0  0  0  0
   45.4930   34.0810   45.4460 C   0  0  0  0  0  0  0  0  0  0  0  0
   44.6360   35.0830   45.6970 N   0  0  0  0  0  0  0  0  0  0  0  0
   48.3030   33.7770   38.4450 C   0  0  0  0  0  0  0  0  0  0  0  0
   48.0210   34.3190   37.2860 N   0  0  0  0  0  0  0  0  0  0  0  0
   48.6330   33.5530   36.4000 O   0  0  0  0  0  0  0  0  0  0  0  0
   49.2750   32.5680   36.9920 C   0  0  0  0  0  0  0  0  0  0  0  0
   49.0760   32.6910   38.3290 N   0  0  0  0  0  0  0  0  0  0  0  0
   50.0670   31.5110   36.3940 C   0  0  0  0  0  0  0  0  0  0  0  0
   49.7260   30.5800   35.4570 C   0  0  0  0  0  0  0  0  0  0  0  0
   50.8660   29.8150   35.2470 C   0  0  0  0  0  0  0  0  0  0  0  0
   51.8510   30.3200   36.0700 C   0  0  0  0  0  0  0  0  0  0  0  0
   51.3500   31.3140   36.7300 O   0  0  0  0  0  0  0  0  0  0  0  0
   53.2580   29.8210   36.1960 C   0  0  0  0  0  0  0  0  0  0  0  0
   54.1790   30.4430   37.1600 C   0  0  0  0  0  0  0  0  0  0  0  0
   53.5160   29.1520   37.5600 C   0  0  0  0  0  0  0  0  0  0  0  0
   48.4616   36.0355   42.5731 H   0  0  0  0  0  0  0  0  0  0  0  0
   49.5634   35.5548   40.3776 H   0  0  0  0  0  0  0  0  0  0  0  0
   43.7372   36.8583   45.0041 H   0  0  0  0  0  0  0  0  0  0  0  0
   44.9725   36.8034   42.7934 H   0  0  0  0  0  0  0  0  0  0  0  0
   45.6499   33.2944   46.1988 H   0  0  0  0  0  0  0  0  0  0  0  0
   48.7481   30.4598   34.9678 H   0  0  0  0  0  0  0  0  0  0  0  0
   50.9648   28.9660   34.5546 H   0  0  0  0  0  0  0  0  0  0  0  0
   53.3650   29.5848   35.1270 H   0  0  0  0  0  0  0  0  0  0  0  0
   55.2585   30.4569   36.9490 H   0  0  0  0  0  0  0  0  0  0  0  0
   54.2460   31.4410   37.6177 H   0  0  0  0  0  0  0  0  0  0  0  0
   52.7333   29.1449   38.3329 H   0  0  0  0  0  0  0  0  0  0  0  0
   53.8533   28.1634   37.9048 H   0  0  0  0  0  0  0  0  0  0  0  0
  1  8  1  0
  2  1  2  0
  3  2  1  0
  4  3  2  0
  4  5  1  0
  5  1  1  0
  6 11  2  0
  7  6  1  0
  8  7  2  0
  8  9  1  0
  9 10  2  0
 10 11  1  0
 12  4  1  0
 13 12  2  0
 14 15  1  0
 14 13  1  0
 15 16  2  0
 16 12  1  0
 17 21  1  0
 17 15  1  0
 18 17  2  0
 19 18  1  0
 19 20  2  0
 20 22  1  0
 20 21  1  0
 22 23  1  0
 22 24  1  0
 23 24  1  0
  2 25  1  0
  3 26  1  0
  6 27  1  0
  7 28  1  0
 10 29  1  0
 18 30  1  0
 19 31  1  0
 22 32  1  0
 23 33  1  0
 23 34  1  0
 24 35  1  0
 24 36  1  0
M  ISO  8  25  14  26  14  27  14  28  14  29  14  30  14  31  14  32  13
M  ISO  4  33  13  34  13  35  13  36  13
M  END
>  <minimizedAffinity>  (1) 
-5.78228378

>  <minimizedRMSD>  (1) 
0.360940695

$$$$
