
     RDKit          3D

 32 35  0  0  0  0  0  0  0  0999 V2000
   46.7920   34.7640   42.1330 C   0  0  0  0  0  0  0  0  0  0  0  0
   47.9950   35.3220   41.8650 C   0  0  0  0  0  0  0  0  0  0  0  0
   48.5850   35.0940   40.6690 C   0  0  0  0  0  0  0  0  0  0  0  0
   47.8390   34.2550   39.7860 C   0  0  0  0  0  0  0  0  0  0  0  0
   46.3300   33.8460   40.7390 S   0  0  0  0  0  0  0  0  0  0  0  0
   44.4550   35.9460   44.8560 C   0  0  0  0  0  0  0  0  0  0  0  0
   45.1190   35.9530   43.6020 C   0  0  0  0  0  0  0  0  0  0  0  0
   46.0250   34.9070   43.3620 C   0  0  0  0  0  0  0  0  0  0  0  0
   46.2040   33.9820   44.3150 N   0  0  0  0  0  0  0  0  0  0  0  0
   45.5600   34.0110   45.4830 C   0  0  0  0  0  0  0  0  0  0  0  0
   44.6880   34.9880   45.7540 N   0  0  0  0  0  0  0  0  0  0  0  0
   48.2410   33.8390   38.4160 C   0  0  0  0  0  0  0  0  0  0  0  0
   47.9830   34.4340   37.2810 N   0  0  0  0  0  0  0  0  0  0  0  0
   48.5490   33.6890   36.3600 O   0  0  0  0  0  0  0  0  0  0  0  0
   49.1420   32.6560   36.9040 C   0  0  0  0  0  0  0  0  0  0  0  0
   48.9570   32.7280   38.2540 N   0  0  0  0  0  0  0  0  0  0  0  0
   49.8870   31.5800   36.2640 C   0  0  0  0  0  0  0  0  0  0  0  0
   49.4830   30.6860   35.3180 C   0  0  0  0  0  0  0  0  0  0  0  0
   50.5980   29.8770   35.0630 C   0  0  0  0  0  0  0  0  0  0  0  0
   51.6130   30.3280   35.8680 C   0  0  0  0  0  0  0  0  0  0  0  0
   51.1680   31.3220   36.5570 O   0  0  0  0  0  0  0  0  0  0  0  0
   52.9840   29.7440   35.9110 C   0  0  0  0  0  0  0  0  0  0  0  0
   53.5810   29.7290   34.6620 F   0  0  0  0  0  0  0  0  0  0  0  0
   53.7350   30.5590   36.7600 F   0  0  0  0  0  0  0  0  0  0  0  0
   52.9860   28.4590   36.3790 F   0  0  0  0  0  0  0  0  0  0  0  0
   48.4901   35.9569   42.6145 H   0  0  0  0  0  0  0  0  0  0  0  0
   49.5619   35.5210   40.3981 H   0  0  0  0  0  0  0  0  0  0  0  0
   43.7358   36.7444   45.0914 H   0  0  0  0  0  0  0  0  0  0  0  0
   44.9334   36.7387   42.8549 H   0  0  0  0  0  0  0  0  0  0  0  0
   45.7478   33.2249   46.2292 H   0  0  0  0  0  0  0  0  0  0  0  0
   48.4891   30.6146   34.8520 H   0  0  0  0  0  0  0  0  0  0  0  0
   50.6497   29.0391   34.3521 H   0  0  0  0  0  0  0  0  0  0  0  0
  1  8  1  0
  2  1  2  0
  3  2  1  0
  4  3  2  0
  4  5  1  0
  5  1  1  0
  6 11  2  0
  7  6  1  0
  8  7  2  0
  8  9  1  0
  9 10  2  0
 10 11  1  0
 12  4  1  0
 13 12  2  0
 14 15  1  0
 14 13  1  0
 15 16  2  0
 16 12  1  0
 17 21  1  0
 17 15  1  0
 18 17  2  0
 19 18  1  0
 19 20  2  0
 20 22  1  0
 20 21  1  0
 22 25  1  0
 22 24  1  0
 23 22  1  0
  2 26  1  0
  3 27  1  0
  6 28  1  0
  7 29  1  0
 10 30  1  0
 18 31  1  0
 19 32  1  0
M  ISO  7  26  14  27  14  28  14  29  14  30  14  31  14  32  14
M  END
>  <minimizedAffinity>  (1) 
-5.87700891

>  <minimizedRMSD>  (1) 
0.229844376

$$$$
