
     RDKit          3D

 45 49  0  0  0  0  0  0  0  0999 V2000
   48.2600   33.8300   38.3870 C   0  0  0  0  0  0  0  0  0  0  0  0
   48.2870   34.5580   37.2960 N   0  0  0  0  0  0  0  0  0  0  0  0
   48.7120   33.7290   36.3550 O   0  0  0  0  0  0  0  0  0  0  0  0
   48.9360   32.5410   36.8480 C   0  0  0  0  0  0  0  0  0  0  0  0
   48.6490   32.5700   38.1860 N   0  0  0  0  0  0  0  0  0  0  0  0
   46.8050   34.7690   42.0990 C   0  0  0  0  0  0  0  0  0  0  0  0
   47.9970   35.3320   41.8380 C   0  0  0  0  0  0  0  0  0  0  0  0
   48.5930   35.0990   40.6330 C   0  0  0  0  0  0  0  0  0  0  0  0
   47.8590   34.2580   39.7620 C   0  0  0  0  0  0  0  0  0  0  0  0
   46.3570   33.8490   40.7190 S   0  0  0  0  0  0  0  0  0  0  0  0
   44.4630   35.9640   44.8140 C   0  0  0  0  0  0  0  0  0  0  0  0
   45.1290   35.9560   43.5790 C   0  0  0  0  0  0  0  0  0  0  0  0
   46.0340   34.9130   43.3320 C   0  0  0  0  0  0  0  0  0  0  0  0
   46.2210   33.9800   44.2820 N   0  0  0  0  0  0  0  0  0  0  0  0
   45.5620   34.0240   45.4530 C   0  0  0  0  0  0  0  0  0  0  0  0
   44.6930   35.0020   45.7220 N   0  0  0  0  0  0  0  0  0  0  0  0
   49.4080   31.3330   36.1780 C   0  0  0  0  0  0  0  0  0  0  0  0
   48.6980   30.2840   35.6960 C   0  0  0  0  0  0  0  0  0  0  0  0
   49.6270   29.3960   35.1500 C   0  0  0  0  0  0  0  0  0  0  0  0
   50.8730   29.9720   35.3370 C   0  0  0  0  0  0  0  0  0  0  0  0
   50.7060   31.1030   35.9410 O   0  0  0  0  0  0  0  0  0  0  0  0
   52.4500   29.3330   34.8620 S   0  0  0  0  0  0  0  0  0  0  0  0
   56.0760   30.3690   37.4520 N   0  0  0  0  0  0  0  0  0  0  0  0
   56.1850   30.4680   36.0290 C   0  0  0  0  0  0  0  0  0  0  0  0
   55.1840   29.5980   35.2820 C   0  0  0  0  0  0  0  0  0  0  0  0
   53.8270   29.9230   35.8070 C   0  0  0  0  0  0  0  0  0  0  0  0
   53.7910   29.5110   37.2710 C   0  0  0  0  0  0  0  0  0  0  0  0
   54.7470   30.4920   37.9660 C   0  0  0  0  0  0  0  0  0  0  0  0
   48.4861   35.9727   42.5865 H   0  0  0  0  0  0  0  0  0  0  0  0
   49.5672   35.5306   40.3597 H   0  0  0  0  0  0  0  0  0  0  0  0
   43.7454   36.7663   45.0405 H   0  0  0  0  0  0  0  0  0  0  0  0
   44.9476   36.7409   42.8300 H   0  0  0  0  0  0  0  0  0  0  0  0
   45.7418   33.2401   46.2034 H   0  0  0  0  0  0  0  0  0  0  0  0
   47.6058   30.1572   35.7285 H   0  0  0  0  0  0  0  0  0  0  0  0
   49.4123   28.4311   34.6674 H   0  0  0  0  0  0  0  0  0  0  0  0
   56.6504   31.1153   37.8692 H   0  0  0  0  0  0  0  0  0  0  0  0
   56.0199   31.5162   35.7391 H   0  0  0  0  0  0  0  0  0  0  0  0
   57.1897   30.1132   35.7557 H   0  0  0  0  0  0  0  0  0  0  0  0
   55.4085   28.5350   35.4542 H   0  0  0  0  0  0  0  0  0  0  0  0
   55.2365   29.7894   34.2000 H   0  0  0  0  0  0  0  0  0  0  0  0
   53.6829   31.0088   35.7057 H   0  0  0  0  0  0  0  0  0  0  0  0
   52.7731   29.6053   37.6772 H   0  0  0  0  0  0  0  0  0  0  0  0
   54.0855   28.4616   37.4192 H   0  0  0  0  0  0  0  0  0  0  0  0
   54.7582   30.2787   39.0451 H   0  0  0  0  0  0  0  0  0  0  0  0
   54.3934   31.5164   37.7774 H   0  0  0  0  0  0  0  0  0  0  0  0
  1  9  1  0
  2  1  2  0
  3  4  1  0
  3  2  1  0
  4  5  2  0
  5  1  1  0
  6 13  1  0
  7  6  2  0
  8  7  1  0
  9  8  2  0
  9 10  1  0
 10  6  1  0
 11 16  2  0
 12 11  1  0
 13 12  2  0
 13 14  1  0
 14 15  2  0
 15 16  1  0
 17  4  1  0
 18 17  2  0
 19 20  2  0
 19 18  1  0
 20 21  1  0
 21 17  1  0
 22 20  1  0
 22 26  1  0
 23 28  1  0
 24 23  1  0
 25 26  1  0
 25 24  1  0
 26 27  1  0
 27 28  1  0
  7 29  1  0
  8 30  1  0
 11 31  1  0
 12 32  1  0
 15 33  1  0
 18 34  1  0
 19 35  1  0
 23 36  1  0
 24 37  1  0
 24 38  1  0
 25 39  1  0
 25 40  1  0
 26 41  1  0
 27 42  1  0
 27 43  1  0
 28 44  1  0
 28 45  1  0
M  ISO  8  29  14  30  14  31  14  32  14  33  14  34  14  35  14  36   5
M  ISO  8  37  13  38  13  39  13  40  13  41  13  42  13  43  13  44  13
M  ISO  1  45  13
M  END
>  <minimizedAffinity>  (1) 
-6.045784

>  <minimizedRMSD>  (1) 
0.934647441

$$$$
