
     RDKit          3D

 38 42  0  0  0  0  0  0  0  0999 V2000
   48.3110   33.7930   38.3740 C   0  0  0  0  0  0  0  0  0  0  0  0
   47.9840   34.3310   37.2180 N   0  0  0  0  0  0  0  0  0  0  0  0
   48.6060   33.5820   36.3280 O   0  0  0  0  0  0  0  0  0  0  0  0
   49.2890   32.6170   36.9120 C   0  0  0  0  0  0  0  0  0  0  0  0
   49.1150   32.7310   38.2550 N   0  0  0  0  0  0  0  0  0  0  0  0
   46.8290   34.7780   42.0600 C   0  0  0  0  0  0  0  0  0  0  0  0
   48.0160   35.3490   41.8000 C   0  0  0  0  0  0  0  0  0  0  0  0
   48.6220   35.1020   40.6030 C   0  0  0  0  0  0  0  0  0  0  0  0
   47.8920   34.2350   39.7410 C   0  0  0  0  0  0  0  0  0  0  0  0
   46.3980   33.8290   40.6850 S   0  0  0  0  0  0  0  0  0  0  0  0
   44.4670   35.9970   44.7500 C   0  0  0  0  0  0  0  0  0  0  0  0
   45.1470   35.9880   43.5110 C   0  0  0  0  0  0  0  0  0  0  0  0
   46.0470   34.9330   43.2830 C   0  0  0  0  0  0  0  0  0  0  0  0
   46.2090   34.0140   44.2300 N   0  0  0  0  0  0  0  0  0  0  0  0
   45.5410   34.0600   45.3960 C   0  0  0  0  0  0  0  0  0  0  0  0
   44.6790   35.0400   45.6560 N   0  0  0  0  0  0  0  0  0  0  0  0
   50.1080   31.5810   36.2930 C   0  0  0  0  0  0  0  0  0  0  0  0
   49.9710   30.9660   35.0730 C   0  0  0  0  0  0  0  0  0  0  0  0
   51.0460   30.0640   35.0280 C   0  0  0  0  0  0  0  0  0  0  0  0
   51.7580   30.1840   36.2060 C   0  0  0  0  0  0  0  0  0  0  0  0
   51.1890   31.0780   36.9290 O   0  0  0  0  0  0  0  0  0  0  0  0
   53.2100   29.2860   36.6790 S   0  0  0  0  0  0  0  0  0  0  0  0
   54.5720   29.8490   35.6650 C   0  0  0  0  0  0  0  0  0  0  0  0
   55.6500   30.4490   36.3050 C   0  0  0  0  0  0  0  0  0  0  0  0
   56.6970   30.8810   35.5140 C   0  0  0  0  0  0  0  0  0  0  0  0
   56.7070   30.7420   34.1600 N   0  0  0  0  0  0  0  0  0  0  0  0
   55.6360   30.1520   33.5740 C   0  0  0  0  0  0  0  0  0  0  0  0
   54.6060   29.7220   34.3160 N   0  0  0  0  0  0  0  0  0  0  0  0
   48.4931   36.0066   42.5416 H   0  0  0  0  0  0  0  0  0  0  0  0
   49.5940   35.5366   40.3266 H   0  0  0  0  0  0  0  0  0  0  0  0
   43.7530   36.8041   44.9708 H   0  0  0  0  0  0  0  0  0  0  0  0
   44.9792   36.7723   42.7582 H   0  0  0  0  0  0  0  0  0  0  0  0
   45.7098   33.2746   46.1474 H   0  0  0  0  0  0  0  0  0  0  0  0
   49.1989   31.1396   34.3089 H   0  0  0  0  0  0  0  0  0  0  0  0
   51.2807   29.3804   34.1988 H   0  0  0  0  0  0  0  0  0  0  0  0
   55.6688   30.5749   37.3976 H   0  0  0  0  0  0  0  0  0  0  0  0
   57.5607   31.3584   35.9999 H   0  0  0  0  0  0  0  0  0  0  0  0
   55.6123   30.0253   32.4816 H   0  0  0  0  0  0  0  0  0  0  0  0
  1  9  1  0
  2  1  2  0
  3  4  1  0
  3  2  1  0
  4  5  2  0
  5  1  1  0
  6 13  1  0
  7  6  2  0
  8  7  1  0
  9  8  2  0
  9 10  1  0
 10  6  1  0
 11 16  2  0
 12 11  1  0
 13 12  2  0
 13 14  1  0
 14 15  2  0
 15 16  1  0
 17  4  1  0
 17 21  1  0
 18 17  2  0
 19 18  1  0
 19 20  2  0
 20 22  1  0
 20 21  1  0
 23 24  2  0
 23 22  1  0
 25 24  1  0
 26 25  2  0
 27 26  1  0
 27 28  2  0
 28 23  1  0
  7 29  1  0
  8 30  1  0
 11 31  1  0
 12 32  1  0
 15 33  1  0
 18 34  1  0
 19 35  1  0
 24 36  1  0
 25 37  1  0
 27 38  1  0
M  ISO  8  29  14  30  14  31  14  32  14  33  14  34  14  35  14  36  14
M  ISO  2  37  14  38  14
M  END
>  <minimizedAffinity>  (1) 
-6.30343676

>  <minimizedRMSD>  (1) 
0.725740016

$$$$
