
     RDKit          3D

 37 41  0  0  0  0  0  0  0  0999 V2000
   48.2920   33.7920   38.4050 C   0  0  0  0  0  0  0  0  0  0  0  0
   47.9550   34.3130   37.2540 N   0  0  0  0  0  0  0  0  0  0  0  0
   48.5690   33.5710   36.3530 O   0  0  0  0  0  0  0  0  0  0  0  0
   49.2680   32.6150   36.9360 C   0  0  0  0  0  0  0  0  0  0  0  0
   49.1030   32.7390   38.2840 N   0  0  0  0  0  0  0  0  0  0  0  0
   46.8090   34.7860   42.0860 C   0  0  0  0  0  0  0  0  0  0  0  0
   47.9970   35.3580   41.8270 C   0  0  0  0  0  0  0  0  0  0  0  0
   48.6020   35.1070   40.6280 C   0  0  0  0  0  0  0  0  0  0  0  0
   47.8790   34.2420   39.7720 C   0  0  0  0  0  0  0  0  0  0  0  0
   46.3770   33.8330   40.7150 S   0  0  0  0  0  0  0  0  0  0  0  0
   44.4520   36.0170   44.7710 C   0  0  0  0  0  0  0  0  0  0  0  0
   45.1350   35.9930   43.5430 C   0  0  0  0  0  0  0  0  0  0  0  0
   46.0240   34.9440   43.3130 C   0  0  0  0  0  0  0  0  0  0  0  0
   46.1900   34.0080   44.2660 N   0  0  0  0  0  0  0  0  0  0  0  0
   45.5130   34.0780   45.4220 C   0  0  0  0  0  0  0  0  0  0  0  0
   44.6580   35.0580   45.6790 N   0  0  0  0  0  0  0  0  0  0  0  0
   50.0840   31.5900   36.3200 C   0  0  0  0  0  0  0  0  0  0  0  0
   50.0210   31.0420   35.0860 C   0  0  0  0  0  0  0  0  0  0  0  0
   51.0460   30.1030   35.0210 C   0  0  0  0  0  0  0  0  0  0  0  0
   51.6890   30.1260   36.2390 C   0  0  0  0  0  0  0  0  0  0  0  0
   51.1070   31.0040   36.9770 O   0  0  0  0  0  0  0  0  0  0  0  0
   53.0860   29.1570   36.7900 S   0  0  0  0  0  0  0  0  0  0  0  0
   54.5170   29.7750   35.9180 C   0  0  0  0  0  0  0  0  0  0  0  0
   55.4730   30.4510   36.6680 C   0  0  0  0  0  0  0  0  0  0  0  0
   56.4760   30.8290   35.7710 C   0  0  0  0  0  0  0  0  0  0  0  0
   56.0590   30.3520   34.5300 C   0  0  0  0  0  0  0  0  0  0  0  0
   54.8960   29.7400   34.6790 O   0  0  0  0  0  0  0  0  0  0  0  0
   48.4741   36.0169   42.5674 H   0  0  0  0  0  0  0  0  0  0  0  0
   49.5732   35.5423   40.3501 H   0  0  0  0  0  0  0  0  0  0  0  0
   43.7433   36.8303   44.9863 H   0  0  0  0  0  0  0  0  0  0  0  0
   44.9734   36.7764   42.7879 H   0  0  0  0  0  0  0  0  0  0  0  0
   45.6723   33.2976   46.1806 H   0  0  0  0  0  0  0  0  0  0  0  0
   49.3022   31.2892   34.2909 H   0  0  0  0  0  0  0  0  0  0  0  0
   51.2952   29.4642   34.1609 H   0  0  0  0  0  0  0  0  0  0  0  0
   55.4454   30.6486   37.7498 H   0  0  0  0  0  0  0  0  0  0  0  0
   57.3981   31.3847   35.9967 H   0  0  0  0  0  0  0  0  0  0  0  0
   56.6066   30.4657   33.5828 H   0  0  0  0  0  0  0  0  0  0  0  0
  1  9  1  0
  2  1  2  0
  3  4  1  0
  3  2  1  0
  4  5  2  0
  5  1  1  0
  6 13  1  0
  7  6  2  0
  8  7  1  0
  9  8  2  0
  9 10  1  0
 10  6  1  0
 11 16  2  0
 12 11  1  0
 13 12  2  0
 13 14  1  0
 14 15  2  0
 15 16  1  0
 17  4  1  0
 17 21  1  0
 18 17  2  0
 19 18  1  0
 19 20  2  0
 20 22  1  0
 20 21  1  0
 23 24  2  0
 23 22  1  0
 25 24  1  0
 26 27  1  0
 26 25  2  0
 27 23  1  0
  7 28  1  0
  8 29  1  0
 11 30  1  0
 12 31  1  0
 15 32  1  0
 18 33  1  0
 19 34  1  0
 24 35  1  0
 25 36  1  0
 26 37  1  0
M  ISO  8  28  14  29  14  30  14  31  14  32  14  33  14  34  14  35  14
M  ISO  2  36  14  37  14
M  END
>  <minimizedAffinity>  (1) 
-6.20183039

>  <minimizedRMSD>  (1) 
0.735227108

$$$$
