
     RDKit          3D

 33 36  0  0  0  0  0  0  0  0999 V2000
   46.8150   34.7740   42.1260 C   0  0  0  0  0  0  0  0  0  0  0  0
   48.0040   35.3460   41.8760 C   0  0  0  0  0  0  0  0  0  0  0  0
   48.6020   35.1210   40.6710 C   0  0  0  0  0  0  0  0  0  0  0  0
   47.8720   34.2800   39.7960 C   0  0  0  0  0  0  0  0  0  0  0  0
   46.3700   33.8530   40.7370 S   0  0  0  0  0  0  0  0  0  0  0  0
   44.4570   35.9420   44.8430 C   0  0  0  0  0  0  0  0  0  0  0  0
   45.1250   35.9500   43.6030 C   0  0  0  0  0  0  0  0  0  0  0  0
   46.0370   34.9080   43.3610 C   0  0  0  0  0  0  0  0  0  0  0  0
   46.2250   33.9780   44.3000 N   0  0  0  0  0  0  0  0  0  0  0  0
   45.5650   34.0110   45.4690 C   0  0  0  0  0  0  0  0  0  0  0  0
   44.6840   34.9900   45.7380 N   0  0  0  0  0  0  0  0  0  0  0  0
   48.2780   33.8600   38.4170 C   0  0  0  0  0  0  0  0  0  0  0  0
   48.0740   34.5050   37.2920 N   0  0  0  0  0  0  0  0  0  0  0  0
   48.6180   33.7300   36.3700 O   0  0  0  0  0  0  0  0  0  0  0  0
   49.1370   32.6440   36.9130 C   0  0  0  0  0  0  0  0  0  0  0  0
   48.9300   32.7030   38.2570 N   0  0  0  0  0  0  0  0  0  0  0  0
   49.8230   31.5440   36.2570 C   0  0  0  0  0  0  0  0  0  0  0  0
   49.4120   30.6980   35.2780 C   0  0  0  0  0  0  0  0  0  0  0  0
   50.4890   29.8370   35.0380 C   0  0  0  0  0  0  0  0  0  0  0  0
   51.5050   30.2160   35.8990 C   0  0  0  0  0  0  0  0  0  0  0  0
   51.0880   31.2110   36.5950 O   0  0  0  0  0  0  0  0  0  0  0  0
   53.1180   29.4940   36.0560 S   0  0  0  0  0  0  0  0  0  0  0  0
   53.2440   28.3810   37.4710 C   0  0  0  0  0  0  0  0  0  0  0  0
   48.4872   35.9849   42.6299 H   0  0  0  0  0  0  0  0  0  0  0  0
   49.5744   35.5582   40.4002 H   0  0  0  0  0  0  0  0  0  0  0  0
   43.7346   36.7390   45.0730 H   0  0  0  0  0  0  0  0  0  0  0  0
   44.9411   36.7370   42.8568 H   0  0  0  0  0  0  0  0  0  0  0  0
   45.7479   33.2257   46.2172 H   0  0  0  0  0  0  0  0  0  0  0  0
   48.4331   30.6907   34.7762 H   0  0  0  0  0  0  0  0  0  0  0  0
   50.5220   29.0167   34.3059 H   0  0  0  0  0  0  0  0  0  0  0  0
   53.1781   28.9629   38.4022 H   0  0  0  0  0  0  0  0  0  0  0  0
   52.4229   27.6498   37.4366 H   0  0  0  0  0  0  0  0  0  0  0  0
   54.2078   27.8519   37.4366 H   0  0  0  0  0  0  0  0  0  0  0  0
  1  8  1  0
  2  1  2  0
  3  2  1  0
  4  3  2  0
  4  5  1  0
  5  1  1  0
  6 11  2  0
  7  6  1  0
  8  7  2  0
  8  9  1  0
  9 10  2  0
 10 11  1  0
 12  4  1  0
 13 12  2  0
 14 15  1  0
 14 13  1  0
 15 16  2  0
 16 12  1  0
 17 21  1  0
 17 15  1  0
 18 17  2  0
 19 18  1  0
 19 20  2  0
 20 22  1  0
 20 21  1  0
 22 23  1  0
  2 24  1  0
  3 25  1  0
  6 26  1  0
  7 27  1  0
 10 28  1  0
 18 29  1  0
 19 30  1  0
 23 31  1  0
 23 32  1  0
 23 33  1  0
M  ISO  8  24  14  25  14  26  14  27  14  28  14  29  14  30  14  31   8
M  ISO  2  32   8  33   8
M  END
>  <minimizedAffinity>  (1) 
-5.6281476

>  <minimizedRMSD>  (1) 
0.0607520267

$$$$
