
     RDKit          3D

 33 36  0  0  0  0  0  0  0  0999 V2000
   48.2550   33.7910   38.3760 C   0  0  0  0  0  0  0  0  0  0  0  0
   48.2850   34.5140   37.2820 N   0  0  0  0  0  0  0  0  0  0  0  0
   48.7070   33.6730   36.3510 O   0  0  0  0  0  0  0  0  0  0  0  0
   48.9280   32.4740   36.8620 C   0  0  0  0  0  0  0  0  0  0  0  0
   48.6360   32.5400   38.1840 N   0  0  0  0  0  0  0  0  0  0  0  0
   46.7960   34.7810   42.0660 C   0  0  0  0  0  0  0  0  0  0  0  0
   47.9900   35.3410   41.8090 C   0  0  0  0  0  0  0  0  0  0  0  0
   48.5870   35.0870   40.6050 C   0  0  0  0  0  0  0  0  0  0  0  0
   47.8500   34.2370   39.7470 C   0  0  0  0  0  0  0  0  0  0  0  0
   46.3420   33.8400   40.6950 S   0  0  0  0  0  0  0  0  0  0  0  0
   44.4620   36.0210   44.7690 C   0  0  0  0  0  0  0  0  0  0  0  0
   45.1360   35.9980   43.5320 C   0  0  0  0  0  0  0  0  0  0  0  0
   46.0200   34.9460   43.2990 C   0  0  0  0  0  0  0  0  0  0  0  0
   46.1860   34.0200   44.2470 N   0  0  0  0  0  0  0  0  0  0  0  0
   45.5250   34.0790   45.4140 C   0  0  0  0  0  0  0  0  0  0  0  0
   44.6720   35.0650   45.6750 N   0  0  0  0  0  0  0  0  0  0  0  0
   49.3940   31.2800   36.1900 C   0  0  0  0  0  0  0  0  0  0  0  0
   48.7720   30.1040   35.9340 C   0  0  0  0  0  0  0  0  0  0  0  0
   49.7110   29.3170   35.2530 C   0  0  0  0  0  0  0  0  0  0  0  0
   50.8570   30.0590   35.1320 C   0  0  0  0  0  0  0  0  0  0  0  0
   50.6450   31.1970   35.6850 O   0  0  0  0  0  0  0  0  0  0  0  0
   52.3910   29.5990   34.3630 S   0  0  0  0  0  0  0  0  0  0  0  0
   52.5050   30.3900   32.7340 C   0  0  0  0  0  0  0  0  0  0  0  0
   51.6240   31.4760   32.7090 F   0  0  0  0  0  0  0  0  0  0  0  0
   52.0850   29.4820   31.7620 F   0  0  0  0  0  0  0  0  0  0  0  0
   53.7720   30.8120   32.4330 F   0  0  0  0  0  0  0  0  0  0  0  0
   48.4772   35.9902   42.5514 H   0  0  0  0  0  0  0  0  0  0  0  0
   49.5632   35.5102   40.3257 H   0  0  0  0  0  0  0  0  0  0  0  0
   43.7559   36.8351   44.9897 H   0  0  0  0  0  0  0  0  0  0  0  0
   44.9706   36.7815   42.7778 H   0  0  0  0  0  0  0  0  0  0  0  0
   45.6923   33.2965   46.1688 H   0  0  0  0  0  0  0  0  0  0  0  0
   47.7431   29.8246   36.2046 H   0  0  0  0  0  0  0  0  0  0  0  0
   49.5565   28.2924   34.8837 H   0  0  0  0  0  0  0  0  0  0  0  0
  1  9  1  0
  2  1  2  0
  3  4  1  0
  3  2  1  0
  4  5  2  0
  5  1  1  0
  6 13  1  0
  7  6  2  0
  8  7  1  0
  9  8  2  0
  9 10  1  0
 10  6  1  0
 11 16  2  0
 12 11  1  0
 13 12  2  0
 13 14  1  0
 14 15  2  0
 15 16  1  0
 17  4  1  0
 18 17  2  0
 19 18  1  0
 20 19  2  0
 20 21  1  0
 21 17  1  0
 22 20  1  0
 23 22  1  0
 24 23  1  0
 25 23  1  0
 26 23  1  0
  7 27  1  0
  8 28  1  0
 11 29  1  0
 12 30  1  0
 15 31  1  0
 18 32  1  0
 19 33  1  0
M  ISO  7  27  14  28  14  29  14  30  14  31  14  32  14  33  14
M  END
>  <minimizedAffinity>  (1) 
-5.98344231

>  <minimizedRMSD>  (1) 
1.56653941

$$$$
