
     RDKit          3D

 36 39  0  0  0  0  0  0  0  0999 V2000
   46.8010   34.7650   42.1210 C   0  0  0  0  0  0  0  0  0  0  0  0
   47.9870   35.3440   41.8530 C   0  0  0  0  0  0  0  0  0  0  0  0
   48.5880   35.1050   40.6590 C   0  0  0  0  0  0  0  0  0  0  0  0
   47.8600   34.2350   39.7970 C   0  0  0  0  0  0  0  0  0  0  0  0
   46.3710   33.8150   40.7460 S   0  0  0  0  0  0  0  0  0  0  0  0
   44.4530   35.9720   44.8210 C   0  0  0  0  0  0  0  0  0  0  0  0
   45.1250   35.9570   43.5860 C   0  0  0  0  0  0  0  0  0  0  0  0
   46.0280   34.9130   43.3470 C   0  0  0  0  0  0  0  0  0  0  0  0
   46.2040   33.9840   44.2980 N   0  0  0  0  0  0  0  0  0  0  0  0
   45.5380   34.0420   45.4600 C   0  0  0  0  0  0  0  0  0  0  0  0
   44.6750   35.0140   45.7260 N   0  0  0  0  0  0  0  0  0  0  0  0
   48.2870   33.8030   38.4290 C   0  0  0  0  0  0  0  0  0  0  0  0
   47.9860   34.3600   37.2790 N   0  0  0  0  0  0  0  0  0  0  0  0
   48.6020   33.6130   36.3880 O   0  0  0  0  0  0  0  0  0  0  0  0
   49.2620   32.6240   36.9660 C   0  0  0  0  0  0  0  0  0  0  0  0
   49.0700   32.7280   38.3050 N   0  0  0  0  0  0  0  0  0  0  0  0
   50.0640   31.5860   36.3420 C   0  0  0  0  0  0  0  0  0  0  0  0
   49.9780   31.0410   35.1090 C   0  0  0  0  0  0  0  0  0  0  0  0
   50.9920   30.0870   35.0300 C   0  0  0  0  0  0  0  0  0  0  0  0
   51.6460   30.1080   36.2400 C   0  0  0  0  0  0  0  0  0  0  0  0
   51.0750   30.9940   36.9760 O   0  0  0  0  0  0  0  0  0  0  0  0
   53.0480   29.1260   36.7930 S   0  0  0  0  0  0  0  0  0  0  0  0
   54.4940   29.8010   35.8900 C   0  0  0  0  0  0  0  0  0  0  0  0
   55.3190   30.6000   36.9060 C   0  0  0  0  0  0  0  0  0  0  0  0
   48.4637   36.0034   42.5933 H   0  0  0  0  0  0  0  0  0  0  0  0
   49.5563   35.5464   40.3805 H   0  0  0  0  0  0  0  0  0  0  0  0
   43.7390   36.7785   45.0440 H   0  0  0  0  0  0  0  0  0  0  0  0
   44.9476   36.7388   42.8328 H   0  0  0  0  0  0  0  0  0  0  0  0
   45.7121   33.2610   46.2149 H   0  0  0  0  0  0  0  0  0  0  0  0
   49.2524   31.2985   34.3234 H   0  0  0  0  0  0  0  0  0  0  0  0
   51.2236   29.4435   34.1685 H   0  0  0  0  0  0  0  0  0  0  0  0
   55.0973   28.9805   35.4742 H   0  0  0  0  0  0  0  0  0  0  0  0
   54.1734   30.4393   35.0535 H   0  0  0  0  0  0  0  0  0  0  0  0
   55.0227   30.3130   37.9257 H   0  0  0  0  0  0  0  0  0  0  0  0
   56.3879   30.3849   36.7606 H   0  0  0  0  0  0  0  0  0  0  0  0
   55.1382   31.6753   36.7606 H   0  0  0  0  0  0  0  0  0  0  0  0
  1  8  1  0
  2  1  2  0
  3  2  1  0
  4  3  2  0
  4  5  1  0
  5  1  1  0
  6 11  2  0
  7  6  1  0
  8  7  2  0
  8  9  1  0
  9 10  2  0
 10 11  1  0
 12  4  1  0
 13 12  2  0
 14 15  1  0
 14 13  1  0
 15 16  2  0
 16 12  1  0
 17 15  1  0
 17 21  1  0
 18 17  2  0
 19 18  1  0
 19 20  2  0
 20 22  1  0
 20 21  1  0
 23 22  1  0
 23 24  1  0
  2 25  1  0
  3 26  1  0
  6 27  1  0
  7 28  1  0
 10 29  1  0
 18 30  1  0
 19 31  1  0
 23 32  1  0
 23 33  1  0
 24 34  1  0
 24 35  1  0
 24 36  1  0
M  ISO  8  25  14  26  14  27  14  28  14  29  14  30  14  31  14  32   8
M  ISO  4  33   8  34   8  35   8  36   8
M  END
>  <minimizedAffinity>  (1) 
-5.62313318

>  <minimizedRMSD>  (1) 
0.454217046

$$$$
