
     RDKit          3D

 18 19  0  0  0  0  0  0  0  0999 V2000
   44.4480   36.0910   44.4700 C   0  0  0  0  0  0  0  0  0  0  0  0
   44.8610   35.7430   43.1580 C   0  0  0  0  0  0  0  0  0  0  0  0
   45.5460   34.5390   42.9980 C   0  0  0  0  0  0  0  0  0  0  0  0
   45.7780   33.7710   44.0940 N   0  0  0  0  0  0  0  0  0  0  0  0
   45.3660   34.1390   45.3350 C   0  0  0  0  0  0  0  0  0  0  0  0
   44.7050   35.2890   45.5280 N   0  0  0  0  0  0  0  0  0  0  0  0
   45.6000   33.3500   46.4860 N   0  0  0  0  0  0  0  0  0  0  0  0
   44.9590   33.2240   47.6460 N   0  0  0  0  0  0  0  0  0  0  0  0
   45.6100   32.3170   48.4220 C   0  0  0  0  0  0  0  0  0  0  0  0
   46.7010   31.8530   47.7310 C   0  0  0  0  0  0  0  0  0  0  0  0
   46.6840   32.5150   46.5050 C   0  0  0  0  0  0  0  0  0  0  0  0
   47.6420   32.2940   45.5440 O   0  0  0  0  0  0  0  0  0  0  0  0
   43.9063   37.0349   44.6302 H   0  0  0  0  0  0  0  0  0  0  0  0
   44.6490   36.3978   42.3000 H   0  0  0  0  0  0  0  0  0  0  0  0
   45.8915   34.2177   42.0043 H   0  0  0  0  0  0  0  0  0  0  0  0
   45.3120   32.0070   49.4345 H   0  0  0  0  0  0  0  0  0  0  0  0
   47.4373   31.1113   48.0742 H   0  0  0  0  0  0  0  0  0  0  0  0
   48.3731   31.6482   45.7131 H   0  0  0  0  0  0  0  0  0  0  0  0
  1  6  2  0
  2  1  1  0
  3  2  2  0
  3  4  1  0
  4  5  2  0
  5  6  1  0
  5  7  1  0
  7 11  1  0
  7  8  1  0
  8  9  2  0
 10  9  1  0
 11 10  2  0
 12 11  1  0
  1 13  1  0
  2 14  1  0
  3 15  1  0
  9 16  1  0
 10 17  1  0
 12 18  1  0
M  ISO  6  13  14  14  14  15  14  16  14  17  14  18   3
M  END
>  <minimizedAffinity>  (1) 
-4.2502265

>  <minimizedRMSD>  (1) 
0.536957979

$$$$
