
     RDKit          3D

 19 20  0  0  0  0  0  0  0  0999 V2000
   44.5140   36.0230   44.4950 C   0  0  0  0  0  0  0  0  0  0  0  0
   44.6730   35.5870   43.1680 C   0  0  0  0  0  0  0  0  0  0  0  0
   45.1490   34.2890   42.9700 C   0  0  0  0  0  0  0  0  0  0  0  0
   45.4400   33.5060   44.0480 N   0  0  0  0  0  0  0  0  0  0  0  0
   45.2680   33.9740   45.3140 C   0  0  0  0  0  0  0  0  0  0  0  0
   44.8160   35.2070   45.5320 N   0  0  0  0  0  0  0  0  0  0  0  0
   45.5610   33.1840   46.4590 N   0  0  0  0  0  0  0  0  0  0  0  0
   45.0990   33.1800   47.6910 N   0  0  0  0  0  0  0  0  0  0  0  0
   45.6930   32.2330   48.4220 C   0  0  0  0  0  0  0  0  0  0  0  0
   46.5910   31.5890   47.6130 C   0  0  0  0  0  0  0  0  0  0  0  0
   46.4940   32.2050   46.3730 C   0  0  0  0  0  0  0  0  0  0  0  0
   47.3560   31.7130   45.2880 C   0  0  0  0  0  0  0  0  0  0  0  0
   47.8440   30.5690   45.1580 O   0  0  0  0  0  0  0  0  0  0  0  0
   44.1401   37.0384   44.6928 H   0  0  0  0  0  0  0  0  0  0  0  0
   44.4318   36.2428   42.3184 H   0  0  0  0  0  0  0  0  0  0  0  0
   45.2884   33.9005   41.9504 H   0  0  0  0  0  0  0  0  0  0  0  0
   45.4966   32.0107   49.4813 H   0  0  0  0  0  0  0  0  0  0  0  0
   47.2530   30.7550   47.8892 H   0  0  0  0  0  0  0  0  0  0  0  0
   47.6006   32.4371   44.4969 H   0  0  0  0  0  0  0  0  0  0  0  0
  1  6  2  0
  2  1  1  0
  3  2  2  0
  3  4  1  0
  4  5  2  0
  5  6  1  0
  5  7  1  0
  7  8  1  0
  8  9  2  0
 10  9  1  0
 11  7  1  0
 11 10  2  0
 12 11  1  0
 13 12  2  0
  1 14  1  0
  2 15  1  0
  3 16  1  0
  9 17  1  0
 10 18  1  0
 12 19  1  0
M  ISO  6  14  14  15  14  16  14  17  14  18  14  19   6
M  END
>  <minimizedAffinity>  (1) 
-3.99542022

>  <minimizedRMSD>  (1) 
0.92672801

$$$$
