
     RDKit          3D

 23 24  0  0  0  0  0  0  0  0999 V2000
   44.5090   35.9870   44.5030 C   0  0  0  0  0  0  0  0  0  0  0  0
   44.7020   35.5390   43.1680 C   0  0  0  0  0  0  0  0  0  0  0  0
   45.2140   34.2330   42.9790 C   0  0  0  0  0  0  0  0  0  0  0  0
   45.4890   33.4930   44.0820 N   0  0  0  0  0  0  0  0  0  0  0  0
   45.2880   33.9640   45.3400 C   0  0  0  0  0  0  0  0  0  0  0  0
   44.8090   35.1850   45.5500 N   0  0  0  0  0  0  0  0  0  0  0  0
   45.5850   33.1700   46.4940 N   0  0  0  0  0  0  0  0  0  0  0  0
   45.0740   33.1920   47.7270 N   0  0  0  0  0  0  0  0  0  0  0  0
   45.6940   32.2290   48.4570 C   0  0  0  0  0  0  0  0  0  0  0  0
   46.6220   31.5910   47.6440 C   0  0  0  0  0  0  0  0  0  0  0  0
   46.5430   32.1990   46.3930 C   0  0  0  0  0  0  0  0  0  0  0  0
   47.3550   31.8430   45.1990 C   0  0  0  0  0  0  0  0  0  0  0  0
   47.6690   30.3660   45.2690 C   0  0  0  0  0  0  0  0  0  0  0  0
   44.1116   36.9962   44.6865 H   0  0  0  0  0  0  0  0  0  0  0  0
   44.4617   36.1852   42.3109 H   0  0  0  0  0  0  0  0  0  0  0  0
   45.3836   33.8308   41.9693 H   0  0  0  0  0  0  0  0  0  0  0  0
   45.4949   31.9942   49.5130 H   0  0  0  0  0  0  0  0  0  0  0  0
   47.2898   30.7657   47.9320 H   0  0  0  0  0  0  0  0  0  0  0  0
   48.2895   32.4233   45.1969 H   0  0  0  0  0  0  0  0  0  0  0  0
   46.7991   32.0715   44.2777 H   0  0  0  0  0  0  0  0  0  0  0  0
   47.7352   30.0547   46.3220 H   0  0  0  0  0  0  0  0  0  0  0  0
   46.8716   29.7975   44.7680 H   0  0  0  0  0  0  0  0  0  0  0  0
   48.6287   30.1710   44.7680 H   0  0  0  0  0  0  0  0  0  0  0  0
  1  6  2  0
  2  1  1  0
  3  2  2  0
  3  4  1  0
  4  5  2  0
  5  6  1  0
  5  7  1  0
  7  8  1  0
  8  9  2  0
 10  9  1  0
 11  7  1  0
 11 10  2  0
 12 13  1  0
 12 11  1  0
  1 14  1  0
  2 15  1  0
  3 16  1  0
  9 17  1  0
 10 18  1  0
 12 19  1  0
 12 20  1  0
 13 21  1  0
 13 22  1  0
 13 23  1  0
M  ISO  8  14  14  15  14  16  14  17  14  18  14  19   8  20   8  21   8
M  ISO  2  22   8  23   8
M  END
>  <minimizedAffinity>  (1) 
-4.07347441

>  <minimizedRMSD>  (1) 
0.853228986

$$$$
