
     RDKit          3D

 32 34  0  0  0  0  0  0  0  0999 V2000
   44.5390   35.8340   44.9310 C   0  0  0  0  0  0  0  0  0  0  0  0
   44.4830   36.1330   43.5650 C   0  0  0  0  0  0  0  0  0  0  0  0
   45.0370   35.2000   42.6690 C   0  0  0  0  0  0  0  0  0  0  0  0
   45.6000   34.0610   43.1540 N   0  0  0  0  0  0  0  0  0  0  0  0
   45.6320   33.8140   44.4810 C   0  0  0  0  0  0  0  0  0  0  0  0
   45.1100   34.6880   45.3420 N   0  0  0  0  0  0  0  0  0  0  0  0
   46.2100   32.6330   45.0240 N   0  0  0  0  0  0  0  0  0  0  0  0
   46.0000   31.9870   46.1580 N   0  0  0  0  0  0  0  0  0  0  0  0
   46.8160   30.9020   46.2040 C   0  0  0  0  0  0  0  0  0  0  0  0
   47.5690   30.8660   45.0520 C   0  0  0  0  0  0  0  0  0  0  0  0
   47.1690   31.9750   44.3150 C   0  0  0  0  0  0  0  0  0  0  0  0
   47.8010   32.1780   43.0520 N   0  0  0  0  0  0  0  0  0  0  0  0
   48.8600   33.1820   43.0040 C   0  0  0  0  0  0  0  0  0  0  0  0
   49.7460   32.9880   41.7950 C   0  0  0  0  0  0  0  0  0  0  0  0
   48.9190   32.9620   40.5560 C   0  0  0  0  0  0  0  0  0  0  0  0
   47.7340   32.0620   40.5830 C   0  0  0  0  0  0  0  0  0  0  0  0
   47.4100   31.4240   41.8830 C   0  0  0  0  0  0  0  0  0  0  0  0
   44.1170   36.5346   45.6666 H   0  0  0  0  0  0  0  0  0  0  0  0
   44.0222   37.0645   43.2044 H   0  0  0  0  0  0  0  0  0  0  0  0
   45.0149   35.3903   41.5858 H   0  0  0  0  0  0  0  0  0  0  0  0
   46.8668   30.1727   47.0259 H   0  0  0  0  0  0  0  0  0  0  0  0
   48.3264   30.1184   44.7737 H   0  0  0  0  0  0  0  0  0  0  0  0
   48.4040   34.1819   42.9573 H   0  0  0  0  0  0  0  0  0  0  0  0
   49.4782   33.0781   43.9079 H   0  0  0  0  0  0  0  0  0  0  0  0
   50.4666   33.8170   41.7347 H   0  0  0  0  0  0  0  0  0  0  0  0
   50.2832   32.0329   41.8906 H   0  0  0  0  0  0  0  0  0  0  0  0
   49.5660   32.6422   39.7258 H   0  0  0  0  0  0  0  0  0  0  0  0
   48.5167   33.9798   40.4458 H   0  0  0  0  0  0  0  0  0  0  0  0
   46.8593   32.6536   40.2751 H   0  0  0  0  0  0  0  0  0  0  0  0
   47.9875   31.2307   39.9087 H   0  0  0  0  0  0  0  0  0  0  0  0
   46.3215   31.2707   41.9251 H   0  0  0  0  0  0  0  0  0  0  0  0
   47.9868   30.4879   41.9161 H   0  0  0  0  0  0  0  0  0  0  0  0
  1  6  2  0
  2  1  1  0
  3  4  1  0
  3  2  2  0
  4  5  2  0
  5  7  1  0
  5  6  1  0
  7  8  1  0
  8  9  2  0
 10  9  1  0
 11  7  1  0
 11 10  2  0
 12 11  1  0
 13 12  1  0
 14 13  1  0
 15 16  1  0
 15 14  1  0
 16 17  1  0
 17 12  1  0
  1 18  1  0
  2 19  1  0
  3 20  1  0
  9 21  1  0
 10 22  1  0
 13 23  1  0
 13 24  1  0
 14 25  1  0
 14 26  1  0
 15 27  1  0
 15 28  1  0
 16 29  1  0
 16 30  1  0
 17 31  1  0
 17 32  1  0
M  ISO  8  18  14  19  14  20  14  21  14  22  14  23  13  24  13  25  13
M  ISO  7  26  13  27  13  28  13  29  13  30  13  31  13  32  13
M  END
>  <minimizedAffinity>  (1) 
-4.16058016

>  <minimizedRMSD>  (1) 
2.90141869

$$$$
