
     RDKit          3D

 40 43  0  0  1  0  0  0  0  0999 V2000
   48.2610   32.6880   42.7810 C   0  0  2  0  0  0  0  0  0  0  0  0
   44.6050   35.6110   45.2300 C   0  0  0  0  0  0  0  0  0  0  0  0
   44.6230   36.2330   43.9830 C   0  0  0  0  0  0  0  0  0  0  0  0
   45.2830   35.5730   42.9340 C   0  0  0  0  0  0  0  0  0  0  0  0
   45.8520   34.3810   43.2270 N   0  0  0  0  0  0  0  0  0  0  0  0
   45.8360   33.7920   44.4070 C   0  0  0  0  0  0  0  0  0  0  0  0
   45.2060   34.4240   45.4030 N   0  0  0  0  0  0  0  0  0  0  0  0
   46.4420   32.5420   44.6600 N   0  0  0  0  0  0  0  0  0  0  0  0
   46.1350   31.6100   45.5790 N   0  0  0  0  0  0  0  0  0  0  0  0
   46.9910   30.5800   45.4400 C   0  0  0  0  0  0  0  0  0  0  0  0
   47.8470   30.8830   44.4070 C   0  0  0  0  0  0  0  0  0  0  0  0
   47.4930   32.1400   43.9100 C   0  0  0  0  0  0  0  0  0  0  0  0
   48.7100   34.0980   43.1420 C   0  0  0  0  0  0  0  0  0  0  0  0
   47.4570   32.7470   41.5140 C   0  0  0  0  0  0  0  0  0  0  0  0
   48.3710   32.0430   40.4870 C   0  0  0  0  0  0  0  0  0  0  0  0
   49.0630   30.9180   40.7420 N   0  0  0  0  0  0  0  0  0  0  0  0
   49.8500   30.3240   39.8380 C   0  0  0  0  0  0  0  0  0  0  0  0
   49.9820   30.8470   38.6040 N   0  0  0  0  0  0  0  0  0  0  0  0
   49.2990   31.9680   38.3340 C   0  0  0  0  0  0  0  0  0  0  0  0
   49.4720   32.4660   37.0430 C   0  0  0  0  0  0  0  0  0  0  0  0
   48.7970   33.6280   36.6790 C   0  0  0  0  0  0  0  0  0  0  0  0
   47.9800   34.2660   37.5830 C   0  0  0  0  0  0  0  0  0  0  0  0
   47.8120   33.7630   38.8720 C   0  0  0  0  0  0  0  0  0  0  0  0
   48.4780   32.6120   39.2350 C   0  0  0  0  0  0  0  0  0  0  0  0
   49.1178   32.0222   42.6005 H   0  0  0  0  0  0  0  0  0  0  0  0
   44.0958   36.0954   46.0762 H   0  0  0  0  0  0  0  0  0  0  0  0
   44.1370   37.2072   43.8260 H   0  0  0  0  0  0  0  0  0  0  0  0
   45.3349   36.0041   41.9233 H   0  0  0  0  0  0  0  0  0  0  0  0
   47.0035   29.6609   46.0443 H   0  0  0  0  0  0  0  0  0  0  0  0
   48.6656   30.2480   44.0374 H   0  0  0  0  0  0  0  0  0  0  0  0
   48.7435   34.2032   44.2364 H   0  0  0  0  0  0  0  0  0  0  0  0
   49.7112   34.2820   42.7251 H   0  0  0  0  0  0  0  0  0  0  0  0
   47.9996   34.8271   42.7251 H   0  0  0  0  0  0  0  0  0  0  0  0
   46.5029   32.2112   41.6263 H   0  0  0  0  0  0  0  0  0  0  0  0
   47.1859   33.7720   41.2209 H   0  0  0  0  0  0  0  0  0  0  0  0
   50.3918   29.4043   40.1037 H   0  0  0  0  0  0  0  0  0  0  0  0
   50.1287   31.9510   36.3265 H   0  0  0  0  0  0  0  0  0  0  0  0
   48.9175   34.0372   35.6651 H   0  0  0  0  0  0  0  0  0  0  0  0
   47.4528   35.1843   37.2851 H   0  0  0  0  0  0  0  0  0  0  0  0
   47.1567   34.2777   39.5901 H   0  0  0  0  0  0  0  0  0  0  0  0
  1 13  1  0
  1 12  1  0
  2  7  2  0
  3  2  1  0
  4  5  1  0
  4  3  2  0
  5  6  2  0
  6  8  1  0
  6  7  1  0
  8  9  1  0
 10  9  2  0
 11 10  1  0
 12 11  2  0
 12  8  1  0
 14  1  1  0
 15 16  2  0
 15 14  1  0
 17 16  1  0
 18 17  2  0
 19 18  1  0
 19 24  2  0
 20 19  1  0
 21 20  2  0
 21 22  1  0
 22 23  2  0
 23 24  1  0
 24 15  1  0
  1 25  1  6
  2 26  1  0
  3 27  1  0
  4 28  1  0
 10 29  1  0
 11 30  1  0
 13 31  1  0
 13 32  1  0
 13 33  1  0
 14 34  1  0
 14 35  1  0
 17 36  1  0
 20 37  1  0
 21 38  1  0
 22 39  1  0
 23 40  1  0
M  ISO  8  25   8  26  14  27  14  28  14  29  14  30  14  31   8  32   8
M  ISO  8  33   8  34   8  35   8  36  14  37  14  38  14  39  14  40  14
M  END
>  <minimizedAffinity>  (1) 
-5.21535683

>  <minimizedRMSD>  (1) 
1.93510187

$$$$
