
     RDKit          3D

 39 41  0  0  1  0  0  0  0  0999 V2000
   48.0020   31.9810   43.3920 C   0  0  2  0  0  0  0  0  0  0  0  0
   44.5800   35.7280   44.8640 C   0  0  0  0  0  0  0  0  0  0  0  0
   44.5870   35.9410   43.4910 C   0  0  0  0  0  0  0  0  0  0  0  0
   45.1770   34.9310   42.6730 C   0  0  0  0  0  0  0  0  0  0  0  0
   45.6790   33.8540   43.3090 N   0  0  0  0  0  0  0  0  0  0  0  0
   45.6650   33.6640   44.6150 C   0  0  0  0  0  0  0  0  0  0  0  0
   45.1110   34.6140   45.3740 N   0  0  0  0  0  0  0  0  0  0  0  0
   46.2030   32.5110   45.2340 N   0  0  0  0  0  0  0  0  0  0  0  0
   45.8610   31.9160   46.3840 N   0  0  0  0  0  0  0  0  0  0  0  0
   46.6530   30.8490   46.5590 C   0  0  0  0  0  0  0  0  0  0  0  0
   47.5140   30.7750   45.4900 C   0  0  0  0  0  0  0  0  0  0  0  0
   47.2170   31.8480   44.6410 C   0  0  0  0  0  0  0  0  0  0  0  0
   48.5160   33.4060   43.3020 C   0  0  0  0  0  0  0  0  0  0  0  0
   47.1910   31.7000   42.1730 C   0  0  0  0  0  0  0  0  0  0  0  0
   47.9520   31.7460   40.9340 N   0  0  0  0  0  0  0  0  0  0  0  0
   47.7570   32.9470   40.3060 C   0  0  0  0  0  0  0  0  0  0  0  0
   48.3990   33.2030   39.0960 C   0  0  0  0  0  0  0  0  0  0  0  0
   48.2720   34.4620   38.3130 C   0  0  0  0  0  0  0  0  0  0  0  0
   49.2290   32.2540   38.5270 C   0  0  0  0  0  0  0  0  0  0  0  0
   49.8310   32.4380   37.4340 O   0  0  0  0  0  0  0  0  0  0  0  0
   49.3820   31.0950   39.1900 N   0  0  0  0  0  0  0  0  0  0  0  0
   48.7650   30.8450   40.3560 C   0  0  0  0  0  0  0  0  0  0  0  0
   48.8380   29.8020   41.0560 O   0  0  0  0  0  0  0  0  0  0  0  0
   48.8197   31.2462   43.4295 H   0  0  0  0  0  0  0  0  0  0  0  0
   44.1356   36.4795   45.5331 H   0  0  0  0  0  0  0  0  0  0  0  0
   44.1548   36.8522   43.0517 H   0  0  0  0  0  0  0  0  0  0  0  0
   45.2198   35.0269   41.5780 H   0  0  0  0  0  0  0  0  0  0  0  0
   46.6198   30.1532   47.4104 H   0  0  0  0  0  0  0  0  0  0  0  0
   48.2921   30.0139   45.3310 H   0  0  0  0  0  0  0  0  0  0  0  0
   48.6611   33.8082   44.3155 H   0  0  0  0  0  0  0  0  0  0  0  0
   49.4746   33.4166   42.7626 H   0  0  0  0  0  0  0  0  0  0  0  0
   47.7849   34.0261   42.7626 H   0  0  0  0  0  0  0  0  0  0  0  0
   46.7525   30.6961   42.2728 H   0  0  0  0  0  0  0  0  0  0  0  0
   46.4284   32.4901   42.1083 H   0  0  0  0  0  0  0  0  0  0  0  0
   47.0976   33.7051   40.7539 H   0  0  0  0  0  0  0  0  0  0  0  0
   48.1859   35.3152   39.0020 H   0  0  0  0  0  0  0  0  0  0  0  0
   49.1617   34.5909   37.6791 H   0  0  0  0  0  0  0  0  0  0  0  0
   47.3745   34.4106   37.6791 H   0  0  0  0  0  0  0  0  0  0  0  0
   49.9955   30.3715   38.7886 H   0  0  0  0  0  0  0  0  0  0  0  0
  1 12  1  0
  2  7  2  0
  3  2  1  0
  4  5  1  0
  4  3  2  0
  5  6  2  0
  6  8  1  0
  6  7  1  0
  8  9  1  0
  9 10  2  0
 11 10  1  0
 12  8  1  0
 12 11  2  0
 13  1  1  0
 14  1  1  0
 15 14  1  0
 16 15  1  0
 17 16  2  0
 18 17  1  0
 19 17  1  0
 19 21  1  0
 20 19  2  0
 21 22  1  0
 22 15  1  0
 22 23  2  0
  1 24  1  1
  2 25  1  0
  3 26  1  0
  4 27  1  0
 10 28  1  0
 11 29  1  0
 13 30  1  0
 13 31  1  0
 13 32  1  0
 14 33  1  0
 14 34  1  0
 16 35  1  0
 18 36  1  0
 18 37  1  0
 18 38  1  0
 21 39  1  0
M  ISO  8  24   8  25  14  26  14  27  14  28  14  29  14  30   8  31   8
M  ISO  8  32   8  33   8  34   8  35  14  36   8  37   8  38   8  39   9
M  END
>  <minimizedAffinity>  (1) 
-4.71875429

>  <minimizedRMSD>  (1) 
4.7603569

$$$$
