
     RDKit          3D

 33 35  0  0  1  0  0  0  0  0999 V2000
   44.4440   35.9670   44.4580 C   0  0  0  0  0  0  0  0  0  0  0  0
   44.2790   35.6650   43.1120 C   0  0  0  0  0  0  0  0  0  0  0  0
   44.6970   34.3870   42.6720 C   0  0  0  0  0  0  0  0  0  0  0  0
   45.2270   33.5630   43.6090 N   0  0  0  0  0  0  0  0  0  0  0  0
   45.3790   33.8600   44.8840 C   0  0  0  0  0  0  0  0  0  0  0  0
   44.9830   35.0750   45.3110 N   0  0  0  0  0  0  0  0  0  0  0  0
   45.9350   32.9660   45.8260 N   0  0  0  0  0  0  0  0  0  0  0  0
   45.7250   32.8640   47.1500 N   0  0  0  0  0  0  0  0  0  0  0  0
   46.4740   31.8610   47.6280 C   0  0  0  0  0  0  0  0  0  0  0  0
   47.1700   31.3210   46.5720 C   0  0  0  0  0  0  0  0  0  0  0  0
   46.8220   32.0320   45.4190 C   0  0  0  0  0  0  0  0  0  0  0  0
   47.4370   31.6300   44.1410 C   0  0  2  0  0  0  0  0  0  0  0  0
   48.0690   32.8500   43.5010 C   0  0  0  0  0  0  0  0  0  0  0  0
   46.4460   31.0570   43.1780 C   0  0  0  0  0  0  0  0  0  0  0  0
   45.9550   29.6830   43.5570 C   0  0  0  0  0  0  0  0  0  0  0  0
   44.9160   29.0500   42.7050 C   0  0  0  0  0  0  0  0  0  0  0  0
   44.5610   29.4800   44.1230 C   0  0  0  0  0  0  0  0  0  0  0  0
   44.1289   36.9517   44.8335 H   0  0  0  0  0  0  0  0  0  0  0  0
   43.8395   36.3928   42.4140 H   0  0  0  0  0  0  0  0  0  0  0  0
   44.5969   34.0772   41.6213 H   0  0  0  0  0  0  0  0  0  0  0  0
   46.5232   31.5295   48.6757 H   0  0  0  0  0  0  0  0  0  0  0  0
   47.8756   30.4788   46.6248 H   0  0  0  0  0  0  0  0  0  0  0  0
   48.1805   30.8507   44.3643 H   0  0  0  0  0  0  0  0  0  0  0  0
   48.4233   33.5340   44.2863 H   0  0  0  0  0  0  0  0  0  0  0  0
   48.9187   32.5376   42.8761 H   0  0  0  0  0  0  0  0  0  0  0  0
   47.3237   33.3638   42.8761 H   0  0  0  0  0  0  0  0  0  0  0  0
   46.9206   30.9949   42.1876 H   0  0  0  0  0  0  0  0  0  0  0  0
   45.5708   31.7233   43.1839 H   0  0  0  0  0  0  0  0  0  0  0  0
   46.9606   29.4094   43.9090 H   0  0  0  0  0  0  0  0  0  0  0  0
   44.5024   29.5985   41.8459 H   0  0  0  0  0  0  0  0  0  0  0  0
   44.8454   28.1084   42.1408 H   0  0  0  0  0  0  0  0  0  0  0  0
   44.3841   28.7250   44.9032 H   0  0  0  0  0  0  0  0  0  0  0  0
   43.7965   30.1244   44.5816 H   0  0  0  0  0  0  0  0  0  0  0  0
  1  6  2  0
  2  1  1  0
  3  2  2  0
  3  4  1  0
  4  5  2  0
  5  6  1  0
  5  7  1  0
  7  8  1  0
  8  9  2  0
 10  9  1  0
 11  7  1  0
 11 10  2  0
 12 11  1  0
 13 12  1  0
 14 15  1  0
 14 12  1  0
 15 17  1  0
 16 15  1  0
 16 17  1  0
  1 18  1  0
  2 19  1  0
  3 20  1  0
  9 21  1  0
 10 22  1  0
 12 23  1  1
 13 24  1  0
 13 25  1  0
 13 26  1  0
 14 27  1  0
 14 28  1  0
 15 29  1  0
 16 30  1  0
 16 31  1  0
 17 32  1  0
 17 33  1  0
M  ISO  8  18  14  19  14  20  14  21  14  22  14  23   8  24   8  25   8
M  ISO  8  26   8  27   8  28   8  29  13  30  13  31  13  32  13  33  13
M  END
>  <minimizedAffinity>  (1) 
-3.74590683

>  <minimizedRMSD>  (1) 
0.361715049

$$$$
