
     RDKit          3D

 38 41  0  0  1  0  0  0  0  0999 V2000
   45.5930   34.8790   43.8410 C   0  0  2  0  0  0  0  0  0  0  0  0
   41.6450   33.4140   40.7030 C   0  0  0  0  0  0  0  0  0  0  0  0
   41.9580   34.6560   40.1440 C   0  0  0  0  0  0  0  0  0  0  0  0
   43.1940   35.2590   40.5240 C   0  0  0  0  0  0  0  0  0  0  0  0
   43.9270   34.5310   41.4010 N   0  0  0  0  0  0  0  0  0  0  0  0
   43.6570   33.3870   41.9290 C   0  0  0  0  0  0  0  0  0  0  0  0
   42.4890   32.8190   41.5690 N   0  0  0  0  0  0  0  0  0  0  0  0
   44.5010   32.7280   42.8320 N   0  0  0  0  0  0  0  0  0  0  0  0
   44.6490   31.4000   43.0440 N   0  0  0  0  0  0  0  0  0  0  0  0
   45.5750   31.2260   44.0010 C   0  0  0  0  0  0  0  0  0  0  0  0
   46.0040   32.4670   44.3860 C   0  0  0  0  0  0  0  0  0  0  0  0
   45.3240   33.4320   43.6450 C   0  0  0  0  0  0  0  0  0  0  0  0
   44.3450   35.5460   44.3450 C   0  0  0  0  0  0  0  0  0  0  0  0
   46.1020   35.5540   42.6390 C   0  0  0  0  0  0  0  0  0  0  0  0
   47.8220   35.1610   42.2380 S   0  0  0  0  0  0  0  0  0  0  0  0
   50.3430   31.5270   40.0440 N   0  0  0  0  0  0  0  0  0  0  0  0
   50.9480   31.9690   41.1730 C   0  0  0  0  0  0  0  0  0  0  0  0
   50.1850   32.9720   41.6960 N   0  0  0  0  0  0  0  0  0  0  0  0
   49.1050   33.1430   40.8760 C   0  0  0  0  0  0  0  0  0  0  0  0
   48.0440   34.0100   40.9420 C   0  0  0  0  0  0  0  0  0  0  0  0
   47.1050   33.9750   39.9950 N   0  0  0  0  0  0  0  0  0  0  0  0
   47.2110   33.0850   38.9850 C   0  0  0  0  0  0  0  0  0  0  0  0
   48.2480   32.2120   38.8910 N   0  0  0  0  0  0  0  0  0  0  0  0
   49.2170   32.2340   39.8480 C   0  0  0  0  0  0  0  0  0  0  0  0
   46.3988   34.9652   44.5848 H   0  0  0  0  0  0  0  0  0  0  0  0
   40.7011   32.9175   40.4337 H   0  0  0  0  0  0  0  0  0  0  0  0
   41.2762   35.1508   39.4367 H   0  0  0  0  0  0  0  0  0  0  0  0
   43.5246   36.2342   40.1371 H   0  0  0  0  0  0  0  0  0  0  0  0
   45.9243   30.2630   44.4017 H   0  0  0  0  0  0  0  0  0  0  0  0
   46.7629   32.6702   45.1559 H   0  0  0  0  0  0  0  0  0  0  0  0
   44.3473   35.5448   45.4450 H   0  0  0  0  0  0  0  0  0  0  0  0
   44.3103   36.5829   43.9795 H   0  0  0  0  0  0  0  0  0  0  0  0
   43.4636   34.9987   43.9795 H   0  0  0  0  0  0  0  0  0  0  0  0
   45.4732   35.2594   41.7859 H   0  0  0  0  0  0  0  0  0  0  0  0
   46.0647   36.6341   42.8440 H   0  0  0  0  0  0  0  0  0  0  0  0
   50.6897   30.7720   39.4351 H   0  0  0  0  0  0  0  0  0  0  0  0
   51.8894   31.5863   41.5941 H   0  0  0  0  0  0  0  0  0  0  0  0
   46.4299   33.0661   38.2107 H   0  0  0  0  0  0  0  0  0  0  0  0
  1 13  1  0
  2  7  2  0
  3  4  2  0
  3  2  1  0
  4  5  1  0
  5  6  2  0
  6  8  1  0
  7  6  1  0
  8  9  1  0
  8 12  1  0
  9 10  2  0
 10 11  1  0
 12  1  1  0
 12 11  2  0
 14  1  1  0
 15 14  1  0
 16 17  1  0
 17 18  2  0
 19 20  2  0
 19 18  1  0
 20 15  1  0
 21 20  1  0
 22 21  2  0
 23 22  1  0
 23 24  2  0
 24 16  1  0
 24 19  1  0
  1 25  1  1
  2 26  1  0
  3 27  1  0
  4 28  1  0
 10 29  1  0
 11 30  1  0
 13 31  1  0
 13 32  1  0
 13 33  1  0
 14 34  1  0
 14 35  1  0
 16 36  1  0
 17 37  1  0
 22 38  1  0
M  ISO  8  25   8  26  14  27  14  28  14  29  14  30  14  31   8  32   8
M  ISO  6  33   8  34   8  35   8  36   9  37  14  38  14
M  END
>  <minimizedAffinity>  (1) 
-4.85105038

>  <minimizedRMSD>  (1) 
6.09308195

$$$$
