
     RDKit          3D

 37 39  0  0  1  0  0  0  0  0999 V2000
   47.5010   31.7570   44.1890 C   0  0  2  0  0  0  0  0  0  0  0  0
   44.3400   35.9660   44.1740 C   0  0  0  0  0  0  0  0  0  0  0  0
   44.2080   35.5590   42.8390 C   0  0  0  0  0  0  0  0  0  0  0  0
   44.6800   34.2560   42.5090 C   0  0  0  0  0  0  0  0  0  0  0  0
   45.2050   33.5640   43.5540 N   0  0  0  0  0  0  0  0  0  0  0  0
   45.3340   33.9230   44.7810 C   0  0  0  0  0  0  0  0  0  0  0  0
   44.8850   35.1590   45.0870 N   0  0  0  0  0  0  0  0  0  0  0  0
   45.8960   33.1180   45.7760 N   0  0  0  0  0  0  0  0  0  0  0  0
   45.6500   33.0960   47.0970 N   0  0  0  0  0  0  0  0  0  0  0  0
   46.4260   32.1510   47.6580 C   0  0  0  0  0  0  0  0  0  0  0  0
   47.1580   31.5870   46.6640 C   0  0  0  0  0  0  0  0  0  0  0  0
   46.8370   32.1890   45.4480 C   0  0  0  0  0  0  0  0  0  0  0  0
   48.0540   32.9640   43.5020 C   0  0  0  0  0  0  0  0  0  0  0  0
   46.5680   31.0290   43.2970 C   0  0  0  0  0  0  0  0  0  0  0  0
   46.4960   29.2410   43.5520 S   0  0  0  0  0  0  0  0  0  0  0  0
   45.9540   28.7110   45.1340 C   0  0  0  0  0  0  0  0  0  0  0  0
   46.8210   27.9270   45.8790 C   0  0  0  0  0  0  0  0  0  0  0  0
   46.4870   27.4150   47.1380 C   0  0  0  0  0  0  0  0  0  0  0  0
   45.2240   27.7080   47.6650 C   0  0  0  0  0  0  0  0  0  0  0  0
   44.3980   28.5060   46.8580 C   0  0  0  0  0  0  0  0  0  0  0  0
   44.7310   29.0060   45.6230 C   0  0  0  0  0  0  0  0  0  0  0  0
   48.3139   31.0586   44.4367 H   0  0  0  0  0  0  0  0  0  0  0  0
   43.9894   36.9647   44.4734 H   0  0  0  0  0  0  0  0  0  0  0  0
   43.7597   36.2167   42.0798 H   0  0  0  0  0  0  0  0  0  0  0  0
   44.6240   33.8435   41.4908 H   0  0  0  0  0  0  0  0  0  0  0  0
   46.4608   31.8848   48.7247 H   0  0  0  0  0  0  0  0  0  0  0  0
   47.8921   30.7787   46.7973 H   0  0  0  0  0  0  0  0  0  0  0  0
   48.3882   33.6934   44.2546 H   0  0  0  0  0  0  0  0  0  0  0  0
   48.9069   32.6693   42.8729 H   0  0  0  0  0  0  0  0  0  0  0  0
   47.2739   33.4175   42.8729 H   0  0  0  0  0  0  0  0  0  0  0  0
   46.8783   31.2122   42.2577 H   0  0  0  0  0  0  0  0  0  0  0  0
   45.5630   31.4110   43.5296 H   0  0  0  0  0  0  0  0  0  0  0  0
   47.8132   27.6976   45.4632 H   0  0  0  0  0  0  0  0  0  0  0  0
   47.2013   26.7961   47.7008 H   0  0  0  0  0  0  0  0  0  0  0  0
   44.8995   27.3368   48.6483 H   0  0  0  0  0  0  0  0  0  0  0  0
   43.3992   28.7517   47.2479 H   0  0  0  0  0  0  0  0  0  0  0  0
   44.0247   29.6261   45.0515 H   0  0  0  0  0  0  0  0  0  0  0  0
  1 12  1  0
  2  7  2  0
  3  2  1  0
  4  3  2  0
  4  5  1  0
  5  6  2  0
  6  7  1  0
  6  8  1  0
  8  9  1  0
  9 10  2  0
 11 10  1  0
 12  8  1  0
 12 11  2  0
 13  1  1  0
 14 15  1  0
 14  1  1  0
 15 16  1  0
 16 21  1  0
 16 17  2  0
 17 18  1  0
 18 19  2  0
 20 19  1  0
 21 20  2  0
  1 22  1  1
  2 23  1  0
  3 24  1  0
  4 25  1  0
 10 26  1  0
 11 27  1  0
 13 28  1  0
 13 29  1  0
 13 30  1  0
 14 31  1  0
 14 32  1  0
 17 33  1  0
 18 34  1  0
 19 35  1  0
 20 36  1  0
 21 37  1  0
M  ISO  8  22   8  23  14  24  14  25  14  26  14  27  14  28   8  29   8
M  ISO  8  30   8  31   8  32   8  33  14  34  14  35  14  36  14  37  14
M  END
>  <minimizedAffinity>  (1) 
-4.26905107

>  <minimizedRMSD>  (1) 
2.57540035

$$$$
