
     RDKit          3D

 39 41  0  0  1  0  0  0  0  0999 V2000
   44.4530   35.9370   44.2450 C   0  0  0  0  0  0  0  0  0  0  0  0
   44.3070   35.4820   42.9240 C   0  0  0  0  0  0  0  0  0  0  0  0
   44.7050   34.1500   42.6500 C   0  0  0  0  0  0  0  0  0  0  0  0
   45.1860   33.4660   43.7060 N   0  0  0  0  0  0  0  0  0  0  0  0
   45.3290   33.8590   44.9230 C   0  0  0  0  0  0  0  0  0  0  0  0
   44.9510   35.1230   45.1840 N   0  0  0  0  0  0  0  0  0  0  0  0
   45.8470   33.0490   45.9450 N   0  0  0  0  0  0  0  0  0  0  0  0
   45.5890   33.0880   47.2590 N   0  0  0  0  0  0  0  0  0  0  0  0
   46.3110   32.1350   47.8610 C   0  0  0  0  0  0  0  0  0  0  0  0
   47.0280   31.5000   46.8910 C   0  0  0  0  0  0  0  0  0  0  0  0
   46.7460   32.0700   45.6500 C   0  0  0  0  0  0  0  0  0  0  0  0
   47.3840   31.5640   44.4130 C   0  0  2  0  0  0  0  0  0  0  0  0
   47.9480   32.7310   43.6540 C   0  0  0  0  0  0  0  0  0  0  0  0
   46.4480   30.8030   43.5640 C   0  0  0  0  0  0  0  0  0  0  0  0
   45.1660   29.9100   44.4640 S   0  0  0  0  0  0  0  0  0  0  0  0
   47.0810   28.2430   45.1340 N   0  0  0  0  0  0  0  0  0  0  0  0
   47.4060   27.3640   46.2470 C   0  0  0  0  0  0  0  0  0  0  0  0
   46.4730   27.9140   47.3200 C   0  0  0  0  0  0  0  0  0  0  0  0
   45.1840   28.0140   46.5320 C   0  0  0  0  0  0  0  0  0  0  0  0
   45.6070   28.3500   45.1690 C   0  0  1  0  0  0  0  0  0  0  0  0
   44.1578   36.9634   44.5082 H   0  0  0  0  0  0  0  0  0  0  0  0
   43.9008   36.1325   42.1354 H   0  0  0  0  0  0  0  0  0  0  0  0
   44.6268   33.7062   41.6465 H   0  0  0  0  0  0  0  0  0  0  0  0
   46.3234   31.9070   48.9370 H   0  0  0  0  0  0  0  0  0  0  0  0
   47.7234   30.6649   47.0613 H   0  0  0  0  0  0  0  0  0  0  0  0
   48.1841   30.8649   44.6978 H   0  0  0  0  0  0  0  0  0  0  0  0
   48.3137   33.4877   44.3637 H   0  0  0  0  0  0  0  0  0  0  0  0
   48.7803   32.3891   43.0212 H   0  0  0  0  0  0  0  0  0  0  0  0
   47.1630   33.1708   43.0212 H   0  0  0  0  0  0  0  0  0  0  0  0
   45.9563   31.5091   42.8786 H   0  0  0  0  0  0  0  0  0  0  0  0
   47.0494   30.0420   43.0452 H   0  0  0  0  0  0  0  0  0  0  0  0
   47.3958   27.8341   44.2426 H   0  0  0  0  0  0  0  0  0  0  0  0
   47.1806   26.3130   46.0132 H   0  0  0  0  0  0  0  0  0  0  0  0
   48.4698   27.3543   46.5269 H   0  0  0  0  0  0  0  0  0  0  0  0
   46.3778   27.2224   48.1700 H   0  0  0  0  0  0  0  0  0  0  0  0
   46.8055   28.8560   47.7805 H   0  0  0  0  0  0  0  0  0  0  0  0
   44.6453   27.0550   46.5458 H   0  0  0  0  0  0  0  0  0  0  0  0
   44.4965   28.7633   46.9514 H   0  0  0  0  0  0  0  0  0  0  0  0
   45.0443   27.6380   44.5474 H   0  0  0  0  0  0  0  0  0  0  0  0
  1  6  2  0
  2  1  1  0
  3  2  2  0
  3  4  1  0
  4  5  2  0
  5  6  1  0
  5  7  1  0
  7  8  1  0
  8  9  2  0
 10  9  1  0
 11  7  1  0
 11 10  2  0
 12 11  1  0
 13 12  1  0
 14 12  1  0
 14 15  1  0
 16 20  1  0
 16 17  1  0
 17 18  1  0
 19 18  1  0
 20 15  1  0
 20 19  1  0
  1 21  1  0
  2 22  1  0
  3 23  1  0
  9 24  1  0
 10 25  1  0
 12 26  1  1
 13 27  1  0
 13 28  1  0
 13 29  1  0
 14 30  1  0
 14 31  1  0
 16 32  1  0
 17 33  1  0
 17 34  1  0
 18 35  1  0
 18 36  1  0
 19 37  1  0
 19 38  1  0
 20 39  1  6
M  ISO  8  21  14  22  14  23  14  24  14  25  14  26   8  27   8  28   8
M  ISO  8  29   8  30   8  31   8  32   5  33  13  34  13  35  13  36  13
M  ISO  3  37  13  38  13  39  13
M  END
>  <minimizedAffinity>  (1) 
-3.92471457

>  <minimizedRMSD>  (1) 
0.746493936

$$$$
