
     RDKit          3D

 35 37  0  0  1  0  0  0  0  0999 V2000
   47.2280   31.5540   44.5070 C   0  0  2  0  0  0  0  0  0  0  0  0
   44.5090   36.0140   44.0530 C   0  0  0  0  0  0  0  0  0  0  0  0
   44.3730   35.5100   42.7630 C   0  0  0  0  0  0  0  0  0  0  0  0
   44.7190   34.1450   42.5540 C   0  0  0  0  0  0  0  0  0  0  0  0
   45.1450   33.4970   43.6580 N   0  0  0  0  0  0  0  0  0  0  0  0
   45.2770   33.9430   44.8580 C   0  0  0  0  0  0  0  0  0  0  0  0
   44.9480   35.2340   45.0500 N   0  0  0  0  0  0  0  0  0  0  0  0
   45.7310   33.1690   45.9330 N   0  0  0  0  0  0  0  0  0  0  0  0
   45.4470   33.2740   47.2390 N   0  0  0  0  0  0  0  0  0  0  0  0
   46.1040   32.3240   47.9020 C   0  0  0  0  0  0  0  0  0  0  0  0
   46.8170   31.6050   46.9880 C   0  0  0  0  0  0  0  0  0  0  0  0
   46.5880   32.1360   45.7150 C   0  0  0  0  0  0  0  0  0  0  0  0
   47.9760   32.6350   43.7810 C   0  0  0  0  0  0  0  0  0  0  0  0
   46.3030   30.8770   43.6120 C   0  0  0  0  0  0  0  0  0  0  0  0
   45.0500   29.8340   44.4650 S   0  0  0  0  0  0  0  0  0  0  0  0
   45.8120   28.5830   45.4970 C   0  0  0  0  0  0  0  0  0  0  0  0
   45.2670   28.2040   46.7130 C   0  0  0  0  0  0  0  0  0  0  0  0
   45.7990   27.2580   47.5480 C   0  0  0  0  0  0  0  0  0  0  0  0
   46.9330   26.6420   47.1720 N   0  0  0  0  0  0  0  0  0  0  0  0
   47.4860   26.9900   45.9950 C   0  0  0  0  0  0  0  0  0  0  0  0
   46.9450   27.9230   45.1900 N   0  0  0  0  0  0  0  0  0  0  0  0
   47.9178   30.7704   44.8537 H   0  0  0  0  0  0  0  0  0  0  0  0
   44.2533   37.0643   44.2564 H   0  0  0  0  0  0  0  0  0  0  0  0
   44.0124   36.1413   41.9375 H   0  0  0  0  0  0  0  0  0  0  0  0
   44.6449   33.6575   41.5707 H   0  0  0  0  0  0  0  0  0  0  0  0
   46.0767   32.1508   48.9879 H   0  0  0  0  0  0  0  0  0  0  0  0
   47.4666   30.7469   47.2155 H   0  0  0  0  0  0  0  0  0  0  0  0
   48.4439   33.3112   44.5116 H   0  0  0  0  0  0  0  0  0  0  0  0
   48.7546   32.1817   43.1498 H   0  0  0  0  0  0  0  0  0  0  0  0
   47.2774   33.2039   43.1498 H   0  0  0  0  0  0  0  0  0  0  0  0
   46.8858   30.2327   42.9373 H   0  0  0  0  0  0  0  0  0  0  0  0
   45.7481   31.6632   43.0791 H   0  0  0  0  0  0  0  0  0  0  0  0
   44.3381   28.6997   47.0313 H   0  0  0  0  0  0  0  0  0  0  0  0
   45.3110   27.0086   48.5018 H   0  0  0  0  0  0  0  0  0  0  0  0
   48.4151   26.4930   45.6793 H   0  0  0  0  0  0  0  0  0  0  0  0
  1 12  1  0
  2  7  2  0
  3  2  1  0
  4  3  2  0
  4  5  1  0
  5  6  2  0
  6  7  1  0
  6  8  1  0
  8  9  1  0
  9 10  2  0
 11 10  1  0
 12  8  1  0
 12 11  2  0
 13  1  1  0
 14 15  1  0
 14  1  1  0
 15 16  1  0
 16 17  2  0
 17 18  1  0
 19 18  2  0
 20 19  1  0
 21 16  1  0
 21 20  2  0
  1 22  1  1
  2 23  1  0
  3 24  1  0
  4 25  1  0
 10 26  1  0
 11 27  1  0
 13 28  1  0
 13 29  1  0
 13 30  1  0
 14 31  1  0
 14 32  1  0
 17 33  1  0
 18 34  1  0
 20 35  1  0
M  ISO  8  22   8  23  14  24  14  25  14  26  14  27  14  28   8  29   8
M  ISO  6  30   8  31   8  32   8  33  14  34  14  35  14
M  END
>  <minimizedAffinity>  (1) 
-3.93912005

>  <minimizedRMSD>  (1) 
1.07743073

$$$$
