
     RDKit          3D

 37 39  0  0  1  0  0  0  0  0999 V2000
   46.6410   34.7890   42.0700 C   0  0  0  0  0  0  0  0  0  0  0  0
   47.9390   35.2610   41.9980 C   0  0  0  0  0  0  0  0  0  0  0  0
   48.7220   35.1310   40.8350 C   0  0  0  0  0  0  0  0  0  0  0  0
   48.1690   34.5030   39.7150 C   0  0  0  0  0  0  0  0  0  0  0  0
   46.8820   34.0370   39.7900 C   0  0  0  0  0  0  0  0  0  0  0  0
   46.1540   34.1830   40.9390 C   0  0  0  0  0  0  0  0  0  0  0  0
   44.7980   33.6790   40.9840 N   0  0  0  0  0  0  0  0  0  0  0  0
   43.5900   34.3830   40.5460 C   0  0  0  0  0  0  0  0  0  0  0  0
   42.4320   34.0990   41.4610 C   0  0  0  0  0  0  0  0  0  0  0  0
   42.2210   32.6580   41.4990 N   0  0  0  0  0  0  0  0  0  0  0  0
   43.3720   32.1190   42.2330 C   0  0  0  0  0  0  0  0  0  0  0  0
   44.6810   32.3460   41.5240 C   0  0  1  0  0  0  0  0  0  0  0  0
   44.9440   31.2780   40.4580 C   0  0  0  0  0  0  0  0  0  0  0  0
   44.4480   36.1060   44.8070 C   0  0  0  0  0  0  0  0  0  0  0  0
   45.0840   36.0430   43.5650 C   0  0  0  0  0  0  0  0  0  0  0  0
   45.9280   34.9730   43.3040 C   0  0  0  0  0  0  0  0  0  0  0  0
   46.1060   34.0250   44.2670 N   0  0  0  0  0  0  0  0  0  0  0  0
   45.4550   34.1420   45.4630 C   0  0  0  0  0  0  0  0  0  0  0  0
   44.6380   35.1730   45.7220 N   0  0  0  0  0  0  0  0  0  0  0  0
   48.3745   35.7547   42.8792 H   0  0  0  0  0  0  0  0  0  0  0  0
   49.7517   35.5171   40.8081 H   0  0  0  0  0  0  0  0  0  0  0  0
   48.7552   34.3851   38.7917 H   0  0  0  0  0  0  0  0  0  0  0  0
   46.4304   33.5410   38.9182 H   0  0  0  0  0  0  0  0  0  0  0  0
   43.7871   35.4652   40.5424 H   0  0  0  0  0  0  0  0  0  0  0  0
   43.3297   34.0321   39.5365 H   0  0  0  0  0  0  0  0  0  0  0  0
   42.6577   34.4685   42.4722 H   0  0  0  0  0  0  0  0  0  0  0  0
   41.5266   34.6048   41.0943 H   0  0  0  0  0  0  0  0  0  0  0  0
   41.3432   32.4344   41.9893 H   0  0  0  0  0  0  0  0  0  0  0  0
   43.4182   32.6054   43.2185 H   0  0  0  0  0  0  0  0  0  0  0  0
   43.2281   31.0318   42.3179 H   0  0  0  0  0  0  0  0  0  0  0  0
   45.4666   32.2494   42.2878 H   0  0  0  0  0  0  0  0  0  0  0  0
   45.1795   30.3215   40.9475 H   0  0  0  0  0  0  0  0  0  0  0  0
   44.0486   31.1580   39.8305 H   0  0  0  0  0  0  0  0  0  0  0  0
   45.7928   31.5875   39.8305 H   0  0  0  0  0  0  0  0  0  0  0  0
   43.7762   36.9487   45.0271 H   0  0  0  0  0  0  0  0  0  0  0  0
   44.9192   36.8254   42.8095 H   0  0  0  0  0  0  0  0  0  0  0  0
   45.6052   33.3706   46.2327 H   0  0  0  0  0  0  0  0  0  0  0  0
  1 16  1  0
  2  1  2  0
  3  2  1  0
  4  5  1  0
  4  3  2  0
  5  6  2  0
  6  7  1  0
  6  1  1  0
  7 12  1  0
  8  7  1  0
  8  9  1  0
  9 10  1  0
 10 11  1  0
 12 11  1  0
 13 12  1  0
 14 19  2  0
 15 14  1  0
 16 15  2  0
 16 17  1  0
 17 18  2  0
 18 19  1  0
  2 20  1  0
  3 21  1  0
  4 22  1  0
  5 23  1  0
  8 24  1  0
  8 25  1  0
  9 26  1  0
  9 27  1  0
 10 28  1  0
 11 29  1  0
 11 30  1  0
 12 31  1  1
 13 32  1  0
 13 33  1  0
 13 34  1  0
 14 35  1  0
 15 36  1  0
 18 37  1  0
M  ISO  8  20  14  21  14  22  14  23  14  24  13  25  13  26  13  27  13
M  ISO  8  28   5  29  13  30  13  31  13  32   8  33   8  34   8  35  14
M  ISO  2  36  14  37  14
M  END
>  <minimizedAffinity>  (1) 
-5.73448181

>  <minimizedRMSD>  (1) 
0.0339295901

$$$$
