
     RDKit          3D

 49 51  0  0  1  0  0  0  0  0999 V2000
   47.5110   31.9020   44.2570 C   0  0  2  0  0  0  0  0  0  0  0  0
   44.2460   35.9960   43.9570 C   0  0  0  0  0  0  0  0  0  0  0  0
   44.1920   35.5340   42.6590 C   0  0  0  0  0  0  0  0  0  0  0  0
   44.7200   34.2370   42.3870 C   0  0  0  0  0  0  0  0  0  0  0  0
   45.2100   33.6440   43.5050 N   0  0  0  0  0  0  0  0  0  0  0  0
   45.2840   34.0170   44.7060 C   0  0  0  0  0  0  0  0  0  0  0  0
   44.7810   35.2350   44.9190 N   0  0  0  0  0  0  0  0  0  0  0  0
   45.8370   33.2590   45.7390 N   0  0  0  0  0  0  0  0  0  0  0  0
   45.5460   33.2830   47.0350 N   0  0  0  0  0  0  0  0  0  0  0  0
   46.3150   32.3900   47.6760 C   0  0  0  0  0  0  0  0  0  0  0  0
   47.1000   31.7990   46.7530 C   0  0  0  0  0  0  0  0  0  0  0  0
   46.8020   32.3520   45.4960 C   0  0  0  0  0  0  0  0  0  0  0  0
   48.0170   33.1170   43.5280 C   0  0  0  0  0  0  0  0  0  0  0  0
   46.7650   31.0570   43.3800 C   0  0  0  0  0  0  0  0  0  0  0  0
   46.8740   29.3020   43.7370 S   0  0  0  0  0  0  0  0  0  0  0  0
   46.1960   28.7010   45.1970 C   0  0  0  0  0  0  0  0  0  0  0  0
   44.7920   28.6920   45.1550 C   0  0  0  0  0  0  0  0  0  0  0  0
   43.9550   28.2370   46.1710 C   0  0  0  0  0  0  0  0  0  0  0  0
   44.5860   27.7710   47.2810 C   0  0  0  0  0  0  0  0  0  0  0  0
   45.9370   27.7720   47.3290 C   0  0  0  0  0  0  0  0  0  0  0  0
   46.8280   28.2200   46.3250 C   0  0  0  0  0  0  0  0  0  0  0  0
   48.2830   28.1040   46.4750 C   0  0  0  0  0  0  0  0  0  0  0  0
   49.0670   28.8690   45.4370 C   0  0  0  0  0  0  0  0  0  0  0  0
   48.8960   27.8510   47.7780 C   0  0  0  0  0  0  0  0  0  0  0  0
   48.5080   26.6330   45.8240 C   0  0  0  0  0  0  0  0  0  0  0  0
   48.3351   31.2567   44.5953 H   0  0  0  0  0  0  0  0  0  0  0  0
   43.8486   36.9920   44.2022 H   0  0  0  0  0  0  0  0  0  0  0  0
   43.7549   36.1472   41.8572 H   0  0  0  0  0  0  0  0  0  0  0  0
   44.7289   33.7728   41.3898 H   0  0  0  0  0  0  0  0  0  0  0  0
   46.3066   32.1789   48.7555 H   0  0  0  0  0  0  0  0  0  0  0  0
   47.8473   31.0163   46.9504 H   0  0  0  0  0  0  0  0  0  0  0  0
   48.3335   33.8770   44.2576 H   0  0  0  0  0  0  0  0  0  0  0  0
   48.8728   32.8359   42.8967 H   0  0  0  0  0  0  0  0  0  0  0  0
   47.2146   33.5265   42.8967 H   0  0  0  0  0  0  0  0  0  0  0  0
   47.1324   31.2197   42.3560 H   0  0  0  0  0  0  0  0  0  0  0  0
   45.7086   31.3318   43.5157 H   0  0  0  0  0  0  0  0  0  0  0  0
   44.3131   29.0768   44.2426 H   0  0  0  0  0  0  0  0  0  0  0  0
   42.8588   28.2536   46.0813 H   0  0  0  0  0  0  0  0  0  0  0  0
   44.0016   27.3958   48.1341 H   0  0  0  0  0  0  0  0  0  0  0  0
   46.3942   27.3815   48.2501 H   0  0  0  0  0  0  0  0  0  0  0  0
   49.7681   29.5531   45.9376 H   0  0  0  0  0  0  0  0  0  0  0  0
   49.6295   28.1630   44.8084 H   0  0  0  0  0  0  0  0  0  0  0  0
   48.3750   29.4486   44.8084 H   0  0  0  0  0  0  0  0  0  0  0  0
   48.1954   28.1402   48.5752 H   0  0  0  0  0  0  0  0  0  0  0  0
   49.1343   26.7810   47.8696 H   0  0  0  0  0  0  0  0  0  0  0  0
   49.8196   28.4415   47.8696 H   0  0  0  0  0  0  0  0  0  0  0  0
   48.6216   25.8901   46.6272 H   0  0  0  0  0  0  0  0  0  0  0  0
   47.6395   26.3706   45.2020 H   0  0  0  0  0  0  0  0  0  0  0  0
   49.4152   26.6422   45.2020 H   0  0  0  0  0  0  0  0  0  0  0  0
  1 12  1  0
  2  7  2  0
  3  2  1  0
  4  3  2  0
  4  5  1  0
  5  6  2  0
  6  7  1  0
  6  8  1  0
  8  9  1  0
  9 10  2  0
 11 10  1  0
 12  8  1  0
 12 11  2  0
 13  1  1  0
 14 15  1  0
 14  1  1  0
 15 16  1  0
 16 21  1  0
 17 16  2  0
 17 18  1  0
 18 19  2  0
 19 20  1  0
 21 22  1  0
 21 20  2  0
 22 24  1  0
 23 22  1  0
 25 22  1  0
  1 26  1  1
  2 27  1  0
  3 28  1  0
  4 29  1  0
 10 30  1  0
 11 31  1  0
 13 32  1  0
 13 33  1  0
 13 34  1  0
 14 35  1  0
 14 36  1  0
 17 37  1  0
 18 38  1  0
 19 39  1  0
 20 40  1  0
 23 41  1  0
 23 42  1  0
 23 43  1  0
 24 44  1  0
 24 45  1  0
 24 46  1  0
 25 47  1  0
 25 48  1  0
 25 49  1  0
M  ISO  8  26   8  27  14  28  14  29  14  30  14  31  14  32   8  33   8
M  ISO  8  34   8  35   8  36   8  37  14  38  14  39  14  40  14  41   8
M  ISO  8  42   8  43   8  44   8  45   8  46   8  47   8  48   8  49   8
M  END
>  <minimizedAffinity>  (1) 
-4.35027695

>  <minimizedRMSD>  (1) 
1.5630486

$$$$
