
     RDKit          3D

 43 46  0  0  1  0  0  0  0  0999 V2000
   46.9700   31.5230   44.6690 C   0  0  2  0  0  0  0  0  0  0  0  0
   44.6430   36.2050   44.1400 C   0  0  0  0  0  0  0  0  0  0  0  0
   44.5530   35.7300   42.8480 C   0  0  0  0  0  0  0  0  0  0  0  0
   44.8070   34.3460   42.6230 C   0  0  0  0  0  0  0  0  0  0  0  0
   45.1080   33.6990   43.7750 N   0  0  0  0  0  0  0  0  0  0  0  0
   45.2060   34.0740   44.9730 C   0  0  0  0  0  0  0  0  0  0  0  0
   44.9610   35.3730   45.1430 N   0  0  0  0  0  0  0  0  0  0  0  0
   45.5350   33.2390   46.0410 N   0  0  0  0  0  0  0  0  0  0  0  0
   45.1780   33.3560   47.3210 N   0  0  0  0  0  0  0  0  0  0  0  0
   45.7040   32.3370   48.0100 C   0  0  0  0  0  0  0  0  0  0  0  0
   46.4000   31.5790   47.1300 C   0  0  0  0  0  0  0  0  0  0  0  0
   46.3120   32.1330   45.8480 C   0  0  0  0  0  0  0  0  0  0  0  0
   47.7990   32.5740   43.9960 C   0  0  0  0  0  0  0  0  0  0  0  0
   46.0690   30.8890   43.7400 C   0  0  0  0  0  0  0  0  0  0  0  0
   45.9990   29.0990   43.8140 S   0  0  0  0  0  0  0  0  0  0  0  0
   45.7110   28.3420   45.3260 C   0  0  0  0  0  0  0  0  0  0  0  0
   44.3640   28.0810   45.5420 C   0  0  0  0  0  0  0  0  0  0  0  0
   43.8210   27.4790   46.6850 C   0  0  0  0  0  0  0  0  0  0  0  0
   44.7070   27.1290   47.6590 C   0  0  0  0  0  0  0  0  0  0  0  0
   46.0220   27.3740   47.4670 C   0  0  0  0  0  0  0  0  0  0  0  0
   46.5570   27.9700   46.3240 C   0  0  0  0  0  0  0  0  0  0  0  0
   48.0020   28.1160   46.2210 C   0  0  0  0  0  0  0  0  0  0  0  0
   48.7200   27.0280   45.6050 C   0  0  0  0  0  0  0  0  0  0  0  0
   50.4420   27.4950   45.6800 S   0  0  0  0  0  0  0  0  0  0  0  0
   50.0200   29.1300   46.5450 C   0  0  0  0  0  0  0  0  0  0  0  0
   48.8750   28.9810   46.5770 N   0  0  0  0  0  0  0  0  0  0  0  0
   47.6013   30.6993   45.0337 H   0  0  0  0  0  0  0  0  0  0  0  0
   44.4536   37.2684   44.3482 H   0  0  0  0  0  0  0  0  0  0  0  0
   44.2927   36.4002   42.0155 H   0  0  0  0  0  0  0  0  0  0  0  0
   44.7640   33.8625   41.6359 H   0  0  0  0  0  0  0  0  0  0  0  0
   45.5921   32.1502   49.0882 H   0  0  0  0  0  0  0  0  0  0  0  0
   46.9530   30.6630   47.3852 H   0  0  0  0  0  0  0  0  0  0  0  0
   48.2904   33.1970   44.7579 H   0  0  0  0  0  0  0  0  0  0  0  0
   48.5628   32.0921   43.3680 H   0  0  0  0  0  0  0  0  0  0  0  0
   47.1525   33.2046   43.3680 H   0  0  0  0  0  0  0  0  0  0  0  0
   46.3790   31.1723   42.7233 H   0  0  0  0  0  0  0  0  0  0  0  0
   45.0630   31.2377   44.0162 H   0  0  0  0  0  0  0  0  0  0  0  0
   43.6623   28.3722   44.7465 H   0  0  0  0  0  0  0  0  0  0  0  0
   42.7409   27.2993   46.7899 H   0  0  0  0  0  0  0  0  0  0  0  0
   44.3572   26.6542   48.5876 H   0  0  0  0  0  0  0  0  0  0  0  0
   46.7190   27.0836   48.2669 H   0  0  0  0  0  0  0  0  0  0  0  0
   48.2970   26.1061   45.1793 H   0  0  0  0  0  0  0  0  0  0  0  0
   50.6582   29.9524   46.9005 H   0  0  0  0  0  0  0  0  0  0  0  0
  1 12  1  0
  2  7  2  0
  3  2  1  0
  4  3  2  0
  4  5  1  0
  5  6  2  0
  6  7  1  0
  6  8  1  0
  8  9  1  0
  9 10  2  0
 11 10  1  0
 12  8  1  0
 12 11  2  0
 13  1  1  0
 14 15  1  0
 14  1  1  0
 15 16  1  0
 16 17  2  0
 16 21  1  0
 17 18  1  0
 18 19  2  0
 20 19  1  0
 21 20  2  0
 22 21  1  0
 22 26  1  0
 23 24  1  0
 23 22  2  0
 24 25  1  0
 25 26  2  0
  1 27  1  1
  2 28  1  0
  3 29  1  0
  4 30  1  0
 10 31  1  0
 11 32  1  0
 13 33  1  0
 13 34  1  0
 13 35  1  0
 14 36  1  0
 14 37  1  0
 17 38  1  0
 18 39  1  0
 19 40  1  0
 20 41  1  0
 23 42  1  0
 25 43  1  0
M  ISO  8  27   8  28  14  29  14  30  14  31  14  32  14  33   8  34   8
M  ISO  8  35   8  36   8  37   8  38  14  39  14  40  14  41  14  42  14
M  ISO  1  43  14
M  END
>  <minimizedAffinity>  (1) 
-4.33228111

>  <minimizedRMSD>  (1) 
1.50829005

$$$$
