
     RDKit          3D

 44 47  0  0  1  0  0  0  0  0999 V2000
   44.7870   33.7200   40.9770 N   0  0  0  0  0  0  0  0  0  0  0  0
   43.5810   34.4650   40.6000 C   0  0  0  0  0  0  0  0  0  0  0  0
   42.4220   34.1480   41.5170 C   0  0  0  0  0  0  0  0  0  0  0  0
   42.2070   32.7220   41.4580 N   0  0  0  0  0  0  0  0  0  0  0  0
   43.3380   32.1260   42.1610 C   0  0  0  0  0  0  0  0  0  0  0  0
   44.6510   32.3620   41.4480 C   0  0  1  0  0  0  0  0  0  0  0  0
   46.6480   34.7910   42.0660 C   0  0  0  0  0  0  0  0  0  0  0  0
   47.9430   35.2450   42.0070 C   0  0  0  0  0  0  0  0  0  0  0  0
   48.7270   35.1180   40.8490 C   0  0  0  0  0  0  0  0  0  0  0  0
   48.1680   34.5090   39.7180 C   0  0  0  0  0  0  0  0  0  0  0  0
   46.8780   34.0620   39.7910 C   0  0  0  0  0  0  0  0  0  0  0  0
   46.1450   34.2010   40.9320 C   0  0  0  0  0  0  0  0  0  0  0  0
   44.4590   36.1290   44.8120 C   0  0  0  0  0  0  0  0  0  0  0  0
   45.1000   36.0600   43.5700 C   0  0  0  0  0  0  0  0  0  0  0  0
   45.9360   34.9720   43.3030 C   0  0  0  0  0  0  0  0  0  0  0  0
   46.0830   34.0330   44.2670 N   0  0  0  0  0  0  0  0  0  0  0  0
   45.4390   34.1420   45.4570 C   0  0  0  0  0  0  0  0  0  0  0  0
   44.6330   35.1810   45.7290 N   0  0  0  0  0  0  0  0  0  0  0  0
   44.9420   31.3670   40.4380 N   0  0  0  0  0  0  0  0  0  0  0  0
   45.8670   30.4240   40.7000 C   0  0  0  0  0  0  0  0  0  0  0  0
   46.1690   29.4610   39.7580 C   0  0  0  0  0  0  0  0  0  0  0  0
   45.5290   29.4500   38.5370 C   0  0  0  0  0  0  0  0  0  0  0  0
   45.6960   28.6420   37.5870 O   0  0  0  0  0  0  0  0  0  0  0  0
   44.6140   30.4170   38.3320 N   0  0  0  0  0  0  0  0  0  0  0  0
   44.3100   31.3540   39.2270 C   0  0  0  0  0  0  0  0  0  0  0  0
   43.4400   32.2350   38.9720 O   0  0  0  0  0  0  0  0  0  0  0  0
   43.7953   35.5425   40.6548 H   0  0  0  0  0  0  0  0  0  0  0  0
   43.3010   34.1718   39.5775 H   0  0  0  0  0  0  0  0  0  0  0  0
   42.6630   34.4503   42.5468 H   0  0  0  0  0  0  0  0  0  0  0  0
   41.5181   34.6918   41.2052 H   0  0  0  0  0  0  0  0  0  0  0  0
   41.3225   32.4721   41.9228 H   0  0  0  0  0  0  0  0  0  0  0  0
   43.3991   32.5651   43.1677 H   0  0  0  0  0  0  0  0  0  0  0  0
   43.1708   31.0396   42.2039 H   0  0  0  0  0  0  0  0  0  0  0  0
   45.4367   32.2288   42.2062 H   0  0  0  0  0  0  0  0  0  0  0  0
   48.3801   35.7236   42.8957 H   0  0  0  0  0  0  0  0  0  0  0  0
   49.7620   35.4902   40.8303 H   0  0  0  0  0  0  0  0  0  0  0  0
   48.7528   34.3932   38.7936 H   0  0  0  0  0  0  0  0  0  0  0  0
   46.4230   33.5811   38.9125 H   0  0  0  0  0  0  0  0  0  0  0  0
   43.8001   36.9815   45.0338 H   0  0  0  0  0  0  0  0  0  0  0  0
   44.9487   36.8478   42.8173 H   0  0  0  0  0  0  0  0  0  0  0  0
   45.5809   33.3598   46.2173 H   0  0  0  0  0  0  0  0  0  0  0  0
   46.3850   30.4210   41.6704 H   0  0  0  0  0  0  0  0  0  0  0  0
   46.9266   28.6961   39.9836 H   0  0  0  0  0  0  0  0  0  0  0  0
   44.1199   30.4322   37.4284 H   0  0  0  0  0  0  0  0  0  0  0  0
  1  6  1  0
  2  1  1  0
  2  3  1  0
  4  3  1  0
  4  5  1  0
  6  5  1  0
  7 15  1  0
  8  7  2  0
  9  8  1  0
 10 11  1  0
 10  9  2  0
 11 12  2  0
 12  1  1  0
 12  7  1  0
 13 18  2  0
 14 13  1  0
 15 14  2  0
 15 16  1  0
 16 17  2  0
 17 18  1  0
 19 20  1  0
 19  6  1  0
 21 20  2  0
 22 21  1  0
 23 22  2  0
 24 22  1  0
 24 25  1  0
 25 19  1  0
 26 25  2  0
  2 27  1  0
  2 28  1  0
  3 29  1  0
  3 30  1  0
  4 31  1  0
  5 32  1  0
  5 33  1  0
  6 34  1  1
  8 35  1  0
  9 36  1  0
 10 37  1  0
 11 38  1  0
 13 39  1  0
 14 40  1  0
 17 41  1  0
 20 42  1  0
 21 43  1  0
 24 44  1  0
M  ISO  8  27  13  28  13  29  13  30  13  31   5  32  13  33  13  34  13
M  ISO  8  35  14  36  14  37  14  38  14  39  14  40  14  41  14  42  14
M  ISO  2  43  14  44   9
M  END
>  <minimizedAffinity>  (1) 
-5.72043705

>  <minimizedRMSD>  (1) 
0.648229897

$$$$
