
     RDKit          3D

 39 41  0  0  1  0  0  0  0  0999 V2000
   46.6560   31.3790   44.5970 C   0  0  2  0  0  0  0  0  0  0  0  0
   44.7740   36.2390   43.9350 C   0  0  0  0  0  0  0  0  0  0  0  0
   44.5960   35.7160   42.6690 C   0  0  0  0  0  0  0  0  0  0  0  0
   44.7130   34.3000   42.4890 C   0  0  0  0  0  0  0  0  0  0  0  0
   44.9980   33.6720   43.6650 N   0  0  0  0  0  0  0  0  0  0  0  0
   45.1700   34.0950   44.8410 C   0  0  0  0  0  0  0  0  0  0  0  0
   45.0490   35.4240   44.9520 N   0  0  0  0  0  0  0  0  0  0  0  0
   45.4560   33.2890   45.9460 N   0  0  0  0  0  0  0  0  0  0  0  0
   45.1670   33.4990   47.2280 N   0  0  0  0  0  0  0  0  0  0  0  0
   45.6170   32.4710   47.9490 C   0  0  0  0  0  0  0  0  0  0  0  0
   46.1950   31.6090   47.0890 C   0  0  0  0  0  0  0  0  0  0  0  0
   46.1100   32.1090   45.7770 C   0  0  0  0  0  0  0  0  0  0  0  0
   47.7270   32.2200   43.9700 C   0  0  0  0  0  0  0  0  0  0  0  0
   45.6780   30.9630   43.6290 C   0  0  0  0  0  0  0  0  0  0  0  0
   44.6360   29.5380   44.1020 S   0  0  0  0  0  0  0  0  0  0  0  0
   45.3130   28.5110   45.3370 C   0  0  0  0  0  0  0  0  0  0  0  0
   44.4940   28.5570   46.4690 C   0  0  0  0  0  0  0  0  0  0  0  0
   44.7690   27.8240   47.6360 C   0  0  0  0  0  0  0  0  0  0  0  0
   45.8920   27.0370   47.6470 C   0  0  0  0  0  0  0  0  0  0  0  0
   46.6780   26.9990   46.5490 C   0  0  0  0  0  0  0  0  0  0  0  0
   46.4290   27.7060   45.4000 C   0  0  0  0  0  0  0  0  0  0  0  0
   47.1520   27.7670   44.1850 N   0  0  0  0  0  0  0  0  0  0  0  0
   47.0697   30.4308   44.9710 H   0  0  0  0  0  0  0  0  0  0  0  0
   44.6891   37.3229   44.1024 H   0  0  0  0  0  0  0  0  0  0  0  0
   44.3691   36.3734   41.8168 H   0  0  0  0  0  0  0  0  0  0  0  0
   44.5888   33.7849   41.5250 H   0  0  0  0  0  0  0  0  0  0  0  0
   45.5324   32.3497   49.0390 H   0  0  0  0  0  0  0  0  0  0  0  0
   46.6641   30.6550   47.3715 H   0  0  0  0  0  0  0  0  0  0  0  0
   48.3301   32.6936   44.7587 H   0  0  0  0  0  0  0  0  0  0  0  0
   48.3731   31.5854   43.3456 H   0  0  0  0  0  0  0  0  0  0  0  0
   47.2637   32.9981   43.3456 H   0  0  0  0  0  0  0  0  0  0  0  0
   46.2117   30.6972   42.7046 H   0  0  0  0  0  0  0  0  0  0  0  0
   44.9872   31.8124   43.5225 H   0  0  0  0  0  0  0  0  0  0  0  0
   43.5971   29.1934   46.4453 H   0  0  0  0  0  0  0  0  0  0  0  0
   44.1055   27.8797   48.5116 H   0  0  0  0  0  0  0  0  0  0  0  0
   46.1492   26.4448   48.5376 H   0  0  0  0  0  0  0  0  0  0  0  0
   47.5738   26.3612   46.5780 H   0  0  0  0  0  0  0  0  0  0  0  0
   48.0165   27.2185   44.0720 H   0  0  0  0  0  0  0  0  0  0  0  0
   46.8138   28.3599   43.4137 H   0  0  0  0  0  0  0  0  0  0  0  0
  1 12  1  0
  2  7  2  0
  3  2  1  0
  4  3  2  0
  4  5  1  0
  5  6  2  0
  6  7  1  0
  6  8  1  0
  8  9  1  0
  9 10  2  0
 11 10  1  0
 12  8  1  0
 12 11  2  0
 13  1  1  0
 14 15  1  0
 14  1  1  0
 15 16  1  0
 16 21  1  0
 16 17  2  0
 17 18  1  0
 18 19  2  0
 20 19  1  0
 21 20  2  0
 22 21  1  0
  1 23  1  1
  2 24  1  0
  3 25  1  0
  4 26  1  0
 10 27  1  0
 11 28  1  0
 13 29  1  0
 13 30  1  0
 13 31  1  0
 14 32  1  0
 14 33  1  0
 17 34  1  0
 18 35  1  0
 19 36  1  0
 20 37  1  0
 22 38  1  0
 22 39  1  0
M  ISO  8  23   8  24  14  25  14  26  14  27  14  28  14  29   8  30   8
M  ISO  7  31   8  32   8  33   8  34  14  35  14  36  14  37  14
M  END
>  <minimizedAffinity>  (1) 
-4.15428591

>  <minimizedRMSD>  (1) 
0.310597211

$$$$
