
     RDKit          3D

 44 47  0  0  1  0  0  0  0  0999 V2000
   46.8650   31.6650   44.6730 C   0  0  2  0  0  0  0  0  0  0  0  0
   44.7050   36.4100   44.0220 C   0  0  0  0  0  0  0  0  0  0  0  0
   44.6580   35.9250   42.7220 C   0  0  0  0  0  0  0  0  0  0  0  0
   44.8810   34.5330   42.5190 C   0  0  0  0  0  0  0  0  0  0  0  0
   45.1120   33.8800   43.6860 N   0  0  0  0  0  0  0  0  0  0  0  0
   45.1670   34.2680   44.8850 C   0  0  0  0  0  0  0  0  0  0  0  0
   44.9540   35.5760   45.0420 N   0  0  0  0  0  0  0  0  0  0  0  0
   45.4200   33.4340   45.9750 N   0  0  0  0  0  0  0  0  0  0  0  0
   45.0120   33.5690   47.2380 N   0  0  0  0  0  0  0  0  0  0  0  0
   45.4720   32.5450   47.9580 C   0  0  0  0  0  0  0  0  0  0  0  0
   46.1820   31.7590   47.1180 C   0  0  0  0  0  0  0  0  0  0  0  0
   46.1710   32.3060   45.8220 C   0  0  0  0  0  0  0  0  0  0  0  0
   47.7520   32.6880   44.0390 C   0  0  0  0  0  0  0  0  0  0  0  0
   45.9960   31.0410   43.7110 C   0  0  0  0  0  0  0  0  0  0  0  0
   45.9190   29.2400   43.7700 S   0  0  0  0  0  0  0  0  0  0  0  0
   45.7290   28.4930   45.3150 C   0  0  0  0  0  0  0  0  0  0  0  0
   44.3930   28.1870   45.5630 C   0  0  0  0  0  0  0  0  0  0  0  0
   43.9410   27.5670   46.7390 C   0  0  0  0  0  0  0  0  0  0  0  0
   44.8880   27.2540   47.6870 C   0  0  0  0  0  0  0  0  0  0  0  0
   46.1830   27.5520   47.4420 C   0  0  0  0  0  0  0  0  0  0  0  0
   46.6330   28.1560   46.2950 C   0  0  0  0  0  0  0  0  0  0  0  0
   48.0290   28.4150   45.9970 C   0  0  0  0  0  0  0  0  0  0  0  0
   49.0290   27.8400   46.9730 C   0  0  0  0  0  0  0  0  0  0  0  0
   48.8880   29.3470   46.7820 C   0  0  0  0  0  0  0  0  0  0  0  0
   47.4539   30.8242   45.0682 H   0  0  0  0  0  0  0  0  0  0  0  0
   44.5378   37.4799   44.2155 H   0  0  0  0  0  0  0  0  0  0  0  0
   44.4546   36.5957   41.8742 H   0  0  0  0  0  0  0  0  0  0  0  0
   44.8676   34.0451   41.5332 H   0  0  0  0  0  0  0  0  0  0  0  0
   45.3053   32.3727   49.0316 H   0  0  0  0  0  0  0  0  0  0  0  0
   46.6932   30.8284   47.4056 H   0  0  0  0  0  0  0  0  0  0  0  0
   48.2576   33.2712   44.8227 H   0  0  0  0  0  0  0  0  0  0  0  0
   48.5041   32.1844   43.4139 H   0  0  0  0  0  0  0  0  0  0  0  0
   47.1469   33.3611   43.4139 H   0  0  0  0  0  0  0  0  0  0  0  0
   46.3409   31.3308   42.7075 H   0  0  0  0  0  0  0  0  0  0  0  0
   44.9820   31.3903   43.9555 H   0  0  0  0  0  0  0  0  0  0  0  0
   43.6500   28.4456   44.7942 H   0  0  0  0  0  0  0  0  0  0  0  0
   42.8759   27.3413   46.8957 H   0  0  0  0  0  0  0  0  0  0  0  0
   44.5953   26.7687   48.6298 H   0  0  0  0  0  0  0  0  0  0  0  0
   46.9247   27.2936   48.2121 H   0  0  0  0  0  0  0  0  0  0  0  0
   47.8134   28.3633   44.9196 H   0  0  0  0  0  0  0  0  0  0  0  0
   48.6840   27.3656   47.9035 H   0  0  0  0  0  0  0  0  0  0  0  0
   49.8547   27.1155   46.9151 H   0  0  0  0  0  0  0  0  0  0  0  0
   49.6854   29.9144   46.2798 H   0  0  0  0  0  0  0  0  0  0  0  0
   48.7003   30.2008   47.4497 H   0  0  0  0  0  0  0  0  0  0  0  0
  1 12  1  0
  2  7  2  0
  3  2  1  0
  4  3  2  0
  4  5  1  0
  5  6  2  0
  6  7  1  0
  6  8  1  0
  8  9  1  0
  9 10  2  0
 11 10  1  0
 12  8  1  0
 12 11  2  0
 13  1  1  0
 14 15  1  0
 14  1  1  0
 15 16  1  0
 16 17  2  0
 16 21  1  0
 17 18  1  0
 18 19  2  0
 20 19  1  0
 21 20  2  0
 22 21  1  0
 22 24  1  0
 22 23  1  0
 24 23  1  0
  1 25  1  1
  2 26  1  0
  3 27  1  0
  4 28  1  0
 10 29  1  0
 11 30  1  0
 13 31  1  0
 13 32  1  0
 13 33  1  0
 14 34  1  0
 14 35  1  0
 17 36  1  0
 18 37  1  0
 19 38  1  0
 20 39  1  0
 22 40  1  0
 23 41  1  0
 23 42  1  0
 24 43  1  0
 24 44  1  0
M  ISO  8  25   8  26  14  27  14  28  14  29  14  30  14  31   8  32   8
M  ISO  8  33   8  34   8  35   8  36  14  37  14  38  14  39  14  40  13
M  ISO  4  41  13  42  13  43  13  44  13
M  END
>  <minimizedAffinity>  (1) 
-4.24926901

>  <minimizedRMSD>  (1) 
1.47619748

$$$$
