
     RDKit          3D

 27 29  0  0  0  0  0  0  0  0999 V2000
   45.4340   34.0760   41.6470 C   0  0  0  0  0  0  0  0  0  0  0  0
   46.4800   34.4710   41.0240 O   0  0  0  0  0  0  0  0  0  0  0  0
   44.5120   35.9730   44.7500 C   0  0  0  0  0  0  0  0  0  0  0  0
   44.6740   35.7130   43.3810 C   0  0  0  0  0  0  0  0  0  0  0  0
   45.2130   34.4710   43.0240 C   0  0  0  0  0  0  0  0  0  0  0  0
   45.5420   33.6070   44.0260 N   0  0  0  0  0  0  0  0  0  0  0  0
   45.3730   33.8890   45.3260 C   0  0  0  0  0  0  0  0  0  0  0  0
   44.8600   35.0660   45.6950 N   0  0  0  0  0  0  0  0  0  0  0  0
   44.5260   33.2770   40.9930 O   0  0  0  0  0  0  0  0  0  0  0  0
   43.7800   33.7900   39.9180 C   0  0  0  0  0  0  0  0  0  0  0  0
   43.9290   33.7410   38.5580 C   0  0  0  0  0  0  0  0  0  0  0  0
   42.9050   34.4130   38.0170 N   0  0  0  0  0  0  0  0  0  0  0  0
   42.0860   34.9030   38.9660 C   0  0  0  0  0  0  0  0  0  0  0  0
   40.9290   35.6430   38.8690 C   0  0  0  0  0  0  0  0  0  0  0  0
   40.2400   36.0440   39.9930 C   0  0  0  0  0  0  0  0  0  0  0  0
   40.7940   35.6490   41.2090 C   0  0  0  0  0  0  0  0  0  0  0  0
   41.9530   34.9060   41.3250 C   0  0  0  0  0  0  0  0  0  0  0  0
   42.6200   34.5210   40.1810 C   0  0  0  0  0  0  0  0  0  0  0  0
   44.0911   36.9392   45.0650 H   0  0  0  0  0  0  0  0  0  0  0  0
   44.3894   36.4541   42.6196 H   0  0  0  0  0  0  0  0  0  0  0  0
   45.6572   33.1501   46.0897 H   0  0  0  0  0  0  0  0  0  0  0  0
   44.7413   33.2411   38.0100 H   0  0  0  0  0  0  0  0  0  0  0  0
   42.7624   34.5388   37.0047 H   0  0  0  0  0  0  0  0  0  0  0  0
   40.5473   35.9194   37.8751 H   0  0  0  0  0  0  0  0  0  0  0  0
   39.3148   36.6361   39.9342 H   0  0  0  0  0  0  0  0  0  0  0  0
   40.2770   35.9470   42.1331 H   0  0  0  0  0  0  0  0  0  0  0  0
   42.3385   34.6254   42.3163 H   0  0  0  0  0  0  0  0  0  0  0  0
  1  5  1  0
  2  1  2  0
  3  8  2  0
  4  3  1  0
  5  4  2  0
  5  6  1  0
  6  7  2  0
  7  8  1  0
  9  1  1  0
 10 18  1  0
 10  9  1  0
 11 10  2  0
 12 11  1  0
 12 13  1  0
 13 18  2  0
 14 13  1  0
 14 15  2  0
 15 16  1  0
 16 17  2  0
 18 17  1  0
  3 19  1  0
  4 20  1  0
  7 21  1  0
 11 22  1  0
 12 23  1  0
 14 24  1  0
 15 25  1  0
 16 26  1  0
 17 27  1  0
M  ISO  8  19  14  20  14  21  14  22  14  23   9  24  14  25  14  26  14
M  ISO  1  27  14
M  END
>  <minimizedAffinity>  (1) 
-5.39188433

>  <minimizedRMSD>  (1) 
5.12494659

$$$$
