
     RDKit          3D

 43 45  0  0  1  0  0  0  0  0999 V2000
   46.9220   31.5640   44.6100 C   0  0  2  0  0  0  0  0  0  0  0  0
   44.6580   36.2840   44.1220 C   0  0  0  0  0  0  0  0  0  0  0  0
   44.5690   35.8160   42.8160 C   0  0  0  0  0  0  0  0  0  0  0  0
   44.8090   34.4350   42.5980 C   0  0  0  0  0  0  0  0  0  0  0  0
   45.0970   33.7650   43.7360 N   0  0  0  0  0  0  0  0  0  0  0  0
   45.1930   34.1280   44.9380 C   0  0  0  0  0  0  0  0  0  0  0  0
   44.9630   35.4350   45.1230 N   0  0  0  0  0  0  0  0  0  0  0  0
   45.5050   33.2850   46.0030 N   0  0  0  0  0  0  0  0  0  0  0  0
   45.1520   33.3930   47.2820 N   0  0  0  0  0  0  0  0  0  0  0  0
   45.6640   32.3690   47.9650 C   0  0  0  0  0  0  0  0  0  0  0  0
   46.3520   31.6090   47.0860 C   0  0  0  0  0  0  0  0  0  0  0  0
   46.2670   32.1800   45.8020 C   0  0  0  0  0  0  0  0  0  0  0  0
   47.8130   32.5930   43.9810 C   0  0  0  0  0  0  0  0  0  0  0  0
   46.0420   30.9910   43.6460 C   0  0  0  0  0  0  0  0  0  0  0  0
   45.8470   29.2050   43.7550 S   0  0  0  0  0  0  0  0  0  0  0  0
   45.8310   28.4590   45.3010 C   0  0  0  0  0  0  0  0  0  0  0  0
   44.5360   28.2370   45.7540 C   0  0  0  0  0  0  0  0  0  0  0  0
   44.2150   27.6360   46.9740 C   0  0  0  0  0  0  0  0  0  0  0  0
   45.2610   27.2440   47.7640 C   0  0  0  0  0  0  0  0  0  0  0  0
   46.5200   27.4570   47.3290 C   0  0  0  0  0  0  0  0  0  0  0  0
   46.8590   28.0560   46.1110 C   0  0  0  0  0  0  0  0  0  0  0  0
   48.2240   28.2320   45.6460 C   0  0  0  0  0  0  0  0  0  0  0  0
   49.0610   29.1360   46.5280 C   0  0  0  0  0  0  0  0  0  0  0  0
   47.4945   30.7001   44.9787 H   0  0  0  0  0  0  0  0  0  0  0  0
   44.4794   37.3476   44.3383 H   0  0  0  0  0  0  0  0  0  0  0  0
   44.3219   36.4909   41.9833 H   0  0  0  0  0  0  0  0  0  0  0  0
   44.7653   33.9594   41.6071 H   0  0  0  0  0  0  0  0  0  0  0  0
   45.5479   32.1789   49.0422 H   0  0  0  0  0  0  0  0  0  0  0  0
   46.8954   30.6856   47.3350 H   0  0  0  0  0  0  0  0  0  0  0  0
   48.3157   33.1735   44.7686 H   0  0  0  0  0  0  0  0  0  0  0  0
   48.5675   32.0923   43.3565 H   0  0  0  0  0  0  0  0  0  0  0  0
   47.2095   33.2681   43.3565 H   0  0  0  0  0  0  0  0  0  0  0  0
   46.4305   31.2307   42.6452 H   0  0  0  0  0  0  0  0  0  0  0  0
   45.0489   31.4199   43.8453 H   0  0  0  0  0  0  0  0  0  0  0  0
   43.7058   28.5567   45.1070 H   0  0  0  0  0  0  0  0  0  0  0  0
   43.1706   27.4852   47.2846 H   0  0  0  0  0  0  0  0  0  0  0  0
   45.0786   26.7637   48.7366 H   0  0  0  0  0  0  0  0  0  0  0  0
   47.3440   27.1347   47.9826 H   0  0  0  0  0  0  0  0  0  0  0  0
   48.7063   27.2442   45.6057 H   0  0  0  0  0  0  0  0  0  0  0  0
   48.1655   28.7139   44.6589 H   0  0  0  0  0  0  0  0  0  0  0  0
   48.8534   28.9118   47.5847 H   0  0  0  0  0  0  0  0  0  0  0  0
   50.1277   28.9661   46.3198 H   0  0  0  0  0  0  0  0  0  0  0  0
   48.8096   30.1865   46.3198 H   0  0  0  0  0  0  0  0  0  0  0  0
  1 12  1  0
  2  7  2  0
  3  2  1  0
  4  3  2  0
  4  5  1  0
  5  6  2  0
  6  7  1  0
  6  8  1  0
  8  9  1  0
  9 10  2  0
 11 10  1  0
 12  8  1  0
 12 11  2  0
 13  1  1  0
 14 15  1  0
 14  1  1  0
 15 16  1  0
 16 17  2  0
 16 21  1  0
 17 18  1  0
 18 19  2  0
 20 19  1  0
 21 20  2  0
 22 21  1  0
 22 23  1  0
  1 24  1  1
  2 25  1  0
  3 26  1  0
  4 27  1  0
 10 28  1  0
 11 29  1  0
 13 30  1  0
 13 31  1  0
 13 32  1  0
 14 33  1  0
 14 34  1  0
 17 35  1  0
 18 36  1  0
 19 37  1  0
 20 38  1  0
 22 39  1  0
 22 40  1  0
 23 41  1  0
 23 42  1  0
 23 43  1  0
M  ISO  8  24   8  25  14  26  14  27  14  28  14  29  14  30   8  31   8
M  ISO  8  32   8  33   8  34   8  35  14  36  14  37  14  38  14  39   8
M  ISO  4  40   8  41   8  42   8  43   8
M  END
>  <minimizedAffinity>  (1) 
-4.14105558

>  <minimizedRMSD>  (1) 
0.865298569

$$$$
