
     RDKit          3D

 20 21  0  0  0  0  0  0  0  0999 V2000
   47.1210   34.6780   42.1070 C   0  0  0  0  0  0  0  0  0  0  0  0
   48.2450   35.2450   42.0400 O   0  0  0  0  0  0  0  0  0  0  0  0
   44.5260   36.0000   44.4860 C   0  0  0  0  0  0  0  0  0  0  0  0
   45.3140   35.9360   43.3240 C   0  0  0  0  0  0  0  0  0  0  0  0
   46.2440   34.8690   43.2460 C   0  0  0  0  0  0  0  0  0  0  0  0
   46.3220   33.9840   44.2750 N   0  0  0  0  0  0  0  0  0  0  0  0
   45.5320   34.1090   45.3630 C   0  0  0  0  0  0  0  0  0  0  0  0
   44.6400   35.1020   45.4760 N   0  0  0  0  0  0  0  0  0  0  0  0
   46.7130   33.8490   41.0590 O   0  0  0  0  0  0  0  0  0  0  0  0
   48.7610   34.8100   38.3380 N   0  0  0  0  0  0  0  0  0  0  0  0
   48.3790   34.8700   39.6040 N   0  0  0  0  0  0  0  0  0  0  0  0
   47.3470   34.0180   39.8140 C   0  0  0  0  0  0  0  0  0  0  0  0
   47.0970   33.4120   38.5980 C   0  0  0  0  0  0  0  0  0  0  0  0
   47.9850   33.9100   37.6730 C   0  0  0  0  0  0  0  0  0  0  0  0
   43.7919   36.8129   44.5869 H   0  0  0  0  0  0  0  0  0  0  0  0
   45.2142   36.6761   42.5163 H   0  0  0  0  0  0  0  0  0  0  0  0
   45.6234   33.3760   46.1781 H   0  0  0  0  0  0  0  0  0  0  0  0
   49.5263   35.3588   37.9207 H   0  0  0  0  0  0  0  0  0  0  0  0
   46.3195   32.6588   38.4025 H   0  0  0  0  0  0  0  0  0  0  0  0
   48.0543   33.6363   36.6099 H   0  0  0  0  0  0  0  0  0  0  0  0
  1  5  1  0
  2  1  2  0
  3  8  2  0
  4  3  1  0
  5  4  2  0
  5  6  1  0
  6  7  2  0
  7  8  1  0
  9  1  1  0
 10 11  1  0
 11 12  2  0
 12  9  1  0
 13 12  1  0
 14 10  1  0
 14 13  2  0
  3 15  1  0
  4 16  1  0
  7 17  1  0
 10 18  1  0
 13 19  1  0
 14 20  1  0
M  ISO  6  15  14  16  14  17  14  18   9  19  14  20  14
M  END
>  <minimizedAffinity>  (1) 
-4.38050318

>  <minimizedRMSD>  (1) 
0.608302832

$$$$
