
     RDKit          3D

 26 27  0  0  0  0  0  0  0  0999 V2000
   45.5160   35.7000   43.1520 C   0  0  0  0  0  0  0  0  0  0  0  0
   46.1380   34.4660   43.3420 C   0  0  0  0  0  0  0  0  0  0  0  0
   45.9260   33.8090   44.5640 C   0  0  0  0  0  0  0  0  0  0  0  0
   45.1340   34.4160   45.4710 N   0  0  0  0  0  0  0  0  0  0  0  0
   44.5440   35.6110   45.2640 C   0  0  0  0  0  0  0  0  0  0  0  0
   44.7310   36.2540   44.1090 N   0  0  0  0  0  0  0  0  0  0  0  0
   46.5140   32.5200   44.8860 C   0  0  0  0  0  0  0  0  0  0  0  0
   47.6130   32.1630   44.3910 O   0  0  0  0  0  0  0  0  0  0  0  0
   45.8470   31.6640   45.7570 O   0  0  0  0  0  0  0  0  0  0  0  0
   46.2990   31.4360   47.0520 C   0  0  0  0  0  0  0  0  0  0  0  0
   47.2340   32.4210   47.6300 C   0  0  0  0  0  0  0  0  0  0  0  0
   47.8440   31.6160   48.7730 C   0  0  0  0  0  0  0  0  0  0  0  0
   48.2850   30.3910   47.9600 C   0  0  0  0  0  0  0  0  0  0  0  0
   47.0570   30.1240   47.1340 C   0  0  0  0  0  0  0  0  0  0  0  0
   45.6658   36.2364   42.2034 H   0  0  0  0  0  0  0  0  0  0  0  0
   46.7730   34.0229   42.5607 H   0  0  0  0  0  0  0  0  0  0  0  0
   43.9098   36.0551   46.0454 H   0  0  0  0  0  0  0  0  0  0  0  0
   45.3568   31.4748   47.6184 H   0  0  0  0  0  0  0  0  0  0  0  0
   47.9980   32.7278   46.9005 H   0  0  0  0  0  0  0  0  0  0  0  0
   46.7602   33.3628   47.9439 H   0  0  0  0  0  0  0  0  0  0  0  0
   48.6944   32.1342   49.2401 H   0  0  0  0  0  0  0  0  0  0  0  0
   47.1825   31.4149   49.6286 H   0  0  0  0  0  0  0  0  0  0  0  0
   49.1540   30.6207   47.3260 H   0  0  0  0  0  0  0  0  0  0  0  0
   48.6081   29.5371   48.5736 H   0  0  0  0  0  0  0  0  0  0  0  0
   46.4349   29.3552   47.6156 H   0  0  0  0  0  0  0  0  0  0  0  0
   47.3238   29.7555   46.1325 H   0  0  0  0  0  0  0  0  0  0  0  0
  1  2  2  0
  1  6  1  0
  2  3  1  0
  3  7  1  0
  3  4  2  0
  5  4  1  0
  6  5  2  0
  7  9  1  0
  8  7  2  0
  9 10  1  0
 10 14  1  0
 10 11  1  0
 11 12  1  0
 13 12  1  0
 14 13  1  0
  1 15  1  0
  2 16  1  0
  5 17  1  0
 10 18  1  0
 11 19  1  0
 11 20  1  0
 12 21  1  0
 12 22  1  0
 13 23  1  0
 13 24  1  0
 14 25  1  0
 14 26  1  0
M  ISO  8  15  14  16  14  17  14  18  13  19  13  20  13  21  13  22  13
M  ISO  4  23  13  24  13  25  13  26  13
M  END
>  <minimizedAffinity>  (1) 
-4.04759884

>  <minimizedRMSD>  (1) 
6.6454258

$$$$
