
     RDKit          3D

 22 22  0  0  0  0  0  0  0  0999 V2000
   44.5270   36.1130   44.5220 C   0  0  0  0  0  0  0  0  0  0  0  0
   45.2120   35.8550   43.3260 C   0  0  0  0  0  0  0  0  0  0  0  0
   46.0060   34.6800   43.2860 C   0  0  0  0  0  0  0  0  0  0  0  0
   46.0590   33.8910   44.3830 N   0  0  0  0  0  0  0  0  0  0  0  0
   45.3750   34.1930   45.5090 C   0  0  0  0  0  0  0  0  0  0  0  0
   44.6140   35.2960   45.5780 N   0  0  0  0  0  0  0  0  0  0  0  0
   46.7630   34.2990   42.1100 C   0  0  0  0  0  0  0  0  0  0  0  0
   46.2930   34.4320   40.9480 O   0  0  0  0  0  0  0  0  0  0  0  0
   48.0470   33.7690   42.2560 O   0  0  0  0  0  0  0  0  0  0  0  0
   49.2080   34.2990   41.7000 C   0  0  0  0  0  0  0  0  0  0  0  0
   50.4730   33.8250   42.3630 C   0  0  0  0  0  0  0  0  0  0  0  0
   49.1260   35.8260   41.7220 C   0  0  0  0  0  0  0  0  0  0  0  0
   43.8996   37.0136   44.5942 H   0  0  0  0  0  0  0  0  0  0  0  0
   45.1374   36.5306   42.4611 H   0  0  0  0  0  0  0  0  0  0  0  0
   45.4431   33.5255   46.3807 H   0  0  0  0  0  0  0  0  0  0  0  0
   49.2649   33.9321   40.6646 H   0  0  0  0  0  0  0  0  0  0  0  0
   50.3534   33.8698   43.4556 H   0  0  0  0  0  0  0  0  0  0  0  0
   50.6800   32.7883   42.0590 H   0  0  0  0  0  0  0  0  0  0  0  0
   51.3103   34.4704   42.0590 H   0  0  0  0  0  0  0  0  0  0  0  0
   49.1071   36.1772   42.7643 H   0  0  0  0  0  0  0  0  0  0  0  0
   50.0028   36.2477   41.2088 H   0  0  0  0  0  0  0  0  0  0  0  0
   48.2091   36.1514   41.2088 H   0  0  0  0  0  0  0  0  0  0  0  0
  1  6  2  0
  2  1  1  0
  3  2  2  0
  3  4  1  0
  4  5  2  0
  5  6  1  0
  7  9  1  0
  7  3  1  0
  8  7  2  0
 10 12  1  0
 10  9  1  0
 10 11  1  0
  1 13  1  0
  2 14  1  0
  5 15  1  0
 10 16  1  0
 11 17  1  0
 11 18  1  0
 11 19  1  0
 12 20  1  0
 12 21  1  0
 12 22  1  0
M  ISO  8  13  14  14  14  15  14  16   8  17   8  18   8  19   8  20   8
M  ISO  2  21   8  22   8
M  END
>  <minimizedAffinity>  (1) 
-4.18383074

>  <minimizedRMSD>  (1) 
2.68181682

$$$$
