
     RDKit          3D

 20 21  0  0  0  0  0  0  0  0999 V2000
   44.4600   35.9580   44.4870 C   0  0  0  0  0  0  0  0  0  0  0  0
   44.7710   35.3680   43.2600 C   0  0  0  0  0  0  0  0  0  0  0  0
   45.3420   34.0760   43.3140 C   0  0  0  0  0  0  0  0  0  0  0  0
   45.5520   33.4980   44.5130 N   0  0  0  0  0  0  0  0  0  0  0  0
   45.2290   34.1230   45.6700 C   0  0  0  0  0  0  0  0  0  0  0  0
   44.6810   35.3580   45.6620 N   0  0  0  0  0  0  0  0  0  0  0  0
   45.7140   33.3420   42.1140 C   0  0  0  0  0  0  0  0  0  0  0  0
   44.8230   32.9630   41.2810 O   0  0  0  0  0  0  0  0  0  0  0  0
   47.0340   33.0410   41.8500 O   0  0  0  0  0  0  0  0  0  0  0  0
   48.0350   34.0030   41.9650 C   0  0  0  0  0  0  0  0  0  0  0  0
   48.0470   35.0400   41.0520 C   0  0  0  0  0  0  0  0  0  0  0  0
   49.1440   35.8270   41.4160 C   0  0  0  0  0  0  0  0  0  0  0  0
   49.7260   35.2240   42.5200 C   0  0  0  0  0  0  0  0  0  0  0  0
   49.0130   34.1360   42.7980 O   0  0  0  0  0  0  0  0  0  0  0  0
   44.0125   36.9629   44.4873 H   0  0  0  0  0  0  0  0  0  0  0  0
   44.5822   35.8800   42.3049 H   0  0  0  0  0  0  0  0  0  0  0  0
   45.4153   33.6184   46.6295 H   0  0  0  0  0  0  0  0  0  0  0  0
   47.3468   35.2094   40.2207 H   0  0  0  0  0  0  0  0  0  0  0  0
   49.4810   36.7494   40.9204 H   0  0  0  0  0  0  0  0  0  0  0  0
   50.6129   35.5793   43.0651 H   0  0  0  0  0  0  0  0  0  0  0  0
  1  6  2  0
  2  3  2  0
  2  1  1  0
  3  4  1  0
  4  5  2  0
  6  5  1  0
  7  3  1  0
  8  7  2  0
  9 10  1  0
  9  7  1  0
 10 14  1  0
 11 12  1  0
 11 10  2  0
 12 13  2  0
 13 14  1  0
  1 15  1  0
  2 16  1  0
  5 17  1  0
 11 18  1  0
 12 19  1  0
 13 20  1  0
M  ISO  6  15  14  16  14  17  14  18  14  19  14  20  14
M  END
>  <minimizedAffinity>  (1) 
-4.33016586

>  <minimizedRMSD>  (1) 
2.8536377

$$$$
