
     RDKit          3D

 19 20  0  0  0  0  0  0  0  0999 V2000
   44.5550   35.8670   44.5380 C   0  0  0  0  0  0  0  0  0  0  0  0
   45.2410   35.9580   43.3290 C   0  0  0  0  0  0  0  0  0  0  0  0
   46.2290   34.9920   43.0720 C   0  0  0  0  0  0  0  0  0  0  0  0
   46.4520   34.0380   44.0090 N   0  0  0  0  0  0  0  0  0  0  0  0
   45.7680   33.9850   45.1670 C   0  0  0  0  0  0  0  0  0  0  0  0
   44.8260   34.8870   45.4380 N   0  0  0  0  0  0  0  0  0  0  0  0
   47.0090   34.9790   41.8530 C   0  0  0  0  0  0  0  0  0  0  0  0
   48.1600   35.5140   41.7980 O   0  0  0  0  0  0  0  0  0  0  0  0
   46.4900   34.3660   40.7080 O   0  0  0  0  0  0  0  0  0  0  0  0
   47.3930   33.7570   39.8460 C   0  0  0  0  0  0  0  0  0  0  0  0
   47.9380   32.5230   40.2700 C   0  0  0  0  0  0  0  0  0  0  0  0
   49.0810   32.0500   38.8540 S   0  0  0  0  0  0  0  0  0  0  0  0
   48.5820   33.6480   37.9560 C   0  0  0  0  0  0  0  0  0  0  0  0
   47.8530   34.1420   38.6490 N   0  0  0  0  0  0  0  0  0  0  0  0
   43.7747   36.6071   44.7692 H   0  0  0  0  0  0  0  0  0  0  0  0
   45.0182   36.7546   42.6039 H   0  0  0  0  0  0  0  0  0  0  0  0
   45.9886   33.1907   45.8953 H   0  0  0  0  0  0  0  0  0  0  0  0
   47.7410   31.9732   41.2021 H   0  0  0  0  0  0  0  0  0  0  0  0
   48.9302   34.0074   36.9764 H   0  0  0  0  0  0  0  0  0  0  0  0
  1  6  2  0
  2  1  1  0
  3  2  2  0
  3  4  1  0
  4  5  2  0
  5  6  1  0
  7  3  1  0
  8  7  2  0
  9  7  1  0
 10 11  2  0
 10  9  1  0
 12 11  1  0
 13 14  2  0
 13 12  1  0
 14 10  1  0
  1 15  1  0
  2 16  1  0
  5 17  1  0
 11 18  1  0
 13 19  1  0
M  ISO  5  15  14  16  14  17  14  18  14  19  14
M  END
>  <minimizedAffinity>  (1) 
-3.98472333

>  <minimizedRMSD>  (1) 
1.04467309

$$$$
