
     RDKit          3D

 36 38  0  0  1  0  0  0  0  0999 V2000
   45.7040   34.6370   41.3370 C   0  0  0  0  0  0  0  0  0  0  0  0
   46.1970   35.2860   42.4780 C   0  0  0  0  0  0  0  0  0  0  0  0
   45.1410   35.6380   43.2290 N   0  0  0  0  0  0  0  0  0  0  0  0
   44.0100   35.2470   42.6260 C   0  0  0  0  0  0  0  0  0  0  0  0
   44.3960   34.6410   41.4750 N   0  0  0  0  0  0  0  0  0  0  0  0
   43.3420   34.1150   40.6130 C   0  0  1  0  0  0  0  0  0  0  0  0
   41.9200   34.2520   40.9710 C   0  0  0  0  0  0  0  0  0  0  0  0
   42.4140   35.1650   39.9550 C   0  0  2  0  0  0  0  0  0  0  0  0
   41.9660   34.9000   38.5490 C   0  0  0  0  0  0  0  0  0  0  0  0
   42.0540   36.1190   37.6650 C   0  0  0  0  0  0  0  0  0  0  0  0
   40.5070   34.4760   38.6240 C   0  0  0  0  0  0  0  0  0  0  0  0
   46.5100   34.1540   40.3690 O   0  0  0  0  0  0  0  0  0  0  0  0
   47.8690   34.1630   40.3930 C   0  0  0  0  0  0  0  0  0  0  0  0
   48.4080   35.2170   39.9850 O   0  0  0  0  0  0  0  0  0  0  0  0
   49.9210   31.8200   42.4480 C   0  0  0  0  0  0  0  0  0  0  0  0
   49.1830   32.9650   42.1380 C   0  0  0  0  0  0  0  0  0  0  0  0
   48.6430   33.0550   40.8470 C   0  0  0  0  0  0  0  0  0  0  0  0
   48.9020   32.0150   40.0450 N   0  0  0  0  0  0  0  0  0  0  0  0
   49.6010   30.9250   40.3290 C   0  0  0  0  0  0  0  0  0  0  0  0
   50.1240   30.8290   41.5660 N   0  0  0  0  0  0  0  0  0  0  0  0
   47.2549   35.4726   42.7145 H   0  0  0  0  0  0  0  0  0  0  0  0
   42.9813   35.3881   42.9891 H   0  0  0  0  0  0  0  0  0  0  0  0
   43.9732   33.2676   40.3070 H   0  0  0  0  0  0  0  0  0  0  0  0
   41.2135   33.4588   40.6851 H   0  0  0  0  0  0  0  0  0  0  0  0
   41.3934   34.3993   41.9255 H   0  0  0  0  0  0  0  0  0  0  0  0
   42.4430   36.2560   39.8177 H   0  0  0  0  0  0  0  0  0  0  0  0
   42.6210   34.1316   38.1126 H   0  0  0  0  0  0  0  0  0  0  0  0
   42.1192   37.0215   38.2904 H   0  0  0  0  0  0  0  0  0  0  0  0
   42.9493   36.0475   37.0299 H   0  0  0  0  0  0  0  0  0  0  0  0
   41.1577   36.1769   37.0299 H   0  0  0  0  0  0  0  0  0  0  0  0
   40.2044   34.3881   39.6779 H   0  0  0  0  0  0  0  0  0  0  0  0
   39.8801   35.2291   38.1242 H   0  0  0  0  0  0  0  0  0  0  0  0
   40.3814   33.5042   38.1242 H   0  0  0  0  0  0  0  0  0  0  0  0
   50.3530   31.7270   43.4553 H   0  0  0  0  0  0  0  0  0  0  0  0
   49.0314   33.7648   42.8778 H   0  0  0  0  0  0  0  0  0  0  0  0
   49.7480   30.1300   39.5831 H   0  0  0  0  0  0  0  0  0  0  0  0
  1  5  1  0
  1  2  2  0
  2  3  1  0
  4  3  2  0
  5  4  1  0
  6  7  1  0
  6  5  1  0
  8  6  1  0
  8  7  1  0
  9 11  1  0
  9  8  1  0
 10  9  1  0
 12 13  1  0
 12  1  1  0
 13 17  1  0
 14 13  2  0
 16 15  2  0
 17 16  1  0
 18 19  1  0
 18 17  2  0
 19 20  2  0
 20 15  1  0
  2 21  1  0
  4 22  1  0
  6 23  1  6
  7 24  1  0
  7 25  1  0
  8 26  1  1
  9 27  1  0
 10 28  1  0
 10 29  1  0
 10 30  1  0
 11 31  1  0
 11 32  1  0
 11 33  1  0
 15 34  1  0
 16 35  1  0
 19 36  1  0
M  ISO  8  21  14  22  14  23  13  24  13  25  13  26  13  27   8  28   8
M  ISO  8  29   8  30   8  31   8  32   8  33   8  34  14  35  14  36  14
M  END
>  <minimizedAffinity>  (1) 
-4.40014648

>  <minimizedRMSD>  (1) 
5.92441368

$$$$
