
     RDKit          3D

 45 48  0  0  1  0  0  0  0  0999 V2000
   45.4300   33.3890   40.4170 C   0  0  0  0  0  0  0  0  0  0  0  0
   44.0950   33.7160   40.7030 C   0  0  0  0  0  0  0  0  0  0  0  0
   43.3900   33.5730   39.5700 N   0  0  0  0  0  0  0  0  0  0  0  0
   44.2280   33.1700   38.5830 C   0  0  0  0  0  0  0  0  0  0  0  0
   45.4380   33.0770   39.1550 N   0  0  0  0  0  0  0  0  0  0  0  0
   46.5330   32.6530   38.2870 C   0  0  1  0  0  0  0  0  0  0  0  0
   46.3250   32.4160   36.8390 C   0  0  0  0  0  0  0  0  0  0  0  0
   47.0030   33.6610   37.2200 C   0  0  2  0  0  0  0  0  0  0  0  0
   48.5180   33.6940   37.0520 C   0  0  0  0  0  0  0  0  0  0  0  0
   48.9930   34.9350   37.3870 F   0  0  0  0  0  0  0  0  0  0  0  0
   49.1000   32.6570   37.7160 F   0  0  0  0  0  0  0  0  0  0  0  0
   48.7550   33.5280   35.6860 F   0  0  0  0  0  0  0  0  0  0  0  0
   46.4090   33.4330   41.3650 O   0  0  0  0  0  0  0  0  0  0  0  0
   46.6490   34.4840   42.1770 C   0  0  0  0  0  0  0  0  0  0  0  0
   47.5130   35.3250   41.7780 O   0  0  0  0  0  0  0  0  0  0  0  0
   44.5070   35.7840   44.9510 C   0  0  0  0  0  0  0  0  0  0  0  0
   45.0940   35.7200   43.7020 C   0  0  0  0  0  0  0  0  0  0  0  0
   45.9720   34.6660   43.4350 C   0  0  0  0  0  0  0  0  0  0  0  0
   46.1620   33.8100   44.4330 N   0  0  0  0  0  0  0  0  0  0  0  0
   45.6080   33.8600   45.6280 C   0  0  0  0  0  0  0  0  0  0  0  0
   44.7690   34.8510   45.9080 N   0  0  0  0  0  0  0  0  0  0  0  0
   45.9350   32.8450   46.5710 N   0  0  0  0  0  0  0  0  0  0  0  0
   45.3760   32.8320   47.8870 C   0  0  0  0  0  0  0  0  0  0  0  0
   44.8130   31.4990   48.2940 C   0  0  0  0  0  0  0  0  0  0  0  0
   45.4500   30.3120   47.6690 C   0  0  0  0  0  0  0  0  0  0  0  0
   45.9370   30.5190   46.2550 C   0  0  0  0  0  0  0  0  0  0  0  0
   46.8460   31.7470   46.3050 C   0  0  0  0  0  0  0  0  0  0  0  0
   43.6985   34.0322   41.6791 H   0  0  0  0  0  0  0  0  0  0  0  0
   43.9699   32.9629   37.5339 H   0  0  0  0  0  0  0  0  0  0  0  0
   46.9759   32.0594   39.1004 H   0  0  0  0  0  0  0  0  0  0  0  0
   45.3072   32.4588   36.4240 H   0  0  0  0  0  0  0  0  0  0  0  0
   46.5802   31.5889   36.1601 H   0  0  0  0  0  0  0  0  0  0  0  0
   46.8401   34.7239   36.9884 H   0  0  0  0  0  0  0  0  0  0  0  0
   43.8127   36.6066   45.1775 H   0  0  0  0  0  0  0  0  0  0  0  0
   44.8758   36.4796   42.9369 H   0  0  0  0  0  0  0  0  0  0  0  0
   46.1653   33.1079   48.6018 H   0  0  0  0  0  0  0  0  0  0  0  0
   44.5396   33.5464   47.8868 H   0  0  0  0  0  0  0  0  0  0  0  0
   44.9212   31.4054   49.3847 H   0  0  0  0  0  0  0  0  0  0  0  0
   43.7692   31.4962   47.9469 H   0  0  0  0  0  0  0  0  0  0  0  0
   46.3121   30.0221   48.2877 H   0  0  0  0  0  0  0  0  0  0  0  0
   44.6705   29.5377   47.6152 H   0  0  0  0  0  0  0  0  0  0  0  0
   45.0876   30.6981   45.5794 H   0  0  0  0  0  0  0  0  0  0  0  0
   46.4705   29.6347   45.8763 H   0  0  0  0  0  0  0  0  0  0  0  0
   47.5892   31.6513   47.1103 H   0  0  0  0  0  0  0  0  0  0  0  0
   47.4205   31.8876   45.3775 H   0  0  0  0  0  0  0  0  0  0  0  0
  1  2  2  0
  1 13  1  0
  3  2  1  0
  4  5  1  0
  4  3  2  0
  5  1  1  0
  6  5  1  0
  7  8  1  0
  7  6  1  0
  8  6  1  0
  9  8  1  0
  9 10  1  0
  9 11  1  0
 12  9  1  0
 13 14  1  0
 14 18  1  0
 15 14  2  0
 16 21  2  0
 17 16  1  0
 18 17  2  0
 18 19  1  0
 19 20  2  0
 20 21  1  0
 20 22  1  0
 22 23  1  0
 23 24  1  0
 25 24  1  0
 26 27  1  0
 26 25  1  0
 27 22  1  0
  2 28  1  0
  4 29  1  0
  6 30  1  1
  7 31  1  0
  7 32  1  0
  8 33  1  1
 16 34  1  0
 17 35  1  0
 23 36  1  0
 23 37  1  0
 24 38  1  0
 24 39  1  0
 25 40  1  0
 25 41  1  0
 26 42  1  0
 26 43  1  0
 27 44  1  0
 27 45  1  0
M  ISO  8  28  14  29  14  30  13  31  13  32  13  33  13  34  14  35  14
M  ISO  8  36  13  37  13  38  13  39  13  40  13  41  13  42  13  43  13
M  ISO  2  44  13  45  13
M  END
>  <minimizedAffinity>  (1) 
-6.30484343

>  <minimizedRMSD>  (1) 
0.331616759

$$$$
