
     RDKit          3D

 39 42  0  0  1  0  0  0  0  0999 V2000
   45.3530   33.3430   40.3710 C   0  0  0  0  0  0  0  0  0  0  0  0
   44.0160   33.6860   40.6390 C   0  0  0  0  0  0  0  0  0  0  0  0
   43.3340   33.5790   39.4880 N   0  0  0  0  0  0  0  0  0  0  0  0
   44.1790   33.1820   38.5080 C   0  0  0  0  0  0  0  0  0  0  0  0
   45.3830   33.0540   39.0900 N   0  0  0  0  0  0  0  0  0  0  0  0
   46.4800   32.6320   38.2320 C   0  0  1  0  0  0  0  0  0  0  0  0
   46.3040   32.4450   36.7750 C   0  0  0  0  0  0  0  0  0  0  0  0
   46.9870   33.6610   37.2070 C   0  0  2  0  0  0  0  0  0  0  0  0
   48.4970   33.6940   37.0570 C   0  0  0  0  0  0  0  0  0  0  0  0
   48.9830   34.9410   37.3870 F   0  0  0  0  0  0  0  0  0  0  0  0
   49.0700   32.6740   37.7640 F   0  0  0  0  0  0  0  0  0  0  0  0
   48.7660   33.5210   35.7030 F   0  0  0  0  0  0  0  0  0  0  0  0
   46.3060   33.3530   41.3370 O   0  0  0  0  0  0  0  0  0  0  0  0
   46.5920   34.3880   42.1310 C   0  0  0  0  0  0  0  0  0  0  0  0
   47.4940   35.1970   41.7090 O   0  0  0  0  0  0  0  0  0  0  0  0
   44.4980   35.7680   44.9050 C   0  0  0  0  0  0  0  0  0  0  0  0
   45.0530   35.6650   43.6440 C   0  0  0  0  0  0  0  0  0  0  0  0
   45.9460   34.6120   43.3910 C   0  0  0  0  0  0  0  0  0  0  0  0
   46.1800   33.7900   44.4200 N   0  0  0  0  0  0  0  0  0  0  0  0
   45.6490   33.8820   45.6390 C   0  0  0  0  0  0  0  0  0  0  0  0
   44.8020   34.8770   45.8860 N   0  0  0  0  0  0  0  0  0  0  0  0
   45.9750   32.9260   46.6890 C   0  0  0  0  0  0  0  0  0  0  0  0
   45.1770   32.7840   47.7890 C   0  0  0  0  0  0  0  0  0  0  0  0
   45.4860   31.8820   48.7780 C   0  0  0  0  0  0  0  0  0  0  0  0
   46.6380   31.1620   48.5590 C   0  0  0  0  0  0  0  0  0  0  0  0
   47.4680   31.2850   47.4530 C   0  0  0  0  0  0  0  0  0  0  0  0
   47.0800   32.1830   46.5560 N   0  0  0  0  0  0  0  0  0  0  0  0
   43.6043   33.9870   41.6137 H   0  0  0  0  0  0  0  0  0  0  0  0
   43.9308   33.0013   37.4517 H   0  0  0  0  0  0  0  0  0  0  0  0
   46.8909   32.0023   39.0349 H   0  0  0  0  0  0  0  0  0  0  0  0
   45.2970   32.5160   36.3380 H   0  0  0  0  0  0  0  0  0  0  0  0
   46.5638   31.6357   36.0767 H   0  0  0  0  0  0  0  0  0  0  0  0
   46.8438   34.7337   37.0101 H   0  0  0  0  0  0  0  0  0  0  0  0
   43.7961   36.5873   45.1196 H   0  0  0  0  0  0  0  0  0  0  0  0
   44.8010   36.3910   42.8569 H   0  0  0  0  0  0  0  0  0  0  0  0
   44.2721   33.4022   47.8842 H   0  0  0  0  0  0  0  0  0  0  0  0
   44.8621   31.7461   49.6737 H   0  0  0  0  0  0  0  0  0  0  0  0
   46.9256   30.4268   49.3250 H   0  0  0  0  0  0  0  0  0  0  0  0
   48.3800   30.6826   47.3292 H   0  0  0  0  0  0  0  0  0  0  0  0
  1  2  2  0
  1 13  1  0
  3  2  1  0
  4  5  1  0
  4  3  2  0
  5  1  1  0
  6  5  1  0
  7  8  1  0
  7  6  1  0
  8  6  1  0
  9  8  1  0
  9 10  1  0
  9 11  1  0
 12  9  1  0
 13 14  1  0
 14 18  1  0
 15 14  2  0
 16 21  2  0
 17 16  1  0
 18 17  2  0
 18 19  1  0
 19 20  2  0
 20 21  1  0
 20 22  1  0
 22 23  2  0
 23 24  1  0
 25 24  2  0
 26 25  1  0
 27 22  1  0
 27 26  2  0
  2 28  1  0
  4 29  1  0
  6 30  1  1
  7 31  1  0
  7 32  1  0
  8 33  1  1
 16 34  1  0
 17 35  1  0
 23 36  1  0
 24 37  1  0
 25 38  1  0
 26 39  1  0
M  ISO  8  28  14  29  14  30  13  31  13  32  13  33  13  34  14  35  14
M  ISO  4  36  14  37  14  38  14  39  14
M  END
>  <minimizedAffinity>  (1) 
-6.15116978

>  <minimizedRMSD>  (1) 
0.48577404

$$$$
