
     RDKit          3D

 46 49  0  0  1  0  0  0  0  0999 V2000
   45.3640   33.3830   40.3920 C   0  0  0  0  0  0  0  0  0  0  0  0
   44.0300   33.7230   40.6770 C   0  0  0  0  0  0  0  0  0  0  0  0
   43.3280   33.6010   39.5320 N   0  0  0  0  0  0  0  0  0  0  0  0
   44.1670   33.1990   38.5460 C   0  0  0  0  0  0  0  0  0  0  0  0
   45.3890   33.0840   39.1270 N   0  0  0  0  0  0  0  0  0  0  0  0
   46.4790   32.6600   38.2660 C   0  0  1  0  0  0  0  0  0  0  0  0
   46.2900   32.4510   36.8090 C   0  0  0  0  0  0  0  0  0  0  0  0
   46.9710   33.6840   37.2250 C   0  0  2  0  0  0  0  0  0  0  0  0
   48.4900   33.7030   37.0780 C   0  0  0  0  0  0  0  0  0  0  0  0
   48.9680   34.9520   37.3980 F   0  0  0  0  0  0  0  0  0  0  0  0
   49.0560   32.6810   37.7590 F   0  0  0  0  0  0  0  0  0  0  0  0
   48.7390   33.5230   35.7100 F   0  0  0  0  0  0  0  0  0  0  0  0
   46.3320   33.4080   41.3480 O   0  0  0  0  0  0  0  0  0  0  0  0
   46.5890   34.4430   42.1600 C   0  0  0  0  0  0  0  0  0  0  0  0
   47.4650   35.2690   41.7580 O   0  0  0  0  0  0  0  0  0  0  0  0
   44.5630   35.8270   44.9890 C   0  0  0  0  0  0  0  0  0  0  0  0
   45.1460   35.7620   43.7320 C   0  0  0  0  0  0  0  0  0  0  0  0
   45.9260   34.6380   43.4290 C   0  0  0  0  0  0  0  0  0  0  0  0
   46.0320   33.7310   44.3900 N   0  0  0  0  0  0  0  0  0  0  0  0
   45.4840   33.7750   45.5940 C   0  0  0  0  0  0  0  0  0  0  0  0
   44.7330   34.8480   45.8990 N   0  0  0  0  0  0  0  0  0  0  0  0
   45.7410   32.6270   46.5280 C   0  0  0  0  0  0  0  0  0  0  0  0
   47.2060   32.3880   46.7490 C   0  0  0  0  0  0  0  0  0  0  0  0
   47.5480   32.2190   48.2140 C   0  0  0  0  0  0  0  0  0  0  0  0
   46.6120   31.2680   48.9090 C   0  0  0  0  0  0  0  0  0  0  0  0
   45.1580   31.5990   48.6450 C   0  0  0  0  0  0  0  0  0  0  0  0
   45.1150   32.8990   47.8920 C   0  0  0  0  0  0  0  0  0  0  0  0
   43.6318   34.0319   41.6547 H   0  0  0  0  0  0  0  0  0  0  0  0
   43.9111   33.0060   37.4937 H   0  0  0  0  0  0  0  0  0  0  0  0
   46.9019   32.0424   39.0720 H   0  0  0  0  0  0  0  0  0  0  0  0
   45.2787   32.5089   36.3801 H   0  0  0  0  0  0  0  0  0  0  0  0
   46.5492   31.6353   36.1180 H   0  0  0  0  0  0  0  0  0  0  0  0
   46.8189   34.7526   37.0129 H   0  0  0  0  0  0  0  0  0  0  0  0
   43.9463   36.6998   45.2495 H   0  0  0  0  0  0  0  0  0  0  0  0
   45.0007   36.5670   42.9966 H   0  0  0  0  0  0  0  0  0  0  0  0
   45.2945   31.7409   46.0532 H   0  0  0  0  0  0  0  0  0  0  0  0
   47.5005   31.4755   46.2098 H   0  0  0  0  0  0  0  0  0  0  0  0
   47.7497   33.2689   46.3769 H   0  0  0  0  0  0  0  0  0  0  0  0
   48.5737   31.8301   48.2960 H   0  0  0  0  0  0  0  0  0  0  0  0
   47.4531   33.2018   48.6989 H   0  0  0  0  0  0  0  0  0  0  0  0
   46.8135   30.2477   48.5506 H   0  0  0  0  0  0  0  0  0  0  0  0
   46.7862   31.3545   49.9917 H   0  0  0  0  0  0  0  0  0  0  0  0
   44.6955   30.8023   48.0438 H   0  0  0  0  0  0  0  0  0  0  0  0
   44.6040   31.6834   49.5915 H   0  0  0  0  0  0  0  0  0  0  0  0
   45.6901   33.6684   48.4280 H   0  0  0  0  0  0  0  0  0  0  0  0
   44.0836   33.2677   47.7912 H   0  0  0  0  0  0  0  0  0  0  0  0
  1  2  2  0
  1 13  1  0
  3  2  1  0
  4  5  1  0
  4  3  2  0
  5  1  1  0
  6  5  1  0
  7  8  1  0
  7  6  1  0
  8  6  1  0
  9  8  1  0
  9 10  1  0
  9 11  1  0
 12  9  1  0
 13 14  1  0
 14 18  1  0
 15 14  2  0
 16 21  2  0
 17 16  1  0
 18 17  2  0
 18 19  1  0
 19 20  2  0
 20 21  1  0
 20 22  1  0
 22 23  1  0
 22 27  1  0
 23 24  1  0
 24 25  1  0
 26 25  1  0
 27 26  1  0
  2 28  1  0
  4 29  1  0
  6 30  1  1
  7 31  1  0
  7 32  1  0
  8 33  1  1
 16 34  1  0
 17 35  1  0
 22 36  1  0
 23 37  1  0
 23 38  1  0
 24 39  1  0
 24 40  1  0
 25 41  1  0
 25 42  1  0
 26 43  1  0
 26 44  1  0
 27 45  1  0
 27 46  1  0
M  ISO  8  28  14  29  14  30  13  31  13  32  13  33  13  34  14  35  14
M  ISO  8  36  13  37  13  38  13  39  13  40  13  41  13  42  13  43  13
M  ISO  3  44  13  45  13  46  13
M  END
>  <minimizedAffinity>  (1) 
-6.22188044

>  <minimizedRMSD>  (1) 
0.633917272

$$$$
