
     RDKit          3D

 37 40  0  0  1  0  0  0  0  0999 V2000
   45.2910   33.3170   40.3540 C   0  0  0  0  0  0  0  0  0  0  0  0
   43.9570   33.6550   40.5950 C   0  0  0  0  0  0  0  0  0  0  0  0
   43.2950   33.5610   39.4270 N   0  0  0  0  0  0  0  0  0  0  0  0
   44.1630   33.1780   38.4660 C   0  0  0  0  0  0  0  0  0  0  0  0
   45.3650   33.0440   39.0870 N   0  0  0  0  0  0  0  0  0  0  0  0
   46.4750   32.6340   38.2490 C   0  0  1  0  0  0  0  0  0  0  0  0
   46.3200   32.4040   36.7950 C   0  0  0  0  0  0  0  0  0  0  0  0
   46.9670   33.6610   37.1880 C   0  0  2  0  0  0  0  0  0  0  0  0
   48.4890   33.7120   37.0690 C   0  0  0  0  0  0  0  0  0  0  0  0
   48.9380   34.9680   37.3900 F   0  0  0  0  0  0  0  0  0  0  0  0
   49.0690   32.7140   37.7810 F   0  0  0  0  0  0  0  0  0  0  0  0
   48.7650   33.5230   35.7110 F   0  0  0  0  0  0  0  0  0  0  0  0
   46.2320   33.3160   41.3500 O   0  0  0  0  0  0  0  0  0  0  0  0
   46.5550   34.3850   42.1060 C   0  0  0  0  0  0  0  0  0  0  0  0
   47.4700   35.1430   41.6640 O   0  0  0  0  0  0  0  0  0  0  0  0
   44.4440   35.8900   44.7950 C   0  0  0  0  0  0  0  0  0  0  0  0
   45.0130   35.7200   43.5440 C   0  0  0  0  0  0  0  0  0  0  0  0
   45.9030   34.6630   43.3550 C   0  0  0  0  0  0  0  0  0  0  0  0
   46.1130   33.9150   44.4280 N   0  0  0  0  0  0  0  0  0  0  0  0
   45.5870   34.0530   45.6340 C   0  0  0  0  0  0  0  0  0  0  0  0
   44.7290   35.0680   45.8230 N   0  0  0  0  0  0  0  0  0  0  0  0
   45.9870   33.0940   46.6370 N   0  0  0  0  0  0  0  0  0  0  0  0
   45.0670   32.9450   47.5990 N   0  0  0  0  0  0  0  0  0  0  0  0
   45.4920   32.0470   48.4980 C   0  0  0  0  0  0  0  0  0  0  0  0
   46.7420   31.6150   48.0710 C   0  0  0  0  0  0  0  0  0  0  0  0
   47.0520   32.2830   46.8890 C   0  0  0  0  0  0  0  0  0  0  0  0
   43.5257   33.9455   41.5643 H   0  0  0  0  0  0  0  0  0  0  0  0
   43.9431   33.0094   37.4015 H   0  0  0  0  0  0  0  0  0  0  0  0
   46.8950   32.0373   39.0722 H   0  0  0  0  0  0  0  0  0  0  0  0
   45.3149   32.4312   36.3488 H   0  0  0  0  0  0  0  0  0  0  0  0
   46.6119   31.5817   36.1252 H   0  0  0  0  0  0  0  0  0  0  0  0
   46.7960   34.7208   36.9479 H   0  0  0  0  0  0  0  0  0  0  0  0
   43.7394   36.7197   44.9535 H   0  0  0  0  0  0  0  0  0  0  0  0
   44.7684   36.4035   42.7176 H   0  0  0  0  0  0  0  0  0  0  0  0
   44.9555   31.7158   49.3994 H   0  0  0  0  0  0  0  0  0  0  0  0
   47.3766   30.8738   48.5787 H   0  0  0  0  0  0  0  0  0  0  0  0
   47.9655   32.1778   46.2853 H   0  0  0  0  0  0  0  0  0  0  0  0
  1  2  2  0
  1 13  1  0
  3  2  1  0
  4  5  1  0
  4  3  2  0
  5  1  1  0
  6  5  1  0
  7  8  1  0
  7  6  1  0
  8  6  1  0
  9  8  1  0
  9 10  1  0
  9 11  1  0
 12  9  1  0
 13 14  1  0
 14 18  1  0
 15 14  2  0
 16 21  2  0
 17 16  1  0
 18 17  2  0
 18 19  1  0
 19 20  2  0
 20 21  1  0
 20 22  1  0
 22 26  1  0
 22 23  1  0
 23 24  2  0
 25 24  1  0
 26 25  2  0
  2 27  1  0
  4 28  1  0
  6 29  1  1
  7 30  1  0
  7 31  1  0
  8 32  1  1
 16 33  1  0
 17 34  1  0
 24 35  1  0
 25 36  1  0
 26 37  1  0
M  ISO  8  27  14  28  14  29  13  30  13  31  13  32  13  33  14  34  14
M  ISO  3  35  14  36  14  37  14
M  END
>  <minimizedAffinity>  (1) 
-6.09126616

>  <minimizedRMSD>  (1) 
0.322815895

$$$$
