
     RDKit          3D

 36 39  0  0  1  0  0  0  0  0999 V2000
   45.3190   33.3320   40.3630 C   0  0  0  0  0  0  0  0  0  0  0  0
   43.9800   33.6630   40.6050 C   0  0  0  0  0  0  0  0  0  0  0  0
   43.3080   33.5570   39.4450 N   0  0  0  0  0  0  0  0  0  0  0  0
   44.1730   33.1710   38.4790 C   0  0  0  0  0  0  0  0  0  0  0  0
   45.3630   33.0520   39.0900 N   0  0  0  0  0  0  0  0  0  0  0  0
   46.4850   32.6380   38.2490 C   0  0  1  0  0  0  0  0  0  0  0  0
   46.3090   32.3720   36.7970 C   0  0  0  0  0  0  0  0  0  0  0  0
   46.9390   33.6390   37.1700 C   0  0  2  0  0  0  0  0  0  0  0  0
   48.4670   33.7070   37.0400 C   0  0  0  0  0  0  0  0  0  0  0  0
   48.9100   34.9570   37.3770 F   0  0  0  0  0  0  0  0  0  0  0  0
   49.0570   32.6830   37.7270 F   0  0  0  0  0  0  0  0  0  0  0  0
   48.7430   33.5340   35.6800 F   0  0  0  0  0  0  0  0  0  0  0  0
   46.2670   33.3430   41.3420 O   0  0  0  0  0  0  0  0  0  0  0  0
   46.5680   34.4120   42.1090 C   0  0  0  0  0  0  0  0  0  0  0  0
   47.4810   35.1740   41.6720 O   0  0  0  0  0  0  0  0  0  0  0  0
   44.4500   35.9120   44.8100 C   0  0  0  0  0  0  0  0  0  0  0  0
   45.0250   35.7580   43.5590 C   0  0  0  0  0  0  0  0  0  0  0  0
   45.9030   34.6890   43.3570 C   0  0  0  0  0  0  0  0  0  0  0  0
   46.1030   33.9050   44.4150 N   0  0  0  0  0  0  0  0  0  0  0  0
   45.5660   34.0320   45.6200 C   0  0  0  0  0  0  0  0  0  0  0  0
   44.7210   35.0600   45.8120 N   0  0  0  0  0  0  0  0  0  0  0  0
   45.8490   33.1330   46.6910 N   0  0  0  0  0  0  0  0  0  0  0  0
   46.9430   32.3680   46.8630 C   0  0  0  0  0  0  0  0  0  0  0  0
   46.8110   31.6600   48.0130 N   0  0  0  0  0  0  0  0  0  0  0  0
   45.6100   32.0020   48.5540 C   0  0  0  0  0  0  0  0  0  0  0  0
   45.0290   32.9110   47.7250 N   0  0  0  0  0  0  0  0  0  0  0  0
   43.5525   33.9582   41.5746 H   0  0  0  0  0  0  0  0  0  0  0  0
   43.9488   32.9923   37.4170 H   0  0  0  0  0  0  0  0  0  0  0  0
   46.9302   32.0699   39.0791 H   0  0  0  0  0  0  0  0  0  0  0  0
   45.2978   32.3767   36.3641 H   0  0  0  0  0  0  0  0  0  0  0  0
   46.6015   31.5435   36.1351 H   0  0  0  0  0  0  0  0  0  0  0  0
   46.7459   34.6907   36.9120 H   0  0  0  0  0  0  0  0  0  0  0  0
   43.7579   36.7486   44.9860 H   0  0  0  0  0  0  0  0  0  0  0  0
   44.7961   36.4603   42.7439 H   0  0  0  0  0  0  0  0  0  0  0  0
   47.8051   32.3239   46.1812 H   0  0  0  0  0  0  0  0  0  0  0  0
   45.1858   31.6138   49.4917 H   0  0  0  0  0  0  0  0  0  0  0  0
  1  2  2  0
  1 13  1  0
  3  2  1  0
  4  5  1  0
  4  3  2  0
  5  1  1  0
  6  5  1  0
  7  8  1  0
  7  6  1  0
  8  6  1  0
  9  8  1  0
  9 10  1  0
  9 11  1  0
 12  9  1  0
 13 14  1  0
 14 18  1  0
 15 14  2  0
 16 21  2  0
 17 16  1  0
 18 17  2  0
 18 19  1  0
 19 20  2  0
 20 21  1  0
 20 22  1  0
 22 23  1  0
 22 26  1  0
 23 24  2  0
 24 25  1  0
 26 25  2  0
  2 27  1  0
  4 28  1  0
  6 29  1  1
  7 30  1  0
  7 31  1  0
  8 32  1  1
 16 33  1  0
 17 34  1  0
 23 35  1  0
 25 36  1  0
M  ISO  8  27  14  28  14  29  13  30  13  31  13  32  13  33  14  34  14
M  ISO  2  35  14  36  14
M  END
>  <minimizedAffinity>  (1) 
-6.05811262

>  <minimizedRMSD>  (1) 
0.282066435

$$$$
