
     RDKit          3D

 37 40  0  0  1  0  0  0  0  0999 V2000
   45.3340   33.3450   40.3900 C   0  0  0  0  0  0  0  0  0  0  0  0
   43.9980   33.6790   40.6470 C   0  0  0  0  0  0  0  0  0  0  0  0
   43.3280   33.5640   39.4900 N   0  0  0  0  0  0  0  0  0  0  0  0
   44.1950   33.1710   38.5220 C   0  0  0  0  0  0  0  0  0  0  0  0
   45.3910   33.0540   39.1180 N   0  0  0  0  0  0  0  0  0  0  0  0
   46.4940   32.6410   38.2780 C   0  0  1  0  0  0  0  0  0  0  0  0
   46.3270   32.3860   36.8230 C   0  0  0  0  0  0  0  0  0  0  0  0
   46.9660   33.6630   37.2040 C   0  0  2  0  0  0  0  0  0  0  0  0
   48.4920   33.7150   37.0720 C   0  0  0  0  0  0  0  0  0  0  0  0
   48.9310   34.9710   37.3930 F   0  0  0  0  0  0  0  0  0  0  0  0
   49.0780   32.7070   37.7590 F   0  0  0  0  0  0  0  0  0  0  0  0
   48.7490   33.5400   35.7160 F   0  0  0  0  0  0  0  0  0  0  0  0
   46.2940   33.3610   41.3690 O   0  0  0  0  0  0  0  0  0  0  0  0
   46.5760   34.4270   42.1470 C   0  0  0  0  0  0  0  0  0  0  0  0
   47.4950   35.2050   41.7200 O   0  0  0  0  0  0  0  0  0  0  0  0
   44.4600   35.9120   44.8400 C   0  0  0  0  0  0  0  0  0  0  0  0
   45.0440   35.7740   43.5880 C   0  0  0  0  0  0  0  0  0  0  0  0
   45.9030   34.6940   43.3860 C   0  0  0  0  0  0  0  0  0  0  0  0
   46.0750   33.8990   44.4310 N   0  0  0  0  0  0  0  0  0  0  0  0
   45.5290   34.0150   45.6250 C   0  0  0  0  0  0  0  0  0  0  0  0
   44.7040   35.0410   45.8380 N   0  0  0  0  0  0  0  0  0  0  0  0
   45.8550   33.0310   46.6260 N   0  0  0  0  0  0  0  0  0  0  0  0
   45.2750   32.7140   47.7970 C   0  0  0  0  0  0  0  0  0  0  0  0
   46.0600   31.6730   48.3070 C   0  0  0  0  0  0  0  0  0  0  0  0
   47.0520   31.4180   47.4390 N   0  0  0  0  0  0  0  0  0  0  0  0
   46.9330   32.2640   46.3790 C   0  0  0  0  0  0  0  0  0  0  0  0
   43.5763   33.9798   41.6174 H   0  0  0  0  0  0  0  0  0  0  0  0
   43.9634   32.9859   37.4627 H   0  0  0  0  0  0  0  0  0  0  0  0
   46.9272   32.0566   39.1031 H   0  0  0  0  0  0  0  0  0  0  0  0
   45.3181   32.3960   36.3847 H   0  0  0  0  0  0  0  0  0  0  0  0
   46.6217   31.5594   36.1598 H   0  0  0  0  0  0  0  0  0  0  0  0
   46.7814   34.7191   36.9580 H   0  0  0  0  0  0  0  0  0  0  0  0
   43.7789   36.7564   45.0220 H   0  0  0  0  0  0  0  0  0  0  0  0
   44.8360   36.4929   42.7818 H   0  0  0  0  0  0  0  0  0  0  0  0
   44.3836   33.1703   48.2522 H   0  0  0  0  0  0  0  0  0  0  0  0
   45.8919   31.1508   49.2604 H   0  0  0  0  0  0  0  0  0  0  0  0
   47.5877   32.3113   45.4963 H   0  0  0  0  0  0  0  0  0  0  0  0
  1  2  2  0
  1 13  1  0
  3  2  1  0
  4  5  1  0
  4  3  2  0
  5  1  1  0
  6  5  1  0
  7  8  1  0
  7  6  1  0
  8  6  1  0
  9  8  1  0
  9 10  1  0
  9 11  1  0
 12  9  1  0
 13 14  1  0
 14 18  1  0
 15 14  2  0
 16 21  2  0
 17 16  1  0
 18 17  2  0
 18 19  1  0
 19 20  2  0
 20 21  1  0
 20 22  1  0
 22 23  1  0
 23 24  2  0
 25 24  1  0
 26 22  1  0
 26 25  2  0
  2 27  1  0
  4 28  1  0
  6 29  1  1
  7 30  1  0
  7 31  1  0
  8 32  1  1
 16 33  1  0
 17 34  1  0
 23 35  1  0
 24 36  1  0
 26 37  1  0
M  ISO  8  27  14  28  14  29  13  30  13  31  13  32  13  33  14  34  14
M  ISO  3  35  14  36  14  37  14
M  END
>  <minimizedAffinity>  (1) 
-5.97892904

>  <minimizedRMSD>  (1) 
0.25973621

$$$$
