
     RDKit          3D

 48 52  0  0  1  0  0  0  0  0999 V2000
   47.0330   34.7840   41.9550 C   0  0  0  0  0  0  0  0  0  0  0  0
   47.9570   35.6040   41.6860 O   0  0  0  0  0  0  0  0  0  0  0  0
   44.5170   35.9600   44.4520 C   0  0  0  0  0  0  0  0  0  0  0  0
   45.2230   35.9050   43.2690 C   0  0  0  0  0  0  0  0  0  0  0  0
   46.2140   34.9480   43.1270 C   0  0  0  0  0  0  0  0  0  0  0  0
   46.3840   34.1490   44.1980 N   0  0  0  0  0  0  0  0  0  0  0  0
   45.6970   34.2060   45.3460 C   0  0  0  0  0  0  0  0  0  0  0  0
   44.7690   35.1170   45.4550 N   0  0  0  0  0  0  0  0  0  0  0  0
   46.3280   33.1300   46.0540 C   0  0  0  0  0  0  0  0  0  0  0  0
   46.8630   32.2170   46.6540 N   0  0  0  0  0  0  0  0  0  0  0  0
   47.4700   31.4770   47.4030 C   0  0  0  0  0  0  0  0  0  0  0  0
   47.1010   30.4720   46.6010 N   0  0  0  0  0  0  0  0  0  0  0  0
   46.3410   30.6750   45.4860 C   0  0  0  0  0  0  0  0  0  0  0  0
   46.0490   29.4830   44.7660 C   0  0  0  0  0  0  0  0  0  0  0  0
   45.2840   29.6570   43.6500 C   0  0  0  0  0  0  0  0  0  0  0  0
   44.7940   30.8570   43.1890 C   0  0  0  0  0  0  0  0  0  0  0  0
   45.1670   31.9010   43.9970 C   0  0  0  0  0  0  0  0  0  0  0  0
   45.9410   32.0120   45.1950 C   0  0  0  0  0  0  0  0  0  0  0  0
   46.8700   33.7720   41.1000 O   0  0  0  0  0  0  0  0  0  0  0  0
   45.7890   33.5900   40.2930 C   0  0  0  0  0  0  0  0  0  0  0  0
   44.4890   33.9260   40.6960 C   0  0  0  0  0  0  0  0  0  0  0  0
   43.6620   33.6260   39.6800 N   0  0  0  0  0  0  0  0  0  0  0  0
   44.3930   33.1140   38.6550 C   0  0  0  0  0  0  0  0  0  0  0  0
   45.6730   33.1170   39.0820 N   0  0  0  0  0  0  0  0  0  0  0  0
   46.6650   32.6040   38.1510 C   0  0  1  0  0  0  0  0  0  0  0  0
   46.3580   32.4570   36.7020 C   0  0  0  0  0  0  0  0  0  0  0  0
   47.1780   33.6120   37.0800 C   0  0  2  0  0  0  0  0  0  0  0  0
   48.6890   33.4750   36.8430 C   0  0  0  0  0  0  0  0  0  0  0  0
   49.3030   34.6410   37.2020 F   0  0  0  0  0  0  0  0  0  0  0  0
   49.1710   32.3550   37.4260 F   0  0  0  0  0  0  0  0  0  0  0  0
   48.8390   33.3600   35.4580 F   0  0  0  0  0  0  0  0  0  0  0  0
   43.7275   36.7166   44.5717 H   0  0  0  0  0  0  0  0  0  0  0  0
   45.0031   36.6086   42.4526 H   0  0  0  0  0  0  0  0  0  0  0  0
   45.3826   32.9183   46.5749 H   0  0  0  0  0  0  0  0  0  0  0  0
   45.9865   31.6832   46.7419 H   0  0  0  0  0  0  0  0  0  0  0  0
   48.5545   31.6558   47.4474 H   0  0  0  0  0  0  0  0  0  0  0  0
   47.2761   31.4584   48.4856 H   0  0  0  0  0  0  0  0  0  0  0  0
   47.4002   29.5140   46.8326 H   0  0  0  0  0  0  0  0  0  0  0  0
   46.4128   28.4952   45.0853 H   0  0  0  0  0  0  0  0  0  0  0  0
   45.0369   28.7577   43.0667 H   0  0  0  0  0  0  0  0  0  0  0  0
   44.1787   30.9660   42.2837 H   0  0  0  0  0  0  0  0  0  0  0  0
   44.7852   32.8705   43.6446 H   0  0  0  0  0  0  0  0  0  0  0  0
   44.1990   34.3563   41.6659 H   0  0  0  0  0  0  0  0  0  0  0  0
   44.0189   32.7689   37.6799 H   0  0  0  0  0  0  0  0  0  0  0  0
   47.0829   31.9306   38.9138 H   0  0  0  0  0  0  0  0  0  0  0  0
   45.3286   32.6182   36.3494 H   0  0  0  0  0  0  0  0  0  0  0  0
   46.4929   31.6381   35.9801 H   0  0  0  0  0  0  0  0  0  0  0  0
   47.1104   34.6924   36.8848 H   0  0  0  0  0  0  0  0  0  0  0  0
  1  5  1  0
  2  1  2  0
  3  8  2  0
  4  3  1  0
  5  4  2  0
  5  6  1  0
  6  7  2  0
  7  8  1  0
  9  7  1  0
  9 10  1  0
 10 11  1  0
 12 11  1  0
 13 12  1  0
 14 13  2  0
 15 14  1  0
 16 15  2  0
 16 17  1  0
 17 18  2  0
 18 13  1  0
 18  9  1  0
 19  1  1  0
 20 21  2  0
 20 19  1  0
 22 21  1  0
 23 24  1  0
 23 22  2  0
 24 20  1  0
 25 24  1  0
 26 27  1  0
 26 25  1  0
 27 25  1  0
 28 27  1  0
 28 29  1  0
 28 30  1  0
 31 28  1  0
  3 32  1  0
  4 33  1  0
  9 34  1  0
 10 35  1  0
 11 36  1  0
 11 37  1  0
 12 38  1  0
 14 39  1  0
 15 40  1  0
 16 41  1  0
 17 42  1  0
 21 43  1  0
 23 44  1  0
 25 45  1  1
 26 46  1  0
 26 47  1  0
 27 48  1  1
M  ISO  8  32  14  33  14  34  13  35   5  36  13  37  13  39  14  40  14
M  ISO  8  41  14  42  14  43  14  44  14  45  13  46  13  47  13  48  13
M  END
>  <minimizedAffinity>  (1) 
-5.93935204

>  <minimizedRMSD>  (1) 
0.503550887

$$$$
