
     RDKit          3D

 33 35  0  0  1  0  0  0  0  0999 V2000
   45.4410   33.4480   40.3360 C   0  0  0  0  0  0  0  0  0  0  0  0
   44.1230   33.7940   40.6280 C   0  0  0  0  0  0  0  0  0  0  0  0
   43.3950   33.6420   39.5100 N   0  0  0  0  0  0  0  0  0  0  0  0
   44.2230   33.2090   38.5240 C   0  0  0  0  0  0  0  0  0  0  0  0
   45.4450   33.1090   39.0740 N   0  0  0  0  0  0  0  0  0  0  0  0
   46.5130   32.6600   38.2040 C   0  0  1  0  0  0  0  0  0  0  0  0
   46.3290   32.5530   36.7360 C   0  0  0  0  0  0  0  0  0  0  0  0
   47.0830   33.7110   37.2210 C   0  0  2  0  0  0  0  0  0  0  0  0
   48.6040   33.6310   37.0850 C   0  0  0  0  0  0  0  0  0  0  0  0
   49.1530   34.8520   37.3780 F   0  0  0  0  0  0  0  0  0  0  0  0
   49.1030   32.5920   37.8170 F   0  0  0  0  0  0  0  0  0  0  0  0
   48.8600   33.3960   35.7400 F   0  0  0  0  0  0  0  0  0  0  0  0
   46.4420   33.4960   41.2700 O   0  0  0  0  0  0  0  0  0  0  0  0
   46.6850   34.5490   42.0790 C   0  0  0  0  0  0  0  0  0  0  0  0
   47.5960   35.3470   41.6910 O   0  0  0  0  0  0  0  0  0  0  0  0
   44.5090   35.9530   44.7650 C   0  0  0  0  0  0  0  0  0  0  0  0
   45.1220   35.8580   43.5300 C   0  0  0  0  0  0  0  0  0  0  0  0
   45.9780   34.7820   43.3070 C   0  0  0  0  0  0  0  0  0  0  0  0
   46.1220   33.9360   44.3300 N   0  0  0  0  0  0  0  0  0  0  0  0
   45.5430   34.0180   45.5110 C   0  0  0  0  0  0  0  0  0  0  0  0
   44.7230   35.0350   45.7420 N   0  0  0  0  0  0  0  0  0  0  0  0
   45.7980   32.9960   46.5620 C   0  0  0  0  0  0  0  0  0  0  0  0
   45.6740   31.7320   46.0310 F   0  0  0  0  0  0  0  0  0  0  0  0
   44.9140   33.1090   47.6060 F   0  0  0  0  0  0  0  0  0  0  0  0
   47.1180   33.0870   47.0060 F   0  0  0  0  0  0  0  0  0  0  0  0
   43.7450   34.1325   41.6040 H   0  0  0  0  0  0  0  0  0  0  0  0
   43.9480   32.9849   37.4828 H   0  0  0  0  0  0  0  0  0  0  0  0
   46.8843   31.9694   38.9755 H   0  0  0  0  0  0  0  0  0  0  0  0
   45.3282   32.7018   36.3044 H   0  0  0  0  0  0  0  0  0  0  0  0
   46.5434   31.7630   36.0012 H   0  0  0  0  0  0  0  0  0  0  0  0
   47.0034   34.7973   37.0676 H   0  0  0  0  0  0  0  0  0  0  0  0
   43.8293   36.7952   44.9617 H   0  0  0  0  0  0  0  0  0  0  0  0
   44.9395   36.6090   42.7472 H   0  0  0  0  0  0  0  0  0  0  0  0
  1  2  2  0
  1 13  1  0
  3  2  1  0
  4  5  1  0
  4  3  2  0
  5  1  1  0
  6  5  1  0
  7  8  1  0
  7  6  1  0
  8  6  1  0
  9  8  1  0
  9 10  1  0
  9 11  1  0
 12  9  1  0
 13 14  1  0
 14 18  1  0
 15 14  2  0
 16 21  2  0
 17 16  1  0
 18 17  2  0
 18 19  1  0
 19 20  2  0
 20 21  1  0
 20 22  1  0
 22 25  1  0
 22 24  1  0
 23 22  1  0
  2 26  1  0
  4 27  1  0
  6 28  1  1
  7 29  1  0
  7 30  1  0
  8 31  1  1
 16 32  1  0
 17 33  1  0
M  ISO  8  26  14  27  14  28  13  29  13  30  13  31  13  32  14  33  14
M  END
>  <minimizedAffinity>  (1) 
-5.69298792

>  <minimizedRMSD>  (1) 
0.422179759

$$$$
