
     RDKit          3D

 37 40  0  0  1  0  0  0  0  0999 V2000
   45.4240   33.4980   40.4900 C   0  0  0  0  0  0  0  0  0  0  0  0
   44.1000   33.8570   40.7970 C   0  0  0  0  0  0  0  0  0  0  0  0
   43.3670   33.7250   39.6750 N   0  0  0  0  0  0  0  0  0  0  0  0
   44.1710   33.2990   38.6790 C   0  0  0  0  0  0  0  0  0  0  0  0
   45.3930   33.1810   39.2270 N   0  0  0  0  0  0  0  0  0  0  0  0
   46.4530   32.7290   38.3420 C   0  0  1  0  0  0  0  0  0  0  0  0
   46.2330   32.5130   36.8880 C   0  0  0  0  0  0  0  0  0  0  0  0
   46.9500   33.7280   37.2740 C   0  0  2  0  0  0  0  0  0  0  0  0
   48.4680   33.7070   37.0950 C   0  0  0  0  0  0  0  0  0  0  0  0
   48.9840   34.9370   37.4050 F   0  0  0  0  0  0  0  0  0  0  0  0
   49.0250   32.6760   37.7650 F   0  0  0  0  0  0  0  0  0  0  0  0
   48.6810   33.5130   35.7240 F   0  0  0  0  0  0  0  0  0  0  0  0
   46.4180   33.5270   41.4240 O   0  0  0  0  0  0  0  0  0  0  0  0
   46.6180   34.5210   42.3120 C   0  0  0  0  0  0  0  0  0  0  0  0
   47.4070   35.4500   41.9400 O   0  0  0  0  0  0  0  0  0  0  0  0
   44.5810   35.4840   45.2950 C   0  0  0  0  0  0  0  0  0  0  0  0
   45.1140   35.5750   44.0210 C   0  0  0  0  0  0  0  0  0  0  0  0
   45.9940   34.5560   43.6010 C   0  0  0  0  0  0  0  0  0  0  0  0
   46.2340   33.5880   44.4820 N   0  0  0  0  0  0  0  0  0  0  0  0
   45.7230   33.5010   45.7040 C   0  0  0  0  0  0  0  0  0  0  0  0
   44.8880   34.4560   46.1180 N   0  0  0  0  0  0  0  0  0  0  0  0
   46.0740   32.3560   46.6020 C   0  0  0  0  0  0  0  0  0  0  0  0
   47.0690   32.4840   47.6700 C   0  0  0  0  0  0  0  0  0  0  0  0
   45.6490   32.5430   48.0940 C   0  0  0  0  0  0  0  0  0  0  0  0
   43.7289   34.1869   41.7786 H   0  0  0  0  0  0  0  0  0  0  0  0
   43.8864   33.0916   37.6369 H   0  0  0  0  0  0  0  0  0  0  0  0
   46.8755   32.1113   39.1482 H   0  0  0  0  0  0  0  0  0  0  0  0
   45.2158   32.5926   36.4770 H   0  0  0  0  0  0  0  0  0  0  0  0
   46.4596   31.6841   36.2013 H   0  0  0  0  0  0  0  0  0  0  0  0
   46.8202   34.7974   37.0514 H   0  0  0  0  0  0  0  0  0  0  0  0
   43.8917   36.2660   45.6462 H   0  0  0  0  0  0  0  0  0  0  0  0
   44.8596   36.4147   43.3576 H   0  0  0  0  0  0  0  0  0  0  0  0
   45.9445   31.6267   45.7888 H   0  0  0  0  0  0  0  0  0  0  0  0
   47.6778   31.6105   47.9464 H   0  0  0  0  0  0  0  0  0  0  0  0
   47.9292   33.1525   47.8222 H   0  0  0  0  0  0  0  0  0  0  0  0
   45.2079   33.4920   48.4327 H   0  0  0  0  0  0  0  0  0  0  0  0
   45.0127   32.0028   48.8105 H   0  0  0  0  0  0  0  0  0  0  0  0
  1  2  2  0
  1 13  1  0
  3  2  1  0
  4  5  1  0
  4  3  2  0
  5  1  1  0
  6  5  1  0
  7  8  1  0
  7  6  1  0
  8  6  1  0
  9  8  1  0
  9 10  1  0
  9 11  1  0
 12  9  1  0
 13 14  1  0
 14 18  1  0
 15 14  2  0
 16 21  2  0
 17 16  1  0
 18 17  2  0
 18 19  1  0
 19 20  2  0
 20 21  1  0
 20 22  1  0
 22 23  1  0
 22 24  1  0
 23 24  1  0
  2 25  1  0
  4 26  1  0
  6 27  1  1
  7 28  1  0
  7 29  1  0
  8 30  1  1
 16 31  1  0
 17 32  1  0
 22 33  1  0
 23 34  1  0
 23 35  1  0
 24 36  1  0
 24 37  1  0
M  ISO  8  25  14  26  14  27  13  28  13  29  13  30  13  31  14  32  14
M  ISO  5  33  13  34  13  35  13  36  13  37  13
M  END
>  <minimizedAffinity>  (1) 
-5.30543709

>  <minimizedRMSD>  (1) 
0.515993237

$$$$
