
     RDKit          3D

 40 43  0  0  1  0  0  0  0  0999 V2000
   46.5090   34.4100   42.6320 C   0  0  0  0  0  0  0  0  0  0  0  0
   47.0330   35.5320   42.3030 O   0  0  0  0  0  0  0  0  0  0  0  0
   44.7870   34.7100   45.9480 C   0  0  0  0  0  0  0  0  0  0  0  0
   45.1560   35.0330   44.6470 C   0  0  0  0  0  0  0  0  0  0  0  0
   46.0530   34.1860   43.9740 C   0  0  0  0  0  0  0  0  0  0  0  0
   46.4780   33.1240   44.6600 N   0  0  0  0  0  0  0  0  0  0  0  0
   46.1270   32.8120   45.9020 C   0  0  0  0  0  0  0  0  0  0  0  0
   45.2780   33.6040   46.5560 N   0  0  0  0  0  0  0  0  0  0  0  0
   46.6590   31.6180   46.5540 C   0  0  0  0  0  0  0  0  0  0  0  0
   47.5600   30.7060   46.0240 C   0  0  0  0  0  0  0  0  0  0  0  0
   47.7710   29.7680   46.9670 N   0  0  0  0  0  0  0  0  0  0  0  0
   47.0610   30.0290   48.0610 C   0  0  0  0  0  0  0  0  0  0  0  0
   46.3930   31.1620   47.7790 N   0  0  0  0  0  0  0  0  0  0  0  0
   45.4720   31.8320   48.7100 C   0  0  0  0  0  0  0  0  0  0  0  0
   45.3360   31.0880   49.8880 F   0  0  0  0  0  0  0  0  0  0  0  0
   45.8400   33.1320   48.9410 F   0  0  0  0  0  0  0  0  0  0  0  0
   44.1980   31.8790   48.1750 F   0  0  0  0  0  0  0  0  0  0  0  0
   46.4240   33.4950   41.6650 O   0  0  0  0  0  0  0  0  0  0  0  0
   45.4460   33.4750   40.7010 C   0  0  0  0  0  0  0  0  0  0  0  0
   44.1140   33.8320   40.9540 C   0  0  0  0  0  0  0  0  0  0  0  0
   43.4490   33.6970   39.7950 N   0  0  0  0  0  0  0  0  0  0  0  0
   44.2890   33.2770   38.8360 C   0  0  0  0  0  0  0  0  0  0  0  0
   45.4930   33.1550   39.4290 N   0  0  0  0  0  0  0  0  0  0  0  0
   46.6000   32.7080   38.5940 C   0  0  1  0  0  0  0  0  0  0  0  0
   46.3840   32.2480   37.2100 C   0  0  0  0  0  0  0  0  0  0  0  0
   46.9500   33.5930   37.3790 C   0  0  2  0  0  0  0  0  0  0  0  0
   48.4450   33.7500   37.1470 C   0  0  0  0  0  0  0  0  0  0  0  0
   48.8400   35.0220   37.4430 F   0  0  0  0  0  0  0  0  0  0  0  0
   49.1180   32.7620   37.8000 F   0  0  0  0  0  0  0  0  0  0  0  0
   48.6200   33.5650   35.7700 F   0  0  0  0  0  0  0  0  0  0  0  0
   44.0866   35.3617   46.4909 H   0  0  0  0  0  0  0  0  0  0  0  0
   44.7548   35.9315   44.1554 H   0  0  0  0  0  0  0  0  0  0  0  0
   48.0156   30.7421   45.0234 H   0  0  0  0  0  0  0  0  0  0  0  0
   47.0274   29.4457   48.9930 H   0  0  0  0  0  0  0  0  0  0  0  0
   43.6943   34.1596   41.9166 H   0  0  0  0  0  0  0  0  0  0  0  0
   44.0449   33.0741   37.7828 H   0  0  0  0  0  0  0  0  0  0  0  0
   47.1142   32.2781   39.4662 H   0  0  0  0  0  0  0  0  0  0  0  0
   45.3573   32.1370   36.8310 H   0  0  0  0  0  0  0  0  0  0  0  0
   46.7016   31.3567   36.6490 H   0  0  0  0  0  0  0  0  0  0  0  0
   46.6827   34.5921   37.0043 H   0  0  0  0  0  0  0  0  0  0  0  0
  1  5  1  0
  2  1  2  0
  3  8  2  0
  4  3  1  0
  5  4  2  0
  5  6  1  0
  6  7  2  0
  7  9  1  0
  7  8  1  0
  9 13  1  0
 10  9  2  0
 10 11  1  0
 11 12  2  0
 13 12  1  0
 13 14  1  0
 14 16  1  0
 14 15  1  0
 17 14  1  0
 18  1  1  0
 19 20  2  0
 19 18  1  0
 21 20  1  0
 22 23  1  0
 22 21  2  0
 23 19  1  0
 24 23  1  0
 25 26  1  0
 25 24  1  0
 26 24  1  0
 27 26  1  0
 27 28  1  0
 27 29  1  0
 30 27  1  0
  3 31  1  0
  4 32  1  0
 10 33  1  0
 12 34  1  0
 20 35  1  0
 22 36  1  0
 24 37  1  1
 25 38  1  0
 25 39  1  0
 26 40  1  1
M  ISO  8  31  14  32  14  33  14  34  14  35  14  36  14  37  13  38  13
M  ISO  2  39  13  40  13
M  END
>  <minimizedAffinity>  (1) 
-5.93014336

>  <minimizedRMSD>  (1) 
1.76108253

$$$$
