
     RDKit          3D

 44 48  0  0  1  0  0  0  0  0999 V2000
   44.4990   34.4030   41.6640 C   0  0  0  0  0  0  0  0  0  0  0  0
   43.8960   35.0700   42.5870 O   0  0  0  0  0  0  0  0  0  0  0  0
   48.1090   35.3000   42.0350 C   0  0  0  0  0  0  0  0  0  0  0  0
   46.7670   35.1930   42.3720 C   0  0  0  0  0  0  0  0  0  0  0  0
   45.9050   34.5820   41.4520 C   0  0  0  0  0  0  0  0  0  0  0  0
   46.4690   34.1490   40.3100 N   0  0  0  0  0  0  0  0  0  0  0  0
   47.7640   34.2600   40.0010 C   0  0  0  0  0  0  0  0  0  0  0  0
   48.5900   34.8360   40.8620 N   0  0  0  0  0  0  0  0  0  0  0  0
   48.2470   33.7450   38.7220 C   0  0  0  0  0  0  0  0  0  0  0  0
   47.9730   34.2200   37.4580 C   0  0  0  0  0  0  0  0  0  0  0  0
   48.6370   33.4310   36.5870 N   0  0  0  0  0  0  0  0  0  0  0  0
   49.3240   32.4760   37.2290 C   0  0  0  0  0  0  0  0  0  0  0  0
   49.0710   32.6850   38.5400 N   0  0  0  0  0  0  0  0  0  0  0  0
   49.6460   31.8440   39.5350 C   0  0  0  0  0  0  0  0  0  0  0  0
   50.8030   31.1170   39.2390 C   0  0  0  0  0  0  0  0  0  0  0  0
   51.1790   30.3890   40.3080 N   0  0  0  0  0  0  0  0  0  0  0  0
   50.2700   30.6520   41.2780 C   0  0  0  0  0  0  0  0  0  0  0  0
   49.3710   31.5100   40.8100 N   0  0  0  0  0  0  0  0  0  0  0  0
   43.7430   33.5520   40.9330 O   0  0  0  0  0  0  0  0  0  0  0  0
   42.9790   32.5680   41.4690 C   0  0  0  0  0  0  0  0  0  0  0  0
   43.5050   31.5460   42.2710 C   0  0  0  0  0  0  0  0  0  0  0  0
   42.4760   30.7560   42.6240 N   0  0  0  0  0  0  0  0  0  0  0  0
   41.3400   31.2250   42.0900 C   0  0  0  0  0  0  0  0  0  0  0  0
   41.6850   32.3310   41.3920 N   0  0  0  0  0  0  0  0  0  0  0  0
   40.6240   33.0470   40.7000 C   0  0  1  0  0  0  0  0  0  0  0  0
   39.3170   33.2780   41.3430 C   0  0  0  0  0  0  0  0  0  0  0  0
   40.2410   34.4200   41.2780 C   0  0  2  0  0  0  0  0  0  0  0  0
   39.9680   35.4720   40.2170 C   0  0  0  0  0  0  0  0  0  0  0  0
   39.8270   36.7090   40.8030 F   0  0  0  0  0  0  0  0  0  0  0  0
   40.9050   35.4140   39.2410 F   0  0  0  0  0  0  0  0  0  0  0  0
   38.7220   35.1330   39.6830 F   0  0  0  0  0  0  0  0  0  0  0  0
   48.8012   35.7769   42.7445 H   0  0  0  0  0  0  0  0  0  0  0  0
   46.3915   35.5763   43.3323 H   0  0  0  0  0  0  0  0  0  0  0  0
   47.3342   35.0794   37.2063 H   0  0  0  0  0  0  0  0  0  0  0  0
   49.9561   31.6926   36.7854 H   0  0  0  0  0  0  0  0  0  0  0  0
   51.3296   31.1367   38.2735 H   0  0  0  0  0  0  0  0  0  0  0  0
   50.2759   30.2233   42.2910 H   0  0  0  0  0  0  0  0  0  0  0  0
   48.5714   31.8712   41.3495 H   0  0  0  0  0  0  0  0  0  0  0  0
   44.5590   31.4152   42.5571 H   0  0  0  0  0  0  0  0  0  0  0  0
   40.3321   30.7976   42.1974 H   0  0  0  0  0  0  0  0  0  0  0  0
   40.9299   32.6273   39.7303 H   0  0  0  0  0  0  0  0  0  0  0  0
   38.4046   33.2839   40.7286 H   0  0  0  0  0  0  0  0  0  0  0  0
   38.7758   32.7841   42.1635 H   0  0  0  0  0  0  0  0  0  0  0  0
   40.6441   35.1242   42.0207 H   0  0  0  0  0  0  0  0  0  0  0  0
  1  2  2  0
  3  4  2  0
  5  1  1  0
  5  4  1  0
  6  5  2  0
  7  6  1  0
  7  8  2  0
  8  3  1  0
  9  7  1  0
 10  9  2  0
 11 12  2  0
 11 10  1  0
 12 13  1  0
 13  9  1  0
 13 14  1  0
 14 18  1  0
 15 14  2  0
 15 16  1  0
 16 17  2  0
 18 17  1  0
 19 20  1  0
 19  1  1  0
 20 21  2  0
 21 22  1  0
 23 22  2  0
 24 20  1  0
 24 23  1  0
 25 27  1  0
 25 26  1  0
 25 24  1  0
 27 26  1  0
 28 29  1  0
 28 27  1  0
 30 28  1  0
 31 28  1  0
  3 32  1  0
  4 33  1  0
 10 34  1  0
 12 35  1  0
 15 36  1  0
 17 37  1  0
 18 38  1  0
 21 39  1  0
 23 40  1  0
 25 41  1  6
 26 42  1  0
 26 43  1  0
 27 44  1  1
M  ISO  8  32  14  33  14  34  14  35  14  36  14  37  14  38   9  39  14
M  ISO  5  40  14  41  13  42  13  43  13  44  13
M  END
>  <minimizedAffinity>  (1) 
-6.35972118

>  <minimizedRMSD>  (1) 
8.02426147

$$$$
