
     RDKit          3D

 39 42  0  0  1  0  0  0  0  0999 V2000
   44.7900   33.7200   40.9830 N   0  0  0  0  0  0  0  0  0  0  0  0
   43.5830   34.4560   40.5770 C   0  0  0  0  0  0  0  0  0  0  0  0
   42.4210   34.1470   41.4780 C   0  0  0  0  0  0  0  0  0  0  0  0
   42.2110   32.7150   41.4700 N   0  0  0  0  0  0  0  0  0  0  0  0
   43.3470   32.1510   42.1940 C   0  0  0  0  0  0  0  0  0  0  0  0
   44.6630   32.3680   41.4850 C   0  0  1  0  0  0  0  0  0  0  0  0
   46.6400   34.7880   42.0730 C   0  0  0  0  0  0  0  0  0  0  0  0
   47.9500   35.2480   42.0080 C   0  0  0  0  0  0  0  0  0  0  0  0
   48.7280   35.1250   40.8580 C   0  0  0  0  0  0  0  0  0  0  0  0
   48.1690   34.5100   39.7120 C   0  0  0  0  0  0  0  0  0  0  0  0
   46.8750   34.0640   39.7920 C   0  0  0  0  0  0  0  0  0  0  0  0
   46.1550   34.2070   40.9410 C   0  0  0  0  0  0  0  0  0  0  0  0
   44.4560   36.1130   44.8170 C   0  0  0  0  0  0  0  0  0  0  0  0
   45.0900   36.0610   43.5630 C   0  0  0  0  0  0  0  0  0  0  0  0
   45.9270   34.9690   43.3150 C   0  0  0  0  0  0  0  0  0  0  0  0
   46.1070   34.0060   44.2670 N   0  0  0  0  0  0  0  0  0  0  0  0
   45.4480   34.1390   45.4630 C   0  0  0  0  0  0  0  0  0  0  0  0
   44.6360   35.1730   45.7360 N   0  0  0  0  0  0  0  0  0  0  0  0
   44.8910   31.3830   40.3910 C   0  0  0  0  0  0  0  0  0  0  0  0
   44.0420   31.1230   39.4090 N   0  0  0  0  0  0  0  0  0  0  0  0
   44.5640   30.2150   38.6380 O   0  0  0  0  0  0  0  0  0  0  0  0
   45.7410   29.8550   39.0740 C   0  0  0  0  0  0  0  0  0  0  0  0
   45.9680   30.5800   40.1810 N   0  0  0  0  0  0  0  0  0  0  0  0
   43.7912   35.5353   40.6194 H   0  0  0  0  0  0  0  0  0  0  0  0
   43.3185   34.1483   39.5546 H   0  0  0  0  0  0  0  0  0  0  0  0
   42.6428   34.4851   42.5010 H   0  0  0  0  0  0  0  0  0  0  0  0
   41.5176   34.6655   41.1244 H   0  0  0  0  0  0  0  0  0  0  0  0
   41.3280   32.4779   41.9443 H   0  0  0  0  0  0  0  0  0  0  0  0
   43.4007   32.6237   43.1858 H   0  0  0  0  0  0  0  0  0  0  0  0
   43.1862   31.0652   42.2658 H   0  0  0  0  0  0  0  0  0  0  0  0
   45.4441   32.2082   42.2429 H   0  0  0  0  0  0  0  0  0  0  0  0
   48.3886   35.7264   42.8961 H   0  0  0  0  0  0  0  0  0  0  0  0
   49.7618   35.5005   40.8412 H   0  0  0  0  0  0  0  0  0  0  0  0
   48.7537   34.3938   38.7876 H   0  0  0  0  0  0  0  0  0  0  0  0
   46.4114   33.5843   38.9174 H   0  0  0  0  0  0  0  0  0  0  0  0
   43.7903   36.9590   45.0431 H   0  0  0  0  0  0  0  0  0  0  0  0
   44.9340   36.8465   42.8089 H   0  0  0  0  0  0  0  0  0  0  0  0
   45.5910   33.3651   46.2315 H   0  0  0  0  0  0  0  0  0  0  0  0
   46.4117   29.1079   38.6246 H   0  0  0  0  0  0  0  0  0  0  0  0
  1  6  1  0
  2  1  1  0
  2  3  1  0
  4  3  1  0
  4  5  1  0
  6  5  1  0
  7 15  1  0
  8  7  2  0
  9  8  1  0
 10 11  1  0
 10  9  2  0
 11 12  2  0
 12  1  1  0
 12  7  1  0
 13 18  2  0
 14 13  1  0
 15 14  2  0
 15 16  1  0
 16 17  2  0
 17 18  1  0
 19  6  1  0
 20 19  2  0
 21 22  1  0
 21 20  1  0
 22 23  2  0
 23 19  1  0
  2 24  1  0
  2 25  1  0
  3 26  1  0
  3 27  1  0
  4 28  1  0
  5 29  1  0
  5 30  1  0
  6 31  1  1
  8 32  1  0
  9 33  1  0
 10 34  1  0
 11 35  1  0
 13 36  1  0
 14 37  1  0
 17 38  1  0
 22 39  1  0
M  ISO  8  24  13  25  13  26  13  27  13  28   5  29  13  30  13  31  13
M  ISO  8  32  14  33  14  34  14  35  14  36  14  37  14  38  14  39  14
M  END
>  <minimizedAffinity>  (1) 
-5.62547207

>  <minimizedRMSD>  (1) 
0.0413074866

$$$$
