
     RDKit          3D

 26 28  0  0  0  0  0  0  0  0999 V2000
   46.0730   32.7750   47.0660 C   0  0  0  0  0  0  0  0  0  0  0  0
   45.0040   32.3150   47.8250 C   0  0  0  0  0  0  0  0  0  0  0  0
   45.1760   31.5320   48.9500 C   0  0  0  0  0  0  0  0  0  0  0  0
   46.4960   31.2410   49.2640 C   0  0  0  0  0  0  0  0  0  0  0  0
   47.5890   31.6840   48.5290 C   0  0  0  0  0  0  0  0  0  0  0  0
   47.3240   32.4430   47.4470 N   0  0  0  0  0  0  0  0  0  0  0  0
   48.9210   31.3520   48.9030 N   0  0  0  0  0  0  0  0  0  0  0  0
   49.8680   31.9600   49.5970 N   0  0  0  0  0  0  0  0  0  0  0  0
   50.9730   31.1870   49.6530 C   0  0  0  0  0  0  0  0  0  0  0  0
   50.7140   30.0300   48.9590 C   0  0  0  0  0  0  0  0  0  0  0  0
   49.4360   30.1570   48.5040 C   0  0  0  0  0  0  0  0  0  0  0  0
   44.7140   35.3370   44.8590 C   0  0  0  0  0  0  0  0  0  0  0  0
   45.4770   35.1870   43.6720 C   0  0  0  0  0  0  0  0  0  0  0  0
   46.4670   34.1860   43.6480 C   0  0  0  0  0  0  0  0  0  0  0  0
   46.6230   33.4350   44.7630 N   0  0  0  0  0  0  0  0  0  0  0  0
   45.8770   33.6040   45.8800 C   0  0  0  0  0  0  0  0  0  0  0  0
   44.9260   34.5540   45.9240 N   0  0  0  0  0  0  0  0  0  0  0  0
   43.9825   32.5844   47.5186 H   0  0  0  0  0  0  0  0  0  0  0  0
   44.3305   31.1668   49.5515 H   0  0  0  0  0  0  0  0  0  0  0  0
   46.6895   30.6201   50.1512 H   0  0  0  0  0  0  0  0  0  0  0  0
   51.9141   31.4388   50.1638 H   0  0  0  0  0  0  0  0  0  0  0  0
   51.3949   29.1802   48.8034 H   0  0  0  0  0  0  0  0  0  0  0  0
   48.9007   29.4063   47.9041 H   0  0  0  0  0  0  0  0  0  0  0  0
   43.9338   36.1111   44.9049 H   0  0  0  0  0  0  0  0  0  0  0  0
   45.3007   35.8320   42.7986 H   0  0  0  0  0  0  0  0  0  0  0  0
   47.0901   34.0207   42.7567 H   0  0  0  0  0  0  0  0  0  0  0  0
  1  6  1  0
  1  2  2  0
  2  3  1  0
  3  4  2  0
  5  7  1  0
  5  4  1  0
  6  5  2  0
  7  8  1  0
  8  9  2  0
 10  9  1  0
 11  7  1  0
 11 10  2  0
 12 17  2  0
 13 12  1  0
 14 13  2  0
 14 15  1  0
 15 16  2  0
 16 17  1  0
 16  1  1  0
  2 18  1  0
  3 19  1  0
  4 20  1  0
  9 21  1  0
 10 22  1  0
 11 23  1  0
 12 24  1  0
 13 25  1  0
 14 26  1  0
M  ISO  8  18  14  19  14  20  14  21  14  22  14  23  14  24  14  25  14
M  ISO  1  26  14
M  END
>  <minimizedAffinity>  (1) 
-5.68474102

>  <minimizedRMSD>  (1) 
0.865218818

$$$$
