
     RDKit          3D

 41 44  0  0  1  0  0  0  0  0999 V2000
   44.8100   33.6830   40.9810 N   0  0  0  0  0  0  0  0  0  0  0  0
   43.5970   34.3870   40.5510 C   0  0  0  0  0  0  0  0  0  0  0  0
   42.4310   34.0910   41.4600 C   0  0  0  0  0  0  0  0  0  0  0  0
   42.2250   32.6650   41.4960 N   0  0  0  0  0  0  0  0  0  0  0  0
   43.3770   32.1170   42.2020 C   0  0  0  0  0  0  0  0  0  0  0  0
   44.6850   32.3440   41.5160 C   0  0  1  0  0  0  0  0  0  0  0  0
   46.6510   34.7880   42.0600 C   0  0  0  0  0  0  0  0  0  0  0  0
   47.9440   35.2610   41.9970 C   0  0  0  0  0  0  0  0  0  0  0  0
   48.7300   35.1420   40.8520 C   0  0  0  0  0  0  0  0  0  0  0  0
   48.1790   34.5130   39.7160 C   0  0  0  0  0  0  0  0  0  0  0  0
   46.8900   34.0450   39.7910 C   0  0  0  0  0  0  0  0  0  0  0  0
   46.1600   34.1850   40.9350 C   0  0  0  0  0  0  0  0  0  0  0  0
   44.4480   36.1130   44.8090 C   0  0  0  0  0  0  0  0  0  0  0  0
   45.0880   36.0520   43.5590 C   0  0  0  0  0  0  0  0  0  0  0  0
   45.9350   34.9690   43.3010 C   0  0  0  0  0  0  0  0  0  0  0  0
   46.1010   34.0240   44.2680 N   0  0  0  0  0  0  0  0  0  0  0  0
   45.4560   34.1300   45.4660 C   0  0  0  0  0  0  0  0  0  0  0  0
   44.6410   35.1630   45.7270 N   0  0  0  0  0  0  0  0  0  0  0  0
   44.8950   31.2810   40.5130 C   0  0  0  0  0  0  0  0  0  0  0  0
   44.4950   31.2510   39.1820 C   0  0  0  0  0  0  0  0  0  0  0  0
   44.9010   30.0720   38.6310 N   0  0  0  0  0  0  0  0  0  0  0  0
   45.5470   29.3550   39.5840 C   0  0  0  0  0  0  0  0  0  0  0  0
   45.5190   30.1170   40.6920 N   0  0  0  0  0  0  0  0  0  0  0  0
   43.7907   35.4698   40.5601 H   0  0  0  0  0  0  0  0  0  0  0  0
   43.3399   34.0420   39.5386 H   0  0  0  0  0  0  0  0  0  0  0  0
   42.6485   34.4595   42.4734 H   0  0  0  0  0  0  0  0  0  0  0  0
   41.5262   34.5915   41.0849 H   0  0  0  0  0  0  0  0  0  0  0  0
   41.3551   32.4405   41.9998 H   0  0  0  0  0  0  0  0  0  0  0  0
   43.4247   32.5833   43.1972 H   0  0  0  0  0  0  0  0  0  0  0  0
   43.2299   31.0278   42.2462 H   0  0  0  0  0  0  0  0  0  0  0  0
   45.4962   32.2771   42.2559 H   0  0  0  0  0  0  0  0  0  0  0  0
   48.3720   35.7510   42.8840 H   0  0  0  0  0  0  0  0  0  0  0  0
   49.7589   35.5306   40.8347 H   0  0  0  0  0  0  0  0  0  0  0  0
   48.7670   34.4002   38.7932 H   0  0  0  0  0  0  0  0  0  0  0  0
   46.4403   33.5508   38.9172 H   0  0  0  0  0  0  0  0  0  0  0  0
   43.7782   36.9560   45.0342 H   0  0  0  0  0  0  0  0  0  0  0  0
   44.9270   36.8352   42.8036 H   0  0  0  0  0  0  0  0  0  0  0  0
   45.6071   33.3545   46.2313 H   0  0  0  0  0  0  0  0  0  0  0  0
   43.9427   32.0464   38.6601 H   0  0  0  0  0  0  0  0  0  0  0  0
   45.9994   28.3584   39.4738 H   0  0  0  0  0  0  0  0  0  0  0  0
   45.9375   29.8300   41.5883 H   0  0  0  0  0  0  0  0  0  0  0  0
  1  6  1  0
  2  1  1  0
  2  3  1  0
  3  4  1  0
  4  5  1  0
  6  5  1  0
  7 15  1  0
  8  7  2  0
  9  8  1  0
 10 11  1  0
 10  9  2  0
 11 12  2  0
 12  1  1  0
 12  7  1  0
 13 18  2  0
 14 13  1  0
 15 14  2  0
 15 16  1  0
 16 17  2  0
 17 18  1  0
 19 23  1  0
 19  6  1  0
 20 19  2  0
 21 20  1  0
 21 22  2  0
 22 23  1  0
  2 24  1  0
  2 25  1  0
  3 26  1  0
  3 27  1  0
  4 28  1  0
  5 29  1  0
  5 30  1  0
  6 31  1  1
  8 32  1  0
  9 33  1  0
 10 34  1  0
 11 35  1  0
 13 36  1  0
 14 37  1  0
 17 38  1  0
 20 39  1  0
 22 40  1  0
 23 41  1  0
M  ISO  8  24  13  25  13  26  13  27  13  28   5  29  13  30  13  31  13
M  ISO  8  32  14  33  14  34  14  35  14  36  14  37  14  38  14  39  14
M  ISO  2  40  14  41   9
M  END
>  <minimizedAffinity>  (1) 
-5.62207413

>  <minimizedRMSD>  (1) 
0.0677070618

$$$$
