
     RDKit          3D

 27 29  0  0  0  0  0  0  0  0999 V2000
   46.0630   32.7430   47.0710 C   0  0  0  0  0  0  0  0  0  0  0  0
   45.0080   32.3820   47.8820 C   0  0  0  0  0  0  0  0  0  0  0  0
   45.1860   31.5840   49.0080 C   0  0  0  0  0  0  0  0  0  0  0  0
   46.4740   31.1830   49.2540 C   0  0  0  0  0  0  0  0  0  0  0  0
   47.5530   31.5150   48.4780 C   0  0  0  0  0  0  0  0  0  0  0  0
   47.2880   32.2940   47.4050 N   0  0  0  0  0  0  0  0  0  0  0  0
   44.7300   35.3260   44.8710 C   0  0  0  0  0  0  0  0  0  0  0  0
   45.4890   35.1860   43.6940 C   0  0  0  0  0  0  0  0  0  0  0  0
   46.4630   34.1950   43.6640 C   0  0  0  0  0  0  0  0  0  0  0  0
   46.6470   33.3990   44.7730 N   0  0  0  0  0  0  0  0  0  0  0  0
   45.8800   33.5800   45.8870 C   0  0  0  0  0  0  0  0  0  0  0  0
   44.9330   34.5350   45.9290 N   0  0  0  0  0  0  0  0  0  0  0  0
   48.9190   31.1060   48.7180 C   0  0  0  0  0  0  0  0  0  0  0  0
   49.7760   31.8010   49.5270 C   0  0  0  0  0  0  0  0  0  0  0  0
   51.0920   31.4000   49.7530 C   0  0  0  0  0  0  0  0  0  0  0  0
   51.5270   30.2940   49.1570 N   0  0  0  0  0  0  0  0  0  0  0  0
   50.7010   29.5920   48.3560 C   0  0  0  0  0  0  0  0  0  0  0  0
   49.4350   30.0020   48.1540 N   0  0  0  0  0  0  0  0  0  0  0  0
   43.9967   32.7349   47.6318 H   0  0  0  0  0  0  0  0  0  0  0  0
   44.3478   31.2937   49.6586 H   0  0  0  0  0  0  0  0  0  0  0  0
   46.6533   30.5506   50.1360 H   0  0  0  0  0  0  0  0  0  0  0  0
   43.9531   36.1031   44.9212 H   0  0  0  0  0  0  0  0  0  0  0  0
   45.3169   35.8396   42.8262 H   0  0  0  0  0  0  0  0  0  0  0  0
   47.0798   34.0480   42.7651 H   0  0  0  0  0  0  0  0  0  0  0  0
   49.4114   32.7144   50.0197 H   0  0  0  0  0  0  0  0  0  0  0  0
   51.7543   31.9845   50.4085 H   0  0  0  0  0  0  0  0  0  0  0  0
   51.0641   28.6776   47.8639 H   0  0  0  0  0  0  0  0  0  0  0  0
  1  6  1  0
  1  2  2  0
  2  3  1  0
  3  4  2  0
  5 13  1  0
  5  4  1  0
  6  5  2  0
  7 12  2  0
  8  7  1  0
  9  8  2  0
  9 10  1  0
 10 11  2  0
 11 12  1  0
 11  1  1  0
 13 14  2  0
 14 15  1  0
 16 15  2  0
 17 16  1  0
 18 17  2  0
 18 13  1  0
  2 19  1  0
  3 20  1  0
  4 21  1  0
  7 22  1  0
  8 23  1  0
  9 24  1  0
 14 25  1  0
 15 26  1  0
 17 27  1  0
M  ISO  8  19  14  20  14  21  14  22  14  23  14  24  14  25  14  26  14
M  ISO  1  27  14
M  END
>  <minimizedAffinity>  (1) 
-5.48026657

>  <minimizedRMSD>  (1) 
0.767724812

$$$$
