
     RDKit          3D

 28 30  0  0  0  0  0  0  0  0999 V2000
   46.0620   32.7380   47.0670 C   0  0  0  0  0  0  0  0  0  0  0  0
   44.9940   32.3490   47.8590 C   0  0  0  0  0  0  0  0  0  0  0  0
   45.1440   31.5590   48.9770 C   0  0  0  0  0  0  0  0  0  0  0  0
   46.4350   31.1860   49.2450 C   0  0  0  0  0  0  0  0  0  0  0  0
   47.5250   31.5420   48.4970 C   0  0  0  0  0  0  0  0  0  0  0  0
   47.2900   32.3190   47.4150 N   0  0  0  0  0  0  0  0  0  0  0  0
   44.7420   35.3170   44.8640 C   0  0  0  0  0  0  0  0  0  0  0  0
   45.5000   35.1850   43.6830 C   0  0  0  0  0  0  0  0  0  0  0  0
   46.4750   34.1910   43.6590 C   0  0  0  0  0  0  0  0  0  0  0  0
   46.6320   33.4180   44.7660 N   0  0  0  0  0  0  0  0  0  0  0  0
   45.8790   33.5790   45.8840 C   0  0  0  0  0  0  0  0  0  0  0  0
   44.9290   34.5330   45.9330 N   0  0  0  0  0  0  0  0  0  0  0  0
   48.8760   31.1140   48.8290 C   0  0  0  0  0  0  0  0  0  0  0  0
   49.2850   29.8460   48.4710 C   0  0  0  0  0  0  0  0  0  0  0  0
   50.5780   29.4260   48.7840 C   0  0  0  0  0  0  0  0  0  0  0  0
   51.3500   30.3560   49.4490 C   0  0  0  0  0  0  0  0  0  0  0  0
   50.9490   31.6280   49.8140 C   0  0  0  0  0  0  0  0  0  0  0  0
   49.6880   31.9600   49.4760 N   0  0  0  0  0  0  0  0  0  0  0  0
   43.9836   32.6853   47.5832 H   0  0  0  0  0  0  0  0  0  0  0  0
   44.2948   31.2518   49.6051 H   0  0  0  0  0  0  0  0  0  0  0  0
   46.6087   30.5529   50.1276 H   0  0  0  0  0  0  0  0  0  0  0  0
   43.9659   36.0952   44.9091 H   0  0  0  0  0  0  0  0  0  0  0  0
   45.3285   35.8401   42.8161 H   0  0  0  0  0  0  0  0  0  0  0  0
   47.1013   34.0356   42.7681 H   0  0  0  0  0  0  0  0  0  0  0  0
   48.5962   29.1707   47.9423 H   0  0  0  0  0  0  0  0  0  0  0  0
   50.9543   28.4267   48.5199 H   0  0  0  0  0  0  0  0  0  0  0  0
   52.3760   30.0592   49.7123 H   0  0  0  0  0  0  0  0  0  0  0  0
   51.6158   32.3230   50.3454 H   0  0  0  0  0  0  0  0  0  0  0  0
  1  6  1  0
  1  2  2  0
  2  3  1  0
  3  4  2  0
  5 13  1  0
  5  4  1  0
  6  5  2  0
  7 12  2  0
  8  7  1  0
  9  8  2  0
  9 10  1  0
 10 11  2  0
 11 12  1  0
 11  1  1  0
 13 18  2  0
 14 15  2  0
 14 13  1  0
 15 16  1  0
 16 17  2  0
 18 17  1  0
  2 19  1  0
  3 20  1  0
  4 21  1  0
  7 22  1  0
  8 23  1  0
  9 24  1  0
 14 25  1  0
 15 26  1  0
 16 27  1  0
 17 28  1  0
M  ISO  8  19  14  20  14  21  14  22  14  23  14  24  14  25  14  26  14
M  ISO  2  27  14  28  14
M  END
>  <minimizedAffinity>  (1) 
-5.57818699

>  <minimizedRMSD>  (1) 
0.806029618

$$$$
