
     RDKit          3D

 26 28  0  0  0  0  0  0  0  0999 V2000
   46.1440   32.5650   47.1030 C   0  0  0  0  0  0  0  0  0  0  0  0
   44.9950   32.2380   47.7960 C   0  0  0  0  0  0  0  0  0  0  0  0
   45.0030   31.5110   48.9750 C   0  0  0  0  0  0  0  0  0  0  0  0
   46.2530   31.1390   49.4050 C   0  0  0  0  0  0  0  0  0  0  0  0
   47.4200   31.4430   48.7480 C   0  0  0  0  0  0  0  0  0  0  0  0
   47.3200   32.1470   47.6170 N   0  0  0  0  0  0  0  0  0  0  0  0
   45.1020   34.9930   44.6080 C   0  0  0  0  0  0  0  0  0  0  0  0
   46.0000   34.8060   43.5400 C   0  0  0  0  0  0  0  0  0  0  0  0
   46.9760   33.8220   43.6970 C   0  0  0  0  0  0  0  0  0  0  0  0
   47.0020   33.1080   44.8630 N   0  0  0  0  0  0  0  0  0  0  0  0
   46.1090   33.3290   45.8670 C   0  0  0  0  0  0  0  0  0  0  0  0
   45.1600   34.2770   45.7280 N   0  0  0  0  0  0  0  0  0  0  0  0
   48.7010   30.9990   49.2900 C   0  0  0  0  0  0  0  0  0  0  0  0
   49.7810   31.8670   49.4940 C   0  0  0  0  0  0  0  0  0  0  0  0
   50.8020   31.1430   50.0010 N   0  0  0  0  0  0  0  0  0  0  0  0
   50.3260   29.8770   50.0920 C   0  0  0  0  0  0  0  0  0  0  0  0
   49.0460   29.7750   49.6610 N   0  0  0  0  0  0  0  0  0  0  0  0
   44.0273   32.5708   47.3924 H   0  0  0  0  0  0  0  0  0  0  0  0
   44.0840   31.2530   49.5217 H   0  0  0  0  0  0  0  0  0  0  0  0
   46.3242   30.5593   50.3371 H   0  0  0  0  0  0  0  0  0  0  0  0
   44.3211   35.7619   44.5127 H   0  0  0  0  0  0  0  0  0  0  0  0
   45.9348   35.4092   42.6224 H   0  0  0  0  0  0  0  0  0  0  0  0
   47.7086   33.6247   42.9005 H   0  0  0  0  0  0  0  0  0  0  0  0
   49.7951   32.9458   49.2796 H   0  0  0  0  0  0  0  0  0  0  0  0
   50.9130   29.0283   50.4729 H   0  0  0  0  0  0  0  0  0  0  0  0
   48.4642   28.9257   49.6286 H   0  0  0  0  0  0  0  0  0  0  0  0
  1  6  1  0
  1  2  2  0
  2  3  1  0
  3  4  2  0
  5 13  1  0
  5  4  1  0
  6  5  2  0
  7 12  2  0
  8  9  2  0
  8  7  1  0
  9 10  1  0
 10 11  2  0
 11  1  1  0
 12 11  1  0
 13 14  2  0
 13 17  1  0
 14 15  1  0
 15 16  2  0
 17 16  1  0
  2 18  1  0
  3 19  1  0
  4 20  1  0
  7 21  1  0
  8 22  1  0
  9 23  1  0
 14 24  1  0
 16 25  1  0
 17 26  1  0
M  ISO  8  18  14  19  14  20  14  21  14  22  14  23  14  24  14  25  14
M  ISO  1  26   9
M  END
>  <minimizedAffinity>  (1) 
-5.44543028

>  <minimizedRMSD>  (1) 
1.12166214

$$$$
