
     RDKit          3D

 32 34  0  0  0  0  0  0  0  0999 V2000
   46.0560   32.7120   47.0060 C   0  0  0  0  0  0  0  0  0  0  0  0
   45.0330   32.5090   47.9130 C   0  0  0  0  0  0  0  0  0  0  0  0
   45.1940   31.6900   49.0260 C   0  0  0  0  0  0  0  0  0  0  0  0
   46.4310   31.1040   49.1560 C   0  0  0  0  0  0  0  0  0  0  0  0
   47.4770   31.2870   48.2650 C   0  0  0  0  0  0  0  0  0  0  0  0
   47.2300   32.0950   47.2190 N   0  0  0  0  0  0  0  0  0  0  0  0
   44.7360   35.3500   44.8500 C   0  0  0  0  0  0  0  0  0  0  0  0
   45.5150   35.2140   43.6630 C   0  0  0  0  0  0  0  0  0  0  0  0
   46.4930   34.2060   43.6240 C   0  0  0  0  0  0  0  0  0  0  0  0
   46.6440   33.4150   44.7160 N   0  0  0  0  0  0  0  0  0  0  0  0
   45.8760   33.5770   45.8380 C   0  0  0  0  0  0  0  0  0  0  0  0
   44.9330   34.5380   45.8940 N   0  0  0  0  0  0  0  0  0  0  0  0
   48.8080   30.6570   48.4020 C   0  0  0  0  0  0  0  0  0  0  0  0
   48.7720   29.1880   47.9980 C   0  0  0  0  0  0  0  0  0  0  0  0
   50.0640   28.6510   48.6200 C   0  0  0  0  0  0  0  0  0  0  0  0
   50.2890   29.5280   49.8470 C   0  0  0  0  0  0  0  0  0  0  0  0
   49.2190   30.5800   49.8470 C   0  0  0  0  0  0  0  0  0  0  0  0
   44.0663   33.0081   47.7506 H   0  0  0  0  0  0  0  0  0  0  0  0
   44.3859   31.5225   49.7532 H   0  0  0  0  0  0  0  0  0  0  0  0
   46.6015   30.4481   50.0224 H   0  0  0  0  0  0  0  0  0  0  0  0
   43.9643   36.1318   44.9073 H   0  0  0  0  0  0  0  0  0  0  0  0
   45.3546   35.8797   42.8021 H   0  0  0  0  0  0  0  0  0  0  0  0
   47.1198   34.0619   42.7316 H   0  0  0  0  0  0  0  0  0  0  0  0
   49.4800   31.2657   47.7791 H   0  0  0  0  0  0  0  0  0  0  0  0
   47.8885   28.6814   48.4136 H   0  0  0  0  0  0  0  0  0  0  0  0
   48.7055   29.0299   46.9115 H   0  0  0  0  0  0  0  0  0  0  0  0
   49.9465   27.5969   48.9116 H   0  0  0  0  0  0  0  0  0  0  0  0
   50.9116   28.6853   47.9197 H   0  0  0  0  0  0  0  0  0  0  0  0
   50.2195   28.9206   50.7615 H   0  0  0  0  0  0  0  0  0  0  0  0
   51.2875   29.9886   49.8182 H   0  0  0  0  0  0  0  0  0  0  0  0
   49.6154   31.5450   50.1957 H   0  0  0  0  0  0  0  0  0  0  0  0
   48.3821   30.3422   50.5201 H   0  0  0  0  0  0  0  0  0  0  0  0
  1  6  1  0
  1  2  2  0
  2  3  1  0
  3  4  2  0
  5 13  1  0
  5  4  1  0
  6  5  2  0
  7 12  2  0
  8  7  1  0
  9  8  2  0
  9 10  1  0
 10 11  2  0
 11 12  1  0
 11  1  1  0
 13 17  1  0
 14 13  1  0
 14 15  1  0
 15 16  1  0
 16 17  1  0
  2 18  1  0
  3 19  1  0
  4 20  1  0
  7 21  1  0
  8 22  1  0
  9 23  1  0
 13 24  1  0
 14 25  1  0
 14 26  1  0
 15 27  1  0
 15 28  1  0
 16 29  1  0
 16 30  1  0
 17 31  1  0
 17 32  1  0
M  ISO  8  18  14  19  14  20  14  21  14  22  14  23  14  24  13  25  13
M  ISO  7  26  13  27  13  28  13  29  13  30  13  31  13  32  13
M  END
>  <minimizedAffinity>  (1) 
-5.37971878

>  <minimizedRMSD>  (1) 
0.373033494

$$$$
