
     RDKit          3D

 22 23  0  0  0  0  0  0  0  0999 V2000
   46.1190   32.5490   47.1190 C   0  0  0  0  0  0  0  0  0  0  0  0
   44.9400   32.2040   47.7670 C   0  0  0  0  0  0  0  0  0  0  0  0
   44.9480   31.4760   48.9470 C   0  0  0  0  0  0  0  0  0  0  0  0
   46.1890   31.1260   49.4210 C   0  0  0  0  0  0  0  0  0  0  0  0
   47.3730   31.4470   48.8120 C   0  0  0  0  0  0  0  0  0  0  0  0
   47.2540   32.1510   47.6790 N   0  0  0  0  0  0  0  0  0  0  0  0
   45.1130   34.9910   44.5950 C   0  0  0  0  0  0  0  0  0  0  0  0
   46.0330   34.7760   43.5520 C   0  0  0  0  0  0  0  0  0  0  0  0
   46.9910   33.7880   43.7340 C   0  0  0  0  0  0  0  0  0  0  0  0
   47.0120   33.0710   44.8920 N   0  0  0  0  0  0  0  0  0  0  0  0
   46.0980   33.3120   45.8820 C   0  0  0  0  0  0  0  0  0  0  0  0
   45.1650   34.2700   45.7150 N   0  0  0  0  0  0  0  0  0  0  0  0
   48.6910   31.1030   49.2700 C   0  0  0  0  0  0  0  0  0  0  0  0
   49.6560   31.9130   49.3070 O   0  0  0  0  0  0  0  0  0  0  0  0
   49.0710   29.8520   49.7290 O   0  0  0  0  0  0  0  0  0  0  0  0
   43.9779   32.5154   47.3342 H   0  0  0  0  0  0  0  0  0  0  0  0
   44.0211   31.1969   49.4695 H   0  0  0  0  0  0  0  0  0  0  0  0
   46.2350   30.5473   50.3553 H   0  0  0  0  0  0  0  0  0  0  0  0
   44.3396   35.7654   44.4844 H   0  0  0  0  0  0  0  0  0  0  0  0
   45.9944   35.3691   42.6264 H   0  0  0  0  0  0  0  0  0  0  0  0
   47.7307   33.5848   42.9457 H   0  0  0  0  0  0  0  0  0  0  0  0
   50.0019   29.6961   50.0278 H   0  0  0  0  0  0  0  0  0  0  0  0
  1  6  1  0
  1  2  2  0
  2  3  1  0
  3  4  2  0
  5 13  1  0
  5  4  1  0
  6  5  2  0
  7 12  2  0
  8  9  2  0
  8  7  1  0
  9 10  1  0
 10 11  2  0
 11  1  1  0
 12 11  1  0
 13 14  2  0
 13 15  1  0
  2 16  1  0
  3 17  1  0
  4 18  1  0
  7 19  1  0
  8 20  1  0
  9 21  1  0
 15 22  1  0
M  ISO  7  16  14  17  14  18  14  19  14  20  14  21  14  22   3
M  END
>  <minimizedAffinity>  (1) 
-5.04424477

>  <minimizedRMSD>  (1) 
0.97769618

$$$$
