
     RDKit          3D

 41 44  0  0  1  0  0  0  0  0999 V2000
   46.6490   34.7870   42.0660 C   0  0  0  0  0  0  0  0  0  0  0  0
   47.9470   35.2570   42.0130 C   0  0  0  0  0  0  0  0  0  0  0  0
   48.7320   35.1360   40.8630 C   0  0  0  0  0  0  0  0  0  0  0  0
   48.1770   34.5130   39.7230 C   0  0  0  0  0  0  0  0  0  0  0  0
   46.8950   34.0550   39.7930 C   0  0  0  0  0  0  0  0  0  0  0  0
   46.1660   34.1960   40.9390 C   0  0  0  0  0  0  0  0  0  0  0  0
   44.8080   33.7000   40.9880 N   0  0  0  0  0  0  0  0  0  0  0  0
   43.5900   34.4200   40.5900 C   0  0  0  0  0  0  0  0  0  0  0  0
   42.4380   34.0970   41.4880 C   0  0  0  0  0  0  0  0  0  0  0  0
   42.2360   32.6670   41.4740 N   0  0  0  0  0  0  0  0  0  0  0  0
   43.3780   32.1080   42.1920 C   0  0  0  0  0  0  0  0  0  0  0  0
   44.6870   32.3440   41.4910 C   0  0  1  0  0  0  0  0  0  0  0  0
   44.9320   31.3500   40.4470 N   0  0  0  0  0  0  0  0  0  0  0  0
   44.3880   31.3730   39.1970 C   0  0  0  0  0  0  0  0  0  0  0  0
   44.8100   30.2970   38.4420 C   0  0  0  0  0  0  0  0  0  0  0  0
   45.6260   29.6180   39.2630 N   0  0  0  0  0  0  0  0  0  0  0  0
   45.6880   30.2560   40.4510 C   0  0  0  0  0  0  0  0  0  0  0  0
   44.4510   36.1230   44.8110 C   0  0  0  0  0  0  0  0  0  0  0  0
   45.0890   36.0640   43.5610 C   0  0  0  0  0  0  0  0  0  0  0  0
   45.9290   34.9710   43.3150 C   0  0  0  0  0  0  0  0  0  0  0  0
   46.1010   34.0200   44.2650 N   0  0  0  0  0  0  0  0  0  0  0  0
   45.4520   34.1350   45.4630 C   0  0  0  0  0  0  0  0  0  0  0  0
   44.6390   35.1700   45.7320 N   0  0  0  0  0  0  0  0  0  0  0  0
   48.3757   35.7411   42.9029 H   0  0  0  0  0  0  0  0  0  0  0  0
   49.7631   35.5188   40.8459 H   0  0  0  0  0  0  0  0  0  0  0  0
   48.7655   34.4001   38.8006 H   0  0  0  0  0  0  0  0  0  0  0  0
   46.4430   33.5667   38.9171 H   0  0  0  0  0  0  0  0  0  0  0  0
   43.7846   35.5017   40.6349 H   0  0  0  0  0  0  0  0  0  0  0  0
   43.3262   34.1090   39.5684 H   0  0  0  0  0  0  0  0  0  0  0  0
   42.6605   34.4307   42.5123 H   0  0  0  0  0  0  0  0  0  0  0  0
   41.5303   34.6103   41.1378 H   0  0  0  0  0  0  0  0  0  0  0  0
   41.3560   32.4225   41.9501 H   0  0  0  0  0  0  0  0  0  0  0  0
   43.4259   32.5710   43.1887 H   0  0  0  0  0  0  0  0  0  0  0  0
   43.2284   31.0198   42.2508 H   0  0  0  0  0  0  0  0  0  0  0  0
   45.4758   32.2198   42.2475 H   0  0  0  0  0  0  0  0  0  0  0  0
   43.6995   32.1510   38.8356 H   0  0  0  0  0  0  0  0  0  0  0  0
   44.5392   30.0521   37.4044 H   0  0  0  0  0  0  0  0  0  0  0  0
   46.2854   29.9156   41.3096 H   0  0  0  0  0  0  0  0  0  0  0  0
   43.7844   36.9682   45.0373 H   0  0  0  0  0  0  0  0  0  0  0  0
   44.9346   36.8469   42.8039 H   0  0  0  0  0  0  0  0  0  0  0  0
   45.5997   33.3583   46.2278 H   0  0  0  0  0  0  0  0  0  0  0  0
  1 20  1  0
  2  1  2  0
  3  2  1  0
  4  5  1  0
  4  3  2  0
  5  6  2  0
  6  7  1  0
  6  1  1  0
  7 12  1  0
  8  7  1  0
  8  9  1  0
 10  9  1  0
 10 11  1  0
 12 11  1  0
 13 17  1  0
 13 12  1  0
 14 13  1  0
 15 14  2  0
 15 16  1  0
 16 17  2  0
 18 23  2  0
 19 18  1  0
 20 19  2  0
 20 21  1  0
 21 22  2  0
 22 23  1  0
  2 24  1  0
  3 25  1  0
  4 26  1  0
  5 27  1  0
  8 28  1  0
  8 29  1  0
  9 30  1  0
  9 31  1  0
 10 32  1  0
 11 33  1  0
 11 34  1  0
 12 35  1  1
 14 36  1  0
 15 37  1  0
 17 38  1  0
 18 39  1  0
 19 40  1  0
 22 41  1  0
M  ISO  8  24  14  25  14  26  14  27  14  28  13  29  13  30  13  31  13
M  ISO  8  32   5  33  13  34  13  35  13  36  14  37  14  38  14  39  14
M  ISO  2  40  14  41  14
M  END
>  <minimizedAffinity>  (1) 
-5.61651564

>  <minimizedRMSD>  (1) 
0.0925716087

$$$$
