
     RDKit          3D

 31 32  0  0  0  0  0  0  0  0999 V2000
   45.9440   32.7910   46.6240 C   0  0  0  0  0  0  0  0  0  0  0  0
   45.2990   32.9070   47.8530 C   0  0  0  0  0  0  0  0  0  0  0  0
   45.5100   31.9840   48.8640 C   0  0  0  0  0  0  0  0  0  0  0  0
   46.3810   30.9650   48.5780 C   0  0  0  0  0  0  0  0  0  0  0  0
   47.0310   30.8250   47.3770 C   0  0  0  0  0  0  0  0  0  0  0  0
   46.7730   31.7550   46.4560 N   0  0  0  0  0  0  0  0  0  0  0  0
   44.5870   35.6760   44.8390 C   0  0  0  0  0  0  0  0  0  0  0  0
   45.2560   35.6270   43.5970 C   0  0  0  0  0  0  0  0  0  0  0  0
   46.1810   34.5900   43.3790 C   0  0  0  0  0  0  0  0  0  0  0  0
   46.3830   33.6780   44.3890 N   0  0  0  0  0  0  0  0  0  0  0  0
   45.7150   33.7690   45.5650 C   0  0  0  0  0  0  0  0  0  0  0  0
   44.8370   34.7580   45.7640 N   0  0  0  0  0  0  0  0  0  0  0  0
   47.9780   29.7270   47.0510 C   0  0  0  0  0  0  0  0  0  0  0  0
   47.3190   28.3810   47.3110 C   0  0  0  0  0  0  0  0  0  0  0  0
   49.1540   29.8770   47.9880 C   0  0  0  0  0  0  0  0  0  0  0  0
   48.3980   29.7590   45.6030 C   0  0  0  0  0  0  0  0  0  0  0  0
   44.6095   33.7469   48.0238 H   0  0  0  0  0  0  0  0  0  0  0  0
   45.0079   32.0641   49.8394 H   0  0  0  0  0  0  0  0  0  0  0  0
   46.5707   30.2135   49.3585 H   0  0  0  0  0  0  0  0  0  0  0  0
   43.8584   36.4752   45.0401 H   0  0  0  0  0  0  0  0  0  0  0  0
   45.0591   36.3802   42.8199 H   0  0  0  0  0  0  0  0  0  0  0  0
   46.7275   34.5105   42.4277 H   0  0  0  0  0  0  0  0  0  0  0  0
   47.2381   28.2158   48.3955 H   0  0  0  0  0  0  0  0  0  0  0  0
   46.3145   28.3719   46.8628 H   0  0  0  0  0  0  0  0  0  0  0  0
   47.9278   27.5820   46.8628 H   0  0  0  0  0  0  0  0  0  0  0  0
   48.8014   29.8320   49.0290 H   0  0  0  0  0  0  0  0  0  0  0  0
   49.8719   29.0632   47.8085 H   0  0  0  0  0  0  0  0  0  0  0  0
   49.6447   30.8450   47.8085 H   0  0  0  0  0  0  0  0  0  0  0  0
   49.4931   29.8424   45.5406 H   0  0  0  0  0  0  0  0  0  0  0  0
   48.0719   28.8334   45.1061 H   0  0  0  0  0  0  0  0  0  0  0  0
   47.9354   30.6245   45.1061 H   0  0  0  0  0  0  0  0  0  0  0  0
  1  2  2  0
  2  3  1  0
  4  3  2  0
  5  4  1  0
  6  1  1  0
  6  5  2  0
  7 12  2  0
  8  7  1  0
  9  8  2  0
  9 10  1  0
 10 11  2  0
 11 12  1  0
 11  1  1  0
 13 14  1  0
 13  5  1  0
 13 15  1  0
 16 13  1  0
  2 17  1  0
  3 18  1  0
  4 19  1  0
  7 20  1  0
  8 21  1  0
  9 22  1  0
 14 23  1  0
 14 24  1  0
 14 25  1  0
 15 26  1  0
 15 27  1  0
 15 28  1  0
 16 29  1  0
 16 30  1  0
 16 31  1  0
M  ISO  8  17  14  18  14  19  14  20  14  21  14  22  14  23   8  24   8
M  ISO  7  25   8  26   8  27   8  28   8  29   8  30   8  31   8
M  END
>  <minimizedAffinity>  (1) 
-4.83389807

>  <minimizedRMSD>  (1) 
1.06578457

$$$$
