
     RDKit          3D

 20 21  0  0  0  0  0  0  0  0999 V2000
   46.0510   32.7930   46.9460 C   0  0  0  0  0  0  0  0  0  0  0  0
   45.0930   32.5720   47.9340 C   0  0  0  0  0  0  0  0  0  0  0  0
   45.3360   31.7160   48.9900 C   0  0  0  0  0  0  0  0  0  0  0  0
   46.5750   31.1060   48.9930 C   0  0  0  0  0  0  0  0  0  0  0  0
   47.5350   31.3030   48.0360 C   0  0  0  0  0  0  0  0  0  0  0  0
   47.2250   32.1500   47.0420 N   0  0  0  0  0  0  0  0  0  0  0  0
   44.5590   35.5070   45.0050 C   0  0  0  0  0  0  0  0  0  0  0  0
   45.2280   35.4150   43.7590 C   0  0  0  0  0  0  0  0  0  0  0  0
   46.1970   34.4030   43.6080 C   0  0  0  0  0  0  0  0  0  0  0  0
   46.4460   33.5690   44.6510 N   0  0  0  0  0  0  0  0  0  0  0  0
   45.7650   33.7060   45.8370 C   0  0  0  0  0  0  0  0  0  0  0  0
   44.8360   34.6670   45.9990 N   0  0  0  0  0  0  0  0  0  0  0  0
   48.7590   30.6500   48.1140 O   0  0  0  0  0  0  0  0  0  0  0  0
   44.1244   33.0896   47.8713 H   0  0  0  0  0  0  0  0  0  0  0  0
   44.5908   31.5319   49.7779 H   0  0  0  0  0  0  0  0  0  0  0  0
   46.8062   30.4165   49.8183 H   0  0  0  0  0  0  0  0  0  0  0  0
   43.7973   36.2867   45.1530 H   0  0  0  0  0  0  0  0  0  0  0  0
   44.9987   36.1099   42.9377 H   0  0  0  0  0  0  0  0  0  0  0  0
   46.7434   34.2901   42.6600 H   0  0  0  0  0  0  0  0  0  0  0  0
   49.4454   30.8000   47.4166 H   0  0  0  0  0  0  0  0  0  0  0  0
  1  6  1  0
  1  2  2  0
  2  3  1  0
  3  4  2  0
  5 13  1  0
  5  4  1  0
  6  5  2  0
  7 12  2  0
  8  7  1  0
  9  8  2  0
  9 10  1  0
 10 11  2  0
 11 12  1  0
 11  1  1  0
  2 14  1  0
  3 15  1  0
  4 16  1  0
  7 17  1  0
  8 18  1  0
  9 19  1  0
 13 20  1  0
M  ISO  7  14  14  15  14  16  14  17  14  18  14  19  14  20   3
M  END
>  <minimizedAffinity>  (1) 
-4.68513536

>  <minimizedRMSD>  (1) 
0.0545068085

$$$$
