
     RDKit          3D

 22 23  0  0  0  0  0  0  0  0999 V2000
   46.0510   32.7380   47.0940 C   0  0  0  0  0  0  0  0  0  0  0  0
   44.9620   32.2190   47.7790 C   0  0  0  0  0  0  0  0  0  0  0  0
   45.1230   31.4210   48.9060 C   0  0  0  0  0  0  0  0  0  0  0  0
   46.4230   31.1920   49.2790 C   0  0  0  0  0  0  0  0  0  0  0  0
   47.5350   31.6890   48.6260 C   0  0  0  0  0  0  0  0  0  0  0  0
   47.2890   32.4550   47.5420 N   0  0  0  0  0  0  0  0  0  0  0  0
   44.7140   35.3300   44.8980 C   0  0  0  0  0  0  0  0  0  0  0  0
   45.4850   35.1870   43.7090 C   0  0  0  0  0  0  0  0  0  0  0  0
   46.4650   34.1840   43.6880 C   0  0  0  0  0  0  0  0  0  0  0  0
   46.6280   33.4080   44.7930 N   0  0  0  0  0  0  0  0  0  0  0  0
   45.8700   33.5770   45.9090 C   0  0  0  0  0  0  0  0  0  0  0  0
   44.9410   34.5270   45.9320 N   0  0  0  0  0  0  0  0  0  0  0  0
   48.9300   31.4390   49.0340 C   0  0  0  0  0  0  0  0  0  0  0  0
   43.9463   32.4444   47.4217 H   0  0  0  0  0  0  0  0  0  0  0  0
   44.2689   31.0031   49.4591 H   0  0  0  0  0  0  0  0  0  0  0  0
   46.5935   30.5645   50.1662 H   0  0  0  0  0  0  0  0  0  0  0  0
   43.9334   36.1025   44.9600 H   0  0  0  0  0  0  0  0  0  0  0  0
   45.3179   35.8393   42.8392 H   0  0  0  0  0  0  0  0  0  0  0  0
   47.0892   34.0281   42.7958 H   0  0  0  0  0  0  0  0  0  0  0  0
   48.9944   31.4275   50.1321 H   0  0  0  0  0  0  0  0  0  0  0  0
   49.2596   30.4675   48.6371 H   0  0  0  0  0  0  0  0  0  0  0  0
   49.5765   32.2356   48.6371 H   0  0  0  0  0  0  0  0  0  0  0  0
  1  6  1  0
  1  2  2  0
  2  3  1  0
  3  4  2  0
  5 13  1  0
  5  4  1  0
  6  5  2  0
  7 12  2  0
  8  7  1  0
  9  8  2  0
  9 10  1  0
 10 11  2  0
 11 12  1  0
 11  1  1  0
  2 14  1  0
  3 15  1  0
  4 16  1  0
  7 17  1  0
  8 18  1  0
  9 19  1  0
 13 20  1  0
 13 21  1  0
 13 22  1  0
M  ISO  8  14  14  15  14  16  14  17  14  18  14  19  14  20   8  21   8
M  ISO  1  22   8
M  END
>  <minimizedAffinity>  (1) 
-4.81781483

>  <minimizedRMSD>  (1) 
0.53498143

$$$$
