
     RDKit          3D

 37 40  0  0  0  0  0  0  0  0999 V2000
   47.1680   32.9640   43.5110 C   0  0  0  0  0  0  0  0  0  0  0  0
   47.7140   33.0740   42.2660 N   0  0  0  0  0  0  0  0  0  0  0  0
   47.4620   34.0590   41.4070 C   0  0  0  0  0  0  0  0  0  0  0  0
   46.6290   35.0430   41.7110 N   0  0  0  0  0  0  0  0  0  0  0  0
   46.0330   35.0420   42.9060 C   0  0  0  0  0  0  0  0  0  0  0  0
   45.1640   36.0740   43.2140 C   0  0  0  0  0  0  0  0  0  0  0  0
   44.5290   36.1170   44.4260 C   0  0  0  0  0  0  0  0  0  0  0  0
   44.7970   35.0820   45.3240 C   0  0  0  0  0  0  0  0  0  0  0  0
   45.6650   34.0830   44.9680 C   0  0  0  0  0  0  0  0  0  0  0  0
   46.3100   34.0100   43.7800 C   0  0  0  0  0  0  0  0  0  0  0  0
   48.6030   29.8420   44.5190 C   0  0  0  0  0  0  0  0  0  0  0  0
   48.2610   29.6010   45.8410 C   0  0  0  0  0  0  0  0  0  0  0  0
   47.4760   30.5850   46.4320 C   0  0  0  0  0  0  0  0  0  0  0  0
   47.1360   31.6440   45.6880 N   0  0  0  0  0  0  0  0  0  0  0  0
   47.4610   31.8790   44.4240 C   0  0  0  0  0  0  0  0  0  0  0  0
   48.2090   30.9320   43.8720 N   0  0  0  0  0  0  0  0  0  0  0  0
   46.9870   30.5470   47.8360 C   0  0  0  0  0  0  0  0  0  0  0  0
   45.6890   29.7880   47.9780 C   0  0  0  0  0  0  0  0  0  0  0  0
   44.9580   30.4080   49.1450 C   0  0  0  0  0  0  0  0  0  0  0  0
   45.6320   31.7270   49.4490 C   0  0  0  0  0  0  0  0  0  0  0  0
   46.6040   31.9520   48.3140 C   0  0  0  0  0  0  0  0  0  0  0  0
   47.9558   34.0558   40.4241 H   0  0  0  0  0  0  0  0  0  0  0  0
   44.9813   36.8692   42.4762 H   0  0  0  0  0  0  0  0  0  0  0  0
   43.8367   36.9327   44.6817 H   0  0  0  0  0  0  0  0  0  0  0  0
   44.3139   35.0685   46.3122 H   0  0  0  0  0  0  0  0  0  0  0  0
   45.8509   33.2832   45.7000 H   0  0  0  0  0  0  0  0  0  0  0  0
   49.2224   29.1042   43.9879 H   0  0  0  0  0  0  0  0  0  0  0  0
   48.5860   28.6997   46.3813 H   0  0  0  0  0  0  0  0  0  0  0  0
   47.8085   30.0842   48.4025 H   0  0  0  0  0  0  0  0  0  0  0  0
   45.0903   29.8831   47.0601 H   0  0  0  0  0  0  0  0  0  0  0  0
   45.8701   28.7159   48.1450 H   0  0  0  0  0  0  0  0  0  0  0  0
   43.9032   30.5762   48.8820 H   0  0  0  0  0  0  0  0  0  0  0  0
   44.9894   29.7438   50.0213 H   0  0  0  0  0  0  0  0  0  0  0  0
   44.8903   32.5384   49.4871 H   0  0  0  0  0  0  0  0  0  0  0  0
   46.1392   31.7118   50.4250 H   0  0  0  0  0  0  0  0  0  0  0  0
   47.4924   32.4957   48.6677 H   0  0  0  0  0  0  0  0  0  0  0  0
   46.1648   32.5576   47.5075 H   0  0  0  0  0  0  0  0  0  0  0  0
  1 10  1  0
  1 15  1  0
  2  1  2  0
  3  4  2  0
  3  2  1  0
  4  5  1  0
  5  6  1  0
  5 10  2  0
  6  7  2  0
  7  8  1  0
  9  8  2  0
 10  9  1  0
 11 12  2  0
 12 13  1  0
 13 17  1  0
 14 13  2  0
 15 14  1  0
 16 15  2  0
 16 11  1  0
 17 18  1  0
 17 21  1  0
 18 19  1  0
 19 20  1  0
 21 20  1  0
  3 22  1  0
  6 23  1  0
  7 24  1  0
  8 25  1  0
  9 26  1  0
 11 27  1  0
 12 28  1  0
 17 29  1  0
 18 30  1  0
 18 31  1  0
 19 32  1  0
 19 33  1  0
 20 34  1  0
 20 35  1  0
 21 36  1  0
 21 37  1  0
M  ISO  8  22  14  23  14  24  14  25  14  26  14  27  14  28  14  29  13
M  ISO  8  30  13  31  13  32  13  33  13  34  13  35  13  36  13  37  13
M  END
>  <minimizedAffinity>  (1) 
-5.96925545

>  <minimizedRMSD>  (1) 
3.0663476

$$$$
