
     RDKit          3D

 41 44  0  0  1  0  0  0  0  0999 V2000
   44.7960   33.7070   40.9910 N   0  0  0  0  0  0  0  0  0  0  0  0
   43.5820   34.4310   40.5760 C   0  0  0  0  0  0  0  0  0  0  0  0
   42.4190   34.1340   41.4750 C   0  0  0  0  0  0  0  0  0  0  0  0
   42.2110   32.7040   41.4740 N   0  0  0  0  0  0  0  0  0  0  0  0
   43.3480   32.1470   42.2050 C   0  0  0  0  0  0  0  0  0  0  0  0
   44.6670   32.3640   41.5060 C   0  0  1  0  0  0  0  0  0  0  0  0
   46.6480   34.7830   42.0750 C   0  0  0  0  0  0  0  0  0  0  0  0
   47.9450   35.2420   42.0070 C   0  0  0  0  0  0  0  0  0  0  0  0
   48.7220   35.1180   40.8500 C   0  0  0  0  0  0  0  0  0  0  0  0
   48.1670   34.5060   39.7120 C   0  0  0  0  0  0  0  0  0  0  0  0
   46.8800   34.0570   39.7950 C   0  0  0  0  0  0  0  0  0  0  0  0
   46.1540   34.1950   40.9430 C   0  0  0  0  0  0  0  0  0  0  0  0
   44.4500   36.1150   44.8190 C   0  0  0  0  0  0  0  0  0  0  0  0
   45.0910   36.0470   43.5740 C   0  0  0  0  0  0  0  0  0  0  0  0
   45.9370   34.9610   43.3130 C   0  0  0  0  0  0  0  0  0  0  0  0
   46.1110   34.0130   44.2650 N   0  0  0  0  0  0  0  0  0  0  0  0
   45.4560   34.1340   45.4650 C   0  0  0  0  0  0  0  0  0  0  0  0
   44.6430   35.1600   45.7390 N   0  0  0  0  0  0  0  0  0  0  0  0
   44.9290   31.3170   40.4740 C   0  0  0  0  0  0  0  0  0  0  0  0
   46.0200   30.4510   40.3640 C   0  0  0  0  0  0  0  0  0  0  0  0
   45.8830   29.6350   39.2690 C   0  0  0  0  0  0  0  0  0  0  0  0
   44.6660   30.0480   38.7320 C   0  0  0  0  0  0  0  0  0  0  0  0
   44.1640   31.0090   39.4550 O   0  0  0  0  0  0  0  0  0  0  0  0
   43.7856   35.5116   40.6032 H   0  0  0  0  0  0  0  0  0  0  0  0
   43.3198   34.1023   39.5595 H   0  0  0  0  0  0  0  0  0  0  0  0
   42.6383   34.4791   42.4962 H   0  0  0  0  0  0  0  0  0  0  0  0
   41.5168   34.6528   41.1187 H   0  0  0  0  0  0  0  0  0  0  0  0
   41.3273   32.4678   41.9475 H   0  0  0  0  0  0  0  0  0  0  0  0
   43.3945   32.6236   43.1953 H   0  0  0  0  0  0  0  0  0  0  0  0
   43.1905   31.0607   42.2766 H   0  0  0  0  0  0  0  0  0  0  0  0
   45.4571   32.2539   42.2633 H   0  0  0  0  0  0  0  0  0  0  0  0
   48.3852   35.7227   42.8931 H   0  0  0  0  0  0  0  0  0  0  0  0
   49.7552   35.4949   40.8308 H   0  0  0  0  0  0  0  0  0  0  0  0
   48.7500   34.3928   38.7861 H   0  0  0  0  0  0  0  0  0  0  0  0
   46.4194   33.5749   38.9201 H   0  0  0  0  0  0  0  0  0  0  0  0
   43.7824   36.9602   45.0427 H   0  0  0  0  0  0  0  0  0  0  0  0
   44.9330   36.8300   42.8177 H   0  0  0  0  0  0  0  0  0  0  0  0
   45.6053   33.3580   46.2302 H   0  0  0  0  0  0  0  0  0  0  0  0
   46.8718   30.4266   41.0596 H   0  0  0  0  0  0  0  0  0  0  0  0
   46.5640   28.8510   38.9062 H   0  0  0  0  0  0  0  0  0  0  0  0
   44.1978   29.6254   37.8308 H   0  0  0  0  0  0  0  0  0  0  0  0
  1  6  1  0
  2  1  1  0
  2  3  1  0
  4  3  1  0
  4  5  1  0
  6  5  1  0
  7 15  1  0
  8  7  2  0
  9  8  1  0
 10 11  1  0
 10  9  2  0
 11 12  2  0
 12  1  1  0
 12  7  1  0
 13 18  2  0
 14 13  1  0
 15 14  2  0
 15 16  1  0
 16 17  2  0
 17 18  1  0
 19  6  1  0
 20 19  2  0
 21 20  1  0
 22 21  2  0
 22 23  1  0
 23 19  1  0
  2 24  1  0
  2 25  1  0
  3 26  1  0
  3 27  1  0
  4 28  1  0
  5 29  1  0
  5 30  1  0
  6 31  1  1
  8 32  1  0
  9 33  1  0
 10 34  1  0
 11 35  1  0
 13 36  1  0
 14 37  1  0
 17 38  1  0
 20 39  1  0
 21 40  1  0
 22 41  1  0
M  ISO  8  24  13  25  13  26  13  27  13  28   5  29  13  30  13  31  13
M  ISO  8  32  14  33  14  34  14  35  14  36  14  37  14  38  14  39  14
M  ISO  2  40  14  41  14
M  END
>  <minimizedAffinity>  (1) 
-5.60081911

>  <minimizedRMSD>  (1) 
0.170738518

$$$$
