
     RDKit          3D

 33 35  0  0  0  0  0  0  0  0999 V2000
   46.5410   32.6260   44.0830 C   0  0  0  0  0  0  0  0  0  0  0  0
   47.3820   32.4020   43.0380 N   0  0  0  0  0  0  0  0  0  0  0  0
   47.6560   33.2750   42.0800 C   0  0  0  0  0  0  0  0  0  0  0  0
   47.1010   34.4990   42.0660 N   0  0  0  0  0  0  0  0  0  0  0  0
   46.2580   34.8270   43.0430 C   0  0  0  0  0  0  0  0  0  0  0  0
   45.6960   36.0830   43.0180 C   0  0  0  0  0  0  0  0  0  0  0  0
   44.8230   36.4760   43.9980 C   0  0  0  0  0  0  0  0  0  0  0  0
   44.5280   35.5630   45.0120 C   0  0  0  0  0  0  0  0  0  0  0  0
   45.1240   34.3190   44.9820 C   0  0  0  0  0  0  0  0  0  0  0  0
   45.9930   33.8990   44.0260 C   0  0  0  0  0  0  0  0  0  0  0  0
   45.2340   29.5620   45.4130 C   0  0  0  0  0  0  0  0  0  0  0  0
   45.4950   29.5330   46.7770 C   0  0  0  0  0  0  0  0  0  0  0  0
   46.1620   30.6360   47.2730 C   0  0  0  0  0  0  0  0  0  0  0  0
   46.4870   31.6040   46.4160 N   0  0  0  0  0  0  0  0  0  0  0  0
   46.2530   31.6580   45.1220 C   0  0  0  0  0  0  0  0  0  0  0  0
   45.6110   30.5910   44.6650 N   0  0  0  0  0  0  0  0  0  0  0  0
   46.5370   30.8070   48.6960 C   0  0  0  0  0  0  0  0  0  0  0  0
   47.8210   31.6410   48.7900 C   0  0  0  0  0  0  0  0  0  0  0  0
   45.4940   31.5390   49.4960 C   0  0  0  0  0  0  0  0  0  0  0  0
   48.3535   32.9917   41.2779 H   0  0  0  0  0  0  0  0  0  0  0  0
   45.9500   36.7777   42.2038 H   0  0  0  0  0  0  0  0  0  0  0  0
   44.3694   37.4781   43.9862 H   0  0  0  0  0  0  0  0  0  0  0  0
   43.8324   35.8308   45.8210 H   0  0  0  0  0  0  0  0  0  0  0  0
   44.8775   33.6159   45.7913 H   0  0  0  0  0  0  0  0  0  0  0  0
   44.7060   28.7179   44.9452 H   0  0  0  0  0  0  0  0  0  0  0  0
   45.1919   28.6911   47.4168 H   0  0  0  0  0  0  0  0  0  0  0  0
   46.6582   29.7925   49.1036 H   0  0  0  0  0  0  0  0  0  0  0  0
   48.0746   31.8057   49.8476 H   0  0  0  0  0  0  0  0  0  0  0  0
   48.6438   31.1045   48.2949 H   0  0  0  0  0  0  0  0  0  0  0  0
   47.6653   32.6109   48.2949 H   0  0  0  0  0  0  0  0  0  0  0  0
   45.6912   31.4006   50.5693 H   0  0  0  0  0  0  0  0  0  0  0  0
   45.5301   32.6109   49.2518 H   0  0  0  0  0  0  0  0  0  0  0  0
   44.4982   31.1406   49.2518 H   0  0  0  0  0  0  0  0  0  0  0  0
  1 15  1  0
  2  1  2  0
  3  2  1  0
  4  3  2  0
  4  5  1  0
  5 10  2  0
  6  5  1  0
  6  7  2  0
  7  8  1  0
  9  8  2  0
 10  1  1  0
 10  9  1  0
 11 12  2  0
 12 13  1  0
 13 17  1  0
 14 13  2  0
 15 14  1  0
 16 15  2  0
 16 11  1  0
 17 18  1  0
 17 19  1  0
  3 20  1  0
  6 21  1  0
  7 22  1  0
  8 23  1  0
  9 24  1  0
 11 25  1  0
 12 26  1  0
 17 27  1  0
 18 28  1  0
 18 29  1  0
 18 30  1  0
 19 31  1  0
 19 32  1  0
 19 33  1  0
M  ISO  8  20  14  21  14  22  14  23  14  24  14  25  14  26  14  27   8
M  ISO  6  28   8  29   8  30   8  31   8  32   8  33   8
M  END
>  <minimizedAffinity>  (1) 
-5.28369808

>  <minimizedRMSD>  (1) 
1.8602066

$$$$
