
     RDKit          3D

 26 28  0  0  0  0  0  0  0  0999 V2000
   43.6450   33.8460   40.4560 C   0  0  0  0  0  0  0  0  0  0  0  0
   43.8290   32.9640   39.4420 N   0  0  0  0  0  0  0  0  0  0  0  0
   42.9470   32.7230   38.4720 C   0  0  0  0  0  0  0  0  0  0  0  0
   41.7790   33.3520   38.4220 N   0  0  0  0  0  0  0  0  0  0  0  0
   41.4920   34.2410   39.3700 C   0  0  0  0  0  0  0  0  0  0  0  0
   40.2730   34.8940   39.3140 C   0  0  0  0  0  0  0  0  0  0  0  0
   39.9290   35.8200   40.2660 C   0  0  0  0  0  0  0  0  0  0  0  0
   40.8540   36.0700   41.2810 C   0  0  0  0  0  0  0  0  0  0  0  0
   42.0530   35.3920   41.2890 C   0  0  0  0  0  0  0  0  0  0  0  0
   42.4250   34.4720   40.3650 C   0  0  0  0  0  0  0  0  0  0  0  0
   46.8700   34.6820   41.7770 C   0  0  0  0  0  0  0  0  0  0  0  0
   46.7920   34.6360   43.1790 C   0  0  0  0  0  0  0  0  0  0  0  0
   45.5560   34.2970   43.6800 C   0  0  0  0  0  0  0  0  0  0  0  0
   44.5800   34.0520   42.8080 N   0  0  0  0  0  0  0  0  0  0  0  0
   44.6180   34.0870   41.4950 C   0  0  0  0  0  0  0  0  0  0  0  0
   45.8160   34.4150   41.0200 N   0  0  0  0  0  0  0  0  0  0  0  0
   45.3100   34.2050   45.0910 C   0  0  0  0  0  0  0  0  0  0  0  0
   46.1580   33.6100   45.8300 O   0  0  0  0  0  0  0  0  0  0  0  0
   43.1929   31.9851   37.6942 H   0  0  0  0  0  0  0  0  0  0  0  0
   39.5721   34.6680   38.4969 H   0  0  0  0  0  0  0  0  0  0  0  0
   38.9628   36.3445   40.2308 H   0  0  0  0  0  0  0  0  0  0  0  0
   40.6271   36.8033   42.0689 H   0  0  0  0  0  0  0  0  0  0  0  0
   42.7591   35.6127   42.1031 H   0  0  0  0  0  0  0  0  0  0  0  0
   47.8249   34.9449   41.2984 H   0  0  0  0  0  0  0  0  0  0  0  0
   47.6536   34.8544   43.8271 H   0  0  0  0  0  0  0  0  0  0  0  0
   44.4004   34.6430   45.5278 H   0  0  0  0  0  0  0  0  0  0  0  0
  1 15  1  0
  2  1  2  0
  3  2  1  0
  4  3  2  0
  4  5  1  0
  5 10  2  0
  6  5  1  0
  6  7  2  0
  7  8  1  0
  8  9  2  0
 10  1  1  0
 10  9  1  0
 11 12  2  0
 12 13  1  0
 13 17  1  0
 14 13  2  0
 15 14  1  0
 16 15  2  0
 16 11  1  0
 17 18  2  0
  3 19  1  0
  6 20  1  0
  7 21  1  0
  8 22  1  0
  9 23  1  0
 11 24  1  0
 12 25  1  0
 17 26  1  0
M  ISO  8  19  14  20  14  21  14  22  14  23  14  24  14  25  14  26   6
M  END
>  <minimizedAffinity>  (1) 
-5.17185211

>  <minimizedRMSD>  (1) 
6.28273058

$$$$
