
     RDKit          3D

 46 48  0  0  1  0  0  0  0  0999 V2000
   46.7730   34.8100   42.1190 C   0  0  0  0  0  0  0  0  0  0  0  0
   48.0270   35.3840   42.0830 C   0  0  0  0  0  0  0  0  0  0  0  0
   48.8310   35.3460   40.9400 C   0  0  0  0  0  0  0  0  0  0  0  0
   48.3450   34.7000   39.7880 C   0  0  0  0  0  0  0  0  0  0  0  0
   47.1030   34.1370   39.8380 C   0  0  0  0  0  0  0  0  0  0  0  0
   46.3480   34.1940   40.9730 C   0  0  0  0  0  0  0  0  0  0  0  0
   45.0520   33.5630   41.0030 N   0  0  0  0  0  0  0  0  0  0  0  0
   43.8190   34.1450   40.4260 C   0  0  0  0  0  0  0  0  0  0  0  0
   42.6050   33.8440   41.2580 C   0  0  0  0  0  0  0  0  0  0  0  0
   42.5210   32.3990   41.4220 N   0  0  0  0  0  0  0  0  0  0  0  0
   43.6320   32.0740   42.3040 C   0  0  0  0  0  0  0  0  0  0  0  0
   44.9730   32.3060   41.6410 C   0  0  1  0  0  0  0  0  0  0  0  0
   45.4220   31.0730   40.9450 C   0  0  0  0  0  0  0  0  0  0  0  0
   44.8480   29.7880   41.4440 C   0  0  0  0  0  0  0  0  0  0  0  0
   45.3250   31.1180   39.4430 C   0  0  0  0  0  0  0  0  0  0  0  0
   46.9430   30.8800   41.1970 C   0  0  0  0  0  0  0  0  0  0  0  0
   44.4370   35.9420   44.8380 C   0  0  0  0  0  0  0  0  0  0  0  0
   45.0980   35.9350   43.6050 C   0  0  0  0  0  0  0  0  0  0  0  0
   46.0320   34.9210   43.3490 C   0  0  0  0  0  0  0  0  0  0  0  0
   46.2620   33.9850   44.3010 N   0  0  0  0  0  0  0  0  0  0  0  0
   45.5940   34.0320   45.4850 C   0  0  0  0  0  0  0  0  0  0  0  0
   44.6900   35.0050   45.7480 N   0  0  0  0  0  0  0  0  0  0  0  0
   48.4069   35.8884   42.9837 H   0  0  0  0  0  0  0  0  0  0  0  0
   49.8268   35.8132   40.9410 H   0  0  0  0  0  0  0  0  0  0  0  0
   48.9506   34.6502   38.8711 H   0  0  0  0  0  0  0  0  0  0  0  0
   46.7037   33.6285   38.9480 H   0  0  0  0  0  0  0  0  0  0  0  0
   43.9404   35.2362   40.3587 H   0  0  0  0  0  0  0  0  0  0  0  0
   43.6670   33.6966   39.4331 H   0  0  0  0  0  0  0  0  0  0  0  0
   42.6973   34.3270   42.2420 H   0  0  0  0  0  0  0  0  0  0  0  0
   41.6989   34.2269   40.7657 H   0  0  0  0  0  0  0  0  0  0  0  0
   41.6237   32.1317   41.8513 H   0  0  0  0  0  0  0  0  0  0  0  0
   43.5672   32.7045   43.2030 H   0  0  0  0  0  0  0  0  0  0  0  0
   43.5607   31.0063   42.5589 H   0  0  0  0  0  0  0  0  0  0  0  0
   45.7780   32.4479   42.3771 H   0  0  0  0  0  0  0  0  0  0  0  0
   44.8484   29.7889   42.5440 H   0  0  0  0  0  0  0  0  0  0  0  0
   43.8163   29.6806   41.0778 H   0  0  0  0  0  0  0  0  0  0  0  0
   45.4564   28.9479   41.0778 H   0  0  0  0  0  0  0  0  0  0  0  0
   44.3630   31.5643   39.1509 H   0  0  0  0  0  0  0  0  0  0  0  0
   46.1486   31.7260   39.0404 H   0  0  0  0  0  0  0  0  0  0  0  0
   45.3926   30.0965   39.0404 H   0  0  0  0  0  0  0  0  0  0  0  0
   47.1351   30.8556   42.2798 H   0  0  0  0  0  0  0  0  0  0  0  0
   47.2723   29.9329   40.7448 H   0  0  0  0  0  0  0  0  0  0  0  0
   47.4984   31.7149   40.7448 H   0  0  0  0  0  0  0  0  0  0  0  0
   43.7011   36.7297   45.0572 H   0  0  0  0  0  0  0  0  0  0  0  0
   44.8893   36.7091   42.8518 H   0  0  0  0  0  0  0  0  0  0  0  0
   45.7926   33.2625   46.2456 H   0  0  0  0  0  0  0  0  0  0  0  0
  1 19  1  0
  2  1  2  0
  3  2  1  0
  4  5  1  0
  4  3  2  0
  5  6  2  0
  6  7  1  0
  6  1  1  0
  7 12  1  0
  8  7  1  0
  8  9  1  0
  9 10  1  0
 10 11  1  0
 12 11  1  0
 13 16  1  0
 13 14  1  0
 13 12  1  0
 15 13  1  0
 17 22  2  0
 18 17  1  0
 19 18  2  0
 19 20  1  0
 20 21  2  0
 21 22  1  0
  2 23  1  0
  3 24  1  0
  4 25  1  0
  5 26  1  0
  8 27  1  0
  8 28  1  0
  9 29  1  0
  9 30  1  0
 10 31  1  0
 11 32  1  0
 11 33  1  0
 12 34  1  1
 14 35  1  0
 14 36  1  0
 14 37  1  0
 15 38  1  0
 15 39  1  0
 15 40  1  0
 16 41  1  0
 16 42  1  0
 16 43  1  0
 17 44  1  0
 18 45  1  0
 21 46  1  0
M  ISO  8  23  14  24  14  25  14  26  14  27  13  28  13  29  13  30  13
M  ISO  8  31   5  32  13  33  13  34  13  35   8  36   8  37   8  38   8
M  ISO  8  39   8  40   8  41   8  42   8  43   8  44  14  45  14  46  14
M  END
>  <minimizedAffinity>  (1) 
-5.57667971

>  <minimizedRMSD>  (1) 
0.513252735

$$$$
