
     RDKit          3D

 30 32  0  0  0  0  0  0  0  0999 V2000
   47.1380   32.8640   44.2330 C   0  0  0  0  0  0  0  0  0  0  0  0
   47.9370   32.7730   43.1410 N   0  0  0  0  0  0  0  0  0  0  0  0
   47.9460   33.6380   42.1240 C   0  0  0  0  0  0  0  0  0  0  0  0
   47.1370   34.6890   42.1110 N   0  0  0  0  0  0  0  0  0  0  0  0
   46.3100   34.8800   43.1280 C   0  0  0  0  0  0  0  0  0  0  0  0
   45.4720   35.9850   43.0990 C   0  0  0  0  0  0  0  0  0  0  0  0
   44.5980   36.2310   44.1220 C   0  0  0  0  0  0  0  0  0  0  0  0
   44.5860   35.3310   45.1860 C   0  0  0  0  0  0  0  0  0  0  0  0
   45.4370   34.2480   45.1710 C   0  0  0  0  0  0  0  0  0  0  0  0
   46.3150   33.9790   44.1680 C   0  0  0  0  0  0  0  0  0  0  0  0
   47.3680   29.6160   45.7250 C   0  0  0  0  0  0  0  0  0  0  0  0
   47.2260   29.7510   47.0980 C   0  0  0  0  0  0  0  0  0  0  0  0
   47.0380   31.0440   47.5420 C   0  0  0  0  0  0  0  0  0  0  0  0
   47.0110   32.0290   46.6320 N   0  0  0  0  0  0  0  0  0  0  0  0
   47.1450   31.9110   45.3290 C   0  0  0  0  0  0  0  0  0  0  0  0
   47.3250   30.6630   44.9070 N   0  0  0  0  0  0  0  0  0  0  0  0
   46.8590   31.4890   48.9490 C   0  0  0  0  0  0  0  0  0  0  0  0
   45.4200   31.3890   49.3900 C   0  0  0  0  0  0  0  0  0  0  0  0
   48.6360   33.4763   41.2827 H   0  0  0  0  0  0  0  0  0  0  0  0
   45.5109   36.6729   42.2415 H   0  0  0  0  0  0  0  0  0  0  0  0
   43.9306   37.1052   44.1055 H   0  0  0  0  0  0  0  0  0  0  0  0
   43.9009   35.4846   46.0328 H   0  0  0  0  0  0  0  0  0  0  0  0
   45.4043   33.5561   46.0255 H   0  0  0  0  0  0  0  0  0  0  0  0
   47.5207   28.6128   45.3003 H   0  0  0  0  0  0  0  0  0  0  0  0
   47.2607   28.8907   47.7826 H   0  0  0  0  0  0  0  0  0  0  0  0
   47.4767   30.8566   49.6036 H   0  0  0  0  0  0  0  0  0  0  0  0
   47.1641   32.5438   49.0152 H   0  0  0  0  0  0  0  0  0  0  0  0
   45.3727   31.3857   50.4890 H   0  0  0  0  0  0  0  0  0  0  0  0
   44.8567   32.2502   49.0013 H   0  0  0  0  0  0  0  0  0  0  0  0
   44.9812   30.4582   49.0013 H   0  0  0  0  0  0  0  0  0  0  0  0
  1 15  1  0
  2  1  2  0
  3  2  1  0
  4  3  2  0
  4  5  1  0
  5 10  2  0
  6  5  1  0
  6  7  2  0
  7  8  1  0
  9  8  2  0
 10  1  1  0
 10  9  1  0
 11 12  2  0
 12 13  1  0
 13 17  1  0
 14 13  2  0
 15 14  1  0
 16 15  2  0
 16 11  1  0
 17 18  1  0
  3 19  1  0
  6 20  1  0
  7 21  1  0
  8 22  1  0
  9 23  1  0
 11 24  1  0
 12 25  1  0
 17 26  1  0
 17 27  1  0
 18 28  1  0
 18 29  1  0
 18 30  1  0
M  ISO  8  19  14  20  14  21  14  22  14  23  14  24  14  25  14  26   8
M  ISO  4  27   8  28   8  29   8  30   8
M  END
>  <minimizedAffinity>  (1) 
-5.30345011

>  <minimizedRMSD>  (1) 
1.85255361

$$$$
