
     RDKit          3D

 46 49  0  0  0  0  0  0  0  0999 V2000
   45.4750   29.8280   46.3240 C   0  0  0  0  0  0  0  0  0  0  0  0
   45.9740   29.8250   47.6070 C   0  0  0  0  0  0  0  0  0  0  0  0
   46.8560   30.8580   47.8920 C   0  0  0  0  0  0  0  0  0  0  0  0
   47.1290   31.7300   46.9180 N   0  0  0  0  0  0  0  0  0  0  0  0
   46.6690   31.7510   45.6970 C   0  0  0  0  0  0  0  0  0  0  0  0
   45.8180   30.7520   45.4290 N   0  0  0  0  0  0  0  0  0  0  0  0
   46.8710   32.6180   44.5520 C   0  0  0  0  0  0  0  0  0  0  0  0
   47.7550   32.3480   43.5480 N   0  0  0  0  0  0  0  0  0  0  0  0
   47.9590   33.1320   42.4900 C   0  0  0  0  0  0  0  0  0  0  0  0
   47.2890   34.2760   42.3350 N   0  0  0  0  0  0  0  0  0  0  0  0
   46.4110   34.6250   43.2550 C   0  0  0  0  0  0  0  0  0  0  0  0
   45.7100   35.8200   43.0920 C   0  0  0  0  0  0  0  0  0  0  0  0
   44.7890   36.2360   44.0080 C   0  0  0  0  0  0  0  0  0  0  0  0
   44.5720   35.4130   45.1240 C   0  0  0  0  0  0  0  0  0  0  0  0
   45.2910   34.2450   45.2310 C   0  0  0  0  0  0  0  0  0  0  0  0
   46.2100   33.8070   44.3400 C   0  0  0  0  0  0  0  0  0  0  0  0
   47.5510   31.1090   49.1880 C   0  0  0  0  0  0  0  0  0  0  0  0
   48.9120   31.6900   48.9740 C   0  0  0  0  0  0  0  0  0  0  0  0
   49.8840   31.3960   50.0850 C   0  0  0  0  0  0  0  0  0  0  0  0
   49.8120   29.9400   50.4330 C   0  0  0  0  0  0  0  0  0  0  0  0
   50.6770   29.5810   51.6190 C   0  0  0  0  0  0  0  0  0  0  0  0
   51.8460   30.5280   51.7720 C   0  0  0  0  0  0  0  0  0  0  0  0
   52.3060   30.8840   50.3550 C   0  0  0  0  0  0  0  0  0  0  0  0
   51.2710   31.8910   49.8410 C   0  0  0  0  0  0  0  0  0  0  0  0
   44.7679   29.0391   46.0278 H   0  0  0  0  0  0  0  0  0  0  0  0
   45.6951   29.0625   48.3492 H   0  0  0  0  0  0  0  0  0  0  0  0
   48.6941   32.8304   41.7293 H   0  0  0  0  0  0  0  0  0  0  0  0
   45.9044   36.4407   42.2049 H   0  0  0  0  0  0  0  0  0  0  0  0
   44.2381   37.1791   43.8773 H   0  0  0  0  0  0  0  0  0  0  0  0
   43.8423   35.6960   45.8969 H   0  0  0  0  0  0  0  0  0  0  0  0
   45.1033   33.6156   46.1134 H   0  0  0  0  0  0  0  0  0  0  0  0
   46.9517   31.8120   49.7852 H   0  0  0  0  0  0  0  0  0  0  0  0
   47.6633   30.1485   49.7122 H   0  0  0  0  0  0  0  0  0  0  0  0
   49.3206   31.2791   48.0390 H   0  0  0  0  0  0  0  0  0  0  0  0
   48.7899   32.7826   48.9383 H   0  0  0  0  0  0  0  0  0  0  0  0
   49.5748   31.9800   50.9644 H   0  0  0  0  0  0  0  0  0  0  0  0
   48.7681   29.6856   50.6688 H   0  0  0  0  0  0  0  0  0  0  0  0
   50.1830   29.3724   49.5669 H   0  0  0  0  0  0  0  0  0  0  0  0
   50.0642   29.6223   52.5315 H   0  0  0  0  0  0  0  0  0  0  0  0
   51.0771   28.5695   51.4552 H   0  0  0  0  0  0  0  0  0  0  0  0
   51.5322   31.4354   52.3088 H   0  0  0  0  0  0  0  0  0  0  0  0
   52.6597   30.0653   52.3498 H   0  0  0  0  0  0  0  0  0  0  0  0
   53.3081   31.3371   50.3766 H   0  0  0  0  0  0  0  0  0  0  0  0
   52.3744   29.9967   49.7085 H   0  0  0  0  0  0  0  0  0  0  0  0
   51.4166   32.0383   48.7607 H   0  0  0  0  0  0  0  0  0  0  0  0
   51.4061   32.8412   50.3784 H   0  0  0  0  0  0  0  0  0  0  0  0
  1  2  2  0
  2  3  1  0
  3 17  1  0
  4  3  2  0
  5  4  1  0
  6  5  2  0
  6  1  1  0
  7  5  1  0
  8  7  2  0
  9  8  1  0
 10  9  2  0
 10 11  1  0
 11 16  2  0
 12 11  1  0
 12 13  2  0
 13 14  1  0
 14 15  2  0
 16  7  1  0
 16 15  1  0
 18 17  1  0
 18 19  1  0
 19 20  1  0
 20 21  1  0
 21 22  1  0
 23 22  1  0
 24 19  1  0
 24 23  1  0
  1 25  1  0
  2 26  1  0
  9 27  1  0
 12 28  1  0
 13 29  1  0
 14 30  1  0
 15 31  1  0
 17 32  1  0
 17 33  1  0
 18 34  1  0
 18 35  1  0
 19 36  1  0
 20 37  1  0
 20 38  1  0
 21 39  1  0
 21 40  1  0
 22 41  1  0
 22 42  1  0
 23 43  1  0
 23 44  1  0
 24 45  1  0
 24 46  1  0
M  ISO  8  25  14  26  14  27  14  28  14  29  14  30  14  31  14  32   8
M  ISO  8  33   8  34   8  35   8  36  13  37  13  38  13  39  13  40  13
M  ISO  6  41  13  42  13  43  13  44  13  45  13  46  13
M  END
>  <minimizedAffinity>  (1) 
-6.12798262

>  <minimizedRMSD>  (1) 
3.76239634

$$$$
