
     RDKit          3D

 35 38  0  0  0  0  0  0  0  0999 V2000
   45.4640   29.8380   46.3450 C   0  0  0  0  0  0  0  0  0  0  0  0
   45.9830   29.8260   47.6180 C   0  0  0  0  0  0  0  0  0  0  0  0
   46.8830   30.8450   47.8870 C   0  0  0  0  0  0  0  0  0  0  0  0
   47.1520   31.7170   46.9100 N   0  0  0  0  0  0  0  0  0  0  0  0
   46.6710   31.7460   45.6980 C   0  0  0  0  0  0  0  0  0  0  0  0
   45.8020   30.7590   45.4450 N   0  0  0  0  0  0  0  0  0  0  0  0
   46.8730   32.6140   44.5610 C   0  0  0  0  0  0  0  0  0  0  0  0
   47.7620   32.3500   43.5570 N   0  0  0  0  0  0  0  0  0  0  0  0
   47.9600   33.1430   42.5060 C   0  0  0  0  0  0  0  0  0  0  0  0
   47.2950   34.2710   42.3510 N   0  0  0  0  0  0  0  0  0  0  0  0
   46.4110   34.6230   43.2630 C   0  0  0  0  0  0  0  0  0  0  0  0
   45.7210   35.8140   43.0920 C   0  0  0  0  0  0  0  0  0  0  0  0
   44.7920   36.2300   44.0140 C   0  0  0  0  0  0  0  0  0  0  0  0
   44.5700   35.4100   45.1260 C   0  0  0  0  0  0  0  0  0  0  0  0
   45.2840   34.2440   45.2370 C   0  0  0  0  0  0  0  0  0  0  0  0
   46.2090   33.8020   44.3490 C   0  0  0  0  0  0  0  0  0  0  0  0
   47.5890   31.0710   49.1670 C   0  0  0  0  0  0  0  0  0  0  0  0
   48.9570   31.6920   48.9660 C   0  0  0  0  0  0  0  0  0  0  0  0
   49.8130   31.2120   50.0970 C   0  0  0  0  0  0  0  0  0  0  0  0
   49.7800   29.9460   50.5910 N   0  0  0  0  0  0  0  0  0  0  0  0
   50.6380   29.8560   51.5630 O   0  0  0  0  0  0  0  0  0  0  0  0
   51.2480   30.9850   51.7570 C   0  0  0  0  0  0  0  0  0  0  0  0
   50.7470   31.8650   50.8450 N   0  0  0  0  0  0  0  0  0  0  0  0
   44.7429   29.0579   46.0595 H   0  0  0  0  0  0  0  0  0  0  0  0
   45.7057   29.0671   48.3645 H   0  0  0  0  0  0  0  0  0  0  0  0
   48.6988   32.8490   41.7459 H   0  0  0  0  0  0  0  0  0  0  0  0
   45.9206   36.4340   42.2056 H   0  0  0  0  0  0  0  0  0  0  0  0
   44.2423   37.1737   43.8831 H   0  0  0  0  0  0  0  0  0  0  0  0
   43.8376   35.6947   45.8957 H   0  0  0  0  0  0  0  0  0  0  0  0
   45.0904   33.6157   46.1189 H   0  0  0  0  0  0  0  0  0  0  0  0
   46.9830   31.7439   49.7915 H   0  0  0  0  0  0  0  0  0  0  0  0
   47.7304   30.0935   49.6512 H   0  0  0  0  0  0  0  0  0  0  0  0
   49.3827   31.3700   48.0042 H   0  0  0  0  0  0  0  0  0  0  0  0
   48.8967   32.7903   48.9515 H   0  0  0  0  0  0  0  0  0  0  0  0
   52.0206   31.1918   52.5122 H   0  0  0  0  0  0  0  0  0  0  0  0
  1  2  2  0
  2  3  1  0
  3 17  1  0
  4  3  2  0
  5  4  1  0
  6  5  2  0
  6  1  1  0
  7  5  1  0
  8  7  2  0
  9  8  1  0
 10  9  2  0
 10 11  1  0
 11 16  2  0
 12 11  1  0
 12 13  2  0
 13 14  1  0
 14 15  2  0
 16  7  1  0
 16 15  1  0
 18 17  1  0
 18 19  1  0
 19 20  2  0
 19 23  1  0
 20 21  1  0
 21 22  1  0
 23 22  2  0
  1 24  1  0
  2 25  1  0
  9 26  1  0
 12 27  1  0
 13 28  1  0
 14 29  1  0
 15 30  1  0
 17 31  1  0
 17 32  1  0
 18 33  1  0
 18 34  1  0
 22 35  1  0
M  ISO  8  24  14  25  14  26  14  27  14  28  14  29  14  30  14  31   8
M  ISO  4  32   8  33   8  34   8  35  14
M  END
>  <minimizedAffinity>  (1) 
-5.97793531

>  <minimizedRMSD>  (1) 
2.72468185

$$$$
