
     RDKit          3D

 37 39  0  0  0  0  0  0  0  0999 V2000
   46.9230   34.6360   41.6580 C   0  0  0  0  0  0  0  0  0  0  0  0
   46.8650   34.6990   43.0320 C   0  0  0  0  0  0  0  0  0  0  0  0
   45.6140   34.4620   43.5710 C   0  0  0  0  0  0  0  0  0  0  0  0
   44.6130   34.2030   42.7220 N   0  0  0  0  0  0  0  0  0  0  0  0
   44.6520   34.1390   41.4150 C   0  0  0  0  0  0  0  0  0  0  0  0
   45.8510   34.3670   40.9130 N   0  0  0  0  0  0  0  0  0  0  0  0
   43.6640   33.8750   40.3940 C   0  0  0  0  0  0  0  0  0  0  0  0
   43.8330   32.9940   39.3780 N   0  0  0  0  0  0  0  0  0  0  0  0
   42.9410   32.7360   38.4280 C   0  0  0  0  0  0  0  0  0  0  0  0
   41.7570   33.3560   38.4040 N   0  0  0  0  0  0  0  0  0  0  0  0
   41.4870   34.2330   39.3440 C   0  0  0  0  0  0  0  0  0  0  0  0
   40.2490   34.8800   39.3170 C   0  0  0  0  0  0  0  0  0  0  0  0
   39.9090   35.7970   40.2610 C   0  0  0  0  0  0  0  0  0  0  0  0
   40.8450   36.0760   41.2690 C   0  0  0  0  0  0  0  0  0  0  0  0
   42.0540   35.4070   41.2490 C   0  0  0  0  0  0  0  0  0  0  0  0
   42.4180   34.4900   40.3220 C   0  0  0  0  0  0  0  0  0  0  0  0
   45.2390   34.4590   45.0140 C   0  0  0  0  0  0  0  0  0  0  0  0
   46.1120   33.5290   45.8060 C   0  0  0  0  0  0  0  0  0  0  0  0
   45.3780   32.6450   46.6910 N   0  0  0  0  0  0  0  0  0  0  0  0
   45.7470   31.2700   46.9140 C   0  0  0  0  0  0  0  0  0  0  0  0
   46.9440   30.9680   46.6460 N   0  0  0  0  0  0  0  0  0  0  0  0
   44.7380   30.3690   47.4150 N   0  0  0  0  0  0  0  0  0  0  0  0
   47.4720   30.1110   46.7010 H   0  0  0  0  0  0  0  0  0  0  0  0
   47.8866   34.8137   41.1581 H   0  0  0  0  0  0  0  0  0  0  0  0
   47.7456   34.9207   43.6529 H   0  0  0  0  0  0  0  0  0  0  0  0
   43.1809   31.9991   37.6473 H   0  0  0  0  0  0  0  0  0  0  0  0
   39.5345   34.6424   38.5151 H   0  0  0  0  0  0  0  0  0  0  0  0
   38.9329   36.3035   40.2358 H   0  0  0  0  0  0  0  0  0  0  0  0
   40.6213   36.8103   42.0568 H   0  0  0  0  0  0  0  0  0  0  0  0
   42.7754   35.6370   42.0469 H   0  0  0  0  0  0  0  0  0  0  0  0
   45.3468   35.4781   45.4137 H   0  0  0  0  0  0  0  0  0  0  0  0
   44.1982   34.1135   45.1000 H   0  0  0  0  0  0  0  0  0  0  0  0
   46.6898   32.9124   45.1017 H   0  0  0  0  0  0  0  0  0  0  0  0
   46.7533   34.1570   46.4419 H   0  0  0  0  0  0  0  0  0  0  0  0
   44.5538   33.0177   47.1835 H   0  0  0  0  0  0  0  0  0  0  0  0
   44.9694   29.3799   47.5851 H   0  0  0  0  0  0  0  0  0  0  0  0
   43.7861   30.7148   47.6027 H   0  0  0  0  0  0  0  0  0  0  0  0
  1  2  2  0
  2  3  1  0
  3 17  1  0
  4  3  2  0
  5  4  1  0
  6  5  2  0
  6  1  1  0
  7  5  1  0
  8  7  2  0
  9  8  1  0
 10  9  2  0
 10 11  1  0
 11 16  2  0
 12 11  1  0
 12 13  2  0
 13 14  1  0
 15 14  2  0
 16  7  1  0
 16 15  1  0
 17 18  1  0
 18 19  1  0
 19 20  1  0
 20 22  1  0
 21 23  1  0
 21 20  2  0
  1 24  1  0
  2 25  1  0
  9 26  1  0
 12 27  1  0
 13 28  1  0
 14 29  1  0
 15 30  1  0
 17 31  1  0
 17 32  1  0
 18 33  1  0
 18 34  1  0
 19 35  1  0
 22 36  1  0
 22 37  1  0
M  ISO  8  24  14  25  14  26  14  27  14  28  14  29  14  30  14  31   8
M  ISO  3  32   8  33   8  34   8
M  END
>  <minimizedAffinity>  (1) 
-6.00538063

>  <minimizedRMSD>  (1) 
5.60548639

$$$$
