
     RDKit          3D

 31 33  0  0  0  0  0  0  0  0999 V2000
   48.6260   29.7760   44.3630 C   0  0  0  0  0  0  0  0  0  0  0  0
   48.3350   29.4660   45.6720 C   0  0  0  0  0  0  0  0  0  0  0  0
   47.5760   30.3960   46.3410 C   0  0  0  0  0  0  0  0  0  0  0  0
   47.1980   31.4880   45.6740 N   0  0  0  0  0  0  0  0  0  0  0  0
   47.4530   31.8120   44.4370 C   0  0  0  0  0  0  0  0  0  0  0  0
   48.1940   30.8990   43.7960 N   0  0  0  0  0  0  0  0  0  0  0  0
   47.1190   32.9430   43.5910 C   0  0  0  0  0  0  0  0  0  0  0  0
   47.6260   33.1240   42.3370 N   0  0  0  0  0  0  0  0  0  0  0  0
   47.3330   34.1580   41.5460 C   0  0  0  0  0  0  0  0  0  0  0  0
   46.4970   35.1130   41.9440 N   0  0  0  0  0  0  0  0  0  0  0  0
   45.9540   35.0270   43.1430 C   0  0  0  0  0  0  0  0  0  0  0  0
   45.0770   36.0320   43.5540 C   0  0  0  0  0  0  0  0  0  0  0  0
   44.4860   35.9980   44.7790 C   0  0  0  0  0  0  0  0  0  0  0  0
   44.7860   34.9210   45.6130 C   0  0  0  0  0  0  0  0  0  0  0  0
   45.6580   33.9550   45.1600 C   0  0  0  0  0  0  0  0  0  0  0  0
   46.2600   33.9620   43.9520 C   0  0  0  0  0  0  0  0  0  0  0  0
   47.1220   30.3130   47.7470 C   0  0  0  0  0  0  0  0  0  0  0  0
   45.6080   30.3630   47.8610 C   0  0  0  0  0  0  0  0  0  0  0  0
   45.2360   31.3540   49.3490 S   0  0  0  0  0  0  0  0  0  0  0  0
   49.2324   29.0759   43.7695 H   0  0  0  0  0  0  0  0  0  0  0  0
   48.6854   28.5389   46.1492 H   0  0  0  0  0  0  0  0  0  0  0  0
   47.7906   34.2217   40.5477 H   0  0  0  0  0  0  0  0  0  0  0  0
   44.8592   36.8685   42.8737 H   0  0  0  0  0  0  0  0  0  0  0  0
   43.7958   36.7920   45.1004 H   0  0  0  0  0  0  0  0  0  0  0  0
   44.3350   34.8442   46.6134 H   0  0  0  0  0  0  0  0  0  0  0  0
   45.8803   33.1145   45.8339 H   0  0  0  0  0  0  0  0  0  0  0  0
   47.4795   29.3672   48.1802 H   0  0  0  0  0  0  0  0  0  0  0  0
   47.5318   31.1789   48.2876 H   0  0  0  0  0  0  0  0  0  0  0  0
   45.1747   30.8388   46.9689 H   0  0  0  0  0  0  0  0  0  0  0  0
   45.1801   29.3525   47.9374 H   0  0  0  0  0  0  0  0  0  0  0  0
   45.5129   30.6165   50.4698 H   0  0  0  0  0  0  0  0  0  0  0  0
  1  2  2  0
  2  3  1  0
  3 17  1  0
  4  3  2  0
  5  4  1  0
  6  1  1  0
  6  5  2  0
  7 16  1  0
  7  5  1  0
  8  7  2  0
  9 10  2  0
  9  8  1  0
 10 11  1  0
 11 12  1  0
 11 16  2  0
 12 13  2  0
 13 14  1  0
 15 14  2  0
 16 15  1  0
 17 18  1  0
 18 19  1  0
  1 20  1  0
  2 21  1  0
  9 22  1  0
 12 23  1  0
 13 24  1  0
 14 25  1  0
 15 26  1  0
 17 27  1  0
 17 28  1  0
 18 29  1  0
 18 30  1  0
 19 31  1  0
M  ISO  8  20  14  21  14  22  14  23  14  24  14  25  14  26  14  27   8
M  ISO  4  28   8  29   8  30   8  31  11
M  END
>  <minimizedAffinity>  (1) 
-4.86551857

>  <minimizedRMSD>  (1) 
1.20346057

$$$$
