
     RDKit          3D

 24 26  0  0  0  0  0  0  0  0999 V2000
   47.2540   34.9180   41.9190 C   0  0  0  0  0  0  0  0  0  0  0  0
   48.4910   35.5330   41.7890 C   0  0  0  0  0  0  0  0  0  0  0  0
   48.9680   35.3120   40.5520 N   0  0  0  0  0  0  0  0  0  0  0  0
   48.0600   34.5700   39.8930 C   0  0  0  0  0  0  0  0  0  0  0  0
   48.0880   34.0850   38.5970 C   0  0  0  0  0  0  0  0  0  0  0  0
   47.0110   33.3410   38.1680 C   0  0  0  0  0  0  0  0  0  0  0  0
   45.8840   33.0330   38.9380 C   0  0  0  0  0  0  0  0  0  0  0  0
   45.9370   33.5550   40.2160 C   0  0  0  0  0  0  0  0  0  0  0  0
   46.9640   34.3010   40.7210 C   0  0  0  0  0  0  0  0  0  0  0  0
   44.5850   35.8820   44.3500 C   0  0  0  0  0  0  0  0  0  0  0  0
   45.4050   35.8960   43.2060 C   0  0  0  0  0  0  0  0  0  0  0  0
   46.3970   34.9140   43.1000 C   0  0  0  0  0  0  0  0  0  0  0  0
   46.5240   33.9930   44.1040 N   0  0  0  0  0  0  0  0  0  0  0  0
   45.7120   34.0190   45.1870 C   0  0  0  0  0  0  0  0  0  0  0  0
   44.7470   34.9540   45.3170 N   0  0  0  0  0  0  0  0  0  0  0  0
   49.0008   36.1103   42.5744 H   0  0  0  0  0  0  0  0  0  0  0  0
   49.8659   35.6496   40.1768 H   0  0  0  0  0  0  0  0  0  0  0  0
   48.9410   34.2867   37.9324 H   0  0  0  0  0  0  0  0  0  0  0  0
   47.0392   32.9582   37.1371 H   0  0  0  0  0  0  0  0  0  0  0  0
   45.0402   32.4350   38.5632 H   0  0  0  0  0  0  0  0  0  0  0  0
   45.0837   33.3538   40.8803 H   0  0  0  0  0  0  0  0  0  0  0  0
   43.7970   36.6418   44.4582 H   0  0  0  0  0  0  0  0  0  0  0  0
   45.2706   36.6542   42.4205 H   0  0  0  0  0  0  0  0  0  0  0  0
   45.8411   33.2637   45.9762 H   0  0  0  0  0  0  0  0  0  0  0  0
  1 12  1  0
  2  1  2  0
  3  2  1  0
  4  3  1  0
  4  9  2  0
  5  4  1  0
  6  5  2  0
  6  7  1  0
  7  8  2  0
  8  9  1  0
  9  1  1  0
 10 15  2  0
 11 10  1  0
 12 11  2  0
 12 13  1  0
 13 14  2  0
 14 15  1  0
  2 16  1  0
  3 17  1  0
  5 18  1  0
  6 19  1  0
  7 20  1  0
  8 21  1  0
 10 22  1  0
 11 23  1  0
 14 24  1  0
M  ISO  8  16  14  17   9  18  14  19  14  20  14  21  14  22  14  23  14
M  ISO  1  24  14
M  END
>  <minimizedAffinity>  (1) 
-5.59790993

>  <minimizedRMSD>  (1) 
1.67765129

$$$$
