
     RDKit          3D

 37 40  0  0  0  0  0  0  0  0999 V2000
   44.4920   35.9520   44.0890 C   0  0  0  0  0  0  0  0  0  0  0  0
   45.3270   35.9180   42.9530 C   0  0  0  0  0  0  0  0  0  0  0  0
   46.3660   34.9710   42.9490 C   0  0  0  0  0  0  0  0  0  0  0  0
   46.5000   34.1560   44.0250 N   0  0  0  0  0  0  0  0  0  0  0  0
   45.6720   34.2230   45.0990 C   0  0  0  0  0  0  0  0  0  0  0  0
   44.6720   35.1170   45.1330 N   0  0  0  0  0  0  0  0  0  0  0  0
   45.9190   33.3120   46.1640 N   0  0  0  0  0  0  0  0  0  0  0  0
   46.8310   32.3390   46.0650 C   0  0  0  0  0  0  0  0  0  0  0  0
   46.9950   31.4970   47.1720 C   0  0  0  0  0  0  0  0  0  0  0  0
   48.0140   30.4120   47.0550 C   0  0  0  0  0  0  0  0  0  0  0  0
   46.2420   31.6710   48.3180 C   0  0  0  0  0  0  0  0  0  0  0  0
   46.4480   30.8680   49.2790 O   0  0  0  0  0  0  0  0  0  0  0  0
   45.3490   32.6680   48.3400 N   0  0  0  0  0  0  0  0  0  0  0  0
   45.1840   33.4860   47.2750 C   0  0  0  0  0  0  0  0  0  0  0  0
   44.3040   34.3620   47.4790 O   0  0  0  0  0  0  0  0  0  0  0  0
   47.2400   34.9160   41.7890 C   0  0  0  0  0  0  0  0  0  0  0  0
   48.5030   35.4980   41.6790 C   0  0  0  0  0  0  0  0  0  0  0  0
   49.0060   35.2320   40.4540 N   0  0  0  0  0  0  0  0  0  0  0  0
   48.0830   34.4940   39.7920 C   0  0  0  0  0  0  0  0  0  0  0  0
   48.1260   33.9800   38.5190 C   0  0  0  0  0  0  0  0  0  0  0  0
   47.0490   33.2580   38.0780 C   0  0  0  0  0  0  0  0  0  0  0  0
   45.8920   33.0020   38.8320 C   0  0  0  0  0  0  0  0  0  0  0  0
   45.9250   33.5520   40.1010 C   0  0  0  0  0  0  0  0  0  0  0  0
   46.9660   34.2780   40.5990 C   0  0  0  0  0  0  0  0  0  0  0  0
   43.6693   36.6813   44.1248 H   0  0  0  0  0  0  0  0  0  0  0  0
   45.1720   36.6030   42.1064 H   0  0  0  0  0  0  0  0  0  0  0  0
   47.4283   32.2054   45.1510 H   0  0  0  0  0  0  0  0  0  0  0  0
   48.3199   30.0863   48.0602 H   0  0  0  0  0  0  0  0  0  0  0  0
   47.5817   29.5603   46.5093 H   0  0  0  0  0  0  0  0  0  0  0  0
   48.8911   30.7900   46.5093 H   0  0  0  0  0  0  0  0  0  0  0  0
   44.7767   32.8152   49.1836 H   0  0  0  0  0  0  0  0  0  0  0  0
   49.0082   36.0801   42.4639 H   0  0  0  0  0  0  0  0  0  0  0  0
   49.9212   35.5342   40.0908 H   0  0  0  0  0  0  0  0  0  0  0  0
   49.0005   34.1436   37.8721 H   0  0  0  0  0  0  0  0  0  0  0  0
   47.0934   32.8484   37.0581 H   0  0  0  0  0  0  0  0  0  0  0  0
   45.0406   32.4196   38.4499 H   0  0  0  0  0  0  0  0  0  0  0  0
   45.0527   33.3929   40.7520 H   0  0  0  0  0  0  0  0  0  0  0  0
  1  6  2  0
  2  1  1  0
  3  2  2  0
  3  4  1  0
  4  5  2  0
  5  6  1  0
  5  7  1  0
  7 14  1  0
  8  7  1  0
  8  9  2  0
  9 11  1  0
 10  9  1  0
 11 13  1  0
 11 12  2  0
 14 15  2  0
 14 13  1  0
 16  3  1  0
 17 16  2  0
 18 17  1  0
 19 18  1  0
 19 24  2  0
 20 19  1  0
 21 20  2  0
 21 22  1  0
 22 23  2  0
 23 24  1  0
 24 16  1  0
  1 25  1  0
  2 26  1  0
  8 27  1  0
 10 28  1  0
 10 29  1  0
 10 30  1  0
 13 31  1  0
 17 32  1  0
 18 33  1  0
 20 34  1  0
 21 35  1  0
 22 36  1  0
 23 37  1  0
M  ISO  8  25  14  26  14  27  14  28   8  29   8  30   8  31   9  32  14
M  ISO  5  33   9  34  14  35  14  36  14  37  14
M  END
>  <minimizedAffinity>  (1) 
-7.9579792

>  <minimizedRMSD>  (1) 
0.303964198

$$$$
