
     RDKit          3D

 38 42  0  0  0  0  0  0  0  0999 V2000
   44.5680   35.9660   44.3500 C   0  0  0  0  0  0  0  0  0  0  0  0
   45.3860   35.9640   43.2060 C   0  0  0  0  0  0  0  0  0  0  0  0
   46.3580   34.9490   43.1300 C   0  0  0  0  0  0  0  0  0  0  0  0
   46.4560   34.0430   44.1380 N   0  0  0  0  0  0  0  0  0  0  0  0
   45.6440   34.0950   45.2130 C   0  0  0  0  0  0  0  0  0  0  0  0
   44.6950   35.0540   45.3270 N   0  0  0  0  0  0  0  0  0  0  0  0
   47.2220   34.9190   41.9540 C   0  0  0  0  0  0  0  0  0  0  0  0
   48.4730   35.4970   41.8170 C   0  0  0  0  0  0  0  0  0  0  0  0
   48.9590   35.2550   40.5880 N   0  0  0  0  0  0  0  0  0  0  0  0
   48.0360   34.5310   39.9390 C   0  0  0  0  0  0  0  0  0  0  0  0
   48.0520   34.0240   38.6410 C   0  0  0  0  0  0  0  0  0  0  0  0
   46.9580   33.3000   38.2130 C   0  0  0  0  0  0  0  0  0  0  0  0
   45.8300   33.0360   38.9830 C   0  0  0  0  0  0  0  0  0  0  0  0
   45.8860   33.5700   40.2560 C   0  0  0  0  0  0  0  0  0  0  0  0
   46.9180   34.2910   40.7590 C   0  0  0  0  0  0  0  0  0  0  0  0
   45.7690   33.1110   46.2840 C   0  0  0  0  0  0  0  0  0  0  0  0
   45.2070   33.1690   47.5430 C   0  0  0  0  0  0  0  0  0  0  0  0
   45.5220   32.0930   48.2870 N   0  0  0  0  0  0  0  0  0  0  0  0
   46.3010   31.3400   47.4740 C   0  0  0  0  0  0  0  0  0  0  0  0
   46.9210   30.1260   47.6810 C   0  0  0  0  0  0  0  0  0  0  0  0
   47.6990   29.4860   46.7120 C   0  0  0  0  0  0  0  0  0  0  0  0
   47.8440   30.1240   45.4780 C   0  0  0  0  0  0  0  0  0  0  0  0
   47.2260   31.3550   45.2430 C   0  0  0  0  0  0  0  0  0  0  0  0
   46.4760   31.9280   46.2370 C   0  0  0  0  0  0  0  0  0  0  0  0
   43.7958   36.7433   44.4479 H   0  0  0  0  0  0  0  0  0  0  0  0
   45.2720   36.7166   42.4119 H   0  0  0  0  0  0  0  0  0  0  0  0
   48.9924   36.0699   42.5993 H   0  0  0  0  0  0  0  0  0  0  0  0
   49.8674   35.5663   40.2155 H   0  0  0  0  0  0  0  0  0  0  0  0
   48.9118   34.1960   37.9768 H   0  0  0  0  0  0  0  0  0  0  0  0
   46.9795   32.9024   37.1876 H   0  0  0  0  0  0  0  0  0  0  0  0
   44.9723   32.4555   38.6124 H   0  0  0  0  0  0  0  0  0  0  0  0
   45.0228   33.3959   40.9152 H   0  0  0  0  0  0  0  0  0  0  0  0
   44.5757   33.9975   47.8968 H   0  0  0  0  0  0  0  0  0  0  0  0
   45.2357   31.8884   49.2550 H   0  0  0  0  0  0  0  0  0  0  0  0
   46.7971   29.6363   48.6582 H   0  0  0  0  0  0  0  0  0  0  0  0
   48.1787   28.5169   46.9136 H   0  0  0  0  0  0  0  0  0  0  0  0
   48.4478   29.6550   44.6871 H   0  0  0  0  0  0  0  0  0  0  0  0
   47.3400   31.8584   44.2716 H   0  0  0  0  0  0  0  0  0  0  0  0
  1  6  2  0
  2  1  1  0
  3  2  2  0
  3  4  1  0
  4  5  2  0
  5  6  1  0
  5 16  1  0
  7  3  1  0
  8  7  2  0
  9  8  1  0
 10  9  1  0
 10 15  2  0
 11 10  1  0
 12 11  2  0
 12 13  1  0
 13 14  2  0
 14 15  1  0
 15  7  1  0
 16 17  2  0
 17 18  1  0
 19 20  2  0
 19 18  1  0
 21 20  1  0
 22 21  2  0
 23 22  1  0
 23 24  2  0
 24 16  1  0
 24 19  1  0
  1 25  1  0
  2 26  1  0
  8 27  1  0
  9 28  1  0
 11 29  1  0
 12 30  1  0
 13 31  1  0
 14 32  1  0
 17 33  1  0
 18 34  1  0
 20 35  1  0
 21 36  1  0
 22 37  1  0
 23 38  1  0
M  ISO  8  25  14  26  14  27  14  28   9  29  14  30  14  31  14  32  14
M  ISO  6  33  14  34   9  35  14  36  14  37  14  38  14
M  END
>  <minimizedAffinity>  (1) 
-7.43976116

>  <minimizedRMSD>  (1) 
1.11498535

$$$$
