
     RDKit          3D

 34 37  0  0  0  0  0  0  0  0999 V2000
   44.5630   35.8000   44.3730 C   0  0  0  0  0  0  0  0  0  0  0  0
   45.3850   35.8090   43.2270 C   0  0  0  0  0  0  0  0  0  0  0  0
   46.4240   34.8780   43.1350 C   0  0  0  0  0  0  0  0  0  0  0  0
   46.5880   34.0030   44.1680 N   0  0  0  0  0  0  0  0  0  0  0  0
   45.7860   34.0190   45.2500 C   0  0  0  0  0  0  0  0  0  0  0  0
   44.7800   34.9110   45.3540 N   0  0  0  0  0  0  0  0  0  0  0  0
   47.2670   34.8970   41.9450 C   0  0  0  0  0  0  0  0  0  0  0  0
   48.4930   35.5240   41.8110 C   0  0  0  0  0  0  0  0  0  0  0  0
   48.9610   35.3140   40.5640 N   0  0  0  0  0  0  0  0  0  0  0  0
   48.0480   34.5660   39.9160 C   0  0  0  0  0  0  0  0  0  0  0  0
   48.0610   34.0840   38.6140 C   0  0  0  0  0  0  0  0  0  0  0  0
   46.9950   33.3350   38.1870 C   0  0  0  0  0  0  0  0  0  0  0  0
   45.8900   33.0200   38.9700 C   0  0  0  0  0  0  0  0  0  0  0  0
   45.9460   33.5340   40.2590 C   0  0  0  0  0  0  0  0  0  0  0  0
   46.9690   34.2830   40.7470 C   0  0  0  0  0  0  0  0  0  0  0  0
   46.0130   33.0570   46.3230 C   0  0  0  0  0  0  0  0  0  0  0  0
   45.2180   33.0760   47.4510 C   0  0  0  0  0  0  0  0  0  0  0  0
   45.4500   32.1530   48.4580 C   0  0  0  0  0  0  0  0  0  0  0  0
   46.4590   31.2140   48.3590 C   0  0  0  0  0  0  0  0  0  0  0  0
   47.2560   31.1970   47.2250 C   0  0  0  0  0  0  0  0  0  0  0  0
   47.0240   32.1270   46.2070 C   0  0  0  0  0  0  0  0  0  0  0  0
   43.7405   36.5249   44.4628 H   0  0  0  0  0  0  0  0  0  0  0  0
   45.2117   36.5358   42.4197 H   0  0  0  0  0  0  0  0  0  0  0  0
   49.0039   36.1012   42.5958 H   0  0  0  0  0  0  0  0  0  0  0  0
   49.8510   35.6611   40.1789 H   0  0  0  0  0  0  0  0  0  0  0  0
   48.9053   34.2977   37.9420 H   0  0  0  0  0  0  0  0  0  0  0  0
   47.0153   32.9573   37.1541 H   0  0  0  0  0  0  0  0  0  0  0  0
   45.0467   32.4175   38.6014 H   0  0  0  0  0  0  0  0  0  0  0  0
   45.1028   33.3196   40.9321 H   0  0  0  0  0  0  0  0  0  0  0  0
   44.4095   33.8154   47.5495 H   0  0  0  0  0  0  0  0  0  0  0  0
   44.8164   32.1680   49.3570 H   0  0  0  0  0  0  0  0  0  0  0  0
   46.6275   30.4896   49.1694 H   0  0  0  0  0  0  0  0  0  0  0  0
   48.0646   30.4577   47.1268 H   0  0  0  0  0  0  0  0  0  0  0  0
   47.6540   32.1165   45.3053 H   0  0  0  0  0  0  0  0  0  0  0  0
  1  6  2  0
  2  1  1  0
  3  2  2  0
  3  4  1  0
  4  5  2  0
  5  6  1  0
  5 16  1  0
  7  3  1  0
  8  7  2  0
  9  8  1  0
 10  9  1  0
 10 15  2  0
 11 10  1  0
 12 11  2  0
 12 13  1  0
 13 14  2  0
 14 15  1  0
 15  7  1  0
 16 17  2  0
 17 18  1  0
 19 18  2  0
 20 19  1  0
 21 16  1  0
 21 20  2  0
  1 22  1  0
  2 23  1  0
  8 24  1  0
  9 25  1  0
 11 26  1  0
 12 27  1  0
 13 28  1  0
 14 29  1  0
 17 30  1  0
 18 31  1  0
 19 32  1  0
 20 33  1  0
 21 34  1  0
M  ISO  8  22  14  23  14  24  14  25   9  26  14  27  14  28  14  29  14
M  ISO  5  30  14  31  14  32  14  33  14  34  14
M  END
>  <minimizedAffinity>  (1) 
-7.1924634

>  <minimizedRMSD>  (1) 
0.427248478

$$$$
