
     RDKit          3D

 37 40  0  0  0  0  0  0  0  0999 V2000
   47.3740   34.7770   41.9610 C   0  0  0  0  0  0  0  0  0  0  0  0
   48.5420   35.5310   41.8090 C   0  0  0  0  0  0  0  0  0  0  0  0
   48.9670   35.4300   40.5360 N   0  0  0  0  0  0  0  0  0  0  0  0
   48.1070   34.6420   39.8880 C   0  0  0  0  0  0  0  0  0  0  0  0
   48.1080   34.2340   38.5570 C   0  0  0  0  0  0  0  0  0  0  0  0
   47.0870   33.4070   38.1380 C   0  0  0  0  0  0  0  0  0  0  0  0
   46.0510   32.9440   38.9420 C   0  0  0  0  0  0  0  0  0  0  0  0
   46.1140   33.3880   40.2470 C   0  0  0  0  0  0  0  0  0  0  0  0
   47.0910   34.2070   40.7360 C   0  0  0  0  0  0  0  0  0  0  0  0
   44.8150   35.3490   44.6080 C   0  0  0  0  0  0  0  0  0  0  0  0
   45.5580   35.5180   43.4260 C   0  0  0  0  0  0  0  0  0  0  0  0
   46.5910   34.6180   43.1830 C   0  0  0  0  0  0  0  0  0  0  0  0
   46.8460   33.6140   44.0910 N   0  0  0  0  0  0  0  0  0  0  0  0
   46.0950   33.5050   45.2090 C   0  0  0  0  0  0  0  0  0  0  0  0
   45.0910   34.3500   45.4800 N   0  0  0  0  0  0  0  0  0  0  0  0
   46.3780   32.4590   46.1320 N   0  0  0  0  0  0  0  0  0  0  0  0
   47.0480   32.7060   47.3960 C   0  0  0  0  0  0  0  0  0  0  0  0
   46.0270   32.3630   48.4650 C   0  0  0  0  0  0  0  0  0  0  0  0
   45.0370   31.5340   48.0010 O   0  0  0  0  0  0  0  0  0  0  0  0
   45.4480   30.5320   47.1510 C   0  0  0  0  0  0  0  0  0  0  0  0
   46.0060   31.0830   45.8570 C   0  0  0  0  0  0  0  0  0  0  0  0
   49.0341   36.1129   42.6022 H   0  0  0  0  0  0  0  0  0  0  0  0
   49.8030   35.8788   40.1353 H   0  0  0  0  0  0  0  0  0  0  0  0
   48.8966   34.5602   37.8629 H   0  0  0  0  0  0  0  0  0  0  0  0
   47.0925   33.0886   37.0851 H   0  0  0  0  0  0  0  0  0  0  0  0
   45.2534   32.2835   38.5711 H   0  0  0  0  0  0  0  0  0  0  0  0
   45.3246   33.0603   40.9394 H   0  0  0  0  0  0  0  0  0  0  0  0
   43.9913   36.0436   44.8293 H   0  0  0  0  0  0  0  0  0  0  0  0
   45.3312   36.3308   42.7204 H   0  0  0  0  0  0  0  0  0  0  0  0
   47.9368   32.0651   47.4925 H   0  0  0  0  0  0  0  0  0  0  0  0
   47.3949   33.7465   47.4795 H   0  0  0  0  0  0  0  0  0  0  0  0
   46.5432   31.8637   49.2982 H   0  0  0  0  0  0  0  0  0  0  0  0
   45.5525   33.3018   48.7867 H   0  0  0  0  0  0  0  0  0  0  0  0
   46.2283   29.9394   47.6509 H   0  0  0  0  0  0  0  0  0  0  0  0
   44.5731   29.9112   46.9079 H   0  0  0  0  0  0  0  0  0  0  0  0
   45.2431   31.0448   45.0655 H   0  0  0  0  0  0  0  0  0  0  0  0
   46.8685   30.4956   45.5092 H   0  0  0  0  0  0  0  0  0  0  0  0
  1 12  1  0
  2  1  2  0
  3  2  1  0
  4  3  1  0
  4  9  2  0
  5  4  1  0
  6  5  2  0
  6  7  1  0
  7  8  2  0
  8  9  1  0
  9  1  1  0
 10 15  2  0
 11 10  1  0
 12 11  2  0
 12 13  1  0
 13 14  2  0
 14 15  1  0
 14 16  1  0
 16 17  1  0
 17 18  1  0
 19 18  1  0
 20 19  1  0
 21 16  1  0
 21 20  1  0
  2 22  1  0
  3 23  1  0
  5 24  1  0
  6 25  1  0
  7 26  1  0
  8 27  1  0
 10 28  1  0
 11 29  1  0
 17 30  1  0
 17 31  1  0
 18 32  1  0
 18 33  1  0
 20 34  1  0
 20 35  1  0
 21 36  1  0
 21 37  1  0
M  ISO  8  22  14  23   9  24  14  25  14  26  14  27  14  28  14  29  14
M  ISO  8  30  13  31  13  32  13  33  13  34  13  35  13  36  13  37  13
M  END
>  <minimizedAffinity>  (1) 
-7.03206921

>  <minimizedRMSD>  (1) 
0.598331392

$$$$
