
     RDKit          3D

 32 35  0  0  0  0  0  0  0  0999 V2000
   47.2710   34.8970   41.9250 C   0  0  0  0  0  0  0  0  0  0  0  0
   48.5020   35.5370   41.7840 C   0  0  0  0  0  0  0  0  0  0  0  0
   48.9700   35.3370   40.5410 N   0  0  0  0  0  0  0  0  0  0  0  0
   48.0640   34.5840   39.8870 C   0  0  0  0  0  0  0  0  0  0  0  0
   48.0810   34.1060   38.5810 C   0  0  0  0  0  0  0  0  0  0  0  0
   47.0180   33.3530   38.1630 C   0  0  0  0  0  0  0  0  0  0  0  0
   45.9100   33.0230   38.9480 C   0  0  0  0  0  0  0  0  0  0  0  0
   45.9730   33.5350   40.2270 C   0  0  0  0  0  0  0  0  0  0  0  0
   46.9880   34.2890   40.7190 C   0  0  0  0  0  0  0  0  0  0  0  0
   44.5880   35.7990   44.3560 C   0  0  0  0  0  0  0  0  0  0  0  0
   45.3990   35.8170   43.2130 C   0  0  0  0  0  0  0  0  0  0  0  0
   46.4390   34.8720   43.1110 C   0  0  0  0  0  0  0  0  0  0  0  0
   46.6100   33.9830   44.1250 N   0  0  0  0  0  0  0  0  0  0  0  0
   45.7990   34.0010   45.2190 C   0  0  0  0  0  0  0  0  0  0  0  0
   44.8030   34.8900   45.3400 N   0  0  0  0  0  0  0  0  0  0  0  0
   46.0080   33.0330   46.2920 C   0  0  0  0  0  0  0  0  0  0  0  0
   46.9900   32.0660   46.2130 C   0  0  0  0  0  0  0  0  0  0  0  0
   47.1920   31.1450   47.2310 C   0  0  0  0  0  0  0  0  0  0  0  0
   46.3860   31.2230   48.3240 N   0  0  0  0  0  0  0  0  0  0  0  0
   45.4250   32.1650   48.4090 C   0  0  0  0  0  0  0  0  0  0  0  0
   45.2520   33.0450   47.4050 N   0  0  0  0  0  0  0  0  0  0  0  0
   49.0108   36.1158   42.5690 H   0  0  0  0  0  0  0  0  0  0  0  0
   49.8574   35.6934   40.1584 H   0  0  0  0  0  0  0  0  0  0  0  0
   48.9215   34.3261   37.9064 H   0  0  0  0  0  0  0  0  0  0  0  0
   47.0370   32.9783   37.1290 H   0  0  0  0  0  0  0  0  0  0  0  0
   45.0700   32.4146   38.5817 H   0  0  0  0  0  0  0  0  0  0  0  0
   45.1332   33.3144   40.9023 H   0  0  0  0  0  0  0  0  0  0  0  0
   43.7703   36.5280   44.4561 H   0  0  0  0  0  0  0  0  0  0  0  0
   45.2273   36.5526   42.4134 H   0  0  0  0  0  0  0  0  0  0  0  0
   47.6296   32.0245   45.3190 H   0  0  0  0  0  0  0  0  0  0  0  0
   47.9770   30.3781   47.1567 H   0  0  0  0  0  0  0  0  0  0  0  0
   44.7816   32.2145   49.2998 H   0  0  0  0  0  0  0  0  0  0  0  0
  1 12  1  0
  2  1  2  0
  3  2  1  0
  4  3  1  0
  4  9  2  0
  5  4  1  0
  6  5  2  0
  6  7  1  0
  7  8  2  0
  8  9  1  0
  9  1  1  0
 10 15  2  0
 11 10  1  0
 12 11  2  0
 12 13  1  0
 13 14  2  0
 14 15  1  0
 14 16  1  0
 16 21  1  0
 17 16  2  0
 17 18  1  0
 18 19  2  0
 19 20  1  0
 21 20  2  0
  2 22  1  0
  3 23  1  0
  5 24  1  0
  6 25  1  0
  7 26  1  0
  8 27  1  0
 10 28  1  0
 11 29  1  0
 17 30  1  0
 18 31  1  0
 20 32  1  0
M  ISO  8  22  14  23   9  24  14  25  14  26  14  27  14  28  14  29  14
M  ISO  3  30  14  31  14  32  14
M  END
>  <minimizedAffinity>  (1) 
-6.98565626

>  <minimizedRMSD>  (1) 
0.181277022

$$$$
