
     RDKit          3D

 33 35  0  0  0  0  0  0  0  0999 V2000
   47.3260   34.8770   41.9200 C   0  0  0  0  0  0  0  0  0  0  0  0
   48.5290   35.5370   41.7640 C   0  0  0  0  0  0  0  0  0  0  0  0
   48.9780   35.3620   40.5080 N   0  0  0  0  0  0  0  0  0  0  0  0
   48.0710   34.5930   39.8620 C   0  0  0  0  0  0  0  0  0  0  0  0
   48.0640   34.1280   38.5610 C   0  0  0  0  0  0  0  0  0  0  0  0
   47.0060   33.3540   38.1540 C   0  0  0  0  0  0  0  0  0  0  0  0
   45.9290   32.9960   38.9570 C   0  0  0  0  0  0  0  0  0  0  0  0
   45.9980   33.4920   40.2410 C   0  0  0  0  0  0  0  0  0  0  0  0
   47.0080   34.2640   40.7230 C   0  0  0  0  0  0  0  0  0  0  0  0
   44.6530   35.6430   44.4280 C   0  0  0  0  0  0  0  0  0  0  0  0
   45.4350   35.7120   43.2580 C   0  0  0  0  0  0  0  0  0  0  0  0
   46.5060   34.8160   43.1300 C   0  0  0  0  0  0  0  0  0  0  0  0
   46.7380   33.9280   44.1360 N   0  0  0  0  0  0  0  0  0  0  0  0
   45.9580   33.8990   45.2460 C   0  0  0  0  0  0  0  0  0  0  0  0
   44.9250   34.7390   45.4020 N   0  0  0  0  0  0  0  0  0  0  0  0
   46.2340   32.9140   46.3390 C   0  0  0  0  0  0  0  0  0  0  0  0
   45.2180   33.0010   47.4600 C   0  0  0  0  0  0  0  0  0  0  0  0
   46.1750   31.4920   45.8070 C   0  0  0  0  0  0  0  0  0  0  0  0
   49.0412   36.1165   42.5462 H   0  0  0  0  0  0  0  0  0  0  0  0
   49.8494   35.7423   40.1120 H   0  0  0  0  0  0  0  0  0  0  0  0
   48.8844   34.3715   37.8698 H   0  0  0  0  0  0  0  0  0  0  0  0
   47.0106   32.9901   37.1159 H   0  0  0  0  0  0  0  0  0  0  0  0
   45.0962   32.3726   38.5995 H   0  0  0  0  0  0  0  0  0  0  0  0
   45.1744   33.2448   40.9270 H   0  0  0  0  0  0  0  0  0  0  0  0
   43.8069   36.3345   44.5538 H   0  0  0  0  0  0  0  0  0  0  0  0
   45.2123   36.4459   42.4695 H   0  0  0  0  0  0  0  0  0  0  0  0
   47.2356   33.1611   46.7207 H   0  0  0  0  0  0  0  0  0  0  0  0
   45.7365   32.9566   48.4291 H   0  0  0  0  0  0  0  0  0  0  0  0
   44.6666   33.9496   47.3823 H   0  0  0  0  0  0  0  0  0  0  0  0
   44.5134   32.1599   47.3823 H   0  0  0  0  0  0  0  0  0  0  0  0
   46.1457   30.7860   46.6501 H   0  0  0  0  0  0  0  0  0  0  0  0
   45.2709   31.3675   45.1929 H   0  0  0  0  0  0  0  0  0  0  0  0
   47.0657   31.2930   45.1929 H   0  0  0  0  0  0  0  0  0  0  0  0
  1 12  1  0
  2  1  2  0
  3  2  1  0
  4  3  1  0
  4  9  2  0
  5  4  1  0
  6  5  2  0
  6  7  1  0
  7  8  2  0
  8  9  1  0
  9  1  1  0
 10 15  2  0
 11 10  1  0
 12 11  2  0
 12 13  1  0
 13 14  2  0
 14 15  1  0
 14 16  1  0
 16 17  1  0
 18 16  1  0
  2 19  1  0
  3 20  1  0
  5 21  1  0
  6 22  1  0
  7 23  1  0
  8 24  1  0
 10 25  1  0
 11 26  1  0
 16 27  1  0
 17 28  1  0
 17 29  1  0
 17 30  1  0
 18 31  1  0
 18 32  1  0
 18 33  1  0
M  ISO  8  19  14  20   9  21  14  22  14  23  14  24  14  25  14  26  14
M  ISO  7  27   8  28   8  29   8  30   8  31   8  32   8  33   8
M  END
>  <minimizedAffinity>  (1) 
-6.13498259

>  <minimizedRMSD>  (1) 
0.360117137

$$$$
