
     RDKit          3D

 37 40  0  0  0  0  0  0  0  0999 V2000
   44.8790   35.0480   44.3040 C   0  0  0  0  0  0  0  0  0  0  0  0
   45.5850   35.2830   43.1220 C   0  0  0  0  0  0  0  0  0  0  0  0
   46.7740   34.5590   42.9030 C   0  0  0  0  0  0  0  0  0  0  0  0
   47.1820   33.6670   43.8430 N   0  0  0  0  0  0  0  0  0  0  0  0
   46.4690   33.4630   44.9870 C   0  0  0  0  0  0  0  0  0  0  0  0
   45.3260   34.1500   45.2140 N   0  0  0  0  0  0  0  0  0  0  0  0
   47.5140   34.8020   41.6670 C   0  0  0  0  0  0  0  0  0  0  0  0
   48.6110   35.6370   41.5070 C   0  0  0  0  0  0  0  0  0  0  0  0
   49.0090   35.5930   40.2210 N   0  0  0  0  0  0  0  0  0  0  0  0
   48.1850   34.7450   39.5650 C   0  0  0  0  0  0  0  0  0  0  0  0
   48.1840   34.3690   38.2350 C   0  0  0  0  0  0  0  0  0  0  0  0
   47.2120   33.4710   37.8260 C   0  0  0  0  0  0  0  0  0  0  0  0
   46.2290   32.9130   38.6480 C   0  0  0  0  0  0  0  0  0  0  0  0
   46.3020   33.3440   39.9590 C   0  0  0  0  0  0  0  0  0  0  0  0
   47.2360   34.2320   40.4420 C   0  0  0  0  0  0  0  0  0  0  0  0
   47.8820   30.7230   47.8500 C   0  0  0  0  0  0  0  0  0  0  0  0
   47.5420   31.9960   48.2520 C   0  0  0  0  0  0  0  0  0  0  0  0
   47.0810   32.8680   47.2800 C   0  0  0  0  0  0  0  0  0  0  0  0
   46.9620   32.4920   45.9580 C   0  0  0  0  0  0  0  0  0  0  0  0
   47.2930   31.2320   45.5270 C   0  0  0  0  0  0  0  0  0  0  0  0
   47.7530   30.3790   46.5280 C   0  0  0  0  0  0  0  0  0  0  0  0
   48.4620   29.6230   49.0650 S   0  0  0  0  0  0  0  0  0  0  0  0
   49.4390   28.6470   48.4430 O   0  0  0  0  0  0  0  0  0  0  0  0
   49.1890   30.3660   50.1590 O   0  0  0  0  0  0  0  0  0  0  0  0
   43.9474   35.5997   44.4984 H   0  0  0  0  0  0  0  0  0  0  0  0
   45.2231   36.0128   42.3828 H   0  0  0  0  0  0  0  0  0  0  0  0
   49.0792   36.2371   42.3012 H   0  0  0  0  0  0  0  0  0  0  0  0
   49.7987   36.1118   39.8111 H   0  0  0  0  0  0  0  0  0  0  0  0
   48.9267   34.7677   37.5283 H   0  0  0  0  0  0  0  0  0  0  0  0
   47.2139   33.1725   36.7673 H   0  0  0  0  0  0  0  0  0  0  0  0
   45.4720   32.2011   38.2871 H   0  0  0  0  0  0  0  0  0  0  0  0
   45.5597   32.9486   40.6680 H   0  0  0  0  0  0  0  0  0  0  0  0
   47.6331   32.3074   49.3031 H   0  0  0  0  0  0  0  0  0  0  0  0
   46.8013   33.8913   47.5708 H   0  0  0  0  0  0  0  0  0  0  0  0
   47.2025   30.9205   44.4759 H   0  0  0  0  0  0  0  0  0  0  0  0
   48.0330   29.3557   46.2374 H   0  0  0  0  0  0  0  0  0  0  0  0
   47.3797   28.9672   49.5898 H   0  0  0  0  0  0  0  0  0  0  0  0
  1  6  2  0
  2  1  1  0
  3  2  2  0
  3  4  1  0
  4  5  2  0
  5  6  1  0
  5 19  1  0
  7  3  1  0
  8  7  2  0
  9  8  1  0
 10  9  1  0
 10 15  2  0
 11 10  1  0
 12 11  2  0
 12 13  1  0
 13 14  2  0
 14 15  1  0
 15  7  1  0
 16 17  2  0
 16 22  1  0
 18 17  1  0
 19 18  2  0
 20 19  1  0
 20 21  2  0
 21 16  1  0
 22 24  2  0
 23 22  2  0
  1 25  1  0
  2 26  1  0
  8 27  1  0
  9 28  1  0
 11 29  1  0
 12 30  1  0
 13 31  1  0
 14 32  1  0
 17 33  1  0
 18 34  1  0
 20 35  1  0
 21 36  1  0
 22 37  1  0
M  ISO  8  25  14  26  14  27  14  28   9  29  14  30  14  31  14  32  14
M  ISO  5  33  14  34  14  35  14  36  14  37  11
M  END
>  <minimizedAffinity>  (1) 
-6.29584265

>  <minimizedRMSD>  (1) 
1.1569525

$$$$
