
     RDKit          3D

 27 29  0  0  0  0  0  0  0  0999 V2000
   47.2600   34.9150   41.9110 C   0  0  0  0  0  0  0  0  0  0  0  0
   48.5010   35.5400   41.7800 C   0  0  0  0  0  0  0  0  0  0  0  0
   48.9790   35.3270   40.5470 N   0  0  0  0  0  0  0  0  0  0  0  0
   48.0690   34.5770   39.8810 C   0  0  0  0  0  0  0  0  0  0  0  0
   48.0840   34.0890   38.5870 C   0  0  0  0  0  0  0  0  0  0  0  0
   47.0160   33.3460   38.1630 C   0  0  0  0  0  0  0  0  0  0  0  0
   45.9020   33.0350   38.9320 C   0  0  0  0  0  0  0  0  0  0  0  0
   45.9560   33.5560   40.2150 C   0  0  0  0  0  0  0  0  0  0  0  0
   46.9740   34.3010   40.7150 C   0  0  0  0  0  0  0  0  0  0  0  0
   44.5800   35.8650   44.3220 C   0  0  0  0  0  0  0  0  0  0  0  0
   45.3930   35.8730   43.1850 C   0  0  0  0  0  0  0  0  0  0  0  0
   46.4150   34.9080   43.0920 C   0  0  0  0  0  0  0  0  0  0  0  0
   46.5600   34.0180   44.1080 N   0  0  0  0  0  0  0  0  0  0  0  0
   45.7420   34.0480   45.1980 C   0  0  0  0  0  0  0  0  0  0  0  0
   44.7590   34.9670   45.3020 N   0  0  0  0  0  0  0  0  0  0  0  0
   45.9620   33.0330   46.2830 C   0  0  0  0  0  0  0  0  0  0  0  0
   49.0078   36.1177   42.5670 H   0  0  0  0  0  0  0  0  0  0  0  0
   49.8752   35.6709   40.1735 H   0  0  0  0  0  0  0  0  0  0  0  0
   48.9319   34.2927   37.9165 H   0  0  0  0  0  0  0  0  0  0  0  0
   47.0418   32.9649   37.1315 H   0  0  0  0  0  0  0  0  0  0  0  0
   45.0595   32.4341   38.5592 H   0  0  0  0  0  0  0  0  0  0  0  0
   45.1056   33.3491   40.8814 H   0  0  0  0  0  0  0  0  0  0  0  0
   43.7767   36.6107   44.4150 H   0  0  0  0  0  0  0  0  0  0  0  0
   45.2390   36.6123   42.3851 H   0  0  0  0  0  0  0  0  0  0  0  0
   45.8570   33.5174   47.2650 H   0  0  0  0  0  0  0  0  0  0  0  0
   45.2173   32.2289   46.1893 H   0  0  0  0  0  0  0  0  0  0  0  0
   46.9728   32.6094   46.1893 H   0  0  0  0  0  0  0  0  0  0  0  0
  1 12  1  0
  2  1  2  0
  3  2  1  0
  4  3  1  0
  4  9  2  0
  5  4  1  0
  6  5  2  0
  6  7  1  0
  7  8  2  0
  8  9  1  0
  9  1  1  0
 10 15  2  0
 11 10  1  0
 12 11  2  0
 12 13  1  0
 13 14  2  0
 14 15  1  0
 14 16  1  0
  2 17  1  0
  3 18  1  0
  5 19  1  0
  6 20  1  0
  7 21  1  0
  8 22  1  0
 10 23  1  0
 11 24  1  0
 16 25  1  0
 16 26  1  0
 16 27  1  0
M  ISO  8  17  14  18   9  19  14  20  14  21  14  22  14  23  14  24  14
M  ISO  3  25   8  26   8  27   8
M  END
>  <minimizedAffinity>  (1) 
-5.96957445

>  <minimizedRMSD>  (1) 
0.0253299177

$$$$
