
     RDKit          3D

 31 34  0  0  0  0  0  0  0  0999 V2000
   47.3210   34.8620   41.9060 C   0  0  0  0  0  0  0  0  0  0  0  0
   48.5330   35.5380   41.7770 C   0  0  0  0  0  0  0  0  0  0  0  0
   48.9930   35.3850   40.5320 N   0  0  0  0  0  0  0  0  0  0  0  0
   48.1130   34.6300   39.8530 C   0  0  0  0  0  0  0  0  0  0  0  0
   48.1320   34.1920   38.5370 C   0  0  0  0  0  0  0  0  0  0  0  0
   47.0850   33.4210   38.1040 C   0  0  0  0  0  0  0  0  0  0  0  0
   45.9900   33.0360   38.8800 C   0  0  0  0  0  0  0  0  0  0  0  0
   46.0350   33.5060   40.1750 C   0  0  0  0  0  0  0  0  0  0  0  0
   47.0390   34.2770   40.6860 C   0  0  0  0  0  0  0  0  0  0  0  0
   44.7540   35.6950   44.4830 C   0  0  0  0  0  0  0  0  0  0  0  0
   45.5480   35.7940   43.3240 C   0  0  0  0  0  0  0  0  0  0  0  0
   46.4870   34.7750   43.1020 C   0  0  0  0  0  0  0  0  0  0  0  0
   46.5820   33.7610   43.9990 N   0  0  0  0  0  0  0  0  0  0  0  0
   45.7990   33.7050   45.0990 C   0  0  0  0  0  0  0  0  0  0  0  0
   44.8900   34.6590   45.3450 N   0  0  0  0  0  0  0  0  0  0  0  0
   45.9300   32.5770   46.0590 C   0  0  0  0  0  0  0  0  0  0  0  0
   46.9760   32.7430   47.1550 C   0  0  0  0  0  0  0  0  0  0  0  0
   45.5040   32.7270   47.4680 C   0  0  0  0  0  0  0  0  0  0  0  0
   49.0322   36.1078   42.5746 H   0  0  0  0  0  0  0  0  0  0  0  0
   49.8689   35.7772   40.1581 H   0  0  0  0  0  0  0  0  0  0  0  0
   48.9605   34.4550   37.8629 H   0  0  0  0  0  0  0  0  0  0  0  0
   47.1093   33.0773   37.0594 H   0  0  0  0  0  0  0  0  0  0  0  0
   45.1680   32.4154   38.4939 H   0  0  0  0  0  0  0  0  0  0  0  0
   45.2030   33.2411   40.8440 H   0  0  0  0  0  0  0  0  0  0  0  0
   44.0077   36.4754   44.6926 H   0  0  0  0  0  0  0  0  0  0  0  0
   45.4369   36.6342   42.6227 H   0  0  0  0  0  0  0  0  0  0  0  0
   45.6937   31.8393   45.2780 H   0  0  0  0  0  0  0  0  0  0  0  0
   47.6136   31.8950   47.4456 H   0  0  0  0  0  0  0  0  0  0  0  0
   47.8134   33.4304   47.3457 H   0  0  0  0  0  0  0  0  0  0  0  0
   45.0045   33.6520   47.7919 H   0  0  0  0  0  0  0  0  0  0  0  0
   44.8679   32.1393   48.1463 H   0  0  0  0  0  0  0  0  0  0  0  0
  1 12  1  0
  2  1  2  0
  3  2  1  0
  4  3  1  0
  4  9  2  0
  5  4  1  0
  6  5  2  0
  6  7  1  0
  7  8  2  0
  8  9  1  0
  9  1  1  0
 10 15  2  0
 11 10  1  0
 12 11  2  0
 12 13  1  0
 13 14  2  0
 14 15  1  0
 14 16  1  0
 16 17  1  0
 16 18  1  0
 17 18  1  0
  2 19  1  0
  3 20  1  0
  5 21  1  0
  6 22  1  0
  7 23  1  0
  8 24  1  0
 10 25  1  0
 11 26  1  0
 16 27  1  0
 17 28  1  0
 17 29  1  0
 18 30  1  0
 18 31  1  0
M  ISO  8  19  14  20   9  21  14  22  14  23  14  24  14  25  14  26  14
M  ISO  5  27  13  28  13  29  13  30  13  31  13
M  END
>  <minimizedAffinity>  (1) 
-6.14728355

>  <minimizedRMSD>  (1) 
0.344150245

$$$$
