
     RDKit          3D

 21 22  0  0  0  0  0  0  0  0999 V2000
   45.6100   34.6910   44.3880 C   0  0  0  0  0  0  0  0  0  0  0  0
   46.6540   33.9310   43.8370 C   0  0  0  0  0  0  0  0  0  0  0  0
   47.1450   32.8790   44.6200 C   0  0  0  0  0  0  0  0  0  0  0  0
   46.5820   32.6660   45.8530 N   0  0  0  0  0  0  0  0  0  0  0  0
   45.5850   33.4180   46.3390 C   0  0  0  0  0  0  0  0  0  0  0  0
   45.0950   34.4300   45.6140 N   0  0  0  0  0  0  0  0  0  0  0  0
   47.1790   34.2400   42.5210 C   0  0  0  0  0  0  0  0  0  0  0  0
   48.2850   35.0960   42.5490 C   0  0  0  0  0  0  0  0  0  0  0  0
   48.8990   35.4830   41.3540 C   0  0  0  0  0  0  0  0  0  0  0  0
   48.4100   35.0150   40.1330 C   0  0  0  0  0  0  0  0  0  0  0  0
   47.3180   34.1730   40.1350 C   0  0  0  0  0  0  0  0  0  0  0  0
   46.6970   33.7780   41.3050 C   0  0  0  0  0  0  0  0  0  0  0  0
   44.8990   36.0800   43.4550 S   0  0  0  0  0  0  0  0  0  0  0  0
   47.9621   32.2390   44.2555 H   0  0  0  0  0  0  0  0  0  0  0  0
   45.1693   33.2031   47.3345 H   0  0  0  0  0  0  0  0  0  0  0  0
   48.6715   35.4645   43.5107 H   0  0  0  0  0  0  0  0  0  0  0  0
   49.7682   36.1568   41.3759 H   0  0  0  0  0  0  0  0  0  0  0  0
   48.8868   35.3123   39.1873 H   0  0  0  0  0  0  0  0  0  0  0  0
   46.9286   33.8038   39.1747 H   0  0  0  0  0  0  0  0  0  0  0  0
   45.8286   33.1036   41.2722 H   0  0  0  0  0  0  0  0  0  0  0  0
   44.4184   37.0189   44.3292 H   0  0  0  0  0  0  0  0  0  0  0  0
  1  6  2  0
  2  1  1  0
  2  3  2  0
  3  4  1  0
  4  5  2  0
  6  5  1  0
  7  8  2  0
  7  2  1  0
  9  8  1  0
 10 11  1  0
 10  9  2  0
 11 12  2  0
 12  7  1  0
 13  1  1  0
  3 14  1  0
  5 15  1  0
  8 16  1  0
  9 17  1  0
 10 18  1  0
 11 19  1  0
 12 20  1  0
 13 21  1  0
M  ISO  8  14  14  15  14  16  14  17  14  18  14  19  14  20  14  21  11
M  END
>  <minimizedAffinity>  (1) 
-4.65768147

>  <minimizedRMSD>  (1) 
0.705666482

$$$$
