
     RDKit          3D

 20 21  0  0  0  0  0  0  0  0999 V2000
   45.5900   34.7500   44.1470 C   0  0  0  0  0  0  0  0  0  0  0  0
   46.6630   33.9660   43.7200 C   0  0  0  0  0  0  0  0  0  0  0  0
   47.1560   33.0110   44.5960 C   0  0  0  0  0  0  0  0  0  0  0  0
   46.5680   32.8840   45.8290 N   0  0  0  0  0  0  0  0  0  0  0  0
   45.5330   33.6610   46.2030 C   0  0  0  0  0  0  0  0  0  0  0  0
   45.0340   34.6020   45.3680 N   0  0  0  0  0  0  0  0  0  0  0  0
   47.1780   34.2210   42.3790 C   0  0  0  0  0  0  0  0  0  0  0  0
   48.2100   35.1080   42.1480 C   0  0  0  0  0  0  0  0  0  0  0  0
   48.7180   35.3700   40.8940 C   0  0  0  0  0  0  0  0  0  0  0  0
   48.1940   34.7330   39.7900 C   0  0  0  0  0  0  0  0  0  0  0  0
   47.1660   33.8570   40.0590 C   0  0  0  0  0  0  0  0  0  0  0  0
   46.6790   33.6090   41.2850 N   0  0  0  0  0  0  0  0  0  0  0  0
   44.8870   36.0210   43.0640 S   0  0  0  0  0  0  0  0  0  0  0  0
   48.0012   32.3684   44.3083 H   0  0  0  0  0  0  0  0  0  0  0  0
   45.0876   33.5289   47.2001 H   0  0  0  0  0  0  0  0  0  0  0  0
   48.6496   35.6327   43.0091 H   0  0  0  0  0  0  0  0  0  0  0  0
   49.5425   36.0882   40.7742 H   0  0  0  0  0  0  0  0  0  0  0  0
   48.5685   34.9108   38.7711 H   0  0  0  0  0  0  0  0  0  0  0  0
   46.7126   33.3236   39.2105 H   0  0  0  0  0  0  0  0  0  0  0  0
   44.3361   37.0170   43.8265 H   0  0  0  0  0  0  0  0  0  0  0  0
  1  6  2  0
  2  1  1  0
  2  3  2  0
  3  4  1  0
  4  5  2  0
  6  5  1  0
  7  2  1  0
  8  7  2  0
  9  8  1  0
 10 11  1  0
 10  9  2  0
 11 12  2  0
 12  7  1  0
 13  1  1  0
  3 14  1  0
  5 15  1  0
  8 16  1  0
  9 17  1  0
 10 18  1  0
 11 19  1  0
 13 20  1  0
M  ISO  7  14  14  15  14  16  14  17  14  18  14  19  14  20  11
M  END
>  <minimizedAffinity>  (1) 
-4.4980197

>  <minimizedRMSD>  (1) 
0.331462234

$$$$
