
     RDKit          3D

 25 26  0  0  0  0  0  0  0  0999 V2000
   45.8410   34.6170   44.1240 C   0  0  0  0  0  0  0  0  0  0  0  0
   46.9290   33.7750   43.8300 C   0  0  0  0  0  0  0  0  0  0  0  0
   47.2490   32.7970   44.7610 C   0  0  0  0  0  0  0  0  0  0  0  0
   46.5010   32.7060   45.8960 N   0  0  0  0  0  0  0  0  0  0  0  0
   45.4670   33.5280   46.1460 C   0  0  0  0  0  0  0  0  0  0  0  0
   45.1230   34.4850   45.2760 N   0  0  0  0  0  0  0  0  0  0  0  0
   47.6240   33.9800   42.6040 N   0  0  0  0  0  0  0  0  0  0  0  0
   48.7930   34.8020   42.5290 C   0  0  0  0  0  0  0  0  0  0  0  0
   48.8720   35.6260   41.2720 C   0  0  0  0  0  0  0  0  0  0  0  0
   48.5310   34.9000   40.0810 N   0  0  0  0  0  0  0  0  0  0  0  0
   47.2940   34.1820   40.1650 C   0  0  0  0  0  0  0  0  0  0  0  0
   47.1390   33.3460   41.4050 C   0  0  0  0  0  0  0  0  0  0  0  0
   45.3360   35.9310   42.9750 S   0  0  0  0  0  0  0  0  0  0  0  0
   48.0895   32.1092   44.5861 H   0  0  0  0  0  0  0  0  0  0  0  0
   44.8956   33.4124   47.0788 H   0  0  0  0  0  0  0  0  0  0  0  0
   48.7943   35.4839   43.3922 H   0  0  0  0  0  0  0  0  0  0  0  0
   49.6616   34.1271   42.5268 H   0  0  0  0  0  0  0  0  0  0  0  0
   48.1804   36.4757   41.3702 H   0  0  0  0  0  0  0  0  0  0  0  0
   49.9189   35.9458   41.1637 H   0  0  0  0  0  0  0  0  0  0  0  0
   49.2841   34.2245   39.8877 H   0  0  0  0  0  0  0  0  0  0  0  0
   46.4712   34.9116   40.1379 H   0  0  0  0  0  0  0  0  0  0  0  0
   47.2799   33.4843   39.3147 H   0  0  0  0  0  0  0  0  0  0  0  0
   46.0704   33.1225   41.5400 H   0  0  0  0  0  0  0  0  0  0  0  0
   47.7459   32.4407   41.2561 H   0  0  0  0  0  0  0  0  0  0  0  0
   44.9161   37.0236   43.6869 H   0  0  0  0  0  0  0  0  0  0  0  0
  1  6  2  0
  2  1  1  0
  2  3  2  0
  3  4  1  0
  4  5  2  0
  6  5  1  0
  7  2  1  0
  8  7  1  0
  9  8  1  0
 10 11  1  0
 10  9  1  0
 11 12  1  0
 12  7  1  0
 13  1  1  0
  3 14  1  0
  5 15  1  0
  8 16  1  0
  8 17  1  0
  9 18  1  0
  9 19  1  0
 10 20  1  0
 11 21  1  0
 11 22  1  0
 12 23  1  0
 12 24  1  0
 13 25  1  0
M  ISO  8  14  14  15  14  16  13  17  13  18  13  19  13  20   5  21  13
M  ISO  4  22  13  23  13  24  13  25  11
M  END
>  <minimizedAffinity>  (1) 
-4.10599136

>  <minimizedRMSD>  (1) 
0.698831379

$$$$
