
     RDKit          3D

 18 19  0  0  0  0  0  0  0  0999 V2000
   46.0040   34.6720   43.6140 C   0  0  0  0  0  0  0  0  0  0  0  0
   47.2310   34.4010   42.9790 C   0  0  0  0  0  0  0  0  0  0  0  0
   47.9440   33.2840   43.4100 C   0  0  0  0  0  0  0  0  0  0  0  0
   47.4260   32.5200   44.4090 N   0  0  0  0  0  0  0  0  0  0  0  0
   46.2560   32.7980   44.9980 C   0  0  0  0  0  0  0  0  0  0  0  0
   45.5410   33.8790   44.5990 N   0  0  0  0  0  0  0  0  0  0  0  0
   47.6300   35.3350   41.9190 C   0  0  0  0  0  0  0  0  0  0  0  0
   48.2580   34.8390   40.6480 C   0  0  0  0  0  0  0  0  0  0  0  0
   49.0540   35.5670   41.6800 C   0  0  0  0  0  0  0  0  0  0  0  0
   45.0040   36.0860   43.1350 S   0  0  0  0  0  0  0  0  0  0  0  0
   48.9091   33.0246   42.9503 H   0  0  0  0  0  0  0  0  0  0  0  0
   45.8761   32.1516   45.8029 H   0  0  0  0  0  0  0  0  0  0  0  0
   46.7566   35.9649   42.1433 H   0  0  0  0  0  0  0  0  0  0  0  0
   48.0218   35.3215   39.6881 H   0  0  0  0  0  0  0  0  0  0  0  0
   48.3349   33.8691   40.1348 H   0  0  0  0  0  0  0  0  0  0  0  0
   49.8039   35.0252   42.2751 H   0  0  0  0  0  0  0  0  0  0  0  0
   49.6994   36.4577   41.6698 H   0  0  0  0  0  0  0  0  0  0  0  0
   44.5510   36.7265   44.2582 H   0  0  0  0  0  0  0  0  0  0  0  0
  1  6  2  0
  2  3  2  0
  2  1  1  0
  3  4  1  0
  4  5  2  0
  6  5  1  0
  7  2  1  0
  8  9  1  0
  8  7  1  0
  9  7  1  0
 10  1  1  0
  3 11  1  0
  5 12  1  0
  7 13  1  0
  8 14  1  0
  8 15  1  0
  9 16  1  0
  9 17  1  0
 10 18  1  0
M  ISO  8  11  14  12  14  13  13  14  13  15  13  16  13  17  13  18  11
M  END
>  <minimizedAffinity>  (1) 
-3.76936793

>  <minimizedRMSD>  (1) 
1.56552505

$$$$
