
     RDKit          3D

 16 17  0  0  0  0  0  0  0  0999 V2000
   45.7650   34.8000   43.9370 C   0  0  0  0  0  0  0  0  0  0  0  0
   46.9060   34.1070   43.4760 C   0  0  0  0  0  0  0  0  0  0  0  0
   47.3920   33.0930   44.2880 C   0  0  0  0  0  0  0  0  0  0  0  0
   46.7700   32.8150   45.4600 N   0  0  0  0  0  0  0  0  0  0  0  0
   45.6820   33.4940   45.8740 C   0  0  0  0  0  0  0  0  0  0  0  0
   45.1770   34.4800   45.1240 N   0  0  0  0  0  0  0  0  0  0  0  0
   47.4780   34.4930   42.2150 C   0  0  0  0  0  0  0  0  0  0  0  0
   48.3480   35.4720   41.9000 N   0  0  0  0  0  0  0  0  0  0  0  0
   48.5890   35.4520   40.6190 O   0  0  0  0  0  0  0  0  0  0  0  0
   47.9030   34.4820   40.0480 C   0  0  0  0  0  0  0  0  0  0  0  0
   47.1970   33.8670   41.0380 N   0  0  0  0  0  0  0  0  0  0  0  0
   45.0290   36.1400   42.9800 S   0  0  0  0  0  0  0  0  0  0  0  0
   48.2780   32.5171   43.9824 H   0  0  0  0  0  0  0  0  0  0  0  0
   45.2073   33.2365   46.8323 H   0  0  0  0  0  0  0  0  0  0  0  0
   47.9009   34.2199   38.9797 H   0  0  0  0  0  0  0  0  0  0  0  0
   44.5127   37.0800   43.8325 H   0  0  0  0  0  0  0  0  0  0  0  0
  1  6  2  0
  2  1  1  0
  2  3  2  0
  3  4  1  0
  4  5  2  0
  6  5  1  0
  7  2  1  0
  8  7  2  0
  9  8  1  0
 10  9  1  0
 10 11  2  0
 11  7  1  0
 12  1  1  0
  3 13  1  0
  5 14  1  0
 10 15  1  0
 12 16  1  0
M  ISO  4  13  14  14  14  15  14  16  11
M  END
>  <minimizedAffinity>  (1) 
-3.79915142

>  <minimizedRMSD>  (1) 
0.648735344

$$$$
