
     RDKit          3D

 13 13  0  0  0  0  0  0  0  0999 V2000
   45.6670   34.6550   44.0770 C   0  0  0  0  0  0  0  0  0  0  0  0
   46.7160   33.9190   43.5160 C   0  0  0  0  0  0  0  0  0  0  0  0
   47.2690   32.9150   44.3160 C   0  0  0  0  0  0  0  0  0  0  0  0
   46.7730   32.7130   45.5620 N   0  0  0  0  0  0  0  0  0  0  0  0
   45.7640   33.4410   46.0660 C   0  0  0  0  0  0  0  0  0  0  0  0
   45.2020   34.4230   45.3170 N   0  0  0  0  0  0  0  0  0  0  0  0
   47.1690   34.2050   42.1980 N   0  0  0  0  0  0  0  0  0  0  0  0
   44.8810   35.9790   43.1230 S   0  0  0  0  0  0  0  0  0  0  0  0
   48.0967   32.2961   43.9394 H   0  0  0  0  0  0  0  0  0  0  0  0
   45.3941   33.2421   47.0827 H   0  0  0  0  0  0  0  0  0  0  0  0
   47.9418   33.6602   41.7895 H   0  0  0  0  0  0  0  0  0  0  0  0
   46.7242   34.9569   41.6524 H   0  0  0  0  0  0  0  0  0  0  0  0
   44.3356   36.8978   43.9805 H   0  0  0  0  0  0  0  0  0  0  0  0
  1  6  2  0
  2  1  1  0
  2  3  2  0
  3  4  1  0
  4  5  2  0
  6  5  1  0
  7  2  1  0
  8  1  1  0
  3  9  1  0
  5 10  1  0
  7 11  1  0
  7 12  1  0
  8 13  1  0
M  ISO  3   9  14  10  14  13  11
M  END
>  <minimizedAffinity>  (1) 
-2.6001091

>  <minimizedRMSD>  (1) 
0.0451830514

$$$$
