
     RDKit          3D

 38 41  0  0  0  0  0  0  0  0999 V2000
   45.3850   34.3350   43.6000 C   0  0  0  0  0  0  0  0  0  0  0  0
   46.6280   33.8440   43.2280 C   0  0  0  0  0  0  0  0  0  0  0  0
   47.4210   33.2570   44.2200 C   0  0  0  0  0  0  0  0  0  0  0  0
   46.9170   33.2060   45.4990 N   0  0  0  0  0  0  0  0  0  0  0  0
   45.7170   33.6870   45.8270 C   0  0  0  0  0  0  0  0  0  0  0  0
   44.9370   34.2560   44.8890 N   0  0  0  0  0  0  0  0  0  0  0  0
   47.8050   33.8190   39.1610 C   0  0  0  0  0  0  0  0  0  0  0  0
   48.2320   34.8730   39.9520 C   0  0  0  0  0  0  0  0  0  0  0  0
   47.8690   34.9180   41.2860 C   0  0  0  0  0  0  0  0  0  0  0  0
   47.0860   33.9370   41.8610 C   0  0  0  0  0  0  0  0  0  0  0  0
   46.6650   32.8970   41.0740 C   0  0  0  0  0  0  0  0  0  0  0  0
   47.0140   32.8240   39.7280 C   0  0  0  0  0  0  0  0  0  0  0  0
   48.3070   33.8380   37.4900 S   0  0  0  0  0  0  0  0  0  0  0  0
   49.5360   33.0100   37.2730 O   0  0  0  0  0  0  0  0  0  0  0  0
   47.2320   33.2690   36.5700 O   0  0  0  0  0  0  0  0  0  0  0  0
   44.3040   35.1140   42.3920 S   0  0  0  0  0  0  0  0  0  0  0  0
   43.0770   33.9880   41.7500 C   0  0  0  0  0  0  0  0  0  0  0  0
   43.3090   32.6630   41.7800 N   0  0  0  0  0  0  0  0  0  0  0  0
   42.4220   31.7590   41.3100 C   0  0  0  0  0  0  0  0  0  0  0  0
   41.2480   32.1930   40.7860 N   0  0  0  0  0  0  0  0  0  0  0  0
   40.9590   33.5050   40.7290 C   0  0  0  0  0  0  0  0  0  0  0  0
   39.7620   33.9320   40.1920 C   0  0  0  0  0  0  0  0  0  0  0  0
   39.5000   35.2880   40.1500 C   0  0  0  0  0  0  0  0  0  0  0  0
   40.4280   36.1960   40.6390 C   0  0  0  0  0  0  0  0  0  0  0  0
   41.6350   35.7980   41.1810 C   0  0  0  0  0  0  0  0  0  0  0  0
   41.8670   34.4390   41.2100 C   0  0  0  0  0  0  0  0  0  0  0  0
   48.4153   32.8495   43.9848 H   0  0  0  0  0  0  0  0  0  0  0  0
   45.3639   33.6186   46.8665 H   0  0  0  0  0  0  0  0  0  0  0  0
   48.8563   35.6698   39.5216 H   0  0  0  0  0  0  0  0  0  0  0  0
   48.2138   35.7587   41.9059 H   0  0  0  0  0  0  0  0  0  0  0  0
   46.0401   32.1056   41.5136 H   0  0  0  0  0  0  0  0  0  0  0  0
   46.6650   31.9810   39.1136 H   0  0  0  0  0  0  0  0  0  0  0  0
   48.5486   35.1540   37.1957 H   0  0  0  0  0  0  0  0  0  0  0  0
   42.6488   30.6834   41.3516 H   0  0  0  0  0  0  0  0  0  0  0  0
   39.0307   33.2072   39.8049 H   0  0  0  0  0  0  0  0  0  0  0  0
   38.5511   35.6493   39.7268 H   0  0  0  0  0  0  0  0  0  0  0  0
   40.1948   37.2700   40.5936 H   0  0  0  0  0  0  0  0  0  0  0  0
   42.3675   36.5224   41.5666 H   0  0  0  0  0  0  0  0  0  0  0  0
  1  6  2  0
  2  1  1  0
  2  3  2  0
  3  4  1  0
  4  5  2  0
  6  5  1  0
  7 12  2  0
  7  8  1  0
  8  9  2  0
  9 10  1  0
 10  2  1  0
 11 10  2  0
 12 11  1  0
 13  7  1  0
 14 13  2  0
 15 13  2  0
 16  1  1  0
 17 18  2  0
 17 16  1  0
 19 18  1  0
 20 19  2  0
 21 20  1  0
 21 26  2  0
 22 21  1  0
 23 22  2  0
 23 24  1  0
 24 25  2  0
 25 26  1  0
 26 17  1  0
  3 27  1  0
  5 28  1  0
  8 29  1  0
  9 30  1  0
 11 31  1  0
 12 32  1  0
 13 33  1  0
 19 34  1  0
 22 35  1  0
 23 36  1  0
 24 37  1  0
 25 38  1  0
M  ISO  8  27  14  28  14  29  14  30  14  31  14  32  14  33  11  34  14
M  ISO  4  35  14  36  14  37  14  38  14
M  END
>  <minimizedAffinity>  (1) 
-6.36175203

>  <minimizedRMSD>  (1) 
1.32630706

$$$$
