
     RDKit          3D

 24 25  0  0  0  0  0  0  0  0999 V2000
   45.4960   34.7390   44.0640 C   0  0  0  0  0  0  0  0  0  0  0  0
   46.5370   33.9380   43.5900 C   0  0  0  0  0  0  0  0  0  0  0  0
   47.0950   33.0140   44.4810 C   0  0  0  0  0  0  0  0  0  0  0  0
   46.5880   32.9540   45.7580 N   0  0  0  0  0  0  0  0  0  0  0  0
   45.5850   33.7420   46.1780 C   0  0  0  0  0  0  0  0  0  0  0  0
   45.0260   34.6430   45.3420 N   0  0  0  0  0  0  0  0  0  0  0  0
   47.7280   34.0460   39.5360 C   0  0  0  0  0  0  0  0  0  0  0  0
   48.3410   34.9360   40.4190 C   0  0  0  0  0  0  0  0  0  0  0  0
   47.9720   34.9250   41.7500 C   0  0  0  0  0  0  0  0  0  0  0  0
   47.0150   34.0580   42.2390 C   0  0  0  0  0  0  0  0  0  0  0  0
   46.4130   33.1790   41.3610 C   0  0  0  0  0  0  0  0  0  0  0  0
   46.7690   33.1740   40.0130 C   0  0  0  0  0  0  0  0  0  0  0  0
   48.2560   34.1300   37.8700 S   0  0  0  0  0  0  0  0  0  0  0  0
   49.3290   33.1300   37.5810 O   0  0  0  0  0  0  0  0  0  0  0  0
   47.1210   33.8400   36.9050 O   0  0  0  0  0  0  0  0  0  0  0  0
   44.7150   35.9600   42.9820 S   0  0  0  0  0  0  0  0  0  0  0  0
   47.9171   32.3535   44.1682 H   0  0  0  0  0  0  0  0  0  0  0  0
   45.2162   33.6528   47.2105 H   0  0  0  0  0  0  0  0  0  0  0  0
   49.1083   35.6374   40.0596 H   0  0  0  0  0  0  0  0  0  0  0  0
   48.4560   35.6294   42.4425 H   0  0  0  0  0  0  0  0  0  0  0  0
   45.6480   32.4785   41.7271 H   0  0  0  0  0  0  0  0  0  0  0  0
   46.2817   32.4692   39.3232 H   0  0  0  0  0  0  0  0  0  0  0  0
   48.7225   35.4065   37.6970 H   0  0  0  0  0  0  0  0  0  0  0  0
   44.1015   36.9192   43.7439 H   0  0  0  0  0  0  0  0  0  0  0  0
  1  6  2  0
  2  1  1  0
  2  3  2  0
  3  4  1  0
  4  5  2  0
  6  5  1  0
  7 12  2  0
  7  8  1  0
  8  9  2  0
  9 10  1  0
 10  2  1  0
 11 10  2  0
 12 11  1  0
 13  7  1  0
 14 13  2  0
 15 13  2  0
 16  1  1  0
  3 17  1  0
  5 18  1  0
  8 19  1  0
  9 20  1  0
 11 21  1  0
 12 22  1  0
 13 23  1  0
 16 24  1  0
M  ISO  8  17  14  18  14  19  14  20  14  21  14  22  14  23  11  24  11
M  END
>  <minimizedAffinity>  (1) 
-4.72439098

>  <minimizedRMSD>  (1) 
1.21860862

$$$$
