
     RDKit          3D

 31 33  0  0  0  0  0  0  0  0999 V2000
   47.7730   34.0090   39.4970 C   0  0  0  0  0  0  0  0  0  0  0  0
   48.2950   34.9700   40.3470 C   0  0  0  0  0  0  0  0  0  0  0  0
   47.9200   34.9960   41.6790 C   0  0  0  0  0  0  0  0  0  0  0  0
   47.0270   34.0780   42.1910 C   0  0  0  0  0  0  0  0  0  0  0  0
   46.5030   33.1180   41.3480 C   0  0  0  0  0  0  0  0  0  0  0  0
   46.8710   33.0790   40.0030 C   0  0  0  0  0  0  0  0  0  0  0  0
   45.4140   34.7020   43.9670 C   0  0  0  0  0  0  0  0  0  0  0  0
   46.5400   33.9740   43.5450 C   0  0  0  0  0  0  0  0  0  0  0  0
   47.1640   33.1530   44.4770 C   0  0  0  0  0  0  0  0  0  0  0  0
   46.6610   33.0900   45.7500 N   0  0  0  0  0  0  0  0  0  0  0  0
   45.5770   33.8040   46.1250 C   0  0  0  0  0  0  0  0  0  0  0  0
   44.9450   34.6110   45.2470 N   0  0  0  0  0  0  0  0  0  0  0  0
   44.5540   35.7850   42.8180 S   0  0  0  0  0  0  0  0  0  0  0  0
   43.3620   34.8060   41.8830 C   0  0  0  0  0  0  0  0  0  0  0  0
   42.2080   35.5580   41.2490 C   0  0  0  0  0  0  0  0  0  0  0  0
   43.3320   34.9500   40.4270 C   0  0  0  0  0  0  0  0  0  0  0  0
   48.3090   34.0620   37.8370 S   0  0  0  0  0  0  0  0  0  0  0  0
   49.3610   33.0230   37.5670 O   0  0  0  0  0  0  0  0  0  0  0  0
   47.1680   33.7860   36.8630 O   0  0  0  0  0  0  0  0  0  0  0  0
   49.0087   35.7137   39.9628 H   0  0  0  0  0  0  0  0  0  0  0  0
   48.3428   35.7645   42.3429 H   0  0  0  0  0  0  0  0  0  0  0  0
   45.7897   32.3781   41.7402 H   0  0  0  0  0  0  0  0  0  0  0  0
   46.4465   32.3103   39.3405 H   0  0  0  0  0  0  0  0  0  0  0  0
   48.0487   32.5625   44.1967 H   0  0  0  0  0  0  0  0  0  0  0  0
   45.2054   33.7267   47.1574 H   0  0  0  0  0  0  0  0  0  0  0  0
   43.4535   33.9445   42.5608 H   0  0  0  0  0  0  0  0  0  0  0  0
   41.2009   35.1161   41.2273 H   0  0  0  0  0  0  0  0  0  0  0  0
   41.7581   36.5558   41.3587 H   0  0  0  0  0  0  0  0  0  0  0  0
   43.1340   34.0721   39.7945 H   0  0  0  0  0  0  0  0  0  0  0  0
   44.0353   35.3382   39.6755 H   0  0  0  0  0  0  0  0  0  0  0  0
   48.8061   35.3250   37.6509 H   0  0  0  0  0  0  0  0  0  0  0  0
  1  6  2  0
  1  2  1  0
  2  3  2  0
  3  4  1  0
  4  8  1  0
  5  4  2  0
  6  5  1  0
  7 12  2  0
  8  7  1  0
  8  9  2  0
  9 10  1  0
 10 11  2  0
 12 11  1  0
 13  7  1  0
 14 13  1  0
 15 14  1  0
 16 15  1  0
 16 14  1  0
 17  1  1  0
 18 17  2  0
 19 17  2  0
  2 20  1  0
  3 21  1  0
  5 22  1  0
  6 23  1  0
  9 24  1  0
 11 25  1  0
 14 26  1  0
 15 27  1  0
 15 28  1  0
 16 29  1  0
 16 30  1  0
 17 31  1  0
M  ISO  8  20  14  21  14  22  14  23  14  24  14  25  14  26  13  27  13
M  ISO  4  28  13  29  13  30  13  31  11
M  END
>  <minimizedAffinity>  (1) 
-5.04071712

>  <minimizedRMSD>  (1) 
0.224623576

$$$$
