
     RDKit          3D

 30 32  0  0  0  0  0  0  0  0999 V2000
   45.2590   34.9320   43.4280 C   0  0  0  0  0  0  0  0  0  0  0  0
   46.4180   34.2100   43.1400 C   0  0  0  0  0  0  0  0  0  0  0  0
   47.0160   33.4780   44.1850 C   0  0  0  0  0  0  0  0  0  0  0  0
   46.4120   33.5270   45.4230 N   0  0  0  0  0  0  0  0  0  0  0  0
   45.2960   34.2350   45.6610 C   0  0  0  0  0  0  0  0  0  0  0  0
   44.6980   34.9500   44.6690 N   0  0  0  0  0  0  0  0  0  0  0  0
   47.8470   33.9290   39.1780 C   0  0  0  0  0  0  0  0  0  0  0  0
   48.3890   34.9230   39.9980 C   0  0  0  0  0  0  0  0  0  0  0  0
   47.9390   35.0380   41.3010 C   0  0  0  0  0  0  0  0  0  0  0  0
   46.9780   34.2090   41.8180 C   0  0  0  0  0  0  0  0  0  0  0  0
   46.4440   33.2230   41.0000 C   0  0  0  0  0  0  0  0  0  0  0  0
   46.8770   33.0830   39.6830 C   0  0  0  0  0  0  0  0  0  0  0  0
   48.4910   33.8740   37.5480 S   0  0  0  0  0  0  0  0  0  0  0  0
   49.6270   32.9220   37.4300 O   0  0  0  0  0  0  0  0  0  0  0  0
   47.4350   33.3880   36.5580 O   0  0  0  0  0  0  0  0  0  0  0  0
   44.4240   35.8720   42.1470 S   0  0  0  0  0  0  0  0  0  0  0  0
   42.8670   35.0340   41.7560 C   0  0  0  0  0  0  0  0  0  0  0  0
   42.9840   33.6370   41.4290 C   0  0  0  0  0  0  0  0  0  0  0  0
   41.2000   33.2270   41.1130 S   0  0  0  0  0  0  0  0  0  0  0  0
   40.6440   34.8770   41.4480 C   0  0  0  0  0  0  0  0  0  0  0  0
   41.6720   35.6110   41.7510 N   0  0  0  0  0  0  0  0  0  0  0  0
   47.9305   32.8896   44.0190 H   0  0  0  0  0  0  0  0  0  0  0  0
   44.8594   34.2372   46.6707 H   0  0  0  0  0  0  0  0  0  0  0  0
   49.1622   35.6039   39.6126 H   0  0  0  0  0  0  0  0  0  0  0  0
   48.3670   35.8213   41.9439 H   0  0  0  0  0  0  0  0  0  0  0  0
   45.6721   32.5461   41.3949 H   0  0  0  0  0  0  0  0  0  0  0  0
   46.4463   32.2980   39.0440 H   0  0  0  0  0  0  0  0  0  0  0  0
   48.8975   35.1524   37.2697 H   0  0  0  0  0  0  0  0  0  0  0  0
   43.8759   32.9950   41.3802 H   0  0  0  0  0  0  0  0  0  0  0  0
   39.6004   35.2222   41.4061 H   0  0  0  0  0  0  0  0  0  0  0  0
  1  6  2  0
  2  1  1  0
  2  3  2  0
  3  4  1  0
  4  5  2  0
  6  5  1  0
  7 12  2  0
  7  8  1  0
  8  9  2  0
  9 10  1  0
 10  2  1  0
 11 10  2  0
 12 11  1  0
 13  7  1  0
 14 13  2  0
 15 13  2  0
 16  1  1  0
 17 16  1  0
 18 17  2  0
 19 18  1  0
 19 20  1  0
 20 21  2  0
 21 17  1  0
  3 22  1  0
  5 23  1  0
  8 24  1  0
  9 25  1  0
 11 26  1  0
 12 27  1  0
 13 28  1  0
 18 29  1  0
 20 30  1  0
M  ISO  8  22  14  23  14  24  14  25  14  26  14  27  14  28  11  29  14
M  ISO  1  30  14
M  END
>  <minimizedAffinity>  (1) 
-5.21230602

>  <minimizedRMSD>  (1) 
0.659635305

$$$$
