
     RDKit          3D

 31 33  0  0  0  0  0  0  0  0999 V2000
   45.3870   34.8020   43.6800 C   0  0  0  0  0  0  0  0  0  0  0  0
   46.5100   34.0690   43.3140 C   0  0  0  0  0  0  0  0  0  0  0  0
   47.1090   33.2620   44.2970 C   0  0  0  0  0  0  0  0  0  0  0  0
   46.5640   33.2370   45.5500 N   0  0  0  0  0  0  0  0  0  0  0  0
   45.4690   33.9650   45.8720 C   0  0  0  0  0  0  0  0  0  0  0  0
   44.8660   34.7570   44.9440 N   0  0  0  0  0  0  0  0  0  0  0  0
   47.9010   34.0270   39.3180 C   0  0  0  0  0  0  0  0  0  0  0  0
   48.3970   34.9980   40.1760 C   0  0  0  0  0  0  0  0  0  0  0  0
   47.9660   35.0430   41.4880 C   0  0  0  0  0  0  0  0  0  0  0  0
   47.0400   34.1380   41.9910 C   0  0  0  0  0  0  0  0  0  0  0  0
   46.5590   33.1870   41.1370 C   0  0  0  0  0  0  0  0  0  0  0  0
   46.9750   33.1150   39.8050 C   0  0  0  0  0  0  0  0  0  0  0  0
   48.4970   34.0400   37.6800 S   0  0  0  0  0  0  0  0  0  0  0  0
   49.5430   32.9970   37.4650 O   0  0  0  0  0  0  0  0  0  0  0  0
   47.3870   33.7720   36.6720 O   0  0  0  0  0  0  0  0  0  0  0  0
   44.5490   35.8540   42.4890 S   0  0  0  0  0  0  0  0  0  0  0  0
   43.0420   35.0030   41.8660 C   0  0  0  0  0  0  0  0  0  0  0  0
   41.7070   35.4570   41.5940 C   0  0  0  0  0  0  0  0  0  0  0  0
   40.8740   34.4990   41.1300 C   0  0  0  0  0  0  0  0  0  0  0  0
   41.3060   33.2150   40.9480 C   0  0  0  0  0  0  0  0  0  0  0  0
   43.0010   33.1760   41.4200 S   0  0  0  0  0  0  0  0  0  0  0  0
   48.0002   32.6616   44.0619 H   0  0  0  0  0  0  0  0  0  0  0  0
   45.0629   33.9159   46.8931 H   0  0  0  0  0  0  0  0  0  0  0  0
   49.1322   35.7309   39.8123 H   0  0  0  0  0  0  0  0  0  0  0  0
   48.3687   35.8196   42.1549 H   0  0  0  0  0  0  0  0  0  0  0  0
   45.8239   32.4576   41.5079 H   0  0  0  0  0  0  0  0  0  0  0  0
   46.5689   32.3361   39.1429 H   0  0  0  0  0  0  0  0  0  0  0  0
   49.0217   35.2912   37.4901 H   0  0  0  0  0  0  0  0  0  0  0  0
   41.3887   36.4983   41.7503 H   0  0  0  0  0  0  0  0  0  0  0  0
   39.8309   34.7570   40.8949 H   0  0  0  0  0  0  0  0  0  0  0  0
   40.7089   32.3686   40.5777 H   0  0  0  0  0  0  0  0  0  0  0  0
  1  6  2  0
  2  1  1  0
  2  3  2  0
  3  4  1  0
  4  5  2  0
  6  5  1  0
  7 12  2  0
  7  8  1  0
  8  9  2  0
  9 10  1  0
 10  2  1  0
 11 10  2  0
 12 11  1  0
 13  7  1  0
 14 13  2  0
 15 13  2  0
 16  1  1  0
 17 16  1  0
 18 17  2  0
 19 18  1  0
 20 19  2  0
 20 21  1  0
 21 17  1  0
  3 22  1  0
  5 23  1  0
  8 24  1  0
  9 25  1  0
 11 26  1  0
 12 27  1  0
 13 28  1  0
 18 29  1  0
 19 30  1  0
 20 31  1  0
M  ISO  8  22  14  23  14  24  14  25  14  26  14  27  14  28  11  29  14
M  ISO  2  30  14  31  14
M  END
>  <minimizedAffinity>  (1) 
-5.30007601

>  <minimizedRMSD>  (1) 
0.370843291

$$$$
