
     RDKit          3D

 30 31  0  0  0  0  0  0  0  0999 V2000
   47.7520   34.0280   39.5330 C   0  0  0  0  0  0  0  0  0  0  0  0
   48.3140   34.9550   40.4090 C   0  0  0  0  0  0  0  0  0  0  0  0
   47.9380   34.9390   41.7390 C   0  0  0  0  0  0  0  0  0  0  0  0
   47.0140   34.0230   42.2310 C   0  0  0  0  0  0  0  0  0  0  0  0
   46.4640   33.1150   41.3690 C   0  0  0  0  0  0  0  0  0  0  0  0
   46.8410   33.1280   40.0240 C   0  0  0  0  0  0  0  0  0  0  0  0
   45.5130   34.7090   44.0670 C   0  0  0  0  0  0  0  0  0  0  0  0
   46.5440   33.9060   43.5850 C   0  0  0  0  0  0  0  0  0  0  0  0
   47.1050   32.9830   44.4720 C   0  0  0  0  0  0  0  0  0  0  0  0
   46.6130   32.9210   45.7490 N   0  0  0  0  0  0  0  0  0  0  0  0
   45.6220   33.7050   46.1810 C   0  0  0  0  0  0  0  0  0  0  0  0
   45.0550   34.6120   45.3480 N   0  0  0  0  0  0  0  0  0  0  0  0
   44.7320   35.9290   42.9880 S   0  0  0  0  0  0  0  0  0  0  0  0
   43.2720   35.2380   42.1790 C   0  0  0  0  0  0  0  0  0  0  0  0
   43.5820   35.2750   40.6760 C   0  0  0  0  0  0  0  0  0  0  0  0
   48.2690   34.1030   37.8740 S   0  0  0  0  0  0  0  0  0  0  0  0
   49.3350   33.0940   37.5770 O   0  0  0  0  0  0  0  0  0  0  0  0
   47.1250   33.8240   36.9050 O   0  0  0  0  0  0  0  0  0  0  0  0
   49.0476   35.6901   40.0465 H   0  0  0  0  0  0  0  0  0  0  0  0
   48.3824   35.6720   42.4284 H   0  0  0  0  0  0  0  0  0  0  0  0
   45.7304   32.3801   41.7319 H   0  0  0  0  0  0  0  0  0  0  0  0
   46.3935   32.3940   39.3377 H   0  0  0  0  0  0  0  0  0  0  0  0
   47.9232   32.3212   44.1519 H   0  0  0  0  0  0  0  0  0  0  0  0
   45.2642   33.6145   47.2172 H   0  0  0  0  0  0  0  0  0  0  0  0
   43.1015   34.2033   42.5113 H   0  0  0  0  0  0  0  0  0  0  0  0
   42.3622   35.8061   42.4228 H   0  0  0  0  0  0  0  0  0  0  0  0
   44.6643   35.4042   40.5279 H   0  0  0  0  0  0  0  0  0  0  0  0
   43.2584   34.3319   40.2115 H   0  0  0  0  0  0  0  0  0  0  0  0
   43.0455   36.1155   40.2115 H   0  0  0  0  0  0  0  0  0  0  0  0
   48.7440   35.3767   37.7040 H   0  0  0  0  0  0  0  0  0  0  0  0
  1  6  2  0
  1  2  1  0
  2  3  2  0
  3  4  1  0
  4  8  1  0
  5  4  2  0
  6  5  1  0
  7 12  2  0
  8  7  1  0
  8  9  2  0
  9 10  1  0
 10 11  2  0
 12 11  1  0
 13  7  1  0
 14 13  1  0
 15 14  1  0
 16  1  1  0
 17 16  2  0
 18 16  2  0
  2 19  1  0
  3 20  1  0
  5 21  1  0
  6 22  1  0
  9 23  1  0
 11 24  1  0
 14 25  1  0
 14 26  1  0
 15 27  1  0
 15 28  1  0
 15 29  1  0
 16 30  1  0
M  ISO  8  19  14  20  14  21  14  22  14  23  14  24  14  25   8  26   8
M  ISO  4  27   8  28   8  29   8  30  11
M  END
>  <minimizedAffinity>  (1) 
-4.78195333

>  <minimizedRMSD>  (1) 
0.963471413

$$$$
