
     RDKit          3D

 25 26  0  0  0  0  0  0  0  0999 V2000
   45.8280   32.9500   46.8350 C   0  0  0  0  0  0  0  0  0  0  0  0
   44.8650   33.1380   47.6430 O   0  0  0  0  0  0  0  0  0  0  0  0
   45.0650   35.2810   44.0980 C   0  0  0  0  0  0  0  0  0  0  0  0
   46.0580   35.0060   43.1520 C   0  0  0  0  0  0  0  0  0  0  0  0
   46.9570   34.0130   43.5030 C   0  0  0  0  0  0  0  0  0  0  0  0
   46.8110   33.4020   44.6980 N   0  0  0  0  0  0  0  0  0  0  0  0
   45.8550   33.6820   45.5860 C   0  0  0  0  0  0  0  0  0  0  0  0
   44.9850   34.6330   45.2630 N   0  0  0  0  0  0  0  0  0  0  0  0
   48.8150   30.2490   48.2680 C   0  0  0  0  0  0  0  0  0  0  0  0
   47.9740   29.8580   47.2530 C   0  0  0  0  0  0  0  0  0  0  0  0
   46.9840   30.7250   46.7800 C   0  0  0  0  0  0  0  0  0  0  0  0
   46.8150   31.9890   47.3030 C   0  0  0  0  0  0  0  0  0  0  0  0
   47.6910   32.3210   48.3220 C   0  0  0  0  0  0  0  0  0  0  0  0
   48.6790   31.5020   48.8180 C   0  0  0  0  0  0  0  0  0  0  0  0
   50.0750   29.2330   48.8770 S   0  0  0  0  0  0  0  0  0  0  0  0
   50.0930   29.1950   50.3860 O   0  0  0  0  0  0  0  0  0  0  0  0
   51.4290   29.7420   48.4100 O   0  0  0  0  0  0  0  0  0  0  0  0
   44.3219   36.0605   43.8739 H   0  0  0  0  0  0  0  0  0  0  0  0
   46.1205   35.5425   42.1937 H   0  0  0  0  0  0  0  0  0  0  0  0
   47.7729   33.7280   42.8225 H   0  0  0  0  0  0  0  0  0  0  0  0
   48.0806   28.8567   46.8102 H   0  0  0  0  0  0  0  0  0  0  0  0
   46.3220   30.3890   45.9683 H   0  0  0  0  0  0  0  0  0  0  0  0
   47.5890   33.3199   48.7713 H   0  0  0  0  0  0  0  0  0  0  0  0
   49.3401   31.8393   49.6299 H   0  0  0  0  0  0  0  0  0  0  0  0
   49.8304   27.9726   48.3990 H   0  0  0  0  0  0  0  0  0  0  0  0
  1 12  1  0
  1  2  2  0
  3  8  2  0
  4  5  2  0
  4  3  1  0
  5  6  1  0
  6  7  2  0
  7  1  1  0
  8  7  1  0
  9 14  2  0
  9 15  1  0
 10  9  1  0
 11 10  2  0
 11 12  1  0
 12 13  2  0
 13 14  1  0
 15 16  2  0
 17 15  2  0
  3 18  1  0
  4 19  1  0
  5 20  1  0
 10 21  1  0
 11 22  1  0
 13 23  1  0
 14 24  1  0
 15 25  1  0
M  ISO  8  18  14  19  14  20  14  21  14  22  14  23  14  24  14  25  11
M  END
>  <minimizedAffinity>  (1) 
-4.67738295

>  <minimizedRMSD>  (1) 
1.74762046

$$$$
