
     RDKit          3D

 22 23  0  0  0  0  0  0  0  0999 V2000
   45.7900   32.9200   46.8950 C   0  0  0  0  0  0  0  0  0  0  0  0
   44.8440   33.1790   47.6720 O   0  0  0  0  0  0  0  0  0  0  0  0
   45.1730   35.1720   44.0860 C   0  0  0  0  0  0  0  0  0  0  0  0
   46.2240   34.8840   43.1720 C   0  0  0  0  0  0  0  0  0  0  0  0
   47.1110   33.8930   43.5600 C   0  0  0  0  0  0  0  0  0  0  0  0
   46.9140   33.3020   44.7430 N   0  0  0  0  0  0  0  0  0  0  0  0
   45.9360   33.5640   45.6100 C   0  0  0  0  0  0  0  0  0  0  0  0
   45.0680   34.5130   45.2520 N   0  0  0  0  0  0  0  0  0  0  0  0
   46.7710   31.9280   47.3290 C   0  0  0  0  0  0  0  0  0  0  0  0
   46.9800   30.6610   46.8300 C   0  0  0  0  0  0  0  0  0  0  0  0
   47.9610   29.7880   47.2310 C   0  0  0  0  0  0  0  0  0  0  0  0
   48.8180   30.2270   48.2340 C   0  0  0  0  0  0  0  0  0  0  0  0
   48.6740   31.4820   48.7870 C   0  0  0  0  0  0  0  0  0  0  0  0
   47.6570   32.3190   48.3320 C   0  0  0  0  0  0  0  0  0  0  0  0
   44.4341   35.9469   43.8341 H   0  0  0  0  0  0  0  0  0  0  0  0
   46.3264   35.4161   42.2147 H   0  0  0  0  0  0  0  0  0  0  0  0
   47.9522   33.6011   42.9141 H   0  0  0  0  0  0  0  0  0  0  0  0
   46.2986   30.3173   46.0378 H   0  0  0  0  0  0  0  0  0  0  0  0
   48.0639   28.7897   46.7806 H   0  0  0  0  0  0  0  0  0  0  0  0
   49.6208   29.5650   48.5908 H   0  0  0  0  0  0  0  0  0  0  0  0
   49.3564   31.8197   49.5809 H   0  0  0  0  0  0  0  0  0  0  0  0
   47.5499   33.3189   48.7779 H   0  0  0  0  0  0  0  0  0  0  0  0
  1  9  1  0
  1  2  2  0
  3  8  2  0
  4  5  2  0
  4  3  1  0
  5  6  1  0
  6  7  2  0
  7  1  1  0
  8  7  1  0
  9 14  2  0
 10 11  2  0
 10  9  1  0
 11 12  1  0
 12 13  2  0
 14 13  1  0
  3 15  1  0
  4 16  1  0
  5 17  1  0
 10 18  1  0
 11 19  1  0
 12 20  1  0
 13 21  1  0
 14 22  1  0
M  ISO  8  15  14  16  14  17  14  18  14  19  14  20  14  21  14  22  14
M  END
>  <minimizedAffinity>  (1) 
-4.35528755

>  <minimizedRMSD>  (1) 
1.25779676

$$$$
