
     RDKit          3D

 20 21  0  0  0  0  0  0  0  0999 V2000
   44.9770   35.4340   44.1280 C   0  0  0  0  0  0  0  0  0  0  0  0
   45.9720   35.0980   43.1960 C   0  0  0  0  0  0  0  0  0  0  0  0
   46.8680   34.0700   43.5110 C   0  0  0  0  0  0  0  0  0  0  0  0
   46.7260   33.4490   44.7130 N   0  0  0  0  0  0  0  0  0  0  0  0
   45.7710   33.7860   45.5860 C   0  0  0  0  0  0  0  0  0  0  0  0
   44.9020   34.7720   45.2970 N   0  0  0  0  0  0  0  0  0  0  0  0
   45.6740   33.0780   46.8560 C   0  0  0  0  0  0  0  0  0  0  0  0
   44.7580   33.2850   47.6820 O   0  0  0  0  0  0  0  0  0  0  0  0
   46.6730   32.0780   47.2150 C   0  0  0  0  0  0  0  0  0  0  0  0
   47.5850   32.3490   48.2160 C   0  0  0  0  0  0  0  0  0  0  0  0
   48.5710   31.4400   48.6150 C   0  0  0  0  0  0  0  0  0  0  0  0
   48.6210   30.2380   47.9770 N   0  0  0  0  0  0  0  0  0  0  0  0
   47.7250   30.0080   47.0150 C   0  0  0  0  0  0  0  0  0  0  0  0
   46.7490   30.8690   46.5980 N   0  0  0  0  0  0  0  0  0  0  0  0
   44.2599   36.2372   43.9028 H   0  0  0  0  0  0  0  0  0  0  0  0
   46.0458   35.6322   42.2372 H   0  0  0  0  0  0  0  0  0  0  0  0
   47.6615   33.7737   42.8092 H   0  0  0  0  0  0  0  0  0  0  0  0
   47.5339   33.3240   48.7228 H   0  0  0  0  0  0  0  0  0  0  0  0
   49.2818   31.6880   49.4170 H   0  0  0  0  0  0  0  0  0  0  0  0
   47.7770   29.0324   46.5095 H   0  0  0  0  0  0  0  0  0  0  0  0
  1  6  2  0
  2  3  2  0
  2  1  1  0
  3  4  1  0
  4  5  2  0
  5  7  1  0
  6  5  1  0
  7  9  1  0
  7  8  2  0
  9 10  2  0
 10 11  1  0
 12 11  2  0
 13 12  1  0
 14 13  2  0
 14  9  1  0
  1 15  1  0
  2 16  1  0
  3 17  1  0
 10 18  1  0
 11 19  1  0
 13 20  1  0
M  ISO  6  15  14  16  14  17  14  18  14  19  14  20  14
M  END
>  <minimizedAffinity>  (1) 
-4.14623308

>  <minimizedRMSD>  (1) 
1.0556674

$$$$
