
     RDKit          3D

 19 20  0  0  0  0  0  0  0  0999 V2000
   45.1560   35.6730   43.2380 C   0  0  0  0  0  0  0  0  0  0  0  0
   46.2300   35.1240   42.5190 C   0  0  0  0  0  0  0  0  0  0  0  0
   46.9990   34.1420   43.1360 C   0  0  0  0  0  0  0  0  0  0  0  0
   46.6640   33.7780   44.3920 N   0  0  0  0  0  0  0  0  0  0  0  0
   45.6350   34.3060   45.0760 C   0  0  0  0  0  0  0  0  0  0  0  0
   44.8930   35.2480   44.4870 N   0  0  0  0  0  0  0  0  0  0  0  0
   45.3500   33.8490   46.4230 C   0  0  0  0  0  0  0  0  0  0  0  0
   44.3790   34.3240   47.0760 O   0  0  0  0  0  0  0  0  0  0  0  0
   46.1510   32.8330   47.0980 C   0  0  0  0  0  0  0  0  0  0  0  0
   45.7040   31.5530   47.3450 C   0  0  0  0  0  0  0  0  0  0  0  0
   46.6760   30.8460   47.9880 N   0  0  0  0  0  0  0  0  0  0  0  0
   47.7010   31.6850   48.1310 C   0  0  0  0  0  0  0  0  0  0  0  0
   47.3950   32.8810   47.6000 N   0  0  0  0  0  0  0  0  0  0  0  0
   44.5289   36.4517   42.7793 H   0  0  0  0  0  0  0  0  0  0  0  0
   46.4571   35.4608   41.4967 H   0  0  0  0  0  0  0  0  0  0  0  0
   47.8511   33.6780   42.6177 H   0  0  0  0  0  0  0  0  0  0  0  0
   44.7145   31.1618   47.0660 H   0  0  0  0  0  0  0  0  0  0  0  0
   48.6577   31.4353   48.6131 H   0  0  0  0  0  0  0  0  0  0  0  0
   48.0156   33.7028   47.5812 H   0  0  0  0  0  0  0  0  0  0  0  0
  1  6  2  0
  2  3  2  0
  2  1  1  0
  3  4  1  0
  4  5  2  0
  5  7  1  0
  6  5  1  0
  7  8  2  0
  7  9  1  0
  9 10  2  0
  9 13  1  0
 10 11  1  0
 11 12  2  0
 13 12  1  0
  1 14  1  0
  2 15  1  0
  3 16  1  0
 10 17  1  0
 12 18  1  0
 13 19  1  0
M  ISO  6  14  14  15  14  16  14  17  14  18  14  19   9
M  END
>  <minimizedAffinity>  (1) 
-4.10377932

>  <minimizedRMSD>  (1) 
1.43561184

$$$$
