
     RDKit          3D

 14 14  0  0  0  0  0  0  0  0999 V2000
   44.5200   35.9710   44.5530 C   0  0  0  0  0  0  0  0  0  0  0  0
   45.1940   35.8740   43.3240 C   0  0  0  0  0  0  0  0  0  0  0  0
   46.0960   34.8200   43.1870 C   0  0  0  0  0  0  0  0  0  0  0  0
   46.2640   33.9710   44.2250 N   0  0  0  0  0  0  0  0  0  0  0  0
   45.5970   34.0980   45.3940 C   0  0  0  0  0  0  0  0  0  0  0  0
   44.7290   35.0940   45.5530 N   0  0  0  0  0  0  0  0  0  0  0  0
   45.8120   33.1580   46.4810 C   0  0  0  0  0  0  0  0  0  0  0  0
   45.0770   33.0820   47.5030 O   0  0  0  0  0  0  0  0  0  0  0  0
   46.9360   32.2570   46.3930 N   0  0  0  0  0  0  0  0  0  0  0  0
   43.7995   36.7885   44.7028 H   0  0  0  0  0  0  0  0  0  0  0  0
   45.0187   36.5936   42.5107 H   0  0  0  0  0  0  0  0  0  0  0  0
   46.6598   34.6821   42.2526 H   0  0  0  0  0  0  0  0  0  0  0  0
   47.1135   31.5797   47.1484 H   0  0  0  0  0  0  0  0  0  0  0  0
   47.5607   32.2913   45.5748 H   0  0  0  0  0  0  0  0  0  0  0  0
  1  6  2  0
  2  1  1  0
  3  2  2  0
  3  4  1  0
  4  5  2  0
  5  6  1  0
  5  7  1  0
  7  8  2  0
  9  7  1  0
  1 10  1  0
  2 11  1  0
  3 12  1  0
  9 13  1  0
  9 14  1  0
M  ISO  3  10  14  11  14  12  14
M  END
>  <minimizedAffinity>  (1) 
-3.46601129

>  <minimizedRMSD>  (1) 
0.02232977

$$$$
