
     RDKit          3D

 31 33  0  0  0  0  0  0  0  0999 V2000
   45.8910   32.3630   47.0040 C   0  0  0  0  0  0  0  0  0  0  0  0
   47.1210   32.3900   47.6280 C   0  0  0  0  0  0  0  0  0  0  0  0
   47.7030   31.2220   48.1330 C   0  0  0  0  0  0  0  0  0  0  0  0
   47.0020   30.0120   47.9900 C   0  0  0  0  0  0  0  0  0  0  0  0
   45.7810   30.0250   47.3630 C   0  0  0  0  0  0  0  0  0  0  0  0
   45.2960   31.1780   46.9100 N   0  0  0  0  0  0  0  0  0  0  0  0
   45.0020   28.8060   47.1820 C   0  0  0  0  0  0  0  0  0  0  0  0
   45.0570   27.7040   48.0080 C   0  0  0  0  0  0  0  0  0  0  0  0
   44.3020   26.5700   47.7980 C   0  0  0  0  0  0  0  0  0  0  0  0
   43.4400   26.4900   46.7280 C   0  0  0  0  0  0  0  0  0  0  0  0
   43.3480   27.5670   45.8720 C   0  0  0  0  0  0  0  0  0  0  0  0
   44.1250   28.6790   46.1240 C   0  0  0  0  0  0  0  0  0  0  0  0
   45.3410   33.6080   46.5010 C   0  0  0  0  0  0  0  0  0  0  0  0
   44.5550   34.2280   47.2680 O   0  0  0  0  0  0  0  0  0  0  0  0
   45.3100   35.5180   43.3670 C   0  0  0  0  0  0  0  0  0  0  0  0
   46.4030   34.9780   42.6510 C   0  0  0  0  0  0  0  0  0  0  0  0
   47.1060   33.9740   43.2870 C   0  0  0  0  0  0  0  0  0  0  0  0
   46.7310   33.5640   44.5300 N   0  0  0  0  0  0  0  0  0  0  0  0
   45.6930   34.0970   45.1770 C   0  0  0  0  0  0  0  0  0  0  0  0
   44.9760   35.0750   44.6050 N   0  0  0  0  0  0  0  0  0  0  0  0
   47.6538   33.3469   47.7304 H   0  0  0  0  0  0  0  0  0  0  0  0
   48.6843   31.2500   48.6293 H   0  0  0  0  0  0  0  0  0  0  0  0
   47.4244   29.0716   48.3737 H   0  0  0  0  0  0  0  0  0  0  0  0
   45.7343   27.7307   48.8743 H   0  0  0  0  0  0  0  0  0  0  0  0
   44.3892   25.7211   48.4921 H   0  0  0  0  0  0  0  0  0  0  0  0
   42.8370   25.5856   46.5592 H   0  0  0  0  0  0  0  0  0  0  0  0
   42.6696   27.5403   45.0066 H   0  0  0  0  0  0  0  0  0  0  0  0
   44.0390   29.5278   45.4297 H   0  0  0  0  0  0  0  0  0  0  0  0
   44.7136   36.3199   42.9073 H   0  0  0  0  0  0  0  0  0  0  0  0
   46.6769   35.3361   41.6476 H   0  0  0  0  0  0  0  0  0  0  0  0
   47.9683   33.5058   42.7898 H   0  0  0  0  0  0  0  0  0  0  0  0
  1  2  2  0
  2  3  1  0
  4  3  2  0
  5  4  1  0
  6  1  1  0
  6  5  2  0
  7  5  1  0
  7  8  2  0
  9  8  1  0
 10  9  2  0
 11 12  2  0
 11 10  1  0
 12  7  1  0
 13  1  1  0
 13 14  2  0
 15 20  2  0
 16 17  2  0
 16 15  1  0
 17 18  1  0
 18 19  2  0
 19 13  1  0
 20 19  1  0
  2 21  1  0
  3 22  1  0
  4 23  1  0
  8 24  1  0
  9 25  1  0
 10 26  1  0
 11 27  1  0
 12 28  1  0
 15 29  1  0
 16 30  1  0
 17 31  1  0
M  ISO  8  21  14  22  14  23  14  24  14  25  14  26  14  27  14  28  14
M  ISO  3  29  14  30  14  31  14
M  END
>  <minimizedAffinity>  (1) 
-5.26953459

>  <minimizedRMSD>  (1) 
1.16984391

$$$$
