
     RDKit          3D

 34 36  0  0  0  0  0  0  0  0999 V2000
   45.9140   32.3940   46.9860 C   0  0  0  0  0  0  0  0  0  0  0  0
   47.1420   32.4220   47.6160 C   0  0  0  0  0  0  0  0  0  0  0  0
   47.6970   31.2500   48.1110 C   0  0  0  0  0  0  0  0  0  0  0  0
   46.9990   30.0460   47.9640 C   0  0  0  0  0  0  0  0  0  0  0  0
   45.7790   30.0540   47.3320 C   0  0  0  0  0  0  0  0  0  0  0  0
   45.3000   31.2200   46.8760 N   0  0  0  0  0  0  0  0  0  0  0  0
   43.4340   26.5280   46.6800 C   0  0  0  0  0  0  0  0  0  0  0  0
   44.2970   26.5990   47.7570 C   0  0  0  0  0  0  0  0  0  0  0  0
   45.0550   27.7340   47.9700 C   0  0  0  0  0  0  0  0  0  0  0  0
   44.9990   28.8370   47.1450 C   0  0  0  0  0  0  0  0  0  0  0  0
   44.1250   28.7240   46.0820 C   0  0  0  0  0  0  0  0  0  0  0  0
   43.3710   27.6180   45.8540 C   0  0  0  0  0  0  0  0  0  0  0  0
   42.4960   25.0740   46.4500 S   0  0  0  0  0  0  0  0  0  0  0  0
   42.8500   24.4870   45.1210 O   0  0  0  0  0  0  0  0  0  0  0  0
   41.0340   25.3900   46.4660 O   0  0  0  0  0  0  0  0  0  0  0  0
   45.3470   33.6410   46.4700 C   0  0  0  0  0  0  0  0  0  0  0  0
   44.5540   34.2520   47.2480 O   0  0  0  0  0  0  0  0  0  0  0  0
   45.2790   35.5640   43.3560 C   0  0  0  0  0  0  0  0  0  0  0  0
   46.3650   35.0400   42.6360 C   0  0  0  0  0  0  0  0  0  0  0  0
   47.0910   34.0300   43.2560 C   0  0  0  0  0  0  0  0  0  0  0  0
   46.7210   33.6090   44.5060 N   0  0  0  0  0  0  0  0  0  0  0  0
   45.6770   34.1360   45.1590 C   0  0  0  0  0  0  0  0  0  0  0  0
   44.9630   35.1070   44.5860 N   0  0  0  0  0  0  0  0  0  0  0  0
   47.6814   33.3744   47.7259 H   0  0  0  0  0  0  0  0  0  0  0  0
   48.6753   31.2674   48.6136 H   0  0  0  0  0  0  0  0  0  0  0  0
   47.4213   29.1061   48.3491 H   0  0  0  0  0  0  0  0  0  0  0  0
   44.3808   25.7474   48.4482 H   0  0  0  0  0  0  0  0  0  0  0  0
   45.7330   27.7588   48.8359 H   0  0  0  0  0  0  0  0  0  0  0  0
   44.0352   29.5711   45.3861 H   0  0  0  0  0  0  0  0  0  0  0  0
   42.6948   27.5973   44.9867 H   0  0  0  0  0  0  0  0  0  0  0  0
   42.7713   24.1913   47.4609 H   0  0  0  0  0  0  0  0  0  0  0  0
   44.6725   36.3646   42.9075 H   0  0  0  0  0  0  0  0  0  0  0  0
   46.6273   35.4097   41.6337 H   0  0  0  0  0  0  0  0  0  0  0  0
   47.9535   33.5735   42.7484 H   0  0  0  0  0  0  0  0  0  0  0  0
  1  2  2  0
  2  3  1  0
  4  3  2  0
  5  4  1  0
  6  1  1  0
  6  5  2  0
  7  8  2  0
  8  9  1  0
 10  5  1  0
 10  9  2  0
 11 10  1  0
 12 11  2  0
 12  7  1  0
 13 15  2  0
 13  7  1  0
 14 13  2  0
 16  1  1  0
 16 17  2  0
 18 23  2  0
 19 20  2  0
 19 18  1  0
 20 21  1  0
 21 22  2  0
 22 16  1  0
 23 22  1  0
  2 24  1  0
  3 25  1  0
  4 26  1  0
  8 27  1  0
  9 28  1  0
 11 29  1  0
 12 30  1  0
 13 31  1  0
 18 32  1  0
 19 33  1  0
 20 34  1  0
M  ISO  8  24  14  25  14  26  14  27  14  28  14  29  14  30  14  31  11
M  ISO  3  32  14  33  14  34  14
M  END
>  <minimizedAffinity>  (1) 
-5.37566614

>  <minimizedRMSD>  (1) 
1.80077541

$$$$
