
     RDKit          3D

 33 35  0  0  0  0  0  0  0  0999 V2000
   46.1950   32.2030   47.2370 C   0  0  0  0  0  0  0  0  0  0  0  0
   47.3940   32.4160   47.9110 C   0  0  0  0  0  0  0  0  0  0  0  0
   48.1550   31.3420   48.3690 C   0  0  0  0  0  0  0  0  0  0  0  0
   47.7180   30.0440   48.1530 C   0  0  0  0  0  0  0  0  0  0  0  0
   46.5300   29.8740   47.4830 C   0  0  0  0  0  0  0  0  0  0  0  0
   45.8150   30.9220   47.0540 N   0  0  0  0  0  0  0  0  0  0  0  0
   46.0760   28.5450   47.2580 N   0  0  0  0  0  0  0  0  0  0  0  0
   46.8590   27.3350   47.3870 C   0  0  0  0  0  0  0  0  0  0  0  0
   45.8890   26.2670   47.8790 C   0  0  0  0  0  0  0  0  0  0  0  0
   44.5440   26.9870   47.9100 C   0  0  0  0  0  0  0  0  0  0  0  0
   44.7680   28.0640   46.8600 C   0  0  0  0  0  0  0  0  0  0  0  0
   45.4370   33.3530   46.7800 C   0  0  0  0  0  0  0  0  0  0  0  0
   44.5740   33.8040   47.5910 O   0  0  0  0  0  0  0  0  0  0  0  0
   45.1250   35.4670   43.8060 C   0  0  0  0  0  0  0  0  0  0  0  0
   46.1620   35.0010   42.9720 C   0  0  0  0  0  0  0  0  0  0  0  0
   46.9360   33.9620   43.4770 C   0  0  0  0  0  0  0  0  0  0  0  0
   46.6730   33.4530   44.7130 N   0  0  0  0  0  0  0  0  0  0  0  0
   45.6700   33.9320   45.4750 C   0  0  0  0  0  0  0  0  0  0  0  0
   44.9050   34.9290   45.0240 N   0  0  0  0  0  0  0  0  0  0  0  0
   47.7450   33.4440   48.0842 H   0  0  0  0  0  0  0  0  0  0  0  0
   49.1006   31.5238   48.9009 H   0  0  0  0  0  0  0  0  0  0  0  0
   48.3015   29.1807   48.5054 H   0  0  0  0  0  0  0  0  0  0  0  0
   47.2845   27.0479   46.4141 H   0  0  0  0  0  0  0  0  0  0  0  0
   47.7020   27.4688   48.0809 H   0  0  0  0  0  0  0  0  0  0  0  0
   45.8610   25.4132   47.1860 H   0  0  0  0  0  0  0  0  0  0  0  0
   46.1728   25.8513   48.8571 H   0  0  0  0  0  0  0  0  0  0  0  0
   43.7194   26.3150   47.6300 H   0  0  0  0  0  0  0  0  0  0  0  0
   44.2577   27.3712   48.9002 H   0  0  0  0  0  0  0  0  0  0  0  0
   44.0072   28.8561   46.9207 H   0  0  0  0  0  0  0  0  0  0  0  0
   44.7032   27.7133   45.8194 H   0  0  0  0  0  0  0  0  0  0  0  0
   44.4810   36.2873   43.4561 H   0  0  0  0  0  0  0  0  0  0  0  0
   46.3481   35.4347   41.9784 H   0  0  0  0  0  0  0  0  0  0  0  0
   47.7616   33.5506   42.8778 H   0  0  0  0  0  0  0  0  0  0  0  0
  1  2  2  0
  2  3  1  0
  4  3  2  0
  5  4  1  0
  6  1  1  0
  6  5  2  0
  7  8  1  0
  7  5  1  0
  8  9  1  0
  9 10  1  0
 11  7  1  0
 11 10  1  0
 12  1  1  0
 12 13  2  0
 14 19  2  0
 15 16  2  0
 15 14  1  0
 16 17  1  0
 17 18  2  0
 18 12  1  0
 19 18  1  0
  2 20  1  0
  3 21  1  0
  4 22  1  0
  8 23  1  0
  8 24  1  0
  9 25  1  0
  9 26  1  0
 10 27  1  0
 10 28  1  0
 11 29  1  0
 11 30  1  0
 14 31  1  0
 15 32  1  0
 16 33  1  0
M  ISO  8  20  14  21  14  22  14  23  13  24  13  25  13  26  13  27  13
M  ISO  6  28  13  29  13  30  13  31  14  32  14  33  14
M  END
>  <minimizedAffinity>  (1) 
-5.07975292

>  <minimizedRMSD>  (1) 
0.416876167

$$$$
