
     RDKit          3D

 23 24  0  0  0  0  0  0  0  0999 V2000
   46.8890   34.6620   41.6730 C   0  0  0  0  0  0  0  0  0  0  0  0
   44.6140   36.0240   44.4110 C   0  0  0  0  0  0  0  0  0  0  0  0
   45.2830   35.9300   43.1770 C   0  0  0  0  0  0  0  0  0  0  0  0
   46.1290   34.8550   42.9510 C   0  0  0  0  0  0  0  0  0  0  0  0
   46.2800   33.9150   43.9570 N   0  0  0  0  0  0  0  0  0  0  0  0
   45.6190   34.0530   45.1160 C   0  0  0  0  0  0  0  0  0  0  0  0
   44.8040   35.0790   45.3450 N   0  0  0  0  0  0  0  0  0  0  0  0
   48.2070   35.4430   41.7480 C   0  0  0  0  0  0  0  0  0  0  0  0
   49.2840   34.4620   41.9380 C   0  0  0  0  0  0  0  0  0  0  0  0
   49.3560   33.1450   41.4710 C   0  0  0  0  0  0  0  0  0  0  0  0
   50.5440   32.5630   41.8730 C   0  0  0  0  0  0  0  0  0  0  0  0
   51.1690   33.5280   42.5710 N   0  0  0  0  0  0  0  0  0  0  0  0
   50.4300   34.6270   42.6050 N   0  0  0  0  0  0  0  0  0  0  0  0
   46.2892   35.0324   40.8286 H   0  0  0  0  0  0  0  0  0  0  0  0
   47.1006   33.5925   41.5264 H   0  0  0  0  0  0  0  0  0  0  0  0
   43.9379   36.8686   44.6096 H   0  0  0  0  0  0  0  0  0  0  0  0
   45.1371   36.6979   42.4030 H   0  0  0  0  0  0  0  0  0  0  0  0
   45.7551   33.2946   45.9010 H   0  0  0  0  0  0  0  0  0  0  0  0
   48.3672   36.0022   40.8144 H   0  0  0  0  0  0  0  0  0  0  0  0
   48.1860   36.1649   42.5777 H   0  0  0  0  0  0  0  0  0  0  0  0
   48.5806   32.6456   40.8715 H   0  0  0  0  0  0  0  0  0  0  0  0
   50.8979   31.5418   41.6683 H   0  0  0  0  0  0  0  0  0  0  0  0
   52.0922   33.4268   43.0164 H   0  0  0  0  0  0  0  0  0  0  0  0
  1  8  1  0
  1  4  1  0
  2  7  2  0
  3  2  1  0
  4  3  2  0
  4  5  1  0
  5  6  2  0
  6  7  1  0
  8  9  1  0
  9 13  2  0
 10 11  2  0
 10  9  1  0
 11 12  1  0
 12 13  1  0
  1 14  1  0
  1 15  1  0
  2 16  1  0
  3 17  1  0
  6 18  1  0
  8 19  1  0
  8 20  1  0
 10 21  1  0
 11 22  1  0
 12 23  1  0
M  ISO  8  14   8  15   8  16  14  17  14  18  14  19   8  20   8  21  14
M  ISO  2  22  14  23   9
M  END
>  <minimizedAffinity>  (1) 
-4.77687407

>  <minimizedRMSD>  (1) 
1.28223884

$$$$
