
     RDKit          3D

 28 30  0  0  0  0  0  0  0  0999 V2000
   45.9100   32.3760   47.0290 C   0  0  0  0  0  0  0  0  0  0  0  0
   47.1440   32.4170   47.6610 C   0  0  0  0  0  0  0  0  0  0  0  0
   47.7230   31.2640   48.1740 C   0  0  0  0  0  0  0  0  0  0  0  0
   47.0480   30.0380   48.0520 C   0  0  0  0  0  0  0  0  0  0  0  0
   45.8300   30.0430   47.4190 C   0  0  0  0  0  0  0  0  0  0  0  0
   45.3100   31.1710   46.9400 N   0  0  0  0  0  0  0  0  0  0  0  0
   45.1140   28.8100   47.2760 C   0  0  0  0  0  0  0  0  0  0  0  0
   45.0560   27.6730   47.9870 C   0  0  0  0  0  0  0  0  0  0  0  0
   44.2690   26.6210   47.6190 C   0  0  0  0  0  0  0  0  0  0  0  0
   43.5120   26.8280   46.4150 C   0  0  0  0  0  0  0  0  0  0  0  0
   44.0030   28.5450   45.9060 S   0  0  0  0  0  0  0  0  0  0  0  0
   45.3440   33.6100   46.5070 C   0  0  0  0  0  0  0  0  0  0  0  0
   44.5470   34.2230   47.2640 O   0  0  0  0  0  0  0  0  0  0  0  0
   45.3220   35.5020   43.3630 C   0  0  0  0  0  0  0  0  0  0  0  0
   46.4070   34.9610   42.6510 C   0  0  0  0  0  0  0  0  0  0  0  0
   47.1140   33.9520   43.2930 C   0  0  0  0  0  0  0  0  0  0  0  0
   46.7330   33.5460   44.5430 N   0  0  0  0  0  0  0  0  0  0  0  0
   45.6960   34.0870   45.1810 C   0  0  0  0  0  0  0  0  0  0  0  0
   44.9970   35.0580   44.5930 N   0  0  0  0  0  0  0  0  0  0  0  0
   47.6718   33.3773   47.7572 H   0  0  0  0  0  0  0  0  0  0  0  0
   48.7027   31.3101   48.6721 H   0  0  0  0  0  0  0  0  0  0  0  0
   47.4799   29.1077   48.4494 H   0  0  0  0  0  0  0  0  0  0  0  0
   45.6648   27.5863   48.8991 H   0  0  0  0  0  0  0  0  0  0  0  0
   44.2179   25.6874   48.1985 H   0  0  0  0  0  0  0  0  0  0  0  0
   42.8137   26.1390   45.9175 H   0  0  0  0  0  0  0  0  0  0  0  0
   44.7254   36.3053   42.9060 H   0  0  0  0  0  0  0  0  0  0  0  0
   46.6797   35.3154   41.6460 H   0  0  0  0  0  0  0  0  0  0  0  0
   47.9765   33.4814   42.7985 H   0  0  0  0  0  0  0  0  0  0  0  0
  1  2  2  0
  2  3  1  0
  4  3  2  0
  5  4  1  0
  6  1  1  0
  6  5  2  0
  7  5  1  0
  7  8  2  0
  9  8  1  0
 10  9  2  0
 11 10  1  0
 11  7  1  0
 12  1  1  0
 12 13  2  0
 14 19  2  0
 15 16  2  0
 15 14  1  0
 16 17  1  0
 17 18  2  0
 18 12  1  0
 19 18  1  0
  2 20  1  0
  3 21  1  0
  4 22  1  0
  8 23  1  0
  9 24  1  0
 10 25  1  0
 14 26  1  0
 15 27  1  0
 16 28  1  0
M  ISO  8  20  14  21  14  22  14  23  14  24  14  25  14  26  14  27  14
M  ISO  1  28  14
M  END
>  <minimizedAffinity>  (1) 
-4.83157969

>  <minimizedRMSD>  (1) 
1.07467496

$$$$
