
     RDKit          3D

 24 25  0  0  0  0  0  0  0  0999 V2000
   46.2800   32.2080   47.3210 C   0  0  0  0  0  0  0  0  0  0  0  0
   47.4520   32.4870   47.9970 C   0  0  0  0  0  0  0  0  0  0  0  0
   48.2380   31.4370   48.4890 C   0  0  0  0  0  0  0  0  0  0  0  0
   47.8500   30.1200   48.3030 C   0  0  0  0  0  0  0  0  0  0  0  0
   46.6760   29.8910   47.6260 C   0  0  0  0  0  0  0  0  0  0  0  0
   45.9510   30.9110   47.1690 N   0  0  0  0  0  0  0  0  0  0  0  0
   45.4780   33.3150   46.8160 C   0  0  0  0  0  0  0  0  0  0  0  0
   44.5850   33.7440   47.5810 O   0  0  0  0  0  0  0  0  0  0  0  0
   45.1800   35.3750   43.7910 C   0  0  0  0  0  0  0  0  0  0  0  0
   46.2210   34.8980   42.9830 C   0  0  0  0  0  0  0  0  0  0  0  0
   47.0020   33.8720   43.5050 C   0  0  0  0  0  0  0  0  0  0  0  0
   46.7280   33.3870   44.7530 N   0  0  0  0  0  0  0  0  0  0  0  0
   45.7230   33.8700   45.4960 C   0  0  0  0  0  0  0  0  0  0  0  0
   44.9640   34.8540   45.0090 N   0  0  0  0  0  0  0  0  0  0  0  0
   46.1150   28.5750   47.3400 C   0  0  0  0  0  0  0  0  0  0  0  0
   46.1760   27.9580   46.2440 O   0  0  0  0  0  0  0  0  0  0  0  0
   45.4190   27.8270   48.3070 O   0  0  0  0  0  0  0  0  0  0  0  0
   47.7669   33.5300   48.1484 H   0  0  0  0  0  0  0  0  0  0  0  0
   49.1709   31.6599   49.0274 H   0  0  0  0  0  0  0  0  0  0  0  0
   48.4598   29.2874   48.6836 H   0  0  0  0  0  0  0  0  0  0  0  0
   44.5330   36.1850   43.4231 H   0  0  0  0  0  0  0  0  0  0  0  0
   46.4115   35.3152   41.9832 H   0  0  0  0  0  0  0  0  0  0  0  0
   47.8334   33.4544   42.9181 H   0  0  0  0  0  0  0  0  0  0  0  0
   45.0525   26.9371   48.0750 H   0  0  0  0  0  0  0  0  0  0  0  0
  1  2  2  0
  2  3  1  0
  4  3  2  0
  5  4  1  0
  6  1  1  0
  6  5  2  0
  7  1  1  0
  7  8  2  0
  9 14  2  0
 10 11  2  0
 10  9  1  0
 11 12  1  0
 12 13  2  0
 13  7  1  0
 14 13  1  0
 15  5  1  0
 15 17  1  0
 16 15  2  0
  2 18  1  0
  3 19  1  0
  4 20  1  0
  9 21  1  0
 10 22  1  0
 11 23  1  0
 17 24  1  0
M  ISO  7  18  14  19  14  20  14  21  14  22  14  23  14  24   3
M  END
>  <minimizedAffinity>  (1) 
-4.56465244

>  <minimizedRMSD>  (1) 
0.386805952

$$$$
