
     RDKit          3D

 40 44  0  0  0  0  0  0  0  0999 V2000
   45.3600   35.6460   43.1370 C   0  0  0  0  0  0  0  0  0  0  0  0
   46.3280   34.9810   42.3800 C   0  0  0  0  0  0  0  0  0  0  0  0
   46.9520   33.8940   42.9840 C   0  0  0  0  0  0  0  0  0  0  0  0
   46.5870   33.5480   44.2630 N   0  0  0  0  0  0  0  0  0  0  0  0
   45.6520   34.2140   44.9550 C   0  0  0  0  0  0  0  0  0  0  0  0
   45.0560   35.2480   44.3850 N   0  0  0  0  0  0  0  0  0  0  0  0
   47.9680   33.0860   42.3720 N   0  0  0  0  0  0  0  0  0  0  0  0
   48.8290   32.1780   42.8680 C   0  0  0  0  0  0  0  0  0  0  0  0
   49.5960   31.6830   41.8810 N   0  0  0  0  0  0  0  0  0  0  0  0
   49.2120   32.2900   40.7340 C   0  0  0  0  0  0  0  0  0  0  0  0
   49.7170   32.1010   39.4580 C   0  0  0  0  0  0  0  0  0  0  0  0
   50.6330   31.2960   39.2470 O   0  0  0  0  0  0  0  0  0  0  0  0
   49.2080   32.7960   38.4370 N   0  0  0  0  0  0  0  0  0  0  0  0
   48.2140   33.6530   38.7430 C   0  0  0  0  0  0  0  0  0  0  0  0
   47.6650   34.3990   37.6620 N   0  0  0  0  0  0  0  0  0  0  0  0
   47.7050   33.8530   39.9860 N   0  0  0  0  0  0  0  0  0  0  0  0
   48.1940   33.1670   41.0420 C   0  0  0  0  0  0  0  0  0  0  0  0
   45.3400   33.7780   46.2790 C   0  0  0  0  0  0  0  0  0  0  0  0
   44.5000   34.3970   47.0180 O   0  0  0  0  0  0  0  0  0  0  0  0
   45.9590   32.5990   46.8790 C   0  0  0  0  0  0  0  0  0  0  0  0
   47.1620   32.7480   47.5530 C   0  0  0  0  0  0  0  0  0  0  0  0
   47.7490   31.6100   48.1250 C   0  0  0  0  0  0  0  0  0  0  0  0
   47.1490   30.3680   48.0200 C   0  0  0  0  0  0  0  0  0  0  0  0
   45.9660   30.2650   47.3470 C   0  0  0  0  0  0  0  0  0  0  0  0
   45.4210   31.3720   46.8070 N   0  0  0  0  0  0  0  0  0  0  0  0
   45.2470   29.0110   47.1720 C   0  0  0  0  0  0  0  0  0  0  0  0
   44.2280   28.8760   46.3030 N   0  0  0  0  0  0  0  0  0  0  0  0
   43.7890   27.6590   46.3630 O   0  0  0  0  0  0  0  0  0  0  0  0
   44.4610   26.9470   47.2390 C   0  0  0  0  0  0  0  0  0  0  0  0
   45.3900   27.7820   47.7640 N   0  0  0  0  0  0  0  0  0  0  0  0
   44.8368   36.5113   42.7040 H   0  0  0  0  0  0  0  0  0  0  0  0
   46.5836   35.3005   41.3589 H   0  0  0  0  0  0  0  0  0  0  0  0
   48.8954   31.8840   43.9259 H   0  0  0  0  0  0  0  0  0  0  0  0
   49.5545   32.6836   37.4736 H   0  0  0  0  0  0  0  0  0  0  0  0
   46.9027   35.0699   37.8340 H   0  0  0  0  0  0  0  0  0  0  0  0
   48.0301   34.2678   36.7079 H   0  0  0  0  0  0  0  0  0  0  0  0
   47.6434   33.7335   47.6368 H   0  0  0  0  0  0  0  0  0  0  0  0
   48.7019   31.7066   48.6659 H   0  0  0  0  0  0  0  0  0  0  0  0
   47.6165   29.4800   48.4704 H   0  0  0  0  0  0  0  0  0  0  0  0
   44.3019   25.8889   47.4942 H   0  0  0  0  0  0  0  0  0  0  0  0
  1  6  2  0
  2  3  2  0
  2  1  1  0
  3  4  1  0
  4  5  2  0
  5 18  1  0
  6  5  1  0
  7  8  1  0
  7  3  1  0
  9  8  2  0
 10 17  2  0
 10  9  1  0
 11 10  1  0
 12 11  2  0
 13 14  1  0
 13 11  1  0
 14 16  2  0
 15 14  1  0
 16 17  1  0
 17  7  1  0
 18 20  1  0
 18 19  2  0
 20 21  2  0
 21 22  1  0
 23 22  2  0
 24 23  1  0
 25 20  1  0
 25 24  2  0
 26 24  1  0
 26 30  1  0
 27 28  1  0
 27 26  2  0
 28 29  1  0
 29 30  2  0
  1 31  1  0
  2 32  1  0
  8 33  1  0
 13 34  1  0
 15 35  1  0
 15 36  1  0
 21 37  1  0
 22 38  1  0
 23 39  1  0
 29 40  1  0
M  ISO  8  31  14  32  14  33  14  34   9  37  14  38  14  39  14  40  14
M  END
>  <minimizedAffinity>  (1) 
-6.54123926

>  <minimizedRMSD>  (1) 
0.782587767

$$$$
