
     RDKit          3D

 23 24  0  0  0  0  0  0  0  0999 V2000
   46.1990   32.2130   47.2060 C   0  0  0  0  0  0  0  0  0  0  0  0
   47.3870   32.4340   47.8910 C   0  0  0  0  0  0  0  0  0  0  0  0
   48.1120   31.3240   48.3680 C   0  0  0  0  0  0  0  0  0  0  0  0
   47.6400   30.0290   48.1530 C   0  0  0  0  0  0  0  0  0  0  0  0
   46.4580   29.8710   47.4690 C   0  0  0  0  0  0  0  0  0  0  0  0
   45.7970   30.9400   47.0310 N   0  0  0  0  0  0  0  0  0  0  0  0
   45.9530   28.5220   47.2370 C   0  0  0  0  0  0  0  0  0  0  0  0
   45.0130   28.0520   47.9180 O   0  0  0  0  0  0  0  0  0  0  0  0
   45.4620   33.3730   46.7190 C   0  0  0  0  0  0  0  0  0  0  0  0
   44.6040   33.8580   47.4990 O   0  0  0  0  0  0  0  0  0  0  0  0
   45.2190   35.4050   43.6670 C   0  0  0  0  0  0  0  0  0  0  0  0
   46.2730   34.9230   42.8800 C   0  0  0  0  0  0  0  0  0  0  0  0
   47.0380   33.9100   43.4270 C   0  0  0  0  0  0  0  0  0  0  0  0
   46.7520   33.4290   44.6720 N   0  0  0  0  0  0  0  0  0  0  0  0
   45.7230   33.9230   45.3980 C   0  0  0  0  0  0  0  0  0  0  0  0
   44.9670   34.9000   44.8990 N   0  0  0  0  0  0  0  0  0  0  0  0
   47.7551   33.4570   48.0580 H   0  0  0  0  0  0  0  0  0  0  0  0
   49.0550   31.4794   48.9127 H   0  0  0  0  0  0  0  0  0  0  0  0
   48.1994   29.1564   48.5214 H   0  0  0  0  0  0  0  0  0  0  0  0
   46.4073   27.9051   46.4477 H   0  0  0  0  0  0  0  0  0  0  0  0
   44.5815   36.2117   43.2760 H   0  0  0  0  0  0  0  0  0  0  0  0
   46.4809   35.3294   41.8792 H   0  0  0  0  0  0  0  0  0  0  0  0
   47.8800   33.4901   42.8572 H   0  0  0  0  0  0  0  0  0  0  0  0
  1  2  2  0
  2  3  1  0
  4  3  2  0
  5  4  1  0
  6  1  1  0
  6  5  2  0
  7  5  1  0
  7  8  2  0
  9  1  1  0
  9 10  2  0
 11 16  2  0
 12 13  2  0
 12 11  1  0
 13 14  1  0
 14 15  2  0
 15  9  1  0
 16 15  1  0
  2 17  1  0
  3 18  1  0
  4 19  1  0
  7 20  1  0
 11 21  1  0
 12 22  1  0
 13 23  1  0
M  ISO  7  17  14  18  14  19  14  20   6  21  14  22  14  23  14
M  END
>  <minimizedAffinity>  (1) 
-4.32358599

>  <minimizedRMSD>  (1) 
0.37576884

$$$$
