
     RDKit          3D

 32 33  0  0  0  0  0  0  0  0999 V2000
   46.5790   34.4160   42.0590 C   0  0  0  0  0  0  0  0  0  0  0  0
   44.4700   35.9290   44.8380 C   0  0  0  0  0  0  0  0  0  0  0  0
   45.0500   35.7980   43.5790 C   0  0  0  0  0  0  0  0  0  0  0  0
   45.8840   34.6850   43.3740 C   0  0  0  0  0  0  0  0  0  0  0  0
   46.0800   33.7970   44.4080 N   0  0  0  0  0  0  0  0  0  0  0  0
   45.4870   33.9860   45.6060 C   0  0  0  0  0  0  0  0  0  0  0  0
   44.6920   35.0410   45.8090 N   0  0  0  0  0  0  0  0  0  0  0  0
   47.7650   35.3590   41.9130 C   0  0  0  0  0  0  0  0  0  0  0  0
   48.9260   34.5730   41.3570 C   0  0  0  0  0  0  0  0  0  0  0  0
   50.0850   34.5500   42.3000 C   0  0  0  0  0  0  0  0  0  0  0  0
   50.5480   33.1460   42.6170 C   0  0  0  0  0  0  0  0  0  0  0  0
   50.6420   32.2470   41.4290 C   0  0  0  0  0  0  0  0  0  0  0  0
   49.5620   32.4390   40.4060 C   0  0  0  0  0  0  0  0  0  0  0  0
   48.4080   33.1580   41.0780 C   0  0  0  0  0  0  0  0  0  0  0  0
   46.9329   33.3747   42.0370 H   0  0  0  0  0  0  0  0  0  0  0  0
   45.8745   34.5799   41.2303 H   0  0  0  0  0  0  0  0  0  0  0  0
   43.8114   36.7872   45.0375 H   0  0  0  0  0  0  0  0  0  0  0  0
   44.8641   36.5320   42.7811 H   0  0  0  0  0  0  0  0  0  0  0  0
   45.6593   33.2669   46.4204 H   0  0  0  0  0  0  0  0  0  0  0  0
   47.5069   36.1784   41.2260 H   0  0  0  0  0  0  0  0  0  0  0  0
   48.0306   35.7897   42.8897 H   0  0  0  0  0  0  0  0  0  0  0  0
   49.3003   35.0435   40.4358 H   0  0  0  0  0  0  0  0  0  0  0  0
   50.9205   35.1023   41.8451 H   0  0  0  0  0  0  0  0  0  0  0  0
   49.7576   35.0139   43.2421 H   0  0  0  0  0  0  0  0  0  0  0  0
   51.5432   33.2081   43.0816 H   0  0  0  0  0  0  0  0  0  0  0  0
   49.7911   32.7080   43.2843 H   0  0  0  0  0  0  0  0  0  0  0  0
   51.6113   32.4260   40.9406 H   0  0  0  0  0  0  0  0  0  0  0  0
   50.5292   31.2207   41.8085 H   0  0  0  0  0  0  0  0  0  0  0  0
   49.2254   31.4618   40.0295 H   0  0  0  0  0  0  0  0  0  0  0  0
   49.9384   33.0276   39.5564 H   0  0  0  0  0  0  0  0  0  0  0  0
   47.5335   33.1915   40.4116 H   0  0  0  0  0  0  0  0  0  0  0  0
   48.0854   32.6488   41.9981 H   0  0  0  0  0  0  0  0  0  0  0  0
  1  4  1  0
  2  7  2  0
  3  2  1  0
  4  3  2  0
  4  5  1  0
  5  6  2  0
  6  7  1  0
  8  1  1  0
  9  8  1  0
  9 10  1  0
 10 11  1  0
 12 11  1  0
 13 14  1  0
 13 12  1  0
 14  9  1  0
  1 15  1  0
  1 16  1  0
  2 17  1  0
  3 18  1  0
  6 19  1  0
  8 20  1  0
  8 21  1  0
  9 22  1  0
 10 23  1  0
 10 24  1  0
 11 25  1  0
 11 26  1  0
 12 27  1  0
 12 28  1  0
 13 29  1  0
 13 30  1  0
 14 31  1  0
 14 32  1  0
M  ISO  8  15   8  16   8  17  14  18  14  19  14  20   8  21   8  22  13
M  ISO  8  23  13  24  13  25  13  26  13  27  13  28  13  29  13  30  13
M  ISO  2  31  13  32  13
M  END
>  <minimizedAffinity>  (1) 
-4.5586195

>  <minimizedRMSD>  (1) 
2.6820538

$$$$
