
     RDKit          3D

 39 43  0  0  0  0  0  0  0  0999 V2000
   45.1570   35.1110   43.1590 C   0  0  0  0  0  0  0  0  0  0  0  0
   46.4190   34.8730   42.5890 C   0  0  0  0  0  0  0  0  0  0  0  0
   47.3290   34.1650   43.3700 C   0  0  0  0  0  0  0  0  0  0  0  0
   46.9570   33.7510   44.6170 N   0  0  0  0  0  0  0  0  0  0  0  0
   45.7430   33.9960   45.1290 C   0  0  0  0  0  0  0  0  0  0  0  0
   44.8590   34.6720   44.3970 N   0  0  0  0  0  0  0  0  0  0  0  0
   48.6190   33.9030   42.8290 N   0  0  0  0  0  0  0  0  0  0  0  0
   49.6540   34.7680   42.8750 C   0  0  0  0  0  0  0  0  0  0  0  0
   50.6970   34.1740   42.2660 N   0  0  0  0  0  0  0  0  0  0  0  0
   50.3290   32.9660   41.8490 C   0  0  0  0  0  0  0  0  0  0  0  0
   50.9080   31.9040   41.1850 C   0  0  0  0  0  0  0  0  0  0  0  0
   50.2350   30.7720   40.9000 N   0  0  0  0  0  0  0  0  0  0  0  0
   48.9280   30.6270   41.2670 C   0  0  0  0  0  0  0  0  0  0  0  0
   48.3390   31.6440   41.9130 N   0  0  0  0  0  0  0  0  0  0  0  0
   49.0070   32.7690   42.1950 C   0  0  0  0  0  0  0  0  0  0  0  0
   52.2690   32.0220   40.7890 N   0  0  0  0  0  0  0  0  0  0  0  0
   45.4280   33.5280   46.4460 C   0  0  0  0  0  0  0  0  0  0  0  0
   44.5900   34.1120   47.2000 O   0  0  0  0  0  0  0  0  0  0  0  0
   46.0630   32.3280   47.0100 C   0  0  0  0  0  0  0  0  0  0  0  0
   47.2560   32.4700   47.6880 C   0  0  0  0  0  0  0  0  0  0  0  0
   47.8470   31.3230   48.2190 C   0  0  0  0  0  0  0  0  0  0  0  0
   47.2690   30.0640   48.0810 C   0  0  0  0  0  0  0  0  0  0  0  0
   46.0740   29.9810   47.3930 C   0  0  0  0  0  0  0  0  0  0  0  0
   45.5240   31.0970   46.8910 N   0  0  0  0  0  0  0  0  0  0  0  0
   45.3710   28.7250   47.1830 C   0  0  0  0  0  0  0  0  0  0  0  0
   44.2750   28.6400   46.4230 N   0  0  0  0  0  0  0  0  0  0  0  0
   43.8500   27.4140   46.4020 O   0  0  0  0  0  0  0  0  0  0  0  0
   44.6260   26.6430   47.1290 C   0  0  0  0  0  0  0  0  0  0  0  0
   45.5870   27.4590   47.6250 N   0  0  0  0  0  0  0  0  0  0  0  0
   44.3999   35.6650   42.5847 H   0  0  0  0  0  0  0  0  0  0  0  0
   46.6746   35.2271   41.5794 H   0  0  0  0  0  0  0  0  0  0  0  0
   49.6465   35.7712   43.3260 H   0  0  0  0  0  0  0  0  0  0  0  0
   48.3747   29.7038   41.0397 H   0  0  0  0  0  0  0  0  0  0  0  0
   52.7297   31.2466   40.2917 H   0  0  0  0  0  0  0  0  0  0  0  0
   52.7938   32.8829   40.9996 H   0  0  0  0  0  0  0  0  0  0  0  0
   47.7268   33.4571   47.8064 H   0  0  0  0  0  0  0  0  0  0  0  0
   48.7984   31.4163   48.7631 H   0  0  0  0  0  0  0  0  0  0  0  0
   47.7465   29.1680   48.5044 H   0  0  0  0  0  0  0  0  0  0  0  0
   44.5182   25.5616   47.2994 H   0  0  0  0  0  0  0  0  0  0  0  0
  1  6  2  0
  2  1  1  0
  2  3  2  0
  3  4  1  0
  4  5  2  0
  5 17  1  0
  6  5  1  0
  7  8  1  0
  7  3  1  0
  9  8  2  0
 10 15  2  0
 10  9  1  0
 11 10  1  0
 12 11  2  0
 12 13  1  0
 13 14  2  0
 14 15  1  0
 15  7  1  0
 16 11  1  0
 17 19  1  0
 17 18  2  0
 19 20  2  0
 20 21  1  0
 22 21  2  0
 23 22  1  0
 24 19  1  0
 24 23  2  0
 25 23  1  0
 25 29  1  0
 26 25  2  0
 27 26  1  0
 27 28  1  0
 28 29  2  0
  1 30  1  0
  2 31  1  0
  8 32  1  0
 13 33  1  0
 16 34  1  0
 16 35  1  0
 20 36  1  0
 21 37  1  0
 22 38  1  0
 28 39  1  0
M  ISO  8  30  14  31  14  32  14  33  14  36  14  37  14  38  14  39  14
M  END
>  <minimizedAffinity>  (1) 
-6.49317837

>  <minimizedRMSD>  (1) 
1.23950505

$$$$
