
     RDKit          3D

 37 40  0  0  0  0  0  0  0  0999 V2000
   45.0300   35.2990   43.2810 C   0  0  0  0  0  0  0  0  0  0  0  0
   46.2360   35.0090   42.6180 C   0  0  0  0  0  0  0  0  0  0  0  0
   47.1400   34.2130   43.3170 C   0  0  0  0  0  0  0  0  0  0  0  0
   46.8180   33.7730   44.5630 N   0  0  0  0  0  0  0  0  0  0  0  0
   45.6550   34.0740   45.1600 C   0  0  0  0  0  0  0  0  0  0  0  0
   44.7660   34.8350   44.5180 N   0  0  0  0  0  0  0  0  0  0  0  0
   48.3970   33.8180   42.8160 N   0  0  0  0  0  0  0  0  0  0  0  0
   49.5790   34.4550   42.8890 C   0  0  0  0  0  0  0  0  0  0  0  0
   50.7170   33.9120   42.3360 C   0  0  0  0  0  0  0  0  0  0  0  0
   50.7030   32.6910   41.6810 C   0  0  0  0  0  0  0  0  0  0  0  0
   51.9430   32.2310   41.1490 N   0  0  0  0  0  0  0  0  0  0  0  0
   49.5140   32.0730   41.6200 N   0  0  0  0  0  0  0  0  0  0  0  0
   48.4190   32.6200   42.1660 C   0  0  0  0  0  0  0  0  0  0  0  0
   47.3730   31.9300   42.0320 O   0  0  0  0  0  0  0  0  0  0  0  0
   45.3890   33.5640   46.4910 C   0  0  0  0  0  0  0  0  0  0  0  0
   44.5730   34.1300   47.2870 O   0  0  0  0  0  0  0  0  0  0  0  0
   46.0500   32.3650   46.9950 C   0  0  0  0  0  0  0  0  0  0  0  0
   47.2660   32.4950   47.6370 C   0  0  0  0  0  0  0  0  0  0  0  0
   47.9080   31.3480   48.1240 C   0  0  0  0  0  0  0  0  0  0  0  0
   47.3280   30.1010   47.9610 C   0  0  0  0  0  0  0  0  0  0  0  0
   46.1220   30.0190   47.3180 C   0  0  0  0  0  0  0  0  0  0  0  0
   45.5330   31.1320   46.8650 N   0  0  0  0  0  0  0  0  0  0  0  0
   45.4270   28.7500   47.0960 C   0  0  0  0  0  0  0  0  0  0  0  0
   44.2770   28.6800   46.4180 N   0  0  0  0  0  0  0  0  0  0  0  0
   43.8660   27.4500   46.3600 O   0  0  0  0  0  0  0  0  0  0  0  0
   44.7160   26.6550   46.9900 C   0  0  0  0  0  0  0  0  0  0  0  0
   45.7100   27.4680   47.4600 N   0  0  0  0  0  0  0  0  0  0  0  0
   44.2796   35.9236   42.7742 H   0  0  0  0  0  0  0  0  0  0  0  0
   46.4521   35.3881   41.6082 H   0  0  0  0  0  0  0  0  0  0  0  0
   49.6378   35.4275   43.3997 H   0  0  0  0  0  0  0  0  0  0  0  0
   51.6652   34.4637   42.4165 H   0  0  0  0  0  0  0  0  0  0  0  0
   51.9878   31.3295   40.6528 H   0  0  0  0  0  0  0  0  0  0  0  0
   52.7942   32.8001   41.2608 H   0  0  0  0  0  0  0  0  0  0  0  0
   47.7250   33.4865   47.7646 H   0  0  0  0  0  0  0  0  0  0  0  0
   48.8764   31.4388   48.6377 H   0  0  0  0  0  0  0  0  0  0  0  0
   47.8255   29.1960   48.3399 H   0  0  0  0  0  0  0  0  0  0  0  0
   44.6388   25.5644   47.1107 H   0  0  0  0  0  0  0  0  0  0  0  0
  1  6  2  0
  2  1  1  0
  2  3  2  0
  3  4  1  0
  4  5  2  0
  5 15  1  0
  6  5  1  0
  7  8  1  0
  7  3  1  0
  9  8  2  0
 10  9  1  0
 11 10  1  0
 12 10  2  0
 12 13  1  0
 13  7  1  0
 14 13  2  0
 15 17  1  0
 15 16  2  0
 17 18  2  0
 18 19  1  0
 20 19  2  0
 21 20  1  0
 22 17  1  0
 22 21  2  0
 23 21  1  0
 23 27  1  0
 24 23  2  0
 25 24  1  0
 25 26  1  0
 26 27  2  0
  1 28  1  0
  2 29  1  0
  8 30  1  0
  9 31  1  0
 11 32  1  0
 11 33  1  0
 18 34  1  0
 19 35  1  0
 20 36  1  0
 26 37  1  0
M  ISO  8  28  14  29  14  30  14  31  14  34  14  35  14  36  14  37  14
M  END
>  <minimizedAffinity>  (1) 
-6.34723377

>  <minimizedRMSD>  (1) 
0.678119421

$$$$
