
     RDKit          3D

 23 23  0  0  0  0  0  0  0  0999 V2000
   46.7420   34.7300   41.7040 C   0  0  0  0  0  0  0  0  0  0  0  0
   44.5370   36.0390   44.5270 C   0  0  0  0  0  0  0  0  0  0  0  0
   45.1650   35.9720   43.2590 C   0  0  0  0  0  0  0  0  0  0  0  0
   46.0270   34.9190   43.0010 C   0  0  0  0  0  0  0  0  0  0  0  0
   46.2380   33.9760   43.9960 N   0  0  0  0  0  0  0  0  0  0  0  0
   45.6250   34.0730   45.1870 C   0  0  0  0  0  0  0  0  0  0  0  0
   44.7800   35.0930   45.4570 N   0  0  0  0  0  0  0  0  0  0  0  0
   48.1210   35.3590   41.7810 C   0  0  0  0  0  0  0  0  0  0  0  0
   49.0310   34.5570   42.5480 N   0  0  0  0  0  0  0  0  0  0  0  0
   49.9720   33.6780   41.9720 C   0  0  0  0  0  0  0  0  0  0  0  0
   49.6990   33.1300   40.8430 N   0  0  0  0  0  0  0  0  0  0  0  0
   51.1840   33.4570   42.6960 N   0  0  0  0  0  0  0  0  0  0  0  0
   50.3410   32.4690   40.3520 H   0  0  0  0  0  0  0  0  0  0  0  0
   46.1672   35.2079   40.8970 H   0  0  0  0  0  0  0  0  0  0  0  0
   46.8444   33.6541   41.4990 H   0  0  0  0  0  0  0  0  0  0  0  0
   43.8483   36.8661   44.7540 H   0  0  0  0  0  0  0  0  0  0  0  0
   44.9722   36.7400   42.4954 H   0  0  0  0  0  0  0  0  0  0  0  0
   45.8138   33.3094   45.9559 H   0  0  0  0  0  0  0  0  0  0  0  0
   48.5183   35.4717   40.7615 H   0  0  0  0  0  0  0  0  0  0  0  0
   48.0239   36.3355   42.2779 H   0  0  0  0  0  0  0  0  0  0  0  0
   48.9951   34.6270   43.5750 H   0  0  0  0  0  0  0  0  0  0  0  0
   51.9023   32.8236   42.3167 H   0  0  0  0  0  0  0  0  0  0  0  0
   51.3394   33.9311   43.5971 H   0  0  0  0  0  0  0  0  0  0  0  0
  1  8  1  0
  1  4  1  0
  2  7  2  0
  3  2  1  0
  4  3  2  0
  4  5  1  0
  5  6  2  0
  6  7  1  0
  8  9  1  0
 10  9  1  0
 10 12  1  0
 11 10  2  0
 13 11  1  0
  1 14  1  0
  1 15  1  0
  2 16  1  0
  3 17  1  0
  6 18  1  0
  8 19  1  0
  8 20  1  0
  9 21  1  0
 12 22  1  0
 12 23  1  0
M  ISO  7  14   8  15   8  16  14  17  14  18  14  19   8  20   8
M  END
>  <minimizedAffinity>  (1) 
-4.45487261

>  <minimizedRMSD>  (1) 
2.22134376

$$$$
