
     RDKit          3D

 33 36  0  0  0  0  0  0  0  0999 V2000
   45.3990   33.6100   46.4480 C   0  0  0  0  0  0  0  0  0  0  0  0
   44.5240   34.2270   47.1370 O   0  0  0  0  0  0  0  0  0  0  0  0
   45.9740   32.4220   47.0650 C   0  0  0  0  0  0  0  0  0  0  0  0
   47.1360   32.5450   47.7990 C   0  0  0  0  0  0  0  0  0  0  0  0
   47.6850   31.4000   48.3910 C   0  0  0  0  0  0  0  0  0  0  0  0
   47.0790   30.1580   48.2470 C   0  0  0  0  0  0  0  0  0  0  0  0
   45.9250   30.0840   47.5080 C   0  0  0  0  0  0  0  0  0  0  0  0
   45.4180   31.1970   46.9510 N   0  0  0  0  0  0  0  0  0  0  0  0
   45.2070   28.8400   47.2920 C   0  0  0  0  0  0  0  0  0  0  0  0
   44.2420   28.7160   46.3670 N   0  0  0  0  0  0  0  0  0  0  0  0
   43.7720   27.5030   46.3890 O   0  0  0  0  0  0  0  0  0  0  0  0
   44.3820   26.7890   47.2990 C   0  0  0  0  0  0  0  0  0  0  0  0
   45.2870   27.6110   47.8770 N   0  0  0  0  0  0  0  0  0  0  0  0
   45.4460   35.3060   43.1900 C   0  0  0  0  0  0  0  0  0  0  0  0
   46.6500   34.8690   42.6320 C   0  0  0  0  0  0  0  0  0  0  0  0
   47.3990   34.0090   43.3960 C   0  0  0  0  0  0  0  0  0  0  0  0
   46.9700   33.6170   44.6280 N   0  0  0  0  0  0  0  0  0  0  0  0
   45.7950   34.0620   45.1380 C   0  0  0  0  0  0  0  0  0  0  0  0
   45.0470   34.8960   44.4260 N   0  0  0  0  0  0  0  0  0  0  0  0
   48.6700   33.5050   42.8850 C   0  0  0  0  0  0  0  0  0  0  0  0
   49.8150   34.2410   42.6570 C   0  0  0  0  0  0  0  0  0  0  0  0
   50.7870   33.3890   42.1760 C   0  0  0  0  0  0  0  0  0  0  0  0
   50.1710   32.1410   42.1310 C   0  0  0  0  0  0  0  0  0  0  0  0
   48.9300   32.2760   42.5590 O   0  0  0  0  0  0  0  0  0  0  0  0
   47.6225   33.5245   47.9172 H   0  0  0  0  0  0  0  0  0  0  0  0
   48.6106   31.4857   48.9792 H   0  0  0  0  0  0  0  0  0  0  0  0
   47.5118   29.2599   48.7119 H   0  0  0  0  0  0  0  0  0  0  0  0
   44.1965   25.7330   47.5447 H   0  0  0  0  0  0  0  0  0  0  0  0
   44.8069   35.9957   42.6191 H   0  0  0  0  0  0  0  0  0  0  0  0
   46.9797   35.1962   41.6349 H   0  0  0  0  0  0  0  0  0  0  0  0
   49.9322   35.3211   42.8292 H   0  0  0  0  0  0  0  0  0  0  0  0
   51.8195   33.6396   41.8912 H   0  0  0  0  0  0  0  0  0  0  0  0
   50.6386   31.2034   41.7961 H   0  0  0  0  0  0  0  0  0  0  0  0
  1  3  1  0
  1  2  2  0
  3  4  2  0
  4  5  1  0
  6  5  2  0
  7  6  1  0
  8  3  1  0
  8  7  2  0
  9  7  1  0
  9 13  1  0
 10 11  1  0
 10  9  2  0
 11 12  1  0
 12 13  2  0
 14 19  2  0
 15 14  1  0
 15 16  2  0
 16 17  1  0
 17 18  2  0
 18  1  1  0
 19 18  1  0
 20 16  1  0
 21 20  2  0
 22 21  1  0
 23 22  2  0
 23 24  1  0
 24 20  1  0
  4 25  1  0
  5 26  1  0
  6 27  1  0
 12 28  1  0
 14 29  1  0
 15 30  1  0
 21 31  1  0
 22 32  1  0
 23 33  1  0
M  ISO  8  25  14  26  14  27  14  28  14  29  14  30  14  31  14  32  14
M  ISO  1  33  14
M  END
>  <minimizedAffinity>  (1) 
-5.78111553

>  <minimizedRMSD>  (1) 
0.638844371

$$$$
