
     RDKit          3D

 29 31  0  0  0  0  0  0  0  0999 V2000
   46.2100   32.2530   47.2260 C   0  0  0  0  0  0  0  0  0  0  0  0
   47.4000   32.4720   47.8880 C   0  0  0  0  0  0  0  0  0  0  0  0
   48.1100   31.3720   48.3860 C   0  0  0  0  0  0  0  0  0  0  0  0
   47.6330   30.0830   48.2210 C   0  0  0  0  0  0  0  0  0  0  0  0
   46.4370   29.9080   47.5510 C   0  0  0  0  0  0  0  0  0  0  0  0
   45.7720   30.9850   47.0800 N   0  0  0  0  0  0  0  0  0  0  0  0
   45.8440   28.6030   47.3200 C   0  0  0  0  0  0  0  0  0  0  0  0
   44.5870   28.4550   46.8880 N   0  0  0  0  0  0  0  0  0  0  0  0
   44.3130   27.1960   46.7670 O   0  0  0  0  0  0  0  0  0  0  0  0
   45.3520   26.4530   47.1070 C   0  0  0  0  0  0  0  0  0  0  0  0
   46.3230   27.3260   47.4580 N   0  0  0  0  0  0  0  0  0  0  0  0
   45.4660   33.4070   46.7040 C   0  0  0  0  0  0  0  0  0  0  0  0
   44.5940   33.8850   47.4730 O   0  0  0  0  0  0  0  0  0  0  0  0
   45.2390   35.3780   43.6250 C   0  0  0  0  0  0  0  0  0  0  0  0
   46.3230   34.9170   42.8570 C   0  0  0  0  0  0  0  0  0  0  0  0
   47.0900   33.9390   43.4420 C   0  0  0  0  0  0  0  0  0  0  0  0
   46.7820   33.4720   44.6920 N   0  0  0  0  0  0  0  0  0  0  0  0
   45.7390   33.9360   45.3960 C   0  0  0  0  0  0  0  0  0  0  0  0
   44.9730   34.8850   44.8620 N   0  0  0  0  0  0  0  0  0  0  0  0
   48.2760   33.3620   42.7280 C   0  0  0  0  0  0  0  0  0  0  0  0
   47.7851   33.4935   48.0227 H   0  0  0  0  0  0  0  0  0  0  0  0
   49.0602   31.5348   48.9158 H   0  0  0  0  0  0  0  0  0  0  0  0
   48.1915   29.2202   48.6131 H   0  0  0  0  0  0  0  0  0  0  0  0
   45.4137   25.3547   47.1048 H   0  0  0  0  0  0  0  0  0  0  0  0
   44.5870   36.1614   43.2113 H   0  0  0  0  0  0  0  0  0  0  0  0
   46.5422   35.3132   41.8545 H   0  0  0  0  0  0  0  0  0  0  0  0
   49.0099   33.0049   43.4655 H   0  0  0  0  0  0  0  0  0  0  0  0
   47.9510   32.5213   42.0974 H   0  0  0  0  0  0  0  0  0  0  0  0
   48.7369   34.1366   42.0974 H   0  0  0  0  0  0  0  0  0  0  0  0
  1  2  2  0
  2  3  1  0
  4  3  2  0
  5  4  1  0
  6  1  1  0
  6  5  2  0
  7 11  1  0
  7  5  1  0
  8  7  2  0
  9  8  1  0
  9 10  1  0
 10 11  2  0
 12  1  1  0
 12 13  2  0
 14 19  2  0
 15 16  2  0
 15 14  1  0
 16 17  1  0
 17 18  2  0
 18 12  1  0
 19 18  1  0
 20 16  1  0
  2 21  1  0
  3 22  1  0
  4 23  1  0
 10 24  1  0
 14 25  1  0
 15 26  1  0
 20 27  1  0
 20 28  1  0
 20 29  1  0
M  ISO  8  21  14  22  14  23  14  24  14  25  14  26  14  27   8  28   8
M  ISO  1  29   8
M  END
>  <minimizedAffinity>  (1) 
-4.92737484

>  <minimizedRMSD>  (1) 
0.0435067341

$$$$
