
     RDKit          3D

 33 36  0  0  0  0  0  0  0  0999 V2000
   46.0790   32.3920   46.9830 C   0  0  0  0  0  0  0  0  0  0  0  0
   47.2750   32.5210   47.6460 C   0  0  0  0  0  0  0  0  0  0  0  0
   47.9400   31.3710   48.0770 C   0  0  0  0  0  0  0  0  0  0  0  0
   47.4100   30.1150   47.8440 C   0  0  0  0  0  0  0  0  0  0  0  0
   46.2200   30.0270   47.1830 C   0  0  0  0  0  0  0  0  0  0  0  0
   45.5940   31.1530   46.7770 N   0  0  0  0  0  0  0  0  0  0  0  0
   45.5630   28.7550   46.8820 C   0  0  0  0  0  0  0  0  0  0  0  0
   44.3100   28.6830   46.4230 N   0  0  0  0  0  0  0  0  0  0  0  0
   43.9800   27.4430   46.2420 O   0  0  0  0  0  0  0  0  0  0  0  0
   44.9820   26.6430   46.5680 C   0  0  0  0  0  0  0  0  0  0  0  0
   45.9750   27.4670   46.9690 N   0  0  0  0  0  0  0  0  0  0  0  0
   45.3760   33.6020   46.5290 C   0  0  0  0  0  0  0  0  0  0  0  0
   44.5510   34.0960   47.3560 O   0  0  0  0  0  0  0  0  0  0  0  0
   45.0400   35.6050   43.4780 C   0  0  0  0  0  0  0  0  0  0  0  0
   46.1670   35.2240   42.7250 C   0  0  0  0  0  0  0  0  0  0  0  0
   47.0060   34.2810   43.3080 C   0  0  0  0  0  0  0  0  0  0  0  0
   46.7060   33.7850   44.5420 N   0  0  0  0  0  0  0  0  0  0  0  0
   45.6180   34.1750   45.2300 C   0  0  0  0  0  0  0  0  0  0  0  0
   44.7900   35.0780   44.7040 N   0  0  0  0  0  0  0  0  0  0  0  0
   48.2050   33.8450   42.5590 C   0  0  0  0  0  0  0  0  0  0  0  0
   48.6950   34.7420   41.4240 C   0  0  0  0  0  0  0  0  0  0  0  0
   49.4750   34.6160   42.6780 C   0  0  0  0  0  0  0  0  0  0  0  0
   47.7032   33.5165   47.8349 H   0  0  0  0  0  0  0  0  0  0  0  0
   48.8982   31.4655   48.6089 H   0  0  0  0  0  0  0  0  0  0  0  0
   47.9349   29.2098   48.1832 H   0  0  0  0  0  0  0  0  0  0  0  0
   45.0024   25.5441   46.5224 H   0  0  0  0  0  0  0  0  0  0  0  0
   44.3442   36.3487   43.0623 H   0  0  0  0  0  0  0  0  0  0  0  0
   46.3722   35.6486   41.7312 H   0  0  0  0  0  0  0  0  0  0  0  0
   47.9308   32.7864   42.6778 H   0  0  0  0  0  0  0  0  0  0  0  0
   49.0727   34.2961   40.4921 H   0  0  0  0  0  0  0  0  0  0  0  0
   48.2695   35.5775   40.8488 H   0  0  0  0  0  0  0  0  0  0  0  0
   49.5324   35.4676   43.3718 H   0  0  0  0  0  0  0  0  0  0  0  0
   50.5163   34.3475   42.9097 H   0  0  0  0  0  0  0  0  0  0  0  0
  1  2  2  0
  2  3  1  0
  4  3  2  0
  5  4  1  0
  6  1  1  0
  6  5  2  0
  7 11  1  0
  7  5  1  0
  8  7  2  0
  9  8  1  0
  9 10  1  0
 10 11  2  0
 12  1  1  0
 12 13  2  0
 14 19  2  0
 15 16  2  0
 15 14  1  0
 16 17  1  0
 17 18  2  0
 18 12  1  0
 19 18  1  0
 20 22  1  0
 20 16  1  0
 21 20  1  0
 21 22  1  0
  2 23  1  0
  3 24  1  0
  4 25  1  0
 10 26  1  0
 14 27  1  0
 15 28  1  0
 20 29  1  0
 21 30  1  0
 21 31  1  0
 22 32  1  0
 22 33  1  0
M  ISO  8  23  14  24  14  25  14  26  14  27  14  28  14  29  13  30  13
M  ISO  3  31  13  32  13  33  13
M  END
>  <minimizedAffinity>  (1) 
-5.46065807

>  <minimizedRMSD>  (1) 
0.465848297

$$$$
