
     RDKit          3D

 27 29  0  0  0  0  0  0  0  0999 V2000
   46.2010   32.3030   47.2080 C   0  0  0  0  0  0  0  0  0  0  0  0
   47.3740   32.5410   47.8890 C   0  0  0  0  0  0  0  0  0  0  0  0
   48.0740   31.4400   48.4110 C   0  0  0  0  0  0  0  0  0  0  0  0
   47.6030   30.1460   48.2490 C   0  0  0  0  0  0  0  0  0  0  0  0
   46.4360   29.9650   47.5660 C   0  0  0  0  0  0  0  0  0  0  0  0
   45.7750   31.0320   47.0710 N   0  0  0  0  0  0  0  0  0  0  0  0
   45.8350   28.6440   47.3300 C   0  0  0  0  0  0  0  0  0  0  0  0
   44.5630   28.5020   46.8880 N   0  0  0  0  0  0  0  0  0  0  0  0
   44.3020   27.2390   46.7700 O   0  0  0  0  0  0  0  0  0  0  0  0
   45.3500   26.5120   47.1140 C   0  0  0  0  0  0  0  0  0  0  0  0
   46.3240   27.3880   47.4700 N   0  0  0  0  0  0  0  0  0  0  0  0
   45.4680   33.4440   46.6630 C   0  0  0  0  0  0  0  0  0  0  0  0
   44.5860   33.9510   47.4140 O   0  0  0  0  0  0  0  0  0  0  0  0
   45.2650   35.3820   43.5550 C   0  0  0  0  0  0  0  0  0  0  0  0
   46.3350   34.8890   42.7990 C   0  0  0  0  0  0  0  0  0  0  0  0
   47.0860   33.9050   43.3910 C   0  0  0  0  0  0  0  0  0  0  0  0
   46.7740   33.4600   44.6530 N   0  0  0  0  0  0  0  0  0  0  0  0
   45.7390   33.9630   45.3370 C   0  0  0  0  0  0  0  0  0  0  0  0
   44.9950   34.9150   44.7880 N   0  0  0  0  0  0  0  0  0  0  0  0
   48.4850   33.1870   42.5330 S   0  0  0  0  0  0  0  0  0  0  0  0
   47.7528   33.5653   48.0208 H   0  0  0  0  0  0  0  0  0  0  0  0
   49.0132   31.6079   48.9584 H   0  0  0  0  0  0  0  0  0  0  0  0
   48.1555   29.2883   48.6602 H   0  0  0  0  0  0  0  0  0  0  0  0
   45.4196   25.4142   47.1123 H   0  0  0  0  0  0  0  0  0  0  0  0
   44.6281   36.1719   43.1301 H   0  0  0  0  0  0  0  0  0  0  0  0
   46.5602   35.2676   41.7911 H   0  0  0  0  0  0  0  0  0  0  0  0
   49.3921   32.7215   43.4481 H   0  0  0  0  0  0  0  0  0  0  0  0
  1  2  2  0
  2  3  1  0
  4  3  2  0
  5  4  1  0
  6  1  1  0
  6  5  2  0
  7 11  1  0
  7  5  1  0
  8  7  2  0
  9  8  1  0
  9 10  1  0
 10 11  2  0
 12  1  1  0
 12 13  2  0
 14 19  2  0
 15 16  2  0
 15 14  1  0
 16 17  1  0
 17 18  2  0
 18 12  1  0
 19 18  1  0
 20 16  1  0
  2 21  1  0
  3 22  1  0
  4 23  1  0
 10 24  1  0
 14 25  1  0
 15 26  1  0
 20 27  1  0
M  ISO  7  21  14  22  14  23  14  24  14  25  14  26  14  27  11
M  END
>  <minimizedAffinity>  (1) 
-4.87116861

>  <minimizedRMSD>  (1) 
0.0527914912

$$$$
