
     RDKit          3D

 13 13  0  0  0  0  0  0  0  0999 V2000
   46.1610   34.8640   43.2030 C   0  0  0  0  0  0  0  0  0  0  0  0
   46.3070   33.8810   44.2020 C   0  0  0  0  0  0  0  0  0  0  0  0
   45.5410   34.0240   45.3810 C   0  0  0  0  0  0  0  0  0  0  0  0
   44.7140   35.1050   45.4680 N   0  0  0  0  0  0  0  0  0  0  0  0
   44.6060   36.0210   44.4890 C   0  0  0  0  0  0  0  0  0  0  0  0
   45.3300   35.9000   43.3560 N   0  0  0  0  0  0  0  0  0  0  0  0
   46.9840   34.6930   41.9580 C   0  0  0  0  0  0  0  0  0  0  0  0
   46.1590   34.6820   40.8490 F   0  0  0  0  0  0  0  0  0  0  0  0
   47.8700   35.7340   41.8310 F   0  0  0  0  0  0  0  0  0  0  0  0
   47.5930   33.4530   42.0170 F   0  0  0  0  0  0  0  0  0  0  0  0
   46.9934   33.0318   44.0688 H   0  0  0  0  0  0  0  0  0  0  0  0
   45.6093   33.2907   46.1981 H   0  0  0  0  0  0  0  0  0  0  0  0
   43.9231   36.8745   44.6124 H   0  0  0  0  0  0  0  0  0  0  0  0
  1  6  2  0
  1  2  1  0
  2  3  2  0
  3  4  1  0
  5  4  2  0
  6  5  1  0
  7 10  1  0
  7  1  1  0
  8  7  1  0
  9  7  1  0
  2 11  1  0
  3 12  1  0
  5 13  1  0
M  ISO  3  11  14  12  14  13  14
M  END
>  <minimizedAffinity>  (1) 
-3.74805593

>  <minimizedRMSD>  (1) 
3.95056462

$$$$
