
     RDKit          3D

 16 16  0  0  0  0  0  0  0  0999 V2000
   47.8020   34.8480   42.4120 C   0  0  0  0  0  0  0  0  0  0  0  0
   48.1110   33.7280   43.2260 C   0  0  0  0  0  0  0  0  0  0  0  0
   47.1110   33.2870   44.1300 C   0  0  0  0  0  0  0  0  0  0  0  0
   45.9280   33.9730   44.1470 N   0  0  0  0  0  0  0  0  0  0  0  0
   45.6890   35.0330   43.3470 C   0  0  0  0  0  0  0  0  0  0  0  0
   46.6190   35.4680   42.4860 N   0  0  0  0  0  0  0  0  0  0  0  0
   48.8780   35.2860   41.4730 C   0  0  0  0  0  0  0  0  0  0  0  0
   48.4070   35.2170   40.1680 F   0  0  0  0  0  0  0  0  0  0  0  0
   49.2240   36.5950   41.7310 F   0  0  0  0  0  0  0  0  0  0  0  0
   49.9250   34.3990   41.5530 F   0  0  0  0  0  0  0  0  0  0  0  0
   44.3920   35.7610   43.3870 C   0  0  0  0  0  0  0  0  0  0  0  0
   49.0857   33.2226   43.1589 H   0  0  0  0  0  0  0  0  0  0  0  0
   47.2806   32.4255   44.7926 H   0  0  0  0  0  0  0  0  0  0  0  0
   44.0967   35.9268   44.4336 H   0  0  0  0  0  0  0  0  0  0  0  0
   44.4998   36.7304   42.8785 H   0  0  0  0  0  0  0  0  0  0  0  0
   43.6206   35.1640   42.8785 H   0  0  0  0  0  0  0  0  0  0  0  0
  1  6  2  0
  1  2  1  0
  2  3  2  0
  3  4  1  0
  5 11  1  0
  5  4  2  0
  6  5  1  0
  7 10  1  0
  7  9  1  0
  7  1  1  0
  8  7  1  0
  2 12  1  0
  3 13  1  0
 11 14  1  0
 11 15  1  0
 11 16  1  0
M  ISO  5  12  14  13  14  14   8  15   8  16   8
M  END
>  <minimizedAffinity>  (1) 
-4.12448454

>  <minimizedRMSD>  (1) 
2.03977323

$$$$
