
     RDKit          3D

 15 15  0  0  0  0  0  0  0  0999 V2000
   46.6640   34.2640   43.2730 C   0  0  0  0  0  0  0  0  0  0  0  0
   47.3070   33.1820   43.8890 C   0  0  0  0  0  0  0  0  0  0  0  0
   46.8750   32.8350   45.1990 C   0  0  0  0  0  0  0  0  0  0  0  0
   45.8660   33.5800   45.7590 N   0  0  0  0  0  0  0  0  0  0  0  0
   45.2900   34.6010   45.1230 C   0  0  0  0  0  0  0  0  0  0  0  0
   45.6850   34.9470   43.8800 N   0  0  0  0  0  0  0  0  0  0  0  0
   44.2440   35.3690   45.7110 N   0  0  0  0  0  0  0  0  0  0  0  0
   47.1130   34.6320   41.8960 C   0  0  0  0  0  0  0  0  0  0  0  0
   46.0110   34.8000   41.0610 F   0  0  0  0  0  0  0  0  0  0  0  0
   47.8370   35.7860   41.9080 F   0  0  0  0  0  0  0  0  0  0  0  0
   47.8080   33.5490   41.3790 F   0  0  0  0  0  0  0  0  0  0  0  0
   48.1096   32.6261   43.3823 H   0  0  0  0  0  0  0  0  0  0  0  0
   47.3337   31.9978   45.7455 H   0  0  0  0  0  0  0  0  0  0  0  0
   43.8231   36.1508   45.1889 H   0  0  0  0  0  0  0  0  0  0  0  0
   43.9087   35.1425   46.6582 H   0  0  0  0  0  0  0  0  0  0  0  0
  1  6  2  0
  1  2  1  0
  2  3  2  0
  3  4  1  0
  5  7  1  0
  5  4  2  0
  6  5  1  0
  8 10  1  0
  8  1  1  0
  9  8  1  0
 11  8  1  0
  2 12  1  0
  3 13  1  0
  7 14  1  0
  7 15  1  0
M  ISO  2  12  14  13  14
M  END
>  <minimizedAffinity>  (1) 
-4.06754923

>  <minimizedRMSD>  (1) 
1.30060148

$$$$
