
     RDKit          3D

 28 29  0  0  0  0  0  0  0  0999 V2000
   46.8090   34.1370   42.2680 C   0  0  0  0  0  0  0  0  0  0  0  0
   44.5030   35.8910   44.7260 C   0  0  0  0  0  0  0  0  0  0  0  0
   45.1760   35.6430   43.5350 C   0  0  0  0  0  0  0  0  0  0  0  0
   46.0050   34.5300   43.4860 C   0  0  0  0  0  0  0  0  0  0  0  0
   46.1230   33.7280   44.6130 N   0  0  0  0  0  0  0  0  0  0  0  0
   45.4330   34.0270   45.7510 C   0  0  0  0  0  0  0  0  0  0  0  0
   44.6390   35.0910   45.7960 N   0  0  0  0  0  0  0  0  0  0  0  0
   47.7160   35.3050   41.8760 C   0  0  0  0  0  0  0  0  0  0  0  0
   48.9600   34.8340   41.3180 N   0  0  0  0  0  0  0  0  0  0  0  0
   48.7310   33.4460   40.9660 C   0  0  0  0  0  0  0  0  0  0  0  0
   49.9110   32.6420   41.3860 C   0  0  0  0  0  0  0  0  0  0  0  0
   50.5420   33.4580   42.4800 C   0  0  0  0  0  0  0  0  0  0  0  0
   49.9520   34.8420   42.3790 C   0  0  0  0  0  0  0  0  0  0  0  0
   47.4229   33.2542   42.4997 H   0  0  0  0  0  0  0  0  0  0  0  0
   46.1315   33.8952   41.4358 H   0  0  0  0  0  0  0  0  0  0  0  0
   43.8408   36.7667   44.7937 H   0  0  0  0  0  0  0  0  0  0  0  0
   45.0563   36.3039   42.6638 H   0  0  0  0  0  0  0  0  0  0  0  0
   45.5347   33.3830   46.6370 H   0  0  0  0  0  0  0  0  0  0  0  0
   47.1995   35.9254   41.1288 H   0  0  0  0  0  0  0  0  0  0  0  0
   47.9390   35.8917   42.7794 H   0  0  0  0  0  0  0  0  0  0  0  0
   47.8312   33.0780   41.4806 H   0  0  0  0  0  0  0  0  0  0  0  0
   48.5858   33.3558   39.8794 H   0  0  0  0  0  0  0  0  0  0  0  0
   49.5979   31.6577   41.7644 H   0  0  0  0  0  0  0  0  0  0  0  0
   50.6037   32.4439   40.5548 H   0  0  0  0  0  0  0  0  0  0  0  0
   50.3129   33.0183   43.4619 H   0  0  0  0  0  0  0  0  0  0  0  0
   51.6366   33.4844   42.3746 H   0  0  0  0  0  0  0  0  0  0  0  0
   50.7437   35.5684   42.1436 H   0  0  0  0  0  0  0  0  0  0  0  0
   49.4863   35.1280   43.3336 H   0  0  0  0  0  0  0  0  0  0  0  0
  1  4  1  0
  2  7  2  0
  3  2  1  0
  4  3  2  0
  4  5  1  0
  5  6  2  0
  6  7  1  0
  8  1  1  0
  9  8  1  0
  9 13  1  0
 10  9  1  0
 10 11  1  0
 11 12  1  0
 13 12  1  0
  1 14  1  0
  1 15  1  0
  2 16  1  0
  3 17  1  0
  6 18  1  0
  8 19  1  0
  8 20  1  0
 10 21  1  0
 10 22  1  0
 11 23  1  0
 11 24  1  0
 12 25  1  0
 12 26  1  0
 13 27  1  0
 13 28  1  0
M  ISO  8  14   8  15   8  16  14  17  14  18  14  19   8  20   8  21  13
M  ISO  7  22  13  23  13  24  13  25  13  26  13  27  13  28  13
M  END
>  <minimizedAffinity>  (1) 
-4.20235443

>  <minimizedRMSD>  (1) 
1.1283685

$$$$
