
     RDKit          3D

 29 30  0  0  0  0  0  0  0  0999 V2000
   44.0120   35.4980   42.6610 C   0  0  0  0  0  0  0  0  0  0  0  0
   47.6560   34.9240   42.2870 C   0  0  0  0  0  0  0  0  0  0  0  0
   47.9130   33.9970   43.3160 C   0  0  0  0  0  0  0  0  0  0  0  0
   46.8390   33.5830   44.1180 C   0  0  0  0  0  0  0  0  0  0  0  0
   45.6120   34.1150   43.8370 N   0  0  0  0  0  0  0  0  0  0  0  0
   45.4060   34.9940   42.8500 C   0  0  0  0  0  0  0  0  0  0  0  0
   46.4160   35.4100   42.0650 N   0  0  0  0  0  0  0  0  0  0  0  0
   48.8250   35.3440   41.4520 C   0  0  0  0  0  0  0  0  0  0  0  0
   48.4900   35.3390   40.1320 F   0  0  0  0  0  0  0  0  0  0  0  0
   49.2090   36.6300   41.7900 F   0  0  0  0  0  0  0  0  0  0  0  0
   49.8460   34.4290   41.6360 F   0  0  0  0  0  0  0  0  0  0  0  0
   43.6330   35.4090   41.2180 C   0  0  0  0  0  0  0  0  0  0  0  0
   42.2590   34.9640   41.0070 N   0  0  0  0  0  0  0  0  0  0  0  0
   41.2420   35.8590   40.8920 C   0  0  0  0  0  0  0  0  0  0  0  0
   39.9800   35.3740   40.6960 C   0  0  0  0  0  0  0  0  0  0  0  0
   39.6580   34.0200   40.6040 C   0  0  0  0  0  0  0  0  0  0  0  0
   38.4650   33.6520   40.4210 O   0  0  0  0  0  0  0  0  0  0  0  0
   40.7210   33.1750   40.7270 N   0  0  0  0  0  0  0  0  0  0  0  0
   41.9660   33.6560   40.9210 C   0  0  0  0  0  0  0  0  0  0  0  0
   42.8630   32.7630   41.0190 O   0  0  0  0  0  0  0  0  0  0  0  0
   43.3189   34.8880   43.2589 H   0  0  0  0  0  0  0  0  0  0  0  0
   43.9577   36.5472   42.9868 H   0  0  0  0  0  0  0  0  0  0  0  0
   48.9279   33.6084   43.4860 H   0  0  0  0  0  0  0  0  0  0  0  0
   46.9784   32.8619   44.9369 H   0  0  0  0  0  0  0  0  0  0  0  0
   43.7510   36.4041   40.7643 H   0  0  0  0  0  0  0  0  0  0  0  0
   44.2921   34.6604   40.7542 H   0  0  0  0  0  0  0  0  0  0  0  0
   41.4297   36.9410   40.9549 H   0  0  0  0  0  0  0  0  0  0  0  0
   39.1606   36.1021   40.6043 H   0  0  0  0  0  0  0  0  0  0  0  0
   40.5715   32.1574   40.6711 H   0  0  0  0  0  0  0  0  0  0  0  0
  1  6  1  0
  2  3  2  0
  3  4  1  0
  5  4  2  0
  6  5  1  0
  7  2  1  0
  7  6  2  0
  8 11  1  0
  8 10  1  0
  8  2  1  0
  9  8  1  0
 12  1  1  0
 13 12  1  0
 14 13  1  0
 15 14  2  0
 16 15  1  0
 16 18  1  0
 17 16  2  0
 18 19  1  0
 19 13  1  0
 19 20  2  0
  1 21  1  0
  1 22  1  0
  3 23  1  0
  4 24  1  0
 12 25  1  0
 12 26  1  0
 14 27  1  0
 15 28  1  0
 18 29  1  0
M  ISO  8  21   8  22   8  23  14  24  14  25   8  26   8  27  14  28  14
M  ISO  1  29   9
M  END
>  <minimizedAffinity>  (1) 
-5.8533287

>  <minimizedRMSD>  (1) 
1.73917902

$$$$
