
     RDKit          3D

 32 33  0  0  0  0  0  0  0  0999 V2000
   44.0570   35.6380   42.6880 C   0  0  0  0  0  0  0  0  0  0  0  0
   47.6720   34.9420   42.2750 C   0  0  0  0  0  0  0  0  0  0  0  0
   47.9160   33.9800   43.2700 C   0  0  0  0  0  0  0  0  0  0  0  0
   46.8240   33.5810   44.0760 C   0  0  0  0  0  0  0  0  0  0  0  0
   45.6330   34.1540   43.8260 N   0  0  0  0  0  0  0  0  0  0  0  0
   45.4270   35.0800   42.8610 C   0  0  0  0  0  0  0  0  0  0  0  0
   46.4520   35.4690   42.0890 N   0  0  0  0  0  0  0  0  0  0  0  0
   48.8480   35.3500   41.4320 C   0  0  0  0  0  0  0  0  0  0  0  0
   48.5090   35.3420   40.1150 F   0  0  0  0  0  0  0  0  0  0  0  0
   49.2340   36.6450   41.7590 F   0  0  0  0  0  0  0  0  0  0  0  0
   49.8600   34.4200   41.6110 F   0  0  0  0  0  0  0  0  0  0  0  0
   43.5420   35.2930   41.3330 C   0  0  0  0  0  0  0  0  0  0  0  0
   42.3370   34.5010   41.3580 N   0  0  0  0  0  0  0  0  0  0  0  0
   42.4310   33.1460   41.4400 C   0  0  0  0  0  0  0  0  0  0  0  0
   41.2840   32.3760   41.4650 C   0  0  0  0  0  0  0  0  0  0  0  0
   41.3810   30.8850   41.5550 C   0  0  0  0  0  0  0  0  0  0  0  0
   40.0160   32.9320   41.4100 C   0  0  0  0  0  0  0  0  0  0  0  0
   39.0010   32.2150   41.4350 O   0  0  0  0  0  0  0  0  0  0  0  0
   39.9620   34.2910   41.3290 N   0  0  0  0  0  0  0  0  0  0  0  0
   41.0950   35.0150   41.3060 C   0  0  0  0  0  0  0  0  0  0  0  0
   40.9660   36.2820   41.2280 O   0  0  0  0  0  0  0  0  0  0  0  0
   43.3897   35.2127   43.4521 H   0  0  0  0  0  0  0  0  0  0  0  0
   44.0927   36.7320   42.7966 H   0  0  0  0  0  0  0  0  0  0  0  0
   48.9191   33.5530   43.4167 H   0  0  0  0  0  0  0  0  0  0  0  0
   46.9439   32.8333   44.8739 H   0  0  0  0  0  0  0  0  0  0  0  0
   44.3194   34.7267   40.7992 H   0  0  0  0  0  0  0  0  0  0  0  0
   43.2953   36.2401   40.8308 H   0  0  0  0  0  0  0  0  0  0  0  0
   43.4188   32.6643   41.4863 H   0  0  0  0  0  0  0  0  0  0  0  0
   41.4007   30.5820   42.6123 H   0  0  0  0  0  0  0  0  0  0  0  0
   40.5105   30.4303   41.0594 H   0  0  0  0  0  0  0  0  0  0  0  0
   42.3030   30.5470   41.0594 H   0  0  0  0  0  0  0  0  0  0  0  0
   39.0491   34.7660   41.2852 H   0  0  0  0  0  0  0  0  0  0  0  0
  1  6  1  0
  2  3  2  0
  3  4  1  0
  5  4  2  0
  6  5  1  0
  7  2  1  0
  7  6  2  0
  8 11  1  0
  8 10  1  0
  8  2  1  0
  9  8  1  0
 12 13  1  0
 12  1  1  0
 13 14  1  0
 14 15  2  0
 15 16  1  0
 17 18  2  0
 17 15  1  0
 19 17  1  0
 20 19  1  0
 20 13  1  0
 21 20  2  0
  1 22  1  0
  1 23  1  0
  3 24  1  0
  4 25  1  0
 12 26  1  0
 12 27  1  0
 14 28  1  0
 16 29  1  0
 16 30  1  0
 16 31  1  0
 19 32  1  0
M  ISO  8  22   8  23   8  24  14  25  14  26   8  27   8  28  14  29   8
M  ISO  3  30   8  31   8  32   9
M  END
>  <minimizedAffinity>  (1) 
-5.89995766

>  <minimizedRMSD>  (1) 
2.40109301

$$$$
