
     RDKit          3D

 25 26  0  0  0  0  0  0  0  0999 V2000
   43.4570   35.3910   40.8150 C   0  0  0  0  0  0  0  0  0  0  0  0
   39.9460   34.2310   41.7180 C   0  0  0  0  0  0  0  0  0  0  0  0
   41.0350   35.0870   41.5640 C   0  0  0  0  0  0  0  0  0  0  0  0
   42.2250   34.5640   41.0270 C   0  0  0  0  0  0  0  0  0  0  0  0
   42.2460   33.2350   40.6840 N   0  0  0  0  0  0  0  0  0  0  0  0
   41.1620   32.4390   40.8530 C   0  0  0  0  0  0  0  0  0  0  0  0
   40.0400   32.9480   41.3640 N   0  0  0  0  0  0  0  0  0  0  0  0
   44.6860   34.5870   41.2640 C   0  0  0  0  0  0  0  0  0  0  0  0
   44.8110   34.6420   42.7360 C   0  0  0  0  0  0  0  0  0  0  0  0
   44.4670   35.7500   43.5070 C   0  0  0  0  0  0  0  0  0  0  0  0
   44.5820   35.8000   44.8720 C   0  0  0  0  0  0  0  0  0  0  0  0
   45.0720   34.6770   45.5400 C   0  0  0  0  0  0  0  0  0  0  0  0
   45.4030   33.5950   44.7500 C   0  0  0  0  0  0  0  0  0  0  0  0
   45.2830   33.5680   43.4180 N   0  0  0  0  0  0  0  0  0  0  0  0
   43.5518   35.6438   39.7487 H   0  0  0  0  0  0  0  0  0  0  0  0
   43.3862   36.3183   41.4025 H   0  0  0  0  0  0  0  0  0  0  0  0
   39.0031   34.6155   42.1340 H   0  0  0  0  0  0  0  0  0  0  0  0
   40.9655   36.1455   41.8552 H   0  0  0  0  0  0  0  0  0  0  0  0
   41.2074   31.3771   40.5698 H   0  0  0  0  0  0  0  0  0  0  0  0
   44.5733   33.5400   40.9461 H   0  0  0  0  0  0  0  0  0  0  0  0
   45.5887   35.0185   40.8068 H   0  0  0  0  0  0  0  0  0  0  0  0
   44.0793   36.6394   42.9886 H   0  0  0  0  0  0  0  0  0  0  0  0
   44.2946   36.7045   45.4281 H   0  0  0  0  0  0  0  0  0  0  0  0
   45.1878   34.6555   46.6337 H   0  0  0  0  0  0  0  0  0  0  0  0
   45.7914   32.6948   45.2488 H   0  0  0  0  0  0  0  0  0  0  0  0
  1  4  1  0
  1  8  1  0
  3  2  2  0
  4  3  1  0
  5  6  1  0
  5  4  2  0
  6  7  2  0
  7  2  1  0
  8  9  1  0
  9 14  1  0
  9 10  2  0
 10 11  1  0
 11 12  2  0
 13 12  1  0
 14 13  2  0
  1 15  1  0
  1 16  1  0
  2 17  1  0
  3 18  1  0
  6 19  1  0
  8 20  1  0
  8 21  1  0
 10 22  1  0
 11 23  1  0
 12 24  1  0
 13 25  1  0
M  ISO  8  15   8  16   8  17  14  18  14  19  14  20   8  21   8  22  14
M  ISO  3  23  14  24  14  25  14
M  END
>  <minimizedAffinity>  (1) 
-4.13324738

>  <minimizedRMSD>  (1) 
6.11008406

$$$$
