
     RDKit          3D

 32 33  0  0  0  0  0  0  0  0999 V2000
   47.6080   34.9140   42.2520 C   0  0  0  0  0  0  0  0  0  0  0  0
   47.8520   34.0520   43.3480 C   0  0  0  0  0  0  0  0  0  0  0  0
   46.7660   33.6480   44.1250 C   0  0  0  0  0  0  0  0  0  0  0  0
   45.5380   34.1170   43.7710 N   0  0  0  0  0  0  0  0  0  0  0  0
   45.3350   34.9320   42.7280 C   0  0  0  0  0  0  0  0  0  0  0  0
   46.3610   35.3400   41.9570 N   0  0  0  0  0  0  0  0  0  0  0  0
   48.7900   35.3220   41.4440 C   0  0  0  0  0  0  0  0  0  0  0  0
   48.4700   35.3130   40.1030 F   0  0  0  0  0  0  0  0  0  0  0  0
   49.1800   36.5940   41.7680 F   0  0  0  0  0  0  0  0  0  0  0  0
   49.7960   34.3850   41.6200 F   0  0  0  0  0  0  0  0  0  0  0  0
   43.9340   35.3700   42.4550 C   0  0  0  0  0  0  0  0  0  0  0  0
   43.6730   35.3630   40.9870 C   0  0  0  0  0  0  0  0  0  0  0  0
   42.2840   34.9010   40.6300 C   0  0  0  0  0  0  0  0  0  0  0  0
   41.9000   35.2600   39.2220 C   0  0  0  0  0  0  0  0  0  0  0  0
   40.3900   35.2860   39.3000 C   0  0  0  0  0  0  0  0  0  0  0  0
   40.2060   36.1650   40.5450 C   0  0  0  0  0  0  0  0  0  0  0  0
   41.2650   35.6290   41.4820 C   0  0  0  0  0  0  0  0  0  0  0  0
   48.8711   33.7097   43.5809 H   0  0  0  0  0  0  0  0  0  0  0  0
   46.8966   32.9783   44.9878 H   0  0  0  0  0  0  0  0  0  0  0  0
   43.2342   34.6824   42.9524 H   0  0  0  0  0  0  0  0  0  0  0  0
   43.7935   36.3903   42.8413 H   0  0  0  0  0  0  0  0  0  0  0  0
   43.8104   36.3847   40.6032 H   0  0  0  0  0  0  0  0  0  0  0  0
   44.3791   34.6513   40.5343 H   0  0  0  0  0  0  0  0  0  0  0  0
   42.2908   33.8108   40.7760 H   0  0  0  0  0  0  0  0  0  0  0  0
   42.2495   34.5005   38.5072 H   0  0  0  0  0  0  0  0  0  0  0  0
   42.3406   36.2049   38.8712 H   0  0  0  0  0  0  0  0  0  0  0  0
   39.9423   35.7446   38.4060 H   0  0  0  0  0  0  0  0  0  0  0  0
   39.9105   34.2975   39.3542 H   0  0  0  0  0  0  0  0  0  0  0  0
   40.3809   37.2258   40.3123 H   0  0  0  0  0  0  0  0  0  0  0  0
   39.1894   36.1263   40.9634 H   0  0  0  0  0  0  0  0  0  0  0  0
   40.8127   34.9348   42.2055 H   0  0  0  0  0  0  0  0  0  0  0  0
   41.7380   36.4455   42.0474 H   0  0  0  0  0  0  0  0  0  0  0  0
  1  2  2  0
  2  3  1  0
  4  3  2  0
  5  4  1  0
  6  1  1  0
  6  5  2  0
  7 10  1  0
  7  9  1  0
  7  1  1  0
  8  7  1  0
 11  5  1  0
 12 11  1  0
 13 12  1  0
 13 17  1  0
 14 15  1  0
 14 13  1  0
 15 16  1  0
 16 17  1  0
  2 18  1  0
  3 19  1  0
 11 20  1  0
 11 21  1  0
 12 22  1  0
 12 23  1  0
 13 24  1  0
 14 25  1  0
 14 26  1  0
 15 27  1  0
 15 28  1  0
 16 29  1  0
 16 30  1  0
 17 31  1  0
 17 32  1  0
M  ISO  8  18  14  19  14  20   8  21   8  22   8  23   8  24  13  25  13
M  ISO  7  26  13  27  13  28  13  29  13  30  13  31  13  32  13
M  END
>  <minimizedAffinity>  (1) 
-5.73357058

>  <minimizedRMSD>  (1) 
1.29850793

$$$$
