
     RDKit          3D

 26 27  0  0  0  0  0  0  0  0999 V2000
   47.6330   34.9210   42.2250 C   0  0  0  0  0  0  0  0  0  0  0  0
   47.8680   34.0970   43.3500 C   0  0  0  0  0  0  0  0  0  0  0  0
   46.7670   33.6860   44.1060 C   0  0  0  0  0  0  0  0  0  0  0  0
   45.5440   34.1060   43.7060 N   0  0  0  0  0  0  0  0  0  0  0  0
   45.3460   34.8910   42.6280 C   0  0  0  0  0  0  0  0  0  0  0  0
   46.3840   35.3040   41.8810 N   0  0  0  0  0  0  0  0  0  0  0  0
   48.8310   35.3420   41.4410 C   0  0  0  0  0  0  0  0  0  0  0  0
   48.5530   35.3630   40.1110 F   0  0  0  0  0  0  0  0  0  0  0  0
   49.2020   36.6300   41.8140 F   0  0  0  0  0  0  0  0  0  0  0  0
   49.8420   34.4260   41.6430 F   0  0  0  0  0  0  0  0  0  0  0  0
   43.9470   35.2860   42.2920 C   0  0  0  0  0  0  0  0  0  0  0  0
   43.6440   34.9460   40.8710 C   0  0  0  0  0  0  0  0  0  0  0  0
   42.2240   35.3400   40.5850 C   0  0  0  0  0  0  0  0  0  0  0  0
   41.4810   35.0290   39.4450 C   0  0  0  0  0  0  0  0  0  0  0  0
   40.2440   35.5490   39.5330 N   0  0  0  0  0  0  0  0  0  0  0  0
   40.2060   36.1890   40.7310 C   0  0  0  0  0  0  0  0  0  0  0  0
   41.4050   36.0640   41.3700 N   0  0  0  0  0  0  0  0  0  0  0  0
   48.8882   33.7885   43.6221 H   0  0  0  0  0  0  0  0  0  0  0  0
   46.8895   33.0458   44.9921 H   0  0  0  0  0  0  0  0  0  0  0  0
   43.2492   34.7487   42.9511 H   0  0  0  0  0  0  0  0  0  0  0  0
   43.8361   36.3712   42.4335 H   0  0  0  0  0  0  0  0  0  0  0  0
   44.3242   35.4957   40.2038 H   0  0  0  0  0  0  0  0  0  0  0  0
   43.7797   33.8676   40.7019 H   0  0  0  0  0  0  0  0  0  0  0  0
   41.8549   34.4410   38.5939 H   0  0  0  0  0  0  0  0  0  0  0  0
   39.3344   36.7298   41.1283 H   0  0  0  0  0  0  0  0  0  0  0  0
   41.6421   36.4556   42.2927 H   0  0  0  0  0  0  0  0  0  0  0  0
  1  2  2  0
  2  3  1  0
  4  3  2  0
  5  4  1  0
  6  1  1  0
  6  5  2  0
  7 10  1  0
  7  9  1  0
  7  1  1  0
  8  7  1  0
 11  5  1  0
 12 11  1  0
 13 12  1  0
 13 17  1  0
 14 15  1  0
 14 13  2  0
 15 16  2  0
 16 17  1  0
  2 18  1  0
  3 19  1  0
 11 20  1  0
 11 21  1  0
 12 22  1  0
 12 23  1  0
 14 24  1  0
 16 25  1  0
 17 26  1  0
M  ISO  8  18  14  19  14  20   8  21   8  22   8  23   8  24  14  25  14
M  ISO  1  26   9
M  END
>  <minimizedAffinity>  (1) 
-5.36849594

>  <minimizedRMSD>  (1) 
0.957057834

$$$$
