
     RDKit          3D

 26 27  0  0  0  0  0  0  0  0999 V2000
   44.0170   35.3650   42.4940 C   0  0  0  0  0  0  0  0  0  0  0  0
   47.6850   34.9240   42.2760 C   0  0  0  0  0  0  0  0  0  0  0  0
   47.9490   34.0430   43.3400 C   0  0  0  0  0  0  0  0  0  0  0  0
   46.8670   33.6120   44.1170 C   0  0  0  0  0  0  0  0  0  0  0  0
   45.6450   34.0730   43.7900 N   0  0  0  0  0  0  0  0  0  0  0  0
   45.4140   34.9150   42.7690 C   0  0  0  0  0  0  0  0  0  0  0  0
   46.4360   35.3490   42.0000 N   0  0  0  0  0  0  0  0  0  0  0  0
   48.8560   35.3830   41.4450 C   0  0  0  0  0  0  0  0  0  0  0  0
   48.5420   35.3600   40.1220 F   0  0  0  0  0  0  0  0  0  0  0  0
   49.2110   36.6670   41.8070 F   0  0  0  0  0  0  0  0  0  0  0  0
   49.8990   34.4780   41.6580 F   0  0  0  0  0  0  0  0  0  0  0  0
   43.6960   35.2060   41.0480 C   0  0  0  0  0  0  0  0  0  0  0  0
   42.2730   35.3870   40.7170 C   0  0  0  0  0  0  0  0  0  0  0  0
   41.8030   35.1870   39.4330 C   0  0  0  0  0  0  0  0  0  0  0  0
   40.4310   35.4340   39.4410 C   0  0  0  0  0  0  0  0  0  0  0  0
   40.1290   35.7680   40.7060 N   0  0  0  0  0  0  0  0  0  0  0  0
   41.2240   35.7420   41.4700 N   0  0  0  0  0  0  0  0  0  0  0  0
   43.3174   34.7600   43.0894 H   0  0  0  0  0  0  0  0  0  0  0  0
   43.9238   36.4268   42.7658 H   0  0  0  0  0  0  0  0  0  0  0  0
   48.9730   33.7034   43.5549 H   0  0  0  0  0  0  0  0  0  0  0  0
   47.0099   32.9230   44.9625 H   0  0  0  0  0  0  0  0  0  0  0  0
   44.2778   35.9490   40.4828 H   0  0  0  0  0  0  0  0  0  0  0  0
   43.9505   34.1694   40.7823 H   0  0  0  0  0  0  0  0  0  0  0  0
   42.4034   34.8869   38.5615 H   0  0  0  0  0  0  0  0  0  0  0  0
   39.7394   35.3688   38.5881 H   0  0  0  0  0  0  0  0  0  0  0  0
   39.1853   36.0102   41.0402 H   0  0  0  0  0  0  0  0  0  0  0  0
  1  6  1  0
  2  3  2  0
  3  4  1  0
  5  4  2  0
  6  5  1  0
  7  2  1  0
  7  6  2  0
  8 11  1  0
  8 10  1  0
  8  2  1  0
  9  8  1  0
 12  1  1  0
 13 12  1  0
 13 17  2  0
 14 15  2  0
 14 13  1  0
 15 16  1  0
 16 17  1  0
  1 18  1  0
  1 19  1  0
  3 20  1  0
  4 21  1  0
 12 22  1  0
 12 23  1  0
 14 24  1  0
 15 25  1  0
 16 26  1  0
M  ISO  8  18   8  19   8  20  14  21  14  22   8  23   8  24  14  25  14
M  ISO  1  26   9
M  END
>  <minimizedAffinity>  (1) 
-5.31947088

>  <minimizedRMSD>  (1) 
0.909273505

$$$$
