
     RDKit          3D

 26 26  0  0  0  0  0  0  0  0999 V2000
   44.2660   35.7450   43.1800 C   0  0  0  0  0  0  0  0  0  0  0  0
   47.7850   34.9380   42.3570 C   0  0  0  0  0  0  0  0  0  0  0  0
   48.0430   33.8560   43.2190 C   0  0  0  0  0  0  0  0  0  0  0  0
   47.0150   33.4230   44.0600 C   0  0  0  0  0  0  0  0  0  0  0  0
   45.8240   34.0890   43.9830 N   0  0  0  0  0  0  0  0  0  0  0  0
   45.6080   35.1160   43.1520 C   0  0  0  0  0  0  0  0  0  0  0  0
   46.5880   35.5470   42.3340 N   0  0  0  0  0  0  0  0  0  0  0  0
   48.9120   35.3710   41.4730 C   0  0  0  0  0  0  0  0  0  0  0  0
   48.5170   35.3400   40.1560 F   0  0  0  0  0  0  0  0  0  0  0  0
   49.2630   36.6730   41.7660 F   0  0  0  0  0  0  0  0  0  0  0  0
   49.9620   34.4840   41.6200 F   0  0  0  0  0  0  0  0  0  0  0  0
   43.5030   35.3970   41.9400 C   0  0  0  0  0  0  0  0  0  0  0  0
   42.1000   35.3680   42.3080 N   0  0  0  0  0  0  0  0  0  0  0  0
   41.2040   34.5500   41.5590 C   0  0  0  0  0  0  0  0  0  0  0  0
   41.4660   34.1750   40.3430 N   0  0  0  0  0  0  0  0  0  0  0  0
   39.9820   34.1360   42.1790 N   0  0  0  0  0  0  0  0  0  0  0  0
   42.3520   34.4910   39.9300 H   0  0  0  0  0  0  0  0  0  0  0  0
   43.7137   35.3826   44.0596 H   0  0  0  0  0  0  0  0  0  0  0  0
   44.3839   36.8374   43.2327 H   0  0  0  0  0  0  0  0  0  0  0  0
   49.0271   33.3647   43.2303 H   0  0  0  0  0  0  0  0  0  0  0  0
   47.1580   32.5820   44.7545 H   0  0  0  0  0  0  0  0  0  0  0  0
   43.8172   34.4115   41.5656 H   0  0  0  0  0  0  0  0  0  0  0  0
   43.6877   36.1318   41.1425 H   0  0  0  0  0  0  0  0  0  0  0  0
   41.7560   35.9305   43.0993 H   0  0  0  0  0  0  0  0  0  0  0  0
   39.3163   33.5448   41.6612 H   0  0  0  0  0  0  0  0  0  0  0  0
   39.7684   34.4293   43.1430 H   0  0  0  0  0  0  0  0  0  0  0  0
  2  3  2  0
  3  4  1  0
  5  4  2  0
  6  1  1  0
  6  5  1  0
  7  2  1  0
  7  6  2  0
  8 11  1  0
  8 10  1  0
  8  2  1  0
  9  8  1  0
 12 13  1  0
 12  1  1  0
 14 16  1  0
 14 13  1  0
 15 14  2  0
 17 15  1  0
  1 18  1  0
  1 19  1  0
  3 20  1  0
  4 21  1  0
 12 22  1  0
 12 23  1  0
 13 24  1  0
 16 25  1  0
 16 26  1  0
M  ISO  6  18   8  19   8  20  14  21  14  22   8  23   8
M  END
>  <minimizedAffinity>  (1) 
-5.37424421

>  <minimizedRMSD>  (1) 
1.32762861

$$$$
