
     RDKit          3D

 23 24  0  0  0  0  0  0  0  0999 V2000
   47.8960   35.3390   41.8980 C   0  0  0  0  0  0  0  0  0  0  0  0
   49.7210   32.2310   40.6980 C   0  0  0  0  0  0  0  0  0  0  0  0
   48.7290   33.2050   40.8010 C   0  0  0  0  0  0  0  0  0  0  0  0
   48.8900   34.2440   41.7050 C   0  0  0  0  0  0  0  0  0  0  0  0
   50.0300   34.2710   42.4680 N   0  0  0  0  0  0  0  0  0  0  0  0
   50.9760   33.3060   42.3420 C   0  0  0  0  0  0  0  0  0  0  0  0
   50.8230   32.2960   41.4680 N   0  0  0  0  0  0  0  0  0  0  0  0
   46.4690   34.7770   41.7260 C   0  0  0  0  0  0  0  0  0  0  0  0
   45.8040   34.9810   43.0610 C   0  0  0  0  0  0  0  0  0  0  0  0
   45.7720   34.1570   44.1630 C   0  0  0  0  0  0  0  0  0  0  0  0
   45.0250   34.8130   45.1320 C   0  0  0  0  0  0  0  0  0  0  0  0
   44.6420   36.0090   44.5620 C   0  0  0  0  0  0  0  0  0  0  0  0
   45.1210   36.0640   43.3460 O   0  0  0  0  0  0  0  0  0  0  0  0
   48.0050   35.7588   42.9089 H   0  0  0  0  0  0  0  0  0  0  0  0
   48.0710   36.1279   41.1516 H   0  0  0  0  0  0  0  0  0  0  0  0
   49.6023   31.4038   39.9827 H   0  0  0  0  0  0  0  0  0  0  0  0
   47.8283   33.1499   40.1720 H   0  0  0  0  0  0  0  0  0  0  0  0
   51.8818   33.3510   42.9645 H   0  0  0  0  0  0  0  0  0  0  0  0
   45.9305   35.3247   40.9386 H   0  0  0  0  0  0  0  0  0  0  0  0
   46.4761   33.7186   41.4264 H   0  0  0  0  0  0  0  0  0  0  0  0
   46.2467   33.1692   44.2577 H   0  0  0  0  0  0  0  0  0  0  0  0
   44.7879   34.4535   46.1442 H   0  0  0  0  0  0  0  0  0  0  0  0
   44.0351   36.7867   45.0486 H   0  0  0  0  0  0  0  0  0  0  0  0
  2  3  2  0
  2  7  1  0
  3  4  1  0
  4  1  1  0
  4  5  2  0
  6  5  1  0
  7  6  2  0
  8  1  1  0
  8  9  1  0
  9 13  1  0
  9 10  2  0
 10 11  1  0
 12 11  2  0
 13 12  1  0
  1 14  1  0
  1 15  1  0
  2 16  1  0
  3 17  1  0
  6 18  1  0
  8 19  1  0
  8 20  1  0
 10 21  1  0
 11 22  1  0
 12 23  1  0
M  ISO  8  14   8  15   8  16  14  17  14  18  14  19   8  20   8  21  14
M  ISO  2  22  14  23  14
M  END
>  <minimizedAffinity>  (1) 
-4.08577919

>  <minimizedRMSD>  (1) 
5.63530064

$$$$
