
     RDKit          3D

 36 38  0  0  1  0  0  0  0  0999 V2000
   43.6770   35.3710   41.2690 C   0  0  0  0  0  0  0  0  0  0  0  0
   42.2740   34.8700   41.1290 C   0  0  1  0  0  0  0  0  0  0  0  0
   41.1280   35.5570   41.7530 C   0  0  0  0  0  0  0  0  0  0  0  0
   41.3110   35.5580   40.2600 C   0  0  2  0  0  0  0  0  0  0  0  0
   40.2340   34.8310   39.5440 C   0  0  0  0  0  0  0  0  0  0  0  0
   40.1790   34.8240   38.1620 C   0  0  0  0  0  0  0  0  0  0  0  0
   39.1720   34.1430   37.4960 C   0  0  0  0  0  0  0  0  0  0  0  0
   38.1970   33.4550   38.1990 C   0  0  0  0  0  0  0  0  0  0  0  0
   38.2560   33.4660   39.5800 C   0  0  0  0  0  0  0  0  0  0  0  0
   39.2550   34.1400   40.2350 C   0  0  0  0  0  0  0  0  0  0  0  0
   44.1210   35.5930   42.6870 C   0  0  0  0  0  0  0  0  0  0  0  0
   47.7490   34.9570   42.2880 C   0  0  0  0  0  0  0  0  0  0  0  0
   47.9960   33.9930   43.2730 C   0  0  0  0  0  0  0  0  0  0  0  0
   46.9180   33.5610   44.0740 C   0  0  0  0  0  0  0  0  0  0  0  0
   45.7240   34.1140   43.8280 N   0  0  0  0  0  0  0  0  0  0  0  0
   45.4990   35.0370   42.8820 C   0  0  0  0  0  0  0  0  0  0  0  0
   46.5100   35.4640   42.1060 N   0  0  0  0  0  0  0  0  0  0  0  0
   48.9110   35.3940   41.4560 C   0  0  0  0  0  0  0  0  0  0  0  0
   48.5890   35.3850   40.1410 F   0  0  0  0  0  0  0  0  0  0  0  0
   49.2700   36.6940   41.7960 F   0  0  0  0  0  0  0  0  0  0  0  0
   49.9420   34.5010   41.6520 F   0  0  0  0  0  0  0  0  0  0  0  0
   43.7557   36.3271   40.7307 H   0  0  0  0  0  0  0  0  0  0  0  0
   44.3310   34.5892   40.8553 H   0  0  0  0  0  0  0  0  0  0  0  0
   42.6733   33.8468   41.1896 H   0  0  0  0  0  0  0  0  0  0  0  0
   40.3155   34.9729   42.2098 H   0  0  0  0  0  0  0  0  0  0  0  0
   41.0040   36.3282   42.5275 H   0  0  0  0  0  0  0  0  0  0  0  0
   41.4541   36.2742   39.4374 H   0  0  0  0  0  0  0  0  0  0  0  0
   40.9432   35.3651   37.5847 H   0  0  0  0  0  0  0  0  0  0  0  0
   39.1470   34.1491   36.3963 H   0  0  0  0  0  0  0  0  0  0  0  0
   37.3969   32.9142   37.6724 H   0  0  0  0  0  0  0  0  0  0  0  0
   37.4925   32.9277   40.1607 H   0  0  0  0  0  0  0  0  0  0  0  0
   39.2782   34.1308   41.3347 H   0  0  0  0  0  0  0  0  0  0  0  0
   44.1289   36.6717   42.9023 H   0  0  0  0  0  0  0  0  0  0  0  0
   43.4245   35.0833   43.3690 H   0  0  0  0  0  0  0  0  0  0  0  0
   49.0061   33.5825   43.4187 H   0  0  0  0  0  0  0  0  0  0  0  0
   47.0522   32.8061   44.8627 H   0  0  0  0  0  0  0  0  0  0  0  0
  1 11  1  0
  2  1  1  0
  2  3  1  0
  4  2  1  0
  4  3  1  0
  5 10  1  0
  5  4  1  0
  6  5  2  0
  7  6  1  0
  7  8  2  0
  8  9  1  0
  9 10  2  0
 11 16  1  0
 12 13  2  0
 13 14  1  0
 15 14  2  0
 16 15  1  0
 17 12  1  0
 17 16  2  0
 18 21  1  0
 18 20  1  0
 18 12  1  0
 19 18  1  0
  1 22  1  0
  1 23  1  0
  2 24  1  6
  3 25  1  0
  3 26  1  0
  4 27  1  6
  6 28  1  0
  7 29  1  0
  8 30  1  0
  9 31  1  0
 10 32  1  0
 11 33  1  0
 11 34  1  0
 13 35  1  0
 14 36  1  0
M  ISO  8  22   8  23   8  24  13  25  13  26  13  27  13  28  14  29  14
M  ISO  7  30  14  31  14  32  14  33   8  34   8  35  14  36  14
M  END
>  <minimizedAffinity>  (1) 
-6.93788242

>  <minimizedRMSD>  (1) 
0.837406456

$$$$
