
     RDKit          3D

 40 43  0  0  1  0  0  0  0  0999 V2000
   43.3780   33.7590   41.1350 C   0  0  1  0  0  0  0  0  0  0  0  0
   42.0440   33.1770   41.3260 C   0  0  0  0  0  0  0  0  0  0  0  0
   42.6360   33.2560   39.9640 C   0  0  1  0  0  0  0  0  0  0  0  0
   41.9100   34.1580   39.0420 C   0  0  0  0  0  0  0  0  0  0  0  0
   42.3070   35.3450   38.5640 N   0  0  0  0  0  0  0  0  0  0  0  0
   41.5220   36.0500   37.7260 C   0  0  0  0  0  0  0  0  0  0  0  0
   40.2990   35.5990   37.3260 N   0  0  0  0  0  0  0  0  0  0  0  0
   39.8750   34.3990   37.7970 C   0  0  0  0  0  0  0  0  0  0  0  0
   38.6340   33.9730   37.3710 C   0  0  0  0  0  0  0  0  0  0  0  0
   38.1440   32.7540   37.8180 C   0  0  0  0  0  0  0  0  0  0  0  0
   38.9160   32.0000   38.6780 C   0  0  0  0  0  0  0  0  0  0  0  0
   40.1540   32.4440   39.0900 C   0  0  0  0  0  0  0  0  0  0  0  0
   40.6610   33.6650   38.6510 C   0  0  0  0  0  0  0  0  0  0  0  0
   43.6600   35.2100   41.3240 C   0  0  0  0  0  0  0  0  0  0  0  0
   44.1580   35.5720   42.7020 C   0  0  0  0  0  0  0  0  0  0  0  0
   47.7920   34.9760   42.3110 C   0  0  0  0  0  0  0  0  0  0  0  0
   48.0530   34.0030   43.3010 C   0  0  0  0  0  0  0  0  0  0  0  0
   46.9700   33.5700   44.0850 C   0  0  0  0  0  0  0  0  0  0  0  0
   45.7650   34.1160   43.8340 N   0  0  0  0  0  0  0  0  0  0  0  0
   45.5420   35.0380   42.8880 C   0  0  0  0  0  0  0  0  0  0  0  0
   46.5520   35.4720   42.1230 N   0  0  0  0  0  0  0  0  0  0  0  0
   48.9630   35.4210   41.4860 C   0  0  0  0  0  0  0  0  0  0  0  0
   48.6540   35.3880   40.1650 F   0  0  0  0  0  0  0  0  0  0  0  0
   49.2970   36.7260   41.8110 F   0  0  0  0  0  0  0  0  0  0  0  0
   50.0100   34.5530   41.7100 F   0  0  0  0  0  0  0  0  0  0  0  0
   44.3697   33.5675   41.5706 H   0  0  0  0  0  0  0  0  0  0  0  0
   41.9350   32.2018   41.8230 H   0  0  0  0  0  0  0  0  0  0  0  0
   41.1052   33.5167   41.7878 H   0  0  0  0  0  0  0  0  0  0  0  0
   42.9261   32.5805   39.1458 H   0  0  0  0  0  0  0  0  0  0  0  0
   41.8794   37.0209   37.3524 H   0  0  0  0  0  0  0  0  0  0  0  0
   38.0391   34.5930   36.6842 H   0  0  0  0  0  0  0  0  0  0  0  0
   37.1567   32.3948   37.4922 H   0  0  0  0  0  0  0  0  0  0  0  0
   38.5385   31.0321   39.0394 H   0  0  0  0  0  0  0  0  0  0  0  0
   40.7508   31.8248   39.7759 H   0  0  0  0  0  0  0  0  0  0  0  0
   44.4238   35.5107   40.5917 H   0  0  0  0  0  0  0  0  0  0  0  0
   42.7044   35.7370   41.1861 H   0  0  0  0  0  0  0  0  0  0  0  0
   44.1694   36.6664   42.8120 H   0  0  0  0  0  0  0  0  0  0  0  0
   43.4912   35.1343   43.4595 H   0  0  0  0  0  0  0  0  0  0  0  0
   49.0651   33.5996   43.4525 H   0  0  0  0  0  0  0  0  0  0  0  0
   47.1016   32.8142   44.8733 H   0  0  0  0  0  0  0  0  0  0  0  0
  1 14  1  0
  1  2  1  0
  3  1  1  0
  3  2  1  0
  4  3  1  0
  5  4  2  0
  6  5  1  0
  7  6  2  0
  7  8  1  0
  8 13  2  0
  9  8  1  0
  9 10  2  0
 10 11  1  0
 11 12  2  0
 13  4  1  0
 13 12  1  0
 14 15  1  0
 15 20  1  0
 16 17  2  0
 17 18  1  0
 19 18  2  0
 20 19  1  0
 21 16  1  0
 21 20  2  0
 22 25  1  0
 22 24  1  0
 22 16  1  0
 23 22  1  0
  1 26  1  1
  2 27  1  0
  2 28  1  0
  3 29  1  6
  6 30  1  0
  9 31  1  0
 10 32  1  0
 11 33  1  0
 12 34  1  0
 14 35  1  0
 14 36  1  0
 15 37  1  0
 15 38  1  0
 17 39  1  0
 18 40  1  0
M  ISO  8  26  13  27  13  28  13  29  13  30  14  31  14  32  14  33  14
M  ISO  7  34  14  35   8  36   8  37   8  38   8  39  14  40  14
M  END
>  <minimizedAffinity>  (1) 
-6.84729099

>  <minimizedRMSD>  (1) 
2.1925621

$$$$
