
     RDKit          3D

 28 29  0  0  0  0  0  0  0  0999 V2000
   46.3760   34.8730   41.7980 C   0  0  0  0  0  0  0  0  0  0  0  0
   44.4690   35.9750   44.9070 C   0  0  0  0  0  0  0  0  0  0  0  0
   44.9560   36.0220   43.5950 C   0  0  0  0  0  0  0  0  0  0  0  0
   45.7710   34.9690   43.1820 C   0  0  0  0  0  0  0  0  0  0  0  0
   46.0480   33.9540   44.0720 N   0  0  0  0  0  0  0  0  0  0  0  0
   45.5470   33.9630   45.3300 C   0  0  0  0  0  0  0  0  0  0  0  0
   44.7680   34.9590   45.7400 N   0  0  0  0  0  0  0  0  0  0  0  0
   47.8930   34.9650   41.9060 C   0  0  0  0  0  0  0  0  0  0  0  0
   48.5520   34.1570   40.9320 N   0  0  0  0  0  0  0  0  0  0  0  0
   48.1110   34.3490   39.5950 C   0  0  0  0  0  0  0  0  0  0  0  0
   48.3010   33.2530   38.6400 C   0  0  0  0  0  0  0  0  0  0  0  0
   48.9810   32.0930   39.0680 N   0  0  0  0  0  0  0  0  0  0  0  0
   49.6620   32.1530   40.3010 C   0  0  0  0  0  0  0  0  0  0  0  0
   48.7940   32.8200   41.3370 C   0  0  0  0  0  0  0  0  0  0  0  0
   46.0010   35.6981   41.1747 H   0  0  0  0  0  0  0  0  0  0  0  0
   46.0961   33.9136   41.3384 H   0  0  0  0  0  0  0  0  0  0  0  0
   43.8244   36.7902   45.2676 H   0  0  0  0  0  0  0  0  0  0  0  0
   44.7064   36.8536   42.9196 H   0  0  0  0  0  0  0  0  0  0  0  0
   45.7867   33.1392   46.0184 H   0  0  0  0  0  0  0  0  0  0  0  0
   48.1957   36.0125   41.7610 H   0  0  0  0  0  0  0  0  0  0  0  0
   48.1838   34.5988   42.9017 H   0  0  0  0  0  0  0  0  0  0  0  0
   47.6402   35.2936   39.2851 H   0  0  0  0  0  0  0  0  0  0  0  0
   47.9212   33.3333   37.6108 H   0  0  0  0  0  0  0  0  0  0  0  0
   48.9799   31.2336   38.5002 H   0  0  0  0  0  0  0  0  0  0  0  0
   49.9062   31.1329   40.6323 H   0  0  0  0  0  0  0  0  0  0  0  0
   50.5865   32.7356   40.1750 H   0  0  0  0  0  0  0  0  0  0  0  0
   49.3076   32.8147   42.3097 H   0  0  0  0  0  0  0  0  0  0  0  0
   47.8414   32.2786   41.4339 H   0  0  0  0  0  0  0  0  0  0  0  0
  1  8  1  0
  1  4  1  0
  2  7  2  0
  3  2  1  0
  4  3  2  0
  4  5  1  0
  5  6  2  0
  6  7  1  0
  9 14  1  0
  9  8  1  0
 10  9  1  0
 11 12  1  0
 11 10  2  0
 12 13  1  0
 13 14  1  0
  1 15  1  0
  1 16  1  0
  2 17  1  0
  3 18  1  0
  6 19  1  0
  8 20  1  0
  8 21  1  0
 10 22  1  0
 11 23  1  0
 12 24  1  0
 13 25  1  0
 13 26  1  0
 14 27  1  0
 14 28  1  0
M  ISO  8  15   8  16   8  17  14  18  14  19  14  20   8  21   8  22  13
M  ISO  5  23  13  25  13  26  13  27  13  28  13
M  END
>  <minimizedAffinity>  (1) 
-4.02511024

>  <minimizedRMSD>  (1) 
2.10983157

$$$$
