
     RDKit          3D

 32 34  0  0  1  0  0  0  0  0999 V2000
   43.4370   35.1930   41.2540 C   0  0  0  0  0  0  0  0  0  0  0  0
   41.9490   34.9800   41.1400 C   0  0  1  0  0  0  0  0  0  0  0  0
   41.0280   36.1520   41.2160 C   0  0  0  0  0  0  0  0  0  0  0  0
   41.2240   35.4020   39.9280 C   0  0  2  0  0  0  0  0  0  0  0  0
   40.0900   34.5600   39.3970 C   0  0  0  0  0  0  0  0  0  0  0  0
   39.9280   34.5850   37.9650 C   0  0  0  0  0  0  0  0  0  0  0  0
   38.4810   33.4570   37.7520 S   0  0  0  0  0  0  0  0  0  0  0  0
   38.3620   33.1570   39.6450 C   0  0  0  0  0  0  0  0  0  0  0  0
   39.2650   33.8220   40.1470 N   0  0  0  0  0  0  0  0  0  0  0  0
   43.9230   35.5430   42.6220 C   0  0  0  0  0  0  0  0  0  0  0  0
   47.5570   34.9090   42.2710 C   0  0  0  0  0  0  0  0  0  0  0  0
   47.8110   34.0030   43.3190 C   0  0  0  0  0  0  0  0  0  0  0  0
   46.7280   33.6240   44.1310 C   0  0  0  0  0  0  0  0  0  0  0  0
   45.5190   34.1580   43.8450 N   0  0  0  0  0  0  0  0  0  0  0  0
   45.3040   35.0230   42.8350 C   0  0  0  0  0  0  0  0  0  0  0  0
   46.3140   35.4050   42.0430 N   0  0  0  0  0  0  0  0  0  0  0  0
   48.7290   35.2930   41.4260 C   0  0  0  0  0  0  0  0  0  0  0  0
   48.3860   35.2630   40.1040 F   0  0  0  0  0  0  0  0  0  0  0  0
   49.1410   36.5690   41.7330 F   0  0  0  0  0  0  0  0  0  0  0  0
   49.7280   34.3480   41.6020 F   0  0  0  0  0  0  0  0  0  0  0  0
   43.7176   36.0101   40.5731 H   0  0  0  0  0  0  0  0  0  0  0  0
   43.9050   34.2307   40.9991 H   0  0  0  0  0  0  0  0  0  0  0  0
   42.0445   34.0294   41.6853 H   0  0  0  0  0  0  0  0  0  0  0  0
   40.0766   36.0731   41.7625 H   0  0  0  0  0  0  0  0  0  0  0  0
   41.1188   37.2011   41.5339 H   0  0  0  0  0  0  0  0  0  0  0  0
   41.5249   35.6685   38.9041 H   0  0  0  0  0  0  0  0  0  0  0  0
   40.5087   35.1285   37.2051 H   0  0  0  0  0  0  0  0  0  0  0  0
   37.6352   32.5209   40.1714 H   0  0  0  0  0  0  0  0  0  0  0  0
   43.9267   36.6371   42.7358 H   0  0  0  0  0  0  0  0  0  0  0  0
   43.2526   35.0864   43.3651 H   0  0  0  0  0  0  0  0  0  0  0  0
   48.8215   33.6059   43.4959 H   0  0  0  0  0  0  0  0  0  0  0  0
   46.8588   32.9205   44.9665 H   0  0  0  0  0  0  0  0  0  0  0  0
  1 10  1  0
  2  3  1  0
  2  1  1  0
  4  2  1  0
  4  3  1  0
  5  4  1  0
  5  9  1  0
  6  5  2  0
  7  6  1  0
  7  8  1  0
  8  9  2  0
 10 15  1  0
 11 12  2  0
 12 13  1  0
 14 13  2  0
 15 14  1  0
 16 11  1  0
 16 15  2  0
 17 20  1  0
 17 19  1  0
 17 11  1  0
 18 17  1  0
  1 21  1  0
  1 22  1  0
  2 23  1  1
  3 24  1  0
  3 25  1  0
  4 26  1  6
  6 27  1  0
  8 28  1  0
 10 29  1  0
 10 30  1  0
 12 31  1  0
 13 32  1  0
M  ISO  8  21   8  22   8  23  13  24  13  25  13  26  13  27  14  28  14
M  ISO  4  29   8  30   8  31  14  32  14
M  END
>  <minimizedAffinity>  (1) 
-5.87217045

>  <minimizedRMSD>  (1) 
0.831800342

$$$$
