
     RDKit          3D

 39 41  0  0  1  0  0  0  0  0999 V2000
   43.5510   34.9510   41.4330 C   0  0  0  0  0  0  0  0  0  0  0  0
   43.8520   33.4970   41.2130 C   0  0  1  0  0  0  0  0  0  0  0  0
   42.9620   32.4410   41.7330 C   0  0  0  0  0  0  0  0  0  0  0  0
   43.0670   32.6810   40.2700 C   0  0  1  0  0  0  0  0  0  0  0  0
   41.9880   33.1970   39.4980 N   0  0  0  0  0  0  0  0  0  0  0  0
   42.0890   34.4100   38.8950 C   0  0  0  0  0  0  0  0  0  0  0  0
   41.0380   34.9040   38.1490 C   0  0  0  0  0  0  0  0  0  0  0  0
   41.2260   36.2460   37.5180 C   0  0  0  0  0  0  0  0  0  0  0  0
   39.8870   34.1510   38.0240 C   0  0  0  0  0  0  0  0  0  0  0  0
   38.9420   34.6050   37.3480 O   0  0  0  0  0  0  0  0  0  0  0  0
   39.8660   32.9600   38.6510 N   0  0  0  0  0  0  0  0  0  0  0  0
   40.8650   32.4470   39.3840 C   0  0  0  0  0  0  0  0  0  0  0  0
   40.8100   31.3400   39.9520 O   0  0  0  0  0  0  0  0  0  0  0  0
   44.1310   35.5190   42.6920 C   0  0  0  0  0  0  0  0  0  0  0  0
   47.7710   34.9750   42.3110 C   0  0  0  0  0  0  0  0  0  0  0  0
   48.0460   34.0380   43.3140 C   0  0  0  0  0  0  0  0  0  0  0  0
   46.9800   33.6020   44.1130 C   0  0  0  0  0  0  0  0  0  0  0  0
   45.7690   34.1200   43.8530 N   0  0  0  0  0  0  0  0  0  0  0  0
   45.5210   35.0160   42.8870 C   0  0  0  0  0  0  0  0  0  0  0  0
   46.5290   35.4440   42.1130 N   0  0  0  0  0  0  0  0  0  0  0  0
   48.9400   35.4230   41.4700 C   0  0  0  0  0  0  0  0  0  0  0  0
   48.6130   35.4040   40.1490 F   0  0  0  0  0  0  0  0  0  0  0  0
   49.2760   36.7300   41.8030 F   0  0  0  0  0  0  0  0  0  0  0  0
   49.9820   34.5350   41.6700 F   0  0  0  0  0  0  0  0  0  0  0  0
   42.4586   35.0743   41.4712 H   0  0  0  0  0  0  0  0  0  0  0  0
   44.0151   35.4976   40.5988 H   0  0  0  0  0  0  0  0  0  0  0  0
   44.9195   33.7372   41.3256 H   0  0  0  0  0  0  0  0  0  0  0  0
   43.3892   31.5281   42.1736 H   0  0  0  0  0  0  0  0  0  0  0  0
   42.1373   32.4044   42.4600 H   0  0  0  0  0  0  0  0  0  0  0  0
   43.3077   32.0669   39.3897 H   0  0  0  0  0  0  0  0  0  0  0  0
   43.0111   35.0003   39.0015 H   0  0  0  0  0  0  0  0  0  0  0  0
   41.3329   37.0087   38.3034 H   0  0  0  0  0  0  0  0  0  0  0  0
   42.1312   36.2338   36.8931 H   0  0  0  0  0  0  0  0  0  0  0  0
   40.3523   36.4830   36.8931 H   0  0  0  0  0  0  0  0  0  0  0  0
   39.0099   32.3946   38.5600 H   0  0  0  0  0  0  0  0  0  0  0  0
   44.1475   36.6167   42.6223 H   0  0  0  0  0  0  0  0  0  0  0  0
   43.5119   35.2080   43.5464 H   0  0  0  0  0  0  0  0  0  0  0  0
   49.0657   33.6562   43.4701 H   0  0  0  0  0  0  0  0  0  0  0  0
   47.1292   32.8674   44.9180 H   0  0  0  0  0  0  0  0  0  0  0  0
  1 14  1  0
  2  1  1  0
  2  3  1  0
  4  2  1  0
  4  3  1  0
  5  4  1  0
  6  5  1  0
  7  6  2  0
  8  7  1  0
  9  7  1  0
  9 11  1  0
 10  9  2  0
 11 12  1  0
 12  5  1  0
 12 13  2  0
 14 19  1  0
 15 16  2  0
 16 17  1  0
 18 17  2  0
 19 18  1  0
 20 15  1  0
 20 19  2  0
 21 24  1  0
 21 23  1  0
 21 15  1  0
 22 21  1  0
  1 25  1  0
  1 26  1  0
  2 27  1  6
  3 28  1  0
  3 29  1  0
  4 30  1  6
  6 31  1  0
  8 32  1  0
  8 33  1  0
  8 34  1  0
 11 35  1  0
 14 36  1  0
 14 37  1  0
 16 38  1  0
 17 39  1  0
M  ISO  8  25   8  26   8  27  13  28  13  29  13  30  13  31  14  32   8
M  ISO  7  33   8  34   8  35   9  36   8  37   8  38  14  39  14
M  END
>  <minimizedAffinity>  (1) 
-6.17812777

>  <minimizedRMSD>  (1) 
2.877491

$$$$
