
     RDKit          3D

 28 29  0  0  1  0  0  0  0  0999 V2000
   44.1660   35.6430   42.9710 C   0  0  0  0  0  0  0  0  0  0  0  0
   47.7520   34.9520   42.3370 C   0  0  0  0  0  0  0  0  0  0  0  0
   48.0300   33.9230   43.2700 C   0  0  0  0  0  0  0  0  0  0  0  0
   46.9780   33.4940   44.0920 C   0  0  0  0  0  0  0  0  0  0  0  0
   45.7810   34.0850   43.9420 N   0  0  0  0  0  0  0  0  0  0  0  0
   45.5340   35.0640   43.0480 C   0  0  0  0  0  0  0  0  0  0  0  0
   46.5170   35.4950   42.2470 N   0  0  0  0  0  0  0  0  0  0  0  0
   48.8890   35.3970   41.4670 C   0  0  0  0  0  0  0  0  0  0  0  0
   48.5220   35.3620   40.1650 F   0  0  0  0  0  0  0  0  0  0  0  0
   49.2390   36.6970   41.7810 F   0  0  0  0  0  0  0  0  0  0  0  0
   49.9360   34.5190   41.6300 F   0  0  0  0  0  0  0  0  0  0  0  0
   43.6850   35.6520   41.5600 C   0  0  0  0  0  0  0  0  0  0  0  0
   42.3280   35.0270   41.3510 C   0  0  1  0  0  0  0  0  0  0  0  0
   41.1750   35.8420   40.8940 C   0  0  0  0  0  0  0  0  0  0  0  0
   41.7990   34.8620   39.9830 C   0  0  1  0  0  0  0  0  0  0  0  0
   42.6940   35.3010   38.9200 N   0  0  0  0  0  0  0  0  0  0  0  0
   43.4813   35.0382   43.5836 H   0  0  0  0  0  0  0  0  0  0  0  0
   44.1942   36.6770   43.3453 H   0  0  0  0  0  0  0  0  0  0  0  0
   49.0328   33.4775   43.3468 H   0  0  0  0  0  0  0  0  0  0  0  0
   47.1283   32.6983   44.8365 H   0  0  0  0  0  0  0  0  0  0  0  0
   43.6361   36.6975   41.2216 H   0  0  0  0  0  0  0  0  0  0  0  0
   44.3985   35.0432   40.9854 H   0  0  0  0  0  0  0  0  0  0  0  0
   42.5122   34.3617   42.2074 H   0  0  0  0  0  0  0  0  0  0  0  0
   40.1711   35.6529   41.3019 H   0  0  0  0  0  0  0  0  0  0  0  0
   40.9520   36.9181   40.8460 H   0  0  0  0  0  0  0  0  0  0  0  0
   41.3841   34.0495   39.3685 H   0  0  0  0  0  0  0  0  0  0  0  0
   43.5408   35.7164   39.3338 H   0  0  0  0  0  0  0  0  0  0  0  0
   42.9572   34.4934   38.3374 H   0  0  0  0  0  0  0  0  0  0  0  0
  1  6  1  0
  2  3  2  0
  3  4  1  0
  5  4  2  0
  6  5  1  0
  7  2  1  0
  7  6  2  0
  8 11  1  0
  8 10  1  0
  8  2  1  0
  9  8  1  0
 12  1  1  0
 13 12  1  0
 14 13  1  0
 15 14  1  0
 15 13  1  0
 16 15  1  0
  1 17  1  0
  1 18  1  0
  3 19  1  0
  4 20  1  0
 12 21  1  0
 12 22  1  0
 13 23  1  1
 14 24  1  0
 14 25  1  0
 15 26  1  6
 16 27  1  0
 16 28  1  0
M  ISO  8  17   8  18   8  19  14  20  14  21   8  22   8  23  13  24  13
M  ISO  4  25  13  26  13  27   5  28   5
M  END
>  <minimizedAffinity>  (1) 
-5.1767168

>  <minimizedRMSD>  (1) 
0.231731385

$$$$
