
     RDKit          3D

 33 34  0  0  1  0  0  0  0  0999 V2000
   44.1380   35.6520   42.8100 C   0  0  0  0  0  0  0  0  0  0  0  0
   47.7420   34.9620   42.2930 C   0  0  0  0  0  0  0  0  0  0  0  0
   47.9940   33.9740   43.2510 C   0  0  0  0  0  0  0  0  0  0  0  0
   46.9180   33.5510   44.0710 C   0  0  0  0  0  0  0  0  0  0  0  0
   45.7390   34.1270   43.8700 N   0  0  0  0  0  0  0  0  0  0  0  0
   45.5090   35.0790   42.9410 C   0  0  0  0  0  0  0  0  0  0  0  0
   46.5090   35.4890   42.1620 N   0  0  0  0  0  0  0  0  0  0  0  0
   48.8860   35.3990   41.4360 C   0  0  0  0  0  0  0  0  0  0  0  0
   48.5510   35.3650   40.1310 F   0  0  0  0  0  0  0  0  0  0  0  0
   49.2650   36.6860   41.7680 F   0  0  0  0  0  0  0  0  0  0  0  0
   49.9260   34.4840   41.6230 F   0  0  0  0  0  0  0  0  0  0  0  0
   43.5940   35.3700   41.4410 C   0  0  0  0  0  0  0  0  0  0  0  0
   42.2230   34.7490   41.4390 C   0  0  1  0  0  0  0  0  0  0  0  0
   41.0190   35.5880   41.4660 C   0  0  0  0  0  0  0  0  0  0  0  0
   41.3740   34.8330   40.2170 C   0  0  1  0  0  0  0  0  0  0  0  0
   41.8400   35.5200   39.1240 O   0  0  0  0  0  0  0  0  0  0  0  0
   41.1120   35.3860   37.9710 C   0  0  0  0  0  0  0  0  0  0  0  0
   41.3460   36.5780   37.0920 C   0  0  0  0  0  0  0  0  0  0  0  0
   43.4793   35.1974   43.5647 H   0  0  0  0  0  0  0  0  0  0  0  0
   44.1848   36.7403   42.9633 H   0  0  0  0  0  0  0  0  0  0  0  0
   48.9976   33.5383   43.3645 H   0  0  0  0  0  0  0  0  0  0  0  0
   47.0542   32.7779   44.8416 H   0  0  0  0  0  0  0  0  0  0  0  0
   43.5438   36.3191   40.8872 H   0  0  0  0  0  0  0  0  0  0  0  0
   44.2726   34.6406   40.9747 H   0  0  0  0  0  0  0  0  0  0  0  0
   42.6001   33.9299   42.0689 H   0  0  0  0  0  0  0  0  0  0  0  0
   40.1488   35.2811   42.0649 H   0  0  0  0  0  0  0  0  0  0  0  0
   40.8122   36.6419   41.7039 H   0  0  0  0  0  0  0  0  0  0  0  0
   40.8609   34.1109   39.5649 H   0  0  0  0  0  0  0  0  0  0  0  0
   41.4259   34.4735   37.4429 H   0  0  0  0  0  0  0  0  0  0  0  0
   40.0424   35.3165   38.2182 H   0  0  0  0  0  0  0  0  0  0  0  0
   41.5203   37.4661   37.7172 H   0  0  0  0  0  0  0  0  0  0  0  0
   42.2260   36.3982   36.4570 H   0  0  0  0  0  0  0  0  0  0  0  0
   40.4633   36.7442   36.4570 H   0  0  0  0  0  0  0  0  0  0  0  0
  1  6  1  0
  2  3  2  0
  3  4  1  0
  5  4  2  0
  6  5  1  0
  7  2  1  0
  7  6  2  0
  8 11  1  0
  8 10  1  0
  8  2  1  0
  9  8  1  0
 12  1  1  0
 13 12  1  0
 13 14  1  0
 15 13  1  0
 15 14  1  0
 16 15  1  0
 17 16  1  0
 18 17  1  0
  1 19  1  0
  1 20  1  0
  3 21  1  0
  4 22  1  0
 12 23  1  0
 12 24  1  0
 13 25  1  1
 14 26  1  0
 14 27  1  0
 15 28  1  6
 17 29  1  0
 17 30  1  0
 18 31  1  0
 18 32  1  0
 18 33  1  0
M  ISO  8  19   8  20   8  21  14  22  14  23   8  24   8  25  13  26  13
M  ISO  7  27  13  28  13  29   8  30   8  31   8  32   8  33   8
M  END
>  <minimizedAffinity>  (1) 
-5.30230618

>  <minimizedRMSD>  (1) 
0.423667461

$$$$
