
     RDKit          3D

 31 32  0  0  1  0  0  0  0  0999 V2000
   43.5470   35.5090   41.6390 C   0  0  0  0  0  0  0  0  0  0  0  0
   42.1000   35.0830   41.6940 C   0  0  1  0  0  0  0  0  0  0  0  0
   41.0600   35.9460   41.0970 C   0  0  0  0  0  0  0  0  0  0  0  0
   41.4120   34.6630   40.4580 C   0  0  1  0  0  0  0  0  0  0  0  0
   42.1060   34.5950   39.2670 O   0  0  0  0  0  0  0  0  0  0  0  0
   41.6730   35.2190   38.1030 C   0  0  0  0  0  0  0  0  0  0  0  0
   42.7080   35.9210   37.3980 N   0  0  0  0  0  0  0  0  0  0  0  0
   40.4900   35.2260   37.6230 O   0  0  0  0  0  0  0  0  0  0  0  0
   44.1600   35.7800   42.9840 C   0  0  0  0  0  0  0  0  0  0  0  0
   47.7080   34.9580   42.3210 C   0  0  0  0  0  0  0  0  0  0  0  0
   47.9670   33.9310   43.2330 C   0  0  0  0  0  0  0  0  0  0  0  0
   46.9060   33.5200   44.0830 C   0  0  0  0  0  0  0  0  0  0  0  0
   45.7490   34.1500   43.9400 N   0  0  0  0  0  0  0  0  0  0  0  0
   45.5130   35.1490   43.0460 C   0  0  0  0  0  0  0  0  0  0  0  0
   46.5010   35.5440   42.2430 N   0  0  0  0  0  0  0  0  0  0  0  0
   48.8520   35.3710   41.4330 C   0  0  0  0  0  0  0  0  0  0  0  0
   48.4710   35.3080   40.1290 F   0  0  0  0  0  0  0  0  0  0  0  0
   49.2470   36.6550   41.7250 F   0  0  0  0  0  0  0  0  0  0  0  0
   49.8810   34.4600   41.5930 F   0  0  0  0  0  0  0  0  0  0  0  0
   44.1239   34.7093   41.1516 H   0  0  0  0  0  0  0  0  0  0  0  0
   43.5770   36.4564   41.0808 H   0  0  0  0  0  0  0  0  0  0  0  0
   42.2638   34.6324   42.6840 H   0  0  0  0  0  0  0  0  0  0  0  0
   40.0877   36.0626   41.5980 H   0  0  0  0  0  0  0  0  0  0  0  0
   41.0145   36.9938   40.7653 H   0  0  0  0  0  0  0  0  0  0  0  0
   40.8320   33.7861   40.1344 H   0  0  0  0  0  0  0  0  0  0  0  0
   42.4893   36.4172   36.5223 H   0  0  0  0  0  0  0  0  0  0  0  0
   43.6693   35.9285   37.7679 H   0  0  0  0  0  0  0  0  0  0  0  0
   44.2537   36.8658   43.1331 H   0  0  0  0  0  0  0  0  0  0  0  0
   43.5199   35.3577   43.7726 H   0  0  0  0  0  0  0  0  0  0  0  0
   48.9582   33.4575   43.2904 H   0  0  0  0  0  0  0  0  0  0  0  0
   47.0382   32.7178   44.8239 H   0  0  0  0  0  0  0  0  0  0  0  0
  1  2  1  0
  1  9  1  0
  3  2  1  0
  4  3  1  0
  4  2  1  0
  5  4  1  0
  6  5  1  0
  7  6  1  0
  8  6  2  0
  9 14  1  0
 10 11  2  0
 11 12  1  0
 13 12  2  0
 14 13  1  0
 15 10  1  0
 15 14  2  0
 16 19  1  0
 16 18  1  0
 16 10  1  0
 17 16  1  0
  1 20  1  0
  1 21  1  0
  2 22  1  1
  3 23  1  0
  3 24  1  0
  4 25  1  1
  7 26  1  0
  7 27  1  0
  9 28  1  0
  9 29  1  0
 11 30  1  0
 12 31  1  0
M  ISO  8  20   8  21   8  22  13  23  13  24  13  25  13  28   8  29   8
M  ISO  2  30  14  31  14
M  END
>  <minimizedAffinity>  (1) 
-5.5983448

>  <minimizedRMSD>  (1) 
0.554991066

$$$$
