
     RDKit          3D

 53 56  0  0  1  0  0  0  0  0999 V2000
   43.4200   34.6440   40.2930 C   0  0  0  0  0  0  0  0  0  0  0  0
   43.2800   33.1680   40.4860 C   0  0  1  0  0  0  0  0  0  0  0  0
   42.3680   32.6120   41.5100 C   0  0  0  0  0  0  0  0  0  0  0  0
   42.0570   32.4920   40.0220 C   0  0  1  0  0  0  0  0  0  0  0  0
   40.9890   33.1260   39.5840 O   0  0  0  0  0  0  0  0  0  0  0  0
   38.0560   32.9700   38.4490 N   0  0  0  0  0  0  0  0  0  0  0  0
   38.7430   31.7770   38.1010 C   0  0  0  0  0  0  0  0  0  0  0  0
   40.1570   31.9080   37.7680 C   0  0  0  0  0  0  0  0  0  0  0  0
   40.8090   33.3060   38.2320 C   0  0  1  0  0  0  0  0  0  0  0  0
   39.9880   34.3230   37.6620 C   0  0  0  0  0  0  0  0  0  0  0  0
   38.5270   34.1440   37.8140 C   0  0  0  0  0  0  0  0  0  0  0  0
   43.6050   35.4070   41.5680 C   0  0  0  0  0  0  0  0  0  0  0  0
   47.2150   34.8840   42.1800 C   0  0  0  0  0  0  0  0  0  0  0  0
   47.2270   34.3120   43.4720 C   0  0  0  0  0  0  0  0  0  0  0  0
   45.9930   34.1210   44.1000 C   0  0  0  0  0  0  0  0  0  0  0  0
   44.8920   34.4940   43.4340 N   0  0  0  0  0  0  0  0  0  0  0  0
   44.9100   35.0440   42.1910 C   0  0  0  0  0  0  0  0  0  0  0  0
   46.0700   35.2370   41.5680 N   0  0  0  0  0  0  0  0  0  0  0  0
   45.9500   33.5480   45.4030 N   0  0  0  0  0  0  0  0  0  0  0  0
   46.6910   32.4800   45.7510 C   0  0  0  0  0  0  0  0  0  0  0  0
   46.6050   31.9710   47.0310 C   0  0  0  0  0  0  0  0  0  0  0  0
   47.4220   30.7870   47.4290 C   0  0  0  0  0  0  0  0  0  0  0  0
   45.7450   32.5860   47.9250 C   0  0  0  0  0  0  0  0  0  0  0  0
   45.6580   32.1260   49.1060 O   0  0  0  0  0  0  0  0  0  0  0  0
   45.0170   33.6600   47.5310 N   0  0  0  0  0  0  0  0  0  0  0  0
   45.1190   34.1380   46.2770 C   0  0  0  0  0  0  0  0  0  0  0  0
   44.3940   35.1340   46.0360 O   0  0  0  0  0  0  0  0  0  0  0  0
   48.5440   35.0790   41.5130 C   0  0  0  0  0  0  0  0  0  0  0  0
   48.3970   35.0980   40.1580 F   0  0  0  0  0  0  0  0  0  0  0  0
   49.1240   36.2460   41.9480 F   0  0  0  0  0  0  0  0  0  0  0  0
   49.3400   33.9620   41.7970 F   0  0  0  0  0  0  0  0  0  0  0  0
   44.2928   34.8280   39.6493 H   0  0  0  0  0  0  0  0  0  0  0  0
   42.4811   34.9979   39.8421 H   0  0  0  0  0  0  0  0  0  0  0  0
   44.3554   33.0469   40.2891 H   0  0  0  0  0  0  0  0  0  0  0  0
   42.6606   31.7230   42.0879 H   0  0  0  0  0  0  0  0  0  0  0  0
   41.8438   33.0070   42.3927 H   0  0  0  0  0  0  0  0  0  0  0  0
   41.8834   31.7007   39.2779 H   0  0  0  0  0  0  0  0  0  0  0  0
   37.2711   32.9803   39.1158 H   0  0  0  0  0  0  0  0  0  0  0  0
   38.6641   31.0863   38.9535 H   0  0  0  0  0  0  0  0  0  0  0  0
   38.2603   31.4247   37.1775 H   0  0  0  0  0  0  0  0  0  0  0  0
   40.7056   31.0902   38.2581 H   0  0  0  0  0  0  0  0  0  0  0  0
   40.2322   31.8686   36.6713 H   0  0  0  0  0  0  0  0  0  0  0  0
   41.7995   33.6388   37.8882 H   0  0  0  0  0  0  0  0  0  0  0  0
   40.4162   35.1909   37.1392 H   0  0  0  0  0  0  0  0  0  0  0  0
   37.8244   34.9045   37.4427 H   0  0  0  0  0  0  0  0  0  0  0  0
   43.5908   36.4857   41.3530 H   0  0  0  0  0  0  0  0  0  0  0  0
   42.7896   35.1558   42.2623 H   0  0  0  0  0  0  0  0  0  0  0  0
   48.1693   34.0285   43.9636 H   0  0  0  0  0  0  0  0  0  0  0  0
   47.3641   32.0135   45.0166 H   0  0  0  0  0  0  0  0  0  0  0  0
   47.4656   30.7238   48.5263 H   0  0  0  0  0  0  0  0  0  0  0  0
   46.9620   29.8722   47.0270 H   0  0  0  0  0  0  0  0  0  0  0  0
   48.4405   30.8924   47.0270 H   0  0  0  0  0  0  0  0  0  0  0  0
   44.3787   34.1152   48.1990 H   0  0  0  0  0  0  0  0  0  0  0  0
  1  2  1  0
  1 12  1  0
  2  3  1  0
  4  2  1  0
  4  3  1  0
  5  4  1  0
  7  6  1  0
  8  7  1  0
  8  9  1  0
  9  5  1  0
 10 11  2  0
 10  9  1  0
 11  6  1  0
 12 17  1  0
 13 14  2  0
 14 15  1  0
 15 19  1  0
 16 15  2  0
 17 16  1  0
 18 13  1  0
 18 17  2  0
 19 20  1  0
 19 26  1  0
 20 21  2  0
 21 22  1  0
 21 23  1  0
 23 24  2  0
 25 23  1  0
 26 25  1  0
 27 26  2  0
 28 31  1  0
 28 30  1  0
 28 13  1  0
 29 28  1  0
  1 32  1  0
  1 33  1  0
  2 34  1  6
  3 35  1  0
  3 36  1  0
  4 37  1  6
  6 38  1  0
  7 39  1  0
  7 40  1  0
  8 41  1  0
  8 42  1  0
  9 43  1  6
 10 44  1  0
 11 45  1  0
 12 46  1  0
 12 47  1  0
 14 48  1  0
 20 49  1  0
 22 50  1  0
 22 51  1  0
 22 52  1  0
 25 53  1  0
M  ISO  8  32   8  33   8  34  13  35  13  36  13  37  13  39  13  40  13
M  ISO  8  41  13  42  13  43  13  44  13  45  13  46   8  47   8  48  14
M  ISO  5  49  14  50   8  51   8  52   8  53   9
M  END
>  <minimizedAffinity>  (1) 
-7.60891819

>  <minimizedRMSD>  (1) 
1.57716298

$$$$
