
     RDKit          3D

 56 59  0  0  1  0  0  0  0  0999 V2000
   43.6010   35.3650   41.1970 C   0  0  0  0  0  0  0  0  0  0  0  0
   43.6510   33.9110   40.8410 C   0  0  1  0  0  0  0  0  0  0  0  0
   42.7070   32.9430   41.4320 C   0  0  0  0  0  0  0  0  0  0  0  0
   42.6090   33.3490   39.9660 C   0  0  1  0  0  0  0  0  0  0  0  0
   41.5290   34.0030   39.5970 O   0  0  0  0  0  0  0  0  0  0  0  0
   38.6660   32.8760   38.9240 N   0  0  0  0  0  0  0  0  0  0  0  0
   39.6360   31.9070   38.5540 C   0  0  0  0  0  0  0  0  0  0  0  0
   40.8910   32.4100   38.0090 C   0  0  0  0  0  0  0  0  0  0  0  0
   41.1370   33.9790   38.2770 C   0  0  1  0  0  0  0  0  0  0  0  0
   39.9750   34.6450   37.7810 C   0  0  0  0  0  0  0  0  0  0  0  0
   38.6750   34.0690   38.1600 C   0  0  0  0  0  0  0  0  0  0  0  0
   44.0560   35.6660   42.5900 C   0  0  0  0  0  0  0  0  0  0  0  0
   47.6820   35.0050   42.2800 C   0  0  0  0  0  0  0  0  0  0  0  0
   47.9100   34.0570   43.2990 C   0  0  0  0  0  0  0  0  0  0  0  0
   46.8060   33.6630   44.0770 C   0  0  0  0  0  0  0  0  0  0  0  0
   45.6250   34.2160   43.7930 N   0  0  0  0  0  0  0  0  0  0  0  0
   45.4340   35.1320   42.8000 C   0  0  0  0  0  0  0  0  0  0  0  0
   46.4630   35.5250   42.0450 N   0  0  0  0  0  0  0  0  0  0  0  0
   47.0430   32.6780   45.1370 C   0  0  0  0  0  0  0  0  0  0  0  0
   46.4530   31.3180   44.7510 C   0  0  0  0  0  0  0  0  0  0  0  0
   47.1220   30.3180   45.6750 C   0  0  0  0  0  0  0  0  0  0  0  0
   46.7870   30.6260   47.1000 C   0  0  0  0  0  0  0  0  0  0  0  0
   46.9470   32.0580   47.4940 C   0  0  0  0  0  0  0  0  0  0  0  0
   46.4700   33.0470   46.4630 C   0  0  0  0  0  0  0  0  0  0  0  0
   48.8680   35.4120   41.4550 C   0  0  0  0  0  0  0  0  0  0  0  0
   48.5650   35.3540   40.1270 F   0  0  0  0  0  0  0  0  0  0  0  0
   49.2710   36.6780   41.8000 F   0  0  0  0  0  0  0  0  0  0  0  0
   49.8820   34.4670   41.6590 F   0  0  0  0  0  0  0  0  0  0  0  0
   42.5627   35.7120   41.0896 H   0  0  0  0  0  0  0  0  0  0  0  0
   44.2931   35.8833   40.5170 H   0  0  0  0  0  0  0  0  0  0  0  0
   44.7492   33.9643   40.8061 H   0  0  0  0  0  0  0  0  0  0  0  0
   43.0480   31.9335   41.7051 H   0  0  0  0  0  0  0  0  0  0  0  0
   42.0225   32.9394   42.2931 H   0  0  0  0  0  0  0  0  0  0  0  0
   42.6470   32.8731   38.9750 H   0  0  0  0  0  0  0  0  0  0  0  0
   38.0011   32.7219   39.6954 H   0  0  0  0  0  0  0  0  0  0  0  0
   39.8753   31.3161   39.4504 H   0  0  0  0  0  0  0  0  0  0  0  0
   39.1747   31.3351   37.7354 H   0  0  0  0  0  0  0  0  0  0  0  0
   40.8892   32.2405   36.9221 H   0  0  0  0  0  0  0  0  0  0  0  0
   41.7007   31.8682   38.5198 H   0  0  0  0  0  0  0  0  0  0  0  0
   41.9261   34.5467   37.7621 H   0  0  0  0  0  0  0  0  0  0  0  0
   40.0480   35.5420   37.1485 H   0  0  0  0  0  0  0  0  0  0  0  0
   37.7342   34.5524   37.8578 H   0  0  0  0  0  0  0  0  0  0  0  0
   44.0590   36.7549   42.7456 H   0  0  0  0  0  0  0  0  0  0  0  0
   43.3698   35.1904   43.3062 H   0  0  0  0  0  0  0  0  0  0  0  0
   48.9126   33.6416   43.4786 H   0  0  0  0  0  0  0  0  0  0  0  0
   48.1378   32.6410   45.2375 H   0  0  0  0  0  0  0  0  0  0  0  0
   45.3634   31.3134   44.9015 H   0  0  0  0  0  0  0  0  0  0  0  0
   46.6276   31.0797   43.6914 H   0  0  0  0  0  0  0  0  0  0  0  0
   46.7701   29.3050   45.4299 H   0  0  0  0  0  0  0  0  0  0  0  0
   48.2121   30.3797   45.5414 H   0  0  0  0  0  0  0  0  0  0  0  0
   45.7390   30.3402   47.2730 H   0  0  0  0  0  0  0  0  0  0  0  0
   47.5031   30.0583   47.7123 H   0  0  0  0  0  0  0  0  0  0  0  0
   46.3771   32.2252   48.4199 H   0  0  0  0  0  0  0  0  0  0  0  0
   48.0266   32.2299   47.6161 H   0  0  0  0  0  0  0  0  0  0  0  0
   46.8024   34.0583   46.7402 H   0  0  0  0  0  0  0  0  0  0  0  0
   45.3713   33.0303   46.4114 H   0  0  0  0  0  0  0  0  0  0  0  0
  1 12  1  0
  2  1  1  0
  2  3  1  0
  4  2  1  0
  4  3  1  0
  5  4  1  0
  7  6  1  0
  8  9  1  0
  8  7  1  0
  9  5  1  0
 10 11  2  0
 10  9  1  0
 11  6  1  0
 12 17  1  0
 13 14  2  0
 14 15  1  0
 15 19  1  0
 16 15  2  0
 17 16  1  0
 18 13  1  0
 18 17  2  0
 19 24  1  0
 20 19  1  0
 20 21  1  0
 21 22  1  0
 22 23  1  0
 24 23  1  0
 25 28  1  0
 25 27  1  0
 25 13  1  0
 26 25  1  0
  1 29  1  0
  1 30  1  0
  2 31  1  6
  3 32  1  0
  3 33  1  0
  4 34  1  6
  6 35  1  0
  7 36  1  0
  7 37  1  0
  8 38  1  0
  8 39  1  0
  9 40  1  6
 10 41  1  0
 11 42  1  0
 12 43  1  0
 12 44  1  0
 14 45  1  0
 19 46  1  0
 20 47  1  0
 20 48  1  0
 21 49  1  0
 21 50  1  0
 22 51  1  0
 22 52  1  0
 23 53  1  0
 23 54  1  0
 24 55  1  0
 24 56  1  0
M  ISO  8  29   8  30   8  31  13  32  13  33  13  34  13  36  13  37  13
M  ISO  8  38  13  39  13  40  13  41  13  42  13  43   8  44   8  45  14
M  ISO  8  46  13  47  13  48  13  49  13  50  13  51  13  52  13  53  13
M  ISO  3  54  13  55  13  56  13
M  END
>  <minimizedAffinity>  (1) 
-6.53375149

>  <minimizedRMSD>  (1) 
0.292230427

$$$$
