
     RDKit          3D

 47 50  0  0  1  0  0  0  0  0999 V2000
   43.5490   35.2550   41.0490 C   0  0  0  0  0  0  0  0  0  0  0  0
   43.5040   33.7830   40.7720 C   0  0  1  0  0  0  0  0  0  0  0  0
   42.5120   32.9080   41.4250 C   0  0  0  0  0  0  0  0  0  0  0  0
   42.4150   33.2420   39.9410 C   0  0  1  0  0  0  0  0  0  0  0  0
   41.3670   33.9420   39.5590 O   0  0  0  0  0  0  0  0  0  0  0  0
   38.5280   32.7600   38.8840 N   0  0  0  0  0  0  0  0  0  0  0  0
   39.5150   31.8140   38.5060 C   0  0  0  0  0  0  0  0  0  0  0  0
   40.7590   32.3450   37.9630 C   0  0  0  0  0  0  0  0  0  0  0  0
   40.9750   33.9160   38.2380 C   0  0  1  0  0  0  0  0  0  0  0  0
   39.8050   34.5610   37.7460 C   0  0  0  0  0  0  0  0  0  0  0  0
   38.5090   33.9520   38.1230 C   0  0  0  0  0  0  0  0  0  0  0  0
   43.9440   35.5990   42.4500 C   0  0  0  0  0  0  0  0  0  0  0  0
   47.5800   34.9550   42.2520 C   0  0  0  0  0  0  0  0  0  0  0  0
   47.8000   34.1120   43.3590 C   0  0  0  0  0  0  0  0  0  0  0  0
   46.6910   33.7840   44.1520 C   0  0  0  0  0  0  0  0  0  0  0  0
   45.5070   34.2930   43.8020 N   0  0  0  0  0  0  0  0  0  0  0  0
   45.3270   35.1090   42.7220 C   0  0  0  0  0  0  0  0  0  0  0  0
   46.3620   35.4360   41.9530 N   0  0  0  0  0  0  0  0  0  0  0  0
   46.8680   32.9140   45.3080 C   0  0  0  0  0  0  0  0  0  0  0  0
   47.0690   31.5520   45.2130 C   0  0  0  0  0  0  0  0  0  0  0  0
   47.1900   31.0850   46.4690 N   0  0  0  0  0  0  0  0  0  0  0  0
   47.0630   32.1450   47.2810 C   0  0  0  0  0  0  0  0  0  0  0  0
   46.8620   33.3020   46.5960 N   0  0  0  0  0  0  0  0  0  0  0  0
   48.7750   35.2960   41.4090 C   0  0  0  0  0  0  0  0  0  0  0  0
   48.4530   35.2380   40.0860 F   0  0  0  0  0  0  0  0  0  0  0  0
   49.2410   36.5450   41.7360 F   0  0  0  0  0  0  0  0  0  0  0  0
   49.7440   34.3050   41.6140 F   0  0  0  0  0  0  0  0  0  0  0  0
   42.5496   35.6734   40.8588 H   0  0  0  0  0  0  0  0  0  0  0  0
   44.3190   35.6796   40.3881 H   0  0  0  0  0  0  0  0  0  0  0  0
   44.6027   33.7656   40.7217 H   0  0  0  0  0  0  0  0  0  0  0  0
   42.7947   31.8948   41.7468 H   0  0  0  0  0  0  0  0  0  0  0  0
   41.8426   32.9921   42.2938 H   0  0  0  0  0  0  0  0  0  0  0  0
   42.4094   32.7158   38.9750 H   0  0  0  0  0  0  0  0  0  0  0  0
   37.8708   32.5906   39.6588 H   0  0  0  0  0  0  0  0  0  0  0  0
   39.7671   31.2214   39.3978 H   0  0  0  0  0  0  0  0  0  0  0  0
   39.0636   31.2393   37.6838 H   0  0  0  0  0  0  0  0  0  0  0  0
   40.7596   32.1809   36.8753 H   0  0  0  0  0  0  0  0  0  0  0  0
   41.5793   31.8170   38.4713 H   0  0  0  0  0  0  0  0  0  0  0  0
   41.7534   34.5004   37.7256 H   0  0  0  0  0  0  0  0  0  0  0  0
   39.8608   35.4634   37.1194 H   0  0  0  0  0  0  0  0  0  0  0  0
   37.5579   34.4139   37.8196 H   0  0  0  0  0  0  0  0  0  0  0  0
   43.9115   36.6907   42.5806 H   0  0  0  0  0  0  0  0  0  0  0  0
   43.2452   35.1199   43.1516 H   0  0  0  0  0  0  0  0  0  0  0  0
   48.8032   33.7259   43.5924 H   0  0  0  0  0  0  0  0  0  0  0  0
   47.1205   30.9608   44.2868 H   0  0  0  0  0  0  0  0  0  0  0  0
   47.1156   32.0849   48.3781 H   0  0  0  0  0  0  0  0  0  0  0  0
   46.7351   34.2517   46.9741 H   0  0  0  0  0  0  0  0  0  0  0  0
  1 12  1  0
  2  1  1  0
  2  3  1  0
  4  2  1  0
  4  3  1  0
  5  4  1  0
  7  6  1  0
  8  9  1  0
  8  7  1  0
  9  5  1  0
 10 11  2  0
 10  9  1  0
 11  6  1  0
 12 17  1  0
 13 14  2  0
 14 15  1  0
 15 19  1  0
 16 15  2  0
 17 16  1  0
 18 13  1  0
 18 17  2  0
 19 23  1  0
 20 19  2  0
 20 21  1  0
 21 22  2  0
 23 22  1  0
 24 27  1  0
 24 26  1  0
 24 13  1  0
 25 24  1  0
  1 28  1  0
  1 29  1  0
  2 30  1  6
  3 31  1  0
  3 32  1  0
  4 33  1  6
  6 34  1  0
  7 35  1  0
  7 36  1  0
  8 37  1  0
  8 38  1  0
  9 39  1  6
 10 40  1  0
 11 41  1  0
 12 42  1  0
 12 43  1  0
 14 44  1  0
 20 45  1  0
 22 46  1  0
 23 47  1  0
M  ISO  8  28   8  29   8  30  13  31  13  32  13  33  13  35  13  36  13
M  ISO  8  37  13  38  13  39  13  40  13  41  13  42   8  43   8  44  14
M  ISO  3  45  14  46  14  47   9
M  END
>  <minimizedAffinity>  (1) 
-6.59259224

>  <minimizedRMSD>  (1) 
0.546018004

$$$$
