
     RDKit          3D

 47 50  0  0  1  0  0  0  0  0999 V2000
   43.5970   35.4610   41.4110 C   0  0  0  0  0  0  0  0  0  0  0  0
   43.6890   34.0260   40.9870 C   0  0  1  0  0  0  0  0  0  0  0  0
   42.7250   33.0220   41.4610 C   0  0  0  0  0  0  0  0  0  0  0  0
   42.7180   33.5020   40.0130 C   0  0  1  0  0  0  0  0  0  0  0  0
   41.6550   34.1620   39.6090 O   0  0  0  0  0  0  0  0  0  0  0  0
   38.8270   32.9960   38.8620 N   0  0  0  0  0  0  0  0  0  0  0  0
   39.8180   32.0430   38.5090 C   0  0  0  0  0  0  0  0  0  0  0  0
   41.0830   32.5640   38.0030 C   0  0  0  0  0  0  0  0  0  0  0  0
   41.2990   34.1360   38.2780 C   0  0  1  0  0  0  0  0  0  0  0  0
   40.1430   34.7860   37.7550 C   0  0  0  0  0  0  0  0  0  0  0  0
   38.8350   34.1870   38.0960 C   0  0  0  0  0  0  0  0  0  0  0  0
   44.1140   35.7170   42.7930 C   0  0  0  0  0  0  0  0  0  0  0  0
   47.7090   34.9770   42.3440 C   0  0  0  0  0  0  0  0  0  0  0  0
   47.9440   33.9760   43.3140 C   0  0  0  0  0  0  0  0  0  0  0  0
   46.8560   33.5820   44.0990 C   0  0  0  0  0  0  0  0  0  0  0  0
   45.6770   34.1760   43.8790 N   0  0  0  0  0  0  0  0  0  0  0  0
   45.4830   35.1400   42.9360 C   0  0  0  0  0  0  0  0  0  0  0  0
   46.4990   35.5370   42.1720 N   0  0  0  0  0  0  0  0  0  0  0  0
   47.0010   32.5810   45.1000 N   0  0  0  0  0  0  0  0  0  0  0  0
   46.7440   32.9650   46.3650 C   0  0  0  0  0  0  0  0  0  0  0  0
   46.9360   31.8610   47.1990 C   0  0  0  0  0  0  0  0  0  0  0  0
   47.3060   30.8440   46.3800 N   0  0  0  0  0  0  0  0  0  0  0  0
   47.3470   31.2760   45.1060 C   0  0  0  0  0  0  0  0  0  0  0  0
   48.8830   35.3900   41.5020 C   0  0  0  0  0  0  0  0  0  0  0  0
   48.5660   35.3210   40.1790 F   0  0  0  0  0  0  0  0  0  0  0  0
   49.2770   36.6630   41.8350 F   0  0  0  0  0  0  0  0  0  0  0  0
   49.9090   34.4570   41.6990 F   0  0  0  0  0  0  0  0  0  0  0  0
   42.5410   35.7667   41.3736 H   0  0  0  0  0  0  0  0  0  0  0  0
   44.2276   36.0403   40.7205 H   0  0  0  0  0  0  0  0  0  0  0  0
   44.7861   34.0911   41.0321 H   0  0  0  0  0  0  0  0  0  0  0  0
   43.0617   32.0035   41.7046 H   0  0  0  0  0  0  0  0  0  0  0  0
   41.9850   32.9667   42.2730 H   0  0  0  0  0  0  0  0  0  0  0  0
   42.8297   33.0810   39.0029 H   0  0  0  0  0  0  0  0  0  0  0  0
   38.1503   32.8329   39.6212 H   0  0  0  0  0  0  0  0  0  0  0  0
   40.0393   31.4458   39.4058 H   0  0  0  0  0  0  0  0  0  0  0  0
   39.3855   31.4759   37.6715 H   0  0  0  0  0  0  0  0  0  0  0  0
   41.1174   32.3947   36.9167 H   0  0  0  0  0  0  0  0  0  0  0  0
   41.8837   32.0335   38.5391 H   0  0  0  0  0  0  0  0  0  0  0  0
   42.0924   34.7153   37.7832 H   0  0  0  0  0  0  0  0  0  0  0  0
   40.2203   35.6875   37.1295 H   0  0  0  0  0  0  0  0  0  0  0  0
   37.8954   34.6530   37.7643 H   0  0  0  0  0  0  0  0  0  0  0  0
   44.1543   36.8015   42.9727 H   0  0  0  0  0  0  0  0  0  0  0  0
   43.4426   35.2445   43.5251 H   0  0  0  0  0  0  0  0  0  0  0  0
   48.9394   33.5266   43.4456 H   0  0  0  0  0  0  0  0  0  0  0  0
   46.4368   33.9715   46.6853 H   0  0  0  0  0  0  0  0  0  0  0  0
   46.8130   31.8237   48.2915 H   0  0  0  0  0  0  0  0  0  0  0  0
   47.6149   30.6729   44.2259 H   0  0  0  0  0  0  0  0  0  0  0  0
  1 12  1  0
  2  1  1  0
  2  3  1  0
  4  2  1  0
  4  3  1  0
  5  4  1  0
  7  6  1  0
  8  9  1  0
  8  7  1  0
  9  5  1  0
 10 11  2  0
 10  9  1  0
 11  6  1  0
 12 17  1  0
 13 14  2  0
 14 15  1  0
 15 19  1  0
 16 15  2  0
 17 16  1  0
 18 13  1  0
 18 17  2  0
 19 23  1  0
 19 20  1  0
 20 21  2  0
 22 21  1  0
 23 22  2  0
 24 27  1  0
 24 26  1  0
 24 13  1  0
 25 24  1  0
  1 28  1  0
  1 29  1  0
  2 30  1  6
  3 31  1  0
  3 32  1  0
  4 33  1  6
  6 34  1  0
  7 35  1  0
  7 36  1  0
  8 37  1  0
  8 38  1  0
  9 39  1  6
 10 40  1  0
 11 41  1  0
 12 42  1  0
 12 43  1  0
 14 44  1  0
 20 45  1  0
 21 46  1  0
 23 47  1  0
M  ISO  8  28   8  29   8  30  13  31  13  32  13  33  13  35  13  36  13
M  ISO  8  37  13  38  13  39  13  40  13  41  13  42   8  43   8  44  14
M  ISO  3  45  14  46  14  47  14
M  END
>  <minimizedAffinity>  (1) 
-6.54099131

>  <minimizedRMSD>  (1) 
0.142138228

$$$$
