
     RDKit          3D

 53 56  0  0  1  0  0  0  0  0999 V2000
   43.5960   35.4020   41.5460 C   0  0  0  0  0  0  0  0  0  0  0  0
   43.6830   33.9800   41.0800 C   0  0  1  0  0  0  0  0  0  0  0  0
   42.6920   32.9740   41.4830 C   0  0  0  0  0  0  0  0  0  0  0  0
   42.7460   33.5010   40.0540 C   0  0  1  0  0  0  0  0  0  0  0  0
   41.7010   34.1860   39.6380 O   0  0  0  0  0  0  0  0  0  0  0  0
   38.8750   33.0340   38.8580 N   0  0  0  0  0  0  0  0  0  0  0  0
   39.8670   32.0780   38.5180 C   0  0  0  0  0  0  0  0  0  0  0  0
   41.1330   32.5990   38.0180 C   0  0  0  0  0  0  0  0  0  0  0  0
   41.3550   34.1690   38.3060 C   0  0  1  0  0  0  0  0  0  0  0  0
   40.2070   34.8250   37.7750 C   0  0  0  0  0  0  0  0  0  0  0  0
   38.8940   34.2280   38.1010 C   0  0  0  0  0  0  0  0  0  0  0  0
   44.1400   35.6240   42.9200 C   0  0  0  0  0  0  0  0  0  0  0  0
   47.7270   34.9580   42.3350 C   0  0  0  0  0  0  0  0  0  0  0  0
   48.0200   33.9780   43.3050 C   0  0  0  0  0  0  0  0  0  0  0  0
   46.9780   33.5680   44.1410 C   0  0  0  0  0  0  0  0  0  0  0  0
   45.7770   34.1350   43.9620 N   0  0  0  0  0  0  0  0  0  0  0  0
   45.5270   35.0810   43.0130 C   0  0  0  0  0  0  0  0  0  0  0  0
   46.5030   35.4880   42.2040 N   0  0  0  0  0  0  0  0  0  0  0  0
   47.2230   32.5370   45.1850 C   0  0  0  0  0  0  0  0  0  0  0  0
   46.0910   32.4620   46.1900 C   0  0  0  0  0  0  0  0  0  0  0  0
   45.6200   31.0060   46.1870 C   0  0  0  0  0  0  0  0  0  0  0  0
   45.8820   30.6300   44.7280 C   0  0  0  0  0  0  0  0  0  0  0  0
   47.2950   31.1870   44.5450 C   0  0  0  0  0  0  0  0  0  0  0  0
   48.8570   35.3850   41.4410 C   0  0  0  0  0  0  0  0  0  0  0  0
   48.4840   35.3050   40.1340 F   0  0  0  0  0  0  0  0  0  0  0  0
   49.2430   36.6650   41.7530 F   0  0  0  0  0  0  0  0  0  0  0  0
   49.9050   34.4690   41.6000 F   0  0  0  0  0  0  0  0  0  0  0  0
   42.5384   35.7044   41.5393 H   0  0  0  0  0  0  0  0  0  0  0  0
   44.2113   36.0011   40.8587 H   0  0  0  0  0  0  0  0  0  0  0  0
   44.7782   34.0298   41.1701 H   0  0  0  0  0  0  0  0  0  0  0  0
   43.0080   31.9441   41.7052 H   0  0  0  0  0  0  0  0  0  0  0  0
   41.9208   32.9009   42.2639 H   0  0  0  0  0  0  0  0  0  0  0  0
   42.8938   33.1147   39.0347 H   0  0  0  0  0  0  0  0  0  0  0  0
   38.1869   32.8691   39.6065 H   0  0  0  0  0  0  0  0  0  0  0  0
   40.0828   31.4862   39.4198 H   0  0  0  0  0  0  0  0  0  0  0  0
   39.4406   31.5030   37.6828 H   0  0  0  0  0  0  0  0  0  0  0  0
   41.1677   32.4385   36.9303 H   0  0  0  0  0  0  0  0  0  0  0  0
   41.9312   32.0616   38.5510 H   0  0  0  0  0  0  0  0  0  0  0  0
   42.1557   34.7492   37.8242 H   0  0  0  0  0  0  0  0  0  0  0  0
   40.2930   35.7291   37.1544 H   0  0  0  0  0  0  0  0  0  0  0  0
   37.9589   34.6993   37.7642 H   0  0  0  0  0  0  0  0  0  0  0  0
   44.1557   36.7025   43.1359 H   0  0  0  0  0  0  0  0  0  0  0  0
   43.4998   35.1070   43.6500 H   0  0  0  0  0  0  0  0  0  0  0  0
   49.0299   33.5524   43.4002 H   0  0  0  0  0  0  0  0  0  0  0  0
   48.1587   32.8176   45.6906 H   0  0  0  0  0  0  0  0  0  0  0  0
   46.4489   32.7459   47.1907 H   0  0  0  0  0  0  0  0  0  0  0  0
   45.2738   33.1503   45.9285 H   0  0  0  0  0  0  0  0  0  0  0  0
   46.2108   30.3869   46.8781 H   0  0  0  0  0  0  0  0  0  0  0  0
   44.5812   30.8601   46.5180 H   0  0  0  0  0  0  0  0  0  0  0  0
   45.8525   29.5407   44.5779 H   0  0  0  0  0  0  0  0  0  0  0  0
   45.1405   31.0187   44.0146 H   0  0  0  0  0  0  0  0  0  0  0  0
   48.0369   30.5512   45.0504 H   0  0  0  0  0  0  0  0  0  0  0  0
   47.6063   31.2284   43.4908 H   0  0  0  0  0  0  0  0  0  0  0  0
  1 12  1  0
  2  3  1  0
  2  1  1  0
  4  2  1  0
  4  3  1  0
  5  4  1  0
  7  6  1  0
  8  9  1  0
  8  7  1  0
  9  5  1  0
 10 11  2  0
 10  9  1  0
 11  6  1  0
 12 17  1  0
 13 14  2  0
 14 15  1  0
 15 19  1  0
 16 15  2  0
 17 16  1  0
 18 13  1  0
 18 17  2  0
 19 20  1  0
 21 20  1  0
 22 21  1  0
 23 22  1  0
 23 19  1  0
 24 27  1  0
 24 26  1  0
 24 13  1  0
 25 24  1  0
  1 28  1  0
  1 29  1  0
  2 30  1  6
  3 31  1  0
  3 32  1  0
  4 33  1  6
  6 34  1  0
  7 35  1  0
  7 36  1  0
  8 37  1  0
  8 38  1  0
  9 39  1  6
 10 40  1  0
 11 41  1  0
 12 42  1  0
 12 43  1  0
 14 44  1  0
 19 45  1  0
 20 46  1  0
 20 47  1  0
 21 48  1  0
 21 49  1  0
 22 50  1  0
 22 51  1  0
 23 52  1  0
 23 53  1  0
M  ISO  8  28   8  29   8  30  13  31  13  32  13  33  13  35  13  36  13
M  ISO  8  37  13  38  13  39  13  40  13  41  13  42   8  43   8  44  14
M  ISO  8  45  13  46  13  47  13  48  13  49  13  50  13  51  13  52  13
M  ISO  1  53  13
M  END
>  <minimizedAffinity>  (1) 
-6.07567215

>  <minimizedRMSD>  (1) 
0.493809491

$$$$
