
     RDKit          3D

 45 48  0  0  1  0  0  0  0  0999 V2000
   43.5920   35.3940   41.1910 C   0  0  0  0  0  0  0  0  0  0  0  0
   43.6290   33.9390   40.8340 C   0  0  1  0  0  0  0  0  0  0  0  0
   42.6650   32.9870   41.4180 C   0  0  0  0  0  0  0  0  0  0  0  0
   42.5870   33.3910   39.9490 C   0  0  1  0  0  0  0  0  0  0  0  0
   41.5170   34.0580   39.5740 O   0  0  0  0  0  0  0  0  0  0  0  0
   38.6750   32.8520   38.9440 N   0  0  0  0  0  0  0  0  0  0  0  0
   39.6660   31.9070   38.5700 C   0  0  0  0  0  0  0  0  0  0  0  0
   40.8990   32.4390   38.0050 C   0  0  0  0  0  0  0  0  0  0  0  0
   41.1090   34.0150   38.2620 C   0  0  1  0  0  0  0  0  0  0  0  0
   39.9270   34.6460   37.7700 C   0  0  0  0  0  0  0  0  0  0  0  0
   38.6450   34.0350   38.1660 C   0  0  0  0  0  0  0  0  0  0  0  0
   44.0420   35.6880   42.5870 C   0  0  0  0  0  0  0  0  0  0  0  0
   47.6610   34.9860   42.2910 C   0  0  0  0  0  0  0  0  0  0  0  0
   47.8780   34.0380   43.3150 C   0  0  0  0  0  0  0  0  0  0  0  0
   46.7690   33.6630   44.0880 C   0  0  0  0  0  0  0  0  0  0  0  0
   45.5880   34.2300   43.7980 N   0  0  0  0  0  0  0  0  0  0  0  0
   45.4130   35.1410   42.8030 C   0  0  0  0  0  0  0  0  0  0  0  0
   46.4530   35.5150   42.0530 N   0  0  0  0  0  0  0  0  0  0  0  0
   46.9240   32.6890   45.1620 C   0  0  0  0  0  0  0  0  0  0  0  0
   47.3140   31.3950   45.2350 N   0  0  0  0  0  0  0  0  0  0  0  0
   47.2680   31.0000   46.4720 O   0  0  0  0  0  0  0  0  0  0  0  0
   46.8540   32.0050   47.2360 C   0  0  0  0  0  0  0  0  0  0  0  0
   46.6370   33.0560   46.4390 N   0  0  0  0  0  0  0  0  0  0  0  0
   48.8600   35.3750   41.4710 C   0  0  0  0  0  0  0  0  0  0  0  0
   48.5580   35.3270   40.1470 F   0  0  0  0  0  0  0  0  0  0  0  0
   49.2750   36.6390   41.8250 F   0  0  0  0  0  0  0  0  0  0  0  0
   49.8580   34.4200   41.6840 F   0  0  0  0  0  0  0  0  0  0  0  0
   42.5581   35.7520   41.0779 H   0  0  0  0  0  0  0  0  0  0  0  0
   44.2930   35.9061   40.5154 H   0  0  0  0  0  0  0  0  0  0  0  0
   44.7281   33.9758   40.8077 H   0  0  0  0  0  0  0  0  0  0  0  0
   42.9881   31.9731   41.6967 H   0  0  0  0  0  0  0  0  0  0  0  0
   41.9724   32.9960   42.2725 H   0  0  0  0  0  0  0  0  0  0  0  0
   42.6295   32.9150   38.9582 H   0  0  0  0  0  0  0  0  0  0  0  0
   38.0242   32.6889   39.7255 H   0  0  0  0  0  0  0  0  0  0  0  0
   39.9327   31.3308   39.4683 H   0  0  0  0  0  0  0  0  0  0  0  0
   39.2103   31.3154   37.7623 H   0  0  0  0  0  0  0  0  0  0  0  0
   40.8859   32.2641   36.9191 H   0  0  0  0  0  0  0  0  0  0  0  0
   41.7294   31.9206   38.5068 H   0  0  0  0  0  0  0  0  0  0  0  0
   41.8781   34.6022   37.7388 H   0  0  0  0  0  0  0  0  0  0  0  0
   39.9702   35.5397   37.1301 H   0  0  0  0  0  0  0  0  0  0  0  0
   37.6885   34.4870   37.8645 H   0  0  0  0  0  0  0  0  0  0  0  0
   44.0543   36.7765   42.7449 H   0  0  0  0  0  0  0  0  0  0  0  0
   43.3475   35.2175   43.2986 H   0  0  0  0  0  0  0  0  0  0  0  0
   48.8751   33.6114   43.4988 H   0  0  0  0  0  0  0  0  0  0  0  0
   46.7150   31.9773   48.3268 H   0  0  0  0  0  0  0  0  0  0  0  0
  1 12  1  0
  2  1  1  0
  2  3  1  0
  4  2  1  0
  4  3  1  0
  5  4  1  0
  7  6  1  0
  8  9  1  0
  8  7  1  0
  9  5  1  0
 10 11  2  0
 10  9  1  0
 11  6  1  0
 12 17  1  0
 13 14  2  0
 14 15  1  0
 15 19  1  0
 16 15  2  0
 17 16  1  0
 18 13  1  0
 18 17  2  0
 19 20  2  0
 19 23  1  0
 20 21  1  0
 21 22  1  0
 23 22  2  0
 24 27  1  0
 24 26  1  0
 24 13  1  0
 25 24  1  0
  1 28  1  0
  1 29  1  0
  2 30  1  6
  3 31  1  0
  3 32  1  0
  4 33  1  6
  6 34  1  0
  7 35  1  0
  7 36  1  0
  8 37  1  0
  8 38  1  0
  9 39  1  6
 10 40  1  0
 11 41  1  0
 12 42  1  0
 12 43  1  0
 14 44  1  0
 22 45  1  0
M  ISO  8  28   8  29   8  30  13  31  13  32  13  33  13  35  13  36  13
M  ISO  8  37  13  38  13  39  13  40  13  41  13  42   8  43   8  44  14
M  ISO  1  45  14
M  END
>  <minimizedAffinity>  (1) 
-6.2959528

>  <minimizedRMSD>  (1) 
0.611421824

$$$$
