
     RDKit          3D

 25 27  0  0  0  0  0  0  0  0999 V2000
   44.9870   35.0110   44.6630 C   0  0  0  0  0  0  0  0  0  0  0  0
   45.4230   35.5020   43.4210 C   0  0  0  0  0  0  0  0  0  0  0  0
   46.4360   34.7750   42.7660 C   0  0  0  0  0  0  0  0  0  0  0  0
   46.9310   33.6640   43.3510 N   0  0  0  0  0  0  0  0  0  0  0  0
   46.4750   33.2290   44.5560 C   0  0  0  0  0  0  0  0  0  0  0  0
   45.5170   33.9020   45.1920 N   0  0  0  0  0  0  0  0  0  0  0  0
   46.9620   32.0650   45.2140 N   0  0  0  0  0  0  0  0  0  0  0  0
   47.7640   31.1730   44.5740 C   0  0  0  0  0  0  0  0  0  0  0  0
   48.1060   30.1550   45.3740 N   0  0  0  0  0  0  0  0  0  0  0  0
   47.5290   30.3680   46.5560 C   0  0  0  0  0  0  0  0  0  0  0  0
   47.4940   29.7020   47.7750 C   0  0  0  0  0  0  0  0  0  0  0  0
   48.1340   28.6210   47.8820 O   0  0  0  0  0  0  0  0  0  0  0  0
   46.7710   30.2450   48.7870 N   0  0  0  0  0  0  0  0  0  0  0  0
   46.0930   31.4060   48.6480 C   0  0  0  0  0  0  0  0  0  0  0  0
   45.4030   31.7990   49.8290 N   0  0  0  0  0  0  0  0  0  0  0  0
   46.1140   32.0780   47.4600 N   0  0  0  0  0  0  0  0  0  0  0  0
   46.8290   31.5510   46.4360 C   0  0  0  0  0  0  0  0  0  0  0  0
   44.0020   35.7040   45.3190 O   0  0  0  0  0  0  0  0  0  0  0  0
   44.9926   36.4132   42.9800 H   0  0  0  0  0  0  0  0  0  0  0  0
   46.8188   35.1084   41.7902 H   0  0  0  0  0  0  0  0  0  0  0  0
   48.0913   31.2749   43.5288 H   0  0  0  0  0  0  0  0  0  0  0  0
   46.7378   29.7553   49.6926 H   0  0  0  0  0  0  0  0  0  0  0  0
   44.8522   32.6693   49.8382 H   0  0  0  0  0  0  0  0  0  0  0  0
   45.4544   31.2131   50.6746 H   0  0  0  0  0  0  0  0  0  0  0  0
   43.6197   36.5229   44.9148 H   0  0  0  0  0  0  0  0  0  0  0  0
  1  6  2  0
  1 18  1  0
  2  1  1  0
  3  4  1  0
  3  2  2  0
  4  5  2  0
  5  6  1  0
  5  7  1  0
  7 17  1  0
  8  7  1  0
  8  9  2  0
  9 10  1  0
 10 11  1  0
 11 12  2  0
 11 13  1  0
 14 13  1  0
 14 15  1  0
 16 14  2  0
 17 10  2  0
 17 16  1  0
  2 19  1  0
  3 20  1  0
  8 21  1  0
 13 22  1  0
 15 23  1  0
 15 24  1  0
 18 25  1  0
M  ISO  5  19  14  20  14  21  14  22   9  25   3
M  END
>  <minimizedAffinity>  (1) 
-6.07210827

>  <minimizedRMSD>  (1) 
1.21581447

$$$$
