
     RDKit          3D

 24 26  0  0  0  0  0  0  0  0999 V2000
   44.7190   35.2680   44.0480 C   0  0  0  0  0  0  0  0  0  0  0  0
   45.4020   35.7610   42.9220 C   0  0  0  0  0  0  0  0  0  0  0  0
   46.5930   35.0980   42.5580 C   0  0  0  0  0  0  0  0  0  0  0  0
   47.0120   34.0440   43.2900 N   0  0  0  0  0  0  0  0  0  0  0  0
   46.3270   33.6060   44.3590 C   0  0  0  0  0  0  0  0  0  0  0  0
   45.1940   34.2070   44.7360 N   0  0  0  0  0  0  0  0  0  0  0  0
   46.7040   32.5040   45.1800 N   0  0  0  0  0  0  0  0  0  0  0  0
   47.4970   31.4980   44.7100 C   0  0  0  0  0  0  0  0  0  0  0  0
   47.7250   30.5540   45.6700 N   0  0  0  0  0  0  0  0  0  0  0  0
   47.0630   30.9720   46.7710 C   0  0  0  0  0  0  0  0  0  0  0  0
   46.9240   30.4410   48.0330 C   0  0  0  0  0  0  0  0  0  0  0  0
   46.1760   31.1280   48.9190 N   0  0  0  0  0  0  0  0  0  0  0  0
   45.5690   32.3040   48.5970 C   0  0  0  0  0  0  0  0  0  0  0  0
   45.7120   32.8240   47.3420 N   0  0  0  0  0  0  0  0  0  0  0  0
   46.4500   32.1560   46.4540 C   0  0  0  0  0  0  0  0  0  0  0  0
   47.5680   29.2120   48.3440 N   0  0  0  0  0  0  0  0  0  0  0  0
   43.5610   35.9020   44.4110 O   0  0  0  0  0  0  0  0  0  0  0  0
   45.0254   36.6230   42.3518 H   0  0  0  0  0  0  0  0  0  0  0  0
   47.1738   35.4363   41.6872 H   0  0  0  0  0  0  0  0  0  0  0  0
   47.9012   31.4531   43.6879 H   0  0  0  0  0  0  0  0  0  0  0  0
   44.9641   32.8346   49.3470 H   0  0  0  0  0  0  0  0  0  0  0  0
   47.4719   28.8039   49.2848 H   0  0  0  0  0  0  0  0  0  0  0  0
   48.1305   28.7299   47.6285 H   0  0  0  0  0  0  0  0  0  0  0  0
   43.2364   36.6775   43.8882 H   0  0  0  0  0  0  0  0  0  0  0  0
  1 17  1  0
  1  6  2  0
  2  1  1  0
  3  2  2  0
  3  4  1  0
  4  5  2  0
  5  6  1  0
  5  7  1  0
  7 15  1  0
  8  7  1  0
  8  9  2  0
  9 10  1  0
 10 11  2  0
 11 16  1  0
 11 12  1  0
 13 12  2  0
 14 13  1  0
 15 10  1  0
 15 14  2  0
  2 18  1  0
  3 19  1  0
  8 20  1  0
 13 21  1  0
 16 22  1  0
 16 23  1  0
 17 24  1  0
M  ISO  5  18  14  19  14  20  14  21  14  24   3
M  END
>  <minimizedAffinity>  (1) 
-5.87912226

>  <minimizedRMSD>  (1) 
0.713681161

$$$$
