
     RDKit          3D

 46 48  0  0  1  0  0  0  0  0999 V2000
   43.7150   34.0300   41.0000 C   0  0  1  0  0  0  0  0  0  0  0  0
   42.7490   33.0130   41.4640 C   0  0  0  0  0  0  0  0  0  0  0  0
   42.7390   33.5160   40.0240 C   0  0  1  0  0  0  0  0  0  0  0  0
   43.6150   35.4550   41.4510 C   0  0  0  0  0  0  0  0  0  0  0  0
   44.1450   35.6890   42.8330 C   0  0  0  0  0  0  0  0  0  0  0  0
   47.7410   34.9810   42.3330 C   0  0  0  0  0  0  0  0  0  0  0  0
   47.9900   33.9600   43.2800 C   0  0  0  0  0  0  0  0  0  0  0  0
   46.9090   33.5370   44.0740 C   0  0  0  0  0  0  0  0  0  0  0  0
   45.7290   34.1300   43.8760 N   0  0  0  0  0  0  0  0  0  0  0  0
   45.5170   35.1150   42.9530 C   0  0  0  0  0  0  0  0  0  0  0  0
   46.5260   35.5380   42.1830 N   0  0  0  0  0  0  0  0  0  0  0  0
   48.9020   35.4180   41.4910 C   0  0  0  0  0  0  0  0  0  0  0  0
   48.5800   35.3450   40.1680 F   0  0  0  0  0  0  0  0  0  0  0  0
   49.2730   36.6970   41.8220 F   0  0  0  0  0  0  0  0  0  0  0  0
   49.9460   34.5040   41.6820 F   0  0  0  0  0  0  0  0  0  0  0  0
   47.0700   32.4790   45.0880 C   0  0  0  0  0  0  0  0  0  0  0  0
   46.4570   32.9650   46.3790 C   0  0  0  0  0  0  0  0  0  0  0  0
   41.6780   34.1820   39.6250 O   0  0  0  0  0  0  0  0  0  0  0  0
   38.8520   33.0110   38.8750 N   0  0  0  0  0  0  0  0  0  0  0  0
   39.8460   32.0610   38.5250 C   0  0  0  0  0  0  0  0  0  0  0  0
   41.1040   32.5880   38.0110 C   0  0  0  0  0  0  0  0  0  0  0  0
   41.3180   34.1590   38.2980 C   0  0  1  0  0  0  0  0  0  0  0  0
   40.1620   34.8080   37.7650 C   0  0  0  0  0  0  0  0  0  0  0  0
   38.8620   34.1990   38.1080 C   0  0  0  0  0  0  0  0  0  0  0  0
   44.8122   34.0983   41.0377 H   0  0  0  0  0  0  0  0  0  0  0  0
   43.0872   31.9912   41.6911 H   0  0  0  0  0  0  0  0  0  0  0  0
   42.0111   32.9440   42.2768 H   0  0  0  0  0  0  0  0  0  0  0  0
   42.8464   33.1064   39.0088 H   0  0  0  0  0  0  0  0  0  0  0  0
   44.1854   36.0818   40.7498 H   0  0  0  0  0  0  0  0  0  0  0  0
   42.5455   35.7116   41.4696 H   0  0  0  0  0  0  0  0  0  0  0  0
   44.1831   36.7703   43.0311 H   0  0  0  0  0  0  0  0  0  0  0  0
   43.4825   35.2011   43.5631 H   0  0  0  0  0  0  0  0  0  0  0  0
   48.9896   33.5145   43.3910 H   0  0  0  0  0  0  0  0  0  0  0  0
   46.5594   31.5634   44.7550 H   0  0  0  0  0  0  0  0  0  0  0  0
   48.1365   32.2534   45.2353 H   0  0  0  0  0  0  0  0  0  0  0  0
   47.0031   32.5320   47.2300 H   0  0  0  0  0  0  0  0  0  0  0  0
   46.5186   34.0624   46.4239 H   0  0  0  0  0  0  0  0  0  0  0  0
   45.4026   32.6548   46.4239 H   0  0  0  0  0  0  0  0  0  0  0  0
   38.1730   32.8474   39.6321 H   0  0  0  0  0  0  0  0  0  0  0  0
   40.0747   31.4712   39.4249 H   0  0  0  0  0  0  0  0  0  0  0  0
   39.4139   31.4837   37.6943 H   0  0  0  0  0  0  0  0  0  0  0  0
   41.1280   32.4280   36.9230 H   0  0  0  0  0  0  0  0  0  0  0  0
   41.9116   32.0545   38.5336 H   0  0  0  0  0  0  0  0  0  0  0  0
   42.1119   34.7475   37.8149 H   0  0  0  0  0  0  0  0  0  0  0  0
   40.2365   35.7078   37.1366 H   0  0  0  0  0  0  0  0  0  0  0  0
   37.9206   34.6596   37.7740 H   0  0  0  0  0  0  0  0  0  0  0  0
  1  4  1  0
  1  2  1  0
  3  1  1  0
  3  2  1  0
  4  5  1  0
  5 10  1  0
  6  7  2  0
  7  8  1  0
  8 16  1  0
  9  8  2  0
 10  9  1  0
 11  6  1  0
 11 10  2  0
 12 15  1  0
 12 14  1  0
 12  6  1  0
 13 12  1  0
 16 17  1  0
 18  3  1  0
 20 19  1  0
 21 22  1  0
 21 20  1  0
 22 18  1  0
 23 24  2  0
 23 22  1  0
 24 19  1  0
  1 25  1  6
  2 26  1  0
  2 27  1  0
  3 28  1  6
  4 29  1  0
  4 30  1  0
  5 31  1  0
  5 32  1  0
  7 33  1  0
 16 34  1  0
 16 35  1  0
 17 36  1  0
 17 37  1  0
 17 38  1  0
 19 39  1  0
 20 40  1  0
 20 41  1  0
 21 42  1  0
 21 43  1  0
 22 44  1  6
 23 45  1  0
 24 46  1  0
M  ISO  8  25  13  26  13  27  13  28  13  29   8  30   8  31   8  32   8
M  ISO  8  33  14  34   8  35   8  36   8  37   8  38   8  40  13  41  13
M  ISO  5  42  13  43  13  44  13  45  13  46  13
M  END
>  <minimizedAffinity>  (1) 
-5.87755108

>  <minimizedRMSD>  (1) 
0.240506113

$$$$
