
     RDKit          3D

 22 23  0  0  0  0  0  0  0  0999 V2000
   44.6570   35.2800   44.1710 C   0  0  0  0  0  0  0  0  0  0  0  0
   45.5280   35.2750   43.0710 C   0  0  0  0  0  0  0  0  0  0  0  0
   46.6480   34.4370   43.1510 C   0  0  0  0  0  0  0  0  0  0  0  0
   46.8300   33.6810   44.2760 N   0  0  0  0  0  0  0  0  0  0  0  0
   45.9650   33.7270   45.2960 C   0  0  0  0  0  0  0  0  0  0  0  0
   44.8780   34.5250   45.2460 N   0  0  0  0  0  0  0  0  0  0  0  0
   46.2520   32.8960   46.4260 N   0  0  0  0  0  0  0  0  0  0  0  0
   47.2790   32.0370   46.2820 C   0  0  0  0  0  0  0  0  0  0  0  0
   47.5800   31.2190   47.3600 C   0  0  0  0  0  0  0  0  0  0  0  0
   46.7850   31.3750   48.4770 C   0  0  0  0  0  0  0  0  0  0  0  0
   47.0690   30.5490   49.6010 N   0  0  0  0  0  0  0  0  0  0  0  0
   45.7600   32.2570   48.5700 N   0  0  0  0  0  0  0  0  0  0  0  0
   45.4850   33.0460   47.5030 C   0  0  0  0  0  0  0  0  0  0  0  0
   44.5570   33.8770   47.5240 O   0  0  0  0  0  0  0  0  0  0  0  0
   43.5560   36.0970   44.1050 O   0  0  0  0  0  0  0  0  0  0  0  0
   45.3401   35.9006   42.1860 H   0  0  0  0  0  0  0  0  0  0  0  0
   47.3695   34.3879   42.3221 H   0  0  0  0  0  0  0  0  0  0  0  0
   47.8558   31.9864   45.3467 H   0  0  0  0  0  0  0  0  0  0  0  0
   48.4028   30.4897   47.3269 H   0  0  0  0  0  0  0  0  0  0  0  0
   46.5016   30.6308   50.4567 H   0  0  0  0  0  0  0  0  0  0  0  0
   47.8419   29.8695   49.5586 H   0  0  0  0  0  0  0  0  0  0  0  0
   43.4006   36.6543   43.3017 H   0  0  0  0  0  0  0  0  0  0  0  0
  1  6  2  0
  2  3  2  0
  2  1  1  0
  3  4  1  0
  4  5  2  0
  5  7  1  0
  6  5  1  0
  7 13  1  0
  8  7  1  0
  8  9  2  0
  9 10  1  0
 10 12  2  0
 10 11  1  0
 13 14  2  0
 13 12  1  0
 15  1  1  0
  2 16  1  0
  3 17  1  0
  8 18  1  0
  9 19  1  0
 11 20  1  0
 11 21  1  0
 15 22  1  0
M  ISO  5  16  14  17  14  18  14  19  14  22   3
M  END
>  <minimizedAffinity>  (1) 
-5.5517354

>  <minimizedRMSD>  (1) 
1.16151488

$$$$
