
     RDKit          3D

 25 27  0  0  0  0  0  0  0  0999 V2000
   44.7300   35.1820   44.0120 C   0  0  0  0  0  0  0  0  0  0  0  0
   45.5080   35.7220   42.9810 C   0  0  0  0  0  0  0  0  0  0  0  0
   46.7360   35.0740   42.7030 C   0  0  0  0  0  0  0  0  0  0  0  0
   47.0860   33.9810   43.4420 N   0  0  0  0  0  0  0  0  0  0  0  0
   46.2960   33.5120   44.4180 C   0  0  0  0  0  0  0  0  0  0  0  0
   45.1170   34.1080   44.7100 N   0  0  0  0  0  0  0  0  0  0  0  0
   46.7010   32.3390   45.1910 C   0  0  0  0  0  0  0  0  0  0  0  0
   47.4580   31.2840   44.7220 C   0  0  0  0  0  0  0  0  0  0  0  0
   47.6210   30.3940   45.7350 N   0  0  0  0  0  0  0  0  0  0  0  0
   46.9990   30.8480   46.8190 C   0  0  0  0  0  0  0  0  0  0  0  0
   46.8350   30.3760   48.0990 C   0  0  0  0  0  0  0  0  0  0  0  0
   46.1200   31.0530   49.0850 C   0  0  0  0  0  0  0  0  0  0  0  0
   45.5440   32.2750   48.7370 C   0  0  0  0  0  0  0  0  0  0  0  0
   45.7170   32.7360   47.4460 C   0  0  0  0  0  0  0  0  0  0  0  0
   46.4190   32.0620   46.4980 C   0  0  0  0  0  0  0  0  0  0  0  0
   43.5410   35.8030   44.2860 O   0  0  0  0  0  0  0  0  0  0  0  0
   45.1813   36.6065   42.4145 H   0  0  0  0  0  0  0  0  0  0  0  0
   47.3964   35.4450   41.9054 H   0  0  0  0  0  0  0  0  0  0  0  0
   47.8600   31.1818   43.7032 H   0  0  0  0  0  0  0  0  0  0  0  0
   48.1433   29.5084   45.6733 H   0  0  0  0  0  0  0  0  0  0  0  0
   47.2933   29.4106   48.3597 H   0  0  0  0  0  0  0  0  0  0  0  0
   46.0138   30.6397   50.0989 H   0  0  0  0  0  0  0  0  0  0  0  0
   44.9671   32.8564   49.4713 H   0  0  0  0  0  0  0  0  0  0  0  0
   45.2625   33.6993   47.1713 H   0  0  0  0  0  0  0  0  0  0  0  0
   43.2651   36.5969   43.7629 H   0  0  0  0  0  0  0  0  0  0  0  0
  1 16  1  0
  1  6  2  0
  2  1  1  0
  3  2  2  0
  3  4  1  0
  4  5  2  0
  5  6  1  0
  5  7  1  0
  7 15  1  0
  8  7  2  0
  8  9  1  0
  9 10  1  0
 10 11  2  0
 11 12  1  0
 13 12  2  0
 14 13  1  0
 15 10  1  0
 15 14  2  0
  2 17  1  0
  3 18  1  0
  8 19  1  0
  9 20  1  0
 11 21  1  0
 12 22  1  0
 13 23  1  0
 14 24  1  0
 16 25  1  0
M  ISO  8  17  14  18  14  19  14  20   9  21  14  22  14  23  14  24  14
M  ISO  1  25   3
M  END
>  <minimizedAffinity>  (1) 
-5.50148058

>  <minimizedRMSD>  (1) 
0.839914918

$$$$
