
     RDKit          3D

 18 19  0  0  0  0  0  0  0  0999 V2000
   44.7420   35.1980   44.2350 C   0  0  0  0  0  0  0  0  0  0  0  0
   45.5520   35.2860   43.0950 C   0  0  0  0  0  0  0  0  0  0  0  0
   46.7260   34.5230   43.0880 C   0  0  0  0  0  0  0  0  0  0  0  0
   47.0100   33.7470   44.1780 N   0  0  0  0  0  0  0  0  0  0  0  0
   46.1990   33.7000   45.2430 C   0  0  0  0  0  0  0  0  0  0  0  0
   45.0760   34.4180   45.2710 N   0  0  0  0  0  0  0  0  0  0  0  0
   46.5430   32.8570   46.3820 C   0  0  0  0  0  0  0  0  0  0  0  0
   46.1780   31.5400   46.5770 C   0  0  0  0  0  0  0  0  0  0  0  0
   46.6740   31.0640   47.7480 N   0  0  0  0  0  0  0  0  0  0  0  0
   47.3620   32.0920   48.2990 C   0  0  0  0  0  0  0  0  0  0  0  0
   47.2690   33.1480   47.4680 N   0  0  0  0  0  0  0  0  0  0  0  0
   43.5960   35.9470   44.2360 O   0  0  0  0  0  0  0  0  0  0  0  0
   45.2778   35.9260   42.2434 H   0  0  0  0  0  0  0  0  0  0  0  0
   47.4060   34.5471   42.2237 H   0  0  0  0  0  0  0  0  0  0  0  0
   45.5659   30.9534   45.8761 H   0  0  0  0  0  0  0  0  0  0  0  0
   47.9020   32.0688   49.2570 H   0  0  0  0  0  0  0  0  0  0  0  0
   47.7026   34.0652   47.6461 H   0  0  0  0  0  0  0  0  0  0  0  0
   43.3749   36.5146   43.4556 H   0  0  0  0  0  0  0  0  0  0  0  0
  1 12  1  0
  1  6  2  0
  2  1  1  0
  3  2  2  0
  3  4  1  0
  4  5  2  0
  5  6  1  0
  5  7  1  0
  7  8  2  0
  7 11  1  0
  8  9  1  0
  9 10  2  0
 11 10  1  0
  2 13  1  0
  3 14  1  0
  8 15  1  0
 10 16  1  0
 11 17  1  0
 12 18  1  0
M  ISO  6  13  14  14  14  15  14  16  14  17   9  18   3
M  END
>  <minimizedAffinity>  (1) 
-4.92893887

>  <minimizedRMSD>  (1) 
0.732031167

$$$$
