
     RDKit          3D

 25 26  0  0  0  0  0  0  0  0999 V2000
   45.0170   34.6840   44.9610 C   0  0  0  0  0  0  0  0  0  0  0  0
   45.8670   34.3780   43.8820 C   0  0  0  0  0  0  0  0  0  0  0  0
   46.8750   33.4300   44.1070 C   0  0  0  0  0  0  0  0  0  0  0  0
   46.9700   32.8720   45.3340 N   0  0  0  0  0  0  0  0  0  0  0  0
   46.1400   33.1930   46.3350 C   0  0  0  0  0  0  0  0  0  0  0  0
   45.1730   34.0910   46.1500 N   0  0  0  0  0  0  0  0  0  0  0  0
   46.3060   32.5610   47.5990 N   0  0  0  0  0  0  0  0  0  0  0  0
   47.6260   32.4170   48.1880 C   0  0  0  0  0  0  0  0  0  0  0  0
   47.8050   30.9300   48.4570 C   0  0  0  0  0  0  0  0  0  0  0  0
   46.7930   30.5240   49.4010 N   0  0  0  0  0  0  0  0  0  0  0  0
   45.5120   30.5730   48.7250 C   0  0  0  0  0  0  0  0  0  0  0  0
   45.2390   32.0280   48.3830 C   0  0  0  0  0  0  0  0  0  0  0  0
   44.0320   35.6110   44.7420 O   0  0  0  0  0  0  0  0  0  0  0  0
   45.7455   34.8628   42.9021 H   0  0  0  0  0  0  0  0  0  0  0  0
   47.5717   33.1472   43.3041 H   0  0  0  0  0  0  0  0  0  0  0  0
   48.3972   32.7747   47.4899 H   0  0  0  0  0  0  0  0  0  0  0  0
   47.7222   33.0079   49.1108 H   0  0  0  0  0  0  0  0  0  0  0  0
   47.6905   30.3646   47.5204 H   0  0  0  0  0  0  0  0  0  0  0  0
   48.8081   30.7326   48.8629 H   0  0  0  0  0  0  0  0  0  0  0  0
   46.9814   29.5649   49.7259 H   0  0  0  0  0  0  0  0  0  0  0  0
   45.5479   29.9702   47.8056 H   0  0  0  0  0  0  0  0  0  0  0  0
   44.7163   30.1672   49.3670 H   0  0  0  0  0  0  0  0  0  0  0  0
   45.1470   32.6083   49.3129 H   0  0  0  0  0  0  0  0  0  0  0  0
   44.3047   32.0908   47.8057 H   0  0  0  0  0  0  0  0  0  0  0  0
   43.9396   36.0341   43.8518 H   0  0  0  0  0  0  0  0  0  0  0  0
  1  6  2  0
  2  3  2  0
  2  1  1  0
  3  4  1  0
  4  5  2  0
  5  7  1  0
  6  5  1  0
  7  8  1  0
  7 12  1  0
  8  9  1  0
  9 10  1  0
 11 10  1  0
 12 11  1  0
 13  1  1  0
  2 14  1  0
  3 15  1  0
  8 16  1  0
  8 17  1  0
  9 18  1  0
  9 19  1  0
 10 20  1  0
 11 21  1  0
 11 22  1  0
 12 23  1  0
 12 24  1  0
 13 25  1  0
M  ISO  8  14  14  15  14  16  13  17  13  18  13  19  13  20   5  21  13
M  ISO  4  22  13  23  13  24  13  25   3
M  END
>  <minimizedAffinity>  (1) 
-5.1280241

>  <minimizedRMSD>  (1) 
2.1281774

$$$$
