
     RDKit          3D

 24 25  0  0  0  0  0  0  0  0999 V2000
   44.8910   35.0260   44.5940 C   0  0  0  0  0  0  0  0  0  0  0  0
   45.7590   34.9620   43.4960 C   0  0  0  0  0  0  0  0  0  0  0  0
   46.8510   34.0650   43.5880 C   0  0  0  0  0  0  0  0  0  0  0  0
   46.9900   33.3310   44.7140 N   0  0  0  0  0  0  0  0  0  0  0  0
   46.1240   33.4290   45.7450 C   0  0  0  0  0  0  0  0  0  0  0  0
   45.0820   34.2710   45.6850 N   0  0  0  0  0  0  0  0  0  0  0  0
   46.3290   32.5900   46.9680 C   0  0  0  0  0  0  0  0  0  0  0  0
   46.3140   31.1270   46.7030 C   0  0  0  0  0  0  0  0  0  0  0  0
   45.7120   30.4970   47.9350 C   0  0  0  0  0  0  0  0  0  0  0  0
   45.5100   31.6410   48.9260 C   0  0  0  0  0  0  0  0  0  0  0  0
   45.1800   32.7740   47.9450 C   0  0  0  0  0  0  0  0  0  0  0  0
   43.8350   35.9010   44.4940 O   0  0  0  0  0  0  0  0  0  0  0  0
   45.5992   35.5816   42.6013 H   0  0  0  0  0  0  0  0  0  0  0  0
   47.5701   33.9679   42.7612 H   0  0  0  0  0  0  0  0  0  0  0  0
   47.3074   32.9176   47.3493 H   0  0  0  0  0  0  0  0  0  0  0  0
   45.6997   30.9034   45.8183 H   0  0  0  0  0  0  0  0  0  0  0  0
   47.3235   30.7400   46.5001 H   0  0  0  0  0  0  0  0  0  0  0  0
   44.7486   30.0246   47.6927 H   0  0  0  0  0  0  0  0  0  0  0  0
   46.3613   29.7111   48.3483 H   0  0  0  0  0  0  0  0  0  0  0  0
   44.6780   31.4422   49.6175 H   0  0  0  0  0  0  0  0  0  0  0  0
   46.3612   31.8354   49.5951 H   0  0  0  0  0  0  0  0  0  0  0  0
   45.2067   33.7604   48.4311 H   0  0  0  0  0  0  0  0  0  0  0  0
   44.1738   32.7363   47.5022 H   0  0  0  0  0  0  0  0  0  0  0  0
   43.7194   36.4459   43.6756 H   0  0  0  0  0  0  0  0  0  0  0  0
  1  6  2  0
  2  3  2  0
  2  1  1  0
  3  4  1  0
  4  5  2  0
  5  7  1  0
  6  5  1  0
  7 11  1  0
  8  7  1  0
  8  9  1  0
  9 10  1  0
 11 10  1  0
 12  1  1  0
  2 13  1  0
  3 14  1  0
  7 15  1  0
  8 16  1  0
  8 17  1  0
  9 18  1  0
  9 19  1  0
 10 20  1  0
 10 21  1  0
 11 22  1  0
 11 23  1  0
 12 24  1  0
M  ISO  8  13  14  14  14  15  13  16  13  17  13  18  13  19  13  20  13
M  ISO  4  21  13  22  13  23  13  24   3
M  END
>  <minimizedAffinity>  (1) 
-4.74492884

>  <minimizedRMSD>  (1) 
2.03564119

$$$$
