
     RDKit          3D

 13 13  0  0  0  0  0  0  0  0999 V2000
   44.7620   35.2060   44.1430 C   0  0  0  0  0  0  0  0  0  0  0  0
   45.4960   35.5720   43.0080 C   0  0  0  0  0  0  0  0  0  0  0  0
   46.7200   34.9030   42.7850 C   0  0  0  0  0  0  0  0  0  0  0  0
   47.1060   33.9590   43.6700 N   0  0  0  0  0  0  0  0  0  0  0  0
   46.3620   33.6360   44.7570 C   0  0  0  0  0  0  0  0  0  0  0  0
   45.2080   34.2640   44.9710 N   0  0  0  0  0  0  0  0  0  0  0  0
   46.8380   32.5990   45.6810 C   0  0  0  0  0  0  0  0  0  0  0  0
   46.8730   32.8530   46.9140 O   0  0  0  0  0  0  0  0  0  0  0  0
   43.5790   35.8530   44.3580 O   0  0  0  0  0  0  0  0  0  0  0  0
   45.1342   36.3487   42.3182 H   0  0  0  0  0  0  0  0  0  0  0  0
   47.3435   35.1451   41.9117 H   0  0  0  0  0  0  0  0  0  0  0  0
   47.1586   31.6171   45.3028 H   0  0  0  0  0  0  0  0  0  0  0  0
   43.2734   36.5495   43.7242 H   0  0  0  0  0  0  0  0  0  0  0  0
  1  9  1  0
  1  6  2  0
  2  1  1  0
  3  2  2  0
  3  4  1  0
  4  5  2  0
  5  6  1  0
  5  7  1  0
  7  8  2  0
  2 10  1  0
  3 11  1  0
  7 12  1  0
  9 13  1  0
M  ISO  4  10  14  11  14  12   6  13   3
M  END
>  <minimizedAffinity>  (1) 
-3.63987613

>  <minimizedRMSD>  (1) 
0.271683216

$$$$
