
     RDKit          3D

 13 13  0  0  0  0  0  0  0  0999 V2000
   44.7060   35.2530   44.0630 C   0  0  0  0  0  0  0  0  0  0  0  0
   45.3850   35.5380   42.8700 C   0  0  0  0  0  0  0  0  0  0  0  0
   46.6440   34.9220   42.6770 C   0  0  0  0  0  0  0  0  0  0  0  0
   47.1160   34.1030   43.6430 N   0  0  0  0  0  0  0  0  0  0  0  0
   46.4330   33.8590   44.7700 C   0  0  0  0  0  0  0  0  0  0  0  0
   45.2390   34.4260   44.9840 N   0  0  0  0  0  0  0  0  0  0  0  0
   46.9680   32.9890   45.7630 N   0  0  0  0  0  0  0  0  0  0  0  0
   43.4930   35.8420   44.2580 O   0  0  0  0  0  0  0  0  0  0  0  0
   44.9563   36.2131   42.1147 H   0  0  0  0  0  0  0  0  0  0  0  0
   47.2255   35.1055   41.7615 H   0  0  0  0  0  0  0  0  0  0  0  0
   46.4379   32.8058   46.6269 H   0  0  0  0  0  0  0  0  0  0  0  0
   47.8850   32.5432   45.6171 H   0  0  0  0  0  0  0  0  0  0  0  0
   43.1196   36.4464   43.5685 H   0  0  0  0  0  0  0  0  0  0  0  0
  1  8  1  0
  1  6  2  0
  2  1  1  0
  3  2  2  0
  3  4  1  0
  4  5  2  0
  5  6  1  0
  5  7  1  0
  2  9  1  0
  3 10  1  0
  7 11  1  0
  7 12  1  0
  8 13  1  0
M  ISO  3   9  14  10  14  13   3
M  END
>  <minimizedAffinity>  (1) 
-3.70190668

>  <minimizedRMSD>  (1) 
0.17194593

$$$$
