
     RDKit          3D

 17 17  0  0  0  0  0  0  0  0999 V2000
   44.8300   35.0940   44.4740 C   0  0  0  0  0  0  0  0  0  0  0  0
   45.6560   35.0640   43.3360 C   0  0  0  0  0  0  0  0  0  0  0  0
   46.7880   34.2170   43.3900 C   0  0  0  0  0  0  0  0  0  0  0  0
   47.0250   33.4890   44.5010 N   0  0  0  0  0  0  0  0  0  0  0  0
   46.1910   33.5580   45.5720 C   0  0  0  0  0  0  0  0  0  0  0  0
   45.1030   34.3570   45.5510 N   0  0  0  0  0  0  0  0  0  0  0  0
   43.7420   35.9050   44.4280 O   0  0  0  0  0  0  0  0  0  0  0  0
   46.5820   32.6980   46.7230 C   0  0  0  0  0  0  0  0  0  0  0  0
   45.4160   32.6110   47.7070 C   0  0  0  0  0  0  0  0  0  0  0  0
   45.4324   35.6705   42.4459 H   0  0  0  0  0  0  0  0  0  0  0  0
   47.4715   34.1523   42.5305 H   0  0  0  0  0  0  0  0  0  0  0  0
   43.5596   36.4431   43.6172 H   0  0  0  0  0  0  0  0  0  0  0  0
   46.8328   31.6903   46.3603 H   0  0  0  0  0  0  0  0  0  0  0  0
   47.4580   33.1324   47.2269 H   0  0  0  0  0  0  0  0  0  0  0  0
   45.8022   32.6398   48.7366 H   0  0  0  0  0  0  0  0  0  0  0  0
   44.7364   33.4609   47.5464 H   0  0  0  0  0  0  0  0  0  0  0  0
   44.8701   31.6696   47.5464 H   0  0  0  0  0  0  0  0  0  0  0  0
  1  6  2  0
  2  3  2  0
  2  1  1  0
  3  4  1  0
  4  5  2  0
  5  8  1  0
  6  5  1  0
  7  1  1  0
  8  9  1  0
  2 10  1  0
  3 11  1  0
  7 12  1  0
  8 13  1  0
  8 14  1  0
  9 15  1  0
  9 16  1  0
  9 17  1  0
M  ISO  8  10  14  11  14  12   3  13   8  14   8  15   8  16   8  17   8
M  END
>  <minimizedAffinity>  (1) 
-3.77369213

>  <minimizedRMSD>  (1) 
0.907637477

$$$$
