
     RDKit          3D

 28 30  0  0  0  0  0  0  0  0999 V2000
   45.5720   35.2890   42.8960 C   0  0  0  0  0  0  0  0  0  0  0  0
   46.7360   35.0890   42.0920 C   0  0  0  0  0  0  0  0  0  0  0  0
   47.7390   34.2510   42.5700 C   0  0  0  0  0  0  0  0  0  0  0  0
   47.5850   33.6580   43.7650 N   0  0  0  0  0  0  0  0  0  0  0  0
   46.4770   33.8570   44.5190 C   0  0  0  0  0  0  0  0  0  0  0  0
   45.4880   34.6560   44.0940 N   0  0  0  0  0  0  0  0  0  0  0  0
   46.2360   33.2670   45.7940 N   0  0  0  0  0  0  0  0  0  0  0  0
   46.9180   32.2100   46.2700 C   0  0  0  0  0  0  0  0  0  0  0  0
   46.5900   31.7270   47.5240 C   0  0  0  0  0  0  0  0  0  0  0  0
   45.5800   32.3260   48.2660 C   0  0  0  0  0  0  0  0  0  0  0  0
   45.3270   31.8460   49.3950 O   0  0  0  0  0  0  0  0  0  0  0  0
   44.9380   33.3890   47.7170 N   0  0  0  0  0  0  0  0  0  0  0  0
   45.2570   33.8560   46.5010 C   0  0  0  0  0  0  0  0  0  0  0  0
   44.5520   34.8500   46.1580 O   0  0  0  0  0  0  0  0  0  0  0  0
   44.5980   36.1020   42.4360 O   0  0  0  0  0  0  0  0  0  0  0  0
   43.5090   35.5850   41.7560 C   0  0  0  0  0  0  0  0  0  0  0  0
   43.3030   34.9980   40.5340 C   0  0  0  0  0  0  0  0  0  0  0  0
   41.9950   34.6930   40.4210 N   0  0  0  0  0  0  0  0  0  0  0  0
   41.3950   35.0940   41.5770 C   0  0  0  0  0  0  0  0  0  0  0  0
   42.3200   35.6480   42.4120 N   0  0  0  0  0  0  0  0  0  0  0  0
   46.8372   35.5866   41.1162 H   0  0  0  0  0  0  0  0  0  0  0  0
   48.6479   34.0763   41.9755 H   0  0  0  0  0  0  0  0  0  0  0  0
   47.7169   31.7412   45.6767 H   0  0  0  0  0  0  0  0  0  0  0  0
   47.1323   30.8633   47.9361 H   0  0  0  0  0  0  0  0  0  0  0  0
   44.1855   33.8492   48.2489 H   0  0  0  0  0  0  0  0  0  0  0  0
   44.0752   34.8080   39.7740 H   0  0  0  0  0  0  0  0  0  0  0  0
   40.3238   34.9868   41.8030 H   0  0  0  0  0  0  0  0  0  0  0  0
   42.1516   36.0362   43.3511 H   0  0  0  0  0  0  0  0  0  0  0  0
  1  6  2  0
  2  3  2  0
  2  1  1  0
  3  4  1  0
  4  5  2  0
  5  7  1  0
  6  5  1  0
  7  8  1  0
  7 13  1  0
  8  9  2  0
  9 10  1  0
 10 11  2  0
 12 10  1  0
 13 12  1  0
 14 13  2  0
 15  1  1  0
 16 20  1  0
 16 15  1  0
 17 16  2  0
 18 17  1  0
 18 19  2  0
 19 20  1  0
  2 21  1  0
  3 22  1  0
  8 23  1  0
  9 24  1  0
 12 25  1  0
 17 26  1  0
 19 27  1  0
 20 28  1  0
M  ISO  8  21  14  22  14  23  14  24  14  25   9  26  14  27  14  28   9
M  END
>  <minimizedAffinity>  (1) 
-6.83059311

>  <minimizedRMSD>  (1) 
1.54999089

$$$$
