
     RDKit          3D

 30 31  0  0  0  0  0  0  0  0999 V2000
   45.6030   35.0780   42.7400 C   0  0  0  0  0  0  0  0  0  0  0  0
   46.7810   34.8910   41.9720 C   0  0  0  0  0  0  0  0  0  0  0  0
   47.8190   34.1370   42.5080 C   0  0  0  0  0  0  0  0  0  0  0  0
   47.6610   33.6160   43.7380 N   0  0  0  0  0  0  0  0  0  0  0  0
   46.5340   33.8040   44.4560 C   0  0  0  0  0  0  0  0  0  0  0  0
   45.5160   34.5280   43.9620 N   0  0  0  0  0  0  0  0  0  0  0  0
   46.3040   33.2800   45.7620 N   0  0  0  0  0  0  0  0  0  0  0  0
   47.0500   32.3010   46.3170 C   0  0  0  0  0  0  0  0  0  0  0  0
   46.7250   31.8760   47.5960 C   0  0  0  0  0  0  0  0  0  0  0  0
   45.6750   32.4320   48.2840 C   0  0  0  0  0  0  0  0  0  0  0  0
   45.4230   32.0110   49.4370 O   0  0  0  0  0  0  0  0  0  0  0  0
   44.9780   33.4040   47.6580 N   0  0  0  0  0  0  0  0  0  0  0  0
   45.2800   33.8300   46.4160 C   0  0  0  0  0  0  0  0  0  0  0  0
   44.5240   34.7410   45.9970 O   0  0  0  0  0  0  0  0  0  0  0  0
   44.5940   35.8080   42.2240 O   0  0  0  0  0  0  0  0  0  0  0  0
   43.6340   35.5400   41.2850 C   0  0  0  0  0  0  0  0  0  0  0  0
   42.2310   35.3950   41.8540 C   0  0  0  0  0  0  0  0  0  0  0  0
   43.8810   34.3060   40.4540 C   0  0  0  0  0  0  0  0  0  0  0  0
   46.8717   35.3349   40.9696 H   0  0  0  0  0  0  0  0  0  0  0  0
   48.7464   33.9707   41.9403 H   0  0  0  0  0  0  0  0  0  0  0  0
   47.8923   31.8530   45.7695 H   0  0  0  0  0  0  0  0  0  0  0  0
   47.3188   31.0793   48.0679 H   0  0  0  0  0  0  0  0  0  0  0  0
   44.1834   33.8374   48.1496 H   0  0  0  0  0  0  0  0  0  0  0  0
   43.7059   36.4355   40.6503 H   0  0  0  0  0  0  0  0  0  0  0  0
   42.2787   35.3999   42.9530 H   0  0  0  0  0  0  0  0  0  0  0  0
   41.6075   36.2335   41.5103 H   0  0  0  0  0  0  0  0  0  0  0  0
   41.7921   34.4467   41.5103 H   0  0  0  0  0  0  0  0  0  0  0  0
   44.0532   33.4456   41.1174 H   0  0  0  0  0  0  0  0  0  0  0  0
   43.0043   34.1099   39.8192 H   0  0  0  0  0  0  0  0  0  0  0  0
   44.7656   34.4624   39.8192 H   0  0  0  0  0  0  0  0  0  0  0  0
  1  6  2  0
  2  3  2  0
  2  1  1  0
  3  4  1  0
  4  5  2  0
  5  7  1  0
  6  5  1  0
  7  8  1  0
  7 13  1  0
  8  9  2  0
  9 10  1  0
 10 11  2  0
 12 10  1  0
 13 12  1  0
 14 13  2  0
 15  1  1  0
 16 17  1  0
 16 15  1  0
 18 16  1  0
  2 19  1  0
  3 20  1  0
  8 21  1  0
  9 22  1  0
 12 23  1  0
 16 24  1  0
 17 25  1  0
 17 26  1  0
 17 27  1  0
 18 28  1  0
 18 29  1  0
 18 30  1  0
M  ISO  8  19  14  20  14  21  14  22  14  23   9  24   8  25   8  26   8
M  ISO  4  27   8  28   8  29   8  30   8
M  END
>  <minimizedAffinity>  (1) 
-5.76659727

>  <minimizedRMSD>  (1) 
1.49775493

$$$$
