
     RDKit          3D

 38 40  0  0  0  0  0  0  0  0999 V2000
   45.6230   35.1780   42.7540 C   0  0  0  0  0  0  0  0  0  0  0  0
   46.7510   34.9560   41.9510 C   0  0  0  0  0  0  0  0  0  0  0  0
   47.7330   34.1290   42.4620 C   0  0  0  0  0  0  0  0  0  0  0  0
   47.5820   33.5790   43.6760 N   0  0  0  0  0  0  0  0  0  0  0  0
   46.4990   33.8060   44.4210 C   0  0  0  0  0  0  0  0  0  0  0  0
   45.5350   34.5930   43.9660 N   0  0  0  0  0  0  0  0  0  0  0  0
   46.2510   33.2670   45.7220 N   0  0  0  0  0  0  0  0  0  0  0  0
   46.9360   32.2340   46.2330 C   0  0  0  0  0  0  0  0  0  0  0  0
   46.6220   31.7790   47.5100 C   0  0  0  0  0  0  0  0  0  0  0  0
   45.6080   32.4110   48.2200 C   0  0  0  0  0  0  0  0  0  0  0  0
   45.3580   31.9700   49.3660 O   0  0  0  0  0  0  0  0  0  0  0  0
   44.9700   33.4440   47.6320 N   0  0  0  0  0  0  0  0  0  0  0  0
   45.2850   33.8640   46.4090 C   0  0  0  0  0  0  0  0  0  0  0  0
   44.5810   34.8430   46.0200 O   0  0  0  0  0  0  0  0  0  0  0  0
   44.6370   35.9920   42.2680 O   0  0  0  0  0  0  0  0  0  0  0  0
   43.4380   35.5140   41.8310 C   0  0  0  0  0  0  0  0  0  0  0  0
   42.3470   35.4220   42.4700 O   0  0  0  0  0  0  0  0  0  0  0  0
   42.6400   34.9370   40.7510 N   0  0  0  0  0  0  0  0  0  0  0  0
   41.2290   34.8730   40.7550 C   0  0  0  0  0  0  0  0  0  0  0  0
   40.6440   35.5460   39.5130 C   0  0  0  0  0  0  0  0  0  0  0  0
   41.4720   35.1990   38.2890 C   0  0  0  0  0  0  0  0  0  0  0  0
   42.3560   33.9830   38.5760 C   0  0  0  0  0  0  0  0  0  0  0  0
   43.3550   34.4130   39.6220 C   0  0  0  0  0  0  0  0  0  0  0  0
   46.8497   35.4196   40.9584 H   0  0  0  0  0  0  0  0  0  0  0  0
   48.6387   33.9217   41.8731 H   0  0  0  0  0  0  0  0  0  0  0  0
   47.7355   31.7526   45.6507 H   0  0  0  0  0  0  0  0  0  0  0  0
   47.1680   30.9320   47.9509 H   0  0  0  0  0  0  0  0  0  0  0  0
   44.2159   33.9224   48.1453 H   0  0  0  0  0  0  0  0  0  0  0  0
   40.9173   33.8182   40.7726 H   0  0  0  0  0  0  0  0  0  0  0  0
   40.8578   35.4007   41.6459 H   0  0  0  0  0  0  0  0  0  0  0  0
   39.6113   35.1979   39.3636 H   0  0  0  0  0  0  0  0  0  0  0  0
   40.6559   36.6365   39.6567 H   0  0  0  0  0  0  0  0  0  0  0  0
   42.1083   36.0568   38.0257 H   0  0  0  0  0  0  0  0  0  0  0  0
   40.7962   34.9623   37.4539 H   0  0  0  0  0  0  0  0  0  0  0  0
   41.7448   33.1504   38.9545 H   0  0  0  0  0  0  0  0  0  0  0  0
   42.8622   33.6364   37.6630 H   0  0  0  0  0  0  0  0  0  0  0  0
   43.9591   33.5486   39.9348 H   0  0  0  0  0  0  0  0  0  0  0  0
   44.0224   35.1839   39.2094 H   0  0  0  0  0  0  0  0  0  0  0  0
  1  6  2  0
  2  3  2  0
  2  1  1  0
  3  4  1  0
  4  5  2  0
  5  7  1  0
  6  5  1  0
  7  8  1  0
  7 13  1  0
  8  9  2  0
  9 10  1  0
 10 11  2  0
 12 10  1  0
 13 12  1  0
 14 13  2  0
 15  1  1  0
 16 15  1  0
 16 17  2  0
 18 19  1  0
 18 16  1  0
 20 19  1  0
 21 22  1  0
 21 20  1  0
 22 23  1  0
 23 18  1  0
  2 24  1  0
  3 25  1  0
  8 26  1  0
  9 27  1  0
 12 28  1  0
 19 29  1  0
 19 30  1  0
 20 31  1  0
 20 32  1  0
 21 33  1  0
 21 34  1  0
 22 35  1  0
 22 36  1  0
 23 37  1  0
 23 38  1  0
M  ISO  8  24  14  25  14  26  14  27  14  28   9  29  13  30  13  31  13
M  ISO  7  32  13  33  13  34  13  35  13  36  13  37  13  38  13
M  END
>  <minimizedAffinity>  (1) 
-7.04910946

>  <minimizedRMSD>  (1) 
0.835069358

$$$$
