
     RDKit          3D

 33 35  0  0  0  0  0  0  0  0999 V2000
   45.7910   35.0050   42.6510 C   0  0  0  0  0  0  0  0  0  0  0  0
   46.9490   34.7550   41.8770 C   0  0  0  0  0  0  0  0  0  0  0  0
   47.9290   33.9500   42.4190 C   0  0  0  0  0  0  0  0  0  0  0  0
   47.7490   33.4390   43.6480 N   0  0  0  0  0  0  0  0  0  0  0  0
   46.6360   33.6910   44.3710 C   0  0  0  0  0  0  0  0  0  0  0  0
   45.6710   34.4650   43.8740 N   0  0  0  0  0  0  0  0  0  0  0  0
   46.3670   33.1950   45.6800 N   0  0  0  0  0  0  0  0  0  0  0  0
   47.0430   32.1910   46.2550 C   0  0  0  0  0  0  0  0  0  0  0  0
   46.7120   31.7770   47.5270 C   0  0  0  0  0  0  0  0  0  0  0  0
   45.6780   32.4070   48.2010 C   0  0  0  0  0  0  0  0  0  0  0  0
   45.3770   32.0350   49.3490 O   0  0  0  0  0  0  0  0  0  0  0  0
   45.0320   33.4260   47.5510 N   0  0  0  0  0  0  0  0  0  0  0  0
   45.3670   33.8120   46.3180 C   0  0  0  0  0  0  0  0  0  0  0  0
   44.6690   34.7610   45.8780 O   0  0  0  0  0  0  0  0  0  0  0  0
   44.8550   35.7990   42.0750 O   0  0  0  0  0  0  0  0  0  0  0  0
   43.5210   35.6020   42.1550 C   0  0  0  0  0  0  0  0  0  0  0  0
   42.6900   35.4820   43.1670 O   0  0  0  0  0  0  0  0  0  0  0  0
   42.5110   35.4620   41.0400 C   0  0  0  0  0  0  0  0  0  0  0  0
   42.7370   35.0100   39.7670 C   0  0  0  0  0  0  0  0  0  0  0  0
   41.7050   34.9140   38.8310 C   0  0  0  0  0  0  0  0  0  0  0  0
   40.4250   35.2690   39.1540 C   0  0  0  0  0  0  0  0  0  0  0  0
   40.1110   35.7320   40.4110 C   0  0  0  0  0  0  0  0  0  0  0  0
   41.1850   35.7930   41.2610 C   0  0  0  0  0  0  0  0  0  0  0  0
   47.0641   35.1897   40.8731 H   0  0  0  0  0  0  0  0  0  0  0  0
   48.8457   33.7294   41.8524 H   0  0  0  0  0  0  0  0  0  0  0  0
   47.8622   31.6973   45.7116 H   0  0  0  0  0  0  0  0  0  0  0  0
   47.2639   30.9533   48.0034 H   0  0  0  0  0  0  0  0  0  0  0  0
   44.2606   33.9112   48.0310 H   0  0  0  0  0  0  0  0  0  0  0  0
   43.7558   34.7155   39.4749 H   0  0  0  0  0  0  0  0  0  0  0  0
   41.9256   34.5469   37.8178 H   0  0  0  0  0  0  0  0  0  0  0  0
   39.6325   35.1830   38.3960 H   0  0  0  0  0  0  0  0  0  0  0  0
   39.0930   36.0259   40.7065 H   0  0  0  0  0  0  0  0  0  0  0  0
   40.9587   36.1610   42.2726 H   0  0  0  0  0  0  0  0  0  0  0  0
  1  6  2  0
  2  3  2  0
  2  1  1  0
  3  4  1  0
  4  5  2  0
  5  7  1  0
  6  5  1  0
  7  8  1  0
  7 13  1  0
  8  9  2  0
  9 10  1  0
 10 11  2  0
 12 10  1  0
 13 12  1  0
 14 13  2  0
 15 16  1  0
 15  1  1  0
 16 17  2  0
 18 23  1  0
 18 16  1  0
 19 18  2  0
 20 21  2  0
 20 19  1  0
 21 22  1  0
 22 23  2  0
  2 24  1  0
  3 25  1  0
  8 26  1  0
  9 27  1  0
 12 28  1  0
 19 29  1  0
 20 30  1  0
 21 31  1  0
 22 32  1  0
 23 33  1  0
M  ISO  8  24  14  25  14  26  14  27  14  28   9  29  14  30  14  31  14
M  ISO  2  32  14  33  14
M  END
>  <minimizedAffinity>  (1) 
-6.79989481

>  <minimizedRMSD>  (1) 
1.46326005

$$$$
