
     RDKit          3D

 29 31  0  0  0  0  0  0  0  0999 V2000
   45.6480   35.1490   42.8460 C   0  0  0  0  0  0  0  0  0  0  0  0
   46.7890   34.9450   42.0490 C   0  0  0  0  0  0  0  0  0  0  0  0
   47.7980   34.1480   42.5520 C   0  0  0  0  0  0  0  0  0  0  0  0
   47.6520   33.6030   43.7700 N   0  0  0  0  0  0  0  0  0  0  0  0
   46.5530   33.8090   44.5160 C   0  0  0  0  0  0  0  0  0  0  0  0
   45.5560   34.5790   44.0560 N   0  0  0  0  0  0  0  0  0  0  0  0
   46.3100   33.2640   45.8120 N   0  0  0  0  0  0  0  0  0  0  0  0
   47.0260   32.2500   46.3400 C   0  0  0  0  0  0  0  0  0  0  0  0
   46.6890   31.7840   47.5990 C   0  0  0  0  0  0  0  0  0  0  0  0
   45.6360   32.3550   48.2970 C   0  0  0  0  0  0  0  0  0  0  0  0
   45.3400   31.9300   49.4260 O   0  0  0  0  0  0  0  0  0  0  0  0
   44.9740   33.3650   47.6960 N   0  0  0  0  0  0  0  0  0  0  0  0
   45.2860   33.8300   46.4750 C   0  0  0  0  0  0  0  0  0  0  0  0
   44.5620   34.7760   46.0740 O   0  0  0  0  0  0  0  0  0  0  0  0
   44.6860   35.9370   42.3080 O   0  0  0  0  0  0  0  0  0  0  0  0
   43.4920   35.5090   41.8460 C   0  0  0  0  0  0  0  0  0  0  0  0
   42.2680   35.4830   42.3650 O   0  0  0  0  0  0  0  0  0  0  0  0
   43.2060   34.8930   40.4710 C   0  0  0  0  0  0  0  0  0  0  0  0
   43.8040   33.6230   40.1860 C   0  0  0  0  0  0  0  0  0  0  0  0
   43.2390   33.2050   38.4760 S   0  0  0  0  0  0  0  0  0  0  0  0
   42.2680   34.8340   38.4080 C   0  0  0  0  0  0  0  0  0  0  0  0
   42.5020   35.2520   39.4150 N   0  0  0  0  0  0  0  0  0  0  0  0
   46.8748   35.4068   41.0543 H   0  0  0  0  0  0  0  0  0  0  0  0
   48.7084   33.9623   41.9631 H   0  0  0  0  0  0  0  0  0  0  0  0
   47.8611   31.8024   45.7811 H   0  0  0  0  0  0  0  0  0  0  0  0
   47.2591   30.9571   48.0476 H   0  0  0  0  0  0  0  0  0  0  0  0
   44.1888   33.8022   48.1992 H   0  0  0  0  0  0  0  0  0  0  0  0
   44.4565   33.0270   40.8410 H   0  0  0  0  0  0  0  0  0  0  0  0
   41.6475   35.2499   37.6006 H   0  0  0  0  0  0  0  0  0  0  0  0
  1  6  2  0
  2  3  2  0
  2  1  1  0
  3  4  1  0
  4  5  2  0
  5  7  1  0
  6  5  1  0
  7  8  1  0
  7 13  1  0
  8  9  2  0
  9 10  1  0
 10 11  2  0
 12 10  1  0
 13 12  1  0
 14 13  2  0
 15  1  1  0
 16 15  1  0
 16 17  2  0
 18 16  1  0
 19 18  2  0
 20 19  1  0
 21 20  1  0
 21 22  2  0
 22 18  1  0
  2 23  1  0
  3 24  1  0
  8 25  1  0
  9 26  1  0
 12 27  1  0
 19 28  1  0
 21 29  1  0
M  ISO  7  23  14  24  14  25  14  26  14  27   9  28  14  29  14
M  END
>  <minimizedAffinity>  (1) 
-6.18819952

>  <minimizedRMSD>  (1) 
1.14281082

$$$$
