
     RDKit          3D

 38 41  0  0  0  0  0  0  0  0999 V2000
   47.1200   34.1550   40.3210 C   0  0  0  0  0  0  0  0  0  0  0  0
   47.8770   33.8130   39.2220 C   0  0  0  0  0  0  0  0  0  0  0  0
   47.4160   33.2770   38.0430 C   0  0  0  0  0  0  0  0  0  0  0  0
   46.0660   33.0760   37.9940 N   0  0  0  0  0  0  0  0  0  0  0  0
   45.2860   33.4060   39.0720 C   0  0  0  0  0  0  0  0  0  0  0  0
   45.7910   33.9310   40.2100 N   0  0  0  0  0  0  0  0  0  0  0  0
   43.8850   33.1800   38.9760 N   0  0  0  0  0  0  0  0  0  0  0  0
   43.2580   32.4060   38.0720 C   0  0  0  0  0  0  0  0  0  0  0  0
   41.9320   32.3980   38.2440 N   0  0  0  0  0  0  0  0  0  0  0  0
   41.7060   33.2090   39.3130 C   0  0  0  0  0  0  0  0  0  0  0  0
   40.4830   33.5290   39.8880 C   0  0  0  0  0  0  0  0  0  0  0  0
   39.4100   33.0570   39.4330 O   0  0  0  0  0  0  0  0  0  0  0  0
   40.5430   34.3630   40.9450 N   0  0  0  0  0  0  0  0  0  0  0  0
   41.7330   34.8500   41.4050 C   0  0  0  0  0  0  0  0  0  0  0  0
   41.6110   35.7160   42.5280 N   0  0  0  0  0  0  0  0  0  0  0  0
   42.9130   34.5130   40.8130 N   0  0  0  0  0  0  0  0  0  0  0  0
   42.9220   33.6900   39.7590 C   0  0  0  0  0  0  0  0  0  0  0  0
   47.6900   34.7260   41.5640 C   0  0  0  0  0  0  0  0  0  0  0  0
   47.3810   33.7970   42.7100 C   0  0  0  0  0  0  0  0  0  0  0  0
   44.7180   35.9820   44.2810 C   0  0  0  0  0  0  0  0  0  0  0  0
   45.6410   35.4880   43.3560 C   0  0  0  0  0  0  0  0  0  0  0  0
   46.3850   34.3610   43.6450 C   0  0  0  0  0  0  0  0  0  0  0  0
   46.1790   33.7690   44.8490 N   0  0  0  0  0  0  0  0  0  0  0  0
   45.2700   34.2680   45.7400 C   0  0  0  0  0  0  0  0  0  0  0  0
   44.5620   35.3580   45.4400 N   0  0  0  0  0  0  0  0  0  0  0  0
   48.9608   33.9865   39.2953 H   0  0  0  0  0  0  0  0  0  0  0  0
   48.0828   33.0292   37.2040 H   0  0  0  0  0  0  0  0  0  0  0  0
   43.7768   31.8439   37.2816 H   0  0  0  0  0  0  0  0  0  0  0  0
   39.6704   34.6397   41.4172 H   0  0  0  0  0  0  0  0  0  0  0  0
   42.4524   36.1352   42.9489 H   0  0  0  0  0  0  0  0  0  0  0  0
   40.6813   35.9235   42.9198 H   0  0  0  0  0  0  0  0  0  0  0  0
   48.7797   34.8316   41.4568 H   0  0  0  0  0  0  0  0  0  0  0  0
   47.2516   35.7163   41.7563 H   0  0  0  0  0  0  0  0  0  0  0  0
   46.9878   32.8538   42.3029 H   0  0  0  0  0  0  0  0  0  0  0  0
   48.3134   33.6385   43.2716 H   0  0  0  0  0  0  0  0  0  0  0  0
   44.1264   36.8801   44.0498 H   0  0  0  0  0  0  0  0  0  0  0  0
   45.7760   35.9998   42.3917 H   0  0  0  0  0  0  0  0  0  0  0  0
   45.1218   33.7683   46.7087 H   0  0  0  0  0  0  0  0  0  0  0  0
  1 18  1  0
  2  1  2  0
  3  2  1  0
  4  3  2  0
  4  5  1  0
  5  6  2  0
  6  1  1  0
  7  5  1  0
  7 17  1  0
  8  9  2  0
  8  7  1  0
  9 10  1  0
 10 17  2  0
 10 11  1  0
 11 13  1  0
 12 11  2  0
 13 14  1  0
 14 15  1  0
 16 14  2  0
 17 16  1  0
 18 19  1  0
 19 22  1  0
 20 25  2  0
 21 22  2  0
 21 20  1  0
 22 23  1  0
 23 24  2  0
 25 24  1  0
  2 26  1  0
  3 27  1  0
  8 28  1  0
 13 29  1  0
 15 30  1  0
 15 31  1  0
 18 32  1  0
 18 33  1  0
 19 34  1  0
 19 35  1  0
 20 36  1  0
 21 37  1  0
 24 38  1  0
M  ISO  8  26  14  27  14  28  14  29   9  32   8  33   8  34   8  35   8
M  ISO  3  36  14  37  14  38  14
M  END
>  <minimizedAffinity>  (1) 
-6.41664791

>  <minimizedRMSD>  (1) 
1.82884836

$$$$
