
     RDKit          3D

 41 44  0  0  0  0  0  0  0  0999 V2000
   45.8670   32.2630   46.7240 C   0  0  0  0  0  0  0  0  0  0  0  0
   45.9190   32.8390   47.9990 C   0  0  0  0  0  0  0  0  0  0  0  0
   45.7870   32.1080   49.1620 C   0  0  0  0  0  0  0  0  0  0  0  0
   45.5930   30.7440   49.0860 C   0  0  0  0  0  0  0  0  0  0  0  0
   45.5320   30.1490   47.8380 C   0  0  0  0  0  0  0  0  0  0  0  0
   45.2460   28.8160   47.8180 C   0  0  0  0  0  0  0  0  0  0  0  0
   45.0750   28.1950   46.6200 C   0  0  0  0  0  0  0  0  0  0  0  0
   45.2170   28.9980   45.4850 C   0  0  0  0  0  0  0  0  0  0  0  0
   45.5040   30.3020   45.5170 C   0  0  0  0  0  0  0  0  0  0  0  0
   45.6670   30.9110   46.7050 C   0  0  0  0  0  0  0  0  0  0  0  0
   45.0630   34.8530   44.3510 C   0  0  0  0  0  0  0  0  0  0  0  0
   46.1630   34.9160   43.4800 C   0  0  0  0  0  0  0  0  0  0  0  0
   47.1950   34.0200   43.7210 C   0  0  0  0  0  0  0  0  0  0  0  0
   47.0220   33.2270   44.7240 N   0  0  0  0  0  0  0  0  0  0  0  0
   46.0600   33.0830   45.5720 C   0  0  0  0  0  0  0  0  0  0  0  0
   45.0460   33.9680   45.3360 N   0  0  0  0  0  0  0  0  0  0  0  0
   43.8960   35.7100   44.2910 N   0  0  0  0  0  0  0  0  0  0  0  0
   45.6010   30.9110   44.1750 C   0  0  0  0  0  0  0  0  0  0  0  0
   44.5470   30.7600   43.2160 C   0  0  0  0  0  0  0  0  0  0  0  0
   45.1970   31.2190   41.8940 C   0  0  0  0  0  0  0  0  0  0  0  0
   46.6470   30.7950   42.0170 C   0  0  0  0  0  0  0  0  0  0  0  0
   46.5100   29.9740   43.2890 C   0  0  0  0  0  0  0  0  0  0  0  0
   46.0723   33.9254   48.0774 H   0  0  0  0  0  0  0  0  0  0  0  0
   45.8360   32.6081   50.1405 H   0  0  0  0  0  0  0  0  0  0  0  0
   45.4888   30.1410   50.0001 H   0  0  0  0  0  0  0  0  0  0  0  0
   45.1549   28.2509   48.7573 H   0  0  0  0  0  0  0  0  0  0  0  0
   44.8387   27.1231   46.5486 H   0  0  0  0  0  0  0  0  0  0  0  0
   45.0837   28.5251   44.5008 H   0  0  0  0  0  0  0  0  0  0  0  0
   46.2043   35.6374   42.6506 H   0  0  0  0  0  0  0  0  0  0  0  0
   48.1009   33.9880   43.0979 H   0  0  0  0  0  0  0  0  0  0  0  0
   43.8222   36.4289   43.5571 H   0  0  0  0  0  0  0  0  0  0  0  0
   43.1404   35.6002   44.9823 H   0  0  0  0  0  0  0  0  0  0  0  0
   45.8110   31.9481   44.4756 H   0  0  0  0  0  0  0  0  0  0  0  0
   44.2213   29.7113   43.1511 H   0  0  0  0  0  0  0  0  0  0  0  0
   43.6462   31.3361   43.4740 H   0  0  0  0  0  0  0  0  0  0  0  0
   45.1193   32.3104   41.7809 H   0  0  0  0  0  0  0  0  0  0  0  0
   44.7064   30.7809   41.0123 H   0  0  0  0  0  0  0  0  0  0  0  0
   46.9794   30.1885   41.1616 H   0  0  0  0  0  0  0  0  0  0  0  0
   47.3905   31.6054   42.0390 H   0  0  0  0  0  0  0  0  0  0  0  0
   46.0205   29.0087   43.0929 H   0  0  0  0  0  0  0  0  0  0  0  0
   47.4700   29.7097   43.7566 H   0  0  0  0  0  0  0  0  0  0  0  0
  1  2  2  0
  2  3  1  0
  4  3  2  0
  5  4  1  0
  6  5  2  0
  7  6  1  0
  8  9  1  0
  8  7  2  0
  9 10  2  0
 10  1  1  0
 10  5  1  0
 11 16  2  0
 12 13  2  0
 12 11  1  0
 13 14  1  0
 14 15  2  0
 15  1  1  0
 16 15  1  0
 17 11  1  0
 18  9  1  0
 19 18  1  0
 20 21  1  0
 20 19  1  0
 21 22  1  0
 22 18  1  0
  2 23  1  0
  3 24  1  0
  4 25  1  0
  6 26  1  0
  7 27  1  0
  8 28  1  0
 12 29  1  0
 13 30  1  0
 17 31  1  0
 17 32  1  0
 18 33  1  0
 19 34  1  0
 19 35  1  0
 20 36  1  0
 20 37  1  0
 21 38  1  0
 21 39  1  0
 22 40  1  0
 22 41  1  0
M  ISO  8  23  14  24  14  25  14  26  14  27  14  28  14  29  14  30  14
M  ISO  8  33  13  34  13  35  13  36  13  37  13  38  13  39  13  40  13
M  ISO  1  41  13
M  END
>  <minimizedAffinity>  (1) 
-5.52363586

>  <minimizedRMSD>  (1) 
0.182314843

$$$$
