
     RDKit          3D

 38 41  0  0  0  0  0  0  0  0999 V2000
   45.9550   32.2910   46.6790 C   0  0  0  0  0  0  0  0  0  0  0  0
   46.1240   32.7970   47.9890 C   0  0  0  0  0  0  0  0  0  0  0  0
   45.9820   32.0490   49.1320 C   0  0  0  0  0  0  0  0  0  0  0  0
   45.6540   30.7190   49.0210 C   0  0  0  0  0  0  0  0  0  0  0  0
   45.4760   30.1760   47.7680 C   0  0  0  0  0  0  0  0  0  0  0  0
   45.1360   28.8490   47.7200 C   0  0  0  0  0  0  0  0  0  0  0  0
   44.9260   28.2380   46.4960 C   0  0  0  0  0  0  0  0  0  0  0  0
   45.0820   29.0470   45.3500 C   0  0  0  0  0  0  0  0  0  0  0  0
   45.4290   30.3850   45.4850 C   0  0  0  0  0  0  0  0  0  0  0  0
   45.6310   30.9690   46.6740 C   0  0  0  0  0  0  0  0  0  0  0  0
   45.0580   34.8490   44.3080 C   0  0  0  0  0  0  0  0  0  0  0  0
   46.1360   34.9400   43.4180 C   0  0  0  0  0  0  0  0  0  0  0  0
   47.2080   34.0880   43.6440 C   0  0  0  0  0  0  0  0  0  0  0  0
   47.1230   33.2600   44.6800 N   0  0  0  0  0  0  0  0  0  0  0  0
   46.1270   33.1500   45.5280 C   0  0  0  0  0  0  0  0  0  0  0  0
   45.1050   33.9820   45.2930 N   0  0  0  0  0  0  0  0  0  0  0  0
   43.8600   35.6540   44.2270 N   0  0  0  0  0  0  0  0  0  0  0  0
   45.5080   30.7770   44.1180 N   0  0  0  0  0  0  0  0  0  0  0  0
   46.7150   30.4130   43.3480 C   0  0  0  0  0  0  0  0  0  0  0  0
   46.5930   31.0310   42.0220 C   0  0  0  0  0  0  0  0  0  0  0  0
   45.2260   31.6060   41.9120 C   0  0  0  0  0  0  0  0  0  0  0  0
   44.5910   31.4260   43.2180 C   0  0  0  0  0  0  0  0  0  0  0  0
   46.3864   33.8595   48.0995 H   0  0  0  0  0  0  0  0  0  0  0  0
   46.1285   32.5074   50.1212 H   0  0  0  0  0  0  0  0  0  0  0  0
   45.5353   30.0969   49.9204 H   0  0  0  0  0  0  0  0  0  0  0  0
   45.0305   28.2720   48.6505 H   0  0  0  0  0  0  0  0  0  0  0  0
   44.6514   27.1755   46.4202 H   0  0  0  0  0  0  0  0  0  0  0  0
   44.9286   28.6174   44.3491 H   0  0  0  0  0  0  0  0  0  0  0  0
   46.1330   35.6527   42.5801 H   0  0  0  0  0  0  0  0  0  0  0  0
   48.0933   34.0977   42.9912 H   0  0  0  0  0  0  0  0  0  0  0  0
   43.7592   36.3535   43.4777 H   0  0  0  0  0  0  0  0  0  0  0  0
   43.1072   35.5281   44.9186 H   0  0  0  0  0  0  0  0  0  0  0  0
   47.6139   30.7904   43.8574 H   0  0  0  0  0  0  0  0  0  0  0  0
   46.8047   29.3202   43.2603 H   0  0  0  0  0  0  0  0  0  0  0  0
   47.3737   31.0630   41.2477 H   0  0  0  0  0  0  0  0  0  0  0  0
   44.7795   32.0749   41.0228 H   0  0  0  0  0  0  0  0  0  0  0  0
   44.3108   32.4080   43.6268 H   0  0  0  0  0  0  0  0  0  0  0  0
   43.6914   30.8035   43.1030 H   0  0  0  0  0  0  0  0  0  0  0  0
  1  2  2  0
  2  3  1  0
  4  3  2  0
  5  4  1  0
  6  5  2  0
  7  6  1  0
  8  9  1  0
  8  7  2  0
  9 10  2  0
 10  1  1  0
 10  5  1  0
 11 16  2  0
 12 13  2  0
 12 11  1  0
 13 14  1  0
 14 15  2  0
 15  1  1  0
 16 15  1  0
 17 11  1  0
 18  9  1  0
 19 18  1  0
 20 19  1  0
 21 20  2  0
 21 22  1  0
 22 18  1  0
  2 23  1  0
  3 24  1  0
  4 25  1  0
  6 26  1  0
  7 27  1  0
  8 28  1  0
 12 29  1  0
 13 30  1  0
 17 31  1  0
 17 32  1  0
 19 33  1  0
 19 34  1  0
 20 35  1  0
 21 36  1  0
 22 37  1  0
 22 38  1  0
M  ISO  8  23  14  24  14  25  14  26  14  27  14  28  14  29  14  30  14
M  ISO  6  33  13  34  13  35  13  36  13  37  13  38  13
M  END
>  <minimizedAffinity>  (1) 
-5.50055742

>  <minimizedRMSD>  (1) 
0.290798724

$$$$
