
     RDKit          3D

 42 45  0  0  0  0  0  0  0  0999 V2000
   45.9320   32.2670   46.6110 C   0  0  0  0  0  0  0  0  0  0  0  0
   45.9910   32.8130   47.9160 C   0  0  0  0  0  0  0  0  0  0  0  0
   45.7960   32.0850   49.0680 C   0  0  0  0  0  0  0  0  0  0  0  0
   45.5270   30.7520   48.9760 C   0  0  0  0  0  0  0  0  0  0  0  0
   45.4560   30.1680   47.7400 C   0  0  0  0  0  0  0  0  0  0  0  0
   45.1860   28.8200   47.6910 C   0  0  0  0  0  0  0  0  0  0  0  0
   45.1030   28.1650   46.4870 C   0  0  0  0  0  0  0  0  0  0  0  0
   45.3090   28.9470   45.3310 C   0  0  0  0  0  0  0  0  0  0  0  0
   45.5790   30.3050   45.4390 C   0  0  0  0  0  0  0  0  0  0  0  0
   45.6560   30.9290   46.6220 C   0  0  0  0  0  0  0  0  0  0  0  0
   45.1700   34.7960   44.1590 C   0  0  0  0  0  0  0  0  0  0  0  0
   46.2780   34.8440   43.3110 C   0  0  0  0  0  0  0  0  0  0  0  0
   47.3260   33.9810   43.5870 C   0  0  0  0  0  0  0  0  0  0  0  0
   47.1950   33.1700   44.6400 N   0  0  0  0  0  0  0  0  0  0  0  0
   46.1650   33.1020   45.4530 C   0  0  0  0  0  0  0  0  0  0  0  0
   45.1660   33.9450   45.1680 N   0  0  0  0  0  0  0  0  0  0  0  0
   43.9820   35.5970   44.0170 N   0  0  0  0  0  0  0  0  0  0  0  0
   45.6550   30.6900   44.0670 N   0  0  0  0  0  0  0  0  0  0  0  0
   44.6000   31.3040   43.2550 C   0  0  0  0  0  0  0  0  0  0  0  0
   45.0580   31.5730   41.8620 C   0  0  0  0  0  0  0  0  0  0  0  0
   45.9220   30.4800   41.3980 N   0  0  0  0  0  0  0  0  0  0  0  0
   47.1630   30.6330   42.0920 C   0  0  0  0  0  0  0  0  0  0  0  0
   46.9780   30.2740   43.5360 C   0  0  0  0  0  0  0  0  0  0  0  0
   46.2063   33.8871   48.0157 H   0  0  0  0  0  0  0  0  0  0  0  0
   45.8566   32.5736   50.0517 H   0  0  0  0  0  0  0  0  0  0  0  0
   45.3688   30.1524   49.8845 H   0  0  0  0  0  0  0  0  0  0  0  0
   45.0350   28.2609   48.6262 H   0  0  0  0  0  0  0  0  0  0  0  0
   44.8874   27.0880   46.4270 H   0  0  0  0  0  0  0  0  0  0  0  0
   45.2554   28.4780   44.3374 H   0  0  0  0  0  0  0  0  0  0  0  0
   46.3173   35.5384   42.4588 H   0  0  0  0  0  0  0  0  0  0  0  0
   48.2315   33.9644   42.9627 H   0  0  0  0  0  0  0  0  0  0  0  0
   43.9122   36.2836   43.2524 H   0  0  0  0  0  0  0  0  0  0  0  0
   43.2020   35.4834   44.6800 H   0  0  0  0  0  0  0  0  0  0  0  0
   43.7362   30.6238   43.2205 H   0  0  0  0  0  0  0  0  0  0  0  0
   44.3291   32.2648   43.7169 H   0  0  0  0  0  0  0  0  0  0  0  0
   44.1833   31.6522   41.1997 H   0  0  0  0  0  0  0  0  0  0  0  0
   45.6258   32.5149   41.8439 H   0  0  0  0  0  0  0  0  0  0  0  0
   45.4972   29.5689   41.6221 H   0  0  0  0  0  0  0  0  0  0  0  0
   47.9176   29.9701   41.6435 H   0  0  0  0  0  0  0  0  0  0  0  0
   47.4989   31.6776   42.0149 H   0  0  0  0  0  0  0  0  0  0  0  0
   47.0721   29.1832   43.6419 H   0  0  0  0  0  0  0  0  0  0  0  0
   47.7488   30.8076   44.1115 H   0  0  0  0  0  0  0  0  0  0  0  0
  1 10  1  0
  1  2  2  0
  2  3  1  0
  4  3  2  0
  5  4  1  0
  6  5  2  0
  7  6  1  0
  8  9  1  0
  8  7  2  0
  9 10  2  0
 10  5  1  0
 11 16  2  0
 12 13  2  0
 12 11  1  0
 13 14  1  0
 14 15  2  0
 15  1  1  0
 16 15  1  0
 17 11  1  0
 18  9  1  0
 19 18  1  0
 20 19  1  0
 21 20  1  0
 21 22  1  0
 22 23  1  0
 23 18  1  0
  2 24  1  0
  3 25  1  0
  4 26  1  0
  6 27  1  0
  7 28  1  0
  8 29  1  0
 12 30  1  0
 13 31  1  0
 17 32  1  0
 17 33  1  0
 19 34  1  0
 19 35  1  0
 20 36  1  0
 20 37  1  0
 21 38  1  0
 22 39  1  0
 22 40  1  0
 23 41  1  0
 23 42  1  0
M  ISO  8  24  14  25  14  26  14  27  14  28  14  29  14  30  14  31  14
M  ISO  8  34  13  35  13  36  13  37  13  38   5  39  13  40  13  41  13
M  ISO  1  42  13
M  END
>  <minimizedAffinity>  (1) 
-5.57834482

>  <minimizedRMSD>  (1) 
0.315868258

$$$$
