
     RDKit          3D

 34 36  0  0  0  0  0  0  0  0999 V2000
   45.7790   32.1880   46.8320 C   0  0  0  0  0  0  0  0  0  0  0  0
   45.8680   32.7380   48.1110 C   0  0  0  0  0  0  0  0  0  0  0  0
   45.7430   32.0170   49.2690 C   0  0  0  0  0  0  0  0  0  0  0  0
   45.5180   30.6560   49.1890 C   0  0  0  0  0  0  0  0  0  0  0  0
   45.4210   30.0710   47.9310 C   0  0  0  0  0  0  0  0  0  0  0  0
   45.1750   28.7220   47.8870 C   0  0  0  0  0  0  0  0  0  0  0  0
   45.0370   28.0840   46.6920 C   0  0  0  0  0  0  0  0  0  0  0  0
   45.1580   28.8720   45.5580 C   0  0  0  0  0  0  0  0  0  0  0  0
   45.4110   30.2280   45.6330 C   0  0  0  0  0  0  0  0  0  0  0  0
   45.5510   30.8520   46.8210 C   0  0  0  0  0  0  0  0  0  0  0  0
   45.0940   34.8060   44.4530 C   0  0  0  0  0  0  0  0  0  0  0  0
   46.1690   34.7950   43.5530 C   0  0  0  0  0  0  0  0  0  0  0  0
   47.1710   33.8400   43.7720 C   0  0  0  0  0  0  0  0  0  0  0  0
   47.0230   33.0390   44.7940 N   0  0  0  0  0  0  0  0  0  0  0  0
   46.0160   33.0120   45.6700 C   0  0  0  0  0  0  0  0  0  0  0  0
   45.0420   33.9430   45.4610 N   0  0  0  0  0  0  0  0  0  0  0  0
   43.9730   35.6820   44.3830 N   0  0  0  0  0  0  0  0  0  0  0  0
   45.4730   30.8440   44.3020 C   0  0  0  0  0  0  0  0  0  0  0  0
   44.4370   30.2220   43.3080 C   0  0  0  0  0  0  0  0  0  0  0  0
   46.0502   33.8196   48.1949 H   0  0  0  0  0  0  0  0  0  0  0  0
   45.8205   32.5138   50.2474 H   0  0  0  0  0  0  0  0  0  0  0  0
   45.4178   30.0485   50.1005 H   0  0  0  0  0  0  0  0  0  0  0  0
   45.0886   28.1518   48.8237 H   0  0  0  0  0  0  0  0  0  0  0  0
   44.8404   27.0035   46.6300 H   0  0  0  0  0  0  0  0  0  0  0  0
   45.0493   28.4035   44.5687 H   0  0  0  0  0  0  0  0  0  0  0  0
   46.2234   35.5036   42.7134 H   0  0  0  0  0  0  0  0  0  0  0  0
   48.0468   33.7675   43.1104 H   0  0  0  0  0  0  0  0  0  0  0  0
   43.9179   36.3893   43.6362 H   0  0  0  0  0  0  0  0  0  0  0  0
   43.2175   35.6082   45.0791 H   0  0  0  0  0  0  0  0  0  0  0  0
   45.2659   31.9198   44.4007 H   0  0  0  0  0  0  0  0  0  0  0  0
   46.4788   30.6627   43.8951 H   0  0  0  0  0  0  0  0  0  0  0  0
   43.6294   29.7371   43.8760 H   0  0  0  0  0  0  0  0  0  0  0  0
   44.0143   31.0158   42.6746 H   0  0  0  0  0  0  0  0  0  0  0  0
   44.9390   29.4758   42.6746 H   0  0  0  0  0  0  0  0  0  0  0  0
  1  2  2  0
  2  3  1  0
  4  3  2  0
  5  4  1  0
  6  5  2  0
  7  6  1  0
  8  9  1  0
  8  7  2  0
  9 10  2  0
 10  1  1  0
 10  5  1  0
 11 16  2  0
 12 13  2  0
 12 11  1  0
 13 14  1  0
 14 15  2  0
 15  1  1  0
 16 15  1  0
 17 11  1  0
 18  9  1  0
 19 18  1  0
  2 20  1  0
  3 21  1  0
  4 22  1  0
  6 23  1  0
  7 24  1  0
  8 25  1  0
 12 26  1  0
 13 27  1  0
 17 28  1  0
 17 29  1  0
 18 30  1  0
 18 31  1  0
 19 32  1  0
 19 33  1  0
 19 34  1  0
M  ISO  8  20  14  21  14  22  14  23  14  24  14  25  14  26  14  27  14
M  ISO  5  30   8  31   8  32   8  33   8  34   8
M  END
>  <minimizedAffinity>  (1) 
-5.35791779

>  <minimizedRMSD>  (1) 
0.129744738

$$$$
