
     RDKit          3D

 45 49  0  0  0  0  0  0  0  0999 V2000
   46.4220   32.5330   45.7380 C   0  0  0  0  0  0  0  0  0  0  0  0
   46.8550   32.8980   47.0440 C   0  0  0  0  0  0  0  0  0  0  0  0
   47.0470   32.0220   48.0670 C   0  0  0  0  0  0  0  0  0  0  0  0
   46.8100   30.6840   47.8390 C   0  0  0  0  0  0  0  0  0  0  0  0
   46.3880   30.2700   46.5960 C   0  0  0  0  0  0  0  0  0  0  0  0
   46.1640   28.9380   46.4250 C   0  0  0  0  0  0  0  0  0  0  0  0
   45.7280   28.4610   45.1910 C   0  0  0  0  0  0  0  0  0  0  0  0
   45.5410   29.4150   44.1720 C   0  0  0  0  0  0  0  0  0  0  0  0
   45.7950   30.7560   44.4350 C   0  0  0  0  0  0  0  0  0  0  0  0
   46.2150   31.1990   45.6170 C   0  0  0  0  0  0  0  0  0  0  0  0
   44.8430   35.1750   43.8930 C   0  0  0  0  0  0  0  0  0  0  0  0
   45.7430   35.5480   42.8940 C   0  0  0  0  0  0  0  0  0  0  0  0
   46.9380   34.8720   42.8470 C   0  0  0  0  0  0  0  0  0  0  0  0
   47.1540   33.9150   43.7470 N   0  0  0  0  0  0  0  0  0  0  0  0
   46.2820   33.5510   44.7190 C   0  0  0  0  0  0  0  0  0  0  0  0
   45.1270   34.2100   44.7590 N   0  0  0  0  0  0  0  0  0  0  0  0
   43.5510   35.7800   44.0900 N   0  0  0  0  0  0  0  0  0  0  0  0
   45.4430   31.4030   43.1650 C   0  0  0  0  0  0  0  0  0  0  0  0
   44.2210   32.0440   42.8130 C   0  0  0  0  0  0  0  0  0  0  0  0
   44.0130   32.5760   41.5670 C   0  0  0  0  0  0  0  0  0  0  0  0
   44.9910   32.5030   40.6170 C   0  0  0  0  0  0  0  0  0  0  0  0
   46.2110   31.9100   40.8410 C   0  0  0  0  0  0  0  0  0  0  0  0
   46.3840   31.3770   42.1300 C   0  0  0  0  0  0  0  0  0  0  0  0
   47.6720   30.7390   42.3980 C   0  0  0  0  0  0  0  0  0  0  0  0
   48.7800   31.2900   43.0030 C   0  0  0  0  0  0  0  0  0  0  0  0
   49.7790   30.3340   43.0540 C   0  0  0  0  0  0  0  0  0  0  0  0
   49.2020   29.2150   42.4560 C   0  0  0  0  0  0  0  0  0  0  0  0
   47.9600   29.4780   42.0770 O   0  0  0  0  0  0  0  0  0  0  0  0
   47.0479   33.9631   47.2398 H   0  0  0  0  0  0  0  0  0  0  0  0
   47.3837   32.3738   49.0534 H   0  0  0  0  0  0  0  0  0  0  0  0
   46.9572   29.9508   48.6457 H   0  0  0  0  0  0  0  0  0  0  0  0
   46.3270   28.2400   47.2594 H   0  0  0  0  0  0  0  0  0  0  0  0
   45.5389   27.3909   45.0207 H   0  0  0  0  0  0  0  0  0  0  0  0
   45.1965   29.1013   43.1755 H   0  0  0  0  0  0  0  0  0  0  0  0
   45.5063   36.3474   42.1764 H   0  0  0  0  0  0  0  0  0  0  0  0
   47.6953   35.1146   42.0870 H   0  0  0  0  0  0  0  0  0  0  0  0
   43.2377   36.5392   43.4684 H   0  0  0  0  0  0  0  0  0  0  0  0
   42.9403   35.4535   44.8525 H   0  0  0  0  0  0  0  0  0  0  0  0
   43.4200   32.1143   43.5636 H   0  0  0  0  0  0  0  0  0  0  0  0
   43.0553   33.0632   41.3317 H   0  0  0  0  0  0  0  0  0  0  0  0
   44.7936   32.9389   39.6265 H   0  0  0  0  0  0  0  0  0  0  0  0
   46.9931   31.8567   40.0693 H   0  0  0  0  0  0  0  0  0  0  0  0
   48.8578   32.3195   43.3827 H   0  0  0  0  0  0  0  0  0  0  0  0
   50.7925   30.4339   43.4697 H   0  0  0  0  0  0  0  0  0  0  0  0
   49.7076   28.2479   42.3179 H   0  0  0  0  0  0  0  0  0  0  0  0
  1  2  2  0
  2  3  1  0
  4  3  2  0
  5  4  1  0
  6  5  2  0
  7  6  1  0
  8  9  1  0
  8  7  2  0
  9 10  2  0
 10  1  1  0
 10  5  1  0
 11 17  1  0
 11 16  2  0
 12 11  1  0
 13 12  2  0
 13 14  1  0
 14 15  2  0
 15 16  1  0
 15  1  1  0
 18  9  1  0
 19 18  2  0
 20 19  1  0
 21 22  1  0
 21 20  2  0
 22 23  2  0
 23 24  1  0
 23 18  1  0
 24 25  2  0
 25 26  1  0
 27 26  2  0
 28 24  1  0
 28 27  1  0
  2 29  1  0
  3 30  1  0
  4 31  1  0
  6 32  1  0
  7 33  1  0
  8 34  1  0
 12 35  1  0
 13 36  1  0
 17 37  1  0
 17 38  1  0
 19 39  1  0
 20 40  1  0
 21 41  1  0
 22 42  1  0
 25 43  1  0
 26 44  1  0
 27 45  1  0
M  ISO  8  29  14  30  14  31  14  32  14  33  14  34  14  35  14  36  14
M  ISO  7  39  14  40  14  41  14  42  14  43  14  44  14  45  14
M  END
>  <minimizedAffinity>  (1) 
-5.66838503

>  <minimizedRMSD>  (1) 
1.45432687

$$$$
