
     RDKit          3D

 43 47  0  0  0  0  0  0  0  0999 V2000
   46.4250   32.5300   45.7310 C   0  0  0  0  0  0  0  0  0  0  0  0
   46.8640   32.8960   47.0350 C   0  0  0  0  0  0  0  0  0  0  0  0
   47.0510   32.0170   48.0560 C   0  0  0  0  0  0  0  0  0  0  0  0
   46.8080   30.6800   47.8300 C   0  0  0  0  0  0  0  0  0  0  0  0
   46.3820   30.2670   46.5880 C   0  0  0  0  0  0  0  0  0  0  0  0
   46.1530   28.9370   46.4180 C   0  0  0  0  0  0  0  0  0  0  0  0
   45.7150   28.4610   45.1830 C   0  0  0  0  0  0  0  0  0  0  0  0
   45.5310   29.4200   44.1620 C   0  0  0  0  0  0  0  0  0  0  0  0
   45.7910   30.7600   44.4260 C   0  0  0  0  0  0  0  0  0  0  0  0
   46.2120   31.1990   45.6100 C   0  0  0  0  0  0  0  0  0  0  0  0
   44.8410   35.1770   43.8930 C   0  0  0  0  0  0  0  0  0  0  0  0
   45.7400   35.5540   42.8930 C   0  0  0  0  0  0  0  0  0  0  0  0
   46.9350   34.8780   42.8430 C   0  0  0  0  0  0  0  0  0  0  0  0
   47.1550   33.9200   43.7420 N   0  0  0  0  0  0  0  0  0  0  0  0
   46.2840   33.5530   44.7130 C   0  0  0  0  0  0  0  0  0  0  0  0
   45.1280   34.2110   44.7550 N   0  0  0  0  0  0  0  0  0  0  0  0
   43.5470   35.7800   44.0890 N   0  0  0  0  0  0  0  0  0  0  0  0
   45.4460   31.4100   43.1580 C   0  0  0  0  0  0  0  0  0  0  0  0
   44.2180   32.0420   42.8040 C   0  0  0  0  0  0  0  0  0  0  0  0
   44.0080   32.5740   41.5570 C   0  0  0  0  0  0  0  0  0  0  0  0
   44.9910   32.5100   40.6130 C   0  0  0  0  0  0  0  0  0  0  0  0
   46.2080   31.9300   40.8360 C   0  0  0  0  0  0  0  0  0  0  0  0
   46.3900   31.3940   42.1240 C   0  0  0  0  0  0  0  0  0  0  0  0
   47.6910   30.7740   42.3840 C   0  0  0  0  0  0  0  0  0  0  0  0
   48.1600   29.5540   42.0650 N   0  0  0  0  0  0  0  0  0  0  0  0
   49.3780   29.4110   42.4890 O   0  0  0  0  0  0  0  0  0  0  0  0
   49.7820   30.4870   43.0960 C   0  0  0  0  0  0  0  0  0  0  0  0
   48.7460   31.3060   43.0240 N   0  0  0  0  0  0  0  0  0  0  0  0
   47.0652   33.9598   47.2296 H   0  0  0  0  0  0  0  0  0  0  0  0
   47.3895   32.3667   49.0425 H   0  0  0  0  0  0  0  0  0  0  0  0
   46.9535   29.9469   48.6371 H   0  0  0  0  0  0  0  0  0  0  0  0
   46.3130   28.2388   47.2528 H   0  0  0  0  0  0  0  0  0  0  0  0
   45.5222   27.3916   45.0120 H   0  0  0  0  0  0  0  0  0  0  0  0
   45.1846   29.1087   43.1655 H   0  0  0  0  0  0  0  0  0  0  0  0
   45.5022   36.3555   42.1781 H   0  0  0  0  0  0  0  0  0  0  0  0
   47.6900   35.1214   42.0809 H   0  0  0  0  0  0  0  0  0  0  0  0
   43.2337   36.5400   43.4684 H   0  0  0  0  0  0  0  0  0  0  0  0
   42.9354   35.4510   44.8497 H   0  0  0  0  0  0  0  0  0  0  0  0
   43.4150   32.1049   43.5531 H   0  0  0  0  0  0  0  0  0  0  0  0
   43.0467   33.0524   41.3181 H   0  0  0  0  0  0  0  0  0  0  0  0
   44.7940   32.9471   39.6230 H   0  0  0  0  0  0  0  0  0  0  0  0
   46.9898   31.8854   40.0634 H   0  0  0  0  0  0  0  0  0  0  0  0
   50.7606   30.6736   43.5624 H   0  0  0  0  0  0  0  0  0  0  0  0
  1  2  2  0
  2  3  1  0
  4  3  2  0
  5  4  1  0
  6  5  2  0
  7  6  1  0
  8  9  1  0
  8  7  2  0
  9 10  2  0
 10  1  1  0
 10  5  1  0
 11 17  1  0
 11 16  2  0
 12 11  1  0
 13 12  2  0
 13 14  1  0
 14 15  2  0
 15 16  1  0
 15  1  1  0
 18  9  1  0
 19 18  2  0
 20 19  1  0
 21 22  1  0
 21 20  2  0
 22 23  2  0
 23 24  1  0
 23 18  1  0
 24 28  1  0
 25 24  2  0
 25 26  1  0
 26 27  1  0
 28 27  2  0
  2 29  1  0
  3 30  1  0
  4 31  1  0
  6 32  1  0
  7 33  1  0
  8 34  1  0
 12 35  1  0
 13 36  1  0
 17 37  1  0
 17 38  1  0
 19 39  1  0
 20 40  1  0
 21 41  1  0
 22 42  1  0
 27 43  1  0
M  ISO  8  29  14  30  14  31  14  32  14  33  14  34  14  35  14  36  14
M  ISO  5  39  14  40  14  41  14  42  14  43  14
M  END
>  <minimizedAffinity>  (1) 
-5.61870956

>  <minimizedRMSD>  (1) 
1.48734558

$$$$
