
     RDKit          3D

 45 49  0  0  0  0  0  0  0  0999 V2000
   46.4310   32.5160   45.7140 C   0  0  0  0  0  0  0  0  0  0  0  0
   46.9000   32.8670   47.0070 C   0  0  0  0  0  0  0  0  0  0  0  0
   47.0840   31.9710   48.0320 C   0  0  0  0  0  0  0  0  0  0  0  0
   46.8040   30.6470   47.8110 C   0  0  0  0  0  0  0  0  0  0  0  0
   46.3500   30.2580   46.5820 C   0  0  0  0  0  0  0  0  0  0  0  0
   46.0930   28.9280   46.4060 C   0  0  0  0  0  0  0  0  0  0  0  0
   45.6370   28.4590   45.1780 C   0  0  0  0  0  0  0  0  0  0  0  0
   45.4620   29.4120   44.1570 C   0  0  0  0  0  0  0  0  0  0  0  0
   45.7460   30.7500   44.4190 C   0  0  0  0  0  0  0  0  0  0  0  0
   46.1830   31.1880   45.5960 C   0  0  0  0  0  0  0  0  0  0  0  0
   44.8620   35.1810   43.8870 C   0  0  0  0  0  0  0  0  0  0  0  0
   45.7590   35.5430   42.8840 C   0  0  0  0  0  0  0  0  0  0  0  0
   46.9450   34.8480   42.8310 C   0  0  0  0  0  0  0  0  0  0  0  0
   47.1540   33.8890   43.7300 N   0  0  0  0  0  0  0  0  0  0  0  0
   46.2850   33.5340   44.7060 C   0  0  0  0  0  0  0  0  0  0  0  0
   45.1410   34.2140   44.7460 N   0  0  0  0  0  0  0  0  0  0  0  0
   43.5720   35.7950   44.0930 N   0  0  0  0  0  0  0  0  0  0  0  0
   45.3860   31.4050   43.1560 C   0  0  0  0  0  0  0  0  0  0  0  0
   44.1640   32.0520   42.8210 C   0  0  0  0  0  0  0  0  0  0  0  0
   43.9570   32.5900   41.5710 C   0  0  0  0  0  0  0  0  0  0  0  0
   44.9250   32.5180   40.6070 C   0  0  0  0  0  0  0  0  0  0  0  0
   46.1390   31.9140   40.8310 C   0  0  0  0  0  0  0  0  0  0  0  0
   46.3230   31.3740   42.1160 C   0  0  0  0  0  0  0  0  0  0  0  0
   47.6100   30.7270   42.3420 C   0  0  0  0  0  0  0  0  0  0  0  0
   48.1520   29.4740   42.1830 C   0  0  0  0  0  0  0  0  0  0  0  0
   49.4340   29.4830   42.5820 N   0  0  0  0  0  0  0  0  0  0  0  0
   49.7090   30.7450   42.9980 C   0  0  0  0  0  0  0  0  0  0  0  0
   48.6060   31.5010   42.8540 N   0  0  0  0  0  0  0  0  0  0  0  0
   47.1311   33.9249   47.2008 H   0  0  0  0  0  0  0  0  0  0  0  0
   47.4495   32.3097   49.0127 H   0  0  0  0  0  0  0  0  0  0  0  0
   46.9431   29.9071   48.6130 H   0  0  0  0  0  0  0  0  0  0  0  0
   46.2471   28.2253   47.2381 H   0  0  0  0  0  0  0  0  0  0  0  0
   45.4231   27.3927   45.0127 H   0  0  0  0  0  0  0  0  0  0  0  0
   45.1050   29.1034   43.1634 H   0  0  0  0  0  0  0  0  0  0  0  0
   45.5296   36.3464   42.1685 H   0  0  0  0  0  0  0  0  0  0  0  0
   47.7008   35.0788   42.0658 H   0  0  0  0  0  0  0  0  0  0  0  0
   43.2607   36.5587   43.4760 H   0  0  0  0  0  0  0  0  0  0  0  0
   42.9628   35.4694   44.8570 H   0  0  0  0  0  0  0  0  0  0  0  0
   43.3679   32.1238   43.5767 H   0  0  0  0  0  0  0  0  0  0  0  0
   43.0008   33.0842   41.3443 H   0  0  0  0  0  0  0  0  0  0  0  0
   44.7249   32.9585   39.6191 H   0  0  0  0  0  0  0  0  0  0  0  0
   46.9165   31.8568   40.0550 H   0  0  0  0  0  0  0  0  0  0  0  0
   47.6170   28.5974   41.7889 H   0  0  0  0  0  0  0  0  0  0  0  0
   50.6764   31.0930   43.3892 H   0  0  0  0  0  0  0  0  0  0  0  0
   48.5278   32.5001   43.0917 H   0  0  0  0  0  0  0  0  0  0  0  0
  1  2  2  0
  2  3  1  0
  4  3  2  0
  5  4  1  0
  6  5  2  0
  7  6  1  0
  8  9  1  0
  8  7  2  0
  9 10  2  0
 10  1  1  0
 10  5  1  0
 11 17  1  0
 11 16  2  0
 12 11  1  0
 13 12  2  0
 13 14  1  0
 14 15  2  0
 15 16  1  0
 15  1  1  0
 18  9  1  0
 19 18  2  0
 20 19  1  0
 21 22  1  0
 21 20  2  0
 22 23  2  0
 23 24  1  0
 23 18  1  0
 24 28  1  0
 25 24  2  0
 25 26  1  0
 26 27  2  0
 28 27  1  0
  2 29  1  0
  3 30  1  0
  4 31  1  0
  6 32  1  0
  7 33  1  0
  8 34  1  0
 12 35  1  0
 13 36  1  0
 17 37  1  0
 17 38  1  0
 19 39  1  0
 20 40  1  0
 21 41  1  0
 22 42  1  0
 25 43  1  0
 27 44  1  0
 28 45  1  0
M  ISO  8  29  14  30  14  31  14  32  14  33  14  34  14  35  14  36  14
M  ISO  7  39  14  40  14  41  14  42  14  43  14  44  14  45   9
M  END
>  <minimizedAffinity>  (1) 
-5.61969185

>  <minimizedRMSD>  (1) 
1.43392479

$$$$
