
     RDKit          3D

 45 49  0  0  0  0  0  0  0  0999 V2000
   46.4360   32.5290   45.7390 C   0  0  0  0  0  0  0  0  0  0  0  0
   46.8700   32.8890   47.0420 C   0  0  0  0  0  0  0  0  0  0  0  0
   47.0570   32.0040   48.0670 C   0  0  0  0  0  0  0  0  0  0  0  0
   46.8130   30.6630   47.8410 C   0  0  0  0  0  0  0  0  0  0  0  0
   46.3930   30.2720   46.6050 C   0  0  0  0  0  0  0  0  0  0  0  0
   46.1750   28.9350   46.4230 C   0  0  0  0  0  0  0  0  0  0  0  0
   45.7560   28.4490   45.1860 C   0  0  0  0  0  0  0  0  0  0  0  0
   45.5770   29.4030   44.1610 C   0  0  0  0  0  0  0  0  0  0  0  0
   45.8200   30.7470   44.4290 C   0  0  0  0  0  0  0  0  0  0  0  0
   46.2220   31.1920   45.6170 C   0  0  0  0  0  0  0  0  0  0  0  0
   44.8510   35.1720   43.8960 C   0  0  0  0  0  0  0  0  0  0  0  0
   45.7440   35.5430   42.9000 C   0  0  0  0  0  0  0  0  0  0  0  0
   46.9360   34.8630   42.8510 C   0  0  0  0  0  0  0  0  0  0  0  0
   47.1540   33.9080   43.7500 N   0  0  0  0  0  0  0  0  0  0  0  0
   46.2860   33.5430   44.7240 C   0  0  0  0  0  0  0  0  0  0  0  0
   45.1340   34.2080   44.7630 N   0  0  0  0  0  0  0  0  0  0  0  0
   43.5520   35.7740   44.1000 N   0  0  0  0  0  0  0  0  0  0  0  0
   45.4660   31.3930   43.1590 C   0  0  0  0  0  0  0  0  0  0  0  0
   44.2410   32.0370   42.8210 C   0  0  0  0  0  0  0  0  0  0  0  0
   44.0290   32.5700   41.5770 C   0  0  0  0  0  0  0  0  0  0  0  0
   45.0110   32.4910   40.6100 C   0  0  0  0  0  0  0  0  0  0  0  0
   46.2280   31.8910   40.8360 C   0  0  0  0  0  0  0  0  0  0  0  0
   46.4030   31.3590   42.1230 C   0  0  0  0  0  0  0  0  0  0  0  0
   47.6570   30.7340   42.3730 N   0  0  0  0  0  0  0  0  0  0  0  0
   48.0530   29.4800   42.2370 N   0  0  0  0  0  0  0  0  0  0  0  0
   49.3390   29.3470   42.5960 C   0  0  0  0  0  0  0  0  0  0  0  0
   49.7900   30.6110   42.9890 C   0  0  0  0  0  0  0  0  0  0  0  0
   48.7040   31.4720   42.8370 C   0  0  0  0  0  0  0  0  0  0  0  0
   47.0694   33.9525   47.2403 H   0  0  0  0  0  0  0  0  0  0  0  0
   47.3955   32.3531   49.0537 H   0  0  0  0  0  0  0  0  0  0  0  0
   46.9551   29.9247   48.6439 H   0  0  0  0  0  0  0  0  0  0  0  0
   46.3314   28.2375   47.2591 H   0  0  0  0  0  0  0  0  0  0  0  0
   45.5741   27.3774   45.0170 H   0  0  0  0  0  0  0  0  0  0  0  0
   45.2485   29.0871   43.1598 H   0  0  0  0  0  0  0  0  0  0  0  0
   45.5079   36.3439   42.1839 H   0  0  0  0  0  0  0  0  0  0  0  0
   47.6910   35.1022   42.0877 H   0  0  0  0  0  0  0  0  0  0  0  0
   43.2332   36.5331   43.4810 H   0  0  0  0  0  0  0  0  0  0  0  0
   42.9456   35.4437   44.8643 H   0  0  0  0  0  0  0  0  0  0  0  0
   43.4457   32.1080   43.5776 H   0  0  0  0  0  0  0  0  0  0  0  0
   43.0727   33.0628   41.3478 H   0  0  0  0  0  0  0  0  0  0  0  0
   44.8123   32.9252   39.6191 H   0  0  0  0  0  0  0  0  0  0  0  0
   47.0085   31.8323   40.0631 H   0  0  0  0  0  0  0  0  0  0  0  0
   49.9280   28.4180   42.5835 H   0  0  0  0  0  0  0  0  0  0  0  0
   50.7971   30.8728   43.3456 H   0  0  0  0  0  0  0  0  0  0  0  0
   48.6943   32.5506   43.0525 H   0  0  0  0  0  0  0  0  0  0  0  0
  1  2  2  0
  2  3  1  0
  4  3  2  0
  5  4  1  0
  6  5  2  0
  7  6  1  0
  8  9  1  0
  8  7  2  0
  9 10  2  0
 10  1  1  0
 10  5  1  0
 11 17  1  0
 11 16  2  0
 12 11  1  0
 13 12  2  0
 13 14  1  0
 14 15  2  0
 15 16  1  0
 15  1  1  0
 18  9  1  0
 19 18  2  0
 20 19  1  0
 21 22  1  0
 21 20  2  0
 22 23  2  0
 23 24  1  0
 23 18  1  0
 24 28  1  0
 25 24  1  0
 25 26  2  0
 26 27  1  0
 28 27  2  0
  2 29  1  0
  3 30  1  0
  4 31  1  0
  6 32  1  0
  7 33  1  0
  8 34  1  0
 12 35  1  0
 13 36  1  0
 17 37  1  0
 17 38  1  0
 19 39  1  0
 20 40  1  0
 21 41  1  0
 22 42  1  0
 26 43  1  0
 27 44  1  0
 28 45  1  0
M  ISO  8  29  14  30  14  31  14  32  14  33  14  34  14  35  14  36  14
M  ISO  7  39  14  40  14  41  14  42  14  43  14  44  14  45  14
M  END
>  <minimizedAffinity>  (1) 
-5.64937735

>  <minimizedRMSD>  (1) 
1.43977892

$$$$
