
     RDKit          3D

 40 43  0  0  0  0  0  0  0  0999 V2000
   45.9600   32.3310   46.4960 C   0  0  0  0  0  0  0  0  0  0  0  0
   46.0700   32.8900   47.7980 C   0  0  0  0  0  0  0  0  0  0  0  0
   45.8950   32.1840   48.9590 C   0  0  0  0  0  0  0  0  0  0  0  0
   45.5940   30.8490   48.8820 C   0  0  0  0  0  0  0  0  0  0  0  0
   45.4760   30.2620   47.6540 C   0  0  0  0  0  0  0  0  0  0  0  0
   45.1890   28.9280   47.6240 C   0  0  0  0  0  0  0  0  0  0  0  0
   45.0650   28.2530   46.4120 C   0  0  0  0  0  0  0  0  0  0  0  0
   45.2530   29.0240   45.2440 C   0  0  0  0  0  0  0  0  0  0  0  0
   45.5420   30.3830   45.3580 C   0  0  0  0  0  0  0  0  0  0  0  0
   45.6600   31.0090   46.5250 C   0  0  0  0  0  0  0  0  0  0  0  0
   45.2030   34.7660   43.9710 C   0  0  0  0  0  0  0  0  0  0  0  0
   46.3300   34.8540   43.1610 C   0  0  0  0  0  0  0  0  0  0  0  0
   47.3940   34.0490   43.4890 C   0  0  0  0  0  0  0  0  0  0  0  0
   47.2760   33.2480   44.5460 N   0  0  0  0  0  0  0  0  0  0  0  0
   46.1790   33.1610   45.3370 C   0  0  0  0  0  0  0  0  0  0  0  0
   45.1560   33.9450   45.0080 N   0  0  0  0  0  0  0  0  0  0  0  0
   43.9990   35.5360   43.7750 N   0  0  0  0  0  0  0  0  0  0  0  0
   45.5910   30.8160   43.9570 C   0  0  0  0  0  0  0  0  0  0  0  0
   44.5630   31.4380   43.1910 C   0  0  0  0  0  0  0  0  0  0  0  0
   44.7350   31.7580   41.8720 C   0  0  0  0  0  0  0  0  0  0  0  0
   45.9280   31.4820   41.2370 C   0  0  0  0  0  0  0  0  0  0  0  0
   46.9800   30.8850   41.8840 C   0  0  0  0  0  0  0  0  0  0  0  0
   46.7650   30.5720   43.2380 C   0  0  0  0  0  0  0  0  0  0  0  0
   47.8750   29.9380   43.9390 C   0  0  0  0  0  0  0  0  0  0  0  0
   49.0610   30.3440   43.8470 O   0  0  0  0  0  0  0  0  0  0  0  0
   46.3116   33.9601   47.8789 H   0  0  0  0  0  0  0  0  0  0  0  0
   45.9943   32.6798   49.9359 H   0  0  0  0  0  0  0  0  0  0  0  0
   45.4492   30.2574   49.7980 H   0  0  0  0  0  0  0  0  0  0  0  0
   45.0541   28.3796   48.5680 H   0  0  0  0  0  0  0  0  0  0  0  0
   44.8334   27.1786   46.3671 H   0  0  0  0  0  0  0  0  0  0  0  0
   45.1720   28.5559   44.2519 H   0  0  0  0  0  0  0  0  0  0  0  0
   46.3678   35.5358   42.2986 H   0  0  0  0  0  0  0  0  0  0  0  0
   48.3190   34.0658   42.8940 H   0  0  0  0  0  0  0  0  0  0  0  0
   43.9365   36.2042   42.9937 H   0  0  0  0  0  0  0  0  0  0  0  0
   43.2018   35.4176   44.4164 H   0  0  0  0  0  0  0  0  0  0  0  0
   43.6022   31.6678   43.6748 H   0  0  0  0  0  0  0  0  0  0  0  0
   43.9172   32.2382   41.3147 H   0  0  0  0  0  0  0  0  0  0  0  0
   46.0396   31.7497   40.1759 H   0  0  0  0  0  0  0  0  0  0  0  0
   47.9307   30.6652   41.3763 H   0  0  0  0  0  0  0  0  0  0  0  0
   47.6654   29.0662   44.5763 H   0  0  0  0  0  0  0  0  0  0  0  0
  1 10  1  0
  1  2  2  0
  2  3  1  0
  4  3  2  0
  5  4  1  0
  6  5  2  0
  7  6  1  0
  8  9  1  0
  8  7  2  0
  9 10  2  0
 10  5  1  0
 11 16  2  0
 12 13  2  0
 12 11  1  0
 13 14  1  0
 14 15  2  0
 15  1  1  0
 16 15  1  0
 17 11  1  0
 18  9  1  0
 19 18  2  0
 20 19  1  0
 21 20  2  0
 21 22  1  0
 22 23  2  0
 23 24  1  0
 23 18  1  0
 25 24  2  0
  2 26  1  0
  3 27  1  0
  4 28  1  0
  6 29  1  0
  7 30  1  0
  8 31  1  0
 12 32  1  0
 13 33  1  0
 17 34  1  0
 17 35  1  0
 19 36  1  0
 20 37  1  0
 21 38  1  0
 22 39  1  0
 24 40  1  0
M  ISO  8  26  14  27  14  28  14  29  14  30  14  31  14  32  14  33  14
M  ISO  5  36  14  37  14  38  14  39  14  40   6
M  END
>  <minimizedAffinity>  (1) 
-5.3493576

>  <minimizedRMSD>  (1) 
0.238716319

$$$$
