
     RDKit          3D

 40 43  0  0  0  0  0  0  0  0999 V2000
   45.9520   32.3610   46.4800 C   0  0  0  0  0  0  0  0  0  0  0  0
   46.0410   32.9230   47.7840 C   0  0  0  0  0  0  0  0  0  0  0  0
   45.8640   32.2230   48.9410 C   0  0  0  0  0  0  0  0  0  0  0  0
   45.5790   30.8850   48.8670 C   0  0  0  0  0  0  0  0  0  0  0  0
   45.4800   30.2850   47.6390 C   0  0  0  0  0  0  0  0  0  0  0  0
   45.2080   28.9520   47.6080 C   0  0  0  0  0  0  0  0  0  0  0  0
   45.1070   28.2750   46.3990 C   0  0  0  0  0  0  0  0  0  0  0  0
   45.2970   29.0450   45.2280 C   0  0  0  0  0  0  0  0  0  0  0  0
   45.5700   30.4060   45.3440 C   0  0  0  0  0  0  0  0  0  0  0  0
   45.6670   31.0360   46.5100 C   0  0  0  0  0  0  0  0  0  0  0  0
   45.1800   34.7770   43.9390 C   0  0  0  0  0  0  0  0  0  0  0  0
   46.3190   34.8800   43.1410 C   0  0  0  0  0  0  0  0  0  0  0  0
   47.3940   34.0930   43.4830 C   0  0  0  0  0  0  0  0  0  0  0  0
   47.2800   33.2920   44.5410 N   0  0  0  0  0  0  0  0  0  0  0  0
   46.1750   33.1900   45.3170 C   0  0  0  0  0  0  0  0  0  0  0  0
   45.1410   33.9560   44.9780 N   0  0  0  0  0  0  0  0  0  0  0  0
   43.9710   35.5230   43.7270 N   0  0  0  0  0  0  0  0  0  0  0  0
   45.6240   30.8370   43.9420 C   0  0  0  0  0  0  0  0  0  0  0  0
   44.5710   31.3750   43.1460 C   0  0  0  0  0  0  0  0  0  0  0  0
   44.7600   31.7030   41.8250 C   0  0  0  0  0  0  0  0  0  0  0  0
   45.9820   31.5190   41.2290 C   0  0  0  0  0  0  0  0  0  0  0  0
   47.0600   31.0090   41.9070 C   0  0  0  0  0  0  0  0  0  0  0  0
   46.8340   30.6830   43.2580 C   0  0  0  0  0  0  0  0  0  0  0  0
   47.9440   30.1530   43.9710 N   0  0  0  0  0  0  0  0  0  0  0  0
   46.2683   33.9962   47.8646 H   0  0  0  0  0  0  0  0  0  0  0  0
   45.9486   32.7240   49.9166 H   0  0  0  0  0  0  0  0  0  0  0  0
   45.4310   30.2976   49.7852 H   0  0  0  0  0  0  0  0  0  0  0  0
   45.0664   28.4041   48.5513 H   0  0  0  0  0  0  0  0  0  0  0  0
   44.8907   27.1974   46.3549 H   0  0  0  0  0  0  0  0  0  0  0  0
   45.2299   28.5741   44.2362 H   0  0  0  0  0  0  0  0  0  0  0  0
   46.3561   35.5599   42.2771 H   0  0  0  0  0  0  0  0  0  0  0  0
   48.3246   34.1244   42.8973 H   0  0  0  0  0  0  0  0  0  0  0  0
   43.9067   36.1874   42.9426 H   0  0  0  0  0  0  0  0  0  0  0  0
   43.1684   35.3935   44.3594 H   0  0  0  0  0  0  0  0  0  0  0  0
   43.5818   31.5316   43.6008 H   0  0  0  0  0  0  0  0  0  0  0  0
   43.9248   32.1164   41.2407 H   0  0  0  0  0  0  0  0  0  0  0  0
   46.1016   31.7901   40.1697 H   0  0  0  0  0  0  0  0  0  0  0  0
   48.0385   30.8640   41.4259 H   0  0  0  0  0  0  0  0  0  0  0  0
   47.8431   29.8947   44.9630 H   0  0  0  0  0  0  0  0  0  0  0  0
   48.8490   30.0273   43.4956 H   0  0  0  0  0  0  0  0  0  0  0  0
  1 10  1  0
  1  2  2  0
  2  3  1  0
  4  3  2  0
  5  4  1  0
  6  5  2  0
  7  6  1  0
  8  9  1  0
  8  7  2  0
  9 10  2  0
 10  5  1  0
 11 16  2  0
 12 13  2  0
 12 11  1  0
 13 14  1  0
 14 15  2  0
 15  1  1  0
 16 15  1  0
 17 11  1  0
 18  9  1  0
 19 18  2  0
 20 19  1  0
 21 20  2  0
 21 22  1  0
 22 23  2  0
 23 18  1  0
 23 24  1  0
  2 25  1  0
  3 26  1  0
  4 27  1  0
  6 28  1  0
  7 29  1  0
  8 30  1  0
 12 31  1  0
 13 32  1  0
 17 33  1  0
 17 34  1  0
 19 35  1  0
 20 36  1  0
 21 37  1  0
 22 38  1  0
 24 39  1  0
 24 40  1  0
M  ISO  8  25  14  26  14  27  14  28  14  29  14  30  14  31  14  32  14
M  ISO  4  35  14  36  14  37  14  38  14
M  END
>  <minimizedAffinity>  (1) 
-5.52331066

>  <minimizedRMSD>  (1) 
0.110389076

$$$$
