
     RDKit          3D

 44 47  0  0  0  0  0  0  0  0999 V2000
   45.9700   32.3300   46.4920 C   0  0  0  0  0  0  0  0  0  0  0  0
   46.0760   32.8920   47.7930 C   0  0  0  0  0  0  0  0  0  0  0  0
   45.8950   32.1900   48.9570 C   0  0  0  0  0  0  0  0  0  0  0  0
   45.5850   30.8440   48.8790 C   0  0  0  0  0  0  0  0  0  0  0  0
   45.4720   30.2580   47.6540 C   0  0  0  0  0  0  0  0  0  0  0  0
   45.1760   28.9320   47.6240 C   0  0  0  0  0  0  0  0  0  0  0  0
   45.0490   28.2540   46.4140 C   0  0  0  0  0  0  0  0  0  0  0  0
   45.2450   29.0290   45.2470 C   0  0  0  0  0  0  0  0  0  0  0  0
   45.5450   30.3820   45.3590 C   0  0  0  0  0  0  0  0  0  0  0  0
   45.6650   31.0120   46.5250 C   0  0  0  0  0  0  0  0  0  0  0  0
   45.1970   34.7640   43.9720 C   0  0  0  0  0  0  0  0  0  0  0  0
   46.3370   34.8540   43.1550 C   0  0  0  0  0  0  0  0  0  0  0  0
   47.3990   34.0480   43.4890 C   0  0  0  0  0  0  0  0  0  0  0  0
   47.2880   33.2440   44.5470 N   0  0  0  0  0  0  0  0  0  0  0  0
   46.1900   33.1600   45.3310 C   0  0  0  0  0  0  0  0  0  0  0  0
   45.1570   33.9410   45.0090 N   0  0  0  0  0  0  0  0  0  0  0  0
   43.9850   35.5290   43.7730 N   0  0  0  0  0  0  0  0  0  0  0  0
   45.6080   30.8110   43.9580 C   0  0  0  0  0  0  0  0  0  0  0  0
   44.5850   31.4190   43.1810 C   0  0  0  0  0  0  0  0  0  0  0  0
   44.7570   31.7370   41.8590 C   0  0  0  0  0  0  0  0  0  0  0  0
   45.9580   31.4680   41.2370 C   0  0  0  0  0  0  0  0  0  0  0  0
   47.0120   30.8840   41.8880 C   0  0  0  0  0  0  0  0  0  0  0  0
   46.7830   30.5790   43.2400 C   0  0  0  0  0  0  0  0  0  0  0  0
   47.9140   29.9280   43.9570 C   0  0  0  0  0  0  0  0  0  0  0  0
   49.2590   30.3410   43.4040 C   0  0  0  0  0  0  0  0  0  0  0  0
   46.3196   33.9618   47.8715 H   0  0  0  0  0  0  0  0  0  0  0  0
   45.9943   32.6872   49.9332 H   0  0  0  0  0  0  0  0  0  0  0  0
   45.4316   30.2540   49.7947 H   0  0  0  0  0  0  0  0  0  0  0  0
   45.0347   28.3864   48.5687 H   0  0  0  0  0  0  0  0  0  0  0  0
   44.8108   27.1811   46.3686 H   0  0  0  0  0  0  0  0  0  0  0  0
   45.1604   28.5628   44.2543 H   0  0  0  0  0  0  0  0  0  0  0  0
   46.3773   35.5349   42.2920 H   0  0  0  0  0  0  0  0  0  0  0  0
   48.3241   34.0659   42.8941 H   0  0  0  0  0  0  0  0  0  0  0  0
   43.9199   36.1967   42.9914 H   0  0  0  0  0  0  0  0  0  0  0  0
   43.1874   35.4059   44.4129 H   0  0  0  0  0  0  0  0  0  0  0  0
   43.6195   31.6426   43.6583 H   0  0  0  0  0  0  0  0  0  0  0  0
   43.9378   32.2064   41.2946 H   0  0  0  0  0  0  0  0  0  0  0  0
   46.0741   31.7330   40.1757 H   0  0  0  0  0  0  0  0  0  0  0  0
   47.9683   30.6694   41.3885 H   0  0  0  0  0  0  0  0  0  0  0  0
   47.8673   30.2086   45.0196 H   0  0  0  0  0  0  0  0  0  0  0  0
   47.8152   28.8406   43.8234 H   0  0  0  0  0  0  0  0  0  0  0  0
   49.9479   30.5525   44.2351 H   0  0  0  0  0  0  0  0  0  0  0  0
   49.6675   29.5269   42.7873 H   0  0  0  0  0  0  0  0  0  0  0  0
   49.1403   31.2441   42.7873 H   0  0  0  0  0  0  0  0  0  0  0  0
  1 10  1  0
  1  2  2  0
  2  3  1  0
  4  3  2  0
  5  4  1  0
  6  5  2  0
  7  6  1  0
  8  9  1  0
  8  7  2  0
  9 10  2  0
 10  5  1  0
 11 16  2  0
 12 13  2  0
 12 11  1  0
 13 14  1  0
 14 15  2  0
 15  1  1  0
 16 15  1  0
 17 11  1  0
 18  9  1  0
 19 18  2  0
 20 19  1  0
 21 20  2  0
 21 22  1  0
 22 23  2  0
 23 24  1  0
 23 18  1  0
 25 24  1  0
  2 26  1  0
  3 27  1  0
  4 28  1  0
  6 29  1  0
  7 30  1  0
  8 31  1  0
 12 32  1  0
 13 33  1  0
 17 34  1  0
 17 35  1  0
 19 36  1  0
 20 37  1  0
 21 38  1  0
 22 39  1  0
 24 40  1  0
 24 41  1  0
 25 42  1  0
 25 43  1  0
 25 44  1  0
M  ISO  8  26  14  27  14  28  14  29  14  30  14  31  14  32  14  33  14
M  ISO  8  36  14  37  14  38  14  39  14  40   8  41   8  42   8  43   8
M  ISO  1  44   8
M  END
>  <minimizedAffinity>  (1) 
-5.42574406

>  <minimizedRMSD>  (1) 
0.104285859

$$$$
