
     RDKit          3D

 39 42  0  0  0  0  0  0  0  0999 V2000
   45.9490   32.3360   46.4840 C   0  0  0  0  0  0  0  0  0  0  0  0
   46.0340   32.9130   47.7860 C   0  0  0  0  0  0  0  0  0  0  0  0
   45.8590   32.2160   48.9460 C   0  0  0  0  0  0  0  0  0  0  0  0
   45.5840   30.8690   48.8750 C   0  0  0  0  0  0  0  0  0  0  0  0
   45.4940   30.2710   47.6490 C   0  0  0  0  0  0  0  0  0  0  0  0
   45.2210   28.9270   47.6320 C   0  0  0  0  0  0  0  0  0  0  0  0
   45.1140   28.2540   46.4170 C   0  0  0  0  0  0  0  0  0  0  0  0
   45.3000   29.0260   45.2470 C   0  0  0  0  0  0  0  0  0  0  0  0
   45.5720   30.3820   45.3560 C   0  0  0  0  0  0  0  0  0  0  0  0
   45.6740   31.0120   46.5250 C   0  0  0  0  0  0  0  0  0  0  0  0
   45.1990   34.7590   43.9480 C   0  0  0  0  0  0  0  0  0  0  0  0
   46.3350   34.8560   43.1480 C   0  0  0  0  0  0  0  0  0  0  0  0
   47.4050   34.0610   43.4850 C   0  0  0  0  0  0  0  0  0  0  0  0
   47.2840   33.2600   44.5430 N   0  0  0  0  0  0  0  0  0  0  0  0
   46.1770   33.1670   45.3230 C   0  0  0  0  0  0  0  0  0  0  0  0
   45.1480   33.9410   44.9860 N   0  0  0  0  0  0  0  0  0  0  0  0
   43.9980   35.5230   43.7320 N   0  0  0  0  0  0  0  0  0  0  0  0
   45.6340   30.8110   43.9550 C   0  0  0  0  0  0  0  0  0  0  0  0
   44.6090   31.4090   43.1670 C   0  0  0  0  0  0  0  0  0  0  0  0
   44.7960   31.7240   41.8460 C   0  0  0  0  0  0  0  0  0  0  0  0
   45.9940   31.4670   41.2400 C   0  0  0  0  0  0  0  0  0  0  0  0
   47.0530   30.8960   41.8970 C   0  0  0  0  0  0  0  0  0  0  0  0
   46.8230   30.5870   43.2490 C   0  0  0  0  0  0  0  0  0  0  0  0
   48.1980   29.8380   44.1240 S   0  0  0  0  0  0  0  0  0  0  0  0
   46.2546   33.9881   47.8595 H   0  0  0  0  0  0  0  0  0  0  0  0
   45.9363   32.7212   49.9200 H   0  0  0  0  0  0  0  0  0  0  0  0
   45.4385   30.2812   49.7933 H   0  0  0  0  0  0  0  0  0  0  0  0
   45.0866   28.3808   48.5773 H   0  0  0  0  0  0  0  0  0  0  0  0
   44.8959   27.1769   46.3701 H   0  0  0  0  0  0  0  0  0  0  0  0
   45.2294   28.5540   44.2559 H   0  0  0  0  0  0  0  0  0  0  0  0
   46.3744   35.5377   42.2856 H   0  0  0  0  0  0  0  0  0  0  0  0
   48.3348   34.0855   42.8977 H   0  0  0  0  0  0  0  0  0  0  0  0
   43.9444   36.1872   42.9466 H   0  0  0  0  0  0  0  0  0  0  0  0
   43.1924   35.4054   44.3629 H   0  0  0  0  0  0  0  0  0  0  0  0
   43.6364   31.6249   43.6334 H   0  0  0  0  0  0  0  0  0  0  0  0
   43.9791   32.1852   41.2716 H   0  0  0  0  0  0  0  0  0  0  0  0
   46.1135   31.7299   40.1786 H   0  0  0  0  0  0  0  0  0  0  0  0
   48.0142   30.6940   41.4016 H   0  0  0  0  0  0  0  0  0  0  0  0
   47.9947   29.9487   45.4743 H   0  0  0  0  0  0  0  0  0  0  0  0
  1 10  1  0
  1  2  2  0
  2  3  1  0
  4  3  2  0
  5  4  1  0
  6  5  2  0
  7  6  1  0
  8  9  1  0
  8  7  2  0
  9 10  2  0
 10  5  1  0
 11 16  2  0
 12 13  2  0
 12 11  1  0
 13 14  1  0
 14 15  2  0
 15  1  1  0
 16 15  1  0
 17 11  1  0
 18  9  1  0
 19 18  2  0
 20 19  1  0
 21 20  2  0
 21 22  1  0
 22 23  2  0
 23 18  1  0
 23 24  1  0
  2 25  1  0
  3 26  1  0
  4 27  1  0
  6 28  1  0
  7 29  1  0
  8 30  1  0
 12 31  1  0
 13 32  1  0
 17 33  1  0
 17 34  1  0
 19 35  1  0
 20 36  1  0
 21 37  1  0
 22 38  1  0
 24 39  1  0
M  ISO  8  25  14  26  14  27  14  28  14  29  14  30  14  31  14  32  14
M  ISO  5  35  14  36  14  37  14  38  14  39  11
M  END
>  <minimizedAffinity>  (1) 
-5.52520132

>  <minimizedRMSD>  (1) 
0.0672459975

$$$$
