
     RDKit          3D

 26 28  0  0  0  0  0  0  0  0999 V2000
   47.5280   34.8020   41.7880 C   0  0  0  0  0  0  0  0  0  0  0  0
   48.6290   35.6120   41.6210 C   0  0  0  0  0  0  0  0  0  0  0  0
   49.0480   35.5740   40.3560 N   0  0  0  0  0  0  0  0  0  0  0  0
   48.2270   34.7420   39.6880 C   0  0  0  0  0  0  0  0  0  0  0  0
   48.2210   34.3530   38.3540 C   0  0  0  0  0  0  0  0  0  0  0  0
   47.2560   33.4800   37.9350 C   0  0  0  0  0  0  0  0  0  0  0  0
   46.2580   32.9360   38.7450 C   0  0  0  0  0  0  0  0  0  0  0  0
   46.3190   33.3620   40.0630 C   0  0  0  0  0  0  0  0  0  0  0  0
   47.2560   34.2370   40.5630 C   0  0  0  0  0  0  0  0  0  0  0  0
   44.8810   35.0710   44.4110 C   0  0  0  0  0  0  0  0  0  0  0  0
   45.5980   35.3080   43.2210 C   0  0  0  0  0  0  0  0  0  0  0  0
   46.7780   34.5690   43.0080 C   0  0  0  0  0  0  0  0  0  0  0  0
   47.1780   33.6580   43.9580 N   0  0  0  0  0  0  0  0  0  0  0  0
   46.4330   33.4800   45.0870 C   0  0  0  0  0  0  0  0  0  0  0  0
   45.3060   34.1710   45.3130 N   0  0  0  0  0  0  0  0  0  0  0  0
   43.7160   35.8730   44.5080 N   0  0  0  0  0  0  0  0  0  0  0  0
   49.0970   36.2068   42.4192 H   0  0  0  0  0  0  0  0  0  0  0  0
   49.8506   36.0860   39.9628 H   0  0  0  0  0  0  0  0  0  0  0  0
   48.9749   34.7384   37.6518 H   0  0  0  0  0  0  0  0  0  0  0  0
   47.2669   33.1829   36.8760 H   0  0  0  0  0  0  0  0  0  0  0  0
   45.4955   32.2358   38.3731 H   0  0  0  0  0  0  0  0  0  0  0  0
   45.5629   32.9719   40.7602 H   0  0  0  0  0  0  0  0  0  0  0  0
   45.2479   36.0452   42.4835 H   0  0  0  0  0  0  0  0  0  0  0  0
   46.7672   32.7466   45.8356 H   0  0  0  0  0  0  0  0  0  0  0  0
   43.4822   36.5349   43.7543 H   0  0  0  0  0  0  0  0  0  0  0  0
   43.1034   35.7937   45.3322 H   0  0  0  0  0  0  0  0  0  0  0  0
  1 12  1  0
  2  1  2  0
  3  2  1  0
  4  3  1  0
  4  9  2  0
  5  4  1  0
  6  5  2  0
  6  7  1  0
  7  8  2  0
  8  9  1  0
  9  1  1  0
 10 16  1  0
 10 15  2  0
 11 10  1  0
 12 11  2  0
 12 13  1  0
 13 14  2  0
 14 15  1  0
  2 17  1  0
  3 18  1  0
  5 19  1  0
  6 20  1  0
  7 21  1  0
  8 22  1  0
 11 23  1  0
 14 24  1  0
 16 25  1  0
 16 26  1  0
M  ISO  8  17  14  18   9  19  14  20  14  21  14  22  14  23  14  24  14
M  END
>  <minimizedAffinity>  (1) 
-6.13123751

>  <minimizedRMSD>  (1) 
0.611882508

$$$$
