
     RDKit          3D

 27 29  0  0  0  0  0  0  0  0999 V2000
   47.7730   34.5060   41.5810 C   0  0  0  0  0  0  0  0  0  0  0  0
   48.7090   35.5190   41.3660 C   0  0  0  0  0  0  0  0  0  0  0  0
   48.9810   35.6080   40.0570 N   0  0  0  0  0  0  0  0  0  0  0  0
   48.2350   34.6680   39.4280 C   0  0  0  0  0  0  0  0  0  0  0  0
   48.1500   34.3510   38.0800 C   0  0  0  0  0  0  0  0  0  0  0  0
   47.3050   33.3430   37.7050 C   0  0  0  0  0  0  0  0  0  0  0  0
   46.5090   32.5970   38.5810 C   0  0  0  0  0  0  0  0  0  0  0  0
   46.6500   32.9720   39.9040 C   0  0  0  0  0  0  0  0  0  0  0  0
   47.4690   33.9640   40.3620 C   0  0  0  0  0  0  0  0  0  0  0  0
   45.6840   34.4450   44.6700 C   0  0  0  0  0  0  0  0  0  0  0  0
   46.2060   34.8720   43.4280 C   0  0  0  0  0  0  0  0  0  0  0  0
   47.2130   34.0900   42.8660 C   0  0  0  0  0  0  0  0  0  0  0  0
   47.6470   32.9630   43.5240 N   0  0  0  0  0  0  0  0  0  0  0  0
   47.1080   32.6090   44.7070 C   0  0  0  0  0  0  0  0  0  0  0  0
   46.1310   33.3410   45.2850 N   0  0  0  0  0  0  0  0  0  0  0  0
   44.6300   35.2650   45.2570 C   0  0  0  0  0  0  0  0  0  0  0  0
   44.0060   36.0870   44.5550 O   0  0  0  0  0  0  0  0  0  0  0  0
   44.3380   35.1120   46.6110 O   0  0  0  0  0  0  0  0  0  0  0  0
   49.1549   36.1477   42.1508 H   0  0  0  0  0  0  0  0  0  0  0  0
   49.6350   36.2677   39.6121 H   0  0  0  0  0  0  0  0  0  0  0  0
   48.7461   34.8956   37.3330 H   0  0  0  0  0  0  0  0  0  0  0  0
   47.2468   33.1005   36.6336 H   0  0  0  0  0  0  0  0  0  0  0  0
   45.8372   31.7915   38.2496 H   0  0  0  0  0  0  0  0  0  0  0  0
   46.0531   32.4262   40.6495 H   0  0  0  0  0  0  0  0  0  0  0  0
   45.8348   35.7790   42.9285 H   0  0  0  0  0  0  0  0  0  0  0  0
   47.4720   31.7031   45.2138 H   0  0  0  0  0  0  0  0  0  0  0  0
   43.6263   35.6589   47.0288 H   0  0  0  0  0  0  0  0  0  0  0  0
  1 12  1  0
  2  1  2  0
  3  2  1  0
  4  3  1  0
  4  9  2  0
  5  4  1  0
  6  5  2  0
  6  7  1  0
  7  8  2  0
  8  9  1  0
  9  1  1  0
 10 16  1  0
 10 15  2  0
 11 10  1  0
 12 11  2  0
 12 13  1  0
 13 14  2  0
 14 15  1  0
 16 18  1  0
 17 16  2  0
  2 19  1  0
  3 20  1  0
  5 21  1  0
  6 22  1  0
  7 23  1  0
  8 24  1  0
 11 25  1  0
 14 26  1  0
 18 27  1  0
M  ISO  8  19  14  20   9  21  14  22  14  23  14  24  14  25  14  26  14
M  ISO  1  27   3
M  END
>  <minimizedAffinity>  (1) 
-6.01532888

>  <minimizedRMSD>  (1) 
1.46832752

$$$$
