
     RDKit          3D

 39 43  0  0  1  0  0  0  0  0999 V2000
   45.8440   33.7910   45.4940 C   0  0  0  0  0  0  0  0  0  0  0  0
   46.6610   33.7790   44.3580 C   0  0  0  0  0  0  0  0  0  0  0  0
   46.3980   34.7430   43.3680 C   0  0  0  0  0  0  0  0  0  0  0  0
   45.3840   35.6260   43.5590 N   0  0  0  0  0  0  0  0  0  0  0  0
   44.6140   35.6090   44.6720 C   0  0  0  0  0  0  0  0  0  0  0  0
   44.8440   34.6870   45.6460 N   0  0  0  0  0  0  0  0  0  0  0  0
   47.2330   34.7510   42.1790 C   0  0  0  0  0  0  0  0  0  0  0  0
   48.5150   35.3130   42.0640 C   0  0  0  0  0  0  0  0  0  0  0  0
   48.9660   35.1200   40.8090 N   0  0  0  0  0  0  0  0  0  0  0  0
   47.9930   34.4450   40.1280 C   0  0  0  0  0  0  0  0  0  0  0  0
   47.9780   34.0140   38.8120 C   0  0  0  0  0  0  0  0  0  0  0  0
   46.8600   33.3470   38.3680 C   0  0  0  0  0  0  0  0  0  0  0  0
   45.7420   33.0780   39.1550 C   0  0  0  0  0  0  0  0  0  0  0  0
   45.8480   33.5440   40.4450 C   0  0  0  0  0  0  0  0  0  0  0  0
   46.9140   34.2090   40.9590 C   0  0  0  0  0  0  0  0  0  0  0  0
   46.0170   32.8910   46.5180 O   0  0  0  0  0  0  0  0  0  0  0  0
   45.3620   32.8990   47.7340 C   0  0  1  0  0  0  0  0  0  0  0  0
   44.7130   31.6160   48.1460 C   0  0  0  0  0  0  0  0  0  0  0  0
   45.9790   32.0370   48.8170 C   0  0  1  0  0  0  0  0  0  0  0  0
   47.1500   31.2350   48.5110 N   0  0  0  0  0  0  0  0  0  0  0  0
   47.2730   30.1230   47.8300 N   0  0  0  0  0  0  0  0  0  0  0  0
   48.5390   29.6890   47.7730 C   0  0  0  0  0  0  0  0  0  0  0  0
   49.3150   30.6080   48.4870 C   0  0  0  0  0  0  0  0  0  0  0  0
   48.3880   31.5590   48.9270 C   0  0  0  0  0  0  0  0  0  0  0  0
   47.4741   33.0470   44.2441 H   0  0  0  0  0  0  0  0  0  0  0  0
   43.8015   36.3412   44.7893 H   0  0  0  0  0  0  0  0  0  0  0  0
   49.0621   35.8272   42.8679 H   0  0  0  0  0  0  0  0  0  0  0  0
   49.8752   35.4247   40.4331 H   0  0  0  0  0  0  0  0  0  0  0  0
   48.8320   34.1990   38.1438 H   0  0  0  0  0  0  0  0  0  0  0  0
   46.8477   33.0034   37.3231 H   0  0  0  0  0  0  0  0  0  0  0  0
   44.8572   32.5429   38.7798 H   0  0  0  0  0  0  0  0  0  0  0  0
   44.9965   33.3623   41.1172 H   0  0  0  0  0  0  0  0  0  0  0  0
   45.0349   33.9462   47.6538 H   0  0  0  0  0  0  0  0  0  0  0  0
   43.7650   31.6364   48.7035 H   0  0  0  0  0  0  0  0  0  0  0  0
   44.3849   30.7108   47.6140 H   0  0  0  0  0  0  0  0  0  0  0  0
   46.3145   32.2356   49.8456 H   0  0  0  0  0  0  0  0  0  0  0  0
   48.8992   28.7836   47.2626 H   0  0  0  0  0  0  0  0  0  0  0  0
   50.4008   30.5877   48.6618 H   0  0  0  0  0  0  0  0  0  0  0  0
   48.6361   32.4462   49.5281 H   0  0  0  0  0  0  0  0  0  0  0  0
  1  6  1  0
  1 16  1  0
  2  1  2  0
  3  4  2  0
  3  2  1  0
  4  5  1  0
  5  6  2  0
  7  3  1  0
  8  7  2  0
  9  8  1  0
 10  9  1  0
 10 15  2  0
 11 10  1  0
 12 11  2  0
 12 13  1  0
 13 14  2  0
 14 15  1  0
 15  7  1  0
 16 17  1  0
 17 18  1  0
 17 19  1  0
 18 19  1  0
 20 19  1  0
 20 24  1  0
 21 20  1  0
 22 21  2  0
 22 23  1  0
 23 24  2  0
  2 25  1  0
  5 26  1  0
  8 27  1  0
  9 28  1  0
 11 29  1  0
 12 30  1  0
 13 31  1  0
 14 32  1  0
 17 33  1  1
 18 34  1  0
 18 35  1  0
 19 36  1  1
 22 37  1  0
 23 38  1  0
 24 39  1  0
M  ISO  8  25  14  26  14  27  14  28   9  29  14  30  14  31  14  32  14
M  ISO  7  33  13  34  13  35  13  36  13  37  14  38  14  39  14
M  END
>  <minimizedAffinity>  (1) 
-6.72275925

>  <minimizedRMSD>  (1) 
0.537325919

$$$$
