
     RDKit          3D

 39 43  0  0  1  0  0  0  0  0999 V2000
   45.8690   33.7670   45.4960 C   0  0  0  0  0  0  0  0  0  0  0  0
   46.6640   33.7820   44.3530 C   0  0  0  0  0  0  0  0  0  0  0  0
   46.4000   34.7410   43.3690 C   0  0  0  0  0  0  0  0  0  0  0  0
   45.3810   35.6220   43.5630 N   0  0  0  0  0  0  0  0  0  0  0  0
   44.6200   35.5920   44.6790 C   0  0  0  0  0  0  0  0  0  0  0  0
   44.8520   34.6730   45.6500 N   0  0  0  0  0  0  0  0  0  0  0  0
   47.2380   34.7470   42.1770 C   0  0  0  0  0  0  0  0  0  0  0  0
   48.5200   35.3050   42.0700 C   0  0  0  0  0  0  0  0  0  0  0  0
   48.9750   35.1150   40.8200 N   0  0  0  0  0  0  0  0  0  0  0  0
   48.0090   34.4520   40.1400 C   0  0  0  0  0  0  0  0  0  0  0  0
   47.9820   34.0180   38.8220 C   0  0  0  0  0  0  0  0  0  0  0  0
   46.8600   33.3540   38.3630 C   0  0  0  0  0  0  0  0  0  0  0  0
   45.7380   33.0890   39.1550 C   0  0  0  0  0  0  0  0  0  0  0  0
   45.8490   33.5520   40.4440 C   0  0  0  0  0  0  0  0  0  0  0  0
   46.9140   34.2070   40.9570 C   0  0  0  0  0  0  0  0  0  0  0  0
   46.0490   32.8670   46.5150 O   0  0  0  0  0  0  0  0  0  0  0  0
   45.3980   32.8730   47.7390 C   0  0  1  0  0  0  0  0  0  0  0  0
   44.6980   31.6320   48.1480 C   0  0  0  0  0  0  0  0  0  0  0  0
   45.9970   31.9440   48.7860 C   0  0  1  0  0  0  0  0  0  0  0  0
   47.2260   31.2190   48.4500 C   0  0  0  0  0  0  0  0  0  0  0  0
   48.4740   31.5140   48.9810 C   0  0  0  0  0  0  0  0  0  0  0  0
   49.4250   30.6510   48.4660 C   0  0  0  0  0  0  0  0  0  0  0  0
   48.6700   29.8420   47.6120 C   0  0  0  0  0  0  0  0  0  0  0  0
   47.4230   30.2110   47.6410 O   0  0  0  0  0  0  0  0  0  0  0  0
   47.4810   33.0564   44.2265 H   0  0  0  0  0  0  0  0  0  0  0  0
   43.8043   36.3197   44.8016 H   0  0  0  0  0  0  0  0  0  0  0  0
   49.0647   35.8153   42.8780 H   0  0  0  0  0  0  0  0  0  0  0  0
   49.8871   35.4168   40.4486 H   0  0  0  0  0  0  0  0  0  0  0  0
   48.8377   34.1991   38.1550 H   0  0  0  0  0  0  0  0  0  0  0  0
   46.8488   33.0151   37.3166 H   0  0  0  0  0  0  0  0  0  0  0  0
   44.8495   32.5593   38.7809 H   0  0  0  0  0  0  0  0  0  0  0  0
   44.9971   33.3741   41.1167 H   0  0  0  0  0  0  0  0  0  0  0  0
   45.1125   33.9337   47.6800 H   0  0  0  0  0  0  0  0  0  0  0  0
   43.7717   31.6980   48.7375 H   0  0  0  0  0  0  0  0  0  0  0  0
   44.2995   30.7620   47.6055 H   0  0  0  0  0  0  0  0  0  0  0  0
   46.3323   32.0178   49.8310 H   0  0  0  0  0  0  0  0  0  0  0  0
   48.6773   32.3165   49.7053 H   0  0  0  0  0  0  0  0  0  0  0  0
   50.5041   30.6115   48.6759 H   0  0  0  0  0  0  0  0  0  0  0  0
   49.0707   29.0163   47.0057 H   0  0  0  0  0  0  0  0  0  0  0  0
  1  6  1  0
  1 16  1  0
  2  1  2  0
  3  4  2  0
  3  2  1  0
  4  5  1  0
  5  6  2  0
  7  3  1  0
  8  7  2  0
  9  8  1  0
 10  9  1  0
 10 15  2  0
 11 10  1  0
 12 11  2  0
 12 13  1  0
 13 14  2  0
 14 15  1  0
 15  7  1  0
 16 17  1  0
 17 18  1  0
 17 19  1  0
 18 19  1  0
 20 19  1  0
 20 21  2  0
 22 21  1  0
 23 24  1  0
 23 22  2  0
 24 20  1  0
  2 25  1  0
  5 26  1  0
  8 27  1  0
  9 28  1  0
 11 29  1  0
 12 30  1  0
 13 31  1  0
 14 32  1  0
 17 33  1  1
 18 34  1  0
 18 35  1  0
 19 36  1  1
 21 37  1  0
 22 38  1  0
 23 39  1  0
M  ISO  8  25  14  26  14  27  14  28   9  29  14  30  14  31  14  32  14
M  ISO  7  33  13  34  13  35  13  36  13  37  14  38  14  39  14
M  END
>  <minimizedAffinity>  (1) 
-6.74896002

>  <minimizedRMSD>  (1) 
0.615004182

$$$$
