
     RDKit          3D

 39 43  0  0  1  0  0  0  0  0999 V2000
   45.6950   33.9800   45.1880 C   0  0  0  0  0  0  0  0  0  0  0  0
   46.5310   33.9450   44.0630 C   0  0  0  0  0  0  0  0  0  0  0  0
   46.3750   34.9370   43.1030 C   0  0  0  0  0  0  0  0  0  0  0  0
   45.4180   35.9010   43.2930 N   0  0  0  0  0  0  0  0  0  0  0  0
   44.6210   35.9070   44.3960 C   0  0  0  0  0  0  0  0  0  0  0  0
   44.7580   34.9490   45.3430 N   0  0  0  0  0  0  0  0  0  0  0  0
   47.2310   34.9200   41.9310 C   0  0  0  0  0  0  0  0  0  0  0  0
   48.4880   35.5270   41.8090 C   0  0  0  0  0  0  0  0  0  0  0  0
   48.9700   35.2910   40.5750 N   0  0  0  0  0  0  0  0  0  0  0  0
   48.0410   34.5450   39.9120 C   0  0  0  0  0  0  0  0  0  0  0  0
   48.0720   34.0540   38.6270 C   0  0  0  0  0  0  0  0  0  0  0  0
   47.0030   33.3200   38.1800 C   0  0  0  0  0  0  0  0  0  0  0  0
   45.8700   33.0420   38.9720 C   0  0  0  0  0  0  0  0  0  0  0  0
   45.9170   33.5670   40.2380 C   0  0  0  0  0  0  0  0  0  0  0  0
   46.9510   34.3000   40.7320 C   0  0  0  0  0  0  0  0  0  0  0  0
   45.7820   33.0420   46.1800 O   0  0  0  0  0  0  0  0  0  0  0  0
   46.9210   32.7140   46.9110 C   0  0  1  0  0  0  0  0  0  0  0  0
   46.7120   32.1480   48.2740 C   0  0  0  0  0  0  0  0  0  0  0  0
   47.1050   31.2340   47.1540 C   0  0  1  0  0  0  0  0  0  0  0  0
   46.0450   30.3120   46.6700 C   0  0  0  0  0  0  0  0  0  0  0  0
   44.9780   29.7770   47.3420 C   0  0  0  0  0  0  0  0  0  0  0  0
   44.3150   28.9900   46.4190 C   0  0  0  0  0  0  0  0  0  0  0  0
   44.9730   29.0570   45.2290 N   0  0  0  0  0  0  0  0  0  0  0  0
   45.9980   29.8470   45.3960 N   0  0  0  0  0  0  0  0  0  0  0  0
   47.2878   33.1556   43.9440 H   0  0  0  0  0  0  0  0  0  0  0  0
   43.8620   36.6937   44.5188 H   0  0  0  0  0  0  0  0  0  0  0  0
   48.9983   36.1032   42.5949 H   0  0  0  0  0  0  0  0  0  0  0  0
   49.8735   35.6141   40.2006 H   0  0  0  0  0  0  0  0  0  0  0  0
   48.9351   34.2459   37.9726 H   0  0  0  0  0  0  0  0  0  0  0  0
   47.0310   32.9287   37.1523 H   0  0  0  0  0  0  0  0  0  0  0  0
   45.0176   32.4519   38.6042 H   0  0  0  0  0  0  0  0  0  0  0  0
   45.0584   33.3825   40.9004 H   0  0  0  0  0  0  0  0  0  0  0  0
   47.5323   33.5353   46.5088 H   0  0  0  0  0  0  0  0  0  0  0  0
   47.4304   32.3718   49.0763 H   0  0  0  0  0  0  0  0  0  0  0  0
   45.8878   32.1690   49.0022 H   0  0  0  0  0  0  0  0  0  0  0  0
   47.9168   30.5172   46.9609 H   0  0  0  0  0  0  0  0  0  0  0  0
   44.7058   29.9395   48.3953 H   0  0  0  0  0  0  0  0  0  0  0  0
   43.4042   28.4049   46.6142 H   0  0  0  0  0  0  0  0  0  0  0  0
   44.7104   28.5736   44.3582 H   0  0  0  0  0  0  0  0  0  0  0  0
  1  6  1  0
  1 16  1  0
  2  1  2  0
  3  4  2  0
  3  2  1  0
  4  5  1  0
  5  6  2  0
  7  3  1  0
  8  7  2  0
  9  8  1  0
 10  9  1  0
 10 15  2  0
 11 10  1  0
 12 11  2  0
 12 13  1  0
 13 14  2  0
 14 15  1  0
 15  7  1  0
 16 17  1  0
 17 19  1  0
 17 18  1  0
 19 18  1  0
 20 19  1  0
 20 21  1  0
 22 21  2  0
 23 24  1  0
 23 22  1  0
 24 20  2  0
  2 25  1  0
  5 26  1  0
  8 27  1  0
  9 28  1  0
 11 29  1  0
 12 30  1  0
 13 31  1  0
 14 32  1  0
 17 33  1  1
 18 34  1  0
 18 35  1  0
 19 36  1  1
 21 37  1  0
 22 38  1  0
 23 39  1  0
M  ISO  8  25  14  26  14  27  14  28   9  29  14  30  14  31  14  32  14
M  ISO  7  33  13  34  13  35  13  36  13  37  14  38  14  39   9
M  END
>  <minimizedAffinity>  (1) 
-6.75709009

>  <minimizedRMSD>  (1) 
2.12190747

$$$$
