
     RDKit          3D

 33 36  0  0  1  0  0  0  0  0999 V2000
   45.8100   33.8800   45.2750 C   0  0  0  0  0  0  0  0  0  0  0  0
   46.6240   33.8740   44.1390 C   0  0  0  0  0  0  0  0  0  0  0  0
   46.3940   34.8700   43.1740 C   0  0  0  0  0  0  0  0  0  0  0  0
   45.4050   35.7820   43.3820 N   0  0  0  0  0  0  0  0  0  0  0  0
   44.6310   35.7660   44.4900 C   0  0  0  0  0  0  0  0  0  0  0  0
   44.8300   34.8220   45.4310 N   0  0  0  0  0  0  0  0  0  0  0  0
   47.2340   34.8800   41.9820 C   0  0  0  0  0  0  0  0  0  0  0  0
   48.4880   35.5170   41.8580 C   0  0  0  0  0  0  0  0  0  0  0  0
   48.9560   35.3040   40.6150 N   0  0  0  0  0  0  0  0  0  0  0  0
   48.0350   34.5590   39.9670 C   0  0  0  0  0  0  0  0  0  0  0  0
   48.0450   34.0740   38.6610 C   0  0  0  0  0  0  0  0  0  0  0  0
   46.9850   33.3280   38.2180 C   0  0  0  0  0  0  0  0  0  0  0  0
   45.8730   33.0220   39.0140 C   0  0  0  0  0  0  0  0  0  0  0  0
   45.9440   33.5420   40.2950 C   0  0  0  0  0  0  0  0  0  0  0  0
   46.9540   34.2780   40.7850 C   0  0  0  0  0  0  0  0  0  0  0  0
   45.9600   32.9500   46.2660 O   0  0  0  0  0  0  0  0  0  0  0  0
   45.2640   32.9380   47.4730 C   0  0  1  0  0  0  0  0  0  0  0  0
   44.9180   31.6300   48.0720 C   0  0  0  0  0  0  0  0  0  0  0  0
   46.0830   32.3630   48.6290 C   0  0  1  0  0  0  0  0  0  0  0  0
   47.7750   31.8460   48.3150 S   0  0  0  0  0  0  0  0  0  0  0  0
   47.4134   33.1197   44.0053 H   0  0  0  0  0  0  0  0  0  0  0  0
   43.8417   36.5206   44.6231 H   0  0  0  0  0  0  0  0  0  0  0  0
   48.9971   36.0913   42.6460 H   0  0  0  0  0  0  0  0  0  0  0  0
   49.8485   35.6449   40.2301 H   0  0  0  0  0  0  0  0  0  0  0  0
   48.8933   34.2874   37.9941 H   0  0  0  0  0  0  0  0  0  0  0  0
   47.0078   32.9500   37.1852 H   0  0  0  0  0  0  0  0  0  0  0  0
   45.0226   32.4241   38.6543 H   0  0  0  0  0  0  0  0  0  0  0  0
   45.1002   33.3342   40.9694 H   0  0  0  0  0  0  0  0  0  0  0  0
   44.6822   33.8467   47.2591 H   0  0  0  0  0  0  0  0  0  0  0  0
   44.0004   31.5313   48.6706 H   0  0  0  0  0  0  0  0  0  0  0  0
   44.7731   30.6174   47.6675 H   0  0  0  0  0  0  0  0  0  0  0  0
   46.3765   32.6772   49.6415 H   0  0  0  0  0  0  0  0  0  0  0  0
   48.4209   31.6487   49.5070 H   0  0  0  0  0  0  0  0  0  0  0  0
  1  6  1  0
  1 16  1  0
  2  1  2  0
  3  4  2  0
  3  2  1  0
  4  5  1  0
  5  6  2  0
  7  3  1  0
  8  7  2  0
  9  8  1  0
 10  9  1  0
 10 15  2  0
 11 10  1  0
 12 11  2  0
 12 13  1  0
 13 14  2  0
 14 15  1  0
 15  7  1  0
 16 17  1  0
 17 18  1  0
 17 19  1  0
 18 19  1  0
 20 19  1  0
  2 21  1  0
  5 22  1  0
  8 23  1  0
  9 24  1  0
 11 25  1  0
 12 26  1  0
 13 27  1  0
 14 28  1  0
 17 29  1  1
 18 30  1  0
 18 31  1  0
 19 32  1  1
 20 33  1  0
M  ISO  8  21  14  22  14  23  14  24   9  25  14  26  14  27  14  28  14
M  ISO  5  29  13  30  13  31  13  32  13  33  11
M  END
>  <minimizedAffinity>  (1) 
-6.5054059

>  <minimizedRMSD>  (1) 
0.064650774

$$$$
