
     RDKit          3D

 38 41  0  0  1  0  0  0  0  0999 V2000
   45.7810   33.8480   45.1980 C   0  0  0  0  0  0  0  0  0  0  0  0
   46.6080   33.8410   44.0710 C   0  0  0  0  0  0  0  0  0  0  0  0
   46.4250   34.8630   43.1330 C   0  0  0  0  0  0  0  0  0  0  0  0
   45.4530   35.8090   43.3650 N   0  0  0  0  0  0  0  0  0  0  0  0
   44.6750   35.7780   44.4700 C   0  0  0  0  0  0  0  0  0  0  0  0
   44.8350   34.8000   45.3890 N   0  0  0  0  0  0  0  0  0  0  0  0
   47.2600   34.8930   41.9490 C   0  0  0  0  0  0  0  0  0  0  0  0
   48.4940   35.5470   41.8310 C   0  0  0  0  0  0  0  0  0  0  0  0
   48.9660   35.3470   40.5810 N   0  0  0  0  0  0  0  0  0  0  0  0
   48.0570   34.5850   39.9150 C   0  0  0  0  0  0  0  0  0  0  0  0
   48.0790   34.1130   38.6160 C   0  0  0  0  0  0  0  0  0  0  0  0
   47.0250   33.3520   38.1770 C   0  0  0  0  0  0  0  0  0  0  0  0
   45.9100   33.0200   38.9760 C   0  0  0  0  0  0  0  0  0  0  0  0
   45.9810   33.5370   40.2510 C   0  0  0  0  0  0  0  0  0  0  0  0
   46.9860   34.2890   40.7460 C   0  0  0  0  0  0  0  0  0  0  0  0
   45.8980   32.8790   46.1640 O   0  0  0  0  0  0  0  0  0  0  0  0
   45.3060   32.8970   47.4210 C   0  0  1  0  0  0  0  0  0  0  0  0
   45.0440   31.6070   48.0880 C   0  0  0  0  0  0  0  0  0  0  0  0
   46.1880   32.4210   48.5550 C   0  0  1  0  0  0  0  0  0  0  0  0
   47.6190   32.0640   48.2150 C   0  0  0  0  0  0  0  0  0  0  0  0
   48.0250   30.9030   49.1300 C   0  0  0  0  0  0  0  0  0  0  0  0
   47.3722   33.0630   43.9273 H   0  0  0  0  0  0  0  0  0  0  0  0
   43.9084   36.5521   44.6219 H   0  0  0  0  0  0  0  0  0  0  0  0
   48.9936   36.1252   42.6222 H   0  0  0  0  0  0  0  0  0  0  0  0
   49.8534   35.7064   40.2011 H   0  0  0  0  0  0  0  0  0  0  0  0
   48.9230   34.3424   37.9488 H   0  0  0  0  0  0  0  0  0  0  0  0
   47.0506   32.9791   37.1424 H   0  0  0  0  0  0  0  0  0  0  0  0
   45.0685   32.4095   38.6167 H   0  0  0  0  0  0  0  0  0  0  0  0
   45.1418   33.3166   40.9272 H   0  0  0  0  0  0  0  0  0  0  0  0
   44.6927   33.7835   47.2021 H   0  0  0  0  0  0  0  0  0  0  0  0
   44.1570   31.4944   48.7287 H   0  0  0  0  0  0  0  0  0  0  0  0
   44.9308   30.5703   47.7382 H   0  0  0  0  0  0  0  0  0  0  0  0
   46.5031   32.7829   49.5448 H   0  0  0  0  0  0  0  0  0  0  0  0
   47.6908   31.7565   47.1613 H   0  0  0  0  0  0  0  0  0  0  0  0
   48.2831   32.9284   48.3622 H   0  0  0  0  0  0  0  0  0  0  0  0
   47.9178   31.2096   50.1809 H   0  0  0  0  0  0  0  0  0  0  0  0
   47.3765   30.0367   48.9328 H   0  0  0  0  0  0  0  0  0  0  0  0
   49.0721   30.6296   48.9328 H   0  0  0  0  0  0  0  0  0  0  0  0
  1  6  1  0
  1 16  1  0
  2  1  2  0
  3  4  2  0
  3  2  1  0
  4  5  1  0
  5  6  2  0
  7  3  1  0
  8  7  2  0
  9  8  1  0
 10  9  1  0
 10 15  2  0
 11 10  1  0
 12 11  2  0
 12 13  1  0
 13 14  2  0
 14 15  1  0
 15  7  1  0
 16 17  1  0
 17 18  1  0
 17 19  1  0
 18 19  1  0
 20 19  1  0
 20 21  1  0
  2 22  1  0
  5 23  1  0
  8 24  1  0
  9 25  1  0
 11 26  1  0
 12 27  1  0
 13 28  1  0
 14 29  1  0
 17 30  1  1
 18 31  1  0
 18 32  1  0
 19 33  1  1
 20 34  1  0
 20 35  1  0
 21 36  1  0
 21 37  1  0
 21 38  1  0
M  ISO  8  22  14  23  14  24  14  25   9  26  14  27  14  28  14  29  14
M  ISO  8  30  13  31  13  32  13  33  13  34   8  35   8  36   8  37   8
M  ISO  1  38   8
M  END
>  <minimizedAffinity>  (1) 
-6.64163303

>  <minimizedRMSD>  (1) 
0.572973728

$$$$
