
     RDKit          3D

 39 41  0  0  0  0  0  0  0  0999 V2000
   47.8220   34.8220   41.5770 C   0  0  0  0  0  0  0  0  0  0  0  0
   47.5330   34.3540   40.2050 C   0  0  0  0  0  0  0  0  0  0  0  0
   48.3730   34.5990   39.1360 C   0  0  0  0  0  0  0  0  0  0  0  0
   48.1820   34.1790   37.8480 C   0  0  0  0  0  0  0  0  0  0  0  0
   47.0510   33.4570   37.6340 N   0  0  0  0  0  0  0  0  0  0  0  0
   46.1950   33.1970   38.6780 C   0  0  0  0  0  0  0  0  0  0  0  0
   46.3990   33.6200   39.9450 N   0  0  0  0  0  0  0  0  0  0  0  0
   45.0320   32.4360   38.3790 N   0  0  0  0  0  0  0  0  0  0  0  0
   44.0760   32.1170   39.4220 C   0  0  0  0  0  0  0  0  0  0  0  0
   42.7370   32.6080   38.9290 C   0  0  0  0  0  0  0  0  0  0  0  0
   42.3560   31.8120   37.7180 C   0  0  0  0  0  0  0  0  0  0  0  0
   43.5020   31.1600   37.0120 C   0  0  0  0  0  0  0  0  0  0  0  0
   44.7810   31.9670   37.0350 C   0  0  0  0  0  0  0  0  0  0  0  0
   47.2920   33.8030   42.5550 C   0  0  0  0  0  0  0  0  0  0  0  0
   44.6960   36.0110   44.1950 C   0  0  0  0  0  0  0  0  0  0  0  0
   45.5850   35.5160   43.2390 C   0  0  0  0  0  0  0  0  0  0  0  0
   46.3290   34.3860   43.5170 C   0  0  0  0  0  0  0  0  0  0  0  0
   46.1660   33.7900   44.7290 N   0  0  0  0  0  0  0  0  0  0  0  0
   45.2840   34.3020   45.6460 C   0  0  0  0  0  0  0  0  0  0  0  0
   44.5700   35.3930   45.3680 N   0  0  0  0  0  0  0  0  0  0  0  0
   47.3309   35.7911   41.7491 H   0  0  0  0  0  0  0  0  0  0  0  0
   48.9069   34.9433   41.7118 H   0  0  0  0  0  0  0  0  0  0  0  0
   49.2803   35.1867   39.3394 H   0  0  0  0  0  0  0  0  0  0  0  0
   48.8942   34.4097   37.0421 H   0  0  0  0  0  0  0  0  0  0  0  0
   44.0450   31.0306   39.5918 H   0  0  0  0  0  0  0  0  0  0  0  0
   44.3504   32.5904   40.3762 H   0  0  0  0  0  0  0  0  0  0  0  0
   41.9797   32.4730   39.7153 H   0  0  0  0  0  0  0  0  0  0  0  0
   42.7974   33.6764   38.6744 H   0  0  0  0  0  0  0  0  0  0  0  0
   41.6547   31.0249   38.0322 H   0  0  0  0  0  0  0  0  0  0  0  0
   41.9163   32.5241   37.0042 H   0  0  0  0  0  0  0  0  0  0  0  0
   43.2144   30.9982   35.9627 H   0  0  0  0  0  0  0  0  0  0  0  0
   43.7100   30.2205   37.5451 H   0  0  0  0  0  0  0  0  0  0  0  0
   45.6188   31.3353   36.7048 H   0  0  0  0  0  0  0  0  0  0  0  0
   44.6823   32.8290   36.3588 H   0  0  0  0  0  0  0  0  0  0  0  0
   46.7880   33.0033   41.9924 H   0  0  0  0  0  0  0  0  0  0  0  0
   48.1463   33.4169   43.1305 H   0  0  0  0  0  0  0  0  0  0  0  0
   44.1004   36.9104   43.9796 H   0  0  0  0  0  0  0  0  0  0  0  0
   45.6924   36.0235   42.2690 H   0  0  0  0  0  0  0  0  0  0  0  0
   45.1644   33.8072   46.6212 H   0  0  0  0  0  0  0  0  0  0  0  0
  1 14  1  0
  2  1  1  0
  3  2  2  0
  4  3  1  0
  5  4  2  0
  5  6  1  0
  6  7  2  0
  7  2  1  0
  8  6  1  0
  8  9  1  0
 10  9  1  0
 11 10  1  0
 12 13  1  0
 12 11  1  0
 13  8  1  0
 14 17  1  0
 15 20  2  0
 16 17  2  0
 16 15  1  0
 17 18  1  0
 18 19  2  0
 20 19  1  0
  1 21  1  0
  1 22  1  0
  3 23  1  0
  4 24  1  0
  9 25  1  0
  9 26  1  0
 10 27  1  0
 10 28  1  0
 11 29  1  0
 11 30  1  0
 12 31  1  0
 12 32  1  0
 13 33  1  0
 13 34  1  0
 14 35  1  0
 14 36  1  0
 15 37  1  0
 16 38  1  0
 19 39  1  0
M  ISO  8  21   8  22   8  23  14  24  14  25  13  26  13  27  13  28  13
M  ISO  8  29  13  30  13  31  13  32  13  33  13  34  13  35   8  36   8
M  ISO  3  37  14  38  14  39  14
M  END
>  <minimizedAffinity>  (1) 
-5.0633626

>  <minimizedRMSD>  (1) 
0.165425122

$$$$
