
     RDKit          3D

 35 38  0  0  1  0  0  0  0  0999 V2000
   45.8010   33.8530   45.2240 C   0  0  0  0  0  0  0  0  0  0  0  0
   46.6190   33.8570   44.0850 C   0  0  0  0  0  0  0  0  0  0  0  0
   46.4100   34.8710   43.1390 C   0  0  0  0  0  0  0  0  0  0  0  0
   45.4350   35.7930   43.3700 N   0  0  0  0  0  0  0  0  0  0  0  0
   44.6640   35.7610   44.4780 C   0  0  0  0  0  0  0  0  0  0  0  0
   44.8460   34.7960   45.4050 N   0  0  0  0  0  0  0  0  0  0  0  0
   47.2440   34.8900   41.9570 C   0  0  0  0  0  0  0  0  0  0  0  0
   48.4940   35.5380   41.8260 C   0  0  0  0  0  0  0  0  0  0  0  0
   48.9720   35.3400   40.5930 N   0  0  0  0  0  0  0  0  0  0  0  0
   48.0550   34.5780   39.9260 C   0  0  0  0  0  0  0  0  0  0  0  0
   48.0810   34.1040   38.6250 C   0  0  0  0  0  0  0  0  0  0  0  0
   47.0240   33.3510   38.1880 C   0  0  0  0  0  0  0  0  0  0  0  0
   45.9130   33.0290   38.9820 C   0  0  0  0  0  0  0  0  0  0  0  0
   45.9720   33.5430   40.2590 C   0  0  0  0  0  0  0  0  0  0  0  0
   46.9800   34.2910   40.7560 C   0  0  0  0  0  0  0  0  0  0  0  0
   45.9420   32.8970   46.1950 O   0  0  0  0  0  0  0  0  0  0  0  0
   45.3200   32.8870   47.4300 C   0  0  1  0  0  0  0  0  0  0  0  0
   45.0260   31.5990   48.0800 C   0  0  0  0  0  0  0  0  0  0  0  0
   46.1850   32.3920   48.5720 C   0  0  1  0  0  0  0  0  0  0  0  0
   47.6060   31.9970   48.2580 C   0  0  0  0  0  0  0  0  0  0  0  0
   47.3964   33.0926   43.9389 H   0  0  0  0  0  0  0  0  0  0  0  0
   43.8851   36.5235   44.6261 H   0  0  0  0  0  0  0  0  0  0  0  0
   48.9957   36.1157   42.6163 H   0  0  0  0  0  0  0  0  0  0  0  0
   49.8629   35.6948   40.2172 H   0  0  0  0  0  0  0  0  0  0  0  0
   48.9285   34.3266   37.9601 H   0  0  0  0  0  0  0  0  0  0  0  0
   47.0474   32.9767   37.1539 H   0  0  0  0  0  0  0  0  0  0  0  0
   45.0713   32.4214   38.6181 H   0  0  0  0  0  0  0  0  0  0  0  0
   45.1274   33.3258   40.9294 H   0  0  0  0  0  0  0  0  0  0  0  0
   44.7100   33.7745   47.2057 H   0  0  0  0  0  0  0  0  0  0  0  0
   44.1287   31.4971   48.7080 H   0  0  0  0  0  0  0  0  0  0  0  0
   44.8983   30.5677   47.7192 H   0  0  0  0  0  0  0  0  0  0  0  0
   46.4975   32.7513   49.5636 H   0  0  0  0  0  0  0  0  0  0  0  0
   48.1596   31.8431   49.1960 H   0  0  0  0  0  0  0  0  0  0  0  0
   47.6070   31.0645   47.6745 H   0  0  0  0  0  0  0  0  0  0  0  0
   48.0880   32.7952   47.6745 H   0  0  0  0  0  0  0  0  0  0  0  0
  1  6  1  0
  1 16  1  0
  2  1  2  0
  3  4  2  0
  3  2  1  0
  4  5  1  0
  5  6  2  0
  7  3  1  0
  8  7  2  0
  9  8  1  0
 10  9  1  0
 10 15  2  0
 11 10  1  0
 12 11  2  0
 12 13  1  0
 13 14  2  0
 14 15  1  0
 15  7  1  0
 16 17  1  0
 17 18  1  0
 17 19  1  0
 18 19  1  0
 20 19  1  0
  2 21  1  0
  5 22  1  0
  8 23  1  0
  9 24  1  0
 11 25  1  0
 12 26  1  0
 13 27  1  0
 14 28  1  0
 17 29  1  1
 18 30  1  0
 18 31  1  0
 19 32  1  1
 20 33  1  0
 20 34  1  0
 20 35  1  0
M  ISO  8  21  14  22  14  23  14  24   9  25  14  26  14  27  14  28  14
M  ISO  7  29  13  30  13  31  13  32  13  33   8  34   8  35   8
M  END
>  <minimizedAffinity>  (1) 
-6.62044001

>  <minimizedRMSD>  (1) 
0.0333718173

$$$$
