
     RDKit          3D

 39 43  0  0  1  0  0  0  0  0999 V2000
   46.2740   33.6940   45.1350 C   0  0  0  0  0  0  0  0  0  0  0  0
   47.0200   33.8280   43.9700 C   0  0  0  0  0  0  0  0  0  0  0  0
   46.6130   34.7450   43.0100 C   0  0  0  0  0  0  0  0  0  0  0  0
   45.4990   35.4820   43.2430 N   0  0  0  0  0  0  0  0  0  0  0  0
   44.7750   35.3430   44.3860 C   0  0  0  0  0  0  0  0  0  0  0  0
   45.1600   34.4560   45.3280 N   0  0  0  0  0  0  0  0  0  0  0  0
   47.4010   34.8760   41.7950 C   0  0  0  0  0  0  0  0  0  0  0  0
   48.5830   35.6290   41.6520 C   0  0  0  0  0  0  0  0  0  0  0  0
   49.0300   35.5130   40.3860 N   0  0  0  0  0  0  0  0  0  0  0  0
   48.1530   34.7030   39.7340 C   0  0  0  0  0  0  0  0  0  0  0  0
   48.1820   34.2880   38.4160 C   0  0  0  0  0  0  0  0  0  0  0  0
   47.1640   33.4580   37.9870 C   0  0  0  0  0  0  0  0  0  0  0  0
   46.1130   33.0150   38.7990 C   0  0  0  0  0  0  0  0  0  0  0  0
   46.1840   33.4900   40.0930 C   0  0  0  0  0  0  0  0  0  0  0  0
   47.1390   34.2980   40.5810 C   0  0  0  0  0  0  0  0  0  0  0  0
   46.6130   32.8110   46.1280 O   0  0  0  0  0  0  0  0  0  0  0  0
   46.1710   31.4920   46.2240 C   0  0  1  0  0  0  0  0  0  0  0  0
   45.7820   30.7890   44.9910 C   0  0  0  0  0  0  0  0  0  0  0  0
   47.1120   30.4850   45.5650 C   0  0  2  0  0  0  0  0  0  0  0  0
   47.3280   29.2750   46.4000 C   0  0  0  0  0  0  0  0  0  0  0  0
   48.4250   28.9950   47.2040 C   0  0  0  0  0  0  0  0  0  0  0  0
   48.2630   27.7880   47.8170 N   0  0  0  0  0  0  0  0  0  0  0  0
   47.0690   27.3390   47.3840 C   0  0  0  0  0  0  0  0  0  0  0  0
   46.5000   28.2160   46.5380 N   0  0  0  0  0  0  0  0  0  0  0  0
   47.9202   33.2162   43.8107 H   0  0  0  0  0  0  0  0  0  0  0  0
   43.8742   35.9544   44.5431 H   0  0  0  0  0  0  0  0  0  0  0  0
   49.0643   36.2177   42.4469 H   0  0  0  0  0  0  0  0  0  0  0  0
   49.8726   35.9526   39.9889 H   0  0  0  0  0  0  0  0  0  0  0  0
   48.9848   34.6063   37.7346 H   0  0  0  0  0  0  0  0  0  0  0  0
   47.1804   33.1235   36.9392 H   0  0  0  0  0  0  0  0  0  0  0  0
   45.3101   32.3538   38.4411 H   0  0  0  0  0  0  0  0  0  0  0  0
   45.3880   33.1792   40.7856 H   0  0  0  0  0  0  0  0  0  0  0  0
   45.6833   31.6313   47.2001 H   0  0  0  0  0  0  0  0  0  0  0  0
   45.7128   31.3474   44.0458 H   0  0  0  0  0  0  0  0  0  0  0  0
   44.9161   30.1750   44.7026 H   0  0  0  0  0  0  0  0  0  0  0  0
   48.1174   30.4481   45.1203 H   0  0  0  0  0  0  0  0  0  0  0  0
   49.2984   29.6520   47.3283 H   0  0  0  0  0  0  0  0  0  0  0  0
   46.6187   26.3810   47.6831 H   0  0  0  0  0  0  0  0  0  0  0  0
   45.5878   28.1002   46.0739 H   0  0  0  0  0  0  0  0  0  0  0  0
  1  6  1  0
  1 16  1  0
  2  1  2  0
  3  4  2  0
  3  2  1  0
  4  5  1  0
  5  6  2  0
  7  3  1  0
  8  7  2  0
  9  8  1  0
 10  9  1  0
 10 15  2  0
 11 10  1  0
 12 11  2  0
 12 13  1  0
 13 14  2  0
 14 15  1  0
 15  7  1  0
 16 17  1  0
 18 19  1  0
 18 17  1  0
 19 17  1  0
 19 20  1  0
 20 24  1  0
 20 21  2  0
 21 22  1  0
 23 22  2  0
 24 23  1  0
  2 25  1  0
  5 26  1  0
  8 27  1  0
  9 28  1  0
 11 29  1  0
 12 30  1  0
 13 31  1  0
 14 32  1  0
 17 33  1  1
 18 34  1  0
 18 35  1  0
 19 36  1  6
 21 37  1  0
 23 38  1  0
 24 39  1  0
M  ISO  8  25  14  26  14  27  14  28   9  29  14  30  14  31  14  32  14
M  ISO  7  33  13  34  13  35  13  36  13  37  14  38  14  39   9
M  END
>  <minimizedAffinity>  (1) 
-5.92237139

>  <minimizedRMSD>  (1) 
3.34334087

$$$$
