
     RDKit          3D

 42 46  0  0  1  0  0  0  0  0999 V2000
   45.7240   33.8390   45.5180 C   0  0  0  0  0  0  0  0  0  0  0  0
   46.5230   33.8240   44.3790 C   0  0  0  0  0  0  0  0  0  0  0  0
   46.3220   34.7940   43.4000 C   0  0  0  0  0  0  0  0  0  0  0  0
   45.3570   35.7170   43.5880 N   0  0  0  0  0  0  0  0  0  0  0  0
   44.5890   35.7180   44.7010 C   0  0  0  0  0  0  0  0  0  0  0  0
   44.7790   34.7810   45.6540 N   0  0  0  0  0  0  0  0  0  0  0  0
   47.1700   34.7610   42.2150 C   0  0  0  0  0  0  0  0  0  0  0  0
   48.4570   35.2780   42.1000 C   0  0  0  0  0  0  0  0  0  0  0  0
   48.9350   35.0710   40.8750 N   0  0  0  0  0  0  0  0  0  0  0  0
   47.9600   34.4170   40.1820 C   0  0  0  0  0  0  0  0  0  0  0  0
   47.9320   33.9620   38.8700 C   0  0  0  0  0  0  0  0  0  0  0  0
   46.8250   33.3250   38.4050 C   0  0  0  0  0  0  0  0  0  0  0  0
   45.6800   33.0960   39.1900 C   0  0  0  0  0  0  0  0  0  0  0  0
   45.7750   33.5720   40.4760 C   0  0  0  0  0  0  0  0  0  0  0  0
   46.8430   34.2090   40.9930 C   0  0  0  0  0  0  0  0  0  0  0  0
   45.8720   32.9020   46.5310 O   0  0  0  0  0  0  0  0  0  0  0  0
   45.1410   32.8890   47.7210 C   0  0  1  0  0  0  0  0  0  0  0  0
   44.7100   31.5520   48.2110 C   0  0  0  0  0  0  0  0  0  0  0  0
   45.8610   32.3120   48.8990 C   0  0  1  0  0  0  0  0  0  0  0  0
   47.2220   31.7260   48.6640 C   0  0  0  0  0  0  0  0  0  0  0  0
   47.9780   32.2650   47.8120 O   0  0  0  0  0  0  0  0  0  0  0  0
   47.7710   30.6360   49.2700 O   0  0  0  0  0  0  0  0  0  0  0  0
   49.2760   30.5850   49.1390 C   0  0  0  0  0  0  0  0  0  0  0  0
   49.9710   31.4740   50.0690 C   0  0  0  0  0  0  0  0  0  0  0  0
   51.3150   31.4560   49.9810 C   0  0  0  0  0  0  0  0  0  0  0  0
   52.0000   30.6420   49.0650 C   0  0  0  0  0  0  0  0  0  0  0  0
   50.6320   29.7830   48.2030 S   0  0  0  0  0  0  0  0  0  0  0  0
   47.3019   33.0574   44.2536 H   0  0  0  0  0  0  0  0  0  0  0  0
   43.8090   36.4828   44.8299 H   0  0  0  0  0  0  0  0  0  0  0  0
   49.0029   35.7866   42.9083 H   0  0  0  0  0  0  0  0  0  0  0  0
   49.8607   35.3504   40.5200 H   0  0  0  0  0  0  0  0  0  0  0  0
   48.7998   34.1161   38.2118 H   0  0  0  0  0  0  0  0  0  0  0  0
   46.8242   32.9710   37.3635 H   0  0  0  0  0  0  0  0  0  0  0  0
   44.7864   32.5808   38.8078 H   0  0  0  0  0  0  0  0  0  0  0  0
   44.9085   33.4203   41.1364 H   0  0  0  0  0  0  0  0  0  0  0  0
   44.6116   33.8331   47.5251 H   0  0  0  0  0  0  0  0  0  0  0  0
   43.7421   31.4363   48.7208 H   0  0  0  0  0  0  0  0  0  0  0  0
   44.5887   30.5554   47.7614 H   0  0  0  0  0  0  0  0  0  0  0  0
   46.0945   32.6745   49.9110 H   0  0  0  0  0  0  0  0  0  0  0  0
   49.4353   32.1111   50.7881 H   0  0  0  0  0  0  0  0  0  0  0  0
   51.8979   32.1037   50.6523 H   0  0  0  0  0  0  0  0  0  0  0  0
   53.0840   30.5449   48.9055 H   0  0  0  0  0  0  0  0  0  0  0  0
  1  6  1  0
  1 16  1  0
  2  1  2  0
  3  4  2  0
  3  2  1  0
  4  5  1  0
  5  6  2  0
  7  3  1  0
  8  7  2  0
  9  8  1  0
 10  9  1  0
 10 15  2  0
 11 10  1  0
 12 11  2  0
 12 13  1  0
 13 14  2  0
 14 15  1  0
 15  7  1  0
 16 17  1  0
 17 18  1  0
 17 19  1  0
 18 19  1  0
 20 19  1  0
 20 22  1  0
 21 20  2  0
 23 22  1  0
 23 24  2  0
 25 24  1  0
 26 25  2  0
 27 26  1  0
 27 23  1  0
  2 28  1  0
  5 29  1  0
  8 30  1  0
  9 31  1  0
 11 32  1  0
 12 33  1  0
 13 34  1  0
 14 35  1  0
 17 36  1  1
 18 37  1  0
 18 38  1  0
 19 39  1  1
 24 40  1  0
 25 41  1  0
 26 42  1  0
M  ISO  8  28  14  29  14  30  14  31   9  32  14  33  14  34  14  35  14
M  ISO  7  36  13  37  13  38  13  39  13  40  14  41  14  42  14
M  END
>  <minimizedAffinity>  (1) 
-6.87097931

>  <minimizedRMSD>  (1) 
0.231828615

$$$$
