
     RDKit          3D

 38 41  0  0  1  0  0  0  0  0999 V2000
   45.7100   33.8070   45.5220 C   0  0  0  0  0  0  0  0  0  0  0  0
   46.5130   33.7950   44.3770 C   0  0  0  0  0  0  0  0  0  0  0  0
   46.3270   34.7800   43.4130 C   0  0  0  0  0  0  0  0  0  0  0  0
   45.3610   35.7230   43.6200 N   0  0  0  0  0  0  0  0  0  0  0  0
   44.5940   35.7150   44.7360 C   0  0  0  0  0  0  0  0  0  0  0  0
   44.7710   34.7610   45.6780 N   0  0  0  0  0  0  0  0  0  0  0  0
   47.1690   34.7620   42.2320 C   0  0  0  0  0  0  0  0  0  0  0  0
   48.4500   35.3100   42.1190 C   0  0  0  0  0  0  0  0  0  0  0  0
   48.9140   35.1140   40.8830 N   0  0  0  0  0  0  0  0  0  0  0  0
   47.9500   34.4460   40.1980 C   0  0  0  0  0  0  0  0  0  0  0  0
   47.9210   33.9950   38.8790 C   0  0  0  0  0  0  0  0  0  0  0  0
   46.8230   33.3390   38.4170 C   0  0  0  0  0  0  0  0  0  0  0  0
   45.6930   33.0840   39.2190 C   0  0  0  0  0  0  0  0  0  0  0  0
   45.7850   33.5540   40.5080 C   0  0  0  0  0  0  0  0  0  0  0  0
   46.8450   34.2090   41.0140 C   0  0  0  0  0  0  0  0  0  0  0  0
   45.8460   32.8530   46.5120 O   0  0  0  0  0  0  0  0  0  0  0  0
   45.1260   32.8280   47.7090 C   0  0  1  0  0  0  0  0  0  0  0  0
   44.7780   31.4750   48.2290 C   0  0  0  0  0  0  0  0  0  0  0  0
   45.8750   32.3230   48.8990 C   0  0  1  0  0  0  0  0  0  0  0  0
   47.2740   31.8230   48.6780 C   0  0  0  0  0  0  0  0  0  0  0  0
   48.0000   32.4090   47.8330 O   0  0  0  0  0  0  0  0  0  0  0  0
   47.8820   30.7710   49.2950 O   0  0  0  0  0  0  0  0  0  0  0  0
   49.2370   30.7890   49.6410 C   0  0  0  0  0  0  0  0  0  0  0  0
   50.0690   30.3140   48.6530 F   0  0  0  0  0  0  0  0  0  0  0  0
   49.6900   32.0430   49.9990 F   0  0  0  0  0  0  0  0  0  0  0  0
   49.4140   29.9120   50.7200 F   0  0  0  0  0  0  0  0  0  0  0  0
   47.2800   33.0183   44.2410 H   0  0  0  0  0  0  0  0  0  0  0  0
   43.8238   36.4877   44.8769 H   0  0  0  0  0  0  0  0  0  0  0  0
   48.9928   35.8243   42.9257 H   0  0  0  0  0  0  0  0  0  0  0  0
   49.8296   35.4127   40.5178 H   0  0  0  0  0  0  0  0  0  0  0  0
   48.7813   34.1688   38.2159 H   0  0  0  0  0  0  0  0  0  0  0  0
   46.8168   32.9928   37.3729 H   0  0  0  0  0  0  0  0  0  0  0  0
   44.8070   32.5510   38.8436 H   0  0  0  0  0  0  0  0  0  0  0  0
   44.9276   33.3813   41.1751 H   0  0  0  0  0  0  0  0  0  0  0  0
   44.5457   33.7377   47.4952 H   0  0  0  0  0  0  0  0  0  0  0  0
   43.8181   31.3094   48.7400 H   0  0  0  0  0  0  0  0  0  0  0  0
   44.7214   30.4626   47.8026 H   0  0  0  0  0  0  0  0  0  0  0  0
   46.0807   32.7206   49.9038 H   0  0  0  0  0  0  0  0  0  0  0  0
  1  6  1  0
  1 16  1  0
  2  1  2  0
  3  4  2  0
  3  2  1  0
  4  5  1  0
  5  6  2  0
  7  3  1  0
  8  7  2  0
  9  8  1  0
 10  9  1  0
 10 15  2  0
 11 10  1  0
 12 11  2  0
 12 13  1  0
 13 14  2  0
 14 15  1  0
 15  7  1  0
 16 17  1  0
 17 18  1  0
 17 19  1  0
 18 19  1  0
 20 19  1  0
 20 22  1  0
 21 20  2  0
 22 23  1  0
 23 25  1  0
 23 26  1  0
 24 23  1  0
  2 27  1  0
  5 28  1  0
  8 29  1  0
  9 30  1  0
 11 31  1  0
 12 32  1  0
 13 33  1  0
 14 34  1  0
 17 35  1  1
 18 36  1  0
 18 37  1  0
 19 38  1  1
M  ISO  8  27  14  28  14  29  14  30   9  31  14  32  14  33  14  34  14
M  ISO  4  35  13  36  13  37  13  38  13
M  END
>  <minimizedAffinity>  (1) 
-6.92157125

>  <minimizedRMSD>  (1) 
0.369579107

$$$$
