
     RDKit          3D

 43 47  0  0  1  0  0  0  0  0999 V2000
   45.7390   33.7170   45.5490 C   0  0  0  0  0  0  0  0  0  0  0  0
   46.5240   33.7440   44.4010 C   0  0  0  0  0  0  0  0  0  0  0  0
   46.3200   34.7490   43.4620 C   0  0  0  0  0  0  0  0  0  0  0  0
   45.3580   35.6730   43.7020 N   0  0  0  0  0  0  0  0  0  0  0  0
   44.6040   35.6350   44.8230 C   0  0  0  0  0  0  0  0  0  0  0  0
   44.7980   34.6590   45.7390 N   0  0  0  0  0  0  0  0  0  0  0  0
   47.1530   34.7600   42.2670 C   0  0  0  0  0  0  0  0  0  0  0  0
   48.4200   35.3350   42.1470 C   0  0  0  0  0  0  0  0  0  0  0  0
   48.8810   35.1550   40.9060 N   0  0  0  0  0  0  0  0  0  0  0  0
   47.9300   34.4700   40.2230 C   0  0  0  0  0  0  0  0  0  0  0  0
   47.9060   34.0330   38.9200 C   0  0  0  0  0  0  0  0  0  0  0  0
   46.8110   33.3470   38.4480 C   0  0  0  0  0  0  0  0  0  0  0  0
   45.6920   33.0630   39.2470 C   0  0  0  0  0  0  0  0  0  0  0  0
   45.7880   33.5360   40.5520 C   0  0  0  0  0  0  0  0  0  0  0  0
   46.8330   34.2060   41.0460 C   0  0  0  0  0  0  0  0  0  0  0  0
   45.8880   32.7520   46.5180 O   0  0  0  0  0  0  0  0  0  0  0  0
   45.1740   32.6810   47.7190 C   0  0  1  0  0  0  0  0  0  0  0  0
   44.9140   31.3180   48.2610 C   0  0  0  0  0  0  0  0  0  0  0  0
   45.9650   32.2320   48.9040 C   0  0  1  0  0  0  0  0  0  0  0  0
   47.3910   31.8230   48.6800 C   0  0  0  0  0  0  0  0  0  0  0  0
   48.1480   32.5770   48.0160 O   0  0  0  0  0  0  0  0  0  0  0  0
   47.9930   30.6840   49.1200 O   0  0  0  0  0  0  0  0  0  0  0  0
   49.1900   30.7990   49.8350 C   0  0  0  0  0  0  0  0  0  0  0  0
   49.9770   31.9290   49.8590 C   0  0  0  0  0  0  0  0  0  0  0  0
   51.1410   31.9660   50.5870 C   0  0  0  0  0  0  0  0  0  0  0  0
   51.4760   30.8580   51.2720 N   0  0  0  0  0  0  0  0  0  0  0  0
   50.7080   29.7310   51.2600 C   0  0  0  0  0  0  0  0  0  0  0  0
   49.5660   29.7060   50.5400 N   0  0  0  0  0  0  0  0  0  0  0  0
   47.2974   32.9790   44.2379 H   0  0  0  0  0  0  0  0  0  0  0  0
   43.8310   36.3994   44.9907 H   0  0  0  0  0  0  0  0  0  0  0  0
   48.9572   35.8572   42.9525 H   0  0  0  0  0  0  0  0  0  0  0  0
   49.7877   35.4759   40.5373 H   0  0  0  0  0  0  0  0  0  0  0  0
   48.7604   34.2314   38.2562 H   0  0  0  0  0  0  0  0  0  0  0  0
   46.8122   33.0071   37.4018 H   0  0  0  0  0  0  0  0  0  0  0  0
   44.8151   32.5139   38.8735 H   0  0  0  0  0  0  0  0  0  0  0  0
   44.9408   33.3441   41.2269 H   0  0  0  0  0  0  0  0  0  0  0  0
   44.5315   33.5459   47.4973 H   0  0  0  0  0  0  0  0  0  0  0  0
   43.9724   31.1035   48.7876 H   0  0  0  0  0  0  0  0  0  0  0  0
   44.9112   30.2988   47.8473 H   0  0  0  0  0  0  0  0  0  0  0  0
   46.1589   32.6487   49.9034 H   0  0  0  0  0  0  0  0  0  0  0  0
   49.6684   32.8159   49.2861 H   0  0  0  0  0  0  0  0  0  0  0  0
   51.7738   32.8655   50.6090 H   0  0  0  0  0  0  0  0  0  0  0  0
   51.0178   28.8457   51.8347 H   0  0  0  0  0  0  0  0  0  0  0  0
  1  6  1  0
  1 16  1  0
  2  1  2  0
  3  4  2  0
  3  2  1  0
  4  5  1  0
  5  6  2  0
  7  3  1  0
  8  7  2  0
  9  8  1  0
 10  9  1  0
 10 15  2  0
 11 10  1  0
 12 11  2  0
 12 13  1  0
 13 14  2  0
 14 15  1  0
 15  7  1  0
 16 17  1  0
 17 18  1  0
 17 19  1  0
 18 19  1  0
 20 19  1  0
 20 22  1  0
 21 20  2  0
 22 23  1  0
 23 24  2  0
 23 28  1  0
 24 25  1  0
 25 26  2  0
 27 26  1  0
 28 27  2  0
  2 29  1  0
  5 30  1  0
  8 31  1  0
  9 32  1  0
 11 33  1  0
 12 34  1  0
 13 35  1  0
 14 36  1  0
 17 37  1  1
 18 38  1  0
 18 39  1  0
 19 40  1  1
 24 41  1  0
 25 42  1  0
 27 43  1  0
M  ISO  8  29  14  30  14  31  14  32   9  33  14  34  14  35  14  36  14
M  ISO  7  37  13  38  13  39  13  40  13  41  14  42  14  43  14
M  END
>  <minimizedAffinity>  (1) 
-7.08725071

>  <minimizedRMSD>  (1) 
0.892861009

$$$$
