
     RDKit          3D

 50 54  0  0  1  0  0  0  0  0999 V2000
   45.6870   33.7910   45.3380 C   0  0  0  0  0  0  0  0  0  0  0  0
   46.4910   33.8230   44.2030 C   0  0  0  0  0  0  0  0  0  0  0  0
   46.3310   34.8620   43.2900 C   0  0  0  0  0  0  0  0  0  0  0  0
   45.3980   35.8060   43.5380 N   0  0  0  0  0  0  0  0  0  0  0  0
   44.6240   35.7590   44.6460 C   0  0  0  0  0  0  0  0  0  0  0  0
   44.7740   34.7550   45.5370 N   0  0  0  0  0  0  0  0  0  0  0  0
   47.1810   34.8790   42.1080 C   0  0  0  0  0  0  0  0  0  0  0  0
   48.4200   35.5030   41.9820 C   0  0  0  0  0  0  0  0  0  0  0  0
   48.9070   35.3060   40.7520 N   0  0  0  0  0  0  0  0  0  0  0  0
   47.9940   34.5580   40.0810 C   0  0  0  0  0  0  0  0  0  0  0  0
   48.0080   34.0770   38.7830 C   0  0  0  0  0  0  0  0  0  0  0  0
   46.9520   33.3310   38.3300 C   0  0  0  0  0  0  0  0  0  0  0  0
   45.8380   33.0200   39.1140 C   0  0  0  0  0  0  0  0  0  0  0  0
   45.8890   33.5320   40.3950 C   0  0  0  0  0  0  0  0  0  0  0  0
   46.8990   34.2710   40.8990 C   0  0  0  0  0  0  0  0  0  0  0  0
   45.7900   32.7990   46.2780 O   0  0  0  0  0  0  0  0  0  0  0  0
   45.4380   32.9020   47.6280 C   0  0  1  0  0  0  0  0  0  0  0  0
   44.9050   31.6710   48.2750 C   0  0  0  0  0  0  0  0  0  0  0  0
   46.3230   32.1660   48.5810 C   0  0  1  0  0  0  0  0  0  0  0  0
   47.4250   31.3290   48.0170 C   0  0  0  0  0  0  0  0  0  0  0  0
   47.7850   31.5120   46.8230 O   0  0  0  0  0  0  0  0  0  0  0  0
   48.1200   30.3460   48.6480 O   0  0  0  0  0  0  0  0  0  0  0  0
   51.7810   30.9020   50.6320 N   0  0  0  0  0  0  0  0  0  0  0  0
   50.7600   31.9220   50.7070 C   0  0  0  0  0  0  0  0  0  0  0  0
   49.8340   31.8470   49.5050 C   0  0  0  0  0  0  0  0  0  0  0  0
   49.0070   30.5790   49.6850 C   0  0  0  0  0  0  0  0  0  0  0  0
   49.9270   29.4240   49.9860 C   0  0  0  0  0  0  0  0  0  0  0  0
   51.3870   29.7780   49.8160 C   0  0  0  0  0  0  0  0  0  0  0  0
   47.2424   33.0386   44.0294 H   0  0  0  0  0  0  0  0  0  0  0  0
   43.8702   36.5406   44.8221 H   0  0  0  0  0  0  0  0  0  0  0  0
   48.9234   36.0734   42.7765 H   0  0  0  0  0  0  0  0  0  0  0  0
   49.8035   35.6551   40.3841 H   0  0  0  0  0  0  0  0  0  0  0  0
   48.8598   34.2919   38.1210 H   0  0  0  0  0  0  0  0  0  0  0  0
   46.9827   32.9576   37.2958 H   0  0  0  0  0  0  0  0  0  0  0  0
   44.9942   32.4197   38.7429 H   0  0  0  0  0  0  0  0  0  0  0  0
   45.0374   33.3204   41.0584 H   0  0  0  0  0  0  0  0  0  0  0  0
   45.0766   33.9379   47.5483 H   0  0  0  0  0  0  0  0  0  0  0  0
   44.1173   31.7458   49.0391 H   0  0  0  0  0  0  0  0  0  0  0  0
   44.4657   30.7276   47.9187 H   0  0  0  0  0  0  0  0  0  0  0  0
   46.8967   32.4533   49.4745 H   0  0  0  0  0  0  0  0  0  0  0  0
   52.6334   31.3180   50.2304 H   0  0  0  0  0  0  0  0  0  0  0  0
   50.1718   31.7768   51.6251 H   0  0  0  0  0  0  0  0  0  0  0  0
   51.2467   32.9084   50.7164 H   0  0  0  0  0  0  0  0  0  0  0  0
   50.4194   31.7919   48.5753 H   0  0  0  0  0  0  0  0  0  0  0  0
   49.1926   32.7380   49.4364 H   0  0  0  0  0  0  0  0  0  0  0  0
   48.3423   30.7127   50.5512 H   0  0  0  0  0  0  0  0  0  0  0  0
   49.7616   29.1046   51.0255 H   0  0  0  0  0  0  0  0  0  0  0  0
   49.6955   28.6211   49.2706 H   0  0  0  0  0  0  0  0  0  0  0  0
   51.9965   28.9066   50.0974 H   0  0  0  0  0  0  0  0  0  0  0  0
   51.5433   30.0573   48.7636 H   0  0  0  0  0  0  0  0  0  0  0  0
  1  6  1  0
  1 16  1  0
  2  1  2  0
  3  4  2  0
  3  2  1  0
  4  5  1  0
  5  6  2  0
  7  3  1  0
  8  7  2  0
  9  8  1  0
 10  9  1  0
 10 15  2  0
 11 10  1  0
 12 11  2  0
 12 13  1  0
 13 14  2  0
 14 15  1  0
 15  7  1  0
 16 17  1  0
 17 18  1  0
 17 19  1  0
 18 19  1  0
 20 19  1  0
 20 22  1  0
 21 20  2  0
 22 26  1  0
 23 24  1  0
 25 26  1  0
 25 24  1  0
 26 27  1  0
 28 27  1  0
 28 23  1  0
  2 29  1  0
  5 30  1  0
  8 31  1  0
  9 32  1  0
 11 33  1  0
 12 34  1  0
 13 35  1  0
 14 36  1  0
 17 37  1  1
 18 38  1  0
 18 39  1  0
 19 40  1  1
 23 41  1  0
 24 42  1  0
 24 43  1  0
 25 44  1  0
 25 45  1  0
 26 46  1  0
 27 47  1  0
 27 48  1  0
 28 49  1  0
 28 50  1  0
M  ISO  8  29  14  30  14  31  14  32   9  33  14  34  14  35  14  36  14
M  ISO  8  37  13  38  13  39  13  40  13  41   5  42  13  43  13  44  13
M  ISO  6  45  13  46  13  47  13  48  13  49  13  50  13
M  END
>  <minimizedAffinity>  (1) 
-7.07649851

>  <minimizedRMSD>  (1) 
1.12634146

$$$$
