
     RDKit          3D

 38 41  0  0  1  0  0  0  0  0999 V2000
   45.7600   33.8350   45.4710 C   0  0  0  0  0  0  0  0  0  0  0  0
   46.5560   33.8430   44.3270 C   0  0  0  0  0  0  0  0  0  0  0  0
   46.3340   34.8240   43.3600 C   0  0  0  0  0  0  0  0  0  0  0  0
   45.3550   35.7360   43.5640 N   0  0  0  0  0  0  0  0  0  0  0  0
   44.5910   35.7140   44.6810 C   0  0  0  0  0  0  0  0  0  0  0  0
   44.7960   34.7690   45.6270 N   0  0  0  0  0  0  0  0  0  0  0  0
   47.1740   34.8190   42.1710 C   0  0  0  0  0  0  0  0  0  0  0  0
   48.4430   35.4070   42.0490 C   0  0  0  0  0  0  0  0  0  0  0  0
   48.9150   35.2030   40.8150 N   0  0  0  0  0  0  0  0  0  0  0  0
   47.9700   34.4920   40.1420 C   0  0  0  0  0  0  0  0  0  0  0  0
   47.9590   34.0240   38.8410 C   0  0  0  0  0  0  0  0  0  0  0  0
   46.8770   33.3250   38.3940 C   0  0  0  0  0  0  0  0  0  0  0  0
   45.7560   33.0440   39.1740 C   0  0  0  0  0  0  0  0  0  0  0  0
   45.8310   33.5440   40.4730 C   0  0  0  0  0  0  0  0  0  0  0  0
   46.8710   34.2380   40.9650 C   0  0  0  0  0  0  0  0  0  0  0  0
   45.9190   32.8990   46.4660 O   0  0  0  0  0  0  0  0  0  0  0  0
   45.1580   32.8140   47.6360 C   0  0  1  0  0  0  0  0  0  0  0  0
   44.8260   31.4360   48.0950 C   0  0  0  0  0  0  0  0  0  0  0  0
   45.8690   32.2880   48.8390 C   0  0  1  0  0  0  0  0  0  0  0  0
   47.2910   31.8360   48.6680 C   0  0  0  0  0  0  0  0  0  0  0  0
   48.1510   32.6800   48.2990 O   0  0  0  0  0  0  0  0  0  0  0  0
   47.7780   30.5800   48.8650 O   0  0  0  0  0  0  0  0  0  0  0  0
   48.9900   30.3890   49.5070 C   0  0  0  0  0  0  0  0  0  0  0  0
   49.6510   29.3090   49.4030 O   0  0  0  0  0  0  0  0  0  0  0  0
   49.5310   31.3920   50.3030 O   0  0  0  0  0  0  0  0  0  0  0  0
   47.3452   33.0893   44.1889 H   0  0  0  0  0  0  0  0  0  0  0  0
   43.8010   36.4668   44.8200 H   0  0  0  0  0  0  0  0  0  0  0  0
   48.9686   35.9522   42.8468 H   0  0  0  0  0  0  0  0  0  0  0  0
   49.8212   35.5230   40.4444 H   0  0  0  0  0  0  0  0  0  0  0  0
   48.8132   34.2134   38.1743 H   0  0  0  0  0  0  0  0  0  0  0  0
   46.8892   32.9610   37.3560 H   0  0  0  0  0  0  0  0  0  0  0  0
   44.8904   32.4787   38.7982 H   0  0  0  0  0  0  0  0  0  0  0  0
   44.9785   33.3572   41.1426 H   0  0  0  0  0  0  0  0  0  0  0  0
   44.5655   33.7176   47.4302 H   0  0  0  0  0  0  0  0  0  0  0  0
   43.8503   31.2279   48.5583 H   0  0  0  0  0  0  0  0  0  0  0  0
   44.8154   30.4377   47.6331 H   0  0  0  0  0  0  0  0  0  0  0  0
   46.0205   32.6553   49.8647 H   0  0  0  0  0  0  0  0  0  0  0  0
   50.3979   31.2485   50.7590 H   0  0  0  0  0  0  0  0  0  0  0  0
  1  6  1  0
  1 16  1  0
  2  1  2  0
  3  4  2  0
  3  2  1  0
  4  5  1  0
  5  6  2  0
  7  3  1  0
  8  7  2  0
  9  8  1  0
 10  9  1  0
 10 15  2  0
 11 10  1  0
 12 11  2  0
 12 13  1  0
 13 14  2  0
 14 15  1  0
 15  7  1  0
 16 17  1  0
 17 18  1  0
 17 19  1  0
 18 19  1  0
 20 19  1  0
 20 22  1  0
 21 20  2  0
 22 23  1  0
 23 25  1  0
 24 23  2  0
  2 26  1  0
  5 27  1  0
  8 28  1  0
  9 29  1  0
 11 30  1  0
 12 31  1  0
 13 32  1  0
 14 33  1  0
 17 34  1  1
 18 35  1  0
 18 36  1  0
 19 37  1  1
 25 38  1  0
M  ISO  8  26  14  27  14  28  14  29   9  30  14  31  14  32  14  33  14
M  ISO  5  34  13  35  13  36  13  37  13  38   3
M  END
>  <minimizedAffinity>  (1) 
-6.73836565

>  <minimizedRMSD>  (1) 
0.444851756

$$$$
