
     RDKit          3D

 23 24  0  0  0  0  0  0  0  0999 V2000
   44.6080   36.1690   43.8540 C   0  0  0  0  0  0  0  0  0  0  0  0
   44.4600   36.0470   42.4600 C   0  0  0  0  0  0  0  0  0  0  0  0
   44.8900   34.8660   41.8630 C   0  0  0  0  0  0  0  0  0  0  0  0
   45.4270   33.9050   42.6730 N   0  0  0  0  0  0  0  0  0  0  0  0
   45.5540   34.0510   44.0000 C   0  0  0  0  0  0  0  0  0  0  0  0
   45.1510   35.1680   44.5930 N   0  0  0  0  0  0  0  0  0  0  0  0
   46.1170   33.0270   44.8020 N   0  0  0  0  0  0  0  0  0  0  0  0
   47.0630   32.1500   44.3710 C   0  0  0  0  0  0  0  0  0  0  0  0
   47.3830   31.3120   45.3640 N   0  0  0  0  0  0  0  0  0  0  0  0
   46.6440   31.6510   46.4270 C   0  0  0  0  0  0  0  0  0  0  0  0
   45.8820   32.6970   46.0580 N   0  0  0  0  0  0  0  0  0  0  0  0
   46.6540   31.0300   47.7100 N   0  0  0  0  0  0  0  0  0  0  0  0
   45.5640   31.3340   48.5840 C   0  0  0  0  0  0  0  0  0  0  0  0
   44.4530   31.8630   48.1920 N   0  0  0  0  0  0  0  0  0  0  0  0
   45.7080   31.0410   49.9620 N   0  0  0  0  0  0  0  0  0  0  0  0
   43.6730   32.0760   48.8420 H   0  0  0  0  0  0  0  0  0  0  0  0
   44.2779   37.0917   44.3537 H   0  0  0  0  0  0  0  0  0  0  0  0
   44.0191   36.8583   41.8621 H   0  0  0  0  0  0  0  0  0  0  0  0
   44.8009   34.7113   40.7776 H   0  0  0  0  0  0  0  0  0  0  0  0
   47.4983   32.1323   43.3610 H   0  0  0  0  0  0  0  0  0  0  0  0
   47.4111   30.3921   47.9942 H   0  0  0  0  0  0  0  0  0  0  0  0
   44.9397   31.2489   50.6157 H   0  0  0  0  0  0  0  0  0  0  0  0
   46.5810   30.6200   50.3105 H   0  0  0  0  0  0  0  0  0  0  0  0
  1  6  2  0
  2  1  1  0
  3  2  2  0
  3  4  1  0
  4  5  2  0
  5  6  1  0
  5  7  1  0
  7 11  1  0
  8  7  1  0
  8  9  2  0
  9 10  1  0
 10 12  1  0
 11 10  2  0
 12 13  1  0
 13 15  1  0
 14 13  2  0
 14 16  1  0
  1 17  1  0
  2 18  1  0
  3 19  1  0
  8 20  1  0
 12 21  1  0
 15 22  1  0
 15 23  1  0
M  ISO  4  17  14  18  14  19  14  20  14
M  END
>  <minimizedAffinity>  (1) 
-4.88873434

>  <minimizedRMSD>  (1) 
2.16147113

$$$$
