
     RDKit          3D

 17 18  0  0  0  0  0  0  0  0999 V2000
   44.4500   36.0730   44.7070 C   0  0  0  0  0  0  0  0  0  0  0  0
   44.9280   36.0160   43.3860 C   0  0  0  0  0  0  0  0  0  0  0  0
   45.7630   34.9650   43.0410 C   0  0  0  0  0  0  0  0  0  0  0  0
   46.0860   34.0270   44.0060 N   0  0  0  0  0  0  0  0  0  0  0  0
   45.6000   34.1300   45.2550 C   0  0  0  0  0  0  0  0  0  0  0  0
   44.7990   35.1310   45.5990 N   0  0  0  0  0  0  0  0  0  0  0  0
   45.9270   33.1710   46.2490 N   0  0  0  0  0  0  0  0  0  0  0  0
   47.0950   32.4670   46.2690 C   0  0  0  0  0  0  0  0  0  0  0  0
   47.1280   31.6380   47.3210 N   0  0  0  0  0  0  0  0  0  0  0  0
   45.9560   31.8200   47.9790 C   0  0  0  0  0  0  0  0  0  0  0  0
   45.2700   32.7450   47.3030 N   0  0  0  0  0  0  0  0  0  0  0  0
   45.1350   31.1820   49.4330 S   0  0  0  0  0  0  0  0  0  0  0  0
   43.7855   36.8947   45.0123 H   0  0  0  0  0  0  0  0  0  0  0  0
   44.6477   36.7825   42.6485 H   0  0  0  0  0  0  0  0  0  0  0  0
   46.1615   34.8780   42.0194 H   0  0  0  0  0  0  0  0  0  0  0  0
   47.8987   32.5661   45.5245 H   0  0  0  0  0  0  0  0  0  0  0  0
   45.7549   31.6637   50.5558 H   0  0  0  0  0  0  0  0  0  0  0  0
  1  6  2  0
  2  1  1  0
  3  2  2  0
  3  4  1  0
  4  5  2  0
  5  6  1  0
  5  7  1  0
  7  8  1  0
  7 11  1  0
  8  9  2  0
  9 10  1  0
 10 12  1  0
 11 10  2  0
  1 13  1  0
  2 14  1  0
  3 15  1  0
  8 16  1  0
 12 17  1  0
M  ISO  5  13  14  14  14  15  14  16  14  17  11
M  END
>  <minimizedAffinity>  (1) 
-4.38605118

>  <minimizedRMSD>  (1) 
0.650910139

$$$$
