
     RDKit          3D

 28 29  0  0  0  0  0  0  0  0999 V2000
   44.5080   36.0600   44.4620 C   0  0  0  0  0  0  0  0  0  0  0  0
   44.5340   36.0040   43.0590 C   0  0  0  0  0  0  0  0  0  0  0  0
   45.0890   34.8730   42.4800 C   0  0  0  0  0  0  0  0  0  0  0  0
   45.5850   33.8620   43.2700 N   0  0  0  0  0  0  0  0  0  0  0  0
   45.5350   33.9670   44.6170 C   0  0  0  0  0  0  0  0  0  0  0  0
   45.0040   35.0480   45.2190 N   0  0  0  0  0  0  0  0  0  0  0  0
   46.0360   32.9490   45.4630 N   0  0  0  0  0  0  0  0  0  0  0  0
   47.0760   32.1390   45.1200 C   0  0  0  0  0  0  0  0  0  0  0  0
   47.3140   31.2790   46.1310 N   0  0  0  0  0  0  0  0  0  0  0  0
   46.4210   31.5510   47.1050 C   0  0  0  0  0  0  0  0  0  0  0  0
   45.6670   32.5610   46.6700 N   0  0  0  0  0  0  0  0  0  0  0  0
   46.2570   30.8980   48.4180 C   0  0  0  0  0  0  0  0  0  0  0  0
   45.3610   31.6880   49.3550 C   0  0  0  0  0  0  0  0  0  0  0  0
   45.5710   29.5490   48.2150 C   0  0  0  0  0  0  0  0  0  0  0  0
   47.5580   30.6370   49.1000 C   0  0  0  0  0  0  0  0  0  0  0  0
   44.0768   36.9421   44.9579 H   0  0  0  0  0  0  0  0  0  0  0  0
   44.1310   36.8230   42.4452 H   0  0  0  0  0  0  0  0  0  0  0  0
   45.1329   34.7838   41.3845 H   0  0  0  0  0  0  0  0  0  0  0  0
   47.6318   32.1798   44.1716 H   0  0  0  0  0  0  0  0  0  0  0  0
   45.6247   31.4555   50.3973 H   0  0  0  0  0  0  0  0  0  0  0  0
   45.4985   32.7641   49.1733 H   0  0  0  0  0  0  0  0  0  0  0  0
   44.3106   31.4168   49.1733 H   0  0  0  0  0  0  0  0  0  0  0  0
   45.3438   29.1022   49.1941 H   0  0  0  0  0  0  0  0  0  0  0  0
   44.6369   29.6936   47.6523 H   0  0  0  0  0  0  0  0  0  0  0  0
   46.2381   28.8794   47.6523 H   0  0  0  0  0  0  0  0  0  0  0  0
   47.4129   30.6661   50.1900 H   0  0  0  0  0  0  0  0  0  0  0  0
   47.9335   29.6456   48.8064 H   0  0  0  0  0  0  0  0  0  0  0  0
   48.2868   31.4068   48.8064 H   0  0  0  0  0  0  0  0  0  0  0  0
  1  6  2  0
  2  1  1  0
  3  2  2  0
  3  4  1  0
  4  5  2  0
  5  6  1  0
  5  7  1  0
  7 11  1  0
  8  7  1  0
  8  9  2  0
  9 10  1  0
 10 12  1  0
 11 10  2  0
 12 15  1  0
 12 13  1  0
 14 12  1  0
  1 16  1  0
  2 17  1  0
  3 18  1  0
  8 19  1  0
 13 20  1  0
 13 21  1  0
 13 22  1  0
 14 23  1  0
 14 24  1  0
 14 25  1  0
 15 26  1  0
 15 27  1  0
 15 28  1  0
M  ISO  8  16  14  17  14  18  14  19  14  20   8  21   8  22   8  23   8
M  ISO  5  24   8  25   8  26   8  27   8  28   8
M  END
>  <minimizedAffinity>  (1) 
-4.65559673

>  <minimizedRMSD>  (1) 
1.67982006

$$$$
