
     RDKit          3D

 31 33  0  0  0  0  0  0  0  0999 V2000
   47.8580   34.8440   41.6280 C   0  0  0  0  0  0  0  0  0  0  0  0
   47.5850   34.3880   40.2490 C   0  0  0  0  0  0  0  0  0  0  0  0
   48.4220   34.6430   39.1850 C   0  0  0  0  0  0  0  0  0  0  0  0
   48.2320   34.2300   37.8820 C   0  0  0  0  0  0  0  0  0  0  0  0
   47.1080   33.5090   37.6630 N   0  0  0  0  0  0  0  0  0  0  0  0
   46.2550   33.2410   38.7060 C   0  0  0  0  0  0  0  0  0  0  0  0
   46.4580   33.6540   39.9750 N   0  0  0  0  0  0  0  0  0  0  0  0
   45.0580   32.4870   38.5290 N   0  0  0  0  0  0  0  0  0  0  0  0
   44.8440   31.2030   38.6750 N   0  0  0  0  0  0  0  0  0  0  0  0
   43.5710   30.8770   38.4130 C   0  0  0  0  0  0  0  0  0  0  0  0
   42.9670   32.0690   38.0810 C   0  0  0  0  0  0  0  0  0  0  0  0
   43.9150   33.0920   38.1560 C   0  0  0  0  0  0  0  0  0  0  0  0
   47.3220   33.8150   42.5940 C   0  0  0  0  0  0  0  0  0  0  0  0
   44.6890   36.0130   44.2050 C   0  0  0  0  0  0  0  0  0  0  0  0
   45.5990   35.5110   43.2700 C   0  0  0  0  0  0  0  0  0  0  0  0
   46.3490   34.3870   43.5530 C   0  0  0  0  0  0  0  0  0  0  0  0
   46.1620   33.8010   44.7660 N   0  0  0  0  0  0  0  0  0  0  0  0
   45.2740   34.2950   45.6700 C   0  0  0  0  0  0  0  0  0  0  0  0
   44.5580   35.3900   45.3670 N   0  0  0  0  0  0  0  0  0  0  0  0
   47.3618   35.8099   41.8033 H   0  0  0  0  0  0  0  0  0  0  0  0
   48.9413   34.9665   41.7743 H   0  0  0  0  0  0  0  0  0  0  0  0
   49.3276   35.2316   39.3938 H   0  0  0  0  0  0  0  0  0  0  0  0
   48.9438   34.4699   37.0784 H   0  0  0  0  0  0  0  0  0  0  0  0
   43.1107   29.8788   38.4540 H   0  0  0  0  0  0  0  0  0  0  0  0
   41.9104   32.1950   37.8022 H   0  0  0  0  0  0  0  0  0  0  0  0
   43.7606   34.1622   37.9537 H   0  0  0  0  0  0  0  0  0  0  0  0
   46.8250   33.0186   42.0206 H   0  0  0  0  0  0  0  0  0  0  0  0
   48.1726   33.4270   43.1736 H   0  0  0  0  0  0  0  0  0  0  0  0
   44.0923   36.9093   43.9800 H   0  0  0  0  0  0  0  0  0  0  0  0
   45.7185   36.0161   42.3002 H   0  0  0  0  0  0  0  0  0  0  0  0
   45.1430   33.8004   46.6438 H   0  0  0  0  0  0  0  0  0  0  0  0
  1 13  1  0
  2  1  1  0
  3  2  2  0
  4  3  1  0
  5  4  2  0
  5  6  1  0
  6  7  2  0
  7  2  1  0
  8  9  1  0
  8  6  1  0
 10  9  2  0
 11 12  2  0
 11 10  1  0
 12  8  1  0
 13 16  1  0
 14 19  2  0
 15 16  2  0
 15 14  1  0
 16 17  1  0
 17 18  2  0
 19 18  1  0
  1 20  1  0
  1 21  1  0
  3 22  1  0
  4 23  1  0
 10 24  1  0
 11 25  1  0
 12 26  1  0
 13 27  1  0
 13 28  1  0
 14 29  1  0
 15 30  1  0
 18 31  1  0
M  ISO  8  20   8  21   8  22  14  23  14  24  14  25  14  26  14  27   8
M  ISO  4  28   8  29  14  30  14  31  14
M  END
>  <minimizedAffinity>  (1) 
-4.83645678

>  <minimizedRMSD>  (1) 
0.143686593

$$$$
