
     RDKit          3D

 23 25  0  0  0  0  0  0  0  0999 V2000
   44.5750   36.1050   44.3470 C   0  0  0  0  0  0  0  0  0  0  0  0
   44.7000   35.9500   42.9600 C   0  0  0  0  0  0  0  0  0  0  0  0
   45.3020   34.7830   42.4600 C   0  0  0  0  0  0  0  0  0  0  0  0
   45.7410   33.8460   43.3640 N   0  0  0  0  0  0  0  0  0  0  0  0
   45.5930   34.0500   44.6940 C   0  0  0  0  0  0  0  0  0  0  0  0
   45.0260   35.1480   45.1680 N   0  0  0  0  0  0  0  0  0  0  0  0
   46.0510   33.0620   45.6190 N   0  0  0  0  0  0  0  0  0  0  0  0
   47.1060   32.2320   45.3990 C   0  0  0  0  0  0  0  0  0  0  0  0
   47.2710   31.4270   46.4530 N   0  0  0  0  0  0  0  0  0  0  0  0
   46.3150   31.7520   47.3440 C   0  0  0  0  0  0  0  0  0  0  0  0
   45.5680   32.7580   46.8260 N   0  0  0  0  0  0  0  0  0  0  0  0
   46.2240   31.0350   48.6360 C   0  0  0  0  0  0  0  0  0  0  0  0
   45.1230   30.0950   48.8960 C   0  0  0  0  0  0  0  0  0  0  0  0
   45.1050   31.4100   49.5930 C   0  0  0  0  0  0  0  0  0  0  0  0
   44.1075   37.0108   44.7605 H   0  0  0  0  0  0  0  0  0  0  0  0
   44.3333   36.7283   42.2746 H   0  0  0  0  0  0  0  0  0  0  0  0
   45.4183   34.6244   41.3777 H   0  0  0  0  0  0  0  0  0  0  0  0
   47.7284   32.2245   44.4920 H   0  0  0  0  0  0  0  0  0  0  0  0
   47.3205   30.9641   48.6869 H   0  0  0  0  0  0  0  0  0  0  0  0
   44.3863   29.8867   48.1062 H   0  0  0  0  0  0  0  0  0  0  0  0
   45.0707   29.0485   49.2308 H   0  0  0  0  0  0  0  0  0  0  0  0
   45.2967   31.4663   50.6747 H   0  0  0  0  0  0  0  0  0  0  0  0
   44.3924   32.2433   49.6816 H   0  0  0  0  0  0  0  0  0  0  0  0
  1  6  2  0
  2  1  1  0
  3  2  2  0
  3  4  1  0
  4  5  2  0
  5  6  1  0
  5  7  1  0
  7 11  1  0
  8  7  1  0
  8  9  2  0
  9 10  1  0
 10 12  1  0
 11 10  2  0
 12 13  1  0
 12 14  1  0
 13 14  1  0
  1 15  1  0
  2 16  1  0
  3 17  1  0
  8 18  1  0
 12 19  1  0
 13 20  1  0
 13 21  1  0
 14 22  1  0
 14 23  1  0
M  ISO  8  15  14  16  14  17  14  18  14  19  13  20  13  21  13  22  13
M  ISO  1  23  13
M  END
>  <minimizedAffinity>  (1) 
-4.67154884

>  <minimizedRMSD>  (1) 
1.30298829

$$$$
