
     RDKit          3D

 33 35  0  0  1  0  0  0  0  0999 V2000
   44.7720   34.9230   45.5670 C   0  0  0  0  0  0  0  0  0  0  0  0
   44.4440   35.9760   44.7190 C   0  0  0  0  0  0  0  0  0  0  0  0
   45.0960   36.0710   43.4650 C   0  0  0  0  0  0  0  0  0  0  0  0
   45.9970   35.1280   43.1740 N   0  0  0  0  0  0  0  0  0  0  0  0
   46.3150   34.0970   44.0100 C   0  0  0  0  0  0  0  0  0  0  0  0
   45.6940   34.0210   45.1860 N   0  0  0  0  0  0  0  0  0  0  0  0
   47.2730   33.1030   43.6940 N   0  0  0  0  0  0  0  0  0  0  0  0
   48.1500   33.4210   42.7000 C   0  0  0  0  0  0  0  0  0  0  0  0
   48.9760   32.3090   42.5810 C   0  0  0  0  0  0  0  0  0  0  0  0
   48.5940   31.3650   43.4760 N   0  0  0  0  0  0  0  0  0  0  0  0
   47.5510   31.8670   44.1500 C   0  0  0  0  0  0  0  0  0  0  0  0
   46.7920   31.1950   45.2190 C   0  0  2  0  0  0  0  0  0  0  0  0
   47.3800   31.7120   46.5470 C   0  0  0  0  0  0  0  0  0  0  0  0
   47.0430   29.7090   45.1770 C   0  0  0  0  0  0  0  0  0  0  0  0
   45.9150   29.0500   45.8550 N   0  0  0  0  0  0  0  0  0  0  0  0
   45.9950   28.3150   46.9780 C   0  0  0  0  0  0  0  0  0  0  0  0
   44.7360   27.8510   47.3270 C   0  0  0  0  0  0  0  0  0  0  0  0
   43.8900   28.3310   46.3770 N   0  0  0  0  0  0  0  0  0  0  0  0
   44.6150   29.0480   45.5010 C   0  0  0  0  0  0  0  0  0  0  0  0
   44.2789   34.8285   46.5458 H   0  0  0  0  0  0  0  0  0  0  0  0
   43.6919   36.7214   45.0169 H   0  0  0  0  0  0  0  0  0  0  0  0
   44.8704   36.8857   42.7612 H   0  0  0  0  0  0  0  0  0  0  0  0
   48.1945   34.3539   42.1188 H   0  0  0  0  0  0  0  0  0  0  0  0
   49.8102   32.2104   41.8708 H   0  0  0  0  0  0  0  0  0  0  0  0
   45.7153   31.3916   45.1097 H   0  0  0  0  0  0  0  0  0  0  0  0
   46.8489   31.2451   47.3896 H   0  0  0  0  0  0  0  0  0  0  0  0
   48.4484   31.4554   46.5995 H   0  0  0  0  0  0  0  0  0  0  0  0
   47.2623   32.8044   46.5995 H   0  0  0  0  0  0  0  0  0  0  0  0
   47.1047   29.3680   44.1330 H   0  0  0  0  0  0  0  0  0  0  0  0
   47.9920   29.4623   45.6755 H   0  0  0  0  0  0  0  0  0  0  0  0
   46.9208   28.1122   47.5363 H   0  0  0  0  0  0  0  0  0  0  0  0
   44.4756   27.2245   48.1928 H   0  0  0  0  0  0  0  0  0  0  0  0
   44.2045   29.5611   44.6189 H   0  0  0  0  0  0  0  0  0  0  0  0
  2  1  2  0
  3  2  1  0
  4  3  2  0
  4  5  1  0
  5  6  2  0
  6  1  1  0
  7  5  1  0
  7 11  1  0
  8  7  1  0
  9  8  2  0
  9 10  1  0
 10 11  2  0
 11 12  1  0
 12 13  1  0
 14 12  1  0
 14 15  1  0
 15 16  1  0
 16 17  2  0
 18 17  1  0
 19 15  1  0
 19 18  2  0
  1 20  1  0
  2 21  1  0
  3 22  1  0
  8 23  1  0
  9 24  1  0
 12 25  1  1
 13 26  1  0
 13 27  1  0
 13 28  1  0
 14 29  1  0
 14 30  1  0
 16 31  1  0
 17 32  1  0
 19 33  1  0
M  ISO  8  20  14  21  14  22  14  23  14  24  14  25   8  26   8  27   8
M  ISO  6  28   8  29   8  30   8  31  14  32  14  33  14
M  END
>  <minimizedAffinity>  (1) 
-4.06789732

>  <minimizedRMSD>  (1) 
3.20642066

$$$$
