
     RDKit          3D

 31 33  0  0  0  0  0  0  0  0999 V2000
   44.5940   35.6670   45.0920 C   0  0  0  0  0  0  0  0  0  0  0  0
   44.8720   36.3930   43.9220 C   0  0  0  0  0  0  0  0  0  0  0  0
   45.6570   35.7730   42.9610 C   0  0  0  0  0  0  0  0  0  0  0  0
   46.1110   34.4940   43.2110 N   0  0  0  0  0  0  0  0  0  0  0  0
   45.8160   33.8410   44.3480 C   0  0  0  0  0  0  0  0  0  0  0  0
   45.0590   34.4090   45.3030 N   0  0  0  0  0  0  0  0  0  0  0  0
   46.2900   32.5310   44.5890 N   0  0  0  0  0  0  0  0  0  0  0  0
   47.4540   32.0400   44.0810 C   0  0  0  0  0  0  0  0  0  0  0  0
   47.6310   30.7760   44.4820 N   0  0  0  0  0  0  0  0  0  0  0  0
   46.5760   30.4590   45.2490 C   0  0  0  0  0  0  0  0  0  0  0  0
   45.7680   31.5380   45.3030 N   0  0  0  0  0  0  0  0  0  0  0  0
   46.3420   29.2120   45.8900 N   0  0  0  0  0  0  0  0  0  0  0  0
   45.3750   28.2790   45.4020 C   0  0  0  0  0  0  0  0  0  0  0  0
   44.4440   27.7800   46.4850 C   0  0  0  0  0  0  0  0  0  0  0  0
   45.1490   27.6000   47.8040 C   0  0  0  0  0  0  0  0  0  0  0  0
   46.6470   27.5260   47.6100 C   0  0  0  0  0  0  0  0  0  0  0  0
   47.0940   28.8520   47.0770 C   0  0  0  0  0  0  0  0  0  0  0  0
   43.9739   36.1372   45.8694 H   0  0  0  0  0  0  0  0  0  0  0  0
   44.4832   37.4113   43.7740 H   0  0  0  0  0  0  0  0  0  0  0  0
   45.9113   36.2881   42.0229 H   0  0  0  0  0  0  0  0  0  0  0  0
   48.1468   32.6002   43.4359 H   0  0  0  0  0  0  0  0  0  0  0  0
   44.7752   28.7702   44.6216 H   0  0  0  0  0  0  0  0  0  0  0  0
   45.9223   27.4095   45.0089 H   0  0  0  0  0  0  0  0  0  0  0  0
   43.6298   28.5081   46.6152 H   0  0  0  0  0  0  0  0  0  0  0  0
   44.0579   26.7987   46.1722 H   0  0  0  0  0  0  0  0  0  0  0  0
   44.9123   28.4522   48.4580 H   0  0  0  0  0  0  0  0  0  0  0  0
   44.8069   26.6591   48.2596 H   0  0  0  0  0  0  0  0  0  0  0  0
   47.1412   27.3208   48.5711 H   0  0  0  0  0  0  0  0  0  0  0  0
   46.9094   26.7176   46.9117 H   0  0  0  0  0  0  0  0  0  0  0  0
   48.1629   28.7966   46.8233 H   0  0  0  0  0  0  0  0  0  0  0  0
   46.9218   29.6173   47.8481 H   0  0  0  0  0  0  0  0  0  0  0  0
  1  6  2  0
  2  1  1  0
  3  4  1  0
  3  2  2  0
  4  5  2  0
  5  7  1  0
  5  6  1  0
  7 11  1  0
  8  9  2  0
  8  7  1  0
  9 10  1  0
 10 11  2  0
 10 12  1  0
 12 17  1  0
 13 12  1  0
 13 14  1  0
 14 15  1  0
 16 15  1  0
 17 16  1  0
  1 18  1  0
  2 19  1  0
  3 20  1  0
  8 21  1  0
 13 22  1  0
 13 23  1  0
 14 24  1  0
 14 25  1  0
 15 26  1  0
 15 27  1  0
 16 28  1  0
 16 29  1  0
 17 30  1  0
 17 31  1  0
M  ISO  8  18  14  19  14  20  14  21  14  22  13  23  13  24  13  25  13
M  ISO  6  26  13  27  13  28  13  29  13  30  13  31  13
M  END
>  <minimizedAffinity>  (1) 
-4.22399569

>  <minimizedRMSD>  (1) 
3.76907611

$$$$
