
     RDKit          3D

 21 23  0  0  0  0  0  0  0  0999 V2000
   44.5670   35.8570   44.8860 C   0  0  0  0  0  0  0  0  0  0  0  0
   44.9380   36.3970   43.6430 C   0  0  0  0  0  0  0  0  0  0  0  0
   45.7540   35.6420   42.8130 C   0  0  0  0  0  0  0  0  0  0  0  0
   46.1510   34.4060   43.2630 N   0  0  0  0  0  0  0  0  0  0  0  0
   45.7790   33.9210   44.4560 C   0  0  0  0  0  0  0  0  0  0  0  0
   44.9950   34.6320   45.2660 N   0  0  0  0  0  0  0  0  0  0  0  0
   46.2060   32.6410   44.8910 N   0  0  0  0  0  0  0  0  0  0  0  0
   47.3760   32.0570   44.5120 C   0  0  0  0  0  0  0  0  0  0  0  0
   47.4890   30.8520   45.0930 N   0  0  0  0  0  0  0  0  0  0  0  0
   46.3920   30.6760   45.8390 C   0  0  0  0  0  0  0  0  0  0  0  0
   45.6370   31.7660   45.7000 N   0  0  0  0  0  0  0  0  0  0  0  0
   46.0980   29.4970   46.6470 C   0  0  0  0  0  0  0  0  0  0  0  0
   46.9030   28.4500   46.8920 N   0  0  0  0  0  0  0  0  0  0  0  0
   46.2750   27.6090   47.6540 O   0  0  0  0  0  0  0  0  0  0  0  0
   45.0660   28.0400   47.9440 C   0  0  0  0  0  0  0  0  0  0  0  0
   44.9550   29.2400   47.3030 N   0  0  0  0  0  0  0  0  0  0  0  0
   43.9197   36.4386   45.5589 H   0  0  0  0  0  0  0  0  0  0  0  0
   44.5899   37.3941   43.3355 H   0  0  0  0  0  0  0  0  0  0  0  0
   46.0718   36.0194   41.8298 H   0  0  0  0  0  0  0  0  0  0  0  0
   48.1164   32.5046   43.8327 H   0  0  0  0  0  0  0  0  0  0  0  0
   44.3092   27.5415   48.5675 H   0  0  0  0  0  0  0  0  0  0  0  0
  1  6  2  0
  2  1  1  0
  3  4  1  0
  3  2  2  0
  4  5  2  0
  5  7  1  0
  5  6  1  0
  7 11  1  0
  8  7  1  0
  8  9  2  0
  9 10  1  0
 10 12  1  0
 11 10  2  0
 12 13  2  0
 12 16  1  0
 13 14  1  0
 14 15  1  0
 16 15  2  0
  1 17  1  0
  2 18  1  0
  3 19  1  0
  8 20  1  0
 15 21  1  0
M  ISO  5  17  14  18  14  19  14  20  14  21  14
M  END
>  <minimizedAffinity>  (1) 
-4.01241493

>  <minimizedRMSD>  (1) 
3.03350186

$$$$
