
     RDKit          3D

 31 34  0  0  0  0  0  0  0  0999 V2000
   44.6460   35.3100   45.4960 C   0  0  0  0  0  0  0  0  0  0  0  0
   44.6650   36.1630   44.3850 C   0  0  0  0  0  0  0  0  0  0  0  0
   45.3690   35.7660   43.2460 C   0  0  0  0  0  0  0  0  0  0  0  0
   46.0090   34.5480   43.2850 N   0  0  0  0  0  0  0  0  0  0  0  0
   45.9610   33.7610   44.3800 C   0  0  0  0  0  0  0  0  0  0  0  0
   45.2970   34.1310   45.4610 N   0  0  0  0  0  0  0  0  0  0  0  0
   46.6360   32.5050   44.3790 N   0  0  0  0  0  0  0  0  0  0  0  0
   47.7690   32.2430   43.6840 C   0  0  0  0  0  0  0  0  0  0  0  0
   48.1370   30.9700   43.8990 N   0  0  0  0  0  0  0  0  0  0  0  0
   47.2310   30.4330   44.7310 C   0  0  0  0  0  0  0  0  0  0  0  0
   46.3210   31.3800   45.0160 N   0  0  0  0  0  0  0  0  0  0  0  0
   47.2560   29.0620   45.2150 C   0  0  0  0  0  0  0  0  0  0  0  0
   47.7640   27.9790   44.6080 N   0  0  0  0  0  0  0  0  0  0  0  0
   47.5800   26.9510   45.3690 O   0  0  0  0  0  0  0  0  0  0  0  0
   46.9570   27.2940   46.4890 C   0  0  0  0  0  0  0  0  0  0  0  0
   46.7510   28.6300   46.3950 N   0  0  0  0  0  0  0  0  0  0  0  0
   46.5430   26.5310   47.6130 N   0  0  0  0  0  0  0  0  0  0  0  0
   47.3640   25.6230   48.1640 C   0  0  0  0  0  0  0  0  0  0  0  0
   47.0690   24.8290   49.2520 C   0  0  0  0  0  0  0  0  0  0  0  0
   45.8070   25.0400   49.7680 C   0  0  0  0  0  0  0  0  0  0  0  0
   45.4060   24.3850   50.7580 O   0  0  0  0  0  0  0  0  0  0  0  0
   44.9340   25.9360   49.2620 N   0  0  0  0  0  0  0  0  0  0  0  0
   45.3350   26.6560   48.1940 C   0  0  0  0  0  0  0  0  0  0  0  0
   44.5110   27.5050   47.7130 O   0  0  0  0  0  0  0  0  0  0  0  0
   44.0964   35.6045   46.4022 H   0  0  0  0  0  0  0  0  0  0  0  0
   44.1356   37.1269   44.4092 H   0  0  0  0  0  0  0  0  0  0  0  0
   45.4105   36.4034   42.3505 H   0  0  0  0  0  0  0  0  0  0  0  0
   48.3034   32.9606   43.0441 H   0  0  0  0  0  0  0  0  0  0  0  0
   48.3578   25.5020   47.7082 H   0  0  0  0  0  0  0  0  0  0  0  0
   47.7743   24.0955   49.6697 H   0  0  0  0  0  0  0  0  0  0  0  0
   43.9991   26.0650   49.6746 H   0  0  0  0  0  0  0  0  0  0  0  0
  2  1  2  0
  3  4  2  0
  3  2  1  0
  4  5  1  0
  5  6  2  0
  6  1  1  0
  7  5  1  0
  7 11  1  0
  8  9  2  0
  8  7  1  0
  9 10  1  0
 10 11  2  0
 10 12  1  0
 12 16  1  0
 13 12  2  0
 13 14  1  0
 14 15  1  0
 15 17  1  0
 16 15  2  0
 17 18  1  0
 17 23  1  0
 18 19  2  0
 19 20  1  0
 20 21  2  0
 22 20  1  0
 23 22  1  0
 24 23  2  0
  1 25  1  0
  2 26  1  0
  3 27  1  0
  8 28  1  0
 18 29  1  0
 19 30  1  0
 22 31  1  0
M  ISO  7  25  14  26  14  27  14  28  14  29  14  30  14  31   9
M  END
>  <minimizedAffinity>  (1) 
-5.3330946

>  <minimizedRMSD>  (1) 
2.40514565

$$$$
