
     RDKit          3D

 32 35  0  0  0  0  0  0  0  0999 V2000
   44.6130   35.3570   45.4680 C   0  0  0  0  0  0  0  0  0  0  0  0
   44.7270   36.2160   44.3730 C   0  0  0  0  0  0  0  0  0  0  0  0
   45.4490   35.7720   43.2840 C   0  0  0  0  0  0  0  0  0  0  0  0
   46.0140   34.5220   43.3270 N   0  0  0  0  0  0  0  0  0  0  0  0
   45.8730   33.7330   44.4120 C   0  0  0  0  0  0  0  0  0  0  0  0
   45.1800   34.1240   45.4930 N   0  0  0  0  0  0  0  0  0  0  0  0
   46.4680   32.4400   44.4350 N   0  0  0  0  0  0  0  0  0  0  0  0
   47.5880   32.0900   43.7620 C   0  0  0  0  0  0  0  0  0  0  0  0
   47.8840   30.8040   43.9930 N   0  0  0  0  0  0  0  0  0  0  0  0
   46.9490   30.3370   44.8150 C   0  0  0  0  0  0  0  0  0  0  0  0
   46.0940   31.3390   45.0770 N   0  0  0  0  0  0  0  0  0  0  0  0
   46.8740   28.9720   45.3370 C   0  0  0  0  0  0  0  0  0  0  0  0
   47.3090   27.8460   44.7580 N   0  0  0  0  0  0  0  0  0  0  0  0
   47.0610   26.8460   45.5320 O   0  0  0  0  0  0  0  0  0  0  0  0
   46.4630   27.2430   46.6380 C   0  0  0  0  0  0  0  0  0  0  0  0
   46.3430   28.5890   46.5180 N   0  0  0  0  0  0  0  0  0  0  0  0
   45.9800   26.5790   47.7990 N   0  0  0  0  0  0  0  0  0  0  0  0
   44.7620   26.8720   48.3250 C   0  0  0  0  0  0  0  0  0  0  0  0
   44.2960   26.2130   49.4690 C   0  0  0  0  0  0  0  0  0  0  0  0
   45.1350   25.2640   50.0180 C   0  0  0  0  0  0  0  0  0  0  0  0
   44.5690   24.6450   51.1850 N   0  0  0  0  0  0  0  0  0  0  0  0
   46.3380   24.9910   49.4790 N   0  0  0  0  0  0  0  0  0  0  0  0
   46.7530   25.6390   48.3860 C   0  0  0  0  0  0  0  0  0  0  0  0
   47.8920   25.3090   47.9640 O   0  0  0  0  0  0  0  0  0  0  0  0
   44.0408   35.6930   46.3454 H   0  0  0  0  0  0  0  0  0  0  0  0
   44.2581   37.2110   44.3783 H   0  0  0  0  0  0  0  0  0  0  0  0
   45.5697   36.4096   42.3958 H   0  0  0  0  0  0  0  0  0  0  0  0
   48.1716   32.7642   43.1179 H   0  0  0  0  0  0  0  0  0  0  0  0
   44.1337   27.6371   47.8457 H   0  0  0  0  0  0  0  0  0  0  0  0
   43.3129   26.4395   49.9074 H   0  0  0  0  0  0  0  0  0  0  0  0
   45.0963   23.9181   51.6894 H   0  0  0  0  0  0  0  0  0  0  0  0
   43.6360   24.9283   51.5170 H   0  0  0  0  0  0  0  0  0  0  0  0
  1  6  2  0
  2  1  1  0
  3  4  1  0
  3  2  2  0
  4  5  2  0
  5  7  1  0
  5  6  1  0
  7 11  1  0
  8  9  2  0
  8  7  1  0
  9 10  1  0
 10 11  2  0
 10 12  1  0
 12 16  1  0
 13 12  2  0
 13 14  1  0
 14 15  1  0
 15 17  1  0
 16 15  2  0
 17 18  1  0
 17 23  1  0
 18 19  2  0
 19 20  1  0
 20 21  1  0
 22 20  2  0
 23 22  1  0
 24 23  2  0
  1 25  1  0
  2 26  1  0
  3 27  1  0
  8 28  1  0
 18 29  1  0
 19 30  1  0
 21 31  1  0
 21 32  1  0
M  ISO  6  25  14  26  14  27  14  28  14  29  14  30  14
M  END
>  <minimizedAffinity>  (1) 
-5.74686956

>  <minimizedRMSD>  (1) 
2.1678586

$$$$
