
     RDKit          3D

 37 41  0  0  0  0  0  0  0  0999 V2000
   44.5310   35.7570   45.0530 C   0  0  0  0  0  0  0  0  0  0  0  0
   44.7540   36.6100   43.9700 C   0  0  0  0  0  0  0  0  0  0  0  0
   45.5870   36.1930   42.9270 C   0  0  0  0  0  0  0  0  0  0  0  0
   46.1440   34.9410   43.0380 N   0  0  0  0  0  0  0  0  0  0  0  0
   45.9080   34.1400   44.0980 C   0  0  0  0  0  0  0  0  0  0  0  0
   45.1180   34.5440   45.0800 N   0  0  0  0  0  0  0  0  0  0  0  0
   46.4950   32.8560   44.1860 N   0  0  0  0  0  0  0  0  0  0  0  0
   47.6880   32.5110   43.6260 C   0  0  0  0  0  0  0  0  0  0  0  0
   47.9640   31.2220   43.8910 N   0  0  0  0  0  0  0  0  0  0  0  0
   46.9360   30.7550   44.6200 C   0  0  0  0  0  0  0  0  0  0  0  0
   46.0630   31.7510   44.7870 N   0  0  0  0  0  0  0  0  0  0  0  0
   46.8260   29.3920   45.1250 C   0  0  0  0  0  0  0  0  0  0  0  0
   47.6280   28.3490   44.9210 N   0  0  0  0  0  0  0  0  0  0  0  0
   47.1640   27.3320   45.5520 O   0  0  0  0  0  0  0  0  0  0  0  0
   46.0670   27.6000   46.1960 C   0  0  0  0  0  0  0  0  0  0  0  0
   45.8730   28.9100   45.9110 N   0  0  0  0  0  0  0  0  0  0  0  0
   45.1020   26.9350   47.0490 C   0  0  0  0  0  0  0  0  0  0  0  0
   45.3560   26.5540   48.3700 C   0  0  0  0  0  0  0  0  0  0  0  0
   44.4130   25.9260   49.1450 C   0  0  0  0  0  0  0  0  0  0  0  0
   43.1590   25.6350   48.6590 C   0  0  0  0  0  0  0  0  0  0  0  0
   42.8580   25.9830   47.3770 C   0  0  0  0  0  0  0  0  0  0  0  0
   41.6100   25.6820   46.9250 C   0  0  0  0  0  0  0  0  0  0  0  0
   41.2340   25.9980   45.6560 C   0  0  0  0  0  0  0  0  0  0  0  0
   42.1600   26.6370   44.8380 C   0  0  0  0  0  0  0  0  0  0  0  0
   43.4140   26.9220   45.3410 C   0  0  0  0  0  0  0  0  0  0  0  0
   43.8310   26.6170   46.6190 C   0  0  0  0  0  0  0  0  0  0  0  0
   43.8791   36.0737   45.8805 H   0  0  0  0  0  0  0  0  0  0  0  0
   44.2785   37.6014   43.9376 H   0  0  0  0  0  0  0  0  0  0  0  0
   45.7873   36.8369   42.0580 H   0  0  0  0  0  0  0  0  0  0  0  0
   48.3307   33.1872   43.0431 H   0  0  0  0  0  0  0  0  0  0  0  0
   46.3450   26.7646   48.8030 H   0  0  0  0  0  0  0  0  0  0  0  0
   44.6658   25.6488   50.1791 H   0  0  0  0  0  0  0  0  0  0  0  0
   42.4145   25.1314   49.2931 H   0  0  0  0  0  0  0  0  0  0  0  0
   40.8969   25.1773   47.5934 H   0  0  0  0  0  0  0  0  0  0  0  0
   40.2264   25.7550   45.2875 H   0  0  0  0  0  0  0  0  0  0  0  0
   41.8972   26.9112   43.8057 H   0  0  0  0  0  0  0  0  0  0  0  0
   44.1297   27.4274   44.6759 H   0  0  0  0  0  0  0  0  0  0  0  0
  1  6  2  0
  2  1  1  0
  3  4  1  0
  3  2  2  0
  4  5  2  0
  5  7  1  0
  5  6  1  0
  7 11  1  0
  8  9  2  0
  8  7  1  0
  9 10  1  0
 10 11  2  0
 10 12  1  0
 12 16  1  0
 13 12  2  0
 13 14  1  0
 14 15  1  0
 15 17  1  0
 16 15  2  0
 17 18  2  0
 18 19  1  0
 20 19  2  0
 21 20  1  0
 22 21  2  0
 23 22  1  0
 24 25  1  0
 24 23  2  0
 25 26  2  0
 26 17  1  0
 26 21  1  0
  1 27  1  0
  2 28  1  0
  3 29  1  0
  8 30  1  0
 18 31  1  0
 19 32  1  0
 20 33  1  0
 22 34  1  0
 23 35  1  0
 24 36  1  0
 25 37  1  0
M  ISO  8  27  14  28  14  29  14  30  14  31  14  32  14  33  14  34  14
M  ISO  3  35  14  36  14  37  14
M  END
>  <minimizedAffinity>  (1) 
-5.35934544

>  <minimizedRMSD>  (1) 
1.63197625

$$$$
