
     RDKit          3D

 36 39  0  0  0  0  0  0  0  0999 V2000
   44.5960   35.3650   45.5940 C   0  0  0  0  0  0  0  0  0  0  0  0
   44.4980   35.9640   44.3170 C   0  0  0  0  0  0  0  0  0  0  0  0
   45.0800   35.3130   43.2350 C   0  0  0  0  0  0  0  0  0  0  0  0
   45.7090   34.1290   43.5000 N   0  0  0  0  0  0  0  0  0  0  0  0
   45.7940   33.5790   44.7100 C   0  0  0  0  0  0  0  0  0  0  0  0
   45.2430   34.1920   45.7440 N   0  0  0  0  0  0  0  0  0  0  0  0
   46.4600   32.3460   44.9260 N   0  0  0  0  0  0  0  0  0  0  0  0
   47.4760   31.8880   44.1570 C   0  0  0  0  0  0  0  0  0  0  0  0
   47.8930   30.7050   44.6120 N   0  0  0  0  0  0  0  0  0  0  0  0
   47.1320   30.4110   45.6800 C   0  0  0  0  0  0  0  0  0  0  0  0
   46.2720   31.4200   45.8510 N   0  0  0  0  0  0  0  0  0  0  0  0
   47.2470   29.2000   46.4900 C   0  0  0  0  0  0  0  0  0  0  0  0
   48.2600   28.8540   47.3030 N   0  0  0  0  0  0  0  0  0  0  0  0
   47.9890   27.7150   47.8410 O   0  0  0  0  0  0  0  0  0  0  0  0
   46.8300   27.2620   47.4310 C   0  0  0  0  0  0  0  0  0  0  0  0
   46.3540   28.2140   46.5660 N   0  0  0  0  0  0  0  0  0  0  0  0
   46.0440   26.1030   47.6770 N   0  0  0  0  0  0  0  0  0  0  0  0
   45.0420   25.9490   48.7150 C   0  0  0  0  0  0  0  0  0  0  0  0
   45.6350   24.9290   49.6910 C   0  0  0  0  0  0  0  0  0  0  0  0
   45.8590   23.6300   48.9510 C   0  0  0  0  0  0  0  0  0  0  0  0
   46.8320   23.8780   47.8140 C   0  0  0  0  0  0  0  0  0  0  0  0
   46.1600   24.8920   46.8840 C   0  0  0  0  0  0  0  0  0  0  0  0
   44.1432   35.8574   46.4672 H   0  0  0  0  0  0  0  0  0  0  0  0
   43.9740   36.9218   44.1828 H   0  0  0  0  0  0  0  0  0  0  0  0
   45.0364   35.7296   42.2179 H   0  0  0  0  0  0  0  0  0  0  0  0
   47.8954   32.4133   43.2863 H   0  0  0  0  0  0  0  0  0  0  0  0
   44.8599   26.9082   49.2217 H   0  0  0  0  0  0  0  0  0  0  0  0
   44.0746   25.6182   48.3092 H   0  0  0  0  0  0  0  0  0  0  0  0
   46.5927   25.3031   50.0820 H   0  0  0  0  0  0  0  0  0  0  0  0
   44.9457   24.7687   50.5331 H   0  0  0  0  0  0  0  0  0  0  0  0
   46.2769   22.8799   49.6385 H   0  0  0  0  0  0  0  0  0  0  0  0
   44.9042   23.2572   48.5519 H   0  0  0  0  0  0  0  0  0  0  0  0
   47.7762   24.2863   48.2034 H   0  0  0  0  0  0  0  0  0  0  0  0
   47.0699   22.9451   47.2819 H   0  0  0  0  0  0  0  0  0  0  0  0
   45.1667   24.5349   46.5745 H   0  0  0  0  0  0  0  0  0  0  0  0
   46.7359   25.0539   45.9609 H   0  0  0  0  0  0  0  0  0  0  0  0
  1  6  2  0
  2  1  1  0
  3  4  1  0
  3  2  2  0
  4  5  2  0
  5  7  1  0
  5  6  1  0
  7 11  1  0
  8  9  2  0
  8  7  1  0
  9 10  1  0
 10 11  2  0
 10 12  1  0
 12 16  1  0
 12 13  2  0
 13 14  1  0
 15 17  1  0
 15 14  1  0
 16 15  2  0
 17 18  1  0
 18 19  1  0
 20 19  1  0
 21 20  1  0
 22 17  1  0
 22 21  1  0
  1 23  1  0
  2 24  1  0
  3 25  1  0
  8 26  1  0
 18 27  1  0
 18 28  1  0
 19 29  1  0
 19 30  1  0
 20 31  1  0
 20 32  1  0
 21 33  1  0
 21 34  1  0
 22 35  1  0
 22 36  1  0
M  ISO  8  23  14  24  14  25  14  26  14  27  13  28  13  29  13  30  13
M  ISO  6  31  13  32  13  33  13  34  13  35  13  36  13
M  END
>  <minimizedAffinity>  (1) 
-4.84665871

>  <minimizedRMSD>  (1) 
1.96296561

$$$$
