
     RDKit          3D

 26 29  0  0  0  0  0  0  0  0999 V2000
   44.5790   35.8530   44.8900 C   0  0  0  0  0  0  0  0  0  0  0  0
   44.8610   36.4490   43.6350 C   0  0  0  0  0  0  0  0  0  0  0  0
   45.6700   35.7630   42.7220 C   0  0  0  0  0  0  0  0  0  0  0  0
   46.1270   34.5440   43.1410 N   0  0  0  0  0  0  0  0  0  0  0  0
   45.8540   34.0020   44.3220 C   0  0  0  0  0  0  0  0  0  0  0  0
   45.0890   34.6460   45.1870 N   0  0  0  0  0  0  0  0  0  0  0  0
   46.3670   32.7310   44.6860 N   0  0  0  0  0  0  0  0  0  0  0  0
   47.5440   32.2240   44.2020 C   0  0  0  0  0  0  0  0  0  0  0  0
   47.7520   31.0060   44.7360 N   0  0  0  0  0  0  0  0  0  0  0  0
   46.7180   30.7500   45.5460 C   0  0  0  0  0  0  0  0  0  0  0  0
   45.9000   31.8040   45.4980 N   0  0  0  0  0  0  0  0  0  0  0  0
   46.5310   29.5420   46.3270 C   0  0  0  0  0  0  0  0  0  0  0  0
   47.4890   28.8220   46.9540 N   0  0  0  0  0  0  0  0  0  0  0  0
   46.9370   27.8150   47.5410 O   0  0  0  0  0  0  0  0  0  0  0  0
   45.6310   27.8180   47.3400 C   0  0  0  0  0  0  0  0  0  0  0  0
   45.3640   28.9020   46.5760 N   0  0  0  0  0  0  0  0  0  0  0  0
   44.5540   26.9310   47.7680 C   0  0  0  0  0  0  0  0  0  0  0  0
   44.2660   26.4870   49.0170 N   0  0  0  0  0  0  0  0  0  0  0  0
   43.2090   25.7020   48.9580 O   0  0  0  0  0  0  0  0  0  0  0  0
   42.8020   25.6230   47.7050 C   0  0  0  0  0  0  0  0  0  0  0  0
   43.6280   26.3860   46.9310 N   0  0  0  0  0  0  0  0  0  0  0  0
   43.9440   36.3776   45.6191 H   0  0  0  0  0  0  0  0  0  0  0  0
   44.4495   37.4373   43.3822 H   0  0  0  0  0  0  0  0  0  0  0  0
   45.9213   36.1764   41.7341 H   0  0  0  0  0  0  0  0  0  0  0  0
   48.2124   32.7312   43.4906 H   0  0  0  0  0  0  0  0  0  0  0  0
   41.9415   25.0401   47.3448 H   0  0  0  0  0  0  0  0  0  0  0  0
  1  6  2  0
  2  1  1  0
  3  4  1  0
  3  2  2  0
  4  5  2  0
  5  7  1  0
  5  6  1  0
  7 11  1  0
  8  7  1  0
  8  9  2  0
  9 10  1  0
 10 12  1  0
 11 10  2  0
 12 16  1  0
 12 13  2  0
 13 14  1  0
 15 14  1  0
 15 17  1  0
 16 15  2  0
 17 18  2  0
 19 18  1  0
 20 19  1  0
 21 20  2  0
 21 17  1  0
  1 22  1  0
  2 23  1  0
  3 24  1  0
  8 25  1  0
 20 26  1  0
M  ISO  5  22  14  23  14  24  14  25  14  26  14
M  END
>  <minimizedAffinity>  (1) 
-4.68242741

>  <minimizedRMSD>  (1) 
0.934954524

$$$$
