
     RDKit          3D

 24 26  0  0  0  0  0  0  0  0999 V2000
   44.5900   35.6850   45.1090 C   0  0  0  0  0  0  0  0  0  0  0  0
   44.8690   36.2670   43.8510 C   0  0  0  0  0  0  0  0  0  0  0  0
   45.6360   35.5530   42.9480 C   0  0  0  0  0  0  0  0  0  0  0  0
   46.0730   34.3190   43.3460 N   0  0  0  0  0  0  0  0  0  0  0  0
   45.8030   33.7800   44.5350 C   0  0  0  0  0  0  0  0  0  0  0  0
   45.0690   34.4600   45.4000 N   0  0  0  0  0  0  0  0  0  0  0  0
   46.2760   32.5010   44.9050 N   0  0  0  0  0  0  0  0  0  0  0  0
   47.4320   31.9550   44.4260 C   0  0  0  0  0  0  0  0  0  0  0  0
   47.6100   30.7380   44.9590 N   0  0  0  0  0  0  0  0  0  0  0  0
   46.5610   30.5180   45.7770 C   0  0  0  0  0  0  0  0  0  0  0  0
   45.7710   31.5950   45.7270 N   0  0  0  0  0  0  0  0  0  0  0  0
   46.3470   29.3120   46.5650 C   0  0  0  0  0  0  0  0  0  0  0  0
   47.2570   28.3840   46.9010 N   0  0  0  0  0  0  0  0  0  0  0  0
   46.6680   27.4640   47.6100 O   0  0  0  0  0  0  0  0  0  0  0  0
   45.3990   27.7310   47.7670 C   0  0  0  0  0  0  0  0  0  0  0  0
   45.1880   28.9020   47.1070 N   0  0  0  0  0  0  0  0  0  0  0  0
   44.4610   26.9160   48.4990 C   0  0  0  0  0  0  0  0  0  0  0  0
   43.6920   26.1820   47.7970 O   0  0  0  0  0  0  0  0  0  0  0  0
   44.3880   26.9190   49.8850 O   0  0  0  0  0  0  0  0  0  0  0  0
   43.9840   36.2305   45.8474 H   0  0  0  0  0  0  0  0  0  0  0  0
   44.4846   37.2656   43.5960 H   0  0  0  0  0  0  0  0  0  0  0  0
   45.8832   35.9585   41.9558 H   0  0  0  0  0  0  0  0  0  0  0  0
   48.1135   32.4399   43.7115 H   0  0  0  0  0  0  0  0  0  0  0  0
   43.7284   26.3433   50.3472 H   0  0  0  0  0  0  0  0  0  0  0  0
  1  6  2  0
  2  1  1  0
  3  4  1  0
  3  2  2  0
  4  5  2  0
  5  7  1  0
  5  6  1  0
  7 11  1  0
  8  7  1  0
  8  9  2  0
  9 10  1  0
 10 12  1  0
 11 10  2  0
 12 13  2  0
 12 16  1  0
 13 14  1  0
 14 15  1  0
 15 17  1  0
 16 15  2  0
 17 19  1  0
 18 17  2  0
  1 20  1  0
  2 21  1  0
  3 22  1  0
  8 23  1  0
 19 24  1  0
M  ISO  5  20  14  21  14  22  14  23  14  24   3
M  END
>  <minimizedAffinity>  (1) 
-4.64456749

>  <minimizedRMSD>  (1) 
0.436658561

$$$$
