
     RDKit          3D

 22 24  0  0  0  0  0  0  0  0999 V2000
   44.5950   35.7850   44.9640 C   0  0  0  0  0  0  0  0  0  0  0  0
   44.8450   36.3580   43.7100 C   0  0  0  0  0  0  0  0  0  0  0  0
   45.6110   35.6430   42.8140 C   0  0  0  0  0  0  0  0  0  0  0  0
   46.0900   34.4090   43.1970 N   0  0  0  0  0  0  0  0  0  0  0  0
   45.8220   33.8980   44.4160 C   0  0  0  0  0  0  0  0  0  0  0  0
   45.0810   34.5650   45.3100 N   0  0  0  0  0  0  0  0  0  0  0  0
   46.3250   32.6270   44.7860 N   0  0  0  0  0  0  0  0  0  0  0  0
   47.4760   32.0780   44.3010 C   0  0  0  0  0  0  0  0  0  0  0  0
   47.6650   30.8700   44.8500 N   0  0  0  0  0  0  0  0  0  0  0  0
   46.6390   30.6550   45.6800 C   0  0  0  0  0  0  0  0  0  0  0  0
   45.8580   31.7210   45.6180 N   0  0  0  0  0  0  0  0  0  0  0  0
   46.4550   29.4500   46.4860 C   0  0  0  0  0  0  0  0  0  0  0  0
   47.2860   28.3880   46.5880 N   0  0  0  0  0  0  0  0  0  0  0  0
   46.7510   27.5320   47.4090 O   0  0  0  0  0  0  0  0  0  0  0  0
   45.6050   27.9570   47.8650 C   0  0  0  0  0  0  0  0  0  0  0  0
   45.4110   29.1830   47.2790 N   0  0  0  0  0  0  0  0  0  0  0  0
   44.7450   27.3490   48.7400 O   0  0  0  0  0  0  0  0  0  0  0  0
   43.9856   36.3412   45.6915 H   0  0  0  0  0  0  0  0  0  0  0  0
   44.4425   37.3478   43.4485 H   0  0  0  0  0  0  0  0  0  0  0  0
   45.8347   36.0483   41.8162 H   0  0  0  0  0  0  0  0  0  0  0  0
   48.1467   32.5542   43.5707 H   0  0  0  0  0  0  0  0  0  0  0  0
   43.9012   27.7982   48.9974 H   0  0  0  0  0  0  0  0  0  0  0  0
  1  6  2  0
  2  1  1  0
  3  4  1  0
  3  2  2  0
  4  5  2  0
  5  7  1  0
  5  6  1  0
  7 11  1  0
  8  7  1  0
  8  9  2  0
  9 10  1  0
 10 12  1  0
 11 10  2  0
 12 13  2  0
 12 16  1  0
 13 14  1  0
 14 15  1  0
 15 17  1  0
 16 15  2  0
  1 18  1  0
  2 19  1  0
  3 20  1  0
  8 21  1  0
 17 22  1  0
M  ISO  5  18  14  19  14  20  14  21  14  22   3
M  END
>  <minimizedAffinity>  (1) 
-4.28525734

>  <minimizedRMSD>  (1) 
0.348723322

$$$$
