
     RDKit          3D

 23 25  0  0  0  0  0  0  0  0999 V2000
   44.6040   35.6470   45.1440 C   0  0  0  0  0  0  0  0  0  0  0  0
   44.8160   36.2280   43.8920 C   0  0  0  0  0  0  0  0  0  0  0  0
   45.5570   35.5260   42.9560 C   0  0  0  0  0  0  0  0  0  0  0  0
   46.0460   34.2910   43.3060 N   0  0  0  0  0  0  0  0  0  0  0  0
   45.8170   33.7670   44.5280 C   0  0  0  0  0  0  0  0  0  0  0  0
   45.1040   34.4230   45.4550 N   0  0  0  0  0  0  0  0  0  0  0  0
   46.3290   32.4930   44.8710 N   0  0  0  0  0  0  0  0  0  0  0  0
   47.4910   31.9740   44.3660 C   0  0  0  0  0  0  0  0  0  0  0  0
   47.6970   30.7530   44.8890 N   0  0  0  0  0  0  0  0  0  0  0  0
   46.6680   30.5030   45.7200 C   0  0  0  0  0  0  0  0  0  0  0  0
   45.8660   31.5600   45.6890 N   0  0  0  0  0  0  0  0  0  0  0  0
   46.5040   29.2790   46.4930 C   0  0  0  0  0  0  0  0  0  0  0  0
   47.4660   28.4700   46.9790 N   0  0  0  0  0  0  0  0  0  0  0  0
   46.9170   27.4900   47.6070 O   0  0  0  0  0  0  0  0  0  0  0  0
   45.6010   27.5910   47.5740 C   0  0  0  0  0  0  0  0  0  0  0  0
   45.3240   28.7320   46.8640 N   0  0  0  0  0  0  0  0  0  0  0  0
   44.5090   26.7850   48.1070 C   0  0  0  0  0  0  0  0  0  0  0  0
   44.2550   26.6100   49.3240 O   0  0  0  0  0  0  0  0  0  0  0  0
   44.0176   36.1941   45.8969 H   0  0  0  0  0  0  0  0  0  0  0  0
   44.4041   37.2200   43.6548 H   0  0  0  0  0  0  0  0  0  0  0  0
   45.7490   35.9466   41.9579 H   0  0  0  0  0  0  0  0  0  0  0  0
   48.1523   32.4773   43.6453 H   0  0  0  0  0  0  0  0  0  0  0  0
   43.8507   26.2872   47.3798 H   0  0  0  0  0  0  0  0  0  0  0  0
  1  6  2  0
  2  1  1  0
  3  4  1  0
  3  2  2  0
  4  5  2  0
  5  7  1  0
  5  6  1  0
  7 11  1  0
  8  7  1  0
  8  9  2  0
  9 10  1  0
 10 12  1  0
 11 10  2  0
 12 16  1  0
 12 13  2  0
 13 14  1  0
 15 14  1  0
 15 17  1  0
 16 15  2  0
 17 18  2  0
  1 19  1  0
  2 20  1  0
  3 21  1  0
  8 22  1  0
 17 23  1  0
M  ISO  5  19  14  20  14  21  14  22  14  23   6
M  END
>  <minimizedAffinity>  (1) 
-4.19481277

>  <minimizedRMSD>  (1) 
0.660666227

$$$$
