
     RDKit          3D

 32 34  0  0  0  0  0  0  0  0999 V2000
   47.6550   34.6790   41.5270 C   0  0  0  0  0  0  0  0  0  0  0  0
   47.2900   34.2150   40.1700 C   0  0  0  0  0  0  0  0  0  0  0  0
   48.1820   34.1950   39.1180 C   0  0  0  0  0  0  0  0  0  0  0  0
   47.9090   33.7650   37.8420 C   0  0  0  0  0  0  0  0  0  0  0  0
   46.6450   33.3280   37.6260 N   0  0  0  0  0  0  0  0  0  0  0  0
   45.7430   33.3410   38.6560 C   0  0  0  0  0  0  0  0  0  0  0  0
   46.0190   33.7650   39.9070 N   0  0  0  0  0  0  0  0  0  0  0  0
   44.4000   32.8550   38.3500 C   0  0  0  0  0  0  0  0  0  0  0  0
   43.2850   33.5540   38.7660 C   0  0  0  0  0  0  0  0  0  0  0  0
   42.0380   33.0910   38.4750 C   0  0  0  0  0  0  0  0  0  0  0  0
   41.8380   31.9530   37.7810 N   0  0  0  0  0  0  0  0  0  0  0  0
   42.9520   31.2750   37.3780 C   0  0  0  0  0  0  0  0  0  0  0  0
   44.2030   31.7330   37.6670 N   0  0  0  0  0  0  0  0  0  0  0  0
   47.1240   33.6990   42.5370 C   0  0  0  0  0  0  0  0  0  0  0  0
   44.6820   36.0370   44.2380 C   0  0  0  0  0  0  0  0  0  0  0  0
   45.5170   35.4930   43.2600 C   0  0  0  0  0  0  0  0  0  0  0  0
   46.2180   34.3310   43.5230 C   0  0  0  0  0  0  0  0  0  0  0  0
   46.0630   33.7550   44.7410 N   0  0  0  0  0  0  0  0  0  0  0  0
   45.2410   34.2960   45.6930 C   0  0  0  0  0  0  0  0  0  0  0  0
   44.5690   35.4210   45.4280 N   0  0  0  0  0  0  0  0  0  0  0  0
   47.2155   35.6709   41.7086 H   0  0  0  0  0  0  0  0  0  0  0  0
   48.7493   34.7484   41.6150 H   0  0  0  0  0  0  0  0  0  0  0  0
   49.2019   34.5551   39.3184 H   0  0  0  0  0  0  0  0  0  0  0  0
   48.6685   33.7749   37.0463 H   0  0  0  0  0  0  0  0  0  0  0  0
   43.4041   34.4882   39.3345 H   0  0  0  0  0  0  0  0  0  0  0  0
   41.1645   33.6650   38.8178 H   0  0  0  0  0  0  0  0  0  0  0  0
   42.8380   30.3406   36.8088 H   0  0  0  0  0  0  0  0  0  0  0  0
   46.5711   32.9104   42.0056 H   0  0  0  0  0  0  0  0  0  0  0  0
   47.9837   33.2909   43.0887 H   0  0  0  0  0  0  0  0  0  0  0  0
   44.1213   36.9617   44.0367 H   0  0  0  0  0  0  0  0  0  0  0  0
   45.6167   35.9879   42.2827 H   0  0  0  0  0  0  0  0  0  0  0  0
   45.1339   33.8068   46.6724 H   0  0  0  0  0  0  0  0  0  0  0  0
  1 14  1  0
  2  1  1  0
  3  2  2  0
  4  3  1  0
  5  4  2  0
  5  6  1  0
  6  7  2  0
  7  2  1  0
  8  6  1  0
  8  9  2  0
 10  9  1  0
 11 10  2  0
 12 13  2  0
 12 11  1  0
 13  8  1  0
 14 17  1  0
 15 20  2  0
 16 17  2  0
 16 15  1  0
 17 18  1  0
 18 19  2  0
 20 19  1  0
  1 21  1  0
  1 22  1  0
  3 23  1  0
  4 24  1  0
  9 25  1  0
 10 26  1  0
 12 27  1  0
 14 28  1  0
 14 29  1  0
 15 30  1  0
 16 31  1  0
 19 32  1  0
M  ISO  8  21   8  22   8  23  14  24  14  25  14  26  14  27  14  28   8
M  ISO  4  29   8  30  14  31  14  32  14
M  END
>  <minimizedAffinity>  (1) 
-4.75653696

>  <minimizedRMSD>  (1) 
0.814433336

$$$$
