
     RDKit          3D

 24 26  0  0  0  0  0  0  0  0999 V2000
   44.6040   35.6580   45.1390 C   0  0  0  0  0  0  0  0  0  0  0  0
   44.8030   36.2390   43.8850 C   0  0  0  0  0  0  0  0  0  0  0  0
   45.5400   35.5330   42.9580 C   0  0  0  0  0  0  0  0  0  0  0  0
   46.0410   34.3060   43.3020 N   0  0  0  0  0  0  0  0  0  0  0  0
   45.8220   33.7840   44.5280 C   0  0  0  0  0  0  0  0  0  0  0  0
   45.1100   34.4370   45.4600 N   0  0  0  0  0  0  0  0  0  0  0  0
   46.3500   32.5090   44.8680 N   0  0  0  0  0  0  0  0  0  0  0  0
   47.4980   31.9930   44.3780 C   0  0  0  0  0  0  0  0  0  0  0  0
   47.7050   30.7750   44.9010 N   0  0  0  0  0  0  0  0  0  0  0  0
   46.6770   30.5250   45.7290 C   0  0  0  0  0  0  0  0  0  0  0  0
   45.8730   31.5820   45.6930 N   0  0  0  0  0  0  0  0  0  0  0  0
   46.5210   29.3010   46.5000 C   0  0  0  0  0  0  0  0  0  0  0  0
   47.4760   28.4650   46.9430 N   0  0  0  0  0  0  0  0  0  0  0  0
   46.9040   27.4920   47.5920 O   0  0  0  0  0  0  0  0  0  0  0  0
   45.6060   27.6340   47.6060 C   0  0  0  0  0  0  0  0  0  0  0  0
   45.3440   28.7820   46.9140 N   0  0  0  0  0  0  0  0  0  0  0  0
   44.5330   26.7990   48.2080 C   0  0  0  0  0  0  0  0  0  0  0  0
   44.0187   36.2059   45.8921 H   0  0  0  0  0  0  0  0  0  0  0  0
   44.3854   37.2278   43.6445 H   0  0  0  0  0  0  0  0  0  0  0  0
   45.7229   35.9495   41.9564 H   0  0  0  0  0  0  0  0  0  0  0  0
   48.1623   32.4951   43.6593 H   0  0  0  0  0  0  0  0  0  0  0  0
   44.5998   26.8510   49.3047 H   0  0  0  0  0  0  0  0  0  0  0  0
   43.5511   27.1730   47.8823 H   0  0  0  0  0  0  0  0  0  0  0  0
   44.6543   25.7554   47.8823 H   0  0  0  0  0  0  0  0  0  0  0  0
  1  6  2  0
  2  1  1  0
  3  4  1  0
  3  2  2  0
  4  5  2  0
  5  7  1  0
  5  6  1  0
  7 11  1  0
  8  7  1  0
  8  9  2  0
  9 10  1  0
 10 12  1  0
 11 10  2  0
 12 16  1  0
 12 13  2  0
 13 14  1  0
 14 15  1  0
 15 17  1  0
 16 15  2  0
  1 18  1  0
  2 19  1  0
  3 20  1  0
  8 21  1  0
 17 22  1  0
 17 23  1  0
 17 24  1  0
M  ISO  7  18  14  19  14  20  14  21  14  22   8  23   8  24   8
M  END
>  <minimizedAffinity>  (1) 
-4.22510242

>  <minimizedRMSD>  (1) 
0.475921214

$$$$
