
     RDKit          3D

 41 45  0  0  0  0  0  0  0  0999 V2000
   47.0220   29.2720   45.4960 C   0  0  0  0  0  0  0  0  0  0  0  0
   47.7320   28.1820   45.0900 N   0  0  0  0  0  0  0  0  0  0  0  0
   47.4120   27.1980   45.8720 O   0  0  0  0  0  0  0  0  0  0  0  0
   46.5340   27.5580   46.7720 C   0  0  0  0  0  0  0  0  0  0  0  0
   46.2780   28.8730   46.5460 N   0  0  0  0  0  0  0  0  0  0  0  0
   44.5850   35.5740   45.3060 C   0  0  0  0  0  0  0  0  0  0  0  0
   44.6730   36.3640   44.1470 C   0  0  0  0  0  0  0  0  0  0  0  0
   45.4060   35.8880   43.0420 C   0  0  0  0  0  0  0  0  0  0  0  0
   45.9840   34.6550   43.2100 N   0  0  0  0  0  0  0  0  0  0  0  0
   45.8890   33.9200   44.3150 C   0  0  0  0  0  0  0  0  0  0  0  0
   45.2000   34.3860   45.3310 N   0  0  0  0  0  0  0  0  0  0  0  0
   46.5110   32.6570   44.4190 N   0  0  0  0  0  0  0  0  0  0  0  0
   47.6640   32.3280   43.7600 C   0  0  0  0  0  0  0  0  0  0  0  0
   47.9940   31.0600   44.0680 N   0  0  0  0  0  0  0  0  0  0  0  0
   47.0650   30.5970   44.9050 C   0  0  0  0  0  0  0  0  0  0  0  0
   46.1830   31.5820   45.0990 N   0  0  0  0  0  0  0  0  0  0  0  0
   45.9850   26.6720   47.7860 C   0  0  0  0  0  0  0  0  0  0  0  0
   44.6740   26.7680   48.2010 C   0  0  0  0  0  0  0  0  0  0  0  0
   44.5400   25.7550   49.1710 C   0  0  0  0  0  0  0  0  0  0  0  0
   45.7800   25.1120   49.2810 C   0  0  0  0  0  0  0  0  0  0  0  0
   46.5800   25.7050   48.4370 O   0  0  0  0  0  0  0  0  0  0  0  0
   46.1220   24.0260   50.1350 N   0  0  0  0  0  0  0  0  0  0  0  0
   45.5060   23.8090   51.4290 C   0  0  0  0  0  0  0  0  0  0  0  0
   46.3790   22.8020   52.1480 C   0  0  0  0  0  0  0  0  0  0  0  0
   47.7290   23.1340   52.0720 O   0  0  0  0  0  0  0  0  0  0  0  0
   48.2200   23.1230   50.7910 C   0  0  0  0  0  0  0  0  0  0  0  0
   47.1300   23.0640   49.7390 C   0  0  0  0  0  0  0  0  0  0  0  0
   44.0185   35.9274   46.1802 H   0  0  0  0  0  0  0  0  0  0  0  0
   44.1748   37.3437   44.1031 H   0  0  0  0  0  0  0  0  0  0  0  0
   45.5077   36.4641   42.1105 H   0  0  0  0  0  0  0  0  0  0  0  0
   48.2288   32.9912   43.0884 H   0  0  0  0  0  0  0  0  0  0  0  0
   43.9064   27.4752   47.8536 H   0  0  0  0  0  0  0  0  0  0  0  0
   43.6289   25.5132   49.7380 H   0  0  0  0  0  0  0  0  0  0  0  0
   45.4652   24.7514   51.9949 H   0  0  0  0  0  0  0  0  0  0  0  0
   44.4736   23.4435   51.3257 H   0  0  0  0  0  0  0  0  0  0  0  0
   46.0813   22.7654   53.2063 H   0  0  0  0  0  0  0  0  0  0  0  0
   46.2415   21.8248   51.6621 H   0  0  0  0  0  0  0  0  0  0  0  0
   48.8096   24.0382   50.6338 H   0  0  0  0  0  0  0  0  0  0  0  0
   48.8324   22.2159   50.6813 H   0  0  0  0  0  0  0  0  0  0  0  0
   46.6959   22.0541   49.6981 H   0  0  0  0  0  0  0  0  0  0  0  0
   47.5289   23.2949   48.7402 H   0  0  0  0  0  0  0  0  0  0  0  0
  1  5  1  0
  2  1  2  0
  2  3  1  0
  3  4  1  0
  4 17  1  0
  5  4  2  0
  6 11  2  0
  7  6  1  0
  8  9  1  0
  8  7  2  0
  9 10  2  0
 10 12  1  0
 10 11  1  0
 12 16  1  0
 13 14  2  0
 13 12  1  0
 14 15  1  0
 15 16  2  0
 15  1  1  0
 17 18  2  0
 17 21  1  0
 18 19  1  0
 19 20  2  0
 20 22  1  0
 21 20  1  0
 22 23  1  0
 23 24  1  0
 25 24  1  0
 26 25  1  0
 27 22  1  0
 27 26  1  0
  6 28  1  0
  7 29  1  0
  8 30  1  0
 13 31  1  0
 18 32  1  0
 19 33  1  0
 23 34  1  0
 23 35  1  0
 24 36  1  0
 24 37  1  0
 26 38  1  0
 26 39  1  0
 27 40  1  0
 27 41  1  0
M  ISO  8  28  14  29  14  30  14  31  14  32  14  33  14  34  13  35  13
M  ISO  6  36  13  37  13  38  13  39  13  40  13  41  13
M  END
>  <minimizedAffinity>  (1) 
-5.27488756

>  <minimizedRMSD>  (1) 
0.60970515

$$$$
