
     RDKit          3D

 33 36  0  0  0  0  0  0  0  0999 V2000
   47.0150   29.2360   45.7350 C   0  0  0  0  0  0  0  0  0  0  0  0
   47.8130   28.1720   45.4750 N   0  0  0  0  0  0  0  0  0  0  0  0
   47.4620   27.2120   46.2750 O   0  0  0  0  0  0  0  0  0  0  0  0
   46.4650   27.5770   47.0640 C   0  0  0  0  0  0  0  0  0  0  0  0
   46.1800   28.8560   46.7250 N   0  0  0  0  0  0  0  0  0  0  0  0
   44.5950   35.5210   45.3090 C   0  0  0  0  0  0  0  0  0  0  0  0
   44.7180   36.3060   44.1290 C   0  0  0  0  0  0  0  0  0  0  0  0
   45.4650   35.7950   43.0680 C   0  0  0  0  0  0  0  0  0  0  0  0
   46.0160   34.5550   43.2820 N   0  0  0  0  0  0  0  0  0  0  0  0
   45.8960   33.8360   44.3800 C   0  0  0  0  0  0  0  0  0  0  0  0
   45.1930   34.3400   45.3520 N   0  0  0  0  0  0  0  0  0  0  0  0
   46.4970   32.5720   44.5210 N   0  0  0  0  0  0  0  0  0  0  0  0
   47.6160   32.1820   43.8270 C   0  0  0  0  0  0  0  0  0  0  0  0
   47.9280   30.9300   44.1910 N   0  0  0  0  0  0  0  0  0  0  0  0
   47.0320   30.5340   45.0920 C   0  0  0  0  0  0  0  0  0  0  0  0
   46.1900   31.5470   45.2620 N   0  0  0  0  0  0  0  0  0  0  0  0
   45.8510   26.7210   48.0680 C   0  0  0  0  0  0  0  0  0  0  0  0
   44.5380   26.8470   48.4360 C   0  0  0  0  0  0  0  0  0  0  0  0
   44.2990   25.8760   49.4040 C   0  0  0  0  0  0  0  0  0  0  0  0
   45.4950   25.2090   49.5710 C   0  0  0  0  0  0  0  0  0  0  0  0
   46.3680   25.7580   48.7540 O   0  0  0  0  0  0  0  0  0  0  0  0
   45.8600   24.0610   50.4790 C   0  0  0  0  0  0  0  0  0  0  0  0
   45.8380   22.8640   49.6600 N   0  0  0  0  0  0  0  0  0  0  0  0
   44.0148   35.8876   46.1686 H   0  0  0  0  0  0  0  0  0  0  0  0
   44.2357   37.2919   44.0553 H   0  0  0  0  0  0  0  0  0  0  0  0
   45.6032   36.3461   42.1261 H   0  0  0  0  0  0  0  0  0  0  0  0
   48.1641   32.7939   43.0955 H   0  0  0  0  0  0  0  0  0  0  0  0
   43.8128   27.5746   48.0428 H   0  0  0  0  0  0  0  0  0  0  0  0
   43.3517   25.6807   49.9279 H   0  0  0  0  0  0  0  0  0  0  0  0
   46.8644   24.2145   50.9004 H   0  0  0  0  0  0  0  0  0  0  0  0
   45.1557   23.9801   51.3201 H   0  0  0  0  0  0  0  0  0  0  0  0
   45.8227   22.0325   50.2676 H   0  0  0  0  0  0  0  0  0  0  0  0
   44.9970   22.8702   49.0654 H   0  0  0  0  0  0  0  0  0  0  0  0
  1  5  1  0
  2  1  2  0
  2  3  1  0
  3  4  1  0
  4 17  1  0
  5  4  2  0
  6 11  2  0
  7  6  1  0
  8  9  1  0
  8  7  2  0
  9 10  2  0
 10 12  1  0
 10 11  1  0
 12 16  1  0
 13 14  2  0
 13 12  1  0
 14 15  1  0
 15 16  2  0
 15  1  1  0
 17 18  2  0
 17 21  1  0
 18 19  1  0
 19 20  2  0
 20 22  1  0
 21 20  1  0
 23 22  1  0
  6 24  1  0
  7 25  1  0
  8 26  1  0
 13 27  1  0
 18 28  1  0
 19 29  1  0
 22 30  1  0
 22 31  1  0
 23 32  1  0
 23 33  1  0
M  ISO  8  24  14  25  14  26  14  27  14  28  14  29  14  30   8  31   8
M  ISO  2  32   5  33   5
M  END
>  <minimizedAffinity>  (1) 
-5.15573359

>  <minimizedRMSD>  (1) 
0.135359854

$$$$
