
     RDKit          3D

 32 35  0  0  0  0  0  0  0  0999 V2000
   47.0140   29.1950   45.6910 C   0  0  0  0  0  0  0  0  0  0  0  0
   47.7810   28.1120   45.3920 N   0  0  0  0  0  0  0  0  0  0  0  0
   47.4360   27.1490   46.1890 O   0  0  0  0  0  0  0  0  0  0  0  0
   46.4760   27.5210   47.0150 C   0  0  0  0  0  0  0  0  0  0  0  0
   46.2030   28.8120   46.7080 N   0  0  0  0  0  0  0  0  0  0  0  0
   44.6060   35.4910   45.3280 C   0  0  0  0  0  0  0  0  0  0  0  0
   44.7060   36.2700   44.1550 C   0  0  0  0  0  0  0  0  0  0  0  0
   45.4420   35.7640   43.0740 C   0  0  0  0  0  0  0  0  0  0  0  0
   46.0020   34.5290   43.2770 N   0  0  0  0  0  0  0  0  0  0  0  0
   45.9040   33.8040   44.3820 C   0  0  0  0  0  0  0  0  0  0  0  0
   45.2130   34.3030   45.3680 N   0  0  0  0  0  0  0  0  0  0  0  0
   46.5060   32.5460   44.5180 N   0  0  0  0  0  0  0  0  0  0  0  0
   47.6400   32.1720   43.8490 C   0  0  0  0  0  0  0  0  0  0  0  0
   47.9580   30.9170   44.1950 N   0  0  0  0  0  0  0  0  0  0  0  0
   47.0390   30.4990   45.0690 C   0  0  0  0  0  0  0  0  0  0  0  0
   46.1900   31.5050   45.2330 N   0  0  0  0  0  0  0  0  0  0  0  0
   45.8720   26.6670   48.0320 C   0  0  0  0  0  0  0  0  0  0  0  0
   44.5700   26.8280   48.4400 C   0  0  0  0  0  0  0  0  0  0  0  0
   44.3680   25.8320   49.4110 C   0  0  0  0  0  0  0  0  0  0  0  0
   45.5560   25.1360   49.5280 C   0  0  0  0  0  0  0  0  0  0  0  0
   46.4090   25.6790   48.6830 O   0  0  0  0  0  0  0  0  0  0  0  0
   45.8990   23.9750   50.4150 C   0  0  0  0  0  0  0  0  0  0  0  0
   45.0630   23.9380   51.5070 O   0  0  0  0  0  0  0  0  0  0  0  0
   44.0369   35.8572   46.1952 H   0  0  0  0  0  0  0  0  0  0  0  0
   44.2169   37.2532   44.0903 H   0  0  0  0  0  0  0  0  0  0  0  0
   45.5615   36.3179   42.1312 H   0  0  0  0  0  0  0  0  0  0  0  0
   48.2003   32.8005   43.1411 H   0  0  0  0  0  0  0  0  0  0  0  0
   43.8439   27.5738   48.0843 H   0  0  0  0  0  0  0  0  0  0  0  0
   43.4405   25.6426   49.9713 H   0  0  0  0  0  0  0  0  0  0  0  0
   45.7914   23.0403   49.8452 H   0  0  0  0  0  0  0  0  0  0  0  0
   46.9356   24.0894   50.7649 H   0  0  0  0  0  0  0  0  0  0  0  0
   45.6026   23.9619   52.3367 H   0  0  0  0  0  0  0  0  0  0  0  0
  1  5  1  0
  2  1  2  0
  2  3  1  0
  3  4  1  0
  4 17  1  0
  5  4  2  0
  6 11  2  0
  7  6  1  0
  8  9  1  0
  8  7  2  0
  9 10  2  0
 10 12  1  0
 10 11  1  0
 12 16  1  0
 13 14  2  0
 13 12  1  0
 14 15  1  0
 15 16  2  0
 15  1  1  0
 17 18  2  0
 17 21  1  0
 18 19  1  0
 19 20  2  0
 20 22  1  0
 21 20  1  0
 22 23  1  0
  6 24  1  0
  7 25  1  0
  8 26  1  0
 13 27  1  0
 18 28  1  0
 19 29  1  0
 22 30  1  0
 22 31  1  0
 23 32  1  0
M  ISO  8  24  14  25  14  26  14  27  14  28  14  29  14  30   8  31   8
M  ISO  1  32   3
M  END
>  <minimizedAffinity>  (1) 
-5.34328461

>  <minimizedRMSD>  (1) 
0.302526742

$$$$
