
     RDKit          3D

 23 24  0  0  0  0  0  0  0  0999 V2000
   47.6410   34.7490   42.5330 C   0  0  0  0  0  0  0  0  0  0  0  0
   46.6570   34.7750   41.5490 C   0  0  0  0  0  0  0  0  0  0  0  0
   45.3860   34.2840   41.9080 C   0  0  0  0  0  0  0  0  0  0  0  0
   45.2020   33.8180   43.1850 N   0  0  0  0  0  0  0  0  0  0  0  0
   46.1980   33.8220   44.0850 C   0  0  0  0  0  0  0  0  0  0  0  0
   47.4030   34.2800   43.7650 N   0  0  0  0  0  0  0  0  0  0  0  0
   45.9950   33.3330   45.4100 N   0  0  0  0  0  0  0  0  0  0  0  0
   46.6420   32.2130   45.7620 C   0  0  0  0  0  0  0  0  0  0  0  0
   46.4170   31.7790   47.0460 C   0  0  0  0  0  0  0  0  0  0  0  0
   45.5750   32.4790   47.8850 C   0  0  0  0  0  0  0  0  0  0  0  0
   45.3800   32.0690   49.0550 O   0  0  0  0  0  0  0  0  0  0  0  0
   44.9610   33.5880   47.4740 N   0  0  0  0  0  0  0  0  0  0  0  0
   45.1670   34.0410   46.2030 C   0  0  0  0  0  0  0  0  0  0  0  0
   44.5960   35.0890   45.7960 O   0  0  0  0  0  0  0  0  0  0  0  0
   48.9700   35.2590   42.1710 C   0  0  0  0  0  0  0  0  0  0  0  0
   49.1410   35.8510   41.0810 O   0  0  0  0  0  0  0  0  0  0  0  0
   50.0290   35.0810   43.0400 O   0  0  0  0  0  0  0  0  0  0  0  0
   46.8618   35.1604   40.5393 H   0  0  0  0  0  0  0  0  0  0  0  0
   44.5605   34.2746   41.1811 H   0  0  0  0  0  0  0  0  0  0  0  0
   47.3081   31.6775   45.0695 H   0  0  0  0  0  0  0  0  0  0  0  0
   46.9123   30.8659   47.4079 H   0  0  0  0  0  0  0  0  0  0  0  0
   44.3348   34.1002   48.1115 H   0  0  0  0  0  0  0  0  0  0  0  0
   50.9273   35.4223   42.8021 H   0  0  0  0  0  0  0  0  0  0  0  0
  1  6  2  0
  2  3  2  0
  2  1  1  0
  3  4  1  0
  4  5  2  0
  5  7  1  0
  6  5  1  0
  7  8  1  0
  7 13  1  0
  8  9  2  0
  9 10  1  0
 10 11  2  0
 12 10  1  0
 13 12  1  0
 14 13  2  0
 15  1  1  0
 15 17  1  0
 16 15  2  0
  2 18  1  0
  3 19  1  0
  8 20  1  0
  9 21  1  0
 12 22  1  0
 17 23  1  0
M  ISO  6  18  14  19  14  20  14  21  14  22   9  23   3
M  END
>  <minimizedAffinity>  (1) 
-6.40622091

>  <minimizedRMSD>  (1) 
0.993752599

$$$$
