
     RDKit          3D

 26 27  0  0  0  0  0  0  0  0999 V2000
   47.9530   34.7710   42.3700 C   0  0  0  0  0  0  0  0  0  0  0  0
   46.9190   34.8160   41.4310 C   0  0  0  0  0  0  0  0  0  0  0  0
   45.7320   34.1150   41.7520 C   0  0  0  0  0  0  0  0  0  0  0  0
   45.6600   33.4510   42.9320 N   0  0  0  0  0  0  0  0  0  0  0  0
   46.6810   33.4380   43.8030 C   0  0  0  0  0  0  0  0  0  0  0  0
   47.8060   34.0880   43.5230 N   0  0  0  0  0  0  0  0  0  0  0  0
   46.0680   31.3460   47.4310 C   0  0  0  0  0  0  0  0  0  0  0  0
   46.6740   30.7060   46.3730 C   0  0  0  0  0  0  0  0  0  0  0  0
   46.8900   31.3630   45.1730 C   0  0  0  0  0  0  0  0  0  0  0  0
   46.4860   32.6880   45.0380 C   0  0  0  0  0  0  0  0  0  0  0  0
   45.8790   33.3130   46.1100 C   0  0  0  0  0  0  0  0  0  0  0  0
   45.6600   32.6600   47.3150 C   0  0  0  0  0  0  0  0  0  0  0  0
   45.7570   30.5900   48.9840 S   0  0  0  0  0  0  0  0  0  0  0  0
   45.0680   31.5920   49.8600 O   0  0  0  0  0  0  0  0  0  0  0  0
   44.8440   29.4210   48.8030 O   0  0  0  0  0  0  0  0  0  0  0  0
   49.1820   35.4770   42.0740 C   0  0  0  0  0  0  0  0  0  0  0  0
   49.2550   36.2100   41.0600 O   0  0  0  0  0  0  0  0  0  0  0  0
   50.2760   35.3490   42.9030 O   0  0  0  0  0  0  0  0  0  0  0  0
   47.0227   35.3703   40.4865 H   0  0  0  0  0  0  0  0  0  0  0  0
   44.8811   34.1090   41.0549 H   0  0  0  0  0  0  0  0  0  0  0  0
   46.9910   29.6584   46.4824 H   0  0  0  0  0  0  0  0  0  0  0  0
   47.3762   30.8426   44.3347 H   0  0  0  0  0  0  0  0  0  0  0  0
   45.5594   34.3603   46.0054 H   0  0  0  0  0  0  0  0  0  0  0  0
   45.1739   33.1761   48.1560 H   0  0  0  0  0  0  0  0  0  0  0  0
   46.9368   30.1714   49.5406 H   0  0  0  0  0  0  0  0  0  0  0  0
   51.1137   35.8341   42.6956 H   0  0  0  0  0  0  0  0  0  0  0  0
  1  6  2  0
  2  3  2  0
  2  1  1  0
  3  4  1  0
  4  5  2  0
  5 10  1  0
  6  5  1  0
  7 13  1  0
  8  7  2  0
  9  8  1  0
 10  9  2  0
 10 11  1  0
 11 12  2  0
 12  7  1  0
 13 14  2  0
 15 13  2  0
 16  1  1  0
 16 18  1  0
 17 16  2  0
  2 19  1  0
  3 20  1  0
  8 21  1  0
  9 22  1  0
 11 23  1  0
 12 24  1  0
 13 25  1  0
 18 26  1  0
M  ISO  8  19  14  20  14  21  14  22  14  23  14  24  14  25  11  26   3
M  END
>  <minimizedAffinity>  (1) 
-5.39893103

>  <minimizedRMSD>  (1) 
1.3330785

$$$$
