
     RDKit          3D

 21 22  0  0  0  0  0  0  0  0999 V2000
   47.8880   34.7000   42.4160 C   0  0  0  0  0  0  0  0  0  0  0  0
   47.0120   34.7040   41.3330 C   0  0  0  0  0  0  0  0  0  0  0  0
   45.7800   34.0320   41.5080 C   0  0  0  0  0  0  0  0  0  0  0  0
   45.5180   33.4290   42.6970 N   0  0  0  0  0  0  0  0  0  0  0  0
   46.3980   33.4560   43.7080 C   0  0  0  0  0  0  0  0  0  0  0  0
   47.5550   34.0860   43.5480 N   0  0  0  0  0  0  0  0  0  0  0  0
   46.1360   32.8150   44.9920 C   0  0  0  0  0  0  0  0  0  0  0  0
   46.2660   31.4410   45.1410 C   0  0  0  0  0  0  0  0  0  0  0  0
   46.0310   30.7660   46.3440 C   0  0  0  0  0  0  0  0  0  0  0  0
   45.6600   31.5290   47.3820 N   0  0  0  0  0  0  0  0  0  0  0  0
   45.5290   32.8620   47.2540 C   0  0  0  0  0  0  0  0  0  0  0  0
   45.7570   33.5300   46.0880 N   0  0  0  0  0  0  0  0  0  0  0  0
   49.1660   35.3830   42.2740 C   0  0  0  0  0  0  0  0  0  0  0  0
   49.3160   36.2350   41.3580 O   0  0  0  0  0  0  0  0  0  0  0  0
   50.1920   35.0770   43.1530 O   0  0  0  0  0  0  0  0  0  0  0  0
   47.2662   35.2055   40.3875 H   0  0  0  0  0  0  0  0  0  0  0  0
   45.0433   33.9979   40.6919 H   0  0  0  0  0  0  0  0  0  0  0  0
   46.5707   30.8500   44.2647 H   0  0  0  0  0  0  0  0  0  0  0  0
   46.1438   29.6754   46.4326 H   0  0  0  0  0  0  0  0  0  0  0  0
   45.2219   33.4428   48.1362 H   0  0  0  0  0  0  0  0  0  0  0  0
   51.0671   35.5324   43.0701 H   0  0  0  0  0  0  0  0  0  0  0  0
  1  6  2  0
  2  3  2  0
  2  1  1  0
  3  4  1  0
  4  5  2  0
  5  7  1  0
  6  5  1  0
  7  8  2  0
  7 12  1  0
  8  9  1  0
  9 10  2  0
 11 10  1  0
 12 11  2  0
 13  1  1  0
 13 15  1  0
 14 13  2  0
  2 16  1  0
  3 17  1  0
  8 18  1  0
  9 19  1  0
 11 20  1  0
 15 21  1  0
M  ISO  6  16  14  17  14  18  14  19  14  20  14  21   3
M  END
>  <minimizedAffinity>  (1) 
-4.79353571

>  <minimizedRMSD>  (1) 
0.861216724

$$$$
