
     RDKit          3D

 36 37  0  0  0  0  0  0  0  0999 V2000
   47.8360   34.8340   41.5990 C   0  0  0  0  0  0  0  0  0  0  0  0
   47.5850   34.3750   40.2140 C   0  0  0  0  0  0  0  0  0  0  0  0
   48.4190   34.6680   39.1570 C   0  0  0  0  0  0  0  0  0  0  0  0
   48.2510   34.2710   37.8570 C   0  0  0  0  0  0  0  0  0  0  0  0
   47.1480   33.5160   37.6160 N   0  0  0  0  0  0  0  0  0  0  0  0
   46.3000   33.2090   38.6490 C   0  0  0  0  0  0  0  0  0  0  0  0
   46.4800   33.6090   39.9260 N   0  0  0  0  0  0  0  0  0  0  0  0
   45.0720   32.3840   38.4470 C   0  0  0  0  0  0  0  0  0  0  0  0
   44.9640   31.2870   39.4970 C   0  0  0  0  0  0  0  0  0  0  0  0
   43.8190   33.2600   38.5640 C   0  0  0  0  0  0  0  0  0  0  0  0
   45.0720   31.8290   37.0430 C   0  0  0  0  0  0  0  0  0  0  0  0
   47.2830   33.8070   42.5530 C   0  0  0  0  0  0  0  0  0  0  0  0
   44.6900   36.0140   44.2030 C   0  0  0  0  0  0  0  0  0  0  0  0
   45.5810   35.5120   43.2470 C   0  0  0  0  0  0  0  0  0  0  0  0
   46.3260   34.3810   43.5200 C   0  0  0  0  0  0  0  0  0  0  0  0
   46.1530   33.7970   44.7320 N   0  0  0  0  0  0  0  0  0  0  0  0
   45.2810   34.3020   45.6480 C   0  0  0  0  0  0  0  0  0  0  0  0
   44.5680   35.3910   45.3780 N   0  0  0  0  0  0  0  0  0  0  0  0
   47.3378   35.8005   41.7652 H   0  0  0  0  0  0  0  0  0  0  0  0
   48.9165   34.9573   41.7642 H   0  0  0  0  0  0  0  0  0  0  0  0
   49.3057   35.2801   39.3788 H   0  0  0  0  0  0  0  0  0  0  0  0
   48.9608   34.5449   37.0625 H   0  0  0  0  0  0  0  0  0  0  0  0
   45.0081   31.7346   40.5008 H   0  0  0  0  0  0  0  0  0  0  0  0
   44.0091   30.7548   39.3744 H   0  0  0  0  0  0  0  0  0  0  0  0
   45.7968   30.5789   39.3744 H   0  0  0  0  0  0  0  0  0  0  0  0
   43.5842   33.4241   39.6260 H   0  0  0  0  0  0  0  0  0  0  0  0
   44.0016   34.2282   38.0749 H   0  0  0  0  0  0  0  0  0  0  0  0
   42.9723   32.7561   38.0749 H   0  0  0  0  0  0  0  0  0  0  0  0
   46.1091   31.6942   36.7020 H   0  0  0  0  0  0  0  0  0  0  0  0
   44.5535   30.8590   37.0322 H   0  0  0  0  0  0  0  0  0  0  0  0
   44.5535   32.5295   36.3718 H   0  0  0  0  0  0  0  0  0  0  0  0
   46.7697   33.0273   41.9712 H   0  0  0  0  0  0  0  0  0  0  0  0
   48.1282   33.3985   43.1263 H   0  0  0  0  0  0  0  0  0  0  0  0
   44.0953   36.9141   43.9882 H   0  0  0  0  0  0  0  0  0  0  0  0
   45.6881   36.0190   42.2767 H   0  0  0  0  0  0  0  0  0  0  0  0
   45.1654   33.8035   46.6217 H   0  0  0  0  0  0  0  0  0  0  0  0
  1 12  1  0
  2  1  1  0
  3  2  2  0
  4  3  1  0
  5  4  2  0
  5  6  1  0
  6  7  2  0
  7  2  1  0
  8 10  1  0
  8  6  1  0
  8  9  1  0
 11  8  1  0
 12 15  1  0
 13 18  2  0
 14 15  2  0
 14 13  1  0
 15 16  1  0
 16 17  2  0
 18 17  1  0
  1 19  1  0
  1 20  1  0
  3 21  1  0
  4 22  1  0
  9 23  1  0
  9 24  1  0
  9 25  1  0
 10 26  1  0
 10 27  1  0
 10 28  1  0
 11 29  1  0
 11 30  1  0
 11 31  1  0
 12 32  1  0
 12 33  1  0
 13 34  1  0
 14 35  1  0
 17 36  1  0
M  ISO  8  19   8  20   8  21  14  22  14  23   8  24   8  25   8  26   8
M  ISO  8  27   8  28   8  29   8  30   8  31   8  32   8  33   8  34  14
M  ISO  2  35  14  36  14
M  END
>  <minimizedAffinity>  (1) 
-4.51599836

>  <minimizedRMSD>  (1) 
0.090379782

$$$$
