
     RDKit          3D

 15 15  0  0  0  0  0  0  0  0999 V2000
   47.9560   34.8040   42.2430 C   0  0  0  0  0  0  0  0  0  0  0  0
   47.3600   34.5440   40.9930 C   0  0  0  0  0  0  0  0  0  0  0  0
   46.1190   33.8750   41.0390 C   0  0  0  0  0  0  0  0  0  0  0  0
   45.5810   33.5260   42.2480 N   0  0  0  0  0  0  0  0  0  0  0  0
   46.2120   33.8100   43.3960 C   0  0  0  0  0  0  0  0  0  0  0  0
   47.3800   34.4390   43.3810 N   0  0  0  0  0  0  0  0  0  0  0  0
   45.6260   33.4350   44.6520 C   0  0  0  0  0  0  0  0  0  0  0  0
   45.3050   34.2320   45.5730 O   0  0  0  0  0  0  0  0  0  0  0  0
   49.2460   35.4990   42.2270 C   0  0  0  0  0  0  0  0  0  0  0  0
   49.4460   36.4440   41.4260 O   0  0  0  0  0  0  0  0  0  0  0  0
   50.2340   35.0910   43.1130 O   0  0  0  0  0  0  0  0  0  0  0  0
   47.8309   34.8427   40.0448 H   0  0  0  0  0  0  0  0  0  0  0  0
   45.5860   33.6349   40.1072 H   0  0  0  0  0  0  0  0  0  0  0  0
   45.4424   32.3642   44.8240 H   0  0  0  0  0  0  0  0  0  0  0  0
   51.1127   35.5470   43.1188 H   0  0  0  0  0  0  0  0  0  0  0  0
  1  6  2  0
  2  3  2  0
  2  1  1  0
  3  4  1  0
  4  5  2  0
  5  7  1  0
  6  5  1  0
  7  8  2  0
  9  1  1  0
  9 11  1  0
 10  9  2  0
  2 12  1  0
  3 13  1  0
  7 14  1  0
 11 15  1  0
M  ISO  4  12  14  13  14  14   6  15   3
M  END
>  <minimizedAffinity>  (1) 
-3.89200115

>  <minimizedRMSD>  (1) 
0.283637762

$$$$
