
     RDKit          3D

 29 31  0  0  0  0  0  0  0  0999 V2000
   47.1370   34.6990   42.6830 C   0  0  0  0  0  0  0  0  0  0  0  0
   45.9640   35.4250   42.4880 C   0  0  0  0  0  0  0  0  0  0  0  0
   44.9150   35.2100   43.4010 C   0  0  0  0  0  0  0  0  0  0  0  0
   45.1060   34.3120   44.4140 N   0  0  0  0  0  0  0  0  0  0  0  0
   46.2590   33.6470   44.5460 C   0  0  0  0  0  0  0  0  0  0  0  0
   47.2680   33.8340   43.6900 N   0  0  0  0  0  0  0  0  0  0  0  0
   46.4270   32.7170   45.6140 N   0  0  0  0  0  0  0  0  0  0  0  0
   45.8990   31.4680   45.7140 C   0  0  0  0  0  0  0  0  0  0  0  0
   46.2930   30.9020   46.8800 N   0  0  0  0  0  0  0  0  0  0  0  0
   47.0570   31.8240   47.4710 C   0  0  0  0  0  0  0  0  0  0  0  0
   47.1310   32.9090   46.7050 N   0  0  0  0  0  0  0  0  0  0  0  0
   48.2400   34.9030   41.7490 C   0  0  0  0  0  0  0  0  0  0  0  0
   48.8160   36.0320   41.7160 O   0  0  0  0  0  0  0  0  0  0  0  0
   48.6580   33.8880   40.9110 O   0  0  0  0  0  0  0  0  0  0  0  0
   47.9410   33.6830   39.7210 C   0  0  0  0  0  0  0  0  0  0  0  0
   48.5000   34.3670   38.6430 C   0  0  0  0  0  0  0  0  0  0  0  0
   47.9290   34.2810   37.4010 C   0  0  0  0  0  0  0  0  0  0  0  0
   46.7850   33.5060   37.2170 C   0  0  0  0  0  0  0  0  0  0  0  0
   46.2360   32.8280   38.2980 C   0  0  0  0  0  0  0  0  0  0  0  0
   46.8180   32.9210   39.5460 C   0  0  0  0  0  0  0  0  0  0  0  0
   45.8621   36.1365   41.6553 H   0  0  0  0  0  0  0  0  0  0  0  0
   43.9630   35.7521   43.3019 H   0  0  0  0  0  0  0  0  0  0  0  0
   45.2516   30.9907   44.9636 H   0  0  0  0  0  0  0  0  0  0  0  0
   47.5516   31.7041   48.4462 H   0  0  0  0  0  0  0  0  0  0  0  0
   49.4028   34.9780   38.7901 H   0  0  0  0  0  0  0  0  0  0  0  0
   48.3717   34.8217   36.5515 H   0  0  0  0  0  0  0  0  0  0  0  0
   46.3203   33.4319   36.2228 H   0  0  0  0  0  0  0  0  0  0  0  0
   45.3337   32.2145   38.1588 H   0  0  0  0  0  0  0  0  0  0  0  0
   46.3794   32.3830   40.3993 H   0  0  0  0  0  0  0  0  0  0  0  0
  1  6  1  0
  2  1  2  0
  2  3  1  0
  3  4  2  0
  4  5  1  0
  5  7  1  0
  6  5  2  0
  7  8  1  0
  7 11  1  0
  8  9  2  0
  9 10  1  0
 11 10  2  0
 12  1  1  0
 13 12  2  0
 14 12  1  0
 15 14  1  0
 16 15  2  0
 17 16  1  0
 18 17  2  0
 18 19  1  0
 19 20  2  0
 20 15  1  0
  2 21  1  0
  3 22  1  0
  8 23  1  0
 10 24  1  0
 16 25  1  0
 17 26  1  0
 18 27  1  0
 19 28  1  0
 20 29  1  0
M  ISO  8  21  14  22  14  23  14  24  14  25  14  26  14  27  14  28  14
M  ISO  1  29  14
M  END
>  <minimizedAffinity>  (1) 
-4.95200109

>  <minimizedRMSD>  (1) 
4.23415565

$$$$
