
     RDKit          3D

 31 33  0  0  0  0  0  0  0  0999 V2000
   47.8620   34.8780   41.6250 C   0  0  0  0  0  0  0  0  0  0  0  0
   47.6140   34.3960   40.2470 C   0  0  0  0  0  0  0  0  0  0  0  0
   48.4120   34.6890   39.1710 C   0  0  0  0  0  0  0  0  0  0  0  0
   48.2490   34.2720   37.8770 C   0  0  0  0  0  0  0  0  0  0  0  0
   47.1680   33.4820   37.6710 N   0  0  0  0  0  0  0  0  0  0  0  0
   46.3390   33.1600   38.7190 C   0  0  0  0  0  0  0  0  0  0  0  0
   46.5350   33.5930   39.9790 N   0  0  0  0  0  0  0  0  0  0  0  0
   45.1560   32.2850   38.4420 C   0  0  0  0  0  0  0  0  0  0  0  0
   43.8390   32.9020   38.1470 C   0  0  0  0  0  0  0  0  0  0  0  0
   44.6170   32.1240   37.0830 C   0  0  0  0  0  0  0  0  0  0  0  0
   47.3490   33.8500   42.5990 C   0  0  0  0  0  0  0  0  0  0  0  0
   44.6880   36.0150   44.2010 C   0  0  0  0  0  0  0  0  0  0  0  0
   45.6040   35.5340   43.2580 C   0  0  0  0  0  0  0  0  0  0  0  0
   46.3580   34.4130   43.5470 C   0  0  0  0  0  0  0  0  0  0  0  0
   46.1820   33.8110   44.7500 N   0  0  0  0  0  0  0  0  0  0  0  0
   45.2790   34.3010   45.6570 C   0  0  0  0  0  0  0  0  0  0  0  0
   44.5530   35.3920   45.3620 N   0  0  0  0  0  0  0  0  0  0  0  0
   47.3368   35.8315   41.7832 H   0  0  0  0  0  0  0  0  0  0  0  0
   48.9403   35.0325   41.7783 H   0  0  0  0  0  0  0  0  0  0  0  0
   49.2819   35.3321   39.3700 H   0  0  0  0  0  0  0  0  0  0  0  0
   48.9402   34.5557   37.0697 H   0  0  0  0  0  0  0  0  0  0  0  0
   45.5273   31.5719   39.1928 H   0  0  0  0  0  0  0  0  0  0  0  0
   42.9199   32.4809   38.5804 H   0  0  0  0  0  0  0  0  0  0  0  0
   43.4067   33.9104   38.2260 H   0  0  0  0  0  0  0  0  0  0  0  0
   44.2574   31.1411   36.7445 H   0  0  0  0  0  0  0  0  0  0  0  0
   44.9802   32.3377   36.0669 H   0  0  0  0  0  0  0  0  0  0  0  0
   46.8735   33.0347   42.0340 H   0  0  0  0  0  0  0  0  0  0  0  0
   48.2059   33.4880   43.1861 H   0  0  0  0  0  0  0  0  0  0  0  0
   44.0830   36.9064   43.9788 H   0  0  0  0  0  0  0  0  0  0  0  0
   45.7228   36.0460   42.2917 H   0  0  0  0  0  0  0  0  0  0  0  0
   45.1486   33.8003   46.6277 H   0  0  0  0  0  0  0  0  0  0  0  0
  1 11  1  0
  2  1  1  0
  3  2  2  0
  4  3  1  0
  5  4  2  0
  5  6  1  0
  6  7  2  0
  7  2  1  0
  8  6  1  0
  9  8  1  0
 10  9  1  0
 10  8  1  0
 11 14  1  0
 12 17  2  0
 13 14  2  0
 13 12  1  0
 14 15  1  0
 15 16  2  0
 17 16  1  0
  1 18  1  0
  1 19  1  0
  3 20  1  0
  4 21  1  0
  8 22  1  0
  9 23  1  0
  9 24  1  0
 10 25  1  0
 10 26  1  0
 11 27  1  0
 11 28  1  0
 12 29  1  0
 13 30  1  0
 16 31  1  0
M  ISO  8  18   8  19   8  20  14  21  14  22  13  23  13  24  13  25  13
M  ISO  6  26  13  27   8  28   8  29  14  30  14  31  14
M  END
>  <minimizedAffinity>  (1) 
-4.47523546

>  <minimizedRMSD>  (1) 
0.0724188611

$$$$
