
     RDKit          3D

 16 16  0  0  0  0  0  0  0  0999 V2000
   47.9880   34.7630   42.2510 C   0  0  0  0  0  0  0  0  0  0  0  0
   47.3380   34.5850   41.0170 C   0  0  0  0  0  0  0  0  0  0  0  0
   46.1140   33.8890   41.0480 C   0  0  0  0  0  0  0  0  0  0  0  0
   45.6340   33.4350   42.2380 N   0  0  0  0  0  0  0  0  0  0  0  0
   46.3120   33.6410   43.3920 C   0  0  0  0  0  0  0  0  0  0  0  0
   47.4700   34.2950   43.3840 N   0  0  0  0  0  0  0  0  0  0  0  0
   49.2660   35.4840   42.2520 C   0  0  0  0  0  0  0  0  0  0  0  0
   49.4330   36.4500   41.4520 O   0  0  0  0  0  0  0  0  0  0  0  0
   50.2620   35.0930   43.1260 O   0  0  0  0  0  0  0  0  0  0  0  0
   45.7500   33.1260   44.6630 C   0  0  0  0  0  0  0  0  0  0  0  0
   47.7627   34.9688   40.0777 H   0  0  0  0  0  0  0  0  0  0  0  0
   45.5512   33.7140   40.1192 H   0  0  0  0  0  0  0  0  0  0  0  0
   51.1283   35.5721   43.1355 H   0  0  0  0  0  0  0  0  0  0  0  0
   46.2667   33.5995   45.5109 H   0  0  0  0  0  0  0  0  0  0  0  0
   44.6763   33.3603   44.7107 H   0  0  0  0  0  0  0  0  0  0  0  0
   45.8899   32.0360   44.7107 H   0  0  0  0  0  0  0  0  0  0  0  0
  1  7  1  0
  1  6  2  0
  2  3  2  0
  2  1  1  0
  3  4  1  0
  4  5  2  0
  5 10  1  0
  6  5  1  0
  7  9  1  0
  8  7  2  0
  2 11  1  0
  3 12  1  0
  9 13  1  0
 10 14  1  0
 10 15  1  0
 10 16  1  0
M  ISO  6  11  14  12  14  13   3  14   8  15   8  16   8
M  END
>  <minimizedAffinity>  (1) 
-3.752918

>  <minimizedRMSD>  (1) 
0.0763075054

$$$$
