
     RDKit          3D

 33 36  0  0  0  0  0  0  0  0999 V2000
   47.4160   33.8180   41.4870 C   0  0  0  0  0  0  0  0  0  0  0  0
   47.2780   34.8300   42.4160 C   0  0  0  0  0  0  0  0  0  0  0  0
   46.0050   35.3640   42.6040 C   0  0  0  0  0  0  0  0  0  0  0  0
   44.9660   34.8610   41.8650 N   0  0  0  0  0  0  0  0  0  0  0  0
   45.1590   33.8780   40.9770 C   0  0  0  0  0  0  0  0  0  0  0  0
   46.3810   33.3470   40.7790 N   0  0  0  0  0  0  0  0  0  0  0  0
   44.0620   33.3700   40.2180 N   0  0  0  0  0  0  0  0  0  0  0  0
   43.4380   33.9660   39.1800 C   0  0  0  0  0  0  0  0  0  0  0  0
   42.4380   33.1500   38.7300 N   0  0  0  0  0  0  0  0  0  0  0  0
   42.4870   32.0690   39.5210 C   0  0  0  0  0  0  0  0  0  0  0  0
   43.4610   32.2370   40.3890 N   0  0  0  0  0  0  0  0  0  0  0  0
   48.7570   33.2350   41.2670 C   0  0  0  0  0  0  0  0  0  0  0  0
   49.7510   33.8190   41.7940 O   0  0  0  0  0  0  0  0  0  0  0  0
   48.9000   32.0920   40.5110 O   0  0  0  0  0  0  0  0  0  0  0  0
   49.5990   32.0650   39.2930 C   0  0  0  0  0  0  0  0  0  0  0  0
   49.2410   32.3050   37.9710 C   0  0  0  0  0  0  0  0  0  0  0  0
   50.3510   32.1240   37.2240 N   0  0  0  0  0  0  0  0  0  0  0  0
   51.3730   31.7830   38.0240 C   0  0  0  0  0  0  0  0  0  0  0  0
   52.6950   31.5000   37.7150 C   0  0  0  0  0  0  0  0  0  0  0  0
   53.5980   31.1690   38.6840 C   0  0  0  0  0  0  0  0  0  0  0  0
   53.1910   31.1140   40.0050 C   0  0  0  0  0  0  0  0  0  0  0  0
   51.8730   31.3990   40.2980 C   0  0  0  0  0  0  0  0  0  0  0  0
   50.9430   31.7350   39.3340 C   0  0  0  0  0  0  0  0  0  0  0  0
   48.1418   35.2012   42.9870 H   0  0  0  0  0  0  0  0  0  0  0  0
   45.8372   36.1727   43.3306 H   0  0  0  0  0  0  0  0  0  0  0  0
   43.6935   34.9512   38.7628 H   0  0  0  0  0  0  0  0  0  0  0  0
   41.8262   31.1920   39.4555 H   0  0  0  0  0  0  0  0  0  0  0  0
   48.2436   32.5883   37.6038 H   0  0  0  0  0  0  0  0  0  0  0  0
   50.4049   32.2308   36.2010 H   0  0  0  0  0  0  0  0  0  0  0  0
   53.0233   31.5432   36.6660 H   0  0  0  0  0  0  0  0  0  0  0  0
   54.6417   30.9476   38.4162 H   0  0  0  0  0  0  0  0  0  0  0  0
   53.9009   30.8495   40.8026 H   0  0  0  0  0  0  0  0  0  0  0  0
   51.5481   31.3566   41.3481 H   0  0  0  0  0  0  0  0  0  0  0  0
  1  2  2  0
  2  3  1  0
  4  3  2  0
  5  4  1  0
  6  5  2  0
  6  1  1  0
  7 11  1  0
  7  5  1  0
  8  7  1  0
  9  8  2  0
  9 10  1  0
 10 11  2  0
 12  1  1  0
 12 13  2  0
 14 12  1  0
 15 23  1  0
 15 14  1  0
 16 15  2  0
 17 16  1  0
 17 18  1  0
 18 23  2  0
 19 18  1  0
 19 20  2  0
 20 21  1  0
 21 22  2  0
 23 22  1  0
  2 24  1  0
  3 25  1  0
  8 26  1  0
 10 27  1  0
 16 28  1  0
 17 29  1  0
 19 30  1  0
 20 31  1  0
 21 32  1  0
 22 33  1  0
M  ISO  8  24  14  25  14  26  14  27  14  28  14  29   9  30  14  31  14
M  ISO  2  32  14  33  14
M  END
>  <minimizedAffinity>  (1) 
-4.54595423

>  <minimizedRMSD>  (1) 
5.82198811

$$$$
