
     RDKit          3D

 22 23  0  0  0  0  0  0  0  0999 V2000
   46.5460   34.3260   43.7310 C   0  0  0  0  0  0  0  0  0  0  0  0
   45.4910   35.2250   43.8110 C   0  0  0  0  0  0  0  0  0  0  0  0
   44.7140   35.2200   44.9620 C   0  0  0  0  0  0  0  0  0  0  0  0
   45.0350   34.3250   45.9510 N   0  0  0  0  0  0  0  0  0  0  0  0
   46.0600   33.4730   45.8370 C   0  0  0  0  0  0  0  0  0  0  0  0
   46.7990   33.4850   44.7310 N   0  0  0  0  0  0  0  0  0  0  0  0
   46.3610   32.5570   46.8900 N   0  0  0  0  0  0  0  0  0  0  0  0
   45.6850   31.4370   47.2110 C   0  0  0  0  0  0  0  0  0  0  0  0
   46.2950   30.8450   48.2790 N   0  0  0  0  0  0  0  0  0  0  0  0
   47.3360   31.6470   48.5660 C   0  0  0  0  0  0  0  0  0  0  0  0
   47.3650   32.6700   47.7280 N   0  0  0  0  0  0  0  0  0  0  0  0
   47.3930   34.3050   42.5180 C   0  0  0  0  0  0  0  0  0  0  0  0
   48.6180   34.0410   42.6760 O   0  0  0  0  0  0  0  0  0  0  0  0
   46.8620   34.5600   41.2840 O   0  0  0  0  0  0  0  0  0  0  0  0
   47.6230   34.2950   40.1140 C   0  0  0  0  0  0  0  0  0  0  0  0
   45.2768   35.9210   42.9866 H   0  0  0  0  0  0  0  0  0  0  0  0
   43.8671   35.9124   45.0772 H   0  0  0  0  0  0  0  0  0  0  0  0
   44.7883   31.0610   46.6967 H   0  0  0  0  0  0  0  0  0  0  0  0
   48.0576   31.4770   49.3787 H   0  0  0  0  0  0  0  0  0  0  0  0
   48.6260   33.9457   40.4003 H   0  0  0  0  0  0  0  0  0  0  0  0
   47.1207   33.5189   39.5179 H   0  0  0  0  0  0  0  0  0  0  0  0
   47.7115   35.2152   39.5179 H   0  0  0  0  0  0  0  0  0  0  0  0
  1  2  2  0
  1  6  1  0
  2  3  1  0
  3  4  2  0
  5  4  1  0
  5  7  1  0
  6  5  2  0
  7  8  1  0
  7 11  1  0
  8  9  2  0
  9 10  1  0
 11 10  2  0
 12 13  2  0
 12  1  1  0
 14 12  1  0
 15 14  1  0
  2 16  1  0
  3 17  1  0
  8 18  1  0
 10 19  1  0
 15 20  1  0
 15 21  1  0
 15 22  1  0
M  ISO  7  16  14  17  14  18  14  19  14  20   8  21   8  22   8
M  END
>  <minimizedAffinity>  (1) 
-4.41535854

>  <minimizedRMSD>  (1) 
2.7349236

$$$$
