
     RDKit          3D

 22 23  0  0  0  0  0  0  0  0999 V2000
   47.6770   34.5310   42.8740 C   0  0  0  0  0  0  0  0  0  0  0  0
   46.5260   35.0570   42.3260 C   0  0  0  0  0  0  0  0  0  0  0  0
   45.2970   34.7240   42.9160 C   0  0  0  0  0  0  0  0  0  0  0  0
   45.2980   33.8960   44.0020 N   0  0  0  0  0  0  0  0  0  0  0  0
   46.4570   33.4050   44.5000 C   0  0  0  0  0  0  0  0  0  0  0  0
   47.6140   33.7260   43.9360 N   0  0  0  0  0  0  0  0  0  0  0  0
   46.4240   32.5470   45.6310 N   0  0  0  0  0  0  0  0  0  0  0  0
   46.0540   31.2550   45.6920 C   0  0  0  0  0  0  0  0  0  0  0  0
   46.1720   30.8070   46.9720 N   0  0  0  0  0  0  0  0  0  0  0  0
   46.6180   31.8570   47.6700 C   0  0  0  0  0  0  0  0  0  0  0  0
   46.7610   32.8840   46.8530 N   0  0  0  0  0  0  0  0  0  0  0  0
   48.9680   34.8670   42.2730 C   0  0  0  0  0  0  0  0  0  0  0  0
   49.0240   35.8580   41.4950 O   0  0  0  0  0  0  0  0  0  0  0  0
   50.0900   34.1070   42.5600 O   0  0  0  0  0  0  0  0  0  0  0  0
   50.3080   32.9280   41.8310 C   0  0  0  0  0  0  0  0  0  0  0  0
   49.4780   33.0280   40.7060 F   0  0  0  0  0  0  0  0  0  0  0  0
   49.7950   31.8400   42.5430 F   0  0  0  0  0  0  0  0  0  0  0  0
   51.6160   32.7160   41.5030 F   0  0  0  0  0  0  0  0  0  0  0  0
   46.5701   35.7201   41.4495 H   0  0  0  0  0  0  0  0  0  0  0  0
   44.3538   35.1211   42.5127 H   0  0  0  0  0  0  0  0  0  0  0  0
   45.7090   30.6530   44.8385 H   0  0  0  0  0  0  0  0  0  0  0  0
   46.8310   31.8638   48.7492 H   0  0  0  0  0  0  0  0  0  0  0  0
  1  6  2  0
  2  1  1  0
  2  3  2  0
  3  4  1  0
  4  5  2  0
  5  7  1  0
  6  5  1  0
  7  8  1  0
  7 11  1  0
  8  9  2  0
  9 10  1  0
 11 10  2  0
 12 14  1  0
 12  1  1  0
 13 12  2  0
 15 17  1  0
 15 14  1  0
 16 15  1  0
 18 15  1  0
  2 19  1  0
  3 20  1  0
  8 21  1  0
 10 22  1  0
M  ISO  4  19  14  20  14  21  14  22  14
M  END
>  <minimizedAffinity>  (1) 
-4.63315248

>  <minimizedRMSD>  (1) 
2.06871724

$$$$
