
     RDKit          3D

 25 26  0  0  0  0  0  0  0  0999 V2000
   47.7730   34.5400   42.8470 C   0  0  0  0  0  0  0  0  0  0  0  0
   46.6840   35.1120   42.2290 C   0  0  0  0  0  0  0  0  0  0  0  0
   45.4050   34.7750   42.6930 C   0  0  0  0  0  0  0  0  0  0  0  0
   45.2950   33.8980   43.7330 N   0  0  0  0  0  0  0  0  0  0  0  0
   46.3950   33.3650   44.3040 C   0  0  0  0  0  0  0  0  0  0  0  0
   47.6150   33.6810   43.8680 N   0  0  0  0  0  0  0  0  0  0  0  0
   46.2510   32.4540   45.3840 N   0  0  0  0  0  0  0  0  0  0  0  0
   45.8660   31.1670   45.3560 C   0  0  0  0  0  0  0  0  0  0  0  0
   45.8600   30.6490   46.6060 N   0  0  0  0  0  0  0  0  0  0  0  0
   46.2530   31.6590   47.3960 C   0  0  0  0  0  0  0  0  0  0  0  0
   46.4830   32.7300   46.6480 N   0  0  0  0  0  0  0  0  0  0  0  0
   46.4390   31.6940   48.8800 C   0  0  0  0  0  0  0  0  0  0  0  0
   47.7420   31.6240   49.2500 F   0  0  0  0  0  0  0  0  0  0  0  0
   45.8310   32.8160   49.4190 F   0  0  0  0  0  0  0  0  0  0  0  0
   45.7760   30.6070   49.4570 F   0  0  0  0  0  0  0  0  0  0  0  0
   49.1240   34.8820   42.3740 C   0  0  0  0  0  0  0  0  0  0  0  0
   49.2820   35.9450   41.7350 O   0  0  0  0  0  0  0  0  0  0  0  0
   50.1890   34.0240   42.6430 O   0  0  0  0  0  0  0  0  0  0  0  0
   50.3530   32.8930   41.8450 C   0  0  0  0  0  0  0  0  0  0  0  0
   49.5090   33.0860   40.7390 F   0  0  0  0  0  0  0  0  0  0  0  0
   49.8300   31.7810   42.4960 F   0  0  0  0  0  0  0  0  0  0  0  0
   51.6530   32.6630   41.4690 F   0  0  0  0  0  0  0  0  0  0  0  0
   46.8141   35.8150   41.3930 H   0  0  0  0  0  0  0  0  0  0  0  0
   44.5075   35.2089   42.2280 H   0  0  0  0  0  0  0  0  0  0  0  0
   45.5941   30.6128   44.4455 H   0  0  0  0  0  0  0  0  0  0  0  0
  1  6  2  0
  2  3  2  0
  2  1  1  0
  3  4  1  0
  4  5  2  0
  5  7  1  0
  6  5  1  0
  7 11  1  0
  8  7  1  0
  8  9  2  0
  9 10  1  0
 10 12  1  0
 11 10  2  0
 12 13  1  0
 12 14  1  0
 12 15  1  0
 16 18  1  0
 16  1  1  0
 17 16  2  0
 19 21  1  0
 19 18  1  0
 20 19  1  0
 22 19  1  0
  2 23  1  0
  3 24  1  0
  8 25  1  0
M  ISO  3  23  14  24  14  25  14
M  END
>  <minimizedAffinity>  (1) 
-5.67478561

>  <minimizedRMSD>  (1) 
0.497657537

$$$$
