
     RDKit          3D

 29 31  0  0  0  0  0  0  0  0999 V2000
   47.2970   34.6360   42.6350 C   0  0  0  0  0  0  0  0  0  0  0  0
   46.3570   35.6340   42.6670 C   0  0  0  0  0  0  0  0  0  0  0  0
   45.0610   35.3090   43.1190 C   0  0  0  0  0  0  0  0  0  0  0  0
   44.8010   34.0240   43.5020 N   0  0  0  0  0  0  0  0  0  0  0  0
   45.7710   33.0770   43.4480 C   0  0  0  0  0  0  0  0  0  0  0  0
   46.9860   33.3890   43.0230 N   0  0  0  0  0  0  0  0  0  0  0  0
   45.4740   31.7490   43.8510 N   0  0  0  0  0  0  0  0  0  0  0  0
   44.7660   30.8140   43.1990 C   0  0  0  0  0  0  0  0  0  0  0  0
   44.7200   29.6790   43.9340 N   0  0  0  0  0  0  0  0  0  0  0  0
   45.4210   29.9560   45.0500 C   0  0  0  0  0  0  0  0  0  0  0  0
   45.8630   31.1960   44.9810 N   0  0  0  0  0  0  0  0  0  0  0  0
   45.6030   28.9640   46.1110 C   0  0  0  0  0  0  0  0  0  0  0  0
   44.6980   28.5250   47.0520 C   0  0  0  0  0  0  0  0  0  0  0  0
   45.2940   27.5910   47.8490 N   0  0  0  0  0  0  0  0  0  0  0  0
   46.5750   27.4540   47.3970 C   0  0  0  0  0  0  0  0  0  0  0  0
   46.7370   28.2830   46.3600 N   0  0  0  0  0  0  0  0  0  0  0  0
   48.6410   34.9540   42.1710 C   0  0  0  0  0  0  0  0  0  0  0  0
   48.7860   35.7860   41.2460 O   0  0  0  0  0  0  0  0  0  0  0  0
   49.7510   34.3400   42.7500 O   0  0  0  0  0  0  0  0  0  0  0  0
   50.2900   33.2030   42.1350 C   0  0  0  0  0  0  0  0  0  0  0  0
   49.6010   33.0790   40.9120 F   0  0  0  0  0  0  0  0  0  0  0  0
   49.9180   32.0530   42.8430 F   0  0  0  0  0  0  0  0  0  0  0  0
   51.6380   33.2470   41.9660 F   0  0  0  0  0  0  0  0  0  0  0  0
   46.6062   36.6573   42.3497 H   0  0  0  0  0  0  0  0  0  0  0  0
   44.2741   36.0764   43.1622 H   0  0  0  0  0  0  0  0  0  0  0  0
   44.2939   30.9499   42.2148 H   0  0  0  0  0  0  0  0  0  0  0  0
   43.6586   28.8725   47.1463 H   0  0  0  0  0  0  0  0  0  0  0  0
   47.3391   26.7806   47.8125 H   0  0  0  0  0  0  0  0  0  0  0  0
   47.6109   28.3863   45.8246 H   0  0  0  0  0  0  0  0  0  0  0  0
  1  2  2  0
  1  6  1  0
  2  3  1  0
  3  4  2  0
  5  4  1  0
  5  7  1  0
  6  5  2  0
  7 11  1  0
  8  7  1  0
  8  9  2  0
  9 10  1  0
 10 12  1  0
 11 10  2  0
 12 16  1  0
 12 13  2  0
 13 14  1  0
 15 14  2  0
 16 15  1  0
 17  1  1  0
 17 19  1  0
 18 17  2  0
 20 19  1  0
 20 22  1  0
 21 20  1  0
 23 20  1  0
  2 24  1  0
  3 25  1  0
  8 26  1  0
 13 27  1  0
 15 28  1  0
 16 29  1  0
M  ISO  6  24  14  25  14  26  14  27  14  28  14  29   9
M  END
>  <minimizedAffinity>  (1) 
-4.41184092

>  <minimizedRMSD>  (1) 
2.78653812

$$$$
