
     RDKit          3D

 26 27  0  0  0  0  0  0  0  0999 V2000
   47.8460   34.8630   41.6110 C   0  0  0  0  0  0  0  0  0  0  0  0
   47.5940   34.3810   40.2350 C   0  0  0  0  0  0  0  0  0  0  0  0
   48.3940   34.6630   39.1580 C   0  0  0  0  0  0  0  0  0  0  0  0
   48.2200   34.2430   37.8620 C   0  0  0  0  0  0  0  0  0  0  0  0
   47.1210   33.4630   37.6570 N   0  0  0  0  0  0  0  0  0  0  0  0
   46.2970   33.1610   38.7120 C   0  0  0  0  0  0  0  0  0  0  0  0
   46.5010   33.5920   39.9710 N   0  0  0  0  0  0  0  0  0  0  0  0
   45.1580   32.3370   38.4380 N   0  0  0  0  0  0  0  0  0  0  0  0
   47.3300   33.8400   42.5890 C   0  0  0  0  0  0  0  0  0  0  0  0
   44.6870   36.0170   44.2000 C   0  0  0  0  0  0  0  0  0  0  0  0
   45.5970   35.5270   43.2600 C   0  0  0  0  0  0  0  0  0  0  0  0
   46.3500   34.4050   43.5450 C   0  0  0  0  0  0  0  0  0  0  0  0
   46.1690   33.8130   44.7520 N   0  0  0  0  0  0  0  0  0  0  0  0
   45.2800   34.3020   45.6580 C   0  0  0  0  0  0  0  0  0  0  0  0
   44.5600   35.3780   45.3800 N   0  0  0  0  0  0  0  0  0  0  0  0
   47.3257   35.8194   41.7682 H   0  0  0  0  0  0  0  0  0  0  0  0
   48.9255   35.0113   41.7619 H   0  0  0  0  0  0  0  0  0  0  0  0
   49.2724   35.2956   39.3534 H   0  0  0  0  0  0  0  0  0  0  0  0
   48.9134   34.5148   37.0525 H   0  0  0  0  0  0  0  0  0  0  0  0
   44.5108   32.0837   39.1982 H   0  0  0  0  0  0  0  0  0  0  0  0
   44.9861   31.9977   37.4808 H   0  0  0  0  0  0  0  0  0  0  0  0
   46.8449   33.0288   42.0263 H   0  0  0  0  0  0  0  0  0  0  0  0
   48.1889   33.4749   43.1713 H   0  0  0  0  0  0  0  0  0  0  0  0
   44.0836   36.9102   43.9806 H   0  0  0  0  0  0  0  0  0  0  0  0
   45.7139   36.0355   42.2916 H   0  0  0  0  0  0  0  0  0  0  0  0
   45.1583   33.7998   46.6290 H   0  0  0  0  0  0  0  0  0  0  0  0
  1  9  1  0
  2  1  1  0
  3  2  2  0
  4  3  1  0
  5  4  2  0
  5  6  1  0
  6  7  2  0
  7  2  1  0
  8  6  1  0
  9 12  1  0
 10 15  2  0
 11 12  2  0
 11 10  1  0
 12 13  1  0
 13 14  2  0
 15 14  1  0
  1 16  1  0
  1 17  1  0
  3 18  1  0
  4 19  1  0
  8 20  1  0
  8 21  1  0
  9 22  1  0
  9 23  1  0
 10 24  1  0
 11 25  1  0
 14 26  1  0
M  ISO  8  16   8  17   8  18  14  19  14  22   8  23   8  24  14  25  14
M  ISO  1  26  14
M  END
>  <minimizedAffinity>  (1) 
-4.37865448

>  <minimizedRMSD>  (1) 
0.0201249309

$$$$
