
     RDKit          3D

 41 44  0  0  1  0  0  0  0  0999 V2000
   47.3860   34.6430   42.6190 C   0  0  0  0  0  0  0  0  0  0  0  0
   46.4550   35.6620   42.6600 C   0  0  0  0  0  0  0  0  0  0  0  0
   45.1820   35.3890   43.1730 C   0  0  0  0  0  0  0  0  0  0  0  0
   44.9100   34.1270   43.6140 N   0  0  0  0  0  0  0  0  0  0  0  0
   45.8590   33.1660   43.5500 C   0  0  0  0  0  0  0  0  0  0  0  0
   47.0570   33.4360   43.0630 N   0  0  0  0  0  0  0  0  0  0  0  0
   45.5600   31.8450   44.0160 N   0  0  0  0  0  0  0  0  0  0  0  0
   44.8090   30.8980   43.4030 C   0  0  0  0  0  0  0  0  0  0  0  0
   44.7790   29.7850   44.1900 N   0  0  0  0  0  0  0  0  0  0  0  0
   45.5120   30.0880   45.2570 C   0  0  0  0  0  0  0  0  0  0  0  0
   45.9630   31.3190   45.1250 N   0  0  0  0  0  0  0  0  0  0  0  0
   45.7040   29.1310   46.3150 N   0  0  0  0  0  0  0  0  0  0  0  0
   46.9470   28.8630   46.9880 C   0  0  0  0  0  0  0  0  0  0  0  0
   46.7920   27.5140   47.5850 C   0  0  0  0  0  0  0  0  0  0  0  0
   45.3030   27.3380   47.7340 C   0  0  0  0  0  0  0  0  0  0  0  0
   44.6160   28.3170   46.8200 C   0  0  2  0  0  0  0  0  0  0  0  0
   44.0950   27.5230   45.6710 C   0  0  0  0  0  0  0  0  0  0  0  0
   44.6260   26.5140   44.9410 C   0  0  0  0  0  0  0  0  0  0  0  0
   43.7170   26.1420   43.9960 N   0  0  0  0  0  0  0  0  0  0  0  0
   42.6250   26.9360   44.1600 C   0  0  0  0  0  0  0  0  0  0  0  0
   42.8570   27.7780   45.1820 N   0  0  0  0  0  0  0  0  0  0  0  0
   48.7130   34.9200   42.0860 C   0  0  0  0  0  0  0  0  0  0  0  0
   48.8230   35.7340   41.1160 O   0  0  0  0  0  0  0  0  0  0  0  0
   49.8280   34.2970   42.6390 O   0  0  0  0  0  0  0  0  0  0  0  0
   50.3020   33.1190   42.0530 C   0  0  0  0  0  0  0  0  0  0  0  0
   49.5780   32.9910   40.8600 F   0  0  0  0  0  0  0  0  0  0  0  0
   49.8990   32.0200   42.8250 F   0  0  0  0  0  0  0  0  0  0  0  0
   51.6510   33.0920   41.8380 F   0  0  0  0  0  0  0  0  0  0  0  0
   46.7091   36.6686   42.2965 H   0  0  0  0  0  0  0  0  0  0  0  0
   44.4156   36.1767   43.2198 H   0  0  0  0  0  0  0  0  0  0  0  0
   44.3065   31.0090   42.4308 H   0  0  0  0  0  0  0  0  0  0  0  0
   47.7818   28.8727   46.2717 H   0  0  0  0  0  0  0  0  0  0  0  0
   47.1701   29.6235   47.7508 H   0  0  0  0  0  0  0  0  0  0  0  0
   47.2102   26.7439   46.9202 H   0  0  0  0  0  0  0  0  0  0  0  0
   47.3234   27.4163   48.5432 H   0  0  0  0  0  0  0  0  0  0  0  0
   45.0207   26.3112   47.4584 H   0  0  0  0  0  0  0  0  0  0  0  0
   45.0031   27.5192   48.7767 H   0  0  0  0  0  0  0  0  0  0  0  0
   43.8141   28.8982   47.2988 H   0  0  0  0  0  0  0  0  0  0  0  0
   45.6219   26.0699   45.0859 H   0  0  0  0  0  0  0  0  0  0  0  0
   41.7057   26.8959   43.5572 H   0  0  0  0  0  0  0  0  0  0  0  0
   42.2055   28.4943   45.5332 H   0  0  0  0  0  0  0  0  0  0  0  0
  1  2  2  0
  1  6  1  0
  2  3  1  0
  3  4  2  0
  5  4  1  0
  5  7  1  0
  6  5  2  0
  7 11  1  0
  8  7  1  0
  8  9  2  0
  9 10  1  0
 10 12  1  0
 11 10  2  0
 12 16  1  0
 12 13  1  0
 13 14  1  0
 14 15  1  0
 16 15  1  0
 17 16  1  0
 18 17  2  0
 19 20  2  0
 19 18  1  0
 20 21  1  0
 21 17  1  0
 22  1  1  0
 22 24  1  0
 23 22  2  0
 25 24  1  0
 25 27  1  0
 26 25  1  0
 28 25  1  0
  2 29  1  0
  3 30  1  0
  8 31  1  0
 13 32  1  0
 13 33  1  0
 14 34  1  0
 14 35  1  0
 15 36  1  0
 15 37  1  0
 16 38  1  1
 18 39  1  0
 20 40  1  0
 21 41  1  0
M  ISO  8  29  14  30  14  31  14  32  13  33  13  34  13  35  13  36  13
M  ISO  5  37  13  38  13  39  14  40  14  41   9
M  END
>  <minimizedAffinity>  (1) 
-4.88736916

>  <minimizedRMSD>  (1) 
0.327935398

$$$$
