
     RDKit          3D

 36 38  0  0  1  0  0  0  0  0999 V2000
   47.2770   34.4600   42.6740 C   0  0  0  0  0  0  0  0  0  0  0  0
   46.2470   35.3780   42.8700 C   0  0  0  0  0  0  0  0  0  0  0  0
   45.0630   34.9420   43.4940 C   0  0  0  0  0  0  0  0  0  0  0  0
   44.9800   33.6360   43.8800 N   0  0  0  0  0  0  0  0  0  0  0  0
   46.0090   32.7820   43.6680 C   0  0  0  0  0  0  0  0  0  0  0  0
   47.1150   33.2120   43.0790 N   0  0  0  0  0  0  0  0  0  0  0  0
   45.8880   31.4260   44.0830 N   0  0  0  0  0  0  0  0  0  0  0  0
   45.1840   30.4310   43.5130 C   0  0  0  0  0  0  0  0  0  0  0  0
   45.3510   29.2870   44.2440 N   0  0  0  0  0  0  0  0  0  0  0  0
   46.1670   29.6300   45.2540 C   0  0  0  0  0  0  0  0  0  0  0  0
   46.4650   30.8950   45.1300 N   0  0  0  0  0  0  0  0  0  0  0  0
   46.5570   28.6540   46.2290 N   0  0  0  0  0  0  0  0  0  0  0  0
   47.9110   28.4540   46.7150 C   0  0  0  0  0  0  0  0  0  0  0  0
   47.9330   27.0470   47.2160 C   0  0  0  0  0  0  0  0  0  0  0  0
   46.5190   26.8270   47.6520 C   0  0  0  0  0  0  0  0  0  0  0  0
   45.6370   27.7400   46.8500 C   0  0  1  0  0  0  0  0  0  0  0  0
   44.5910   28.4060   47.6360 C   0  0  0  0  0  0  0  0  0  0  0  0
   45.0720   29.2230   48.4360 O   0  0  0  0  0  0  0  0  0  0  0  0
   48.4910   34.9120   42.0320 C   0  0  0  0  0  0  0  0  0  0  0  0
   48.4120   35.6210   40.9950 O   0  0  0  0  0  0  0  0  0  0  0  0
   49.7310   34.5580   42.5690 O   0  0  0  0  0  0  0  0  0  0  0  0
   50.3360   33.3630   42.1320 C   0  0  0  0  0  0  0  0  0  0  0  0
   49.7230   33.0640   40.9160 F   0  0  0  0  0  0  0  0  0  0  0  0
   49.9540   32.2980   42.9650 F   0  0  0  0  0  0  0  0  0  0  0  0
   51.6930   33.4380   42.0270 F   0  0  0  0  0  0  0  0  0  0  0  0
   46.3571   36.4227   42.5435 H   0  0  0  0  0  0  0  0  0  0  0  0
   44.2269   35.6358   43.6659 H   0  0  0  0  0  0  0  0  0  0  0  0
   44.5716   30.5229   42.6038 H   0  0  0  0  0  0  0  0  0  0  0  0
   48.6385   28.5867   45.9007 H   0  0  0  0  0  0  0  0  0  0  0  0
   48.1822   29.1776   47.4978 H   0  0  0  0  0  0  0  0  0  0  0  0
   48.2144   26.3462   46.4162 H   0  0  0  0  0  0  0  0  0  0  0  0
   48.6664   26.8826   48.0191 H   0  0  0  0  0  0  0  0  0  0  0  0
   46.2323   25.7801   47.4738 H   0  0  0  0  0  0  0  0  0  0  0  0
   46.4133   27.0408   48.7258 H   0  0  0  0  0  0  0  0  0  0  0  0
   45.0412   27.1829   46.1120 H   0  0  0  0  0  0  0  0  0  0  0  0
   43.5147   28.2055   47.5289 H   0  0  0  0  0  0  0  0  0  0  0  0
  1  2  2  0
  1  6  1  0
  2  3  1  0
  3  4  2  0
  5  4  1  0
  5  7  1  0
  6  5  2  0
  7 11  1  0
  8  7  1  0
  8  9  2  0
  9 10  1  0
 10 12  1  0
 11 10  2  0
 12 13  1  0
 12 16  1  0
 13 14  1  0
 14 15  1  0
 16 17  1  0
 16 15  1  0
 17 18  2  0
 19 21  1  0
 19  1  1  0
 20 19  2  0
 22 21  1  0
 22 24  1  0
 23 22  1  0
 25 22  1  0
  2 26  1  0
  3 27  1  0
  8 28  1  0
 13 29  1  0
 13 30  1  0
 14 31  1  0
 14 32  1  0
 15 33  1  0
 15 34  1  0
 16 35  1  6
 17 36  1  0
M  ISO  8  26  14  27  14  28  14  29  13  30  13  31  13  32  13  33  13
M  ISO  3  34  13  35  13  36   6
M  END
>  <minimizedAffinity>  (1) 
-4.32594824

>  <minimizedRMSD>  (1) 
0.785839975

$$$$
