
     RDKit          3D

 35 36  0  0  0  0  0  0  0  0999 V2000
   46.6770   34.2690   42.0680 C   0  0  0  0  0  0  0  0  0  0  0  0
   45.9210   34.7910   43.2660 C   0  0  0  0  0  0  0  0  0  0  0  0
   45.9240   33.8750   44.3510 C   0  0  0  0  0  0  0  0  0  0  0  0
   45.2510   34.1990   45.5380 C   0  0  0  0  0  0  0  0  0  0  0  0
   44.6250   35.3990   45.5690 N   0  0  0  0  0  0  0  0  0  0  0  0
   44.6370   36.2570   44.5160 C   0  0  0  0  0  0  0  0  0  0  0  0
   45.2760   35.9630   43.3740 N   0  0  0  0  0  0  0  0  0  0  0  0
   47.1660   32.8490   42.2760 C   0  0  0  0  0  0  0  0  0  0  0  0
   47.8770   35.1850   41.9260 C   0  0  0  0  0  0  0  0  0  0  0  0
   45.8090   34.2950   40.8640 C   0  0  0  0  0  0  0  0  0  0  0  0
   44.4740   34.0070   41.1150 N   0  0  0  0  0  0  0  0  0  0  0  0
   43.9710   32.7600   41.4520 C   0  0  0  0  0  0  0  0  0  0  0  0
   42.4840   32.5960   41.3670 C   0  0  0  0  0  0  0  0  0  0  0  0
   41.7230   33.7130   41.2910 O   0  0  0  0  0  0  0  0  0  0  0  0
   42.3580   34.9000   41.5740 C   0  0  0  0  0  0  0  0  0  0  0  0
   43.5280   34.9880   40.6210 C   0  0  0  0  0  0  0  0  0  0  0  0
   46.4524   32.9145   44.2608 H   0  0  0  0  0  0  0  0  0  0  0  0
   45.2327   33.5141   46.3986 H   0  0  0  0  0  0  0  0  0  0  0  0
   44.1088   37.2181   44.6021 H   0  0  0  0  0  0  0  0  0  0  0  0
   47.2379   32.6401   43.3536 H   0  0  0  0  0  0  0  0  0  0  0  0
   46.4582   32.1459   41.8127 H   0  0  0  0  0  0  0  0  0  0  0  0
   48.1566   32.7308   41.8127 H   0  0  0  0  0  0  0  0  0  0  0  0
   48.2444   35.4654   42.9242 H   0  0  0  0  0  0  0  0  0  0  0  0
   48.6735   34.6631   41.3754 H   0  0  0  0  0  0  0  0  0  0  0  0
   47.5836   36.0910   41.3754 H   0  0  0  0  0  0  0  0  0  0  0  0
   46.1923   33.5540   40.1471 H   0  0  0  0  0  0  0  0  0  0  0  0
   45.8413   35.3233   40.4748 H   0  0  0  0  0  0  0  0  0  0  0  0
   44.4282   32.0213   40.7773 H   0  0  0  0  0  0  0  0  0  0  0  0
   44.2198   32.6221   42.5146 H   0  0  0  0  0  0  0  0  0  0  0  0
   42.2723   31.9949   40.4704 H   0  0  0  0  0  0  0  0  0  0  0  0
   42.2036   32.1385   42.3272 H   0  0  0  0  0  0  0  0  0  0  0  0
   41.6731   35.7462   41.4165 H   0  0  0  0  0  0  0  0  0  0  0  0
   42.6900   34.9379   42.6220 H   0  0  0  0  0  0  0  0  0  0  0  0
   43.9685   35.9958   40.6383 H   0  0  0  0  0  0  0  0  0  0  0  0
   43.2334   34.7966   39.5786 H   0  0  0  0  0  0  0  0  0  0  0  0
  1  8  1  0
  1  2  1  0
  2  7  1  0
  2  3  2  0
  3  4  1  0
  4  5  2  0
  6  5  1  0
  7  6  2  0
  9  1  1  0
 10 11  1  0
 10  1  1  0
 11 12  1  0
 13 12  1  0
 14 13  1  0
 14 15  1  0
 16 11  1  0
 16 15  1  0
  3 17  1  0
  4 18  1  0
  6 19  1  0
  8 20  1  0
  8 21  1  0
  8 22  1  0
  9 23  1  0
  9 24  1  0
  9 25  1  0
 10 26  1  0
 10 27  1  0
 12 28  1  0
 12 29  1  0
 13 30  1  0
 13 31  1  0
 15 32  1  0
 15 33  1  0
 16 34  1  0
 16 35  1  0
M  ISO  8  17  14  18  14  19  14  20   8  21   8  22   8  23   8  24   8
M  ISO  8  25   8  26   8  27   8  28  13  29  13  30  13  31  13  32  13
M  ISO  3  33  13  34  13  35  13
M  END
>  <minimizedAffinity>  (1) 
-4.45850182

>  <minimizedRMSD>  (1) 
5.11907482

$$$$
