
     RDKit          3D

 37 38  0  0  0  0  0  0  0  0999 V2000
   48.6350   34.5280   41.8110 C   0  0  0  0  0  0  0  0  0  0  0  0
   47.4280   34.5740   42.7130 C   0  0  0  0  0  0  0  0  0  0  0  0
   47.4420   33.6090   43.7520 C   0  0  0  0  0  0  0  0  0  0  0  0
   46.3720   33.5570   44.6510 C   0  0  0  0  0  0  0  0  0  0  0  0
   45.3670   34.4660   44.4560 N   0  0  0  0  0  0  0  0  0  0  0  0
   45.3840   35.3750   43.4520 C   0  0  0  0  0  0  0  0  0  0  0  0
   46.3980   35.4270   42.5960 N   0  0  0  0  0  0  0  0  0  0  0  0
   49.8410   33.9330   42.5620 C   0  0  0  0  0  0  0  0  0  0  0  0
   48.9960   35.9540   41.5160 C   0  0  0  0  0  0  0  0  0  0  0  0
   48.4160   33.6820   40.6460 C   0  0  0  0  0  0  0  0  0  0  0  0
   47.5930   34.1540   39.5450 N   0  0  0  0  0  0  0  0  0  0  0  0
   46.5500   33.1480   39.4320 C   0  0  0  0  0  0  0  0  0  0  0  0
   45.9480   32.9900   38.1060 C   0  0  0  0  0  0  0  0  0  0  0  0
   46.9560   32.8300   36.9870 C   0  0  0  0  0  0  0  0  0  0  0  0
   47.7760   34.0900   37.0430 C   0  0  0  0  0  0  0  0  0  0  0  0
   48.4450   34.1540   38.3780 C   0  0  0  0  0  0  0  0  0  0  0  0
   48.2850   32.9092   43.8497 H   0  0  0  0  0  0  0  0  0  0  0  0
   46.3396   32.8247   45.4712 H   0  0  0  0  0  0  0  0  0  0  0  0
   44.5464   36.0798   43.3442 H   0  0  0  0  0  0  0  0  0  0  0  0
   49.6746   34.0151   43.6462 H   0  0  0  0  0  0  0  0  0  0  0  0
   49.9574   32.8740   42.2880 H   0  0  0  0  0  0  0  0  0  0  0  0
   50.7522   34.4849   42.2880 H   0  0  0  0  0  0  0  0  0  0  0  0
   49.1343   36.5002   42.4607 H   0  0  0  0  0  0  0  0  0  0  0  0
   49.9299   35.9833   40.9355 H   0  0  0  0  0  0  0  0  0  0  0  0
   48.1885   36.4241   40.9355 H   0  0  0  0  0  0  0  0  0  0  0  0
   49.4078   33.4576   40.2265 H   0  0  0  0  0  0  0  0  0  0  0  0
   47.8341   32.8414   41.0520 H   0  0  0  0  0  0  0  0  0  0  0  0
   46.9843   32.1797   39.7215 H   0  0  0  0  0  0  0  0  0  0  0  0
   45.7359   33.4916   40.0871 H   0  0  0  0  0  0  0  0  0  0  0  0
   45.3047   32.0979   38.1222 H   0  0  0  0  0  0  0  0  0  0  0  0
   45.3868   33.9132   37.8992 H   0  0  0  0  0  0  0  0  0  0  0  0
   46.4485   32.7382   36.0154 H   0  0  0  0  0  0  0  0  0  0  0  0
   47.5693   31.9239   37.1000 H   0  0  0  0  0  0  0  0  0  0  0  0
   48.5348   34.0760   36.2467 H   0  0  0  0  0  0  0  0  0  0  0  0
   47.1310   34.9693   36.8991 H   0  0  0  0  0  0  0  0  0  0  0  0
   49.1123   33.2830   38.4557 H   0  0  0  0  0  0  0  0  0  0  0  0
   48.9493   35.1314   38.3955 H   0  0  0  0  0  0  0  0  0  0  0  0
  1  8  1  0
  1  2  1  0
  2  3  2  0
  3  4  1  0
  5  4  2  0
  6  5  1  0
  7  2  1  0
  7  6  2  0
  9  1  1  0
 10  1  1  0
 11 10  1  0
 12 11  1  0
 13 12  1  0
 14 15  1  0
 14 13  1  0
 15 16  1  0
 16 11  1  0
  3 17  1  0
  4 18  1  0
  6 19  1  0
  8 20  1  0
  8 21  1  0
  8 22  1  0
  9 23  1  0
  9 24  1  0
  9 25  1  0
 10 26  1  0
 10 27  1  0
 12 28  1  0
 12 29  1  0
 13 30  1  0
 13 31  1  0
 14 32  1  0
 14 33  1  0
 15 34  1  0
 15 35  1  0
 16 36  1  0
 16 37  1  0
M  ISO  8  17  14  18  14  19  14  20   8  21   8  22   8  23   8  24   8
M  ISO  8  25   8  26   8  27   8  28  13  29  13  30  13  31  13  32  13
M  ISO  5  33  13  34  13  35  13  36  13  37  13
M  END
>  <minimizedAffinity>  (1) 
-4.6143322

>  <minimizedRMSD>  (1) 
1.98920166

$$$$
