
     RDKit          3D

 32 33  0  0  0  0  0  0  0  0999 V2000
   48.7170   34.3610   41.8590 C   0  0  0  0  0  0  0  0  0  0  0  0
   47.5420   34.3660   42.7800 C   0  0  0  0  0  0  0  0  0  0  0  0
   47.5630   33.3700   43.7540 C   0  0  0  0  0  0  0  0  0  0  0  0
   46.4900   33.2960   44.6630 C   0  0  0  0  0  0  0  0  0  0  0  0
   45.4880   34.2080   44.5390 N   0  0  0  0  0  0  0  0  0  0  0  0
   45.4940   35.1660   43.5830 C   0  0  0  0  0  0  0  0  0  0  0  0
   46.5110   35.2270   42.7280 N   0  0  0  0  0  0  0  0  0  0  0  0
   49.0410   32.9460   41.3870 C   0  0  0  0  0  0  0  0  0  0  0  0
   49.8930   34.8950   42.6110 C   0  0  0  0  0  0  0  0  0  0  0  0
   48.4590   35.2060   40.6450 C   0  0  0  0  0  0  0  0  0  0  0  0
   47.9250   34.4680   39.5010 C   0  0  0  0  0  0  0  0  0  0  0  0
   48.5610   34.5590   38.2690 C   0  0  0  0  0  0  0  0  0  0  0  0
   48.1520   33.9090   37.1150 C   0  0  0  0  0  0  0  0  0  0  0  0
   47.0180   33.1100   37.2190 C   0  0  0  0  0  0  0  0  0  0  0  0
   46.3520   32.9870   38.4210 C   0  0  0  0  0  0  0  0  0  0  0  0
   46.8040   33.6600   39.5490 C   0  0  0  0  0  0  0  0  0  0  0  0
   48.3990   32.6574   43.8117 H   0  0  0  0  0  0  0  0  0  0  0  0
   46.4628   32.5258   45.4479 H   0  0  0  0  0  0  0  0  0  0  0  0
   44.6661   35.8869   43.5138 H   0  0  0  0  0  0  0  0  0  0  0  0
   49.1904   32.2935   42.2599 H   0  0  0  0  0  0  0  0  0  0  0  0
   48.2076   32.5619   40.7805 H   0  0  0  0  0  0  0  0  0  0  0  0
   49.9585   32.9629   40.7805 H   0  0  0  0  0  0  0  0  0  0  0  0
   49.7064   34.8103   43.6917 H   0  0  0  0  0  0  0  0  0  0  0  0
   50.7904   34.3161   42.3474 H   0  0  0  0  0  0  0  0  0  0  0  0
   50.0477   35.9517   42.3474 H   0  0  0  0  0  0  0  0  0  0  0  0
   47.7363   35.9892   40.9176 H   0  0  0  0  0  0  0  0  0  0  0  0
   49.4318   35.6126   40.3315 H   0  0  0  0  0  0  0  0  0  0  0  0
   49.4564   35.1947   38.2046 H   0  0  0  0  0  0  0  0  0  0  0  0
   48.6963   34.0194   36.1655 H   0  0  0  0  0  0  0  0  0  0  0  0
   46.6486   32.5709   36.3341 H   0  0  0  0  0  0  0  0  0  0  0  0
   45.4566   32.3514   38.4866 H   0  0  0  0  0  0  0  0  0  0  0  0
   46.2598   33.5480   40.4984 H   0  0  0  0  0  0  0  0  0  0  0  0
  1  9  1  0
  1  2  1  0
  2  3  2  0
  3  4  1  0
  5  4  2  0
  6  5  1  0
  7  2  1  0
  7  6  2  0
  8  1  1  0
 10  1  1  0
 11 16  1  0
 11 10  1  0
 12 11  2  0
 13 14  2  0
 13 12  1  0
 14 15  1  0
 15 16  2  0
  3 17  1  0
  4 18  1  0
  6 19  1  0
  8 20  1  0
  8 21  1  0
  8 22  1  0
  9 23  1  0
  9 24  1  0
  9 25  1  0
 10 26  1  0
 10 27  1  0
 12 28  1  0
 13 29  1  0
 14 30  1  0
 15 31  1  0
 16 32  1  0
M  ISO  8  17  14  18  14  19  14  20   8  21   8  22   8  23   8  24   8
M  ISO  8  25   8  26   8  27   8  28  14  29  14  30  14  31  14  32  14
M  END
>  <minimizedAffinity>  (1) 
-4.81495905

>  <minimizedRMSD>  (1) 
1.72453868

$$$$
