
     RDKit          3D

 29 30  0  0  0  0  0  0  0  0999 V2000
   48.5350   34.8090   41.5590 C   0  0  0  0  0  0  0  0  0  0  0  0
   47.3890   34.7610   42.5150 C   0  0  0  0  0  0  0  0  0  0  0  0
   47.5240   33.7970   43.5220 C   0  0  0  0  0  0  0  0  0  0  0  0
   46.5000   33.6660   44.4740 C   0  0  0  0  0  0  0  0  0  0  0  0
   45.4250   34.4920   44.3580 N   0  0  0  0  0  0  0  0  0  0  0  0
   45.3210   35.4180   43.3720 C   0  0  0  0  0  0  0  0  0  0  0  0
   46.2930   35.5390   42.4720 N   0  0  0  0  0  0  0  0  0  0  0  0
   49.6110   33.7860   41.9220 C   0  0  0  0  0  0  0  0  0  0  0  0
   49.1400   36.1740   41.6450 C   0  0  0  0  0  0  0  0  0  0  0  0
   48.0930   34.5300   40.1560 C   0  0  0  0  0  0  0  0  0  0  0  0
   48.0130   33.1270   39.8550 N   0  0  0  0  0  0  0  0  0  0  0  0
   48.9700   32.5010   39.1530 N   0  0  0  0  0  0  0  0  0  0  0  0
   48.6590   31.2130   39.0110 C   0  0  0  0  0  0  0  0  0  0  0  0
   47.4460   30.9870   39.6480 C   0  0  0  0  0  0  0  0  0  0  0  0
   47.0720   32.2160   40.1660 C   0  0  0  0  0  0  0  0  0  0  0  0
   48.4157   33.1544   43.5664 H   0  0  0  0  0  0  0  0  0  0  0  0
   46.5645   32.9235   45.2831 H   0  0  0  0  0  0  0  0  0  0  0  0
   44.4348   36.0673   43.3169 H   0  0  0  0  0  0  0  0  0  0  0  0
   49.6906   33.7103   43.0165 H   0  0  0  0  0  0  0  0  0  0  0  0
   49.3395   32.8048   41.5054 H   0  0  0  0  0  0  0  0  0  0  0  0
   50.5772   34.1066   41.5054 H   0  0  0  0  0  0  0  0  0  0  0  0
   49.2642   36.4541   42.7015 H   0  0  0  0  0  0  0  0  0  0  0  0
   50.1215   36.1720   41.1484 H   0  0  0  0  0  0  0  0  0  0  0  0
   48.4793   36.8999   41.1484 H   0  0  0  0  0  0  0  0  0  0  0  0
   47.0987   34.9764   40.0076 H   0  0  0  0  0  0  0  0  0  0  0  0
   48.8467   34.9657   39.4836 H   0  0  0  0  0  0  0  0  0  0  0  0
   49.2594   30.4591   38.4808 H   0  0  0  0  0  0  0  0  0  0  0  0
   46.8992   30.0356   39.7248 H   0  0  0  0  0  0  0  0  0  0  0  0
   46.1544   32.4154   40.7389 H   0  0  0  0  0  0  0  0  0  0  0  0
  1  9  1  0
  1  8  1  0
  1  2  1  0
  2  3  2  0
  3  4  1  0
  5  4  2  0
  6  5  1  0
  7  2  1  0
  7  6  2  0
 10  1  1  0
 11 10  1  0
 11 15  1  0
 12 11  1  0
 13 12  2  0
 13 14  1  0
 14 15  2  0
  3 16  1  0
  4 17  1  0
  6 18  1  0
  8 19  1  0
  8 20  1  0
  8 21  1  0
  9 22  1  0
  9 23  1  0
  9 24  1  0
 10 25  1  0
 10 26  1  0
 13 27  1  0
 14 28  1  0
 15 29  1  0
M  ISO  8  16  14  17  14  18  14  19   8  20   8  21   8  22   8  23   8
M  ISO  6  24   8  25   8  26   8  27  14  28  14  29  14
M  END
>  <minimizedAffinity>  (1) 
-4.03875685

>  <minimizedRMSD>  (1) 
0.693334103

$$$$
