
     RDKit          3D

 45 47  0  0  1  0  0  0  0  0999 V2000
   48.1770   33.8890   40.9680 C   0  0  2  0  0  0  0  0  0  0  0  0
   48.4360   33.6040   39.4790 C   0  0  0  0  0  0  0  0  0  0  0  0
   47.9910   34.4340   38.4790 C   0  0  0  0  0  0  0  0  0  0  0  0
   48.2430   34.2100   37.1430 C   0  0  0  0  0  0  0  0  0  0  0  0
   48.9670   33.1190   36.7540 C   0  0  0  0  0  0  0  0  0  0  0  0
   49.4240   32.2720   37.7120 C   0  0  0  0  0  0  0  0  0  0  0  0
   50.1310   31.1610   37.2950 C   0  0  0  0  0  0  0  0  0  0  0  0
   50.6100   30.2310   38.1920 C   0  0  0  0  0  0  0  0  0  0  0  0
   50.3500   30.4600   39.5270 C   0  0  0  0  0  0  0  0  0  0  0  0
   49.6430   31.5790   39.9070 C   0  0  0  0  0  0  0  0  0  0  0  0
   49.1590   32.5160   39.0410 C   0  0  0  0  0  0  0  0  0  0  0  0
   49.3040   33.1490   41.5540 N   0  0  0  0  0  0  0  0  0  0  0  0
   50.1920   33.8760   42.3600 C   0  0  0  0  0  0  0  0  0  0  0  0
   50.0310   35.0290   42.8650 N   0  0  0  0  0  0  0  0  0  0  0  0
   51.4640   33.3320   42.6930 N   0  0  0  0  0  0  0  0  0  0  0  0
   49.1320   35.5470   42.8080 H   0  0  0  0  0  0  0  0  0  0  0  0
   46.8960   33.1940   41.3550 C   0  0  0  0  0  0  0  0  0  0  0  0
   45.8660   34.2060   41.7600 C   0  0  0  0  0  0  0  0  0  0  0  0
   46.1710   35.0370   42.8040 C   0  0  0  0  0  0  0  0  0  0  0  0
   45.2350   36.0380   43.1200 C   0  0  0  0  0  0  0  0  0  0  0  0
   44.0910   36.1230   42.3830 N   0  0  0  0  0  0  0  0  0  0  0  0
   43.8160   35.2790   41.3530 C   0  0  0  0  0  0  0  0  0  0  0  0
   44.7060   34.3400   41.0620 N   0  0  0  0  0  0  0  0  0  0  0  0
   46.4560   32.2020   40.3580 C   0  0  0  0  0  0  0  0  0  0  0  0
   47.1240   32.3820   42.6610 C   0  0  0  0  0  0  0  0  0  0  0  0
   48.0983   34.9477   41.2561 H   0  0  0  0  0  0  0  0  0  0  0  0
   47.4044   35.3215   38.7586 H   0  0  0  0  0  0  0  0  0  0  0  0
   47.8600   34.9118   36.3875 H   0  0  0  0  0  0  0  0  0  0  0  0
   49.1749   32.9310   35.6903 H   0  0  0  0  0  0  0  0  0  0  0  0
   50.3162   31.0151   36.2206 H   0  0  0  0  0  0  0  0  0  0  0  0
   51.1735   29.3470   37.8588 H   0  0  0  0  0  0  0  0  0  0  0  0
   50.7069   29.7497   40.2873 H   0  0  0  0  0  0  0  0  0  0  0  0
   49.4558   31.7275   40.9807 H   0  0  0  0  0  0  0  0  0  0  0  0
   49.4355   32.1423   41.3805 H   0  0  0  0  0  0  0  0  0  0  0  0
   52.1143   33.8680   43.2851 H   0  0  0  0  0  0  0  0  0  0  0  0
   51.7344   32.4022   42.3419 H   0  0  0  0  0  0  0  0  0  0  0  0
   47.1071   34.9267   43.3710 H   0  0  0  0  0  0  0  0  0  0  0  0
   45.4224   36.7394   43.9464 H   0  0  0  0  0  0  0  0  0  0  0  0
   42.8828   35.3724   40.7781 H   0  0  0  0  0  0  0  0  0  0  0  0
   46.0620   31.3138   40.8736 H   0  0  0  0  0  0  0  0  0  0  0  0
   45.6678   32.6400   39.7281 H   0  0  0  0  0  0  0  0  0  0  0  0
   47.3098   31.9117   39.7281 H   0  0  0  0  0  0  0  0  0  0  0  0
   46.9423   33.0293   43.5316 H   0  0  0  0  0  0  0  0  0  0  0  0
   46.4308   31.5283   42.6877 H   0  0  0  0  0  0  0  0  0  0  0  0
   48.1602   32.0139   42.6877 H   0  0  0  0  0  0  0  0  0  0  0  0
  1 17  1  0
  1 12  1  0
  2  1  1  0
  3  2  2  0
  4  3  1  0
  5  4  2  0
  5  6  1  0
  6 11  2  0
  7  6  1  0
  7  8  2  0
  8  9  1  0
  9 10  2  0
 11  2  1  0
 11 10  1  0
 12 13  1  0
 13 15  1  0
 13 14  2  0
 16 14  1  0
 17 18  1  0
 17 25  1  0
 18 19  2  0
 19 20  1  0
 21 20  2  0
 22 21  1  0
 23 22  2  0
 23 18  1  0
 24 17  1  0
  1 26  1  6
  3 27  1  0
  4 28  1  0
  5 29  1  0
  7 30  1  0
  8 31  1  0
  9 32  1  0
 10 33  1  0
 12 34  1  0
 15 35  1  0
 15 36  1  0
 19 37  1  0
 20 38  1  0
 22 39  1  0
 24 40  1  0
 24 41  1  0
 24 42  1  0
 25 43  1  0
 25 44  1  0
 25 45  1  0
M  ISO  8  26   8  27  14  28  14  29  14  30  14  31  14  32  14  33  14
M  ISO  8  37  14  38  14  39  14  40   8  41   8  42   8  43   8  44   8
M  ISO  1  45   8
M  END
>  <minimizedAffinity>  (1) 
-5.68822002

>  <minimizedRMSD>  (1) 
2.66434097

$$$$
