
     RDKit          3D

 43 45  0  0  1  0  0  0  0  0999 V2000
   48.1610   34.0570   40.8520 C   0  0  2  0  0  0  0  0  0  0  0  0
   48.4400   33.7030   39.3820 C   0  0  0  0  0  0  0  0  0  0  0  0
   48.0110   34.4280   38.3570 N   0  0  0  0  0  0  0  0  0  0  0  0
   48.2610   34.1410   37.0760 C   0  0  0  0  0  0  0  0  0  0  0  0
   48.9840   33.0700   36.7150 N   0  0  0  0  0  0  0  0  0  0  0  0
   49.4510   32.2890   37.6940 C   0  0  0  0  0  0  0  0  0  0  0  0
   50.1770   31.1810   37.3240 C   0  0  0  0  0  0  0  0  0  0  0  0
   50.6790   30.3130   38.2600 C   0  0  0  0  0  0  0  0  0  0  0  0
   50.4240   30.5980   39.6070 C   0  0  0  0  0  0  0  0  0  0  0  0
   49.6930   31.7200   39.9180 C   0  0  0  0  0  0  0  0  0  0  0  0
   49.1780   32.6080   39.0020 C   0  0  0  0  0  0  0  0  0  0  0  0
   49.2280   33.3130   41.4780 N   0  0  0  0  0  0  0  0  0  0  0  0
   50.1120   33.9770   42.3380 C   0  0  0  0  0  0  0  0  0  0  0  0
   49.9420   35.1130   42.8810 N   0  0  0  0  0  0  0  0  0  0  0  0
   51.3620   33.3840   42.6750 N   0  0  0  0  0  0  0  0  0  0  0  0
   49.1220   35.7200   42.6620 H   0  0  0  0  0  0  0  0  0  0  0  0
   46.8400   33.3920   41.1020 C   0  0  0  0  0  0  0  0  0  0  0  0
   45.8230   34.3720   41.5890 C   0  0  0  0  0  0  0  0  0  0  0  0
   46.1780   35.1360   42.6740 C   0  0  0  0  0  0  0  0  0  0  0  0
   45.2330   36.0890   43.1170 C   0  0  0  0  0  0  0  0  0  0  0  0
   44.0450   36.1890   42.4520 N   0  0  0  0  0  0  0  0  0  0  0  0
   43.7320   35.4150   41.3860 C   0  0  0  0  0  0  0  0  0  0  0  0
   44.6210   34.5250   40.9760 N   0  0  0  0  0  0  0  0  0  0  0  0
   46.4200   32.5980   39.9120 C   0  0  0  0  0  0  0  0  0  0  0  0
   46.9690   32.3700   42.2540 C   0  0  0  0  0  0  0  0  0  0  0  0
   48.1257   35.1103   41.1671 H   0  0  0  0  0  0  0  0  0  0  0  0
   47.8618   34.8031   36.2936 H   0  0  0  0  0  0  0  0  0  0  0  0
   50.3586   30.9871   36.2566 H   0  0  0  0  0  0  0  0  0  0  0  0
   51.2597   29.4270   37.9638 H   0  0  0  0  0  0  0  0  0  0  0  0
   50.8013   29.9369   40.4011 H   0  0  0  0  0  0  0  0  0  0  0  0
   49.5052   31.9237   40.9825 H   0  0  0  0  0  0  0  0  0  0  0  0
   49.3380   32.3055   41.2944 H   0  0  0  0  0  0  0  0  0  0  0  0
   52.0106   33.8740   43.3076 H   0  0  0  0  0  0  0  0  0  0  0  0
   51.6176   32.4651   42.2862 H   0  0  0  0  0  0  0  0  0  0  0  0
   47.1502   35.0121   43.1736 H   0  0  0  0  0  0  0  0  0  0  0  0
   45.4502   36.7364   43.9794 H   0  0  0  0  0  0  0  0  0  0  0  0
   42.7642   35.5233   40.8744 H   0  0  0  0  0  0  0  0  0  0  0  0
   45.9297   31.6710   40.2442 H   0  0  0  0  0  0  0  0  0  0  0  0
   45.7163   33.1885   39.3069 H   0  0  0  0  0  0  0  0  0  0  0  0
   47.3041   32.3486   39.3069 H   0  0  0  0  0  0  0  0  0  0  0  0
   46.9028   32.8945   43.2186 H   0  0  0  0  0  0  0  0  0  0  0  0
   46.1569   31.6315   42.1817 H   0  0  0  0  0  0  0  0  0  0  0  0
   47.9391   31.8565   42.1817 H   0  0  0  0  0  0  0  0  0  0  0  0
  1 17  1  0
  1 12  1  0
  2  1  1  0
  3  2  2  0
  4  3  1  0
  5  4  2  0
  5  6  1  0
  6 11  2  0
  7  6  1  0
  7  8  2  0
  8  9  1  0
  9 10  2  0
 11  2  1  0
 11 10  1  0
 12 13  1  0
 13 15  1  0
 13 14  2  0
 16 14  1  0
 17 18  1  0
 17 25  1  0
 18 19  2  0
 19 20  1  0
 21 20  2  0
 22 21  1  0
 23 22  2  0
 23 18  1  0
 24 17  1  0
  1 26  1  6
  4 27  1  0
  7 28  1  0
  8 29  1  0
  9 30  1  0
 10 31  1  0
 12 32  1  0
 15 33  1  0
 15 34  1  0
 19 35  1  0
 20 36  1  0
 22 37  1  0
 24 38  1  0
 24 39  1  0
 24 40  1  0
 25 41  1  0
 25 42  1  0
 25 43  1  0
M  ISO  8  26   8  27  14  28  14  29  14  30  14  31  14  35  14  36  14
M  ISO  7  37  14  38   8  39   8  40   8  41   8  42   8  43   8
M  END
>  <minimizedAffinity>  (1) 
-5.71972132

>  <minimizedRMSD>  (1) 
2.0441401

$$$$
