
     RDKit          3D

 37 38  0  0  1  0  0  0  0  0999 V2000
   46.6540   33.3590   42.5280 C   0  0  0  0  0  0  0  0  0  0  0  0
   45.3200   33.9810   42.2130 C   0  0  0  0  0  0  0  0  0  0  0  0
   45.2330   35.3490   42.3500 C   0  0  0  0  0  0  0  0  0  0  0  0
   43.9860   35.9340   42.0180 C   0  0  0  0  0  0  0  0  0  0  0  0
   42.9760   35.1460   41.5970 N   0  0  0  0  0  0  0  0  0  0  0  0
   43.1030   33.7950   41.4770 C   0  0  0  0  0  0  0  0  0  0  0  0
   44.2630   33.2460   41.7840 N   0  0  0  0  0  0  0  0  0  0  0  0
   46.7220   31.8950   42.2210 C   0  0  0  0  0  0  0  0  0  0  0  0
   46.8040   33.5050   44.0400 C   0  0  0  0  0  0  0  0  0  0  0  0
   47.7540   34.0710   41.8050 C   0  0  1  0  0  0  0  0  0  0  0  0
   49.0090   33.3760   41.9720 N   0  0  0  0  0  0  0  0  0  0  0  0
   50.1170   34.0750   42.4510 C   0  0  0  0  0  0  0  0  0  0  0  0
   50.1180   35.2090   43.0240 N   0  0  0  0  0  0  0  0  0  0  0  0
   51.4240   33.5210   42.3050 N   0  0  0  0  0  0  0  0  0  0  0  0
   49.2480   35.7640   43.1820 H   0  0  0  0  0  0  0  0  0  0  0  0
   47.4930   33.7300   40.3190 C   0  0  0  0  0  0  0  0  0  0  0  0
   48.1840   34.4490   39.3330 C   0  0  0  0  0  0  0  0  0  0  0  0
   48.0460   34.2390   37.9860 C   0  0  0  0  0  0  0  0  0  0  0  0
   47.2000   33.2900   37.6030 N   0  0  0  0  0  0  0  0  0  0  0  0
   46.5140   32.5720   38.5090 C   0  0  0  0  0  0  0  0  0  0  0  0
   46.6730   32.8030   39.8020 N   0  0  0  0  0  0  0  0  0  0  0  0
   46.0839   35.9532   42.6976 H   0  0  0  0  0  0  0  0  0  0  0  0
   43.8430   37.0214   42.1029 H   0  0  0  0  0  0  0  0  0  0  0  0
   42.2601   33.1775   41.1330 H   0  0  0  0  0  0  0  0  0  0  0  0
   46.7485   31.3241   43.1609 H   0  0  0  0  0  0  0  0  0  0  0  0
   45.8365   31.6010   41.6383 H   0  0  0  0  0  0  0  0  0  0  0  0
   47.6309   31.6844   41.6383 H   0  0  0  0  0  0  0  0  0  0  0  0
   46.1039   32.8235   44.5454 H   0  0  0  0  0  0  0  0  0  0  0  0
   47.8346   33.2547   44.3321 H   0  0  0  0  0  0  0  0  0  0  0  0
   46.5817   34.5419   44.3321 H   0  0  0  0  0  0  0  0  0  0  0  0
   47.7851   35.1220   42.1281 H   0  0  0  0  0  0  0  0  0  0  0  0
   49.0850   32.3754   41.7400 H   0  0  0  0  0  0  0  0  0  0  0  0
   52.2437   34.0353   42.6579 H   0  0  0  0  0  0  0  0  0  0  0  0
   51.5476   32.6069   41.8467 H   0  0  0  0  0  0  0  0  0  0  0  0
   48.8822   35.2326   39.6624 H   0  0  0  0  0  0  0  0  0  0  0  0
   48.6124   34.8318   37.2526 H   0  0  0  0  0  0  0  0  0  0  0  0
   45.8176   31.7892   38.1740 H   0  0  0  0  0  0  0  0  0  0  0  0
  1  9  1  0
  2  3  2  0
  2  1  1  0
  4  3  1  0
  5  4  2  0
  6  5  1  0
  6  7  2  0
  7  2  1  0
  8  1  1  0
 10 11  1  0
 10  1  1  0
 11 12  1  0
 12 13  2  0
 13 15  1  0
 14 12  1  0
 16 10  1  0
 17 16  2  0
 18 17  1  0
 19 18  2  0
 19 20  1  0
 20 21  2  0
 21 16  1  0
  3 22  1  0
  4 23  1  0
  6 24  1  0
  8 25  1  0
  8 26  1  0
  8 27  1  0
  9 28  1  0
  9 29  1  0
  9 30  1  0
 10 31  1  6
 11 32  1  0
 14 33  1  0
 14 34  1  0
 17 35  1  0
 18 36  1  0
 20 37  1  0
M  ISO  8  22  14  23  14  24  14  25   8  26   8  27   8  28   8  29   8
M  ISO  5  30   8  31   8  35  14  36  14  37  14
M  END
>  <minimizedAffinity>  (1) 
-5.28733683

>  <minimizedRMSD>  (1) 
0.276422918

$$$$
