
     RDKit          3D

 42 43  0  0  1  0  0  0  0  0999 V2000
   45.5200   34.8620   42.8100 C   0  0  0  0  0  0  0  0  0  0  0  0
   44.2960   34.4990   42.0000 C   0  0  0  0  0  0  0  0  0  0  0  0
   43.7750   35.4590   41.1670 C   0  0  0  0  0  0  0  0  0  0  0  0
   42.6600   35.0450   40.3890 C   0  0  0  0  0  0  0  0  0  0  0  0
   42.1850   33.7880   40.4980 N   0  0  0  0  0  0  0  0  0  0  0  0
   42.7370   32.8760   41.3390 C   0  0  0  0  0  0  0  0  0  0  0  0
   43.7690   33.2420   42.0670 N   0  0  0  0  0  0  0  0  0  0  0  0
   45.7070   34.0990   44.0510 C   0  0  0  0  0  0  0  0  0  0  0  0
   45.2440   36.3420   43.2040 C   0  0  0  0  0  0  0  0  0  0  0  0
   46.7410   34.8140   41.9420 C   0  0  1  0  0  0  0  0  0  0  0  0
   47.9260   34.6470   42.7550 N   0  0  0  0  0  0  0  0  0  0  0  0
   49.1090   35.2440   42.3170 C   0  0  0  0  0  0  0  0  0  0  0  0
   49.2660   36.1020   41.3900 N   0  0  0  0  0  0  0  0  0  0  0  0
   50.3670   34.8980   42.9110 N   0  0  0  0  0  0  0  0  0  0  0  0
   48.4590   36.5890   40.9520 H   0  0  0  0  0  0  0  0  0  0  0  0
   46.7030   33.4990   41.2010 N   0  0  0  0  0  0  0  0  0  0  0  0
   47.4740   32.4620   41.6950 C   0  0  0  0  0  0  0  0  0  0  0  0
   47.3470   31.3550   40.6090 C   0  0  0  0  0  0  0  0  0  0  0  0
   48.0820   31.6710   39.4900 O   0  0  0  0  0  0  0  0  0  0  0  0
   48.1790   33.0450   39.2790 C   0  0  0  0  0  0  0  0  0  0  0  0
   46.9390   33.7450   39.8030 C   0  0  0  0  0  0  0  0  0  0  0  0
   44.1910   36.4755   41.1064 H   0  0  0  0  0  0  0  0  0  0  0  0
   42.1828   35.7529   39.6953 H   0  0  0  0  0  0  0  0  0  0  0  0
   42.3309   31.8562   41.4095 H   0  0  0  0  0  0  0  0  0  0  0  0
   45.5451   34.7596   44.9155 H   0  0  0  0  0  0  0  0  0  0  0  0
   44.9857   33.2692   44.0835 H   0  0  0  0  0  0  0  0  0  0  0  0
   46.7303   33.6968   44.0835 H   0  0  0  0  0  0  0  0  0  0  0  0
   45.2271   36.4326   44.3001 H   0  0  0  0  0  0  0  0  0  0  0  0
   46.0378   36.9844   42.7952 H   0  0  0  0  0  0  0  0  0  0  0  0
   44.2720   36.6551   42.7952 H   0  0  0  0  0  0  0  0  0  0  0  0
   46.7607   35.7229   41.3227 H   0  0  0  0  0  0  0  0  0  0  0  0
   47.8974   34.1043   43.6300 H   0  0  0  0  0  0  0  0  0  0  0  0
   51.2335   35.3453   42.5793 H   0  0  0  0  0  0  0  0  0  0  0  0
   50.4044   34.2021   43.6694 H   0  0  0  0  0  0  0  0  0  0  0  0
   48.5217   32.7752   41.8147 H   0  0  0  0  0  0  0  0  0  0  0  0
   47.1449   32.1231   42.6884 H   0  0  0  0  0  0  0  0  0  0  0  0
   47.7128   30.4033   41.0219 H   0  0  0  0  0  0  0  0  0  0  0  0
   46.2892   31.2702   40.3192 H   0  0  0  0  0  0  0  0  0  0  0  0
   49.0642   33.4317   39.8052 H   0  0  0  0  0  0  0  0  0  0  0  0
   48.2699   33.2366   38.1996 H   0  0  0  0  0  0  0  0  0  0  0  0
   47.0581   34.8282   39.6529 H   0  0  0  0  0  0  0  0  0  0  0  0
   46.0768   33.3460   39.2485 H   0  0  0  0  0  0  0  0  0  0  0  0
  1  9  1  0
  1  8  1  0
  2  7  1  0
  2  1  1  0
  3  2  2  0
  4  5  2  0
  4  3  1  0
  5  6  1  0
  6  7  2  0
 10 11  1  0
 10  1  1  0
 12 11  1  0
 12 14  1  0
 13 12  2  0
 15 13  1  0
 16 17  1  0
 16 10  1  0
 18 17  1  0
 19 18  1  0
 20 19  1  0
 20 21  1  0
 21 16  1  0
  3 22  1  0
  4 23  1  0
  6 24  1  0
  8 25  1  0
  8 26  1  0
  8 27  1  0
  9 28  1  0
  9 29  1  0
  9 30  1  0
 10 31  1  6
 11 32  1  0
 14 33  1  0
 14 34  1  0
 17 35  1  0
 17 36  1  0
 18 37  1  0
 18 38  1  0
 20 39  1  0
 20 40  1  0
 21 41  1  0
 21 42  1  0
M  ISO  8  22  14  23  14  24  14  25   8  26   8  27   8  28   8  29   8
M  ISO  8  30   8  31   8  35  13  36  13  37  13  38  13  39  13  40  13
M  ISO  2  41  13  42  13
M  END
>  <minimizedAffinity>  (1) 
-5.3228035

>  <minimizedRMSD>  (1) 
2.10136628

$$$$
