
     RDKit          3D

 37 38  0  0  1  0  0  0  0  0999 V2000
   46.6530   33.3090   42.4890 C   0  0  0  0  0  0  0  0  0  0  0  0
   45.3250   33.9520   42.1980 C   0  0  0  0  0  0  0  0  0  0  0  0
   45.2510   35.3180   42.3660 C   0  0  0  0  0  0  0  0  0  0  0  0
   44.0220   35.9350   42.0570 C   0  0  0  0  0  0  0  0  0  0  0  0
   42.9880   35.1560   41.6180 N   0  0  0  0  0  0  0  0  0  0  0  0
   43.1000   33.8100   41.4660 C   0  0  0  0  0  0  0  0  0  0  0  0
   44.2540   33.2420   41.7580 N   0  0  0  0  0  0  0  0  0  0  0  0
   46.7130   31.8610   42.1000 C   0  0  0  0  0  0  0  0  0  0  0  0
   46.7940   33.3670   44.0100 C   0  0  0  0  0  0  0  0  0  0  0  0
   47.7610   34.0520   41.8190 C   0  0  1  0  0  0  0  0  0  0  0  0
   49.0220   33.3410   41.9640 N   0  0  0  0  0  0  0  0  0  0  0  0
   50.1210   34.0540   42.4550 C   0  0  0  0  0  0  0  0  0  0  0  0
   50.1180   35.1810   43.0440 N   0  0  0  0  0  0  0  0  0  0  0  0
   51.4320   33.5330   42.3030 N   0  0  0  0  0  0  0  0  0  0  0  0
   49.2380   35.6970   43.2720 H   0  0  0  0  0  0  0  0  0  0  0  0
   47.5020   33.7350   40.3280 C   0  0  0  0  0  0  0  0  0  0  0  0
   48.2100   34.4570   39.3580 C   0  0  0  0  0  0  0  0  0  0  0  0
   48.0880   34.2780   38.0100 C   0  0  0  0  0  0  0  0  0  0  0  0
   47.2310   33.3470   37.5930 N   0  0  0  0  0  0  0  0  0  0  0  0
   46.5300   32.6290   38.4800 C   0  0  0  0  0  0  0  0  0  0  0  0
   46.6750   32.8320   39.7910 N   0  0  0  0  0  0  0  0  0  0  0  0
   46.1123   35.9004   42.7251 H   0  0  0  0  0  0  0  0  0  0  0  0
   43.8973   37.0224   42.1670 H   0  0  0  0  0  0  0  0  0  0  0  0
   42.2502   33.2099   41.1087 H   0  0  0  0  0  0  0  0  0  0  0  0
   46.7388   31.2386   43.0066 H   0  0  0  0  0  0  0  0  0  0  0  0
   45.8247   31.6043   41.5041 H   0  0  0  0  0  0  0  0  0  0  0  0
   47.6195   31.6787   41.5041 H   0  0  0  0  0  0  0  0  0  0  0  0
   45.8735   32.9883   44.4783 H   0  0  0  0  0  0  0  0  0  0  0  0
   47.6467   32.7466   44.3231 H   0  0  0  0  0  0  0  0  0  0  0  0
   46.9633   34.4078   44.3231 H   0  0  0  0  0  0  0  0  0  0  0  0
   47.7984   35.0900   42.1813 H   0  0  0  0  0  0  0  0  0  0  0  0
   49.1030   32.3452   41.7134 H   0  0  0  0  0  0  0  0  0  0  0  0
   52.2403   34.0589   42.6649 H   0  0  0  0  0  0  0  0  0  0  0  0
   51.5754   32.6289   41.8307 H   0  0  0  0  0  0  0  0  0  0  0  0
   48.9160   35.2244   39.7083 H   0  0  0  0  0  0  0  0  0  0  0  0
   48.6732   34.8778   37.2975 H   0  0  0  0  0  0  0  0  0  0  0  0
   45.8261   31.8626   38.1235 H   0  0  0  0  0  0  0  0  0  0  0  0
  1  9  1  0
  2  3  2  0
  2  1  1  0
  4  3  1  0
  5  4  2  0
  6  5  1  0
  6  7  2  0
  7  2  1  0
  8  1  1  0
 10 11  1  0
 10  1  1  0
 11 12  1  0
 12 13  2  0
 13 15  1  0
 14 12  1  0
 16 10  1  0
 17 16  2  0
 18 17  1  0
 19 18  2  0
 19 20  1  0
 20 21  2  0
 21 16  1  0
  3 22  1  0
  4 23  1  0
  6 24  1  0
  8 25  1  0
  8 26  1  0
  8 27  1  0
  9 28  1  0
  9 29  1  0
  9 30  1  0
 10 31  1  6
 11 32  1  0
 14 33  1  0
 14 34  1  0
 17 35  1  0
 18 36  1  0
 20 37  1  0
M  ISO  8  22  14  23  14  24  14  25   8  26   8  27   8  28   8  29   8
M  ISO  5  30   8  31   8  35  14  36  14  37  14
M  END
>  <minimizedAffinity>  (1) 
-5.27574301

>  <minimizedRMSD>  (1) 
0.443454683

$$$$
