
     RDKit          3D

 42 43  0  0  1  0  0  0  0  0999 V2000
   45.5290   34.8780   42.7880 C   0  0  0  0  0  0  0  0  0  0  0  0
   44.3030   34.4930   42.0020 C   0  0  0  0  0  0  0  0  0  0  0  0
   43.7870   35.4450   41.1520 C   0  0  0  0  0  0  0  0  0  0  0  0
   42.6770   35.0500   40.3760 C   0  0  0  0  0  0  0  0  0  0  0  0
   42.1880   33.7920   40.5030 N   0  0  0  0  0  0  0  0  0  0  0  0
   42.7240   32.8880   41.3510 C   0  0  0  0  0  0  0  0  0  0  0  0
   43.7590   33.2440   42.0790 N   0  0  0  0  0  0  0  0  0  0  0  0
   45.7070   34.1150   44.0500 C   0  0  0  0  0  0  0  0  0  0  0  0
   45.2580   36.3400   43.2010 C   0  0  0  0  0  0  0  0  0  0  0  0
   46.7480   34.8010   41.9300 C   0  0  1  0  0  0  0  0  0  0  0  0
   47.9300   34.6560   42.7690 N   0  0  0  0  0  0  0  0  0  0  0  0
   49.1210   35.2480   42.3270 C   0  0  0  0  0  0  0  0  0  0  0  0
   49.2760   36.1170   41.4150 N   0  0  0  0  0  0  0  0  0  0  0  0
   50.3710   34.8820   42.9080 N   0  0  0  0  0  0  0  0  0  0  0  0
   48.4700   36.5540   40.9250 H   0  0  0  0  0  0  0  0  0  0  0  0
   46.7910   33.4100   41.2180 C   0  0  0  0  0  0  0  0  0  0  0  0
   47.7130   32.4180   41.7140 C   0  0  0  0  0  0  0  0  0  0  0  0
   48.1880   31.6680   40.4440 C   0  0  0  0  0  0  0  0  0  0  0  0
   48.2310   32.7300   39.3730 C   0  0  0  0  0  0  0  0  0  0  0  0
   47.1320   33.6940   39.7480 C   0  0  0  0  0  0  0  0  0  0  0  0
   44.2156   36.4557   41.0819 H   0  0  0  0  0  0  0  0  0  0  0  0
   42.2120   35.7572   39.6734 H   0  0  0  0  0  0  0  0  0  0  0  0
   42.3033   31.8748   41.4309 H   0  0  0  0  0  0  0  0  0  0  0  0
   45.5508   34.7847   44.9085 H   0  0  0  0  0  0  0  0  0  0  0  0
   44.9764   33.2936   44.0880 H   0  0  0  0  0  0  0  0  0  0  0  0
   46.7257   33.7017   44.0880 H   0  0  0  0  0  0  0  0  0  0  0  0
   45.2442   36.4145   44.2984 H   0  0  0  0  0  0  0  0  0  0  0  0
   46.0514   36.9875   42.7995 H   0  0  0  0  0  0  0  0  0  0  0  0
   44.2852   36.6601   42.7995 H   0  0  0  0  0  0  0  0  0  0  0  0
   46.7270   35.6845   41.2750 H   0  0  0  0  0  0  0  0  0  0  0  0
   47.8918   34.1359   43.6572 H   0  0  0  0  0  0  0  0  0  0  0  0
   51.2414   35.3222   42.5770 H   0  0  0  0  0  0  0  0  0  0  0  0
   50.4034   34.1775   43.6586 H   0  0  0  0  0  0  0  0  0  0  0  0
   45.8076   32.9536   41.4043 H   0  0  0  0  0  0  0  0  0  0  0  0
   48.5620   32.8959   42.2248 H   0  0  0  0  0  0  0  0  0  0  0  0
   47.2502   31.7452   42.4510 H   0  0  0  0  0  0  0  0  0  0  0  0
   49.1859   31.2323   40.6000 H   0  0  0  0  0  0  0  0  0  0  0  0
   47.5239   30.8323   40.1784 H   0  0  0  0  0  0  0  0  0  0  0  0
   48.0409   32.2906   38.3827 H   0  0  0  0  0  0  0  0  0  0  0  0
   49.2134   33.2210   39.3117 H   0  0  0  0  0  0  0  0  0  0  0  0
   47.4792   34.7312   39.6313 H   0  0  0  0  0  0  0  0  0  0  0  0
   46.2510   33.5662   39.1018 H   0  0  0  0  0  0  0  0  0  0  0  0
  1  9  1  0
  1  8  1  0
  2  7  1  0
  2  1  1  0
  3  2  2  0
  4  5  2  0
  4  3  1  0
  5  6  1  0
  6  7  2  0
 10 11  1  0
 10  1  1  0
 12 11  1  0
 12 14  1  0
 13 12  2  0
 15 13  1  0
 16 17  1  0
 16 10  1  0
 18 17  1  0
 19 20  1  0
 19 18  1  0
 20 16  1  0
  3 21  1  0
  4 22  1  0
  6 23  1  0
  8 24  1  0
  8 25  1  0
  8 26  1  0
  9 27  1  0
  9 28  1  0
  9 29  1  0
 10 30  1  6
 11 31  1  0
 14 32  1  0
 14 33  1  0
 16 34  1  0
 17 35  1  0
 17 36  1  0
 18 37  1  0
 18 38  1  0
 19 39  1  0
 19 40  1  0
 20 41  1  0
 20 42  1  0
M  ISO  8  21  14  22  14  23  14  24   8  25   8  26   8  27   8  28   8
M  ISO  8  29   8  30   8  34  13  35  13  36  13  37  13  38  13  39  13
M  ISO  3  40  13  41  13  42  13
M  END
>  <minimizedAffinity>  (1) 
-5.30837297

>  <minimizedRMSD>  (1) 
2.15304255

$$$$
