
     RDKit          3D

 36 37  0  0  1  0  0  0  0  0999 V2000
   46.8710   33.0850   41.2890 C   0  0  0  0  0  0  0  0  0  0  0  0
   45.6960   34.0230   41.3900 C   0  0  0  0  0  0  0  0  0  0  0  0
   45.7090   34.9140   42.4410 C   0  0  0  0  0  0  0  0  0  0  0  0
   44.6150   35.8090   42.5140 C   0  0  0  0  0  0  0  0  0  0  0  0
   43.6420   35.7490   41.5810 N   0  0  0  0  0  0  0  0  0  0  0  0
   43.6670   34.8540   40.5600 C   0  0  0  0  0  0  0  0  0  0  0  0
   44.6850   34.0150   40.4840 N   0  0  0  0  0  0  0  0  0  0  0  0
   46.7440   32.1020   40.1540 C   0  0  0  0  0  0  0  0  0  0  0  0
   46.9060   32.3380   42.6100 C   0  0  0  0  0  0  0  0  0  0  0  0
   48.1410   33.8570   41.0690 C   0  0  1  0  0  0  0  0  0  0  0  0
   49.2760   33.1710   41.6330 N   0  0  0  0  0  0  0  0  0  0  0  0
   50.2010   33.8980   42.3880 C   0  0  0  0  0  0  0  0  0  0  0  0
   50.0600   35.0710   42.8530 N   0  0  0  0  0  0  0  0  0  0  0  0
   51.4760   33.3180   42.6920 N   0  0  0  0  0  0  0  0  0  0  0  0
   49.1740   35.5990   42.7620 H   0  0  0  0  0  0  0  0  0  0  0  0
   48.4020   33.5680   39.6030 N   0  0  0  0  0  0  0  0  0  0  0  0
   48.9480   32.5580   39.0050 N   0  0  0  0  0  0  0  0  0  0  0  0
   48.9450   32.7620   37.6770 C   0  0  0  0  0  0  0  0  0  0  0  0
   48.3640   33.9750   37.3750 C   0  0  0  0  0  0  0  0  0  0  0  0
   48.0350   34.4510   38.6280 C   0  0  0  0  0  0  0  0  0  0  0  0
   46.5229   34.9288   43.1808 H   0  0  0  0  0  0  0  0  0  0  0  0
   44.5583   36.5488   43.3261 H   0  0  0  0  0  0  0  0  0  0  0  0
   42.8590   34.8281   39.8140 H   0  0  0  0  0  0  0  0  0  0  0  0
   46.6130   31.0881   40.5600 H   0  0  0  0  0  0  0  0  0  0  0  0
   45.8724   32.3652   39.5367 H   0  0  0  0  0  0  0  0  0  0  0  0
   47.6539   32.1351   39.5367 H   0  0  0  0  0  0  0  0  0  0  0  0
   46.8722   33.0591   43.4400 H   0  0  0  0  0  0  0  0  0  0  0  0
   46.0384   31.6648   42.6736 H   0  0  0  0  0  0  0  0  0  0  0  0
   47.8327   31.7488   42.6736 H   0  0  0  0  0  0  0  0  0  0  0  0
   48.0413   34.8867   41.4430 H   0  0  0  0  0  0  0  0  0  0  0  0
   49.4037   32.1602   41.4821 H   0  0  0  0  0  0  0  0  0  0  0  0
   52.1631   33.8471   43.2477 H   0  0  0  0  0  0  0  0  0  0  0  0
   51.7051   32.3721   42.3547 H   0  0  0  0  0  0  0  0  0  0  0  0
   49.3498   32.0589   36.9342 H   0  0  0  0  0  0  0  0  0  0  0  0
   48.2043   34.4418   36.3919 H   0  0  0  0  0  0  0  0  0  0  0  0
   47.5415   35.4158   38.8167 H   0  0  0  0  0  0  0  0  0  0  0  0
  1  2  1  0
  1  9  1  0
  2  3  2  0
  3  4  1  0
  5  4  2  0
  6  5  1  0
  7  6  2  0
  7  2  1  0
  8  1  1  0
 10  1  1  0
 10 11  1  0
 11 12  1  0
 12 14  1  0
 12 13  2  0
 15 13  1  0
 16 10  1  0
 17 16  1  0
 18 17  2  0
 19 18  1  0
 19 20  2  0
 20 16  1  0
  3 21  1  0
  4 22  1  0
  6 23  1  0
  8 24  1  0
  8 25  1  0
  8 26  1  0
  9 27  1  0
  9 28  1  0
  9 29  1  0
 10 30  1  6
 11 31  1  0
 14 32  1  0
 14 33  1  0
 18 34  1  0
 19 35  1  0
 20 36  1  0
M  ISO  8  21  14  22  14  23  14  24   8  25   8  26   8  27   8  28   8
M  ISO  5  29   8  30   8  34  14  35  14  36  14
M  END
>  <minimizedAffinity>  (1) 
-4.91339636

>  <minimizedRMSD>  (1) 
1.60696709

$$$$
