
     RDKit          3D

 36 37  0  0  1  0  0  0  0  0999 V2000
   46.6840   33.2580   42.4780 C   0  0  0  0  0  0  0  0  0  0  0  0
   45.3760   33.9680   42.2510 C   0  0  0  0  0  0  0  0  0  0  0  0
   45.3510   35.3190   42.5240 C   0  0  0  0  0  0  0  0  0  0  0  0
   44.1350   35.9870   42.2740 C   0  0  0  0  0  0  0  0  0  0  0  0
   43.0820   35.2960   41.7920 N   0  0  0  0  0  0  0  0  0  0  0  0
   43.1420   33.9560   41.5330 C   0  0  0  0  0  0  0  0  0  0  0  0
   44.2780   33.3310   41.7670 N   0  0  0  0  0  0  0  0  0  0  0  0
   46.7050   31.8570   41.9430 C   0  0  0  0  0  0  0  0  0  0  0  0
   46.8290   33.1700   43.9940 C   0  0  0  0  0  0  0  0  0  0  0  0
   47.8130   34.0260   41.8680 C   0  0  1  0  0  0  0  0  0  0  0  0
   49.0660   33.3350   41.9850 N   0  0  0  0  0  0  0  0  0  0  0  0
   50.1920   34.0100   42.4470 C   0  0  0  0  0  0  0  0  0  0  0  0
   50.2240   35.1540   43.0030 N   0  0  0  0  0  0  0  0  0  0  0  0
   51.4960   33.4630   42.3200 N   0  0  0  0  0  0  0  0  0  0  0  0
   49.3570   35.7000   43.2100 H   0  0  0  0  0  0  0  0  0  0  0  0
   47.5560   33.7950   40.3460 C   0  0  0  0  0  0  0  0  0  0  0  0
   46.8360   32.8290   39.6750 C   0  0  0  0  0  0  0  0  0  0  0  0
   46.9330   33.1210   38.3310 C   0  0  0  0  0  0  0  0  0  0  0  0
   47.6790   34.2130   38.1900 N   0  0  0  0  0  0  0  0  0  0  0  0
   48.0500   34.6150   39.3690 N   0  0  0  0  0  0  0  0  0  0  0  0
   46.2326   35.8474   42.9159 H   0  0  0  0  0  0  0  0  0  0  0  0
   44.0456   37.0655   42.4709 H   0  0  0  0  0  0  0  0  0  0  0  0
   42.2681   33.4151   41.1409 H   0  0  0  0  0  0  0  0  0  0  0  0
   46.7157   31.1446   42.7811 H   0  0  0  0  0  0  0  0  0  0  0  0
   45.8093   31.6860   41.3278 H   0  0  0  0  0  0  0  0  0  0  0  0
   47.6054   31.7129   41.3278 H   0  0  0  0  0  0  0  0  0  0  0  0
   45.9828   33.6836   44.4737 H   0  0  0  0  0  0  0  0  0  0  0  0
   46.8384   32.1137   44.3007 H   0  0  0  0  0  0  0  0  0  0  0  0
   47.7704   33.6493   44.3007 H   0  0  0  0  0  0  0  0  0  0  0  0
   47.8545   35.0376   42.2980 H   0  0  0  0  0  0  0  0  0  0  0  0
   49.1316   32.3400   41.7271 H   0  0  0  0  0  0  0  0  0  0  0  0
   52.3105   33.9863   42.6716 H   0  0  0  0  0  0  0  0  0  0  0  0
   51.6275   32.5429   41.8762 H   0  0  0  0  0  0  0  0  0  0  0  0
   46.2894   31.9874   40.1254 H   0  0  0  0  0  0  0  0  0  0  0  0
   46.4714   32.5477   37.5135 H   0  0  0  0  0  0  0  0  0  0  0  0
   47.9219   34.6643   37.2966 H   0  0  0  0  0  0  0  0  0  0  0  0
  1  9  1  0
  2  1  1  0
  2  3  2  0
  4  3  1  0
  5  4  2  0
  6  7  2  0
  6  5  1  0
  7  2  1  0
  8  1  1  0
 10 11  1  0
 10  1  1  0
 11 12  1  0
 12 13  2  0
 13 15  1  0
 14 12  1  0
 16 10  1  0
 17 16  1  0
 18 17  2  0
 19 18  1  0
 19 20  1  0
 20 16  2  0
  3 21  1  0
  4 22  1  0
  6 23  1  0
  8 24  1  0
  8 25  1  0
  8 26  1  0
  9 27  1  0
  9 28  1  0
  9 29  1  0
 10 30  1  6
 11 31  1  0
 14 32  1  0
 14 33  1  0
 17 34  1  0
 18 35  1  0
 19 36  1  0
M  ISO  8  21  14  22  14  23  14  24   8  25   8  26   8  27   8  28   8
M  ISO  5  29   8  30   8  34  14  35  14  36   9
M  END
>  <minimizedAffinity>  (1) 
-5.06174374

>  <minimizedRMSD>  (1) 
0.496240318

$$$$
