
     RDKit          3D

 34 35  0  0  1  0  0  0  0  0999 V2000
   46.6670   33.3090   42.5520 C   0  0  0  0  0  0  0  0  0  0  0  0
   45.3470   33.9620   42.2560 C   0  0  0  0  0  0  0  0  0  0  0  0
   45.2740   35.3220   42.4660 C   0  0  0  0  0  0  0  0  0  0  0  0
   44.0340   35.9370   42.1590 C   0  0  0  0  0  0  0  0  0  0  0  0
   43.0170   35.1880   41.6900 N   0  0  0  0  0  0  0  0  0  0  0  0
   43.1290   33.8440   41.4960 C   0  0  0  0  0  0  0  0  0  0  0  0
   44.2810   33.2660   41.7810 N   0  0  0  0  0  0  0  0  0  0  0  0
   46.7380   31.8740   42.1180 C   0  0  0  0  0  0  0  0  0  0  0  0
   46.7910   33.3400   44.0760 C   0  0  0  0  0  0  0  0  0  0  0  0
   47.7860   34.0620   41.9140 C   0  0  1  0  0  0  0  0  0  0  0  0
   49.0390   33.3540   42.0510 N   0  0  0  0  0  0  0  0  0  0  0  0
   50.1680   34.0460   42.4770 C   0  0  0  0  0  0  0  0  0  0  0  0
   50.2020   35.1930   43.0250 N   0  0  0  0  0  0  0  0  0  0  0  0
   51.4650   33.4820   42.3000 N   0  0  0  0  0  0  0  0  0  0  0  0
   49.3340   35.7300   43.2530 H   0  0  0  0  0  0  0  0  0  0  0  0
   47.5350   33.8000   40.4120 C   0  0  0  0  0  0  0  0  0  0  0  0
   48.1230   34.5720   39.4490 N   0  0  0  0  0  0  0  0  0  0  0  0
   47.7870   34.1710   38.2650 O   0  0  0  0  0  0  0  0  0  0  0  0
   46.9830   33.1460   38.3740 C   0  0  0  0  0  0  0  0  0  0  0  0
   46.8290   32.9180   39.6840 N   0  0  0  0  0  0  0  0  0  0  0  0
   46.1291   35.8977   42.8500 H   0  0  0  0  0  0  0  0  0  0  0  0
   43.9030   37.0196   42.3029 H   0  0  0  0  0  0  0  0  0  0  0  0
   42.2821   33.2563   41.1121 H   0  0  0  0  0  0  0  0  0  0  0  0
   46.7702   31.2239   43.0048 H   0  0  0  0  0  0  0  0  0  0  0  0
   45.8509   31.6288   41.5156 H   0  0  0  0  0  0  0  0  0  0  0  0
   47.6450   31.7176   41.5156 H   0  0  0  0  0  0  0  0  0  0  0  0
   45.8181   33.0968   44.5281 H   0  0  0  0  0  0  0  0  0  0  0  0
   47.5399   32.6014   44.3980 H   0  0  0  0  0  0  0  0  0  0  0  0
   47.1042   34.3441   44.3980 H   0  0  0  0  0  0  0  0  0  0  0  0
   47.8263   35.0874   42.3101 H   0  0  0  0  0  0  0  0  0  0  0  0
   49.0951   32.3483   41.8356 H   0  0  0  0  0  0  0  0  0  0  0  0
   52.2984   33.9977   42.6168 H   0  0  0  0  0  0  0  0  0  0  0  0
   51.5688   32.5588   41.8553 H   0  0  0  0  0  0  0  0  0  0  0  0
   46.5228   32.5811   37.5499 H   0  0  0  0  0  0  0  0  0  0  0  0
  1  9  1  0
  2  3  2  0
  2  1  1  0
  4  3  1  0
  5  4  2  0
  6  5  1  0
  6  7  2  0
  7  2  1  0
  8  1  1  0
 10 11  1  0
 10  1  1  0
 11 12  1  0
 12 13  2  0
 13 15  1  0
 14 12  1  0
 16 10  1  0
 17 16  2  0
 18 19  1  0
 18 17  1  0
 19 20  2  0
 20 16  1  0
  3 21  1  0
  4 22  1  0
  6 23  1  0
  8 24  1  0
  8 25  1  0
  8 26  1  0
  9 27  1  0
  9 28  1  0
  9 29  1  0
 10 30  1  6
 11 31  1  0
 14 32  1  0
 14 33  1  0
 19 34  1  0
M  ISO  8  21  14  22  14  23  14  24   8  25   8  26   8  27   8  28   8
M  ISO  3  29   8  30   8  34  14
M  END
>  <minimizedAffinity>  (1) 
-5.00342417

>  <minimizedRMSD>  (1) 
0.352535009

$$$$
