
     RDKit          3D

 36 37  0  0  1  0  0  0  0  0999 V2000
   46.6280   33.1990   42.7020 C   0  0  0  0  0  0  0  0  0  0  0  0
   45.3310   33.9010   42.3950 C   0  0  0  0  0  0  0  0  0  0  0  0
   45.3160   35.2680   42.5590 C   0  0  0  0  0  0  0  0  0  0  0  0
   44.1010   35.9200   42.2340 C   0  0  0  0  0  0  0  0  0  0  0  0
   43.0550   35.1900   41.7960 N   0  0  0  0  0  0  0  0  0  0  0  0
   43.1090   33.8490   41.6480 C   0  0  0  0  0  0  0  0  0  0  0  0
   44.2350   33.2330   41.9480 N   0  0  0  0  0  0  0  0  0  0  0  0
   46.5710   31.7160   42.5130 C   0  0  0  0  0  0  0  0  0  0  0  0
   46.8780   33.4640   44.1880 C   0  0  0  0  0  0  0  0  0  0  0  0
   47.7390   33.7700   41.8740 C   0  0  1  0  0  0  0  0  0  0  0  0
   49.0050   33.1400   42.2060 N   0  0  0  0  0  0  0  0  0  0  0  0
   50.0820   33.9630   42.5590 C   0  0  0  0  0  0  0  0  0  0  0  0
   50.0470   35.2010   42.8550 N   0  0  0  0  0  0  0  0  0  0  0  0
   51.4000   33.4510   42.6080 N   0  0  0  0  0  0  0  0  0  0  0  0
   49.1500   35.7530   42.8950 H   0  0  0  0  0  0  0  0  0  0  0  0
   47.5020   33.0580   40.4940 C   0  0  0  0  0  0  0  0  0  0  0  0
   48.1890   33.8070   39.3770 C   0  0  0  0  0  0  0  0  0  0  0  0
   46.6910   33.7690   39.4810 C   0  0  0  0  0  0  0  0  0  0  0  0
   46.1953   35.8211   42.9209 H   0  0  0  0  0  0  0  0  0  0  0  0
   44.0116   37.0114   42.3379 H   0  0  0  0  0  0  0  0  0  0  0  0
   42.2362   33.2854   41.2866 H   0  0  0  0  0  0  0  0  0  0  0  0
   46.5520   31.2216   43.4955 H   0  0  0  0  0  0  0  0  0  0  0  0
   45.6621   31.4525   41.9523 H   0  0  0  0  0  0  0  0  0  0  0  0
   47.4570   31.3835   41.9523 H   0  0  0  0  0  0  0  0  0  0  0  0
   46.2467   32.7948   44.7911 H   0  0  0  0  0  0  0  0  0  0  0  0
   47.9368   33.2775   44.4206 H   0  0  0  0  0  0  0  0  0  0  0  0
   46.6302   34.5102   44.4206 H   0  0  0  0  0  0  0  0  0  0  0  0
   47.7568   34.8666   41.9583 H   0  0  0  0  0  0  0  0  0  0  0  0
   49.1080   32.1154   42.1825 H   0  0  0  0  0  0  0  0  0  0  0  0
   52.1826   34.0676   42.8692 H   0  0  0  0  0  0  0  0  0  0  0  0
   51.5769   32.4617   42.3825 H   0  0  0  0  0  0  0  0  0  0  0  0
   47.4606   32.0311   40.8860 H   0  0  0  0  0  0  0  0  0  0  0  0
   48.7020   33.2559   38.5751 H   0  0  0  0  0  0  0  0  0  0  0  0
   48.9514   34.5976   39.3153 H   0  0  0  0  0  0  0  0  0  0  0  0
   46.1383   34.6778   39.7614 H   0  0  0  0  0  0  0  0  0  0  0  0
   45.8763   33.4792   38.8011 H   0  0  0  0  0  0  0  0  0  0  0  0
  1  9  1  0
  2  3  2  0
  2  1  1  0
  4  3  1  0
  5  4  2  0
  6  5  1  0
  6  7  2  0
  7  2  1  0
  8  1  1  0
 10 11  1  0
 10  1  1  0
 11 12  1  0
 12 14  1  0
 12 13  2  0
 13 15  1  0
 16 10  1  0
 17 18  1  0
 17 16  1  0
 18 16  1  0
  3 19  1  0
  4 20  1  0
  6 21  1  0
  8 22  1  0
  8 23  1  0
  8 24  1  0
  9 25  1  0
  9 26  1  0
  9 27  1  0
 10 28  1  6
 11 29  1  0
 14 30  1  0
 14 31  1  0
 16 32  1  0
 17 33  1  0
 17 34  1  0
 18 35  1  0
 18 36  1  0
M  ISO  8  19  14  20  14  21  14  22   8  23   8  24   8  25   8  26   8
M  ISO  7  27   8  28   8  32  13  33  13  34  13  35  13  36  13
M  END
>  <minimizedAffinity>  (1) 
-4.49369001

>  <minimizedRMSD>  (1) 
0.587227643

$$$$
