
     RDKit          3D

 41 43  0  0  1  0  0  0  0  0999 V2000
   47.8110   34.1070   41.4440 C   0  0  2  0  0  0  0  0  0  0  0  0
   47.8170   34.0600   39.8920 C   0  0  0  0  0  0  0  0  0  0  0  0
   48.5640   34.9230   39.1550 N   0  0  0  0  0  0  0  0  0  0  0  0
   48.4070   34.6970   37.8880 O   0  0  0  0  0  0  0  0  0  0  0  0
   47.5660   33.6970   37.7290 C   0  0  0  0  0  0  0  0  0  0  0  0
   47.2050   33.3070   38.9670 N   0  0  0  0  0  0  0  0  0  0  0  0
   47.0190   33.0140   36.6060 N   0  0  0  0  0  0  0  0  0  0  0  0
   45.7330   32.7770   36.3700 N   0  0  0  0  0  0  0  0  0  0  0  0
   45.5590   32.1190   35.2370 C   0  0  0  0  0  0  0  0  0  0  0  0
   46.8110   31.9050   34.6850 C   0  0  0  0  0  0  0  0  0  0  0  0
   47.7170   32.4790   35.5640 C   0  0  0  0  0  0  0  0  0  0  0  0
   49.0450   33.3760   41.6890 N   0  0  0  0  0  0  0  0  0  0  0  0
   50.0930   34.0300   42.3420 C   0  0  0  0  0  0  0  0  0  0  0  0
   50.0320   35.1140   43.0200 N   0  0  0  0  0  0  0  0  0  0  0  0
   51.4080   33.5060   42.3050 N   0  0  0  0  0  0  0  0  0  0  0  0
   49.1230   35.5940   43.2120 H   0  0  0  0  0  0  0  0  0  0  0  0
   46.6400   33.2930   41.7950 C   0  0  0  0  0  0  0  0  0  0  0  0
   45.3630   34.0850   41.5850 C   0  0  0  0  0  0  0  0  0  0  0  0
   45.2200   35.2270   42.3360 C   0  0  0  0  0  0  0  0  0  0  0  0
   44.0340   35.9670   42.1240 C   0  0  0  0  0  0  0  0  0  0  0  0
   43.1300   35.5310   41.2220 N   0  0  0  0  0  0  0  0  0  0  0  0
   43.3080   34.3920   40.4970 C   0  0  0  0  0  0  0  0  0  0  0  0
   44.4060   33.7070   40.6950 N   0  0  0  0  0  0  0  0  0  0  0  0
   46.6590   32.0230   41.0400 C   0  0  0  0  0  0  0  0  0  0  0  0
   46.6390   32.9590   43.2880 C   0  0  0  0  0  0  0  0  0  0  0  0
   47.7625   35.0720   41.9698 H   0  0  0  0  0  0  0  0  0  0  0  0
   44.5965   31.7999   34.8107 H   0  0  0  0  0  0  0  0  0  0  0  0
   47.0398   31.3861   33.7425 H   0  0  0  0  0  0  0  0  0  0  0  0
   48.8100   32.4992   35.4418 H   0  0  0  0  0  0  0  0  0  0  0  0
   49.1440   32.3962   41.3872 H   0  0  0  0  0  0  0  0  0  0  0  0
   52.1721   33.9974   42.7904 H   0  0  0  0  0  0  0  0  0  0  0  0
   51.6004   32.6334   41.7927 H   0  0  0  0  0  0  0  0  0  0  0  0
   45.9839   35.5468   43.0600 H   0  0  0  0  0  0  0  0  0  0  0  0
   43.8495   36.8917   42.6904 H   0  0  0  0  0  0  0  0  0  0  0  0
   42.5539   34.0585   39.7689 H   0  0  0  0  0  0  0  0  0  0  0  0
   46.6716   31.1780   41.7441 H   0  0  0  0  0  0  0  0  0  0  0  0
   45.7617   31.9593   40.4069 H   0  0  0  0  0  0  0  0  0  0  0  0
   47.5578   31.9862   40.4069 H   0  0  0  0  0  0  0  0  0  0  0  0
   46.6418   33.8910   43.8722 H   0  0  0  0  0  0  0  0  0  0  0  0
   45.7391   32.3756   43.5326 H   0  0  0  0  0  0  0  0  0  0  0  0
   47.5354   32.3702   43.5326 H   0  0  0  0  0  0  0  0  0  0  0  0
  1 12  1  0
  1 17  1  0
  2  1  1  0
  3  2  2  0
  4  3  1  0
  5  4  1  0
  5  6  2  0
  6  2  1  0
  7  5  1  0
  8  7  1  0
  9  8  2  0
 10  9  1  0
 10 11  2  0
 11  7  1  0
 12 13  1  0
 13 14  2  0
 14 16  1  0
 15 13  1  0
 17 25  1  0
 18 17  1  0
 18 19  2  0
 20 19  1  0
 21 20  2  0
 22 23  2  0
 22 21  1  0
 23 18  1  0
 24 17  1  0
  1 26  1  6
  9 27  1  0
 10 28  1  0
 11 29  1  0
 12 30  1  0
 15 31  1  0
 15 32  1  0
 19 33  1  0
 20 34  1  0
 22 35  1  0
 24 36  1  0
 24 37  1  0
 24 38  1  0
 25 39  1  0
 25 40  1  0
 25 41  1  0
M  ISO  8  26   8  27  14  28  14  29  14  33  14  34  14  35  14  36   8
M  ISO  5  37   8  38   8  39   8  40   8  41   8
M  END
>  <minimizedAffinity>  (1) 
-5.85512304

>  <minimizedRMSD>  (1) 
0.960564137

$$$$
