
     RDKit          3D

 46 48  0  0  1  0  0  0  0  0999 V2000
   47.8250   34.0040   41.6860 C   0  0  2  0  0  0  0  0  0  0  0  0
   47.7580   33.9690   40.1380 C   0  0  0  0  0  0  0  0  0  0  0  0
   48.4400   34.8890   39.3790 N   0  0  0  0  0  0  0  0  0  0  0  0
   48.2360   34.6550   38.1140 O   0  0  0  0  0  0  0  0  0  0  0  0
   47.4490   33.6230   37.9880 C   0  0  0  0  0  0  0  0  0  0  0  0
   47.1440   33.1880   39.2310 N   0  0  0  0  0  0  0  0  0  0  0  0
   46.9790   33.0370   36.8090 N   0  0  0  0  0  0  0  0  0  0  0  0
   45.6990   32.6870   36.1880 C   0  0  0  0  0  0  0  0  0  0  0  0
   46.1110   31.4580   35.3820 C   0  0  0  0  0  0  0  0  0  0  0  0
   47.3850   31.9670   34.7340 C   0  0  0  0  0  0  0  0  0  0  0  0
   48.0530   32.6470   35.8910 C   0  0  0  0  0  0  0  0  0  0  0  0
   49.0810   33.2970   41.8660 N   0  0  0  0  0  0  0  0  0  0  0  0
   50.1660   33.9800   42.4060 C   0  0  0  0  0  0  0  0  0  0  0  0
   50.1420   35.0910   43.0430 N   0  0  0  0  0  0  0  0  0  0  0  0
   51.4800   33.4620   42.2920 N   0  0  0  0  0  0  0  0  0  0  0  0
   49.2580   35.5990   43.2470 H   0  0  0  0  0  0  0  0  0  0  0  0
   46.6760   33.1620   42.0800 C   0  0  0  0  0  0  0  0  0  0  0  0
   45.3780   33.9070   41.8590 C   0  0  0  0  0  0  0  0  0  0  0  0
   45.3000   35.1790   42.3810 C   0  0  0  0  0  0  0  0  0  0  0  0
   44.0880   35.8730   42.1610 C   0  0  0  0  0  0  0  0  0  0  0  0
   43.0940   35.2690   41.4660 N   0  0  0  0  0  0  0  0  0  0  0  0
   43.2120   34.0040   40.9660 C   0  0  0  0  0  0  0  0  0  0  0  0
   44.3380   33.3830   41.1820 N   0  0  0  0  0  0  0  0  0  0  0  0
   46.7320   31.8680   41.3690 C   0  0  0  0  0  0  0  0  0  0  0  0
   46.7090   32.8720   43.5790 C   0  0  0  0  0  0  0  0  0  0  0  0
   47.7859   34.9616   42.2259 H   0  0  0  0  0  0  0  0  0  0  0  0
   44.9353   32.4422   36.9409 H   0  0  0  0  0  0  0  0  0  0  0  0
   45.2403   33.4924   35.5956 H   0  0  0  0  0  0  0  0  0  0  0  0
   46.3040   30.5919   36.0321 H   0  0  0  0  0  0  0  0  0  0  0  0
   45.3496   31.0970   34.6750 H   0  0  0  0  0  0  0  0  0  0  0  0
   47.9971   31.1398   34.3453 H   0  0  0  0  0  0  0  0  0  0  0  0
   47.2179   32.6192   33.8641 H   0  0  0  0  0  0  0  0  0  0  0  0
   48.7492   31.9565   36.3895 H   0  0  0  0  0  0  0  0  0  0  0  0
   48.6366   33.5194   35.5618 H   0  0  0  0  0  0  0  0  0  0  0  0
   49.1669   32.3061   41.5982 H   0  0  0  0  0  0  0  0  0  0  0  0
   52.2740   33.9784   42.6966 H   0  0  0  0  0  0  0  0  0  0  0  0
   51.6411   32.5691   41.8045 H   0  0  0  0  0  0  0  0  0  0  0  0
   46.1343   35.6300   42.9382 H   0  0  0  0  0  0  0  0  0  0  0  0
   43.9534   36.8930   42.5501 H   0  0  0  0  0  0  0  0  0  0  0  0
   42.3930   33.5295   40.4055 H   0  0  0  0  0  0  0  0  0  0  0  0
   46.7675   31.0483   42.1017 H   0  0  0  0  0  0  0  0  0  0  0  0
   45.8378   31.7573   40.7380 H   0  0  0  0  0  0  0  0  0  0  0  0
   47.6324   31.8350   40.7380 H   0  0  0  0  0  0  0  0  0  0  0  0
   46.6018   33.8138   44.1371 H   0  0  0  0  0  0  0  0  0  0  0  0
   45.8821   32.1951   43.8398 H   0  0  0  0  0  0  0  0  0  0  0  0
   47.6669   32.3982   43.8398 H   0  0  0  0  0  0  0  0  0  0  0  0
  1 12  1  0
  1 17  1  0
  2  1  1  0
  3  2  2  0
  4  3  1  0
  5  4  1  0
  5  6  2  0
  6  2  1  0
  7  5  1  0
  8  7  1  0
  9  8  1  0
 10  9  1  0
 10 11  1  0
 11  7  1  0
 12 13  1  0
 13 14  2  0
 14 16  1  0
 15 13  1  0
 17 25  1  0
 18 17  1  0
 18 19  2  0
 20 19  1  0
 21 20  2  0
 22 23  2  0
 22 21  1  0
 23 18  1  0
 24 17  1  0
  1 26  1  1
  8 27  1  0
  8 28  1  0
  9 29  1  0
  9 30  1  0
 10 31  1  0
 10 32  1  0
 11 33  1  0
 11 34  1  0
 12 35  1  0
 15 36  1  0
 15 37  1  0
 19 38  1  0
 20 39  1  0
 22 40  1  0
 24 41  1  0
 24 42  1  0
 24 43  1  0
 25 44  1  0
 25 45  1  0
 25 46  1  0
M  ISO  8  26   8  27  13  28  13  29  13  30  13  31  13  32  13  33  13
M  ISO  8  34  13  38  14  39  14  40  14  41   8  42   8  43   8  44   8
M  ISO  2  45   8  46   8
M  END
>  <minimizedAffinity>  (1) 
-5.76599073

>  <minimizedRMSD>  (1) 
0.70325315

$$$$
