
     RDKit          3D

 42 44  0  0  1  0  0  0  0  0999 V2000
   47.8280   34.0220   41.5610 C   0  0  1  0  0  0  0  0  0  0  0  0
   49.0300   33.2640   41.8570 N   0  0  0  0  0  0  0  0  0  0  0  0
   50.1110   33.9130   42.4610 C   0  0  0  0  0  0  0  0  0  0  0  0
   50.0910   35.0420   43.0610 N   0  0  0  0  0  0  0  0  0  0  0  0
   51.4050   33.3260   42.4540 N   0  0  0  0  0  0  0  0  0  0  0  0
   49.2240   35.5930   43.1870 H   0  0  0  0  0  0  0  0  0  0  0  0
   47.9610   34.0600   40.0160 C   0  0  0  0  0  0  0  0  0  0  0  0
   48.5600   35.0960   39.3720 N   0  0  0  0  0  0  0  0  0  0  0  0
   48.5480   34.9140   38.0910 O   0  0  0  0  0  0  0  0  0  0  0  0
   47.9530   33.7750   37.8310 C   0  0  0  0  0  0  0  0  0  0  0  0
   47.5900   33.2460   39.0140 N   0  0  0  0  0  0  0  0  0  0  0  0
   47.6470   33.0560   36.6010 C   0  0  0  0  0  0  0  0  0  0  0  0
   46.4600   32.3950   36.3110 C   0  0  0  0  0  0  0  0  0  0  0  0
   46.3940   31.7780   35.0710 C   0  0  0  0  0  0  0  0  0  0  0  0
   47.4110   31.8140   34.1990 N   0  0  0  0  0  0  0  0  0  0  0  0
   48.5590   32.4610   34.4910 C   0  0  0  0  0  0  0  0  0  0  0  0
   48.6130   33.0480   35.6820 N   0  0  0  0  0  0  0  0  0  0  0  0
   46.6170   33.2200   41.7720 C   0  0  0  0  0  0  0  0  0  0  0  0
   45.3750   34.0610   41.5360 C   0  0  0  0  0  0  0  0  0  0  0  0
   45.1960   35.1320   42.3670 C   0  0  0  0  0  0  0  0  0  0  0  0
   44.0420   35.9110   42.1250 C   0  0  0  0  0  0  0  0  0  0  0  0
   43.2040   35.5740   41.1230 N   0  0  0  0  0  0  0  0  0  0  0  0
   43.4210   34.4990   40.3180 C   0  0  0  0  0  0  0  0  0  0  0  0
   44.4890   33.7690   40.5350 N   0  0  0  0  0  0  0  0  0  0  0  0
   46.6600   32.0060   40.9300 C   0  0  0  0  0  0  0  0  0  0  0  0
   46.5050   32.7770   43.2320 C   0  0  0  0  0  0  0  0  0  0  0  0
   47.7488   34.9541   42.1398 H   0  0  0  0  0  0  0  0  0  0  0  0
   49.0857   32.2620   41.6253 H   0  0  0  0  0  0  0  0  0  0  0  0
   52.1940   33.8133   42.9022 H   0  0  0  0  0  0  0  0  0  0  0  0
   51.5540   32.4132   42.0008 H   0  0  0  0  0  0  0  0  0  0  0  0
   45.6221   32.3630   37.0229 H   0  0  0  0  0  0  0  0  0  0  0  0
   45.4753   31.2405   34.7935 H   0  0  0  0  0  0  0  0  0  0  0  0
   49.4010   32.5001   33.7842 H   0  0  0  0  0  0  0  0  0  0  0  0
   45.9053   35.3720   43.1728 H   0  0  0  0  0  0  0  0  0  0  0  0
   43.8278   36.7893   42.7516 H   0  0  0  0  0  0  0  0  0  0  0  0
   42.7204   34.2489   39.5077 H   0  0  0  0  0  0  0  0  0  0  0  0
   46.6916   31.1144   41.5735 H   0  0  0  0  0  0  0  0  0  0  0  0
   45.7626   31.9683   40.2949 H   0  0  0  0  0  0  0  0  0  0  0  0
   47.5578   32.0318   40.2949 H   0  0  0  0  0  0  0  0  0  0  0  0
   46.7208   33.6304   43.8917 H   0  0  0  0  0  0  0  0  0  0  0  0
   45.4861   32.4112   43.4270 H   0  0  0  0  0  0  0  0  0  0  0  0
   47.2276   31.9709   43.4270 H   0  0  0  0  0  0  0  0  0  0  0  0
  1 18  1  0
  1  2  1  0
  2  3  1  0
  3  4  2  0
  4  6  1  0
  5  3  1  0
  7  1  1  0
  8  7  2  0
  9  8  1  0
 10  9  1  0
 10 11  2  0
 11  7  1  0
 12 10  1  0
 13 12  2  0
 14 13  1  0
 15 16  1  0
 15 14  2  0
 16 17  2  0
 17 12  1  0
 18 26  1  0
 19 18  1  0
 19 20  2  0
 21 20  1  0
 22 21  2  0
 23 24  2  0
 23 22  1  0
 24 19  1  0
 25 18  1  0
  1 27  1  1
  2 28  1  0
  5 29  1  0
  5 30  1  0
 13 31  1  0
 14 32  1  0
 16 33  1  0
 20 34  1  0
 21 35  1  0
 23 36  1  0
 25 37  1  0
 25 38  1  0
 25 39  1  0
 26 40  1  0
 26 41  1  0
 26 42  1  0
M  ISO  8  27   8  31  14  32  14  33  14  34  14  35  14  36  14  37   8
M  ISO  5  38   8  39   8  40   8  41   8  42   8
M  END
>  <minimizedAffinity>  (1) 
-5.77181387

>  <minimizedRMSD>  (1) 
1.41356361

$$$$
