
     RDKit          3D

 43 45  0  0  1  0  0  0  0  0999 V2000
   47.7650   34.0260   41.7810 C   0  0  1  0  0  0  0  0  0  0  0  0
   48.9700   33.2570   42.0510 N   0  0  0  0  0  0  0  0  0  0  0  0
   50.1000   33.9240   42.5300 C   0  0  0  0  0  0  0  0  0  0  0  0
   50.1500   35.0950   43.0480 N   0  0  0  0  0  0  0  0  0  0  0  0
   51.3780   33.3180   42.4790 N   0  0  0  0  0  0  0  0  0  0  0  0
   49.2880   35.6570   43.2300 H   0  0  0  0  0  0  0  0  0  0  0  0
   47.8270   34.0350   40.2400 C   0  0  0  0  0  0  0  0  0  0  0  0
   48.4840   35.0110   39.5570 N   0  0  0  0  0  0  0  0  0  0  0  0
   48.3930   34.8070   38.2760 O   0  0  0  0  0  0  0  0  0  0  0  0
   47.7000   33.7310   38.0640 C   0  0  0  0  0  0  0  0  0  0  0  0
   47.3460   33.2460   39.2680 N   0  0  0  0  0  0  0  0  0  0  0  0
   47.3360   33.1060   36.8000 C   0  0  0  0  0  0  0  0  0  0  0  0
   46.0310   32.7690   36.5030 C   0  0  0  0  0  0  0  0  0  0  0  0
   45.6440   32.1780   35.3170 C   0  0  0  0  0  0  0  0  0  0  0  0
   46.6370   31.9120   34.3820 C   0  0  0  0  0  0  0  0  0  0  0  0
   47.9390   32.2520   34.6830 C   0  0  0  0  0  0  0  0  0  0  0  0
   48.2430   32.8250   35.8580 N   0  0  0  0  0  0  0  0  0  0  0  0
   46.5610   33.2320   42.0650 C   0  0  0  0  0  0  0  0  0  0  0  0
   45.3120   34.0340   41.7530 C   0  0  0  0  0  0  0  0  0  0  0  0
   45.1790   35.2320   42.4050 C   0  0  0  0  0  0  0  0  0  0  0  0
   44.0140   35.9780   42.0900 C   0  0  0  0  0  0  0  0  0  0  0  0
   43.1270   35.4880   41.1960 N   0  0  0  0  0  0  0  0  0  0  0  0
   43.2990   34.2920   40.5710 C   0  0  0  0  0  0  0  0  0  0  0  0
   44.3720   33.5980   40.8590 N   0  0  0  0  0  0  0  0  0  0  0  0
   46.6190   31.9470   41.3350 C   0  0  0  0  0  0  0  0  0  0  0  0
   46.4460   32.9080   43.5570 C   0  0  0  0  0  0  0  0  0  0  0  0
   47.7208   34.9753   42.3350 H   0  0  0  0  0  0  0  0  0  0  0  0
   48.9896   32.2395   41.8919 H   0  0  0  0  0  0  0  0  0  0  0  0
   52.2018   33.8226   42.8362 H   0  0  0  0  0  0  0  0  0  0  0  0
   51.4842   32.3724   42.0847 H   0  0  0  0  0  0  0  0  0  0  0  0
   45.2558   32.9834   37.2534 H   0  0  0  0  0  0  0  0  0  0  0  0
   44.5912   31.9275   35.1199 H   0  0  0  0  0  0  0  0  0  0  0  0
   46.3892   31.4393   33.4202 H   0  0  0  0  0  0  0  0  0  0  0  0
   48.7367   32.0515   33.9526 H   0  0  0  0  0  0  0  0  0  0  0  0
   45.9274   35.5921   43.1263 H   0  0  0  0  0  0  0  0  0  0  0  0
   43.8337   36.9506   42.5712 H   0  0  0  0  0  0  0  0  0  0  0  0
   42.5601   33.9193   39.8464 H   0  0  0  0  0  0  0  0  0  0  0  0
   46.6565   31.1171   42.0560 H   0  0  0  0  0  0  0  0  0  0  0  0
   45.7246   31.8436   40.7030 H   0  0  0  0  0  0  0  0  0  0  0  0
   47.5191   31.9246   40.7030 H   0  0  0  0  0  0  0  0  0  0  0  0
   46.7565   33.7828   44.1472 H   0  0  0  0  0  0  0  0  0  0  0  0
   45.4030   32.6546   43.7979 H   0  0  0  0  0  0  0  0  0  0  0  0
   47.0958   32.0538   43.7979 H   0  0  0  0  0  0  0  0  0  0  0  0
  1  2  1  0
  1 18  1  0
  2  3  1  0
  3  4  2  0
  4  6  1  0
  5  3  1  0
  7  1  1  0
  8  7  2  0
  9  8  1  0
 10  9  1  0
 10 11  2  0
 11  7  1  0
 12 10  1  0
 13 12  2  0
 14 13  1  0
 15 16  1  0
 15 14  2  0
 16 17  2  0
 17 12  1  0
 18 26  1  0
 19 18  1  0
 19 20  2  0
 21 20  1  0
 22 21  2  0
 23 24  2  0
 23 22  1  0
 24 19  1  0
 25 18  1  0
  1 27  1  1
  2 28  1  0
  5 29  1  0
  5 30  1  0
 13 31  1  0
 14 32  1  0
 15 33  1  0
 16 34  1  0
 20 35  1  0
 21 36  1  0
 23 37  1  0
 25 38  1  0
 25 39  1  0
 25 40  1  0
 26 41  1  0
 26 42  1  0
 26 43  1  0
M  ISO  8  27   8  31  14  32  14  33  14  34  14  35  14  36  14  37  14
M  ISO  6  38   8  39   8  40   8  41   8  42   8  43   8
M  END
>  <minimizedAffinity>  (1) 
-5.75973225

>  <minimizedRMSD>  (1) 
1.1278156

$$$$
