
     RDKit          3D

 44 46  0  0  1  0  0  0  0  0999 V2000
   47.8970   34.0930   41.3370 C   0  0  1  0  0  0  0  0  0  0  0  0
   49.1290   33.3700   41.6250 N   0  0  0  0  0  0  0  0  0  0  0  0
   50.1490   34.0330   42.3240 C   0  0  0  0  0  0  0  0  0  0  0  0
   50.0620   35.0940   42.9960 N   0  0  0  0  0  0  0  0  0  0  0  0
   51.4730   33.5110   42.3260 N   0  0  0  0  0  0  0  0  0  0  0  0
   49.1490   35.5830   43.1460 H   0  0  0  0  0  0  0  0  0  0  0  0
   47.9510   34.0490   39.8100 C   0  0  0  0  0  0  0  0  0  0  0  0
   48.5600   35.0520   39.0910 N   0  0  0  0  0  0  0  0  0  0  0  0
   48.4910   34.7960   37.8140 O   0  0  0  0  0  0  0  0  0  0  0  0
   47.8650   33.6720   37.6340 C   0  0  0  0  0  0  0  0  0  0  0  0
   47.5320   33.2120   38.8550 N   0  0  0  0  0  0  0  0  0  0  0  0
   47.5530   32.9890   36.3850 C   0  0  0  0  0  0  0  0  0  0  0  0
   48.5540   32.8030   35.4340 C   0  0  0  0  0  0  0  0  0  0  0  0
   48.3100   32.1570   34.2220 C   0  0  0  0  0  0  0  0  0  0  0  0
   47.0270   31.6820   33.9530 C   0  0  0  0  0  0  0  0  0  0  0  0
   46.0820   31.8890   34.9190 C   0  0  0  0  0  0  0  0  0  0  0  0
   46.2830   32.5200   36.1220 C   0  0  0  0  0  0  0  0  0  0  0  0
   46.7160   33.2750   41.6460 C   0  0  0  0  0  0  0  0  0  0  0  0
   45.4490   34.0920   41.4730 C   0  0  0  0  0  0  0  0  0  0  0  0
   45.2770   35.1400   42.3360 C   0  0  0  0  0  0  0  0  0  0  0  0
   44.0970   35.9010   42.1500 C   0  0  0  0  0  0  0  0  0  0  0  0
   43.2310   35.5690   41.1690 N   0  0  0  0  0  0  0  0  0  0  0  0
   43.4420   34.5110   40.3300 C   0  0  0  0  0  0  0  0  0  0  0  0
   44.5330   33.8080   40.5010 N   0  0  0  0  0  0  0  0  0  0  0  0
   46.7270   32.0410   40.8260 C   0  0  0  0  0  0  0  0  0  0  0  0
   46.6950   32.8510   43.1270 C   0  0  0  0  0  0  0  0  0  0  0  0
   47.8283   35.0564   41.8635 H   0  0  0  0  0  0  0  0  0  0  0  0
   49.2485   32.3929   41.3218 H   0  0  0  0  0  0  0  0  0  0  0  0
   52.2189   34.0008   42.8404 H   0  0  0  0  0  0  0  0  0  0  0  0
   51.6853   32.6434   41.8130 H   0  0  0  0  0  0  0  0  0  0  0  0
   49.5668   33.1767   35.6452 H   0  0  0  0  0  0  0  0  0  0  0  0
   49.1188   32.0241   33.4884 H   0  0  0  0  0  0  0  0  0  0  0  0
   46.7873   31.1668   33.0112 H   0  0  0  0  0  0  0  0  0  0  0  0
   45.0677   31.5159   34.7138 H   0  0  0  0  0  0  0  0  0  0  0  0
   45.4647   32.6462   36.8461 H   0  0  0  0  0  0  0  0  0  0  0  0
   46.0080   35.3762   43.1233 H   0  0  0  0  0  0  0  0  0  0  0  0
   43.8867   36.7606   42.8034 H   0  0  0  0  0  0  0  0  0  0  0  0
   42.7205   34.2590   39.5389 H   0  0  0  0  0  0  0  0  0  0  0  0
   46.7348   31.1617   41.4869 H   0  0  0  0  0  0  0  0  0  0  0  0
   45.8291   32.0146   40.1912 H   0  0  0  0  0  0  0  0  0  0  0  0
   47.6253   32.0306   40.1912 H   0  0  0  0  0  0  0  0  0  0  0  0
   46.7393   33.7458   43.7652 H   0  0  0  0  0  0  0  0  0  0  0  0
   45.7683   32.2967   43.3366 H   0  0  0  0  0  0  0  0  0  0  0  0
   47.5624   32.2078   43.3366 H   0  0  0  0  0  0  0  0  0  0  0  0
  1  2  1  0
  1 18  1  0
  2  3  1  0
  3  5  1  0
  3  4  2  0
  4  6  1  0
  7  1  1  0
  8  7  2  0
  9  8  1  0
 10  9  1  0
 10 11  2  0
 11  7  1  0
 12 10  1  0
 13 12  2  0
 14 13  1  0
 15 14  2  0
 15 16  1  0
 16 17  2  0
 17 12  1  0
 18 26  1  0
 19 18  1  0
 19 20  2  0
 21 20  1  0
 22 21  2  0
 23 24  2  0
 23 22  1  0
 24 19  1  0
 25 18  1  0
  1 27  1  6
  2 28  1  0
  5 29  1  0
  5 30  1  0
 13 31  1  0
 14 32  1  0
 15 33  1  0
 16 34  1  0
 17 35  1  0
 20 36  1  0
 21 37  1  0
 23 38  1  0
 25 39  1  0
 25 40  1  0
 25 41  1  0
 26 42  1  0
 26 43  1  0
 26 44  1  0
M  ISO  8  27   8  31  14  32  14  33  14  34  14  35  14  36  14  37  14
M  ISO  7  38  14  39   8  40   8  41   8  42   8  43   8  44   8
M  END
>  <minimizedAffinity>  (1) 
-5.814538

>  <minimizedRMSD>  (1) 
1.52198482

$$$$
