
     RDKit          3D

 43 44  0  0  1  0  0  0  0  0999 V2000
   46.5340   33.2420   42.2500 C   0  0  0  0  0  0  0  0  0  0  0  0
   45.2870   34.0250   41.8790 C   0  0  0  0  0  0  0  0  0  0  0  0
   45.1590   35.2720   42.4290 C   0  0  0  0  0  0  0  0  0  0  0  0
   43.9980   35.9920   42.0620 C   0  0  0  0  0  0  0  0  0  0  0  0
   43.1060   35.4340   41.2180 N   0  0  0  0  0  0  0  0  0  0  0  0
   43.2710   34.1870   40.6920 C   0  0  0  0  0  0  0  0  0  0  0  0
   44.3450   33.5180   41.0300 N   0  0  0  0  0  0  0  0  0  0  0  0
   46.5920   31.9110   41.6230 C   0  0  0  0  0  0  0  0  0  0  0  0
   46.4250   33.0490   43.7650 C   0  0  0  0  0  0  0  0  0  0  0  0
   47.7390   34.0120   41.9120 C   0  0  1  0  0  0  0  0  0  0  0  0
   48.9500   33.2580   42.1870 N   0  0  0  0  0  0  0  0  0  0  0  0
   50.0970   33.9540   42.5730 C   0  0  0  0  0  0  0  0  0  0  0  0
   50.1830   35.1610   42.9850 N   0  0  0  0  0  0  0  0  0  0  0  0
   51.3660   33.3130   42.5330 N   0  0  0  0  0  0  0  0  0  0  0  0
   49.3340   35.7420   43.1490 H   0  0  0  0  0  0  0  0  0  0  0  0
   47.7780   33.9410   40.3620 C   0  0  0  0  0  0  0  0  0  0  0  0
   48.3400   34.9220   39.6100 N   0  0  0  0  0  0  0  0  0  0  0  0
   48.2470   34.6490   38.3480 O   0  0  0  0  0  0  0  0  0  0  0  0
   47.6300   33.4980   38.2060 C   0  0  0  0  0  0  0  0  0  0  0  0
   47.3430   33.0660   39.4420 N   0  0  0  0  0  0  0  0  0  0  0  0
   47.2350   32.6750   37.0340 C   0  0  0  0  0  0  0  0  0  0  0  0
   45.8050   32.9220   36.6180 C   0  0  0  0  0  0  0  0  0  0  0  0
   48.1940   32.7890   35.8920 C   0  0  0  0  0  0  0  0  0  0  0  0
   45.9123   35.6884   43.1139 H   0  0  0  0  0  0  0  0  0  0  0  0
   43.8236   37.0015   42.4627 H   0  0  0  0  0  0  0  0  0  0  0  0
   42.5263   33.7568   40.0061 H   0  0  0  0  0  0  0  0  0  0  0  0
   46.6257   31.1384   42.4052 H   0  0  0  0  0  0  0  0  0  0  0  0
   45.6995   31.7611   40.9977 H   0  0  0  0  0  0  0  0  0  0  0  0
   47.4941   31.8393   40.9977 H   0  0  0  0  0  0  0  0  0  0  0  0
   46.9035   33.8963   44.2779 H   0  0  0  0  0  0  0  0  0  0  0  0
   45.3645   32.9977   44.0527 H   0  0  0  0  0  0  0  0  0  0  0  0
   46.9286   32.1144   44.0527 H   0  0  0  0  0  0  0  0  0  0  0  0
   47.7046   34.9826   42.4285 H   0  0  0  0  0  0  0  0  0  0  0  0
   48.9621   32.2318   42.0991 H   0  0  0  0  0  0  0  0  0  0  0  0
   52.2118   33.8271   42.8179 H   0  0  0  0  0  0  0  0  0  0  0  0
   51.4392   32.3347   42.2191 H   0  0  0  0  0  0  0  0  0  0  0  0
   47.2880   31.6271   37.3643 H   0  0  0  0  0  0  0  0  0  0  0  0
   45.1761   33.0306   37.5139 H   0  0  0  0  0  0  0  0  0  0  0  0
   45.7513   33.8427   36.0185 H   0  0  0  0  0  0  0  0  0  0  0  0
   45.4456   32.0726   36.0185 H   0  0  0  0  0  0  0  0  0  0  0  0
   49.2155   32.9104   36.2817 H   0  0  0  0  0  0  0  0  0  0  0  0
   48.1420   31.8783   35.2772 H   0  0  0  0  0  0  0  0  0  0  0  0
   47.9299   33.6621   35.2772 H   0  0  0  0  0  0  0  0  0  0  0  0
  1  9  1  0
  2  1  1  0
  2  3  2  0
  4  3  1  0
  5  4  2  0
  6  7  2  0
  6  5  1  0
  7  2  1  0
  8  1  1  0
 10 11  1  0
 10  1  1  0
 11 12  1  0
 12 13  2  0
 13 15  1  0
 14 12  1  0
 16 10  1  0
 17 16  2  0
 18 17  1  0
 19 18  1  0
 19 20  2  0
 20 16  1  0
 21 19  1  0
 22 21  1  0
 23 21  1  0
  3 24  1  0
  4 25  1  0
  6 26  1  0
  8 27  1  0
  8 28  1  0
  8 29  1  0
  9 30  1  0
  9 31  1  0
  9 32  1  0
 10 33  1  6
 11 34  1  0
 14 35  1  0
 14 36  1  0
 21 37  1  0
 22 38  1  0
 22 39  1  0
 22 40  1  0
 23 41  1  0
 23 42  1  0
 23 43  1  0
M  ISO  8  24  14  25  14  26  14  27   8  28   8  29   8  30   8  31   8
M  ISO  8  32   8  33   8  37   8  38   8  39   8  40   8  41   8  42   8
M  ISO  1  43   8
M  END
>  <minimizedAffinity>  (1) 
-5.24292326

>  <minimizedRMSD>  (1) 
0.621635973

$$$$
