
     RDKit          3D

 37 38  0  0  1  0  0  0  0  0999 V2000
   47.7530   34.0590   41.7430 C   0  0  1  0  0  0  0  0  0  0  0  0
   49.0140   33.3520   41.8610 N   0  0  0  0  0  0  0  0  0  0  0  0
   50.1170   34.0140   42.4240 C   0  0  0  0  0  0  0  0  0  0  0  0
   50.0940   35.0870   43.1170 N   0  0  0  0  0  0  0  0  0  0  0  0
   51.4260   33.4960   42.2470 N   0  0  0  0  0  0  0  0  0  0  0  0
   49.2140   35.5590   43.3800 H   0  0  0  0  0  0  0  0  0  0  0  0
   47.5890   33.9760   40.2030 C   0  0  0  0  0  0  0  0  0  0  0  0
   48.4310   34.6160   39.3530 N   0  0  0  0  0  0  0  0  0  0  0  0
   48.1000   34.4130   38.1230 O   0  0  0  0  0  0  0  0  0  0  0  0
   47.0350   33.6390   38.0950 C   0  0  0  0  0  0  0  0  0  0  0  0
   46.7230   33.3720   39.3760 N   0  0  0  0  0  0  0  0  0  0  0  0
   46.2510   33.1030   37.0110 C   0  0  0  0  0  0  0  0  0  0  0  0
   46.4400   31.9900   36.4360 O   0  0  0  0  0  0  0  0  0  0  0  0
   45.1800   33.8480   36.5280 O   0  0  0  0  0  0  0  0  0  0  0  0
   46.6320   33.2560   42.2430 C   0  0  0  0  0  0  0  0  0  0  0  0
   45.3250   34.0130   42.0880 C   0  0  0  0  0  0  0  0  0  0  0  0
   45.3200   35.3130   42.5120 C   0  0  0  0  0  0  0  0  0  0  0  0
   44.0990   36.0100   42.3500 C   0  0  0  0  0  0  0  0  0  0  0  0
   43.0380   35.3790   41.8040 N   0  0  0  0  0  0  0  0  0  0  0  0
   43.0850   34.0860   41.3970 C   0  0  0  0  0  0  0  0  0  0  0  0
   44.2140   33.4380   41.5460 N   0  0  0  0  0  0  0  0  0  0  0  0
   46.6190   31.9380   41.5770 C   0  0  0  0  0  0  0  0  0  0  0  0
   46.7600   33.0300   43.7540 C   0  0  0  0  0  0  0  0  0  0  0  0
   47.7536   35.0332   42.2538 H   0  0  0  0  0  0  0  0  0  0  0  0
   49.0992   32.3782   41.5364 H   0  0  0  0  0  0  0  0  0  0  0  0
   52.2332   33.9837   42.6611 H   0  0  0  0  0  0  0  0  0  0  0  0
   51.5691   32.6323   41.7044 H   0  0  0  0  0  0  0  0  0  0  0  0
   44.6289   33.4977   35.7839 H   0  0  0  0  0  0  0  0  0  0  0  0
   46.2097   35.7875   42.9517 H   0  0  0  0  0  0  0  0  0  0  0  0
   44.0151   37.0599   42.6672 H   0  0  0  0  0  0  0  0  0  0  0  0
   42.2037   33.5972   40.9561 H   0  0  0  0  0  0  0  0  0  0  0  0
   46.6112   31.1431   42.3373 H   0  0  0  0  0  0  0  0  0  0  0  0
   45.7200   31.8535   40.9488 H   0  0  0  0  0  0  0  0  0  0  0  0
   47.5162   31.8357   40.9488 H   0  0  0  0  0  0  0  0  0  0  0  0
   46.2869   33.8653   44.2911 H   0  0  0  0  0  0  0  0  0  0  0  0
   46.2610   32.0886   44.0275 H   0  0  0  0  0  0  0  0  0  0  0  0
   47.8240   32.9739   44.0275 H   0  0  0  0  0  0  0  0  0  0  0  0
  1  2  1  0
  1 15  1  0
  2  3  1  0
  3  4  2  0
  4  6  1  0
  5  3  1  0
  7  1  1  0
  8  7  2  0
  9  8  1  0
 10  9  1  0
 10 11  2  0
 11  7  1  0
 12 10  1  0
 13 12  2  0
 14 12  1  0
 15 23  1  0
 16 15  1  0
 16 17  2  0
 18 17  1  0
 19 18  2  0
 20 21  2  0
 20 19  1  0
 21 16  1  0
 22 15  1  0
  1 24  1  1
  2 25  1  0
  5 26  1  0
  5 27  1  0
 14 28  1  0
 17 29  1  0
 18 30  1  0
 20 31  1  0
 22 32  1  0
 22 33  1  0
 22 34  1  0
 23 35  1  0
 23 36  1  0
 23 37  1  0
M  ISO  8  24   8  28   3  29  14  30  14  31  14  32   8  33   8  34   8
M  ISO  3  35   8  36   8  37   8
M  END
>  <minimizedAffinity>  (1) 
-5.58431387

>  <minimizedRMSD>  (1) 
0.469849676

$$$$
