
     RDKit          3D

 47 49  0  0  1  0  0  0  0  0999 V2000
   47.7350   33.9980   42.0520 C   0  0  1  0  0  0  0  0  0  0  0  0
   48.9680   33.2560   42.2700 N   0  0  0  0  0  0  0  0  0  0  0  0
   50.1270   33.9620   42.5980 C   0  0  0  0  0  0  0  0  0  0  0  0
   50.2130   35.1730   43.0070 N   0  0  0  0  0  0  0  0  0  0  0  0
   51.3990   33.3510   42.4960 N   0  0  0  0  0  0  0  0  0  0  0  0
   49.3610   35.7420   43.2260 H   0  0  0  0  0  0  0  0  0  0  0  0
   47.6440   33.8450   40.5110 C   0  0  0  0  0  0  0  0  0  0  0  0
   48.2070   34.7390   39.6610 N   0  0  0  0  0  0  0  0  0  0  0  0
   47.9940   34.4070   38.4290 O   0  0  0  0  0  0  0  0  0  0  0  0
   47.2950   33.2990   38.4000 C   0  0  0  0  0  0  0  0  0  0  0  0
   47.0820   32.9560   39.6850 N   0  0  0  0  0  0  0  0  0  0  0  0
   46.7710   32.4730   37.2990 C   0  0  0  0  0  0  0  0  0  0  0  0
   47.7240   32.4690   36.1210 C   0  0  0  0  0  0  0  0  0  0  0  0
   46.9120   32.0550   34.9350 C   0  0  0  0  0  0  0  0  0  0  0  0
   45.4590   32.1720   35.3980 C   0  0  0  0  0  0  0  0  0  0  0  0
   45.5310   33.0770   36.6360 C   0  0  0  0  0  0  0  0  0  0  0  0
   46.5700   33.2420   42.5290 C   0  0  0  0  0  0  0  0  0  0  0  0
   45.2870   33.9660   42.1680 C   0  0  0  0  0  0  0  0  0  0  0  0
   45.2250   35.3040   42.4880 C   0  0  0  0  0  0  0  0  0  0  0  0
   44.0290   35.9680   42.1330 C   0  0  0  0  0  0  0  0  0  0  0  0
   43.0410   35.2850   41.5210 N   0  0  0  0  0  0  0  0  0  0  0  0
   43.1410   33.9610   41.2220 C   0  0  0  0  0  0  0  0  0  0  0  0
   44.2480   33.3420   41.5490 N   0  0  0  0  0  0  0  0  0  0  0  0
   46.6160   31.8600   42.0170 C   0  0  0  0  0  0  0  0  0  0  0  0
   46.5570   33.1790   44.0610 C   0  0  0  0  0  0  0  0  0  0  0  0
   47.7393   34.9966   42.5132 H   0  0  0  0  0  0  0  0  0  0  0  0
   48.9852   32.2297   42.1839 H   0  0  0  0  0  0  0  0  0  0  0  0
   52.2467   33.8824   42.7409 H   0  0  0  0  0  0  0  0  0  0  0  0
   51.4773   32.3748   42.1768 H   0  0  0  0  0  0  0  0  0  0  0  0
   46.5923   31.4968   37.7734 H   0  0  0  0  0  0  0  0  0  0  0  0
   48.1432   33.4740   35.9652 H   0  0  0  0  0  0  0  0  0  0  0  0
   48.5693   31.7854   36.2890 H   0  0  0  0  0  0  0  0  0  0  0  0
   47.1452   31.0191   34.6479 H   0  0  0  0  0  0  0  0  0  0  0  0
   47.1184   32.6776   34.0520 H   0  0  0  0  0  0  0  0  0  0  0  0
   44.8357   32.6297   34.6157 H   0  0  0  0  0  0  0  0  0  0  0  0
   45.0059   31.1937   35.6165 H   0  0  0  0  0  0  0  0  0  0  0  0
   45.6796   34.1332   36.3672 H   0  0  0  0  0  0  0  0  0  0  0  0
   44.6247   33.1012   37.2589 H   0  0  0  0  0  0  0  0  0  0  0  0
   46.0550   35.8238   42.9889 H   0  0  0  0  0  0  0  0  0  0  0  0
   43.9048   37.0381   42.3553 H   0  0  0  0  0  0  0  0  0  0  0  0
   42.3188   33.4281   40.7220 H   0  0  0  0  0  0  0  0  0  0  0  0
   46.6394   31.1564   42.8622 H   0  0  0  0  0  0  0  0  0  0  0  0
   45.7238   31.6664   41.4034 H   0  0  0  0  0  0  0  0  0  0  0  0
   47.5191   31.7262   41.4034 H   0  0  0  0  0  0  0  0  0  0  0  0
   46.7633   34.1787   44.4708 H   0  0  0  0  0  0  0  0  0  0  0  0
   45.5696   32.8380   44.4056 H   0  0  0  0  0  0  0  0  0  0  0  0
   47.3288   32.4750   44.4056 H   0  0  0  0  0  0  0  0  0  0  0  0
  1  2  1  0
  1 17  1  0
  2  3  1  0
  3  4  2  0
  4  6  1  0
  5  3  1  0
  7  1  1  0
  8  7  2  0
  9  8  1  0
 10  9  1  0
 10 11  2  0
 11  7  1  0
 12 10  1  0
 13 12  1  0
 14 15  1  0
 14 13  1  0
 15 16  1  0
 16 12  1  0
 17 25  1  0
 18 19  2  0
 18 17  1  0
 20 19  1  0
 21 20  2  0
 22 21  1  0
 22 23  2  0
 23 18  1  0
 24 17  1  0
  1 26  1  6
  2 27  1  0
  5 28  1  0
  5 29  1  0
 12 30  1  0
 13 31  1  0
 13 32  1  0
 14 33  1  0
 14 34  1  0
 15 35  1  0
 15 36  1  0
 16 37  1  0
 16 38  1  0
 19 39  1  0
 20 40  1  0
 22 41  1  0
 24 42  1  0
 24 43  1  0
 24 44  1  0
 25 45  1  0
 25 46  1  0
 25 47  1  0
M  ISO  8  26   8  30  13  31  13  32  13  33  13  34  13  35  13  36  13
M  ISO  8  37  13  38  13  39  14  40  14  41  14  42   8  43   8  44   8
M  ISO  3  45   8  46   8  47   8
M  END
>  <minimizedAffinity>  (1) 
-5.58596802

>  <minimizedRMSD>  (1) 
0.340387613

$$$$
