
     RDKit          3D

 41 43  0  0  1  0  0  0  0  0999 V2000
   46.5790   33.3130   42.7460 C   0  0  0  0  0  0  0  0  0  0  0  0
   45.2810   33.9780   42.3270 C   0  0  0  0  0  0  0  0  0  0  0  0
   45.2150   35.3340   42.4900 C   0  0  0  0  0  0  0  0  0  0  0  0
   44.0030   35.9460   42.0800 C   0  0  0  0  0  0  0  0  0  0  0  0
   43.0120   35.1860   41.5680 N   0  0  0  0  0  0  0  0  0  0  0  0
   43.1210   33.8340   41.4220 C   0  0  0  0  0  0  0  0  0  0  0  0
   44.2410   33.2620   41.8000 N   0  0  0  0  0  0  0  0  0  0  0  0
   46.6250   31.8730   42.4130 C   0  0  0  0  0  0  0  0  0  0  0  0
   46.5940   33.4310   44.2740 C   0  0  0  0  0  0  0  0  0  0  0  0
   47.7270   33.9990   42.1460 C   0  0  1  0  0  0  0  0  0  0  0  0
   48.9630   33.2620   42.3550 N   0  0  0  0  0  0  0  0  0  0  0  0
   50.1440   33.9720   42.6220 C   0  0  0  0  0  0  0  0  0  0  0  0
   50.2420   35.1780   42.9880 N   0  0  0  0  0  0  0  0  0  0  0  0
   51.4080   33.3470   42.4910 N   0  0  0  0  0  0  0  0  0  0  0  0
   49.4090   35.7800   43.1770 H   0  0  0  0  0  0  0  0  0  0  0  0
   47.5480   33.7240   40.6430 C   0  0  0  0  0  0  0  0  0  0  0  0
   48.0140   34.6070   39.6970 N   0  0  0  0  0  0  0  0  0  0  0  0
   47.7460   34.1680   38.5010 O   0  0  0  0  0  0  0  0  0  0  0  0
   47.1220   33.0310   38.5990 C   0  0  0  0  0  0  0  0  0  0  0  0
   47.0020   32.7600   39.9000 N   0  0  0  0  0  0  0  0  0  0  0  0
   46.6240   32.1690   37.5160 C   0  0  0  0  0  0  0  0  0  0  0  0
   45.8280   32.7680   36.3950 C   0  0  0  0  0  0  0  0  0  0  0  0
   47.2160   32.3750   36.1160 C   0  0  0  0  0  0  0  0  0  0  0  0
   46.0491   35.9135   42.9124 H   0  0  0  0  0  0  0  0  0  0  0  0
   43.8714   37.0336   42.1787 H   0  0  0  0  0  0  0  0  0  0  0  0
   42.2959   33.2411   41.0005 H   0  0  0  0  0  0  0  0  0  0  0  0
   46.6439   31.2825   43.3409 H   0  0  0  0  0  0  0  0  0  0  0  0
   45.7350   31.6040   41.8252 H   0  0  0  0  0  0  0  0  0  0  0  0
   47.5304   31.6613   41.8252 H   0  0  0  0  0  0  0  0  0  0  0  0
   46.4672   32.4335   44.7200 H   0  0  0  0  0  0  0  0  0  0  0  0
   47.5538   33.8588   44.5993 H   0  0  0  0  0  0  0  0  0  0  0  0
   45.7718   34.0853   44.5993 H   0  0  0  0  0  0  0  0  0  0  0  0
   47.7713   35.0307   42.5251 H   0  0  0  0  0  0  0  0  0  0  0  0
   48.9717   32.2331   42.3078 H   0  0  0  0  0  0  0  0  0  0  0  0
   52.2680   33.8778   42.6896 H   0  0  0  0  0  0  0  0  0  0  0  0
   51.4673   32.3616   42.1971 H   0  0  0  0  0  0  0  0  0  0  0  0
   46.4785   31.3280   38.2100 H   0  0  0  0  0  0  0  0  0  0  0  0
   45.0008   32.1961   35.9493 H   0  0  0  0  0  0  0  0  0  0  0  0
   45.2589   33.7017   36.2751 H   0  0  0  0  0  0  0  0  0  0  0  0
   47.4236   31.5069   35.4730 H   0  0  0  0  0  0  0  0  0  0  0  0
   48.1036   32.8849   35.7133 H   0  0  0  0  0  0  0  0  0  0  0  0
  1  9  1  0
  2  3  2  0
  2  1  1  0
  4  3  1  0
  5  4  2  0
  6  5  1  0
  6  7  2  0
  7  2  1  0
  8  1  1  0
 10 11  1  0
 10  1  1  0
 11 12  1  0
 12 13  2  0
 13 15  1  0
 14 12  1  0
 16 10  1  0
 17 16  2  0
 18 19  1  0
 18 17  1  0
 19 20  2  0
 20 16  1  0
 21 19  1  0
 22 21  1  0
 23 22  1  0
 23 21  1  0
  3 24  1  0
  4 25  1  0
  6 26  1  0
  8 27  1  0
  8 28  1  0
  8 29  1  0
  9 30  1  0
  9 31  1  0
  9 32  1  0
 10 33  1  6
 11 34  1  0
 14 35  1  0
 14 36  1  0
 21 37  1  0
 22 38  1  0
 22 39  1  0
 23 40  1  0
 23 41  1  0
M  ISO  8  24  14  25  14  26  14  27   8  28   8  29   8  30   8  31   8
M  ISO  7  32   8  33   8  37  13  38  13  39  13  40  13  41  13
M  END
>  <minimizedAffinity>  (1) 
-5.19190454

>  <minimizedRMSD>  (1) 
0.333314836

$$$$
