
     RDKit          3D

 37 38  0  0  1  0  0  0  0  0999 V2000
   46.6780   33.3160   42.4940 C   0  0  0  0  0  0  0  0  0  0  0  0
   45.3660   34.0370   42.2450 C   0  0  0  0  0  0  0  0  0  0  0  0
   45.3310   35.3670   42.5600 C   0  0  0  0  0  0  0  0  0  0  0  0
   44.1030   36.0270   42.3080 C   0  0  0  0  0  0  0  0  0  0  0  0
   43.0670   35.3370   41.7900 N   0  0  0  0  0  0  0  0  0  0  0  0
   43.1460   34.0130   41.4920 C   0  0  0  0  0  0  0  0  0  0  0  0
   44.2810   33.4040   41.7250 N   0  0  0  0  0  0  0  0  0  0  0  0
   46.6730   31.9200   42.0100 C   0  0  0  0  0  0  0  0  0  0  0  0
   46.8110   33.2910   44.0200 C   0  0  0  0  0  0  0  0  0  0  0  0
   47.7930   34.0540   41.8880 C   0  0  1  0  0  0  0  0  0  0  0  0
   49.0490   33.3410   42.0310 N   0  0  0  0  0  0  0  0  0  0  0  0
   50.1850   34.0410   42.4670 C   0  0  0  0  0  0  0  0  0  0  0  0
   50.2150   35.1810   43.0260 N   0  0  0  0  0  0  0  0  0  0  0  0
   51.4750   33.4840   42.3000 N   0  0  0  0  0  0  0  0  0  0  0  0
   49.3430   35.7020   43.2850 H   0  0  0  0  0  0  0  0  0  0  0  0
   47.5780   33.8310   40.3680 C   0  0  0  0  0  0  0  0  0  0  0  0
   48.1860   34.6150   39.4370 N   0  0  0  0  0  0  0  0  0  0  0  0
   47.8510   34.2480   38.2400 O   0  0  0  0  0  0  0  0  0  0  0  0
   47.0240   33.2260   38.3210 C   0  0  0  0  0  0  0  0  0  0  0  0
   46.8570   32.9720   39.6310 N   0  0  0  0  0  0  0  0  0  0  0  0
   46.3520   32.4370   37.2900 C   0  0  0  0  0  0  0  0  0  0  0  0
   46.2010   35.8912   42.9822 H   0  0  0  0  0  0  0  0  0  0  0  0
   43.9952   37.0981   42.5341 H   0  0  0  0  0  0  0  0  0  0  0  0
   42.2861   33.4723   41.0698 H   0  0  0  0  0  0  0  0  0  0  0  0
   46.6705   31.2338   42.8698 H   0  0  0  0  0  0  0  0  0  0  0  0
   45.7742   31.7466   41.4000 H   0  0  0  0  0  0  0  0  0  0  0  0
   47.5705   31.7402   41.4000 H   0  0  0  0  0  0  0  0  0  0  0  0
   45.8276   33.4759   44.4768 H   0  0  0  0  0  0  0  0  0  0  0  0
   47.1845   32.3069   44.3394 H   0  0  0  0  0  0  0  0  0  0  0  0
   47.5164   34.0723   44.3394 H   0  0  0  0  0  0  0  0  0  0  0  0
   47.8222   35.0708   42.3067 H   0  0  0  0  0  0  0  0  0  0  0  0
   49.1061   32.3354   41.8156 H   0  0  0  0  0  0  0  0  0  0  0  0
   52.3052   34.0019   42.6217 H   0  0  0  0  0  0  0  0  0  0  0  0
   51.5838   32.5607   41.8567 H   0  0  0  0  0  0  0  0  0  0  0  0
   45.7092   31.6823   37.7667 H   0  0  0  0  0  0  0  0  0  0  0  0
   45.7368   33.0999   36.6638 H   0  0  0  0  0  0  0  0  0  0  0  0
   47.1043   31.9352   36.6638 H   0  0  0  0  0  0  0  0  0  0  0  0
  1  9  1  0
  2  1  1  0
  2  3  2  0
  4  3  1  0
  5  4  2  0
  6  7  2  0
  6  5  1  0
  7  2  1  0
  8  1  1  0
 10 11  1  0
 10  1  1  0
 11 12  1  0
 12 13  2  0
 13 15  1  0
 14 12  1  0
 16 10  1  0
 17 16  2  0
 18 19  1  0
 18 17  1  0
 19 20  2  0
 20 16  1  0
 21 19  1  0
  3 22  1  0
  4 23  1  0
  6 24  1  0
  8 25  1  0
  8 26  1  0
  8 27  1  0
  9 28  1  0
  9 29  1  0
  9 30  1  0
 10 31  1  6
 11 32  1  0
 14 33  1  0
 14 34  1  0
 21 35  1  0
 21 36  1  0
 21 37  1  0
M  ISO  8  22  14  23  14  24  14  25   8  26   8  27   8  28   8  29   8
M  ISO  5  30   8  31   8  35   8  36   8  37   8
M  END
>  <minimizedAffinity>  (1) 
-5.12903929

>  <minimizedRMSD>  (1) 
0.106753513

$$$$
