
     RDKit          3D

 19 19  0  0  0  0  0  0  0  0999 V2000
   46.5370   34.1550   43.5030 C   0  0  0  0  0  0  0  0  0  0  0  0
   45.5690   34.6110   44.4060 C   0  0  0  0  0  0  0  0  0  0  0  0
   45.4220   33.9580   45.6500 C   0  0  0  0  0  0  0  0  0  0  0  0
   46.2330   32.9110   45.9110 N   0  0  0  0  0  0  0  0  0  0  0  0
   47.1660   32.4980   45.0010 C   0  0  0  0  0  0  0  0  0  0  0  0
   47.2940   33.1190   43.8340 N   0  0  0  0  0  0  0  0  0  0  0  0
   46.5560   34.9250   42.2560 C   0  0  0  0  0  0  0  0  0  0  0  0
   47.9850   35.1870   41.7980 C   0  0  0  0  0  0  0  0  0  0  0  0
   44.6290   35.7040   44.3040 C   0  0  0  0  0  0  0  0  0  0  0  0
   44.8090   36.9440   44.4640 O   0  0  0  0  0  0  0  0  0  0  0  0
   43.2820   35.8130   44.0150 O   0  0  0  0  0  0  0  0  0  0  0  0
   44.6715   34.2917   46.3817 H   0  0  0  0  0  0  0  0  0  0  0  0
   47.8168   31.6433   45.2376 H   0  0  0  0  0  0  0  0  0  0  0  0
   46.0262   34.3590   41.4756 H   0  0  0  0  0  0  0  0  0  0  0  0
   46.0620   35.8917   42.4334 H   0  0  0  0  0  0  0  0  0  0  0  0
   48.6357   35.3063   42.6769 H   0  0  0  0  0  0  0  0  0  0  0  0
   48.3376   34.3385   41.1932 H   0  0  0  0  0  0  0  0  0  0  0  0
   48.0136   36.1054   41.1932 H   0  0  0  0  0  0  0  0  0  0  0  0
   42.8482   36.7028   44.0057 H   0  0  0  0  0  0  0  0  0  0  0  0
  1  6  2  0
  1  2  1  0
  2  3  2  0
  3  4  1  0
  5  4  2  0
  6  5  1  0
  7  1  1  0
  8  7  1  0
  9  2  1  0
  9 10  2  0
 11  9  1  0
  3 12  1  0
  5 13  1  0
  7 14  1  0
  7 15  1  0
  8 16  1  0
  8 17  1  0
  8 18  1  0
 11 19  1  0
M  ISO  8  12  14  13  14  14   8  15   8  16   8  17   8  18   8  19   3
M  END
>  <minimizedAffinity>  (1) 
-4.18828583

>  <minimizedRMSD>  (1) 
2.0048945

$$$$
