
     RDKit          3D

 25 26  0  0  0  0  0  0  0  0999 V2000
   46.2100   33.8790   44.6920 C   0  0  0  0  0  0  0  0  0  0  0  0
   46.8990   34.1840   43.5330 C   0  0  0  0  0  0  0  0  0  0  0  0
   46.3440   35.2670   42.7990 C   0  0  0  0  0  0  0  0  0  0  0  0
   45.2440   35.9140   43.2320 N   0  0  0  0  0  0  0  0  0  0  0  0
   44.6200   35.5690   44.3730 C   0  0  0  0  0  0  0  0  0  0  0  0
   45.1340   34.5620   45.0540 N   0  0  0  0  0  0  0  0  0  0  0  0
   48.0490   33.6340   42.8660 C   0  0  0  0  0  0  0  0  0  0  0  0
   48.1770   32.4780   42.1550 C   0  0  0  0  0  0  0  0  0  0  0  0
   49.2920   31.9870   41.5710 C   0  0  0  0  0  0  0  0  0  0  0  0
   50.4420   32.7030   41.6840 C   0  0  0  0  0  0  0  0  0  0  0  0
   50.3760   33.8760   42.3900 C   0  0  0  0  0  0  0  0  0  0  0  0
   49.2290   34.2680   42.9240 N   0  0  0  0  0  0  0  0  0  0  0  0
   46.7280   32.7210   45.4400 C   0  0  0  0  0  0  0  0  0  0  0  0
   46.3680   32.7600   46.8950 C   0  0  0  0  0  0  0  0  0  0  0  0
   46.8213   35.5831   41.8597 H   0  0  0  0  0  0  0  0  0  0  0  0
   43.7230   36.1015   44.7221 H   0  0  0  0  0  0  0  0  0  0  0  0
   47.2647   31.8735   42.0436 H   0  0  0  0  0  0  0  0  0  0  0  0
   49.2699   31.0352   41.0199 H   0  0  0  0  0  0  0  0  0  0  0  0
   51.3822   32.3570   41.2298 H   0  0  0  0  0  0  0  0  0  0  0  0
   51.2780   34.4934   42.5134 H   0  0  0  0  0  0  0  0  0  0  0  0
   46.3113   31.8032   44.9995 H   0  0  0  0  0  0  0  0  0  0  0  0
   47.8255   32.7459   45.3699 H   0  0  0  0  0  0  0  0  0  0  0  0
   47.2805   32.6611   47.5013 H   0  0  0  0  0  0  0  0  0  0  0  0
   45.8764   33.7167   47.1256 H   0  0  0  0  0  0  0  0  0  0  0  0
   45.6830   31.9308   47.1256 H   0  0  0  0  0  0  0  0  0  0  0  0
  1  6  2  0
  1 13  1  0
  2  1  1  0
  3  4  1  0
  3  2  2  0
  4  5  2  0
  5  6  1  0
  7 12  1  0
  7  2  1  0
  8  7  2  0
  9 10  2  0
  9  8  1  0
 10 11  1  0
 11 12  2  0
 13 14  1  0
  3 15  1  0
  5 16  1  0
  8 17  1  0
  9 18  1  0
 10 19  1  0
 11 20  1  0
 13 21  1  0
 13 22  1  0
 14 23  1  0
 14 24  1  0
 14 25  1  0
M  ISO  8  15  14  16  14  17  14  18  14  19  14  20  14  21   8  22   8
M  ISO  3  23   8  24   8  25   8
M  END
>  <minimizedAffinity>  (1) 
-4.25681067

>  <minimizedRMSD>  (1) 
5.0786047

$$$$
