
     RDKit          3D

 22 23  0  0  0  0  0  0  0  0999 V2000
   46.1010   33.9610   44.6730 C   0  0  0  0  0  0  0  0  0  0  0  0
   46.5460   34.4660   43.4390 C   0  0  0  0  0  0  0  0  0  0  0  0
   45.9280   35.5920   42.8710 C   0  0  0  0  0  0  0  0  0  0  0  0
   44.9070   36.1500   43.5590 N   0  0  0  0  0  0  0  0  0  0  0  0
   44.5000   35.6330   44.7570 C   0  0  0  0  0  0  0  0  0  0  0  0
   45.0820   34.5680   45.2960 N   0  0  0  0  0  0  0  0  0  0  0  0
   47.6140   33.9240   42.6690 N   0  0  0  0  0  0  0  0  0  0  0  0
   48.9310   34.2600   42.7220 C   0  0  0  0  0  0  0  0  0  0  0  0
   49.5970   33.5170   41.8360 N   0  0  0  0  0  0  0  0  0  0  0  0
   48.7450   32.7140   41.2150 C   0  0  0  0  0  0  0  0  0  0  0  0
   47.5240   32.9730   41.7350 N   0  0  0  0  0  0  0  0  0  0  0  0
   46.8710   32.7870   45.1010 C   0  0  0  0  0  0  0  0  0  0  0  0
   46.7880   32.6170   46.6140 C   0  0  0  0  0  0  0  0  0  0  0  0
   46.2610   36.0027   41.9064 H   0  0  0  0  0  0  0  0  0  0  0  0
   43.6661   36.1130   45.2902 H   0  0  0  0  0  0  0  0  0  0  0  0
   49.3734   35.0181   43.3850 H   0  0  0  0  0  0  0  0  0  0  0  0
   48.9842   31.9808   40.4306 H   0  0  0  0  0  0  0  0  0  0  0  0
   46.4637   31.8893   44.6129 H   0  0  0  0  0  0  0  0  0  0  0  0
   47.9239   32.9287   44.8160 H   0  0  0  0  0  0  0  0  0  0  0  0
   47.2195   33.5009   47.1065 H   0  0  0  0  0  0  0  0  0  0  0  0
   45.7352   32.5078   46.9135 H   0  0  0  0  0  0  0  0  0  0  0  0
   47.3494   31.7197   46.9135 H   0  0  0  0  0  0  0  0  0  0  0  0
  1 12  1  0
  1  6  2  0
  2  1  1  0
  3  2  2  0
  3  4  1  0
  4  5  2  0
  5  6  1  0
  7  8  1  0
  7  2  1  0
  9  8  2  0
 10 11  2  0
 10  9  1  0
 11  7  1  0
 12 13  1  0
  3 14  1  0
  5 15  1  0
  8 16  1  0
 10 17  1  0
 12 18  1  0
 12 19  1  0
 13 20  1  0
 13 21  1  0
 13 22  1  0
M  ISO  8  14  14  15  14  16  14  17  14  18   8  19   8  20   8  21   8
M  ISO  1  22   8
M  END
>  <minimizedAffinity>  (1) 
-3.83666158

>  <minimizedRMSD>  (1) 
4.23225689

$$$$
