
     RDKit          3D

 31 32  0  0  0  0  0  0  0  0999 V2000
   46.9470   34.2590   42.4130 C   0  0  0  0  0  0  0  0  0  0  0  0
   45.5610   34.0950   42.2970 C   0  0  0  0  0  0  0  0  0  0  0  0
   44.8690   33.5400   43.3970 C   0  0  0  0  0  0  0  0  0  0  0  0
   45.5840   33.2010   44.4940 N   0  0  0  0  0  0  0  0  0  0  0  0
   46.9220   33.3780   44.5580 C   0  0  0  0  0  0  0  0  0  0  0  0
   47.5750   33.8970   43.5310 N   0  0  0  0  0  0  0  0  0  0  0  0
   44.6660   34.3950   41.2370 N   0  0  0  0  0  0  0  0  0  0  0  0
   44.3550   33.7110   39.9970 C   0  0  0  0  0  0  0  0  0  0  0  0
   42.8830   33.5460   39.7390 C   0  0  0  0  0  0  0  0  0  0  0  0
   42.2240   34.9180   39.8130 C   0  0  0  0  0  0  0  0  0  0  0  0
   42.4100   35.3510   41.2730 C   0  0  0  0  0  0  0  0  0  0  0  0
   43.9080   35.6200   41.4000 C   0  0  0  0  0  0  0  0  0  0  0  0
   47.5400   34.8490   41.2020 C   0  0  0  0  0  0  0  0  0  0  0  0
   48.8120   35.6140   41.5360 C   0  0  0  0  0  0  0  0  0  0  0  0
   43.7801   33.3880   43.3621 H   0  0  0  0  0  0  0  0  0  0  0  0
   47.4702   33.0896   45.4670 H   0  0  0  0  0  0  0  0  0  0  0  0
   44.7887   34.2873   39.1665 H   0  0  0  0  0  0  0  0  0  0  0  0
   44.7780   32.6989   40.0785 H   0  0  0  0  0  0  0  0  0  0  0  0
   42.4449   32.8822   40.4989 H   0  0  0  0  0  0  0  0  0  0  0  0
   42.7212   33.1025   38.7454 H   0  0  0  0  0  0  0  0  0  0  0  0
   42.7189   35.6251   39.1310 H   0  0  0  0  0  0  0  0  0  0  0  0
   41.1656   34.8920   39.5145 H   0  0  0  0  0  0  0  0  0  0  0  0
   41.8313   36.2619   41.4858 H   0  0  0  0  0  0  0  0  0  0  0  0
   42.0583   34.5896   41.9848 H   0  0  0  0  0  0  0  0  0  0  0  0
   44.1156   36.0431   42.3939 H   0  0  0  0  0  0  0  0  0  0  0  0
   44.2074   36.3276   40.6128 H   0  0  0  0  0  0  0  0  0  0  0  0
   46.8147   35.5386   40.7454 H   0  0  0  0  0  0  0  0  0  0  0  0
   47.7919   34.0374   40.5035 H   0  0  0  0  0  0  0  0  0  0  0  0
   48.9234   35.6810   42.6283 H   0  0  0  0  0  0  0  0  0  0  0  0
   49.6790   35.0874   41.1106 H   0  0  0  0  0  0  0  0  0  0  0  0
   48.7532   36.6267   41.1106 H   0  0  0  0  0  0  0  0  0  0  0  0
  1  6  2  0
  2  1  1  0
  2  3  2  0
  3  4  1  0
  4  5  2  0
  6  5  1  0
  7 12  1  0
  7  2  1  0
  8  7  1  0
  9 10  1  0
  9  8  1  0
 10 11  1  0
 11 12  1  0
 13 14  1  0
 13  1  1  0
  3 15  1  0
  5 16  1  0
  8 17  1  0
  8 18  1  0
  9 19  1  0
  9 20  1  0
 10 21  1  0
 10 22  1  0
 11 23  1  0
 11 24  1  0
 12 25  1  0
 12 26  1  0
 13 27  1  0
 13 28  1  0
 14 29  1  0
 14 30  1  0
 14 31  1  0
M  ISO  8  15  14  16  14  17  13  18  13  19  13  20  13  21  13  22  13
M  ISO  8  23  13  24  13  25  13  26  13  27   8  28   8  29   8  30   8
M  ISO  1  31   8
M  END
>  <minimizedAffinity>  (1) 
-4.05239153

>  <minimizedRMSD>  (1) 
2.20761895

$$$$
