
     RDKit          3D

 23 24  0  0  0  0  0  0  0  0999 V2000
   45.9730   35.2230   42.3660 C   0  0  0  0  0  0  0  0  0  0  0  0
   45.3270   34.5500   41.3060 C   0  0  0  0  0  0  0  0  0  0  0  0
   46.0930   33.8150   40.4020 C   0  0  0  0  0  0  0  0  0  0  0  0
   47.4310   33.7860   40.5870 N   0  0  0  0  0  0  0  0  0  0  0  0
   48.0220   34.4500   41.6220 C   0  0  0  0  0  0  0  0  0  0  0  0
   47.3080   35.1550   42.4940 N   0  0  0  0  0  0  0  0  0  0  0  0
   43.9300   34.5500   41.0710 N   0  0  0  0  0  0  0  0  0  0  0  0
   43.0640   35.3990   40.5320 N   0  0  0  0  0  0  0  0  0  0  0  0
   41.8180   34.8650   40.5700 C   0  0  0  0  0  0  0  0  0  0  0  0
   41.9100   33.6190   41.1620 C   0  0  0  0  0  0  0  0  0  0  0  0
   43.2350   33.4440   41.4660 C   0  0  0  0  0  0  0  0  0  0  0  0
   45.0290   35.9540   43.2380 C   0  0  0  0  0  0  0  0  0  0  0  0
   44.8420   35.2410   44.5580 C   0  0  0  0  0  0  0  0  0  0  0  0
   45.6233   33.2765   39.5657 H   0  0  0  0  0  0  0  0  0  0  0  0
   49.1148   34.4008   41.7376 H   0  0  0  0  0  0  0  0  0  0  0  0
   40.8982   35.3387   40.1964 H   0  0  0  0  0  0  0  0  0  0  0  0
   41.0881   32.9127   41.3505 H   0  0  0  0  0  0  0  0  0  0  0  0
   43.6679   32.5561   41.9499 H   0  0  0  0  0  0  0  0  0  0  0  0
   45.4234   36.9632   43.4277 H   0  0  0  0  0  0  0  0  0  0  0  0
   44.0550   36.0082   42.7297 H   0  0  0  0  0  0  0  0  0  0  0  0
   45.0264   35.9439   45.3838 H   0  0  0  0  0  0  0  0  0  0  0  0
   43.8130   34.8580   44.6253 H   0  0  0  0  0  0  0  0  0  0  0  0
   45.5506   34.4023   44.6253 H   0  0  0  0  0  0  0  0  0  0  0  0
  1  6  2  0
  1 12  1  0
  2  1  1  0
  3  4  1  0
  3  2  2  0
  4  5  2  0
  5  6  1  0
  7  2  1  0
  7 11  1  0
  8  9  2  0
  8  7  1  0
  9 10  1  0
 10 11  2  0
 12 13  1  0
  3 14  1  0
  5 15  1  0
  9 16  1  0
 10 17  1  0
 11 18  1  0
 12 19  1  0
 12 20  1  0
 13 21  1  0
 13 22  1  0
 13 23  1  0
M  ISO  8  14  14  15  14  16  14  17  14  18  14  19   8  20   8  21   8
M  ISO  2  22   8  23   8
M  END
>  <minimizedAffinity>  (1) 
-3.61446214

>  <minimizedRMSD>  (1) 
3.71185517

$$$$
