
     RDKit          3D

 28 28  0  0  0  0  0  0  0  0999 V2000
   45.4750   33.5410   44.0750 C   0  0  0  0  0  0  0  0  0  0  0  0
   45.0040   34.2570   42.9610 C   0  0  0  0  0  0  0  0  0  0  0  0
   44.3880   35.5020   43.3100 C   0  0  0  0  0  0  0  0  0  0  0  0
   44.2830   35.9230   44.5930 N   0  0  0  0  0  0  0  0  0  0  0  0
   44.7650   35.1690   45.6040 C   0  0  0  0  0  0  0  0  0  0  0  0
   45.3490   33.9980   45.3190 N   0  0  0  0  0  0  0  0  0  0  0  0
   45.0380   33.9000   41.5400 C   0  0  0  0  0  0  0  0  0  0  0  0
   46.4210   34.3170   40.9840 C   0  0  0  0  0  0  0  0  0  0  0  0
   44.0690   34.7270   40.6850 C   0  0  0  0  0  0  0  0  0  0  0  0
   44.9650   32.4400   41.2130 C   0  0  0  0  0  0  0  0  0  0  0  0
   46.0670   32.2650   43.7220 C   0  0  0  0  0  0  0  0  0  0  0  0
   47.5500   32.2130   43.9400 C   0  0  0  0  0  0  0  0  0  0  0  0
   43.9861   36.1386   42.5080 H   0  0  0  0  0  0  0  0  0  0  0  0
   44.6793   35.5113   46.6459 H   0  0  0  0  0  0  0  0  0  0  0  0
   47.1053   34.5233   41.8202 H   0  0  0  0  0  0  0  0  0  0  0  0
   46.8296   33.5021   40.3684 H   0  0  0  0  0  0  0  0  0  0  0  0
   46.3110   35.2219   40.3684 H   0  0  0  0  0  0  0  0  0  0  0  0
   43.3978   35.2998   41.3418 H   0  0  0  0  0  0  0  0  0  0  0  0
   44.6403   35.4202   40.0501 H   0  0  0  0  0  0  0  0  0  0  0  0
   43.4742   34.0539   40.0501 H   0  0  0  0  0  0  0  0  0  0  0  0
   44.9358   31.8565   42.1450 H   0  0  0  0  0  0  0  0  0  0  0  0
   44.0558   32.2405   40.6269 H   0  0  0  0  0  0  0  0  0  0  0  0
   45.8498   32.1508   40.6269 H   0  0  0  0  0  0  0  0  0  0  0  0
   45.8643   32.0693   42.6587 H   0  0  0  0  0  0  0  0  0  0  0  0
   45.6165   31.5064   44.3790 H   0  0  0  0  0  0  0  0  0  0  0  0
   47.7619   32.2056   45.0194 H   0  0  0  0  0  0  0  0  0  0  0  0
   47.9564   31.3001   43.4803 H   0  0  0  0  0  0  0  0  0  0  0  0
   48.0193   33.0952   43.4803 H   0  0  0  0  0  0  0  0  0  0  0  0
  1  6  2  0
  2  3  2  0
  2  1  1  0
  3  4  1  0
  4  5  2  0
  6  5  1  0
  7  2  1  0
  8  7  1  0
  9  7  1  0
 10  7  1  0
 11 12  1  0
 11  1  1  0
  3 13  1  0
  5 14  1  0
  8 15  1  0
  8 16  1  0
  8 17  1  0
  9 18  1  0
  9 19  1  0
  9 20  1  0
 10 21  1  0
 10 22  1  0
 10 23  1  0
 11 24  1  0
 11 25  1  0
 12 26  1  0
 12 27  1  0
 12 28  1  0
M  ISO  8  13  14  14  14  15   8  16   8  17   8  18   8  19   8  20   8
M  ISO  8  21   8  22   8  23   8  24   8  25   8  26   8  27   8  28   8
M  END
>  <minimizedAffinity>  (1) 
-3.30637598

>  <minimizedRMSD>  (1) 
2.93145275

$$$$
