
     RDKit          3D

 22 22  0  0  0  0  0  0  0  0999 V2000
   46.9980   34.4470   43.0770 C   0  0  0  0  0  0  0  0  0  0  0  0
   45.7960   35.0290   43.4970 C   0  0  0  0  0  0  0  0  0  0  0  0
   45.2230   34.4850   44.6420 C   0  0  0  0  0  0  0  0  0  0  0  0
   45.8190   33.4560   45.2900 N   0  0  0  0  0  0  0  0  0  0  0  0
   46.9910   32.9240   44.8380 C   0  0  0  0  0  0  0  0  0  0  0  0
   47.5530   33.4270   43.7470 N   0  0  0  0  0  0  0  0  0  0  0  0
   47.5260   35.1100   41.8680 C   0  0  0  0  0  0  0  0  0  0  0  0
   49.0350   35.3160   41.9730 C   0  0  0  0  0  0  0  0  0  0  0  0
   45.0480   36.1150   42.8620 C   0  0  0  0  0  0  0  0  0  0  0  0
   43.9140   35.5410   42.0530 C   0  0  0  0  0  0  0  0  0  0  0  0
   44.2766   34.8947   45.0247 H   0  0  0  0  0  0  0  0  0  0  0  0
   47.4646   32.0873   45.3723 H   0  0  0  0  0  0  0  0  0  0  0  0
   47.0365   36.0881   41.7511 H   0  0  0  0  0  0  0  0  0  0  0  0
   47.3190   34.4696   40.9979 H   0  0  0  0  0  0  0  0  0  0  0  0
   49.3268   35.3558   43.0329 H   0  0  0  0  0  0  0  0  0  0  0  0
   49.5543   34.4804   41.4809 H   0  0  0  0  0  0  0  0  0  0  0  0
   49.3113   36.2602   41.4809 H   0  0  0  0  0  0  0  0  0  0  0  0
   44.6437   36.7831   43.6367 H   0  0  0  0  0  0  0  0  0  0  0  0
   45.7186   36.6827   42.2001 H   0  0  0  0  0  0  0  0  0  0  0  0
   43.1412   35.1498   42.7310 H   0  0  0  0  0  0  0  0  0  0  0  0
   43.4808   36.3284   41.4187 H   0  0  0  0  0  0  0  0  0  0  0  0
   44.2921   34.7257   41.4187 H   0  0  0  0  0  0  0  0  0  0  0  0
  1  2  2  0
  1  6  1  0
  2  3  1  0
  3  4  2  0
  5  4  1  0
  6  5  2  0
  7  8  1  0
  7  1  1  0
  9  2  1  0
 10  9  1  0
  3 11  1  0
  5 12  1  0
  7 13  1  0
  7 14  1  0
  8 15  1  0
  8 16  1  0
  8 17  1  0
  9 18  1  0
  9 19  1  0
 10 20  1  0
 10 21  1  0
 10 22  1  0
M  ISO  8  11  14  12  14  13   8  14   8  15   8  16   8  17   8  18   8
M  ISO  4  19   8  20   8  21   8  22   8
M  END
>  <minimizedAffinity>  (1) 
-3.59768534

>  <minimizedRMSD>  (1) 
0.799329937

$$$$
