
     RDKit          3D

 48 51  0  0  0  0  0  0  0  0999 V2000
   46.8820   34.7870   41.8360 C   0  0  0  0  0  0  0  0  0  0  0  0
   45.8750   34.2780   40.8610 C   0  0  0  0  0  0  0  0  0  0  0  0
   46.1990   33.3780   39.8670 C   0  0  0  0  0  0  0  0  0  0  0  0
   45.3300   32.8600   38.9350 C   0  0  0  0  0  0  0  0  0  0  0  0
   44.0360   33.3040   39.0350 N   0  0  0  0  0  0  0  0  0  0  0  0
   43.7070   34.1860   40.0040 C   0  0  0  0  0  0  0  0  0  0  0  0
   44.5710   34.6930   40.9220 N   0  0  0  0  0  0  0  0  0  0  0  0
   42.3060   34.6220   40.0600 C   0  0  0  0  0  0  0  0  0  0  0  0
   41.8790   35.5060   41.0380 C   0  0  0  0  0  0  0  0  0  0  0  0
   40.5680   35.9050   41.0810 C   0  0  0  0  0  0  0  0  0  0  0  0
   39.6960   35.4560   40.1940 N   0  0  0  0  0  0  0  0  0  0  0  0
   40.1290   34.5900   39.2390 C   0  0  0  0  0  0  0  0  0  0  0  0
   41.4250   34.1640   39.1560 N   0  0  0  0  0  0  0  0  0  0  0  0
   47.2120   33.6770   42.7850 C   0  0  0  0  0  0  0  0  0  0  0  0
   44.8710   34.7240   45.5550 C   0  0  0  0  0  0  0  0  0  0  0  0
   45.5030   34.6310   44.3080 C   0  0  0  0  0  0  0  0  0  0  0  0
   46.5480   33.7730   44.0930 C   0  0  0  0  0  0  0  0  0  0  0  0
   46.9520   33.0110   45.1320 N   0  0  0  0  0  0  0  0  0  0  0  0
   46.3200   33.1140   46.3490 C   0  0  0  0  0  0  0  0  0  0  0  0
   45.3140   33.9450   46.5450 N   0  0  0  0  0  0  0  0  0  0  0  0
   46.7620   32.2730   47.5080 C   0  0  0  0  0  0  0  0  0  0  0  0
   47.0080   30.8790   47.0090 C   0  0  0  0  0  0  0  0  0  0  0  0
   45.8110   29.9790   47.0640 C   0  0  0  0  0  0  0  0  0  0  0  0
   45.0190   30.0820   48.3370 C   0  0  0  0  0  0  0  0  0  0  0  0
   45.6540   31.0490   49.3150 C   0  0  0  0  0  0  0  0  0  0  0  0
   45.7670   32.3690   48.6190 C   0  0  0  0  0  0  0  0  0  0  0  0
   46.4656   35.6407   42.3909 H   0  0  0  0  0  0  0  0  0  0  0  0
   47.7883   35.1205   41.3092 H   0  0  0  0  0  0  0  0  0  0  0  0
   47.2460   33.0448   39.8150 H   0  0  0  0  0  0  0  0  0  0  0  0
   45.6495   32.1419   38.1654 H   0  0  0  0  0  0  0  0  0  0  0  0
   42.5936   35.8885   41.7816 H   0  0  0  0  0  0  0  0  0  0  0  0
   40.2380   36.6061   41.8617 H   0  0  0  0  0  0  0  0  0  0  0  0
   39.4043   34.2159   38.5009 H   0  0  0  0  0  0  0  0  0  0  0  0
   46.9145   32.7265   42.3181 H   0  0  0  0  0  0  0  0  0  0  0  0
   48.2929   33.7429   42.9783 H   0  0  0  0  0  0  0  0  0  0  0  0
   44.0335   35.4192   45.7140 H   0  0  0  0  0  0  0  0  0  0  0  0
   45.1504   35.2638   43.4802 H   0  0  0  0  0  0  0  0  0  0  0  0
   47.7081   32.6332   47.9383 H   0  0  0  0  0  0  0  0  0  0  0  0
   47.8037   30.4302   47.6217 H   0  0  0  0  0  0  0  0  0  0  0  0
   47.2822   30.9705   45.9476 H   0  0  0  0  0  0  0  0  0  0  0  0
   45.1484   30.2350   46.2241 H   0  0  0  0  0  0  0  0  0  0  0  0
   46.1892   28.9475   47.0104 H   0  0  0  0  0  0  0  0  0  0  0  0
   44.0039   30.4318   48.0980 H   0  0  0  0  0  0  0  0  0  0  0  0
   44.9928   29.0874   48.8061 H   0  0  0  0  0  0  0  0  0  0  0  0
   45.0236   31.1477   50.2110 H   0  0  0  0  0  0  0  0  0  0  0  0
   46.6432   30.6892   49.6345 H   0  0  0  0  0  0  0  0  0  0  0  0
   46.0955   33.1339   49.3381 H   0  0  0  0  0  0  0  0  0  0  0  0
   44.7863   32.6459   48.2048 H   0  0  0  0  0  0  0  0  0  0  0  0
  1 14  1  0
  2  7  1  0
  2  1  1  0
  3  2  2  0
  4  5  2  0
  4  3  1  0
  5  6  1  0
  6  8  1  0
  6  7  2  0
  8  9  2  0
  9 10  1  0
 11 10  2  0
 12 11  1  0
 13 12  2  0
 13  8  1  0
 14 17  1  0
 15 20  2  0
 16 15  1  0
 17 16  2  0
 17 18  1  0
 18 19  2  0
 19 20  1  0
 19 21  1  0
 21 26  1  0
 22 23  1  0
 22 21  1  0
 23 24  1  0
 24 25  1  0
 26 25  1  0
  1 27  1  0
  1 28  1  0
  3 29  1  0
  4 30  1  0
  9 31  1  0
 10 32  1  0
 12 33  1  0
 14 34  1  0
 14 35  1  0
 15 36  1  0
 16 37  1  0
 21 38  1  0
 22 39  1  0
 22 40  1  0
 23 41  1  0
 23 42  1  0
 24 43  1  0
 24 44  1  0
 25 45  1  0
 25 46  1  0
 26 47  1  0
 26 48  1  0
M  ISO  8  27   8  28   8  29  14  30  14  31  14  32  14  33  14  34   8
M  ISO  8  35   8  36  14  37  14  38  13  39  13  40  13  41  13  42  13
M  ISO  6  43  13  44  13  45  13  46  13  47  13  48  13
M  END
>  <minimizedAffinity>  (1) 
-6.56000948

>  <minimizedRMSD>  (1) 
2.66802263

$$$$
