
     RDKit          3D

 27 29  0  0  0  0  0  0  0  0999 V2000
   46.0300   34.0970   40.9090 C   0  0  0  0  0  0  0  0  0  0  0  0
   46.5180   34.8200   42.0170 C   0  0  0  0  0  0  0  0  0  0  0  0
   47.8170   35.3300   41.9850 C   0  0  0  0  0  0  0  0  0  0  0  0
   48.5560   35.1040   40.8750 N   0  0  0  0  0  0  0  0  0  0  0  0
   48.0560   34.4010   39.8180 C   0  0  0  0  0  0  0  0  0  0  0  0
   46.8170   33.9190   39.8590 N   0  0  0  0  0  0  0  0  0  0  0  0
   45.7840   35.0830   43.2010 N   0  0  0  0  0  0  0  0  0  0  0  0
   44.8990   36.0040   43.6140 C   0  0  0  0  0  0  0  0  0  0  0  0
   44.5160   35.7570   44.8800 N   0  0  0  0  0  0  0  0  0  0  0  0
   45.1610   34.6570   45.3000 C   0  0  0  0  0  0  0  0  0  0  0  0
   45.0560   34.0600   46.5360 C   0  0  0  0  0  0  0  0  0  0  0  0
   45.8180   32.9470   46.7180 N   0  0  0  0  0  0  0  0  0  0  0  0
   46.6130   32.5000   45.7080 C   0  0  0  0  0  0  0  0  0  0  0  0
   46.6730   33.1280   44.5190 N   0  0  0  0  0  0  0  0  0  0  0  0
   45.9400   34.2470   44.2630 C   0  0  0  0  0  0  0  0  0  0  0  0
   44.6500   33.6270   41.0980 C   0  0  0  0  0  0  0  0  0  0  0  0
   43.6580   34.4900   40.3570 C   0  0  0  0  0  0  0  0  0  0  0  0
   48.2260   35.8969   42.8343 H   0  0  0  0  0  0  0  0  0  0  0  0
   48.6802   34.2321   38.9281 H   0  0  0  0  0  0  0  0  0  0  0  0
   44.5372   36.8438   43.0025 H   0  0  0  0  0  0  0  0  0  0  0  0
   44.3995   34.4564   47.3246 H   0  0  0  0  0  0  0  0  0  0  0  0
   47.2242   31.5995   45.8679 H   0  0  0  0  0  0  0  0  0  0  0  0
   44.5713   32.5947   40.7264 H   0  0  0  0  0  0  0  0  0  0  0  0
   44.4146   33.6797   42.1712 H   0  0  0  0  0  0  0  0  0  0  0  0
   43.0329   35.0339   41.0805 H   0  0  0  0  0  0  0  0  0  0  0  0
   44.1986   35.2102   39.7252 H   0  0  0  0  0  0  0  0  0  0  0  0
   43.0196   33.8549   39.7252 H   0  0  0  0  0  0  0  0  0  0  0  0
  1 16  1  0
  1  2  2  0
  2  7  1  0
  3  2  1  0
  4  3  2  0
  5  6  2  0
  5  4  1  0
  6  1  1  0
  7  8  1  0
  7 15  1  0
  8  9  2  0
  9 10  1  0
 10 11  2  0
 11 12  1  0
 13 12  2  0
 14 13  1  0
 15 14  2  0
 15 10  1  0
 17 16  1  0
  3 18  1  0
  5 19  1  0
  8 20  1  0
 11 21  1  0
 13 22  1  0
 16 23  1  0
 16 24  1  0
 17 25  1  0
 17 26  1  0
 17 27  1  0
M  ISO  8  18  14  19  14  20  14  21  14  22  14  23   8  24   8  25   8
M  ISO  2  26   8  27   8
M  END
>  <minimizedAffinity>  (1) 
-4.89739704

>  <minimizedRMSD>  (1) 
5.15087461

$$$$
