
     RDKit          3D

 36 39  0  0  0  0  0  0  0  0999 V2000
   45.6690   34.2770   41.0780 C   0  0  0  0  0  0  0  0  0  0  0  0
   46.2890   34.7880   42.2330 C   0  0  0  0  0  0  0  0  0  0  0  0
   47.6670   35.0180   42.2350 C   0  0  0  0  0  0  0  0  0  0  0  0
   48.3480   34.7310   41.1000 N   0  0  0  0  0  0  0  0  0  0  0  0
   47.7190   34.2350   39.9900 C   0  0  0  0  0  0  0  0  0  0  0  0
   46.3980   34.0230   40.0130 N   0  0  0  0  0  0  0  0  0  0  0  0
   45.6230   35.1030   43.4460 N   0  0  0  0  0  0  0  0  0  0  0  0
   44.8570   36.1070   43.9010 C   0  0  0  0  0  0  0  0  0  0  0  0
   44.4840   35.8770   45.1770 N   0  0  0  0  0  0  0  0  0  0  0  0
   45.0170   34.7050   45.5500 C   0  0  0  0  0  0  0  0  0  0  0  0
   44.8810   34.0930   46.7850 C   0  0  0  0  0  0  0  0  0  0  0  0
   45.5210   32.9040   46.9180 N   0  0  0  0  0  0  0  0  0  0  0  0
   46.2300   32.3980   45.8770 C   0  0  0  0  0  0  0  0  0  0  0  0
   46.3280   33.0330   44.7030 N   0  0  0  0  0  0  0  0  0  0  0  0
   45.7160   34.2290   44.4900 C   0  0  0  0  0  0  0  0  0  0  0  0
   44.2300   34.0960   41.2420 C   0  0  0  0  0  0  0  0  0  0  0  0
   43.4310   35.2210   40.6140 C   0  0  0  0  0  0  0  0  0  0  0  0
   42.0180   34.7640   40.6110 C   0  0  0  0  0  0  0  0  0  0  0  0
   41.0260   35.4760   40.0080 C   0  0  0  0  0  0  0  0  0  0  0  0
   39.6830   35.1570   39.9390 C   0  0  0  0  0  0  0  0  0  0  0  0
   39.3730   33.9520   40.5810 C   0  0  0  0  0  0  0  0  0  0  0  0
   40.3500   33.1990   41.2060 C   0  0  0  0  0  0  0  0  0  0  0  0
   41.6510   33.5980   41.2210 N   0  0  0  0  0  0  0  0  0  0  0  0
   48.1788   35.4165   43.1234 H   0  0  0  0  0  0  0  0  0  0  0  0
   48.2978   34.0113   39.0817 H   0  0  0  0  0  0  0  0  0  0  0  0
   44.5730   36.9937   43.3152 H   0  0  0  0  0  0  0  0  0  0  0  0
   44.2948   34.5399   47.6015 H   0  0  0  0  0  0  0  0  0  0  0  0
   46.7418   31.4325   46.0027 H   0  0  0  0  0  0  0  0  0  0  0  0
   43.9370   33.1474   40.7684 H   0  0  0  0  0  0  0  0  0  0  0  0
   44.0131   34.0918   42.3204 H   0  0  0  0  0  0  0  0  0  0  0  0
   43.5343   36.1413   41.2076 H   0  0  0  0  0  0  0  0  0  0  0  0
   43.7841   35.4486   39.5974 H   0  0  0  0  0  0  0  0  0  0  0  0
   41.3287   36.4138   39.5192 H   0  0  0  0  0  0  0  0  0  0  0  0
   38.9352   35.7847   39.4323 H   0  0  0  0  0  0  0  0  0  0  0  0
   38.3318   33.5973   40.5884 H   0  0  0  0  0  0  0  0  0  0  0  0
   40.0697   32.2577   41.7014 H   0  0  0  0  0  0  0  0  0  0  0  0
  1 16  1  0
  1  2  1  0
  2  3  2  0
  2  7  1  0
  4  3  1  0
  5  6  1  0
  5  4  2  0
  6  1  2  0
  7  8  1  0
  7 15  1  0
  8  9  2  0
  9 10  1  0
 10 11  2  0
 11 12  1  0
 13 12  2  0
 14 13  1  0
 15 14  2  0
 15 10  1  0
 17 16  1  0
 18 17  1  0
 18 23  1  0
 19 18  2  0
 20 19  1  0
 20 21  2  0
 21 22  1  0
 22 23  2  0
  3 24  1  0
  5 25  1  0
  8 26  1  0
 11 27  1  0
 13 28  1  0
 16 29  1  0
 16 30  1  0
 17 31  1  0
 17 32  1  0
 19 33  1  0
 20 34  1  0
 21 35  1  0
 22 36  1  0
M  ISO  8  24  14  25  14  26  14  27  14  28  14  29   8  30   8  31   8
M  ISO  5  32   8  33  14  34  14  35  14  36  14
M  END
>  <minimizedAffinity>  (1) 
-6.14453077

>  <minimizedRMSD>  (1) 
0.877722025

$$$$
