
     RDKit          3D

 33 36  0  0  0  0  0  0  0  0999 V2000
   46.0000   34.1110   40.8650 C   0  0  0  0  0  0  0  0  0  0  0  0
   46.5020   34.8400   41.9670 C   0  0  0  0  0  0  0  0  0  0  0  0
   47.8140   35.3030   41.9430 C   0  0  0  0  0  0  0  0  0  0  0  0
   48.5550   35.0230   40.8440 N   0  0  0  0  0  0  0  0  0  0  0  0
   48.0460   34.3170   39.7940 C   0  0  0  0  0  0  0  0  0  0  0  0
   46.7810   33.8780   39.8290 N   0  0  0  0  0  0  0  0  0  0  0  0
   45.7570   35.1530   43.1360 N   0  0  0  0  0  0  0  0  0  0  0  0
   44.9060   36.1120   43.5060 C   0  0  0  0  0  0  0  0  0  0  0  0
   44.4890   35.9070   44.7710 N   0  0  0  0  0  0  0  0  0  0  0  0
   45.0900   34.7850   45.2250 C   0  0  0  0  0  0  0  0  0  0  0  0
   44.9390   34.2190   46.4750 C   0  0  0  0  0  0  0  0  0  0  0  0
   45.6600   33.0790   46.6860 N   0  0  0  0  0  0  0  0  0  0  0  0
   46.4530   32.5850   45.6960 C   0  0  0  0  0  0  0  0  0  0  0  0
   46.5550   33.1890   44.4990 N   0  0  0  0  0  0  0  0  0  0  0  0
   45.8690   34.3300   44.2070 C   0  0  0  0  0  0  0  0  0  0  0  0
   44.6050   33.6910   41.0330 C   0  0  0  0  0  0  0  0  0  0  0  0
   43.7470   34.1110   39.8510 C   0  0  0  0  0  0  0  0  0  0  0  0
   42.3460   34.3520   40.3360 C   0  0  0  0  0  0  0  0  0  0  0  0
   41.7530   33.3370   41.1330 C   0  0  0  0  0  0  0  0  0  0  0  0
   40.0980   34.0340   41.4860 S   0  0  0  0  0  0  0  0  0  0  0  0
   40.5080   35.6130   40.4710 C   0  0  0  0  0  0  0  0  0  0  0  0
   41.5580   35.3930   40.1300 N   0  0  0  0  0  0  0  0  0  0  0  0
   48.2334   35.8745   42.7842 H   0  0  0  0  0  0  0  0  0  0  0  0
   48.6756   34.1077   38.9166 H   0  0  0  0  0  0  0  0  0  0  0  0
   44.5897   36.9510   42.8687 H   0  0  0  0  0  0  0  0  0  0  0  0
   44.2854   34.6548   47.2450 H   0  0  0  0  0  0  0  0  0  0  0  0
   47.0270   31.6650   45.8806 H   0  0  0  0  0  0  0  0  0  0  0  0
   44.5711   32.5956   41.1271 H   0  0  0  0  0  0  0  0  0  0  0  0
   44.2066   34.1760   41.9364 H   0  0  0  0  0  0  0  0  0  0  0  0
   43.7446   33.3137   39.0932 H   0  0  0  0  0  0  0  0  0  0  0  0
   44.1517   35.0296   39.4011 H   0  0  0  0  0  0  0  0  0  0  0  0
   42.1800   32.3761   41.4560 H   0  0  0  0  0  0  0  0  0  0  0  0
   39.8830   36.4968   40.2752 H   0  0  0  0  0  0  0  0  0  0  0  0
  1 16  1  0
  1  2  1  0
  2  7  1  0
  3  2  2  0
  4  3  1  0
  5  6  1  0
  5  4  2  0
  6  1  2  0
  7  8  1  0
  7 15  1  0
  8  9  2  0
  9 10  1  0
 10 11  2  0
 11 12  1  0
 13 12  2  0
 14 13  1  0
 15 14  2  0
 15 10  1  0
 17 18  1  0
 17 16  1  0
 18 19  2  0
 19 20  1  0
 21 20  1  0
 22 18  1  0
 22 21  2  0
  3 23  1  0
  5 24  1  0
  8 25  1  0
 11 26  1  0
 13 27  1  0
 16 28  1  0
 16 29  1  0
 17 30  1  0
 17 31  1  0
 19 32  1  0
 21 33  1  0
M  ISO  8  23  14  24  14  25  14  26  14  27  14  28   8  29   8  30   8
M  ISO  3  31   8  32  14  33  14
M  END
>  <minimizedAffinity>  (1) 
-5.64633894

>  <minimizedRMSD>  (1) 
0.664593637

$$$$
