
     RDKit          3D

 37 40  0  0  1  0  0  0  0  0999 V2000
   45.9810   34.3420   44.3270 C   0  0  2  0  0  0  0  0  0  0  0  0
   44.8720   35.4260   44.2590 C   0  0  0  0  0  0  0  0  0  0  0  0
   45.1890   35.9440   42.8550 C   0  0  0  0  0  0  0  0  0  0  0  0
   45.3960   34.6670   42.0830 C   0  0  0  0  0  0  0  0  0  0  0  0
   45.6850   33.5890   43.1040 C   0  0  1  0  0  0  0  0  0  0  0  0
   46.7960   32.7420   42.6100 C   0  0  0  0  0  0  0  0  0  0  0  0
   46.8290   31.4390   42.1530 C   0  0  0  0  0  0  0  0  0  0  0  0
   48.1060   31.1650   41.8280 N   0  0  0  0  0  0  0  0  0  0  0  0
   48.9170   32.1950   42.0370 C   0  0  0  0  0  0  0  0  0  0  0  0
   50.2780   32.3740   41.8520 C   0  0  0  0  0  0  0  0  0  0  0  0
   50.8700   33.5700   42.1580 C   0  0  0  0  0  0  0  0  0  0  0  0
   50.0680   34.5990   42.6590 C   0  0  0  0  0  0  0  0  0  0  0  0
   48.7100   34.4190   42.8430 C   0  0  0  0  0  0  0  0  0  0  0  0
   48.1110   33.1940   42.5280 C   0  0  0  0  0  0  0  0  0  0  0  0
   44.9730   33.9810   46.5210 C   0  0  0  0  0  0  0  0  0  0  0  0
   45.9560   33.5880   45.5850 C   0  0  0  0  0  0  0  0  0  0  0  0
   46.8590   32.5340   45.9090 C   0  0  0  0  0  0  0  0  0  0  0  0
   46.7240   31.9480   47.1280 N   0  0  0  0  0  0  0  0  0  0  0  0
   45.7660   32.3470   48.0110 C   0  0  0  0  0  0  0  0  0  0  0  0
   44.9010   33.3460   47.7220 N   0  0  0  0  0  0  0  0  0  0  0  0
   47.0182   34.7078   44.3495 H   0  0  0  0  0  0  0  0  0  0  0  0
   43.8616   34.9970   44.3293 H   0  0  0  0  0  0  0  0  0  0  0  0
   44.8689   36.1732   45.0663 H   0  0  0  0  0  0  0  0  0  0  0  0
   44.3499   36.5257   42.4458 H   0  0  0  0  0  0  0  0  0  0  0  0
   46.0519   36.6253   42.8204 H   0  0  0  0  0  0  0  0  0  0  0  0
   44.4894   34.4167   41.5126 H   0  0  0  0  0  0  0  0  0  0  0  0
   46.2233   34.7663   41.3649 H   0  0  0  0  0  0  0  0  0  0  0  0
   44.8636   32.8820   43.2923 H   0  0  0  0  0  0  0  0  0  0  0  0
   45.9724   30.7539   42.0702 H   0  0  0  0  0  0  0  0  0  0  0  0
   48.4195   30.2563   41.4579 H   0  0  0  0  0  0  0  0  0  0  0  0
   50.8880   31.5487   41.4561 H   0  0  0  0  0  0  0  0  0  0  0  0
   51.9504   33.7174   42.0131 H   0  0  0  0  0  0  0  0  0  0  0  0
   50.5247   35.5675   42.9109 H   0  0  0  0  0  0  0  0  0  0  0  0
   48.0973   35.2423   43.2388 H   0  0  0  0  0  0  0  0  0  0  0  0
   44.2718   34.7937   46.2805 H   0  0  0  0  0  0  0  0  0  0  0  0
   47.6346   32.2076   45.2005 H   0  0  0  0  0  0  0  0  0  0  0  0
   45.6940   31.8427   48.9859 H   0  0  0  0  0  0  0  0  0  0  0  0
  1 16  1  0
  2  1  1  0
  3  2  1  0
  4  3  1  0
  4  5  1  0
  5  1  1  0
  6  5  1  0
  7  6  2  0
  8  9  1  0
  8  7  1  0
  9 14  2  0
 10  9  1  0
 10 11  2  0
 11 12  1  0
 12 13  2  0
 14  6  1  0
 14 13  1  0
 15 20  2  0
 16 17  2  0
 16 15  1  0
 17 18  1  0
 18 19  2  0
 20 19  1  0
  1 21  1  6
  2 22  1  0
  2 23  1  0
  3 24  1  0
  3 25  1  0
  4 26  1  0
  4 27  1  0
  5 28  1  1
  7 29  1  0
  8 30  1  0
 10 31  1  0
 11 32  1  0
 12 33  1  0
 13 34  1  0
 15 35  1  0
 17 36  1  0
 19 37  1  0
M  ISO  8  21  13  22  13  23  13  24  13  25  13  26  13  27  13  28  13
M  ISO  8  29  14  30   9  31  14  32  14  33  14  34  14  35  14  36  14
M  ISO  1  37  14
M  END
>  <minimizedAffinity>  (1) 
-5.33892727

>  <minimizedRMSD>  (1) 
3.05943418

$$$$
