
     RDKit          3D

 36 39  0  0  1  0  0  0  0  0999 V2000
   44.1720   34.7370   41.5430 C   0  0  2  0  0  0  0  0  0  0  0  0
   42.6280   34.7350   41.3840 C   0  0  0  0  0  0  0  0  0  0  0  0
   42.5990   35.0180   39.8780 C   0  0  0  0  0  0  0  0  0  0  0  0
   43.5790   33.9750   39.3890 C   0  0  0  0  0  0  0  0  0  0  0  0
   44.5370   33.7260   40.5520 C   0  0  1  0  0  0  0  0  0  0  0  0
   44.4570   35.5690   43.8280 C   0  0  0  0  0  0  0  0  0  0  0  0
   44.5960   34.4760   42.9220 C   0  0  0  0  0  0  0  0  0  0  0  0
   45.1400   33.2420   43.3860 C   0  0  0  0  0  0  0  0  0  0  0  0
   45.5020   33.1770   44.6870 N   0  0  0  0  0  0  0  0  0  0  0  0
   45.3640   34.2270   45.5370 C   0  0  0  0  0  0  0  0  0  0  0  0
   44.8490   35.4090   45.1210 N   0  0  0  0  0  0  0  0  0  0  0  0
   45.9020   33.8290   40.0560 N   0  0  0  0  0  0  0  0  0  0  0  0
   47.0220   34.3800   40.5810 C   0  0  0  0  0  0  0  0  0  0  0  0
   48.0530   34.2340   39.7560 N   0  0  0  0  0  0  0  0  0  0  0  0
   47.6320   33.5760   38.6560 C   0  0  0  0  0  0  0  0  0  0  0  0
   48.3480   33.2020   37.5370 C   0  0  0  0  0  0  0  0  0  0  0  0
   47.7010   32.5510   36.5680 N   0  0  0  0  0  0  0  0  0  0  0  0
   46.3900   32.2950   36.7320 C   0  0  0  0  0  0  0  0  0  0  0  0
   45.6940   32.6680   37.8380 N   0  0  0  0  0  0  0  0  0  0  0  0
   46.2850   33.3300   38.8590 C   0  0  0  0  0  0  0  0  0  0  0  0
   49.7490   33.5190   37.4500 N   0  0  0  0  0  0  0  0  0  0  0  0
   44.6755   35.6988   41.3660 H   0  0  0  0  0  0  0  0  0  0  0  0
   42.1793   33.7636   41.6390 H   0  0  0  0  0  0  0  0  0  0  0  0
   42.0645   35.4268   42.0273 H   0  0  0  0  0  0  0  0  0  0  0  0
   41.5956   34.8643   39.4541 H   0  0  0  0  0  0  0  0  0  0  0  0
   42.8491   36.0521   39.5986 H   0  0  0  0  0  0  0  0  0  0  0  0
   43.0504   33.0477   39.1230 H   0  0  0  0  0  0  0  0  0  0  0  0
   44.1140   34.3127   38.4892 H   0  0  0  0  0  0  0  0  0  0  0  0
   44.4717   32.7279   41.0097 H   0  0  0  0  0  0  0  0  0  0  0  0
   44.0389   36.5273   43.4862 H   0  0  0  0  0  0  0  0  0  0  0  0
   45.2600   32.3796   42.7138 H   0  0  0  0  0  0  0  0  0  0  0  0
   45.6770   34.1155   46.5856 H   0  0  0  0  0  0  0  0  0  0  0  0
   47.0715   34.8811   41.5590 H   0  0  0  0  0  0  0  0  0  0  0  0
   45.8568   31.7586   35.9333 H   0  0  0  0  0  0  0  0  0  0  0  0
   50.2888   33.2426   36.6175 H   0  0  0  0  0  0  0  0  0  0  0  0
   50.2119   34.0223   38.2202 H   0  0  0  0  0  0  0  0  0  0  0  0
  1  7  1  0
  2  1  1  0
  3  2  1  0
  4  3  1  0
  4  5  1  0
  5  1  1  0
  6 11  2  0
  7  8  2  0
  7  6  1  0
  8  9  1  0
  9 10  2  0
 11 10  1  0
 12  5  1  0
 12 13  1  0
 14 13  2  0
 15 20  2  0
 15 14  1  0
 16 15  1  0
 17 18  1  0
 17 16  2  0
 18 19  2  0
 19 20  1  0
 20 12  1  0
 21 16  1  0
  1 22  1  6
  2 23  1  0
  2 24  1  0
  3 25  1  0
  3 26  1  0
  4 27  1  0
  4 28  1  0
  5 29  1  1
  6 30  1  0
  8 31  1  0
 10 32  1  0
 13 33  1  0
 18 34  1  0
 21 35  1  0
 21 36  1  0
M  ISO  8  22  13  23  13  24  13  25  13  26  13  27  13  28  13  29  13
M  ISO  5  30  14  31  14  32  14  33  14  34  14
M  END
>  <minimizedAffinity>  (1) 
-5.53828335

>  <minimizedRMSD>  (1) 
0.388575047

$$$$
