
     RDKit          3D

 37 39  0  0  1  0  0  0  0  0999 V2000
   45.5260   34.2910   41.0780 C   0  0  2  0  0  0  0  0  0  0  0  0
   44.4370   33.3790   40.4490 C   0  0  0  0  0  0  0  0  0  0  0  0
   44.9500   33.3850   39.0180 C   0  0  0  0  0  0  0  0  0  0  0  0
   46.4290   33.2200   39.2190 C   0  0  0  0  0  0  0  0  0  0  0  0
   46.6830   33.4970   40.6750 C   0  0  1  0  0  0  0  0  0  0  0  0
   44.9310   35.8080   42.9180 C   0  0  0  0  0  0  0  0  0  0  0  0
   45.3290   34.5020   42.5050 C   0  0  0  0  0  0  0  0  0  0  0  0
   45.5360   33.4840   43.4810 C   0  0  0  0  0  0  0  0  0  0  0  0
   45.3370   33.8260   44.7660 N   0  0  0  0  0  0  0  0  0  0  0  0
   44.9600   35.0700   45.1500 C   0  0  0  0  0  0  0  0  0  0  0  0
   44.7540   36.0630   44.2410 N   0  0  0  0  0  0  0  0  0  0  0  0
   47.9820   34.0220   40.9530 N   0  0  0  0  0  0  0  0  0  0  0  0
   48.7630   33.2090   41.8590 C   0  0  0  0  0  0  0  0  0  0  0  0
   49.2310   33.9010   43.0910 C   0  0  0  0  0  0  0  0  0  0  0  0
   49.8550   35.1770   42.8470 N   0  0  0  0  0  0  0  0  0  0  0  0
   49.2580   35.8770   41.7320 C   0  0  0  0  0  0  0  0  0  0  0  0
   47.8360   35.3100   41.6100 C   0  0  0  0  0  0  0  0  0  0  0  0
   45.5728   35.3426   40.7589 H   0  0  0  0  0  0  0  0  0  0  0  0
   44.4363   32.3697   40.8864 H   0  0  0  0  0  0  0  0  0  0  0  0
   43.3961   33.7065   40.5882 H   0  0  0  0  0  0  0  0  0  0  0  0
   44.7182   34.3347   38.5138 H   0  0  0  0  0  0  0  0  0  0  0  0
   44.4987   32.6104   38.3806 H   0  0  0  0  0  0  0  0  0  0  0  0
   46.7371   32.1949   38.9656 H   0  0  0  0  0  0  0  0  0  0  0  0
   47.0018   33.9018   38.5733 H   0  0  0  0  0  0  0  0  0  0  0  0
   46.7478   32.5908   41.2951 H   0  0  0  0  0  0  0  0  0  0  0  0
   44.7690   36.6009   42.1730 H   0  0  0  0  0  0  0  0  0  0  0  0
   45.8439   32.4670   43.1965 H   0  0  0  0  0  0  0  0  0  0  0  0
   44.8172   35.2823   46.2198 H   0  0  0  0  0  0  0  0  0  0  0  0
   48.1455   32.3515   42.1645 H   0  0  0  0  0  0  0  0  0  0  0  0
   49.6705   32.9237   41.3067 H   0  0  0  0  0  0  0  0  0  0  0  0
   48.3637   34.0605   43.7485 H   0  0  0  0  0  0  0  0  0  0  0  0
   49.9960   33.2553   43.5469 H   0  0  0  0  0  0  0  0  0  0  0  0
   49.7605   35.7586   43.6918 H   0  0  0  0  0  0  0  0  0  0  0  0
   49.2256   36.9587   41.9293 H   0  0  0  0  0  0  0  0  0  0  0  0
   49.8348   35.7389   40.8056 H   0  0  0  0  0  0  0  0  0  0  0  0
   47.2065   35.9797   41.0058 H   0  0  0  0  0  0  0  0  0  0  0  0
   47.3519   35.2122   42.5929 H   0  0  0  0  0  0  0  0  0  0  0  0
  1  7  1  0
  2  1  1  0
  3  4  1  0
  3  2  1  0
  4  5  1  0
  5 12  1  0
  5  1  1  0
  6 11  2  0
  7  6  1  0
  7  8  2  0
  8  9  1  0
  9 10  2  0
 11 10  1  0
 12 17  1  0
 12 13  1  0
 13 14  1  0
 15 14  1  0
 16 15  1  0
 17 16  1  0
  1 18  1  6
  2 19  1  0
  2 20  1  0
  3 21  1  0
  3 22  1  0
  4 23  1  0
  4 24  1  0
  5 25  1  1
  6 26  1  0
  8 27  1  0
 10 28  1  0
 13 29  1  0
 13 30  1  0
 14 31  1  0
 14 32  1  0
 15 33  1  0
 16 34  1  0
 16 35  1  0
 17 36  1  0
 17 37  1  0
M  ISO  8  18  13  19  13  20  13  21  13  22  13  23  13  24  13  25  13
M  ISO  8  26  14  27  14  28  14  29  13  30  13  31  13  32  13  33   5
M  ISO  4  34  13  35  13  36  13  37  13
M  END
>  <minimizedAffinity>  (1) 
-4.89059925

>  <minimizedRMSD>  (1) 
2.65022564

$$$$
