
     RDKit          3D

 33 35  0  0  1  0  0  0  0  0999 V2000
   44.1090   34.8450   41.7000 C   0  0  2  0  0  0  0  0  0  0  0  0
   42.5680   34.9420   41.5410 C   0  0  0  0  0  0  0  0  0  0  0  0
   42.5430   35.1590   40.0300 C   0  0  0  0  0  0  0  0  0  0  0  0
   43.4720   34.0570   39.5750 C   0  0  0  0  0  0  0  0  0  0  0  0
   44.4270   33.7910   40.7370 C   0  0  1  0  0  0  0  0  0  0  0  0
   44.3400   35.6950   43.9910 C   0  0  0  0  0  0  0  0  0  0  0  0
   44.5120   34.6210   43.0940 C   0  0  0  0  0  0  0  0  0  0  0  0
   45.0780   33.3980   43.5610 C   0  0  0  0  0  0  0  0  0  0  0  0
   45.4300   33.3280   44.8740 N   0  0  0  0  0  0  0  0  0  0  0  0
   45.2500   34.3850   45.7150 C   0  0  0  0  0  0  0  0  0  0  0  0
   44.7110   35.5590   45.2790 N   0  0  0  0  0  0  0  0  0  0  0  0
   45.8250   33.8580   40.2010 C   0  0  0  0  0  0  0  0  0  0  0  0
   46.8580   34.5160   40.8340 C   0  0  0  0  0  0  0  0  0  0  0  0
   48.1320   34.5520   40.3040 C   0  0  0  0  0  0  0  0  0  0  0  0
   48.3590   33.9020   39.0980 C   0  0  0  0  0  0  0  0  0  0  0  0
   47.3240   33.2460   38.4700 C   0  0  0  0  0  0  0  0  0  0  0  0
   46.0480   33.2110   39.0020 C   0  0  0  0  0  0  0  0  0  0  0  0
   44.6762   35.7630   41.4864 H   0  0  0  0  0  0  0  0  0  0  0  0
   42.0560   34.0156   41.8405 H   0  0  0  0  0  0  0  0  0  0  0  0
   42.0593   35.7012   42.1533 H   0  0  0  0  0  0  0  0  0  0  0  0
   41.5308   35.0318   39.6187 H   0  0  0  0  0  0  0  0  0  0  0  0
   42.8388   36.1684   39.7081 H   0  0  0  0  0  0  0  0  0  0  0  0
   42.8980   33.1489   39.3387 H   0  0  0  0  0  0  0  0  0  0  0  0
   44.0203   34.3472   38.6666 H   0  0  0  0  0  0  0  0  0  0  0  0
   44.3326   32.8067   41.2190 H   0  0  0  0  0  0  0  0  0  0  0  0
   43.9039   36.6419   43.6400 H   0  0  0  0  0  0  0  0  0  0  0  0
   45.2247   32.5428   42.8849 H   0  0  0  0  0  0  0  0  0  0  0  0
   45.5464   34.2888   46.7699 H   0  0  0  0  0  0  0  0  0  0  0  0
   46.6614   35.0267   41.7882 H   0  0  0  0  0  0  0  0  0  0  0  0
   48.9451   35.0810   40.8227 H   0  0  0  0  0  0  0  0  0  0  0  0
   49.3619   33.9112   38.6461 H   0  0  0  0  0  0  0  0  0  0  0  0
   47.5181   32.7341   37.5159 H   0  0  0  0  0  0  0  0  0  0  0  0
   45.2338   32.6826   38.4845 H   0  0  0  0  0  0  0  0  0  0  0  0
  1  7  1  0
  2  1  1  0
  3  2  1  0
  4  3  1  0
  4  5  1  0
  5  1  1  0
  6 11  2  0
  7  8  2  0
  7  6  1  0
  8  9  1  0
  9 10  2  0
 11 10  1  0
 12  5  1  0
 12 13  2  0
 14 13  1  0
 15 14  2  0
 16 17  2  0
 16 15  1  0
 17 12  1  0
  1 18  1  6
  2 19  1  0
  2 20  1  0
  3 21  1  0
  3 22  1  0
  4 23  1  0
  4 24  1  0
  5 25  1  1
  6 26  1  0
  8 27  1  0
 10 28  1  0
 13 29  1  0
 14 30  1  0
 15 31  1  0
 16 32  1  0
 17 33  1  0
M  ISO  8  18  13  19  13  20  13  21  13  22  13  23  13  24  13  25  13
M  ISO  8  26  14  27  14  28  14  29  14  30  14  31  14  32  14  33  14
M  END
>  <minimizedAffinity>  (1) 
-4.91951418

>  <minimizedRMSD>  (1) 
0.931708813

$$$$
