
     RDKit          3D

 43 47  0  0  0  0  0  0  0  0999 V2000
   47.8770   33.7970   41.9040 C   0  0  0  0  0  0  0  0  0  0  0  0
   45.0770   35.5880   43.6910 C   0  0  0  0  0  0  0  0  0  0  0  0
   46.0240   35.2230   42.7260 C   0  0  0  0  0  0  0  0  0  0  0  0
   46.8850   34.1760   42.9180 C   0  0  0  0  0  0  0  0  0  0  0  0
   46.7820   33.5060   44.0840 N   0  0  0  0  0  0  0  0  0  0  0  0
   45.8540   33.8610   45.0310 C   0  0  0  0  0  0  0  0  0  0  0  0
   45.0300   34.8870   44.8120 N   0  0  0  0  0  0  0  0  0  0  0  0
   45.7970   33.1120   46.2410 N   0  0  0  0  0  0  0  0  0  0  0  0
   45.1400   33.4520   47.3640 C   0  0  0  0  0  0  0  0  0  0  0  0
   45.3300   32.4780   48.2920 N   0  0  0  0  0  0  0  0  0  0  0  0
   46.1060   31.5400   47.7310 C   0  0  0  0  0  0  0  0  0  0  0  0
   46.5570   30.3550   48.3200 C   0  0  0  0  0  0  0  0  0  0  0  0
   47.3380   29.5850   47.5100 N   0  0  0  0  0  0  0  0  0  0  0  0
   47.6320   29.9610   46.2530 C   0  0  0  0  0  0  0  0  0  0  0  0
   47.1860   31.1190   45.6880 N   0  0  0  0  0  0  0  0  0  0  0  0
   46.4070   31.9280   46.4400 C   0  0  0  0  0  0  0  0  0  0  0  0
   48.1900   34.8620   40.9030 C   0  0  0  0  0  0  0  0  0  0  0  0
   47.7830   34.3640   39.5570 C   0  0  0  0  0  0  0  0  0  0  0  0
   48.5950   34.4980   38.4470 C   0  0  0  0  0  0  0  0  0  0  0  0
   48.2960   34.0660   37.1790 C   0  0  0  0  0  0  0  0  0  0  0  0
   47.0820   33.4560   37.0420 N   0  0  0  0  0  0  0  0  0  0  0  0
   46.2740   33.3190   38.1250 C   0  0  0  0  0  0  0  0  0  0  0  0
   46.5690   33.7440   39.3750 N   0  0  0  0  0  0  0  0  0  0  0  0
   44.9880   32.6560   37.9110 C   0  0  0  0  0  0  0  0  0  0  0  0
   43.8460   33.0840   38.5790 C   0  0  0  0  0  0  0  0  0  0  0  0
   42.6440   32.4550   38.3720 C   0  0  0  0  0  0  0  0  0  0  0  0
   42.5460   31.4380   37.5390 N   0  0  0  0  0  0  0  0  0  0  0  0
   43.6690   31.0260   36.8900 C   0  0  0  0  0  0  0  0  0  0  0  0
   44.8820   31.6250   37.0680 N   0  0  0  0  0  0  0  0  0  0  0  0
   48.8100   33.5293   42.4216 H   0  0  0  0  0  0  0  0  0  0  0  0
   47.4381   32.9613   41.3393 H   0  0  0  0  0  0  0  0  0  0  0  0
   44.3926   36.4324   43.5219 H   0  0  0  0  0  0  0  0  0  0  0  0
   46.0776   35.7937   41.7872 H   0  0  0  0  0  0  0  0  0  0  0  0
   44.5469   34.3672   47.5075 H   0  0  0  0  0  0  0  0  0  0  0  0
   46.3029   30.0678   49.3510 H   0  0  0  0  0  0  0  0  0  0  0  0
   48.2672   29.2980   45.6472 H   0  0  0  0  0  0  0  0  0  0  0  0
   47.6323   35.7784   41.1463 H   0  0  0  0  0  0  0  0  0  0  0  0
   49.2652   35.0938   40.9155 H   0  0  0  0  0  0  0  0  0  0  0  0
   49.5659   34.9943   38.5923 H   0  0  0  0  0  0  0  0  0  0  0  0
   48.9857   34.2016   36.3328 H   0  0  0  0  0  0  0  0  0  0  0  0
   43.9064   33.9317   39.2774 H   0  0  0  0  0  0  0  0  0  0  0  0
   41.7497   32.8044   38.9088 H   0  0  0  0  0  0  0  0  0  0  0  0
   43.5960   30.1768   36.1947 H   0  0  0  0  0  0  0  0  0  0  0  0
  1  4  1  0
  2  7  2  0
  3  4  2  0
  3  2  1  0
  4  5  1  0
  5  6  2  0
  6  8  1  0
  7  6  1  0
  8 16  1  0
  8  9  1  0
  9 10  2  0
 11 10  1  0
 11 12  2  0
 13 12  1  0
 14 13  2  0
 15 14  1  0
 15 16  2  0
 16 11  1  0
 17  1  1  0
 18 17  1  0
 19 18  2  0
 20 19  1  0
 21 20  2  0
 21 22  1  0
 22 23  2  0
 23 18  1  0
 24 22  1  0
 24 25  2  0
 26 25  1  0
 27 26  2  0
 28 29  2  0
 28 27  1  0
 29 24  1  0
  1 30  1  0
  1 31  1  0
  2 32  1  0
  3 33  1  0
  9 34  1  0
 12 35  1  0
 14 36  1  0
 17 37  1  0
 17 38  1  0
 19 39  1  0
 20 40  1  0
 25 41  1  0
 26 42  1  0
 28 43  1  0
M  ISO  8  30   8  31   8  32  14  33  14  34  14  35  14  36  14  37   8
M  ISO  6  38   8  39  14  40  14  41  14  42  14  43  14
M  END
>  <minimizedAffinity>  (1) 
-6.1982069

>  <minimizedRMSD>  (1) 
1.04789174

$$$$
