
     RDKit          3D

 30 32  0  0  1  0  0  0  0  0999 V2000
   44.2850   34.8980   41.9690 C   0  0  2  0  0  0  0  0  0  0  0  0
   42.7690   34.7350   41.6810 C   0  0  0  0  0  0  0  0  0  0  0  0
   42.8270   35.1210   40.1870 C   0  0  0  0  0  0  0  0  0  0  0  0
   43.9590   34.2550   39.7200 C   0  0  0  0  0  0  0  0  0  0  0  0
   44.8400   34.0190   40.9370 C   0  0  1  0  0  0  0  0  0  0  0  0
   44.3740   35.5930   44.3120 C   0  0  0  0  0  0  0  0  0  0  0  0
   44.6320   34.5850   43.3580 C   0  0  0  0  0  0  0  0  0  0  0  0
   45.2240   33.3540   43.7700 C   0  0  0  0  0  0  0  0  0  0  0  0
   45.5100   33.2260   45.0840 N   0  0  0  0  0  0  0  0  0  0  0  0
   45.2570   34.2050   45.9970 C   0  0  0  0  0  0  0  0  0  0  0  0
   44.6950   35.3770   45.6150 N   0  0  0  0  0  0  0  0  0  0  0  0
   46.2390   34.1960   40.6230 N   0  0  0  0  0  0  0  0  0  0  0  0
   46.9090   33.7090   39.5900 N   0  0  0  0  0  0  0  0  0  0  0  0
   48.2000   34.0940   39.6450 C   0  0  0  0  0  0  0  0  0  0  0  0
   48.3640   34.8730   40.7780 C   0  0  0  0  0  0  0  0  0  0  0  0
   47.1170   34.9220   41.3750 C   0  0  0  0  0  0  0  0  0  0  0  0
   44.6869   35.9199   41.9049 H   0  0  0  0  0  0  0  0  0  0  0  0
   42.4181   33.7042   41.8373 H   0  0  0  0  0  0  0  0  0  0  0  0
   42.0797   35.3118   42.3151 H   0  0  0  0  0  0  0  0  0  0  0  0
   41.8885   34.8759   39.6683 H   0  0  0  0  0  0  0  0  0  0  0  0
   42.9662   36.1957   39.9981 H   0  0  0  0  0  0  0  0  0  0  0  0
   43.5746   33.2986   39.3359 H   0  0  0  0  0  0  0  0  0  0  0  0
   44.5207   34.7335   38.9042 H   0  0  0  0  0  0  0  0  0  0  0  0
   44.8280   32.9830   41.3065 H   0  0  0  0  0  0  0  0  0  0  0  0
   43.9172   36.5449   44.0036 H   0  0  0  0  0  0  0  0  0  0  0  0
   45.4372   32.5481   43.0523 H   0  0  0  0  0  0  0  0  0  0  0  0
   45.5115   34.0423   47.0547 H   0  0  0  0  0  0  0  0  0  0  0  0
   48.9842   33.8351   38.9184 H   0  0  0  0  0  0  0  0  0  0  0  0
   49.2901   35.3517   41.1291 H   0  0  0  0  0  0  0  0  0  0  0  0
   46.8729   35.4583   42.3038 H   0  0  0  0  0  0  0  0  0  0  0  0
  1  7  1  0
  2  1  1  0
  3  2  1  0
  4  3  1  0
  4  5  1  0
  5  1  1  0
  6 11  2  0
  7  8  2  0
  7  6  1  0
  8  9  1  0
  9 10  2  0
 11 10  1  0
 12  5  1  0
 12 16  1  0
 13 14  2  0
 13 12  1  0
 14 15  1  0
 15 16  2  0
  1 17  1  6
  2 18  1  0
  2 19  1  0
  3 20  1  0
  3 21  1  0
  4 22  1  0
  4 23  1  0
  5 24  1  1
  6 25  1  0
  8 26  1  0
 10 27  1  0
 14 28  1  0
 15 29  1  0
 16 30  1  0
M  ISO  8  17  13  18  13  19  13  20  13  21  13  22  13  23  13  24  13
M  ISO  6  25  14  26  14  27  14  28  14  29  14  30  14
M  END
>  <minimizedAffinity>  (1) 
-4.55412579

>  <minimizedRMSD>  (1) 
0.831802905

$$$$
