
     RDKit          3D

 30 32  0  0  1  0  0  0  0  0999 V2000
   44.3420   34.8100   42.0090 C   0  0  2  0  0  0  0  0  0  0  0  0
   42.8720   34.4970   41.6470 C   0  0  0  0  0  0  0  0  0  0  0  0
   42.9370   34.8860   40.1660 C   0  0  0  0  0  0  0  0  0  0  0  0
   44.2260   34.2360   39.7460 C   0  0  0  0  0  0  0  0  0  0  0  0
   45.0340   33.9860   41.0170 C   0  0  1  0  0  0  0  0  0  0  0  0
   44.3450   35.5730   44.3280 C   0  0  0  0  0  0  0  0  0  0  0  0
   44.6420   34.5560   43.4060 C   0  0  0  0  0  0  0  0  0  0  0  0
   45.2360   33.3800   43.8880 C   0  0  0  0  0  0  0  0  0  0  0  0
   45.5070   33.2620   45.2170 N   0  0  0  0  0  0  0  0  0  0  0  0
   45.2080   34.2690   46.0880 C   0  0  0  0  0  0  0  0  0  0  0  0
   44.6290   35.4200   45.6470 N   0  0  0  0  0  0  0  0  0  0  0  0
   46.4600   34.3500   40.8000 C   0  0  0  0  0  0  0  0  0  0  0  0
   47.4010   35.0300   41.5450 C   0  0  0  0  0  0  0  0  0  0  0  0
   48.5890   35.0780   40.8450 C   0  0  0  0  0  0  0  0  0  0  0  0
   48.2620   34.3910   39.6770 C   0  0  0  0  0  0  0  0  0  0  0  0
   47.0300   33.9920   39.6940 O   0  0  0  0  0  0  0  0  0  0  0  0
   44.6465   35.8655   41.9522 H   0  0  0  0  0  0  0  0  0  0  0  0
   42.6237   33.4349   41.7895 H   0  0  0  0  0  0  0  0  0  0  0  0
   42.1050   35.0059   42.2492 H   0  0  0  0  0  0  0  0  0  0  0  0
   42.0811   34.4817   39.6057 H   0  0  0  0  0  0  0  0  0  0  0  0
   42.8991   35.9701   39.9833 H   0  0  0  0  0  0  0  0  0  0  0  0
   44.0202   33.2836   39.2356 H   0  0  0  0  0  0  0  0  0  0  0  0
   44.7812   34.8796   39.0478 H   0  0  0  0  0  0  0  0  0  0  0  0
   45.0810   32.9361   41.3418 H   0  0  0  0  0  0  0  0  0  0  0  0
   43.8767   36.5046   43.9774 H   0  0  0  0  0  0  0  0  0  0  0  0
   45.4809   32.5595   43.1975 H   0  0  0  0  0  0  0  0  0  0  0  0
   45.4370   34.1498   47.1573 H   0  0  0  0  0  0  0  0  0  0  0  0
   47.2309   35.4655   42.5407 H   0  0  0  0  0  0  0  0  0  0  0  0
   49.5454   35.5386   41.1335 H   0  0  0  0  0  0  0  0  0  0  0  0
   48.9610   34.2108   38.8470 H   0  0  0  0  0  0  0  0  0  0  0  0
  1  7  1  0
  2  1  1  0
  3  2  1  0
  4  3  1  0
  4  5  1  0
  5  1  1  0
  6 11  2  0
  7  8  2  0
  7  6  1  0
  8  9  1  0
  9 10  2  0
 11 10  1  0
 12  5  1  0
 12 13  2  0
 14 13  1  0
 15 16  1  0
 15 14  2  0
 16 12  1  0
  1 17  1  6
  2 18  1  0
  2 19  1  0
  3 20  1  0
  3 21  1  0
  4 22  1  0
  4 23  1  0
  5 24  1  1
  6 25  1  0
  8 26  1  0
 10 27  1  0
 13 28  1  0
 14 29  1  0
 15 30  1  0
M  ISO  8  17  13  18  13  19  13  20  13  21  13  22  13  23  13  24  13
M  ISO  6  25  14  26  14  27  14  28  14  29  14  30  14
M  END
>  <minimizedAffinity>  (1) 
-4.6325984

>  <minimizedRMSD>  (1) 
1.13116145

$$$$
