
     RDKit          3D

 30 32  0  0  1  0  0  0  0  0999 V2000
   44.2500   34.8090   41.7990 C   0  0  2  0  0  0  0  0  0  0  0  0
   42.7270   34.7270   41.5350 C   0  0  0  0  0  0  0  0  0  0  0  0
   42.7970   35.0550   40.0250 C   0  0  0  0  0  0  0  0  0  0  0  0
   43.8510   34.0660   39.5960 C   0  0  0  0  0  0  0  0  0  0  0  0
   44.7180   33.8300   40.8130 C   0  0  1  0  0  0  0  0  0  0  0  0
   44.3680   35.6220   44.0980 C   0  0  0  0  0  0  0  0  0  0  0  0
   44.6030   34.5690   43.1970 C   0  0  0  0  0  0  0  0  0  0  0  0
   45.1850   33.3540   43.6560 C   0  0  0  0  0  0  0  0  0  0  0  0
   45.4890   33.2830   44.9750 N   0  0  0  0  0  0  0  0  0  0  0  0
   45.2560   34.3120   45.8400 C   0  0  0  0  0  0  0  0  0  0  0  0
   44.7010   35.4690   45.4100 N   0  0  0  0  0  0  0  0  0  0  0  0
   46.1420   34.0430   40.3850 C   0  0  0  0  0  0  0  0  0  0  0  0
   47.2700   34.5210   41.0160 C   0  0  0  0  0  0  0  0  0  0  0  0
   48.3000   34.5050   40.1690 N   0  0  0  0  0  0  0  0  0  0  0  0
   47.8400   34.0190   38.9940 C   0  0  0  0  0  0  0  0  0  0  0  0
   46.5250   33.7350   39.1150 N   0  0  0  0  0  0  0  0  0  0  0  0
   44.7215   35.7948   41.6727 H   0  0  0  0  0  0  0  0  0  0  0  0
   42.3163   33.7258   41.7323 H   0  0  0  0  0  0  0  0  0  0  0  0
   42.0788   35.3647   42.1540 H   0  0  0  0  0  0  0  0  0  0  0  0
   41.8360   34.8727   39.5218 H   0  0  0  0  0  0  0  0  0  0  0  0
   43.0204   36.1055   39.7870 H   0  0  0  0  0  0  0  0  0  0  0  0
   43.3831   33.1249   39.2712 H   0  0  0  0  0  0  0  0  0  0  0  0
   44.4399   34.4458   38.7481 H   0  0  0  0  0  0  0  0  0  0  0  0
   44.6598   32.8215   41.2485 H   0  0  0  0  0  0  0  0  0  0  0  0
   43.9186   36.5624   43.7463 H   0  0  0  0  0  0  0  0  0  0  0  0
   45.3787   32.5134   42.9735 H   0  0  0  0  0  0  0  0  0  0  0  0
   45.5228   34.1997   46.9012 H   0  0  0  0  0  0  0  0  0  0  0  0
   47.3142   34.8639   42.0603 H   0  0  0  0  0  0  0  0  0  0  0  0
   48.4414   33.8774   38.0839 H   0  0  0  0  0  0  0  0  0  0  0  0
   45.9181   33.3524   38.3760 H   0  0  0  0  0  0  0  0  0  0  0  0
  1  7  1  0
  2  1  1  0
  3  2  1  0
  4  3  1  0
  4  5  1  0
  5  1  1  0
  6 11  2  0
  7  8  2  0
  7  6  1  0
  8  9  1  0
  9 10  2  0
 11 10  1  0
 12  5  1  0
 12 13  2  0
 14 13  1  0
 15 16  1  0
 15 14  2  0
 16 12  1  0
  1 17  1  6
  2 18  1  0
  2 19  1  0
  3 20  1  0
  3 21  1  0
  4 22  1  0
  4 23  1  0
  5 24  1  1
  6 25  1  0
  8 26  1  0
 10 27  1  0
 13 28  1  0
 15 29  1  0
 16 30  1  0
M  ISO  8  17  13  18  13  19  13  20  13  21  13  22  13  23  13  24  13
M  ISO  6  25  14  26  14  27  14  28  14  29  14  30   9
M  END
>  <minimizedAffinity>  (1) 
-4.63597918

>  <minimizedRMSD>  (1) 
1.00706148

$$$$
