
     RDKit          3D

 37 40  0  0  1  0  0  0  0  0999 V2000
   44.0750   34.7950   41.6290 C   0  0  2  0  0  0  0  0  0  0  0  0
   42.5580   35.2590   41.5120 C   0  0  0  0  0  0  0  0  0  0  0  0
   42.5670   35.4060   39.9720 C   0  0  0  0  0  0  0  0  0  0  0  0
   43.2260   34.1190   39.5620 C   0  0  0  0  0  0  0  0  0  0  0  0
   43.9600   33.6360   40.7900 C   0  0  1  0  0  0  0  0  0  0  0  0
   44.8910   32.5680   40.6030 C   0  0  0  0  0  0  0  0  0  0  0  0
   44.5420   31.2480   40.7790 N   0  0  0  0  0  0  0  0  0  0  0  0
   45.3740   30.2170   40.6140 C   0  0  0  0  0  0  0  0  0  0  0  0
   46.6560   30.3540   40.2520 N   0  0  0  0  0  0  0  0  0  0  0  0
   47.1120   31.6000   40.0490 C   0  0  0  0  0  0  0  0  0  0  0  0
   48.4220   31.7830   39.6670 C   0  0  0  0  0  0  0  0  0  0  0  0
   48.9120   33.0440   39.4440 C   0  0  0  0  0  0  0  0  0  0  0  0
   48.0500   34.1310   39.6130 C   0  0  0  0  0  0  0  0  0  0  0  0
   46.7740   33.8790   39.9900 C   0  0  0  0  0  0  0  0  0  0  0  0
   46.2210   32.6390   40.2310 C   0  0  0  0  0  0  0  0  0  0  0  0
   44.2510   35.6900   43.9320 C   0  0  0  0  0  0  0  0  0  0  0  0
   44.4550   34.6500   43.0140 C   0  0  0  0  0  0  0  0  0  0  0  0
   45.0810   33.4910   43.5070 C   0  0  0  0  0  0  0  0  0  0  0  0
   45.4560   33.4080   44.7990 N   0  0  0  0  0  0  0  0  0  0  0  0
   45.2380   34.4460   45.6560 C   0  0  0  0  0  0  0  0  0  0  0  0
   44.6420   35.5670   45.2150 N   0  0  0  0  0  0  0  0  0  0  0  0
   44.8966   35.4520   41.3076 H   0  0  0  0  0  0  0  0  0  0  0  0
   41.8493   34.4949   41.8640 H   0  0  0  0  0  0  0  0  0  0  0  0
   42.2486   36.1338   42.1028 H   0  0  0  0  0  0  0  0  0  0  0  0
   41.5468   35.4834   39.5681 H   0  0  0  0  0  0  0  0  0  0  0  0
   43.0752   36.3107   39.6069 H   0  0  0  0  0  0  0  0  0  0  0  0
   42.4711   33.3823   39.2501 H   0  0  0  0  0  0  0  0  0  0  0  0
   43.9053   34.2608   38.7085 H   0  0  0  0  0  0  0  0  0  0  0  0
   43.4928   32.9127   41.4745 H   0  0  0  0  0  0  0  0  0  0  0  0
   44.9861   29.2018   40.7843 H   0  0  0  0  0  0  0  0  0  0  0  0
   49.0804   30.9111   39.5398 H   0  0  0  0  0  0  0  0  0  0  0  0
   49.9580   33.1964   39.1395 H   0  0  0  0  0  0  0  0  0  0  0  0
   48.3978   35.1609   39.4447 H   0  0  0  0  0  0  0  0  0  0  0  0
   46.1134   34.7494   40.1165 H   0  0  0  0  0  0  0  0  0  0  0  0
   43.7649   36.6192   43.5998 H   0  0  0  0  0  0  0  0  0  0  0  0
   45.2665   32.6433   42.8310 H   0  0  0  0  0  0  0  0  0  0  0  0
   45.5498   34.3659   46.7078 H   0  0  0  0  0  0  0  0  0  0  0  0
  1 17  1  0
  2  1  1  0
  3  2  1  0
  4  3  1  0
  4  5  1  0
  5  1  1  0
  6  7  2  0
  6  5  1  0
  8  7  1  0
  9  8  2  0
 10 15  2  0
 10  9  1  0
 11 10  1  0
 12 13  1  0
 12 11  2  0
 13 14  2  0
 14 15  1  0
 15  6  1  0
 16 21  2  0
 17 18  2  0
 17 16  1  0
 18 19  1  0
 19 20  2  0
 21 20  1  0
  1 22  1  6
  2 23  1  0
  2 24  1  0
  3 25  1  0
  3 26  1  0
  4 27  1  0
  4 28  1  0
  5 29  1  1
  8 30  1  0
 11 31  1  0
 12 32  1  0
 13 33  1  0
 14 34  1  0
 16 35  1  0
 18 36  1  0
 20 37  1  0
M  ISO  8  22  13  23  13  24  13  25  13  26  13  27  13  28  13  29  13
M  ISO  8  30  14  31  14  32  14  33  14  34  14  35  14  36  14  37  14
M  END
>  <minimizedAffinity>  (1) 
-4.60353374

>  <minimizedRMSD>  (1) 
0.56564492

$$$$
