
     RDKit          3D

 28 30  0  0  1  0  0  0  0  0999 V2000
   44.2980   34.8200   41.8670 C   0  0  2  0  0  0  0  0  0  0  0  0
   42.7880   34.6990   41.5770 C   0  0  0  0  0  0  0  0  0  0  0  0
   42.8310   34.9880   40.0780 C   0  0  0  0  0  0  0  0  0  0  0  0
   44.0190   34.1860   39.6280 C   0  0  0  0  0  0  0  0  0  0  0  0
   44.8450   33.8960   40.8700 C   0  0  1  0  0  0  0  0  0  0  0  0
   44.3800   35.5860   44.1910 C   0  0  0  0  0  0  0  0  0  0  0  0
   44.6270   34.5670   43.2540 C   0  0  0  0  0  0  0  0  0  0  0  0
   45.2100   33.3720   43.7220 C   0  0  0  0  0  0  0  0  0  0  0  0
   45.5090   33.2520   45.0520 N   0  0  0  0  0  0  0  0  0  0  0  0
   45.2530   34.2680   45.9280 C   0  0  0  0  0  0  0  0  0  0  0  0
   44.6880   35.4300   45.4930 N   0  0  0  0  0  0  0  0  0  0  0  0
   46.2780   34.1500   40.5900 C   0  0  0  0  0  0  0  0  0  0  0  0
   47.2120   34.8420   41.2430 N   0  0  0  0  0  0  0  0  0  0  0  0
   48.3070   34.7440   40.5650 O   0  0  0  0  0  0  0  0  0  0  0  0
   48.1460   34.0190   39.4890 C   0  0  0  0  0  0  0  0  0  0  0  0
   46.8390   33.6240   39.4850 N   0  0  0  0  0  0  0  0  0  0  0  0
   44.7291   35.8268   41.7650 H   0  0  0  0  0  0  0  0  0  0  0  0
   42.4018   33.6925   41.7956 H   0  0  0  0  0  0  0  0  0  0  0  0
   42.1300   35.3481   42.1734 H   0  0  0  0  0  0  0  0  0  0  0  0
   41.9104   34.6485   39.5808 H   0  0  0  0  0  0  0  0  0  0  0  0
   42.9081   36.0590   39.8392 H   0  0  0  0  0  0  0  0  0  0  0  0
   43.6878   33.2450   39.1646 H   0  0  0  0  0  0  0  0  0  0  0  0
   44.6084   34.7369   38.8802 H   0  0  0  0  0  0  0  0  0  0  0  0
   44.7924   32.8521   41.2126 H   0  0  0  0  0  0  0  0  0  0  0  0
   43.9261   36.5296   43.8539 H   0  0  0  0  0  0  0  0  0  0  0  0
   45.4220   32.5463   43.0268 H   0  0  0  0  0  0  0  0  0  0  0  0
   45.5045   34.1479   46.9921 H   0  0  0  0  0  0  0  0  0  0  0  0
   48.9110   33.7757   38.7369 H   0  0  0  0  0  0  0  0  0  0  0  0
  1  7  1  0
  2  1  1  0
  3  2  1  0
  4  3  1  0
  4  5  1  0
  5  1  1  0
  6 11  2  0
  7  8  2  0
  7  6  1  0
  8  9  1  0
  9 10  2  0
 11 10  1  0
 12  5  1  0
 12 13  2  0
 14 13  1  0
 15 14  1  0
 16 15  2  0
 16 12  1  0
  1 17  1  6
  2 18  1  0
  2 19  1  0
  3 20  1  0
  3 21  1  0
  4 22  1  0
  4 23  1  0
  5 24  1  1
  6 25  1  0
  8 26  1  0
 10 27  1  0
 15 28  1  0
M  ISO  8  17  13  18  13  19  13  20  13  21  13  22  13  23  13  24  13
M  ISO  4  25  14  26  14  27  14  28  14
M  END
>  <minimizedAffinity>  (1) 
-4.38164473

>  <minimizedRMSD>  (1) 
0.76262176

$$$$
