
     RDKit          3D

 26 27  0  0  1  0  0  0  0  0999 V2000
   44.1250   34.8650   41.6370 C   0  0  2  0  0  0  0  0  0  0  0  0
   42.5850   34.9840   41.4710 C   0  0  0  0  0  0  0  0  0  0  0  0
   42.5600   35.2070   39.9620 C   0  0  0  0  0  0  0  0  0  0  0  0
   43.4850   34.0970   39.5050 C   0  0  0  0  0  0  0  0  0  0  0  0
   44.3890   33.7770   40.6940 C   0  0  1  0  0  0  0  0  0  0  0  0
   44.3020   35.7160   43.9270 C   0  0  0  0  0  0  0  0  0  0  0  0
   44.5220   34.6390   43.0280 C   0  0  0  0  0  0  0  0  0  0  0  0
   45.1230   33.4340   43.5000 C   0  0  0  0  0  0  0  0  0  0  0  0
   45.4580   33.3820   44.8120 N   0  0  0  0  0  0  0  0  0  0  0  0
   45.2360   34.4270   45.6560 C   0  0  0  0  0  0  0  0  0  0  0  0
   44.6670   35.5800   45.2290 N   0  0  0  0  0  0  0  0  0  0  0  0
   45.8000   33.6860   40.1800 C   0  0  0  0  0  0  0  0  0  0  0  0
   44.7173   35.7658   41.4187 H   0  0  0  0  0  0  0  0  0  0  0  0
   42.0603   34.0635   41.7664 H   0  0  0  0  0  0  0  0  0  0  0  0
   42.0878   35.7502   42.0839 H   0  0  0  0  0  0  0  0  0  0  0  0
   41.5470   35.0872   39.5503 H   0  0  0  0  0  0  0  0  0  0  0  0
   42.8604   36.2157   39.6421 H   0  0  0  0  0  0  0  0  0  0  0  0
   42.9023   33.2088   39.2194 H   0  0  0  0  0  0  0  0  0  0  0  0
   44.0723   34.4018   38.6263 H   0  0  0  0  0  0  0  0  0  0  0  0
   44.2111   32.8192   41.2048 H   0  0  0  0  0  0  0  0  0  0  0  0
   43.8412   36.6501   43.5734 H   0  0  0  0  0  0  0  0  0  0  0  0
   45.3066   32.5833   42.8273 H   0  0  0  0  0  0  0  0  0  0  0  0
   45.5264   34.3326   46.7128 H   0  0  0  0  0  0  0  0  0  0  0  0
   46.4975   33.6410   41.0294 H   0  0  0  0  0  0  0  0  0  0  0  0
   45.9093   32.7789   39.5674 H   0  0  0  0  0  0  0  0  0  0  0  0
   46.0249   34.5715   39.5674 H   0  0  0  0  0  0  0  0  0  0  0  0
  1  7  1  0
  2  1  1  0
  3  2  1  0
  4  3  1  0
  4  5  1  0
  5  1  1  0
  6 11  2  0
  7  8  2  0
  7  6  1  0
  8  9  1  0
  9 10  2  0
 11 10  1  0
 12  5  1  0
  1 13  1  6
  2 14  1  0
  2 15  1  0
  3 16  1  0
  3 17  1  0
  4 18  1  0
  4 19  1  0
  5 20  1  1
  6 21  1  0
  8 22  1  0
 10 23  1  0
 12 24  1  0
 12 25  1  0
 12 26  1  0
M  ISO  8  13  13  14  13  15  13  16  13  17  13  18  13  19  13  20  13
M  ISO  6  21  14  22  14  23  14  24   8  25   8  26   8
M  END
>  <minimizedAffinity>  (1) 
-3.73514199

>  <minimizedRMSD>  (1) 
0.107139878

$$$$
