
     RDKit          3D

 51 56  0  0  1  0  0  0  0  0999 V2000
   43.9080   34.0870   40.8120 C   0  0  2  0  0  0  0  0  0  0  0  0
   42.3540   34.2440   40.8280 C   0  0  0  0  0  0  0  0  0  0  0  0
   42.2160   34.9500   39.4750 C   0  0  0  0  0  0  0  0  0  0  0  0
   43.1340   34.1680   38.6150 C   0  0  0  0  0  0  0  0  0  0  0  0
   44.0630   33.3900   39.5470 C   0  0  1  0  0  0  0  0  0  0  0  0
   45.3830   33.3160   38.9880 N   0  0  0  0  0  0  0  0  0  0  0  0
   46.5310   33.4360   39.6850 C   0  0  0  0  0  0  0  0  0  0  0  0
   47.5830   33.3260   38.8750 N   0  0  0  0  0  0  0  0  0  0  0  0
   47.0860   33.1350   37.6430 C   0  0  0  0  0  0  0  0  0  0  0  0
   47.7700   32.9700   36.4590 C   0  0  0  0  0  0  0  0  0  0  0  0
   49.0380   32.9790   36.4210 O   0  0  0  0  0  0  0  0  0  0  0  0
   47.0190   32.7980   35.3430 N   0  0  0  0  0  0  0  0  0  0  0  0
   45.6650   32.7880   35.3850 C   0  0  0  0  0  0  0  0  0  0  0  0
   45.0090   32.6090   34.1320 N   0  0  0  0  0  0  0  0  0  0  0  0
   45.0330   32.9520   36.5710 N   0  0  0  0  0  0  0  0  0  0  0  0
   45.7080   33.1270   37.7070 C   0  0  0  0  0  0  0  0  0  0  0  0
   44.9250   34.2490   43.0470 C   0  0  0  0  0  0  0  0  0  0  0  0
   44.4140   33.4520   42.0180 C   0  0  0  0  0  0  0  0  0  0  0  0
   44.4330   32.0560   42.1930 C   0  0  0  0  0  0  0  0  0  0  0  0
   44.9430   31.5530   43.3400 N   0  0  0  0  0  0  0  0  0  0  0  0
   45.4300   32.3210   44.3200 C   0  0  0  0  0  0  0  0  0  0  0  0
   45.4160   33.6600   44.1610 N   0  0  0  0  0  0  0  0  0  0  0  0
   46.0190   31.9790   45.6190 C   0  0  0  0  0  0  0  0  0  0  0  0
   46.7620   32.8050   46.3640 N   0  0  0  0  0  0  0  0  0  0  0  0
   47.3000   32.5010   47.5450 C   0  0  0  0  0  0  0  0  0  0  0  0
   47.1300   31.2880   48.1000 N   0  0  0  0  0  0  0  0  0  0  0  0
   46.3890   30.3650   47.4270 C   0  0  0  0  0  0  0  0  0  0  0  0
   46.2340   29.1340   48.0210 C   0  0  0  0  0  0  0  0  0  0  0  0
   45.4910   28.1710   47.3710 C   0  0  0  0  0  0  0  0  0  0  0  0
   44.9380   28.4960   46.1500 C   0  0  0  0  0  0  0  0  0  0  0  0
   45.1350   29.7490   45.6150 C   0  0  0  0  0  0  0  0  0  0  0  0
   45.8640   30.7480   46.2140 C   0  0  0  0  0  0  0  0  0  0  0  0
   44.5148   35.0038   40.8469 H   0  0  0  0  0  0  0  0  0  0  0  0
   41.8345   33.2747   40.8504 H   0  0  0  0  0  0  0  0  0  0  0  0
   41.9233   34.7628   41.6971 H   0  0  0  0  0  0  0  0  0  0  0  0
   41.1820   34.8995   39.1031 H   0  0  0  0  0  0  0  0  0  0  0  0
   42.4547   36.0231   39.5121 H   0  0  0  0  0  0  0  0  0  0  0  0
   42.5608   33.4718   37.9851 H   0  0  0  0  0  0  0  0  0  0  0  0
   43.7084   34.8293   37.9496 H   0  0  0  0  0  0  0  0  0  0  0  0
   43.8298   32.3249   39.6928 H   0  0  0  0  0  0  0  0  0  0  0  0
   46.5906   33.6016   40.7708 H   0  0  0  0  0  0  0  0  0  0  0  0
   47.4920   32.6712   34.4368 H   0  0  0  0  0  0  0  0  0  0  0  0
   43.9801   32.5909   34.0873 H   0  0  0  0  0  0  0  0  0  0  0  0
   45.5639   32.4978   33.2714 H   0  0  0  0  0  0  0  0  0  0  0  0
   44.9276   35.3448   42.9513 H   0  0  0  0  0  0  0  0  0  0  0  0
   44.0409   31.3873   41.4126 H   0  0  0  0  0  0  0  0  0  0  0  0
   47.8953   33.2580   48.0766 H   0  0  0  0  0  0  0  0  0  0  0  0
   46.6945   28.9215   48.9971 H   0  0  0  0  0  0  0  0  0  0  0  0
   45.3439   27.1744   47.8127 H   0  0  0  0  0  0  0  0  0  0  0  0
   44.3388   27.7531   45.6031 H   0  0  0  0  0  0  0  0  0  0  0  0
   44.6764   29.9659   44.6390 H   0  0  0  0  0  0  0  0  0  0  0  0
  1  2  1  0
  1 18  1  0
  3  2  1  0
  4  3  1  0
  4  5  1  0
  5  1  1  0
  6  5  1  0
  6  7  1  0
  8  7  2  0
  9 16  2  0
  9  8  1  0
 10  9  1  0
 11 10  2  0
 12 13  1  0
 12 10  1  0
 13 15  2  0
 14 13  1  0
 15 16  1  0
 16  6  1  0
 17 22  2  0
 18 19  2  0
 18 17  1  0
 19 20  1  0
 20 21  2  0
 21 23  1  0
 22 21  1  0
 23 32  1  0
 23 24  2  0
 24 25  1  0
 25 26  2  0
 27 28  2  0
 27 26  1  0
 29 28  1  0
 30 29  2  0
 31 30  1  0
 31 32  2  0
 32 27  1  0
  1 33  1  6
  2 34  1  0
  2 35  1  0
  3 36  1  0
  3 37  1  0
  4 38  1  0
  4 39  1  0
  5 40  1  1
  7 41  1  0
 12 42  1  0
 14 43  1  0
 14 44  1  0
 17 45  1  0
 19 46  1  0
 25 47  1  0
 28 48  1  0
 29 49  1  0
 30 50  1  0
 31 51  1  0
M  ISO  8  33  13  34  13  35  13  36  13  37  13  38  13  39  13  40  13
M  ISO  8  41  14  42   9  45  14  46  14  47  14  48  14  49  14  50  14
M  ISO  1  51  14
M  END
>  <minimizedAffinity>  (1) 
-6.87731314

>  <minimizedRMSD>  (1) 
1.44825935

$$$$
