
     RDKit          3D

 50 54  0  0  1  0  0  0  0  0999 V2000
   44.2110   34.3040   40.6260 C   0  0  2  0  0  0  0  0  0  0  0  0
   42.6630   34.4550   40.7180 C   0  0  0  0  0  0  0  0  0  0  0  0
   42.3980   34.8390   39.2620 C   0  0  0  0  0  0  0  0  0  0  0  0
   43.2880   33.9300   38.5150 C   0  0  0  0  0  0  0  0  0  0  0  0
   44.3000   33.3640   39.5250 C   0  0  1  0  0  0  0  0  0  0  0  0
   45.5780   33.2010   38.8870 N   0  0  0  0  0  0  0  0  0  0  0  0
   46.7620   33.2100   39.5320 C   0  0  0  0  0  0  0  0  0  0  0  0
   47.7680   33.0390   38.6710 N   0  0  0  0  0  0  0  0  0  0  0  0
   47.1890   32.9190   37.4560 C   0  0  0  0  0  0  0  0  0  0  0  0
   47.8030   32.7290   36.2380 C   0  0  0  0  0  0  0  0  0  0  0  0
   49.0710   32.6380   36.1360 O   0  0  0  0  0  0  0  0  0  0  0  0
   47.0050   32.6430   35.1610 N   0  0  0  0  0  0  0  0  0  0  0  0
   45.6540   32.7400   35.2710 C   0  0  0  0  0  0  0  0  0  0  0  0
   44.9220   32.6400   34.0470 N   0  0  0  0  0  0  0  0  0  0  0  0
   45.0890   32.9270   36.4910 N   0  0  0  0  0  0  0  0  0  0  0  0
   45.8250   33.0200   37.5900 C   0  0  0  0  0  0  0  0  0  0  0  0
   45.6520   34.8750   42.5360 C   0  0  0  0  0  0  0  0  0  0  0  0
   44.8180   33.9300   41.9010 C   0  0  0  0  0  0  0  0  0  0  0  0
   44.6030   32.6710   42.4950 C   0  0  0  0  0  0  0  0  0  0  0  0
   45.2110   32.3970   43.6750 N   0  0  0  0  0  0  0  0  0  0  0  0
   46.0200   33.3360   44.2720 C   0  0  0  0  0  0  0  0  0  0  0  0
   46.2390   34.5670   43.7070 N   0  0  0  0  0  0  0  0  0  0  0  0
   46.6590   32.9910   45.5580 C   0  0  0  0  0  0  0  0  0  0  0  0
   47.1320   31.5620   45.6390 C   0  0  0  0  0  0  0  0  0  0  0  0
   47.2150   31.2770   47.1290 C   0  0  0  0  0  0  0  0  0  0  0  0
   46.4940   32.4320   47.8180 C   0  0  0  0  0  0  0  0  0  0  0  0
   45.6370   33.0190   46.7000 C   0  0  0  0  0  0  0  0  0  0  0  0
   44.7946   35.2158   40.4309 H   0  0  0  0  0  0  0  0  0  0  0  0
   42.1686   33.5127   40.9967 H   0  0  0  0  0  0  0  0  0  0  0  0
   42.2915   35.1587   41.4775 H   0  0  0  0  0  0  0  0  0  0  0  0
   41.3446   34.6707   38.9936 H   0  0  0  0  0  0  0  0  0  0  0  0
   42.5866   35.9021   39.0516 H   0  0  0  0  0  0  0  0  0  0  0  0
   42.7038   33.1128   38.0668 H   0  0  0  0  0  0  0  0  0  0  0  0
   43.8010   34.4630   37.7010 H   0  0  0  0  0  0  0  0  0  0  0  0
   44.1098   32.3506   39.9083 H   0  0  0  0  0  0  0  0  0  0  0  0
   46.8825   33.3402   40.6176 H   0  0  0  0  0  0  0  0  0  0  0  0
   47.4261   32.5005   34.2319 H   0  0  0  0  0  0  0  0  0  0  0  0
   43.8941   32.7048   34.0549 H   0  0  0  0  0  0  0  0  0  0  0  0
   45.4226   32.5032   33.1573 H   0  0  0  0  0  0  0  0  0  0  0  0
   45.8215   35.8595   42.0755 H   0  0  0  0  0  0  0  0  0  0  0  0
   43.9549   31.9254   42.0111 H   0  0  0  0  0  0  0  0  0  0  0  0
   47.4804   33.7188   45.6333 H   0  0  0  0  0  0  0  0  0  0  0  0
   46.4137   30.8858   45.1525 H   0  0  0  0  0  0  0  0  0  0  0  0
   48.0939   31.4084   45.1279 H   0  0  0  0  0  0  0  0  0  0  0  0
   46.7204   30.3229   47.3639 H   0  0  0  0  0  0  0  0  0  0  0  0
   48.2588   31.1945   47.4663 H   0  0  0  0  0  0  0  0  0  0  0  0
   45.8681   32.0691   48.6466 H   0  0  0  0  0  0  0  0  0  0  0  0
   47.1805   33.1646   48.2675 H   0  0  0  0  0  0  0  0  0  0  0  0
   45.3067   34.0427   46.9303 H   0  0  0  0  0  0  0  0  0  0  0  0
   44.6966   32.4843   46.5005 H   0  0  0  0  0  0  0  0  0  0  0  0
  1  2  1  0
  1 18  1  0
  3  2  1  0
  4  3  1  0
  4  5  1  0
  5  1  1  0
  6  5  1  0
  6  7  1  0
  8  7  2  0
  9 16  2  0
  9  8  1  0
 10  9  1  0
 11 10  2  0
 12 13  1  0
 12 10  1  0
 13 15  2  0
 14 13  1  0
 15 16  1  0
 16  6  1  0
 17 22  2  0
 18 19  2  0
 18 17  1  0
 19 20  1  0
 20 21  2  0
 21 23  1  0
 22 21  1  0
 23 24  1  0
 23 27  1  0
 24 25  1  0
 25 26  1  0
 27 26  1  0
  1 28  1  6
  2 29  1  0
  2 30  1  0
  3 31  1  0
  3 32  1  0
  4 33  1  0
  4 34  1  0
  5 35  1  1
  7 36  1  0
 12 37  1  0
 14 38  1  0
 14 39  1  0
 17 40  1  0
 19 41  1  0
 23 42  1  0
 24 43  1  0
 24 44  1  0
 25 45  1  0
 25 46  1  0
 26 47  1  0
 26 48  1  0
 27 49  1  0
 27 50  1  0
M  ISO  8  28  13  29  13  30  13  31  13  32  13  33  13  34  13  35  13
M  ISO  8  36  14  37   9  40  14  41  14  42  13  43  13  44  13  45  13
M  ISO  5  46  13  47  13  48  13  49  13  50  13
M  END
>  <minimizedAffinity>  (1) 
-6.69380903

>  <minimizedRMSD>  (1) 
0.488223284

$$$$
