
     RDKit          3D

 44 48  0  0  1  0  0  0  0  0999 V2000
   43.9220   34.4300   40.7050 C   0  0  2  0  0  0  0  0  0  0  0  0
   42.3860   34.6390   40.6970 C   0  0  0  0  0  0  0  0  0  0  0  0
   42.2580   35.1410   39.2540 C   0  0  0  0  0  0  0  0  0  0  0  0
   43.1500   34.2120   38.5220 C   0  0  0  0  0  0  0  0  0  0  0  0
   44.0510   33.5270   39.5630 C   0  0  1  0  0  0  0  0  0  0  0  0
   45.3820   33.3620   39.0120 N   0  0  0  0  0  0  0  0  0  0  0  0
   46.5310   33.4080   39.7240 C   0  0  0  0  0  0  0  0  0  0  0  0
   47.5840   33.2320   38.9270 N   0  0  0  0  0  0  0  0  0  0  0  0
   47.0860   33.0710   37.6860 C   0  0  0  0  0  0  0  0  0  0  0  0
   47.7680   32.8620   36.5100 C   0  0  0  0  0  0  0  0  0  0  0  0
   49.0300   32.7930   36.4810 O   0  0  0  0  0  0  0  0  0  0  0  0
   47.0300   32.7340   35.3870 N   0  0  0  0  0  0  0  0  0  0  0  0
   45.6690   32.8090   35.4110 C   0  0  0  0  0  0  0  0  0  0  0  0
   45.0170   32.6650   34.1530 N   0  0  0  0  0  0  0  0  0  0  0  0
   45.0280   33.0180   36.5930 N   0  0  0  0  0  0  0  0  0  0  0  0
   45.7000   33.1510   37.7300 C   0  0  0  0  0  0  0  0  0  0  0  0
   45.1040   34.9060   42.8160 C   0  0  0  0  0  0  0  0  0  0  0  0
   44.4240   33.9580   42.0010 C   0  0  0  0  0  0  0  0  0  0  0  0
   44.2760   32.6230   42.4320 C   0  0  0  0  0  0  0  0  0  0  0  0
   44.8070   32.2820   43.6420 N   0  0  0  0  0  0  0  0  0  0  0  0
   45.4580   33.2170   44.4030 C   0  0  0  0  0  0  0  0  0  0  0  0
   45.6080   34.5040   44.0090 N   0  0  0  0  0  0  0  0  0  0  0  0
   45.9930   32.8060   45.6590 N   0  0  0  0  0  0  0  0  0  0  0  0
   45.4600   33.0470   46.8450 N   0  0  0  0  0  0  0  0  0  0  0  0
   46.2300   32.5140   47.8290 C   0  0  0  0  0  0  0  0  0  0  0  0
   47.2970   31.9100   47.2100 C   0  0  0  0  0  0  0  0  0  0  0  0
   47.1270   32.1080   45.8550 C   0  0  0  0  0  0  0  0  0  0  0  0
   44.5478   35.3282   40.5973 H   0  0  0  0  0  0  0  0  0  0  0  0
   41.8353   33.7016   40.8644 H   0  0  0  0  0  0  0  0  0  0  0  0
   41.9801   35.2972   41.4793 H   0  0  0  0  0  0  0  0  0  0  0  0
   41.2210   35.0647   38.8952 H   0  0  0  0  0  0  0  0  0  0  0  0
   42.5242   36.2009   39.1289 H   0  0  0  0  0  0  0  0  0  0  0  0
   42.5522   33.4588   37.9878 H   0  0  0  0  0  0  0  0  0  0  0  0
   43.7548   34.7556   37.7813 H   0  0  0  0  0  0  0  0  0  0  0  0
   43.7877   32.5013   39.8607 H   0  0  0  0  0  0  0  0  0  0  0  0
   46.5882   33.5685   40.8107 H   0  0  0  0  0  0  0  0  0  0  0  0
   47.5077   32.5755   34.4884 H   0  0  0  0  0  0  0  0  0  0  0  0
   43.9895   32.7111   34.0972 H   0  0  0  0  0  0  0  0  0  0  0  0
   45.5729   32.5147   33.2990 H   0  0  0  0  0  0  0  0  0  0  0  0
   45.2189   35.9482   42.4835 H   0  0  0  0  0  0  0  0  0  0  0  0
   43.7499   31.8812   41.8131 H   0  0  0  0  0  0  0  0  0  0  0  0
   46.0366   32.5576   48.9110 H   0  0  0  0  0  0  0  0  0  0  0  0
   48.1242   31.3740   47.6983 H   0  0  0  0  0  0  0  0  0  0  0  0
   47.8061   31.7539   45.0654 H   0  0  0  0  0  0  0  0  0  0  0  0
  1 18  1  0
  2  1  1  0
  3  2  1  0
  4  3  1  0
  4  5  1  0
  5  1  1  0
  6  5  1  0
  6  7  1  0
  8  7  2  0
  9 16  2  0
  9  8  1  0
 10  9  1  0
 11 10  2  0
 12 13  1  0
 12 10  1  0
 13 15  2  0
 14 13  1  0
 15 16  1  0
 16  6  1  0
 17 22  2  0
 18 19  2  0
 18 17  1  0
 19 20  1  0
 20 21  2  0
 21 23  1  0
 22 21  1  0
 23 27  1  0
 23 24  1  0
 24 25  2  0
 26 25  1  0
 27 26  2  0
  1 28  1  6
  2 29  1  0
  2 30  1  0
  3 31  1  0
  3 32  1  0
  4 33  1  0
  4 34  1  0
  5 35  1  1
  7 36  1  0
 12 37  1  0
 14 38  1  0
 14 39  1  0
 17 40  1  0
 19 41  1  0
 25 42  1  0
 26 43  1  0
 27 44  1  0
M  ISO  8  28  13  29  13  30  13  31  13  32  13  33  13  34  13  35  13
M  ISO  7  36  14  37   9  40  14  41  14  42  14  43  14  44  14
M  END
>  <minimizedAffinity>  (1) 
-6.71404028

>  <minimizedRMSD>  (1) 
0.533434212

$$$$
