
     RDKit          3D

 43 47  0  0  1  0  0  0  0  0999 V2000
   44.0760   34.3170   40.6250 C   0  0  2  0  0  0  0  0  0  0  0  0
   42.5370   34.5070   40.6750 C   0  0  0  0  0  0  0  0  0  0  0  0
   42.3440   34.9940   39.2350 C   0  0  0  0  0  0  0  0  0  0  0  0
   43.2200   34.0730   38.4740 C   0  0  0  0  0  0  0  0  0  0  0  0
   44.1750   33.4130   39.4830 C   0  0  1  0  0  0  0  0  0  0  0  0
   45.4810   33.2610   38.8800 N   0  0  0  0  0  0  0  0  0  0  0  0
   46.6540   33.3060   39.5520 C   0  0  0  0  0  0  0  0  0  0  0  0
   47.6790   33.1410   38.7140 N   0  0  0  0  0  0  0  0  0  0  0  0
   47.1360   32.9880   37.4900 C   0  0  0  0  0  0  0  0  0  0  0  0
   47.7770   32.7930   36.2880 C   0  0  0  0  0  0  0  0  0  0  0  0
   49.0390   32.7280   36.2140 O   0  0  0  0  0  0  0  0  0  0  0  0
   47.0010   32.6730   35.1920 N   0  0  0  0  0  0  0  0  0  0  0  0
   45.6400   32.7430   35.2680 C   0  0  0  0  0  0  0  0  0  0  0  0
   44.9450   32.6120   34.0340 N   0  0  0  0  0  0  0  0  0  0  0  0
   45.0430   32.9370   36.4740 N   0  0  0  0  0  0  0  0  0  0  0  0
   45.7590   33.0620   37.5880 C   0  0  0  0  0  0  0  0  0  0  0  0
   45.4010   34.8060   42.6460 C   0  0  0  0  0  0  0  0  0  0  0  0
   44.6380   33.8660   41.9010 C   0  0  0  0  0  0  0  0  0  0  0  0
   44.4620   32.5530   42.3820 C   0  0  0  0  0  0  0  0  0  0  0  0
   45.0400   32.2170   43.5670 N   0  0  0  0  0  0  0  0  0  0  0  0
   45.7740   33.1450   44.2670 C   0  0  0  0  0  0  0  0  0  0  0  0
   45.9530   34.4110   43.8220 N   0  0  0  0  0  0  0  0  0  0  0  0
   46.3420   32.6980   45.4970 N   0  0  0  0  0  0  0  0  0  0  0  0
   46.9200   31.4630   45.5760 C   0  0  0  0  0  0  0  0  0  0  0  0
   47.3790   31.2850   46.8480 N   0  0  0  0  0  0  0  0  0  0  0  0
   47.0880   32.3870   47.5310 C   0  0  0  0  0  0  0  0  0  0  0  0
   46.4560   33.2510   46.7150 N   0  0  0  0  0  0  0  0  0  0  0  0
   44.6848   35.2230   40.4891 H   0  0  0  0  0  0  0  0  0  0  0  0
   42.0056   33.5643   40.8722 H   0  0  0  0  0  0  0  0  0  0  0  0
   42.1545   35.1679   41.4668 H   0  0  0  0  0  0  0  0  0  0  0  0
   41.2947   34.8989   38.9189 H   0  0  0  0  0  0  0  0  0  0  0  0
   42.5891   36.0567   39.0913 H   0  0  0  0  0  0  0  0  0  0  0  0
   42.6132   33.3050   37.9720 H   0  0  0  0  0  0  0  0  0  0  0  0
   43.7839   34.6192   37.7035 H   0  0  0  0  0  0  0  0  0  0  0  0
   43.9418   32.3857   39.7995 H   0  0  0  0  0  0  0  0  0  0  0  0
   46.7495   33.4574   40.6373 H   0  0  0  0  0  0  0  0  0  0  0  0
   47.4461   32.5249   34.2750 H   0  0  0  0  0  0  0  0  0  0  0  0
   43.9161   32.6550   34.0154 H   0  0  0  0  0  0  0  0  0  0  0  0
   45.4706   32.4742   33.1590 H   0  0  0  0  0  0  0  0  0  0  0  0
   45.5414   35.8328   42.2772 H   0  0  0  0  0  0  0  0  0  0  0  0
   43.8723   31.8185   41.8138 H   0  0  0  0  0  0  0  0  0  0  0  0
   47.0014   30.7362   44.7543 H   0  0  0  0  0  0  0  0  0  0  0  0
   47.3249   32.5643   48.5904 H   0  0  0  0  0  0  0  0  0  0  0  0
  1  2  1  0
  1 18  1  0
  3  2  1  0
  4  3  1  0
  4  5  1  0
  5  1  1  0
  6  5  1  0
  6  7  1  0
  8  7  2  0
  9 16  2  0
  9  8  1  0
 10  9  1  0
 11 10  2  0
 12 13  1  0
 12 10  1  0
 13 15  2  0
 14 13  1  0
 15 16  1  0
 16  6  1  0
 17 22  2  0
 18 19  2  0
 18 17  1  0
 19 20  1  0
 20 21  2  0
 21 23  1  0
 22 21  1  0
 23 24  1  0
 23 27  1  0
 24 25  2  0
 25 26  1  0
 27 26  2  0
  1 28  1  6
  2 29  1  0
  2 30  1  0
  3 31  1  0
  3 32  1  0
  4 33  1  0
  4 34  1  0
  5 35  1  1
  7 36  1  0
 12 37  1  0
 14 38  1  0
 14 39  1  0
 17 40  1  0
 19 41  1  0
 24 42  1  0
 26 43  1  0
M  ISO  8  28  13  29  13  30  13  31  13  32  13  33  13  34  13  35  13
M  ISO  6  36  14  37   9  40  14  41  14  42  14  43  14
M  END
>  <minimizedAffinity>  (1) 
-6.7383728

>  <minimizedRMSD>  (1) 
0.530642211

$$$$
