
     RDKit          3D

 45 49  0  0  1  0  0  0  0  0999 V2000
   44.1410   34.1620   40.7510 C   0  0  2  0  0  0  0  0  0  0  0  0
   42.6000   34.3330   40.8260 C   0  0  0  0  0  0  0  0  0  0  0  0
   42.3790   34.8900   39.4200 C   0  0  0  0  0  0  0  0  0  0  0  0
   43.2670   34.0490   38.5940 C   0  0  0  0  0  0  0  0  0  0  0  0
   44.2400   33.3610   39.5460 C   0  0  1  0  0  0  0  0  0  0  0  0
   45.5370   33.2360   38.9310 N   0  0  0  0  0  0  0  0  0  0  0  0
   46.7120   33.2900   39.5800 C   0  0  0  0  0  0  0  0  0  0  0  0
   47.7250   33.1450   38.7290 N   0  0  0  0  0  0  0  0  0  0  0  0
   47.1640   32.9960   37.5110 C   0  0  0  0  0  0  0  0  0  0  0  0
   47.7880   32.8170   36.2970 C   0  0  0  0  0  0  0  0  0  0  0  0
   49.0610   32.7680   36.2130 O   0  0  0  0  0  0  0  0  0  0  0  0
   47.0010   32.6960   35.2160 N   0  0  0  0  0  0  0  0  0  0  0  0
   45.6520   32.7490   35.3140 C   0  0  0  0  0  0  0  0  0  0  0  0
   44.9340   32.6150   34.0830 N   0  0  0  0  0  0  0  0  0  0  0  0
   45.0670   32.9270   36.5270 N   0  0  0  0  0  0  0  0  0  0  0  0
   45.7990   33.0530   37.6370 C   0  0  0  0  0  0  0  0  0  0  0  0
   45.4760   34.4940   42.7880 C   0  0  0  0  0  0  0  0  0  0  0  0
   44.7060   33.6050   41.9880 C   0  0  0  0  0  0  0  0  0  0  0  0
   44.5320   32.2630   42.3810 C   0  0  0  0  0  0  0  0  0  0  0  0
   45.1260   31.8670   43.5380 N   0  0  0  0  0  0  0  0  0  0  0  0
   45.8590   32.7260   44.2910 C   0  0  0  0  0  0  0  0  0  0  0  0
   46.0350   34.0180   43.9280 N   0  0  0  0  0  0  0  0  0  0  0  0
   46.4780   32.2530   45.5260 C   0  0  0  0  0  0  0  0  0  0  0  0
   47.0040   30.9790   45.5910 C   0  0  0  0  0  0  0  0  0  0  0  0
   47.6100   30.4710   46.7460 C   0  0  0  0  0  0  0  0  0  0  0  0
   47.6550   31.2930   47.8000 N   0  0  0  0  0  0  0  0  0  0  0  0
   47.1540   32.5370   47.7700 C   0  0  0  0  0  0  0  0  0  0  0  0
   46.5650   33.0230   46.6370 N   0  0  0  0  0  0  0  0  0  0  0  0
   44.7443   35.0794   40.6849 H   0  0  0  0  0  0  0  0  0  0  0  0
   42.0816   33.3753   40.9810 H   0  0  0  0  0  0  0  0  0  0  0  0
   42.2226   34.9503   41.6546 H   0  0  0  0  0  0  0  0  0  0  0  0
   41.3290   34.7810   39.1108 H   0  0  0  0  0  0  0  0  0  0  0  0
   42.5957   35.9653   39.3377 H   0  0  0  0  0  0  0  0  0  0  0  0
   42.6767   33.2978   38.0489 H   0  0  0  0  0  0  0  0  0  0  0  0
   43.8062   34.6568   37.8525 H   0  0  0  0  0  0  0  0  0  0  0  0
   44.0183   32.3134   39.7976 H   0  0  0  0  0  0  0  0  0  0  0  0
   46.8217   33.4342   40.6650 H   0  0  0  0  0  0  0  0  0  0  0  0
   47.4335   32.5598   34.2912 H   0  0  0  0  0  0  0  0  0  0  0  0
   43.9045   32.6458   34.0813 H   0  0  0  0  0  0  0  0  0  0  0  0
   45.4469   32.4878   33.1989 H   0  0  0  0  0  0  0  0  0  0  0  0
   45.6148   35.5434   42.4888 H   0  0  0  0  0  0  0  0  0  0  0  0
   43.9384   31.5628   41.7750 H   0  0  0  0  0  0  0  0  0  0  0  0
   46.9447   30.3371   44.6997 H   0  0  0  0  0  0  0  0  0  0  0  0
   48.0257   29.4533   46.7846 H   0  0  0  0  0  0  0  0  0  0  0  0
   47.2180   33.1718   48.6660 H   0  0  0  0  0  0  0  0  0  0  0  0
  1  2  1  0
  1 18  1  0
  3  2  1  0
  4  3  1  0
  4  5  1  0
  5  1  1  0
  6  5  1  0
  6  7  1  0
  8  7  2  0
  9 16  2  0
  9  8  1  0
 10  9  1  0
 11 10  2  0
 12 13  1  0
 12 10  1  0
 13 15  2  0
 14 13  1  0
 15 16  1  0
 16  6  1  0
 17 22  2  0
 18 19  2  0
 18 17  1  0
 19 20  1  0
 20 21  2  0
 21 23  1  0
 22 21  1  0
 23 24  2  0
 23 28  1  0
 24 25  1  0
 25 26  2  0
 27 26  1  0
 28 27  2  0
  1 29  1  6
  2 30  1  0
  2 31  1  0
  3 32  1  0
  3 33  1  0
  4 34  1  0
  4 35  1  0
  5 36  1  1
  7 37  1  0
 12 38  1  0
 14 39  1  0
 14 40  1  0
 17 41  1  0
 19 42  1  0
 24 43  1  0
 25 44  1  0
 27 45  1  0
M  ISO  8  29  13  30  13  31  13  32  13  33  13  34  13  35  13  36  13
M  ISO  7  37  14  38   9  41  14  42  14  43  14  44  14  45  14
M  END
>  <minimizedAffinity>  (1) 
-6.49611998

>  <minimizedRMSD>  (1) 
1.03048396

$$$$
