
     RDKit          3D

 40 43  0  0  1  0  0  0  0  0999 V2000
   43.8280   34.4220   40.6450 C   0  0  2  0  0  0  0  0  0  0  0  0
   42.2730   34.5520   40.6220 C   0  0  0  0  0  0  0  0  0  0  0  0
   42.1180   34.9840   39.1630 C   0  0  0  0  0  0  0  0  0  0  0  0
   43.0700   34.1030   38.4620 C   0  0  0  0  0  0  0  0  0  0  0  0
   44.0020   33.5100   39.5320 C   0  0  1  0  0  0  0  0  0  0  0  0
   45.3350   33.3740   38.9890 N   0  0  0  0  0  0  0  0  0  0  0  0
   46.4690   33.4500   39.7050 C   0  0  0  0  0  0  0  0  0  0  0  0
   47.5410   33.2910   38.9220 N   0  0  0  0  0  0  0  0  0  0  0  0
   47.0450   33.1120   37.6760 C   0  0  0  0  0  0  0  0  0  0  0  0
   47.7420   32.9090   36.5080 C   0  0  0  0  0  0  0  0  0  0  0  0
   49.0190   32.8650   36.4910 O   0  0  0  0  0  0  0  0  0  0  0  0
   47.0230   32.7610   35.3830 N   0  0  0  0  0  0  0  0  0  0  0  0
   45.6670   32.8070   35.3970 C   0  0  0  0  0  0  0  0  0  0  0  0
   45.0250   32.6440   34.1340 N   0  0  0  0  0  0  0  0  0  0  0  0
   45.0140   33.0090   36.5730 N   0  0  0  0  0  0  0  0  0  0  0  0
   45.6750   33.1620   37.7110 C   0  0  0  0  0  0  0  0  0  0  0  0
   44.8780   35.0400   42.7820 C   0  0  0  0  0  0  0  0  0  0  0  0
   44.3400   34.0210   41.9490 C   0  0  0  0  0  0  0  0  0  0  0  0
   44.3250   32.6810   42.3870 C   0  0  0  0  0  0  0  0  0  0  0  0
   44.8310   32.3950   43.6130 N   0  0  0  0  0  0  0  0  0  0  0  0
   45.3480   33.3930   44.4050 C   0  0  0  0  0  0  0  0  0  0  0  0
   45.3700   34.7020   43.9920 N   0  0  0  0  0  0  0  0  0  0  0  0
   45.9020   33.0510   45.7520 C   0  0  0  0  0  0  0  0  0  0  0  0
   45.2080   33.7230   46.7340 F   0  0  0  0  0  0  0  0  0  0  0  0
   47.2370   33.3510   45.8140 F   0  0  0  0  0  0  0  0  0  0  0  0
   45.6890   31.7020   45.9460 F   0  0  0  0  0  0  0  0  0  0  0  0
   44.4167   35.3427   40.5191 H   0  0  0  0  0  0  0  0  0  0  0  0
   41.7716   33.5950   40.8288 H   0  0  0  0  0  0  0  0  0  0  0  0
   41.8332   35.2236   41.3740 H   0  0  0  0  0  0  0  0  0  0  0  0
   41.0900   34.8199   38.8077 H   0  0  0  0  0  0  0  0  0  0  0  0
   42.3131   36.0544   39.0013 H   0  0  0  0  0  0  0  0  0  0  0  0
   42.5288   33.2978   37.9436 H   0  0  0  0  0  0  0  0  0  0  0  0
   43.6426   34.6631   37.7081 H   0  0  0  0  0  0  0  0  0  0  0  0
   43.7841   32.4860   39.8695 H   0  0  0  0  0  0  0  0  0  0  0  0
   46.5102   33.6204   40.7909 H   0  0  0  0  0  0  0  0  0  0  0  0
   47.5122   32.6091   34.4894 H   0  0  0  0  0  0  0  0  0  0  0  0
   43.9972   32.6683   34.0718 H   0  0  0  0  0  0  0  0  0  0  0  0
   45.5892   32.5020   33.2840 H   0  0  0  0  0  0  0  0  0  0  0  0
   44.8929   36.0871   42.4453 H   0  0  0  0  0  0  0  0  0  0  0  0
   43.9124   31.8854   41.7492 H   0  0  0  0  0  0  0  0  0  0  0  0
  1 18  1  0
  2  1  1  0
  3  2  1  0
  4  3  1  0
  4  5  1  0
  5  1  1  0
  6  5  1  0
  6  7  1  0
  8  7  2  0
  9 16  2  0
  9  8  1  0
 10  9  1  0
 11 10  2  0
 12 13  1  0
 12 10  1  0
 13 15  2  0
 14 13  1  0
 15 16  1  0
 16  6  1  0
 17 22  2  0
 18 19  2  0
 18 17  1  0
 19 20  1  0
 20 21  2  0
 21 23  1  0
 22 21  1  0
 23 25  1  0
 23 26  1  0
 23 24  1  0
  1 27  1  6
  2 28  1  0
  2 29  1  0
  3 30  1  0
  3 31  1  0
  4 32  1  0
  4 33  1  0
  5 34  1  1
  7 35  1  0
 12 36  1  0
 14 37  1  0
 14 38  1  0
 17 39  1  0
 19 40  1  0
M  ISO  8  27  13  28  13  29  13  30  13  31  13  32  13  33  13  34  13
M  ISO  4  35  14  36   9  39  14  40  14
M  END
>  <minimizedAffinity>  (1) 
-6.22800589

>  <minimizedRMSD>  (1) 
0.406784564

$$$$
