
     RDKit          3D

 46 50  0  0  1  0  0  0  0  0999 V2000
   44.1330   34.1580   40.7320 C   0  0  2  0  0  0  0  0  0  0  0  0
   42.5910   34.3240   40.8090 C   0  0  0  0  0  0  0  0  0  0  0  0
   42.3780   34.8970   39.4050 C   0  0  0  0  0  0  0  0  0  0  0  0
   43.2620   34.0500   38.5750 C   0  0  0  0  0  0  0  0  0  0  0  0
   44.2360   33.3460   39.5340 C   0  0  1  0  0  0  0  0  0  0  0  0
   45.5250   33.2270   38.9130 N   0  0  0  0  0  0  0  0  0  0  0  0
   46.7080   33.2880   39.5650 C   0  0  0  0  0  0  0  0  0  0  0  0
   47.7250   33.1500   38.7120 N   0  0  0  0  0  0  0  0  0  0  0  0
   47.1660   32.9980   37.4960 C   0  0  0  0  0  0  0  0  0  0  0  0
   47.7930   32.8240   36.2840 C   0  0  0  0  0  0  0  0  0  0  0  0
   49.0560   32.7840   36.1910 O   0  0  0  0  0  0  0  0  0  0  0  0
   47.0130   32.6980   35.1990 N   0  0  0  0  0  0  0  0  0  0  0  0
   45.6450   32.7410   35.2920 C   0  0  0  0  0  0  0  0  0  0  0  0
   44.9350   32.6040   34.0650 N   0  0  0  0  0  0  0  0  0  0  0  0
   45.0600   32.9150   36.5080 N   0  0  0  0  0  0  0  0  0  0  0  0
   45.7870   33.0440   37.6110 C   0  0  0  0  0  0  0  0  0  0  0  0
   45.4790   34.4900   42.7690 C   0  0  0  0  0  0  0  0  0  0  0  0
   44.7000   33.6080   41.9710 C   0  0  0  0  0  0  0  0  0  0  0  0
   44.5210   32.2670   42.3650 C   0  0  0  0  0  0  0  0  0  0  0  0
   45.1130   31.8570   43.5170 N   0  0  0  0  0  0  0  0  0  0  0  0
   45.8610   32.7290   44.2690 C   0  0  0  0  0  0  0  0  0  0  0  0
   46.0420   34.0210   43.9080 N   0  0  0  0  0  0  0  0  0  0  0  0
   46.4640   32.2090   45.4950 C   0  0  0  0  0  0  0  0  0  0  0  0
   46.4910   33.0080   46.6200 C   0  0  0  0  0  0  0  0  0  0  0  0
   47.0810   32.4400   47.7420 C   0  0  0  0  0  0  0  0  0  0  0  0
   47.5910   31.1590   47.6850 C   0  0  0  0  0  0  0  0  0  0  0  0
   47.5500   30.3840   46.5430 C   0  0  0  0  0  0  0  0  0  0  0  0
   46.9710   30.9620   45.4690 N   0  0  0  0  0  0  0  0  0  0  0  0
   44.7300   35.0789   40.6573 H   0  0  0  0  0  0  0  0  0  0  0  0
   42.0736   33.3638   40.9518 H   0  0  0  0  0  0  0  0  0  0  0  0
   42.2080   34.9286   41.6443 H   0  0  0  0  0  0  0  0  0  0  0  0
   41.3278   34.8015   39.0920 H   0  0  0  0  0  0  0  0  0  0  0  0
   42.6045   35.9709   39.3311 H   0  0  0  0  0  0  0  0  0  0  0  0
   42.6664   33.3052   38.0268 H   0  0  0  0  0  0  0  0  0  0  0  0
   43.8065   34.6556   37.8356 H   0  0  0  0  0  0  0  0  0  0  0  0
   44.0194   32.2989   39.7923 H   0  0  0  0  0  0  0  0  0  0  0  0
   46.8172   33.4317   40.6501 H   0  0  0  0  0  0  0  0  0  0  0  0
   47.4512   32.5661   34.2762 H   0  0  0  0  0  0  0  0  0  0  0  0
   43.9053   32.6271   34.0605 H   0  0  0  0  0  0  0  0  0  0  0  0
   45.4513   32.4819   33.1821 H   0  0  0  0  0  0  0  0  0  0  0  0
   45.6223   35.5376   42.4658 H   0  0  0  0  0  0  0  0  0  0  0  0
   43.9203   31.5733   41.7584 H   0  0  0  0  0  0  0  0  0  0  0  0
   46.0736   34.0257   46.6277 H   0  0  0  0  0  0  0  0  0  0  0  0
   47.1419   33.0131   48.6789 H   0  0  0  0  0  0  0  0  0  0  0  0
   48.0510   30.7362   48.5903 H   0  0  0  0  0  0  0  0  0  0  0  0
   47.9614   29.3643   46.5104 H   0  0  0  0  0  0  0  0  0  0  0  0
  1  2  1  0
  1 18  1  0
  3  2  1  0
  4  3  1  0
  4  5  1  0
  5  1  1  0
  6  5  1  0
  6  7  1  0
  8  7  2  0
  9 16  2  0
  9  8  1  0
 10  9  1  0
 11 10  2  0
 12 13  1  0
 12 10  1  0
 13 15  2  0
 14 13  1  0
 15 16  1  0
 16  6  1  0
 17 22  2  0
 18 19  2  0
 18 17  1  0
 19 20  1  0
 20 21  2  0
 21 23  1  0
 22 21  1  0
 23 24  2  0
 24 25  1  0
 26 25  2  0
 27 26  1  0
 28 23  1  0
 28 27  2  0
  1 29  1  6
  2 30  1  0
  2 31  1  0
  3 32  1  0
  3 33  1  0
  4 34  1  0
  4 35  1  0
  5 36  1  1
  7 37  1  0
 12 38  1  0
 14 39  1  0
 14 40  1  0
 17 41  1  0
 19 42  1  0
 24 43  1  0
 25 44  1  0
 26 45  1  0
 27 46  1  0
M  ISO  8  29  13  30  13  31  13  32  13  33  13  34  13  35  13  36  13
M  ISO  8  37  14  38   9  41  14  42  14  43  14  44  14  45  14  46  14
M  END
>  <minimizedAffinity>  (1) 
-6.57621717

>  <minimizedRMSD>  (1) 
0.908069611

$$$$
