
     RDKit          3D

 44 48  0  0  1  0  0  0  0  0999 V2000
   44.1170   34.3510   40.5870 C   0  0  2  0  0  0  0  0  0  0  0  0
   42.5660   34.4770   40.6560 C   0  0  0  0  0  0  0  0  0  0  0  0
   42.3240   34.8460   39.1850 C   0  0  0  0  0  0  0  0  0  0  0  0
   43.2310   33.9170   38.4760 C   0  0  0  0  0  0  0  0  0  0  0  0
   44.2310   33.3810   39.5140 C   0  0  1  0  0  0  0  0  0  0  0  0
   45.5280   33.2250   38.9020 N   0  0  0  0  0  0  0  0  0  0  0  0
   46.7040   33.2520   39.5600 C   0  0  0  0  0  0  0  0  0  0  0  0
   47.7190   33.0870   38.7120 N   0  0  0  0  0  0  0  0  0  0  0  0
   47.1610   32.9530   37.4910 C   0  0  0  0  0  0  0  0  0  0  0  0
   47.7950   32.7650   36.2830 C   0  0  0  0  0  0  0  0  0  0  0  0
   49.0570   32.6890   36.1980 O   0  0  0  0  0  0  0  0  0  0  0  0
   47.0180   32.6650   35.1940 N   0  0  0  0  0  0  0  0  0  0  0  0
   45.6520   32.7470   35.2780 C   0  0  0  0  0  0  0  0  0  0  0  0
   44.9450   32.6370   34.0500 N   0  0  0  0  0  0  0  0  0  0  0  0
   45.0650   32.9340   36.4930 N   0  0  0  0  0  0  0  0  0  0  0  0
   45.7880   33.0380   37.6010 C   0  0  0  0  0  0  0  0  0  0  0  0
   45.4760   34.9990   42.5320 C   0  0  0  0  0  0  0  0  0  0  0  0
   44.7120   34.0160   41.8790 C   0  0  0  0  0  0  0  0  0  0  0  0
   44.5600   32.7470   42.4750 C   0  0  0  0  0  0  0  0  0  0  0  0
   45.1690   32.5290   43.6710 N   0  0  0  0  0  0  0  0  0  0  0  0
   45.9030   33.4980   44.2780 C   0  0  0  0  0  0  0  0  0  0  0  0
   46.0580   34.7240   43.7190 N   0  0  0  0  0  0  0  0  0  0  0  0
   46.5480   33.2060   45.5880 C   0  0  0  0  0  0  0  0  0  0  0  0
   46.2970   31.9660   46.3250 C   0  0  0  0  0  0  0  0  0  0  0  0
   45.5600   33.1680   46.7920 C   0  0  0  0  0  0  0  0  0  0  0  0
   44.6887   35.2666   40.3753 H   0  0  0  0  0  0  0  0  0  0  0  0
   42.0817   33.5294   40.9343 H   0  0  0  0  0  0  0  0  0  0  0  0
   42.1685   35.1784   41.4044 H   0  0  0  0  0  0  0  0  0  0  0  0
   41.2756   34.6761   38.8985 H   0  0  0  0  0  0  0  0  0  0  0  0
   42.5130   35.9058   38.9590 H   0  0  0  0  0  0  0  0  0  0  0  0
   42.6558   33.0859   38.0420 H   0  0  0  0  0  0  0  0  0  0  0  0
   43.7550   34.4306   37.6565 H   0  0  0  0  0  0  0  0  0  0  0  0
   44.0423   32.3733   39.9128 H   0  0  0  0  0  0  0  0  0  0  0  0
   46.8112   33.3909   40.6459 H   0  0  0  0  0  0  0  0  0  0  0  0
   47.4578   32.5233   34.2735 H   0  0  0  0  0  0  0  0  0  0  0  0
   43.9164   32.6901   34.0414 H   0  0  0  0  0  0  0  0  0  0  0  0
   45.4612   32.5042   33.1687 H   0  0  0  0  0  0  0  0  0  0  0  0
   45.5997   35.9923   42.0759 H   0  0  0  0  0  0  0  0  0  0  0  0
   43.9676   31.9585   41.9878 H   0  0  0  0  0  0  0  0  0  0  0  0
   47.4778   33.7128   45.2904 H   0  0  0  0  0  0  0  0  0  0  0  0
   45.7440   31.1505   45.8360 H   0  0  0  0  0  0  0  0  0  0  0  0
   46.9534   31.2403   46.8275 H   0  0  0  0  0  0  0  0  0  0  0  0
   45.8252   33.6483   47.7454 H   0  0  0  0  0  0  0  0  0  0  0  0
   44.5065   33.4355   46.9614 H   0  0  0  0  0  0  0  0  0  0  0  0
  1  2  1  0
  1 18  1  0
  3  2  1  0
  4  3  1  0
  4  5  1  0
  5  1  1  0
  6  5  1  0
  6  7  1  0
  8  7  2  0
  9 16  2  0
  9  8  1  0
 10  9  1  0
 11 10  2  0
 12 13  1  0
 12 10  1  0
 13 15  2  0
 14 13  1  0
 15 16  1  0
 16  6  1  0
 17 22  2  0
 18 19  2  0
 18 17  1  0
 19 20  1  0
 20 21  2  0
 21 23  1  0
 22 21  1  0
 23 24  1  0
 23 25  1  0
 24 25  1  0
  1 26  1  6
  2 27  1  0
  2 28  1  0
  3 29  1  0
  3 30  1  0
  4 31  1  0
  4 32  1  0
  5 33  1  1
  7 34  1  0
 12 35  1  0
 14 36  1  0
 14 37  1  0
 17 38  1  0
 19 39  1  0
 23 40  1  0
 24 41  1  0
 24 42  1  0
 25 43  1  0
 25 44  1  0
M  ISO  8  26  13  27  13  28  13  29  13  30  13  31  13  32  13  33  13
M  ISO  8  34  14  35   9  38  14  39  14  40  13  41  13  42  13  43  13
M  ISO  1  44  13
M  END
>  <minimizedAffinity>  (1) 
-6.23586798

>  <minimizedRMSD>  (1) 
0.418453753

$$$$
