
     RDKit          3D

 45 49  0  0  1  0  0  0  0  0999 V2000
   44.1310   34.1610   40.7510 C   0  0  2  0  0  0  0  0  0  0  0  0
   42.5910   34.3300   40.8260 C   0  0  0  0  0  0  0  0  0  0  0  0
   42.3760   34.8970   39.4220 C   0  0  0  0  0  0  0  0  0  0  0  0
   43.2610   34.0500   38.5920 C   0  0  0  0  0  0  0  0  0  0  0  0
   44.2390   33.3570   39.5470 C   0  0  1  0  0  0  0  0  0  0  0  0
   45.5290   33.2360   38.9250 N   0  0  0  0  0  0  0  0  0  0  0  0
   46.7040   33.2960   39.5810 C   0  0  0  0  0  0  0  0  0  0  0  0
   47.7220   33.1540   38.7300 N   0  0  0  0  0  0  0  0  0  0  0  0
   47.1610   33.0020   37.5110 C   0  0  0  0  0  0  0  0  0  0  0  0
   47.7960   32.8250   36.3020 C   0  0  0  0  0  0  0  0  0  0  0  0
   49.0610   32.7810   36.2140 O   0  0  0  0  0  0  0  0  0  0  0  0
   47.0120   32.7010   35.2160 N   0  0  0  0  0  0  0  0  0  0  0  0
   45.6490   32.7470   35.3120 C   0  0  0  0  0  0  0  0  0  0  0  0
   44.9350   32.6120   34.0810 N   0  0  0  0  0  0  0  0  0  0  0  0
   45.0650   32.9230   36.5230 N   0  0  0  0  0  0  0  0  0  0  0  0
   45.7920   33.0520   37.6280 C   0  0  0  0  0  0  0  0  0  0  0  0
   45.4720   34.4810   42.7940 C   0  0  0  0  0  0  0  0  0  0  0  0
   44.6990   33.6050   41.9870 C   0  0  0  0  0  0  0  0  0  0  0  0
   44.5220   32.2610   42.3730 C   0  0  0  0  0  0  0  0  0  0  0  0
   45.1110   31.8410   43.5270 N   0  0  0  0  0  0  0  0  0  0  0  0
   45.8550   32.7140   44.2850 C   0  0  0  0  0  0  0  0  0  0  0  0
   46.0340   34.0080   43.9300 N   0  0  0  0  0  0  0  0  0  0  0  0
   46.4790   32.2400   45.5210 C   0  0  0  0  0  0  0  0  0  0  0  0
   47.0050   30.9650   45.5810 C   0  0  0  0  0  0  0  0  0  0  0  0
   47.6090   30.4750   46.7440 C   0  0  0  0  0  0  0  0  0  0  0  0
   47.6670   31.2940   47.8270 N   0  0  0  0  0  0  0  0  0  0  0  0
   47.1480   32.5440   47.7570 C   0  0  0  0  0  0  0  0  0  0  0  0
   46.5560   33.0290   46.6270 N   0  0  0  0  0  0  0  0  0  0  0  0
   44.7269   35.0832   40.6836 H   0  0  0  0  0  0  0  0  0  0  0  0
   42.0724   33.3711   40.9730 H   0  0  0  0  0  0  0  0  0  0  0  0
   42.2102   34.9398   41.6586 H   0  0  0  0  0  0  0  0  0  0  0  0
   41.3256   34.7982   39.1105 H   0  0  0  0  0  0  0  0  0  0  0  0
   42.6008   35.9710   39.3451 H   0  0  0  0  0  0  0  0  0  0  0  0
   42.6667   33.3000   38.0495 H   0  0  0  0  0  0  0  0  0  0  0  0
   43.7998   34.6549   37.8478 H   0  0  0  0  0  0  0  0  0  0  0  0
   44.0285   32.3085   39.8047 H   0  0  0  0  0  0  0  0  0  0  0  0
   46.8096   33.4416   40.6662 H   0  0  0  0  0  0  0  0  0  0  0  0
   47.4479   32.5685   34.2922 H   0  0  0  0  0  0  0  0  0  0  0  0
   43.9053   32.6373   34.0774 H   0  0  0  0  0  0  0  0  0  0  0  0
   45.4502   32.4894   33.1976 H   0  0  0  0  0  0  0  0  0  0  0  0
   45.6121   35.5314   42.4991 H   0  0  0  0  0  0  0  0  0  0  0  0
   43.9248   31.5705   41.7593 H   0  0  0  0  0  0  0  0  0  0  0  0
   46.9478   30.3186   44.6928 H   0  0  0  0  0  0  0  0  0  0  0  0
   48.0246   29.4572   46.7807 H   0  0  0  0  0  0  0  0  0  0  0  0
   47.2061   33.1918   48.6441 H   0  0  0  0  0  0  0  0  0  0  0  0
  1  2  1  0
  1 18  1  0
  3  2  1  0
  4  3  1  0
  4  5  1  0
  5  1  1  0
  6  5  1  0
  6  7  1  0
  8  7  2  0
  9 16  2  0
  9  8  1  0
 10  9  1  0
 11 10  2  0
 12 13  1  0
 12 10  1  0
 13 15  2  0
 14 13  1  0
 15 16  1  0
 16  6  1  0
 17 22  2  0
 18 19  2  0
 18 17  1  0
 19 20  1  0
 20 21  2  0
 21 23  1  0
 22 21  1  0
 23 24  2  0
 23 28  1  0
 24 25  1  0
 25 26  2  0
 27 26  1  0
 28 27  2  0
  1 29  1  6
  2 30  1  0
  2 31  1  0
  3 32  1  0
  3 33  1  0
  4 34  1  0
  4 35  1  0
  5 36  1  1
  7 37  1  0
 12 38  1  0
 14 39  1  0
 14 40  1  0
 17 41  1  0
 19 42  1  0
 24 43  1  0
 25 44  1  0
 27 45  1  0
M  ISO  8  29  13  30  13  31  13  32  13  33  13  34  13  35  13  36  13
M  ISO  7  37  14  38   9  41  14  42  14  43  14  44  14  45  14
M  END
>  <minimizedAffinity>  (1) 
-6.4925313

>  <minimizedRMSD>  (1) 
1.0391115

$$$$
