
     RDKit          3D

 26 27  0  0  1  0  0  0  0  0999 V2000
   45.1610   35.7480   42.6260 C   0  0  2  0  0  0  0  0  0  0  0  0
   46.4760   35.1040   42.5250 C   0  0  0  0  0  0  0  0  0  0  0  0
   46.6420   34.1990   43.7450 C   0  0  0  0  0  0  0  0  0  0  0  0
   45.3390   34.2140   44.4960 C   0  0  2  0  0  0  0  0  0  0  0  0
   44.7290   35.5080   44.0990 C   0  0  0  0  0  0  0  0  0  0  0  0
   44.0750   35.1890   41.8040 C   0  0  0  0  0  0  0  0  0  0  0  0
   44.4070   34.3620   40.7190 C   0  0  0  0  0  0  0  0  0  0  0  0
   43.3950   33.8050   39.9400 C   0  0  0  0  0  0  0  0  0  0  0  0
   42.1030   34.1150   40.2980 N   0  0  0  0  0  0  0  0  0  0  0  0
   41.8140   34.9130   41.3440 C   0  0  0  0  0  0  0  0  0  0  0  0
   42.7980   35.4490   42.0960 N   0  0  0  0  0  0  0  0  0  0  0  0
   45.4990   34.0360   45.9370 C   0  0  0  0  0  0  0  0  0  0  0  0
   44.5590   34.4030   46.7060 O   0  0  0  0  0  0  0  0  0  0  0  0
   46.6810   33.4710   46.3850 O   0  0  0  0  0  0  0  0  0  0  0  0
   45.2887   36.7856   42.2838 H   0  0  0  0  0  0  0  0  0  0  0  0
   46.5308   34.5055   41.6037 H   0  0  0  0  0  0  0  0  0  0  0  0
   47.2748   35.8596   42.4929 H   0  0  0  0  0  0  0  0  0  0  0  0
   46.8790   33.1741   43.4235 H   0  0  0  0  0  0  0  0  0  0  0  0
   47.4632   34.5553   44.3843 H   0  0  0  0  0  0  0  0  0  0  0  0
   44.6892   33.3632   44.2433 H   0  0  0  0  0  0  0  0  0  0  0  0
   45.0990   36.3191   44.7433 H   0  0  0  0  0  0  0  0  0  0  0  0
   43.6339   35.4863   44.2004 H   0  0  0  0  0  0  0  0  0  0  0  0
   45.4616   34.1547   40.4850 H   0  0  0  0  0  0  0  0  0  0  0  0
   43.6172   33.1515   39.0835 H   0  0  0  0  0  0  0  0  0  0  0  0
   40.7637   35.1303   41.5880 H   0  0  0  0  0  0  0  0  0  0  0  0
   46.8278   33.3336   47.3544 H   0  0  0  0  0  0  0  0  0  0  0  0
  1  5  1  0
  2  1  1  0
  2  3  1  0
  3  4  1  0
  4 12  1  0
  5  4  1  0
  6 11  1  0
  6  1  1  0
  7  6  2  0
  8  9  2  0
  8  7  1  0
  9 10  1  0
 10 11  2  0
 12 14  1  0
 12 13  2  0
  1 15  1  1
  2 16  1  0
  2 17  1  0
  3 18  1  0
  3 19  1  0
  4 20  1  6
  5 21  1  0
  5 22  1  0
  7 23  1  0
  8 24  1  0
 10 25  1  0
 14 26  1  0
M  ISO  8  15  13  16  13  17  13  18  13  19  13  20  13  21  13  22  13
M  ISO  4  23  14  24  14  25  14  26   3
M  END
>  <minimizedAffinity>  (1) 
-4.67979383

>  <minimizedRMSD>  (1) 
3.54774261

$$$$
