
     RDKit          3D

 38 41  0  0  1  0  0  0  0  0999 V2000
   43.9670   34.3960   40.5280 C   0  0  2  0  0  0  0  0  0  0  0  0
   42.4120   34.4550   40.5570 C   0  0  0  0  0  0  0  0  0  0  0  0
   42.1710   34.6660   39.0690 C   0  0  0  0  0  0  0  0  0  0  0  0
   43.1400   33.7500   38.4420 C   0  0  0  0  0  0  0  0  0  0  0  0
   44.1500   33.3650   39.5270 C   0  0  1  0  0  0  0  0  0  0  0  0
   45.4650   33.2260   38.9510 N   0  0  0  0  0  0  0  0  0  0  0  0
   46.6210   33.2450   39.6510 C   0  0  0  0  0  0  0  0  0  0  0  0
   47.6560   33.0950   38.8320 N   0  0  0  0  0  0  0  0  0  0  0  0
   47.1410   32.9780   37.5920 C   0  0  0  0  0  0  0  0  0  0  0  0
   47.8050   32.8070   36.4000 C   0  0  0  0  0  0  0  0  0  0  0  0
   49.0700   32.7350   36.3550 O   0  0  0  0  0  0  0  0  0  0  0  0
   47.0560   32.7190   35.2850 N   0  0  0  0  0  0  0  0  0  0  0  0
   45.6950   32.7970   35.3360 C   0  0  0  0  0  0  0  0  0  0  0  0
   45.0180   32.6930   34.0770 N   0  0  0  0  0  0  0  0  0  0  0  0
   45.0710   32.9660   36.5290 N   0  0  0  0  0  0  0  0  0  0  0  0
   45.7720   33.0590   37.6700 C   0  0  0  0  0  0  0  0  0  0  0  0
   45.2020   35.2760   42.4580 C   0  0  0  0  0  0  0  0  0  0  0  0
   44.5460   34.1770   41.8540 C   0  0  0  0  0  0  0  0  0  0  0  0
   44.4790   32.9360   42.5200 C   0  0  0  0  0  0  0  0  0  0  0  0
   45.0530   32.8220   43.7420 N   0  0  0  0  0  0  0  0  0  0  0  0
   45.6860   33.9000   44.3140 C   0  0  0  0  0  0  0  0  0  0  0  0
   45.7590   35.1140   43.6780 N   0  0  0  0  0  0  0  0  0  0  0  0
   46.2100   33.6010   45.5520 O   0  0  0  0  0  0  0  0  0  0  0  0
   44.5025   35.3203   40.2656 H   0  0  0  0  0  0  0  0  0  0  0  0
   41.9676   33.5168   40.9206 H   0  0  0  0  0  0  0  0  0  0  0  0
   41.9733   35.2104   41.2255 H   0  0  0  0  0  0  0  0  0  0  0  0
   41.1399   34.3992   38.7939 H   0  0  0  0  0  0  0  0  0  0  0  0
   42.2977   35.7123   38.7539 H   0  0  0  0  0  0  0  0  0  0  0  0
   42.6256   32.8526   38.0678 H   0  0  0  0  0  0  0  0  0  0  0  0
   43.6411   34.2293   37.5881 H   0  0  0  0  0  0  0  0  0  0  0  0
   44.0072   32.3821   39.9997 H   0  0  0  0  0  0  0  0  0  0  0  0
   46.6942   33.3671   40.7417 H   0  0  0  0  0  0  0  0  0  0  0  0
   47.5201   32.5901   34.3745 H   0  0  0  0  0  0  0  0  0  0  0  0
   43.9899   32.7435   34.0394 H   0  0  0  0  0  0  0  0  0  0  0  0
   45.5596   32.5678   33.2099 H   0  0  0  0  0  0  0  0  0  0  0  0
   45.2574   36.2462   41.9425 H   0  0  0  0  0  0  0  0  0  0  0  0
   43.9708   32.0775   42.0567 H   0  0  0  0  0  0  0  0  0  0  0  0
   46.6913   34.2962   46.0668 H   0  0  0  0  0  0  0  0  0  0  0  0
  1  2  1  0
  1 18  1  0
  3  2  1  0
  4  3  1  0
  4  5  1  0
  5  1  1  0
  6  5  1  0
  6  7  1  0
  8  7  2  0
  9 16  2  0
  9  8  1  0
 10  9  1  0
 11 10  2  0
 12 13  1  0
 12 10  1  0
 13 15  2  0
 14 13  1  0
 15 16  1  0
 16  6  1  0
 17 22  2  0
 18 17  1  0
 18 19  2  0
 19 20  1  0
 20 21  2  0
 21 23  1  0
 22 21  1  0
  1 24  1  6
  2 25  1  0
  2 26  1  0
  3 27  1  0
  3 28  1  0
  4 29  1  0
  4 30  1  0
  5 31  1  1
  7 32  1  0
 12 33  1  0
 14 34  1  0
 14 35  1  0
 17 36  1  0
 19 37  1  0
 23 38  1  0
M  ISO  8  24  13  25  13  26  13  27  13  28  13  29  13  30  13  31  13
M  ISO  5  32  14  33   9  36  14  37  14  38   3
M  END
>  <minimizedAffinity>  (1) 
-5.99758148

>  <minimizedRMSD>  (1) 
0.0754264817

$$$$
