
     RDKit          3D

 36 38  0  0  1  0  0  0  0  0999 V2000
   46.0650   34.9340   42.1420 C   0  0  2  0  0  0  0  0  0  0  0  0
   45.3670   35.9100   42.9740 C   0  0  0  0  0  0  0  0  0  0  0  0
   43.8620   35.7190   42.7680 C   0  0  0  0  0  0  0  0  0  0  0  0
   43.6950   34.5410   41.8540 C   0  0  2  0  0  0  0  0  0  0  0  0
   44.9870   34.4630   41.1290 C   0  0  0  0  0  0  0  0  0  0  0  0
   46.5630   33.7110   42.7940 C   0  0  0  0  0  0  0  0  0  0  0  0
   46.6570   33.6730   44.1960 C   0  0  0  0  0  0  0  0  0  0  0  0
   47.1100   32.5120   44.8220 C   0  0  0  0  0  0  0  0  0  0  0  0
   47.4400   31.4600   44.0050 N   0  0  0  0  0  0  0  0  0  0  0  0
   47.3400   31.5290   42.6570 C   0  0  0  0  0  0  0  0  0  0  0  0
   46.9000   32.6530   42.0520 N   0  0  0  0  0  0  0  0  0  0  0  0
   42.4890   34.5640   41.0150 C   0  0  0  0  0  0  0  0  0  0  0  0
   41.4490   35.4700   41.5910 C   0  0  0  0  0  0  0  0  0  0  0  0
   40.4220   35.4880   40.4570 C   0  0  0  0  0  0  0  0  0  0  0  0
   41.2010   35.2010   39.1950 C   0  0  0  0  0  0  0  0  0  0  0  0
   42.6600   35.1220   39.6400 C   0  0  0  0  0  0  0  0  0  0  0  0
   46.9639   35.4355   41.7541 H   0  0  0  0  0  0  0  0  0  0  0  0
   45.6222   35.7489   44.0318 H   0  0  0  0  0  0  0  0  0  0  0  0
   45.6638   36.9316   42.6943 H   0  0  0  0  0  0  0  0  0  0  0  0
   43.3698   35.5230   43.7320 H   0  0  0  0  0  0  0  0  0  0  0  0
   43.4054   36.6215   42.3357 H   0  0  0  0  0  0  0  0  0  0  0  0
   43.4951   33.6143   42.4119 H   0  0  0  0  0  0  0  0  0  0  0  0
   45.1860   33.4293   40.8097 H   0  0  0  0  0  0  0  0  0  0  0  0
   44.9822   35.0852   40.2219 H   0  0  0  0  0  0  0  0  0  0  0  0
   46.3755   34.5519   44.7946 H   0  0  0  0  0  0  0  0  0  0  0  0
   47.1984   32.4430   45.9163 H   0  0  0  0  0  0  0  0  0  0  0  0
   47.6208   30.6581   42.0465 H   0  0  0  0  0  0  0  0  0  0  0  0
   42.2240   33.4971   40.9753 H   0  0  0  0  0  0  0  0  0  0  0  0
   41.0218   35.0581   42.5172 H   0  0  0  0  0  0  0  0  0  0  0  0
   41.8219   36.4629   41.8826 H   0  0  0  0  0  0  0  0  0  0  0  0
   39.6573   34.7143   40.6199 H   0  0  0  0  0  0  0  0  0  0  0  0
   39.8976   36.4533   40.3996 H   0  0  0  0  0  0  0  0  0  0  0  0
   41.0634   36.0106   38.4632 H   0  0  0  0  0  0  0  0  0  0  0  0
   40.8676   34.2740   38.7056 H   0  0  0  0  0  0  0  0  0  0  0  0
   43.2458   34.4484   38.9972 H   0  0  0  0  0  0  0  0  0  0  0  0
   43.2079   36.0748   39.5943 H   0  0  0  0  0  0  0  0  0  0  0  0
  1  6  1  0
  1  2  1  0
  3  2  1  0
  4  3  1  0
  5  4  1  0
  5  1  1  0
  6  7  2  0
  7  8  1  0
  9  8  2  0
 10  9  1  0
 11 10  2  0
 11  6  1  0
 12 13  1  0
 12  4  1  0
 14 13  1  0
 15 16  1  0
 15 14  1  0
 16 12  1  0
  1 17  1  6
  2 18  1  0
  2 19  1  0
  3 20  1  0
  3 21  1  0
  4 22  1  1
  5 23  1  0
  5 24  1  0
  7 25  1  0
  8 26  1  0
 10 27  1  0
 12 28  1  0
 13 29  1  0
 13 30  1  0
 14 31  1  0
 14 32  1  0
 15 33  1  0
 15 34  1  0
 16 35  1  0
 16 36  1  0
M  ISO  8  17  13  18  13  19  13  20  13  21  13  22  13  23  13  24  13
M  ISO  8  25  14  26  14  27  14  28  13  29  13  30  13  31  13  32  13
M  ISO  4  33  13  34  13  35  13  36  13
M  END
>  <minimizedAffinity>  (1) 
-4.59538126

>  <minimizedRMSD>  (1) 
5.9084897

$$$$
