
     RDKit          3D

 40 43  0  0  1  0  0  0  0  0999 V2000
   44.0070   34.3950   40.5580 C   0  0  2  0  0  0  0  0  0  0  0  0
   42.4490   34.4960   40.5890 C   0  0  0  0  0  0  0  0  0  0  0  0
   42.2450   34.8640   39.1080 C   0  0  0  0  0  0  0  0  0  0  0  0
   43.1640   33.9250   38.4340 C   0  0  0  0  0  0  0  0  0  0  0  0
   44.1430   33.4190   39.4940 C   0  0  1  0  0  0  0  0  0  0  0  0
   45.4510   33.2520   38.9170 N   0  0  0  0  0  0  0  0  0  0  0  0
   46.6130   33.2630   39.5930 C   0  0  0  0  0  0  0  0  0  0  0  0
   47.6490   33.0880   38.7740 N   0  0  0  0  0  0  0  0  0  0  0  0
   47.1120   32.9640   37.5400 C   0  0  0  0  0  0  0  0  0  0  0  0
   47.7820   32.7720   36.3550 C   0  0  0  0  0  0  0  0  0  0  0  0
   49.0560   32.6820   36.3100 O   0  0  0  0  0  0  0  0  0  0  0  0
   47.0330   32.6840   35.2450 N   0  0  0  0  0  0  0  0  0  0  0  0
   45.6820   32.7790   35.2970 C   0  0  0  0  0  0  0  0  0  0  0  0
   45.0110   32.6840   34.0590 N   0  0  0  0  0  0  0  0  0  0  0  0
   45.0550   32.9700   36.4980 N   0  0  0  0  0  0  0  0  0  0  0  0
   45.7470   33.0650   37.6240 C   0  0  0  0  0  0  0  0  0  0  0  0
   45.2920   35.0870   42.5350 C   0  0  0  0  0  0  0  0  0  0  0  0
   44.5760   34.0860   41.8650 C   0  0  0  0  0  0  0  0  0  0  0  0
   44.4440   32.8190   42.4680 C   0  0  0  0  0  0  0  0  0  0  0  0
   45.0230   32.6280   43.6820 N   0  0  0  0  0  0  0  0  0  0  0  0
   45.7090   33.6160   44.3050 C   0  0  0  0  0  0  0  0  0  0  0  0
   45.8430   34.8360   43.7350 N   0  0  0  0  0  0  0  0  0  0  0  0
   46.3340   33.3720   45.6390 C   0  0  0  0  0  0  0  0  0  0  0  0
   44.5809   35.3111   40.3544 H   0  0  0  0  0  0  0  0  0  0  0  0
   41.9721   33.5406   40.8531 H   0  0  0  0  0  0  0  0  0  0  0  0
   42.0188   35.1878   41.3281 H   0  0  0  0  0  0  0  0  0  0  0  0
   41.2036   34.6998   38.7943 H   0  0  0  0  0  0  0  0  0  0  0  0
   42.4432   35.9218   38.8805 H   0  0  0  0  0  0  0  0  0  0  0  0
   42.5986   33.0825   38.0092 H   0  0  0  0  0  0  0  0  0  0  0  0
   43.6988   34.4218   37.6111 H   0  0  0  0  0  0  0  0  0  0  0  0
   43.9457   32.4163   39.9010 H   0  0  0  0  0  0  0  0  0  0  0  0
   46.6974   33.3989   40.6813 H   0  0  0  0  0  0  0  0  0  0  0  0
   47.4942   32.5414   34.3351 H   0  0  0  0  0  0  0  0  0  0  0  0
   43.9836   32.7478   34.0239 H   0  0  0  0  0  0  0  0  0  0  0  0
   45.5487   32.5508   33.1907 H   0  0  0  0  0  0  0  0  0  0  0  0
   45.4035   36.0811   42.0775 H   0  0  0  0  0  0  0  0  0  0  0  0
   43.8892   32.0096   41.9709 H   0  0  0  0  0  0  0  0  0  0  0  0
   45.6244   33.6490   46.4326 H   0  0  0  0  0  0  0  0  0  0  0  0
   46.5924   32.3070   45.7336 H   0  0  0  0  0  0  0  0  0  0  0  0
   47.2456   33.9803   45.7336 H   0  0  0  0  0  0  0  0  0  0  0  0
  1  2  1  0
  1 18  1  0
  3  2  1  0
  4  3  1  0
  4  5  1  0
  5  1  1  0
  6  5  1  0
  6  7  1  0
  8  7  2  0
  9 16  2  0
  9  8  1  0
 10  9  1  0
 11 10  2  0
 12 13  1  0
 12 10  1  0
 13 15  2  0
 14 13  1  0
 15 16  1  0
 16  6  1  0
 17 22  2  0
 18 19  2  0
 18 17  1  0
 19 20  1  0
 20 21  2  0
 21 23  1  0
 22 21  1  0
  1 24  1  6
  2 25  1  0
  2 26  1  0
  3 27  1  0
  3 28  1  0
  4 29  1  0
  4 30  1  0
  5 31  1  1
  7 32  1  0
 12 33  1  0
 14 34  1  0
 14 35  1  0
 17 36  1  0
 19 37  1  0
 23 38  1  0
 23 39  1  0
 23 40  1  0
M  ISO  8  24  13  25  13  26  13  27  13  28  13  29  13  30  13  31  13
M  ISO  7  32  14  33   9  36  14  37  14  38   8  39   8  40   8
M  END
>  <minimizedAffinity>  (1) 
-6.04615641

>  <minimizedRMSD>  (1) 
0.112351887

$$$$
