
     RDKit          3D

 39 42  0  0  1  0  0  0  0  0999 V2000
   43.9510   34.4400   40.6510 C   0  0  2  0  0  0  0  0  0  0  0  0
   42.3950   34.5400   40.6680 C   0  0  0  0  0  0  0  0  0  0  0  0
   42.1890   34.8840   39.1930 C   0  0  0  0  0  0  0  0  0  0  0  0
   43.1370   33.9760   38.5140 C   0  0  0  0  0  0  0  0  0  0  0  0
   44.1230   33.4770   39.5830 C   0  0  1  0  0  0  0  0  0  0  0  0
   45.4350   33.3340   39.0150 N   0  0  0  0  0  0  0  0  0  0  0  0
   46.5840   33.3840   39.7100 C   0  0  0  0  0  0  0  0  0  0  0  0
   47.6310   33.2230   38.9000 N   0  0  0  0  0  0  0  0  0  0  0  0
   47.1150   33.0680   37.6620 C   0  0  0  0  0  0  0  0  0  0  0  0
   47.7890   32.8710   36.4790 C   0  0  0  0  0  0  0  0  0  0  0  0
   49.0550   32.8090   36.4360 O   0  0  0  0  0  0  0  0  0  0  0  0
   47.0350   32.7470   35.3670 N   0  0  0  0  0  0  0  0  0  0  0  0
   45.6810   32.8110   35.4050 C   0  0  0  0  0  0  0  0  0  0  0  0
   45.0100   32.6690   34.1530 N   0  0  0  0  0  0  0  0  0  0  0  0
   45.0530   33.0070   36.5980 N   0  0  0  0  0  0  0  0  0  0  0  0
   45.7430   33.1370   37.7300 C   0  0  0  0  0  0  0  0  0  0  0  0
   45.1340   35.1720   42.6770 C   0  0  0  0  0  0  0  0  0  0  0  0
   44.5130   34.1280   41.9630 C   0  0  0  0  0  0  0  0  0  0  0  0
   44.4590   32.8330   42.5170 C   0  0  0  0  0  0  0  0  0  0  0  0
   45.0100   32.6190   43.7350 N   0  0  0  0  0  0  0  0  0  0  0  0
   45.6110   33.6500   44.4160 C   0  0  0  0  0  0  0  0  0  0  0  0
   45.6700   34.9160   43.8890 N   0  0  0  0  0  0  0  0  0  0  0  0
   46.2070   33.4340   45.7260 C   0  0  0  0  0  0  0  0  0  0  0  0
   45.5270   33.1610   46.7480 O   0  0  0  0  0  0  0  0  0  0  0  0
   44.5129   35.3654   40.4561 H   0  0  0  0  0  0  0  0  0  0  0  0
   41.9191   33.5876   40.9443 H   0  0  0  0  0  0  0  0  0  0  0  0
   41.9641   35.2457   41.3935 H   0  0  0  0  0  0  0  0  0  0  0  0
   41.1538   34.6837   38.8795 H   0  0  0  0  0  0  0  0  0  0  0  0
   42.3604   35.9461   38.9637 H   0  0  0  0  0  0  0  0  0  0  0  0
   42.5960   33.1260   38.0725 H   0  0  0  0  0  0  0  0  0  0  0  0
   43.6669   34.4962   37.7025 H   0  0  0  0  0  0  0  0  0  0  0  0
   43.9493   32.4674   39.9837 H   0  0  0  0  0  0  0  0  0  0  0  0
   46.6516   33.5367   40.7973 H   0  0  0  0  0  0  0  0  0  0  0  0
   47.5024   32.5991   34.4611 H   0  0  0  0  0  0  0  0  0  0  0  0
   43.9815   32.7081   34.1125 H   0  0  0  0  0  0  0  0  0  0  0  0
   45.5543   32.5274   33.2901 H   0  0  0  0  0  0  0  0  0  0  0  0
   45.1815   36.1851   42.2511 H   0  0  0  0  0  0  0  0  0  0  0  0
   43.9772   32.0100   41.9688 H   0  0  0  0  0  0  0  0  0  0  0  0
   47.2995   33.5130   45.8265 H   0  0  0  0  0  0  0  0  0  0  0  0
  1  2  1  0
  1 18  1  0
  3  2  1  0
  4  3  1  0
  4  5  1  0
  5  1  1  0
  6  5  1  0
  6  7  1  0
  8  7  2  0
  9 16  2  0
  9  8  1  0
 10  9  1  0
 11 10  2  0
 12 13  1  0
 12 10  1  0
 13 15  2  0
 14 13  1  0
 15 16  1  0
 16  6  1  0
 17 22  2  0
 18 19  2  0
 18 17  1  0
 19 20  1  0
 20 21  2  0
 21 23  1  0
 22 21  1  0
 23 24  2  0
  1 25  1  6
  2 26  1  0
  2 27  1  0
  3 28  1  0
  3 29  1  0
  4 30  1  0
  4 31  1  0
  5 32  1  1
  7 33  1  0
 12 34  1  0
 14 35  1  0
 14 36  1  0
 17 37  1  0
 19 38  1  0
 23 39  1  0
M  ISO  8  25  13  26  13  27  13  28  13  29  13  30  13  31  13  32  13
M  ISO  5  33  14  34   9  37  14  38  14  39   6
M  END
>  <minimizedAffinity>  (1) 
-6.01627111

>  <minimizedRMSD>  (1) 
0.251042604

$$$$
