
     RDKit          3D

 38 41  0  0  1  0  0  0  0  0999 V2000
   44.0010   34.4120   40.5360 C   0  0  2  0  0  0  0  0  0  0  0  0
   42.4570   34.5700   40.5540 C   0  0  0  0  0  0  0  0  0  0  0  0
   42.2490   34.8810   39.0770 C   0  0  0  0  0  0  0  0  0  0  0  0
   43.1650   33.9290   38.4130 C   0  0  0  0  0  0  0  0  0  0  0  0
   44.1270   33.4060   39.4940 C   0  0  1  0  0  0  0  0  0  0  0  0
   45.4510   33.2440   38.9220 N   0  0  0  0  0  0  0  0  0  0  0  0
   46.6040   33.2580   39.6180 C   0  0  0  0  0  0  0  0  0  0  0  0
   47.6470   33.0910   38.7990 N   0  0  0  0  0  0  0  0  0  0  0  0
   47.1300   32.9690   37.5580 C   0  0  0  0  0  0  0  0  0  0  0  0
   47.7960   32.7830   36.3680 C   0  0  0  0  0  0  0  0  0  0  0  0
   49.0530   32.7010   36.3290 O   0  0  0  0  0  0  0  0  0  0  0  0
   47.0410   32.6930   35.2590 N   0  0  0  0  0  0  0  0  0  0  0  0
   45.6780   32.7830   35.2980 C   0  0  0  0  0  0  0  0  0  0  0  0
   45.0090   32.6750   34.0470 N   0  0  0  0  0  0  0  0  0  0  0  0
   45.0560   32.9680   36.4950 N   0  0  0  0  0  0  0  0  0  0  0  0
   45.7450   33.0630   37.6230 C   0  0  0  0  0  0  0  0  0  0  0  0
   45.2680   35.1500   42.5160 C   0  0  0  0  0  0  0  0  0  0  0  0
   44.5560   34.1090   41.8570 C   0  0  0  0  0  0  0  0  0  0  0  0
   44.4100   32.8340   42.4550 C   0  0  0  0  0  0  0  0  0  0  0  0
   44.9750   32.6470   43.6750 N   0  0  0  0  0  0  0  0  0  0  0  0
   45.6600   33.6590   44.3040 C   0  0  0  0  0  0  0  0  0  0  0  0
   45.8050   34.8980   43.7280 N   0  0  0  0  0  0  0  0  0  0  0  0
   46.3120   33.1960   45.8820 S   0  0  0  0  0  0  0  0  0  0  0  0
   44.5969   35.3096   40.3143 H   0  0  0  0  0  0  0  0  0  0  0  0
   41.9484   33.6435   40.8588 H   0  0  0  0  0  0  0  0  0  0  0  0
   42.0595   35.3131   41.2609 H   0  0  0  0  0  0  0  0  0  0  0  0
   41.2058   34.7027   38.7771 H   0  0  0  0  0  0  0  0  0  0  0  0
   42.4491   35.9315   38.8194 H   0  0  0  0  0  0  0  0  0  0  0  0
   42.5941   33.0948   37.9791 H   0  0  0  0  0  0  0  0  0  0  0  0
   43.7178   34.4183   37.5975 H   0  0  0  0  0  0  0  0  0  0  0  0
   43.9100   32.4092   39.9055 H   0  0  0  0  0  0  0  0  0  0  0  0
   46.6771   33.3886   40.7078 H   0  0  0  0  0  0  0  0  0  0  0  0
   47.5051   32.5516   34.3504 H   0  0  0  0  0  0  0  0  0  0  0  0
   43.9815   32.7344   34.0056 H   0  0  0  0  0  0  0  0  0  0  0  0
   45.5521   32.5374   33.1827 H   0  0  0  0  0  0  0  0  0  0  0  0
   45.3783   36.1391   42.0474 H   0  0  0  0  0  0  0  0  0  0  0  0
   43.8599   32.0261   41.9504 H   0  0  0  0  0  0  0  0  0  0  0  0
   45.5409   33.7436   46.8732 H   0  0  0  0  0  0  0  0  0  0  0  0
  1  2  1  0
  1 18  1  0
  3  2  1  0
  4  3  1  0
  4  5  1  0
  5  1  1  0
  6  5  1  0
  6  7  1  0
  8  7  2  0
  9 16  2  0
  9  8  1  0
 10  9  1  0
 11 10  2  0
 12 13  1  0
 12 10  1  0
 13 15  2  0
 14 13  1  0
 15 16  1  0
 16  6  1  0
 17 22  2  0
 18 19  2  0
 18 17  1  0
 19 20  1  0
 20 21  2  0
 21 23  1  0
 22 21  1  0
  1 24  1  6
  2 25  1  0
  2 26  1  0
  3 27  1  0
  3 28  1  0
  4 29  1  0
  4 30  1  0
  5 31  1  1
  7 32  1  0
 12 33  1  0
 14 34  1  0
 14 35  1  0
 17 36  1  0
 19 37  1  0
 23 38  1  0
M  ISO  8  24  13  25  13  26  13  27  13  28  13  29  13  30  13  31  13
M  ISO  5  32  14  33   9  36  14  37  14  38  11
M  END
>  <minimizedAffinity>  (1) 
-6.04252243

>  <minimizedRMSD>  (1) 
0.0853180885

$$$$
