
     RDKit          3D

 49 52  0  0  1  0  0  0  0  0999 V2000
   44.1270   33.9600   41.0450 C   0  0  2  0  0  0  0  0  0  0  0  0
   42.5820   34.1160   41.1420 C   0  0  0  0  0  0  0  0  0  0  0  0
   42.3460   34.8320   39.8140 C   0  0  0  0  0  0  0  0  0  0  0  0
   43.2410   34.1050   38.8910 C   0  0  0  0  0  0  0  0  0  0  0  0
   44.2220   33.2990   39.7580 C   0  0  1  0  0  0  0  0  0  0  0  0
   45.5260   33.2840   39.1320 N   0  0  0  0  0  0  0  0  0  0  0  0
   46.6980   33.4360   39.7700 C   0  0  0  0  0  0  0  0  0  0  0  0
   47.7150   33.3800   38.9120 N   0  0  0  0  0  0  0  0  0  0  0  0
   47.1630   33.1870   37.6980 C   0  0  0  0  0  0  0  0  0  0  0  0
   47.7840   33.0640   36.4780 C   0  0  0  0  0  0  0  0  0  0  0  0
   49.0540   33.1250   36.3800 O   0  0  0  0  0  0  0  0  0  0  0  0
   47.0010   32.8790   35.3960 N   0  0  0  0  0  0  0  0  0  0  0  0
   45.6510   32.8160   35.5050 C   0  0  0  0  0  0  0  0  0  0  0  0
   44.9380   32.6230   34.2820 N   0  0  0  0  0  0  0  0  0  0  0  0
   45.0630   32.9400   36.7230 N   0  0  0  0  0  0  0  0  0  0  0  0
   45.7880   33.1250   37.8220 C   0  0  0  0  0  0  0  0  0  0  0  0
   45.4340   34.0810   43.1240 C   0  0  0  0  0  0  0  0  0  0  0  0
   44.7050   33.2970   42.2070 C   0  0  0  0  0  0  0  0  0  0  0  0
   44.5690   31.9120   42.4270 C   0  0  0  0  0  0  0  0  0  0  0  0
   45.1440   31.3630   43.5220 N   0  0  0  0  0  0  0  0  0  0  0  0
   45.8500   32.1440   44.4060 C   0  0  0  0  0  0  0  0  0  0  0  0
   45.9910   33.4940   44.2020 N   0  0  0  0  0  0  0  0  0  0  0  0
   46.4670   31.4900   45.6000 C   0  0  0  0  0  0  0  0  0  0  0  0
   47.6860   30.7040   45.1470 C   0  0  0  0  0  0  0  0  0  0  0  0
   46.8170   32.5740   46.5850 C   0  0  0  0  0  0  0  0  0  0  0  0
   45.4900   30.5160   46.2310 C   0  0  0  0  0  0  0  0  0  0  0  0
   44.7294   34.8798   41.0767 H   0  0  0  0  0  0  0  0  0  0  0  0
   42.0688   33.1441   41.1863 H   0  0  0  0  0  0  0  0  0  0  0  0
   42.2083   34.6334   42.0379 H   0  0  0  0  0  0  0  0  0  0  0  0
   41.2958   34.7464   39.4981 H   0  0  0  0  0  0  0  0  0  0  0  0
   42.5480   35.9124   39.8581 H   0  0  0  0  0  0  0  0  0  0  0  0
   43.7922   34.8175   38.2598 H   0  0  0  0  0  0  0  0  0  0  0  0
   42.6663   33.4414   38.2282 H   0  0  0  0  0  0  0  0  0  0  0  0
   44.0034   32.2277   39.8785 H   0  0  0  0  0  0  0  0  0  0  0  0
   46.8036   33.5864   40.8545 H   0  0  0  0  0  0  0  0  0  0  0  0
   47.4373   32.7836   34.4678 H   0  0  0  0  0  0  0  0  0  0  0  0
   43.9096   32.5655   34.2890 H   0  0  0  0  0  0  0  0  0  0  0  0
   45.4524   32.5413   33.3934 H   0  0  0  0  0  0  0  0  0  0  0  0
   45.5474   35.1630   42.9612 H   0  0  0  0  0  0  0  0  0  0  0  0
   44.0043   31.2868   41.7197 H   0  0  0  0  0  0  0  0  0  0  0  0
   48.2400   30.3468   46.0276 H   0  0  0  0  0  0  0  0  0  0  0  0
   47.3635   29.8433   44.5427 H   0  0  0  0  0  0  0  0  0  0  0  0
   48.3369   31.3529   44.5427 H   0  0  0  0  0  0  0  0  0  0  0  0
   46.6938   32.1924   47.6093 H   0  0  0  0  0  0  0  0  0  0  0  0
   47.8611   32.8847   46.4326 H   0  0  0  0  0  0  0  0  0  0  0  0
   46.1517   33.4367   46.4326 H   0  0  0  0  0  0  0  0  0  0  0  0
   45.5594   30.5851   47.3266 H   0  0  0  0  0  0  0  0  0  0  0  0
   44.4670   30.7644   45.9120 H   0  0  0  0  0  0  0  0  0  0  0  0
   45.7352   29.4922   45.9120 H   0  0  0  0  0  0  0  0  0  0  0  0
  1  2  1  0
  1 18  1  0
  3  2  1  0
  4  5  1  0
  4  3  1  0
  5  1  1  0
  6  5  1  0
  6  7  1  0
  8  7  2  0
  9 16  2  0
  9  8  1  0
 10  9  1  0
 11 10  2  0
 12 13  1  0
 12 10  1  0
 13 15  2  0
 14 13  1  0
 15 16  1  0
 16  6  1  0
 17 22  2  0
 18 19  2  0
 18 17  1  0
 19 20  1  0
 20 21  2  0
 21 23  1  0
 22 21  1  0
 23 26  1  0
 23 25  1  0
 24 23  1  0
  1 27  1  6
  2 28  1  0
  2 29  1  0
  3 30  1  0
  3 31  1  0
  4 32  1  0
  4 33  1  0
  5 34  1  1
  7 35  1  0
 12 36  1  0
 14 37  1  0
 14 38  1  0
 17 39  1  0
 19 40  1  0
 24 41  1  0
 24 42  1  0
 24 43  1  0
 25 44  1  0
 25 45  1  0
 25 46  1  0
 26 47  1  0
 26 48  1  0
 26 49  1  0
M  ISO  8  27  13  28  13  29  13  30  13  31  13  32  13  33  13  34  13
M  ISO  8  35  14  36   9  39  14  40  14  41   8  42   8  43   8  44   8
M  ISO  5  45   8  46   8  47   8  48   8  49   8
M  END
>  <minimizedAffinity>  (1) 
-5.67897749

>  <minimizedRMSD>  (1) 
1.22589552

$$$$
