
     RDKit          3D

 38 41  0  0  0  0  0  0  0  0999 V2000
   47.6570   34.7380   41.5310 C   0  0  0  0  0  0  0  0  0  0  0  0
   47.2960   34.2370   40.1750 C   0  0  0  0  0  0  0  0  0  0  0  0
   48.1980   34.1990   39.1380 C   0  0  0  0  0  0  0  0  0  0  0  0
   47.9420   33.7510   37.8600 C   0  0  0  0  0  0  0  0  0  0  0  0
   46.6580   33.3130   37.6500 N   0  0  0  0  0  0  0  0  0  0  0  0
   45.7610   33.3440   38.6610 C   0  0  0  0  0  0  0  0  0  0  0  0
   46.0300   33.7870   39.9100 N   0  0  0  0  0  0  0  0  0  0  0  0
   44.4070   32.8590   38.3670 C   0  0  0  0  0  0  0  0  0  0  0  0
   43.2960   33.5660   38.7910 C   0  0  0  0  0  0  0  0  0  0  0  0
   42.0330   33.1080   38.5130 C   0  0  0  0  0  0  0  0  0  0  0  0
   41.8650   31.9800   37.8320 N   0  0  0  0  0  0  0  0  0  0  0  0
   42.9630   31.2960   37.4220 C   0  0  0  0  0  0  0  0  0  0  0  0
   44.2290   31.7270   37.6830 N   0  0  0  0  0  0  0  0  0  0  0  0
   47.3960   33.6440   42.5200 C   0  0  0  0  0  0  0  0  0  0  0  0
   44.7810   35.4200   44.5860 C   0  0  0  0  0  0  0  0  0  0  0  0
   45.6140   35.0580   43.5190 C   0  0  0  0  0  0  0  0  0  0  0  0
   46.5160   34.0330   43.6350 C   0  0  0  0  0  0  0  0  0  0  0  0
   46.5820   33.3750   44.8120 N   0  0  0  0  0  0  0  0  0  0  0  0
   45.7600   33.7400   45.8530 C   0  0  0  0  0  0  0  0  0  0  0  0
   44.8880   34.7350   45.7310 N   0  0  0  0  0  0  0  0  0  0  0  0
   45.9330   32.9650   47.0340 N   0  0  0  0  0  0  0  0  0  0  0  0
   45.1650   32.4650   48.0190 C   0  0  0  0  0  0  0  0  0  0  0  0
   45.9360   31.7900   48.8930 N   0  0  0  0  0  0  0  0  0  0  0  0
   47.2020   31.8740   48.4420 C   0  0  0  0  0  0  0  0  0  0  0  0
   47.1770   32.6010   47.2980 N   0  0  0  0  0  0  0  0  0  0  0  0
   47.0440   35.6173   41.7783 H   0  0  0  0  0  0  0  0  0  0  0  0
   48.7174   35.0291   41.5582 H   0  0  0  0  0  0  0  0  0  0  0  0
   49.2162   34.5588   39.3473 H   0  0  0  0  0  0  0  0  0  0  0  0
   48.7071   33.7449   37.0697 H   0  0  0  0  0  0  0  0  0  0  0  0
   43.4261   34.5015   39.3548 H   0  0  0  0  0  0  0  0  0  0  0  0
   41.1561   33.6771   38.8554 H   0  0  0  0  0  0  0  0  0  0  0  0
   42.8262   30.3608   36.8592 H   0  0  0  0  0  0  0  0  0  0  0  0
   46.9270   32.8032   41.9880 H   0  0  0  0  0  0  0  0  0  0  0  0
   48.3680   33.3806   42.9626 H   0  0  0  0  0  0  0  0  0  0  0  0
   44.0593   36.2441   44.4855 H   0  0  0  0  0  0  0  0  0  0  0  0
   45.5424   35.6078   42.5690 H   0  0  0  0  0  0  0  0  0  0  0  0
   44.0748   32.5885   48.0983 H   0  0  0  0  0  0  0  0  0  0  0  0
   48.0924   31.4338   48.9147 H   0  0  0  0  0  0  0  0  0  0  0  0
  1 14  1  0
  2  1  1  0
  3  2  2  0
  4  3  1  0
  5  4  2  0
  5  6  1  0
  6  7  2  0
  7  2  1  0
  8  6  1  0
  8  9  2  0
 10  9  1  0
 11 10  2  0
 12 13  2  0
 12 11  1  0
 13  8  1  0
 14 17  1  0
 15 20  2  0
 16 17  2  0
 16 15  1  0
 17 18  1  0
 18 19  2  0
 19 21  1  0
 20 19  1  0
 21 25  1  0
 21 22  1  0
 22 23  2  0
 24 23  1  0
 25 24  2  0
  1 26  1  0
  1 27  1  0
  3 28  1  0
  4 29  1  0
  9 30  1  0
 10 31  1  0
 12 32  1  0
 14 33  1  0
 14 34  1  0
 15 35  1  0
 16 36  1  0
 22 37  1  0
 24 38  1  0
M  ISO  8  26   8  27   8  28  14  29  14  30  14  31  14  32  14  33   8
M  ISO  5  34   8  35  14  36  14  37  14  38  14
M  END
>  <minimizedAffinity>  (1) 
-6.0040288

>  <minimizedRMSD>  (1) 
0.630073369

$$$$
