
     RDKit          3D

 45 47  0  0  1  0  0  0  0  0999 V2000
   46.0620   35.2620   42.7750 C   0  0  2  0  0  0  0  0  0  0  0  0
   44.9710   36.1950   42.9030 C   0  0  0  0  0  0  0  0  0  0  0  0
   43.8060   35.6820   42.0240 C   0  0  0  0  0  0  0  0  0  0  0  0
   44.2690   34.4210   41.4040 C   0  0  2  0  0  0  0  0  0  0  0  0
   45.7550   34.4770   41.4490 C   0  0  0  0  0  0  0  0  0  0  0  0
   46.2700   34.2290   43.7770 C   0  0  0  0  0  0  0  0  0  0  0  0
   45.5750   34.3110   44.9860 C   0  0  0  0  0  0  0  0  0  0  0  0
   45.7340   33.3320   45.9850 C   0  0  0  0  0  0  0  0  0  0  0  0
   46.6090   32.3260   45.6590 N   0  0  0  0  0  0  0  0  0  0  0  0
   47.2690   32.2620   44.4910 C   0  0  0  0  0  0  0  0  0  0  0  0
   47.0960   33.2140   43.5530 N   0  0  0  0  0  0  0  0  0  0  0  0
   43.6850   34.1020   40.0730 C   0  0  1  0  0  0  0  0  0  0  0  0
   43.0600   32.7320   40.0990 C   0  0  0  0  0  0  0  0  0  0  0  0
   42.6040   35.1140   39.8120 C   0  0  0  0  0  0  0  0  0  0  0  0
   41.2240   34.5420   39.6310 C   0  0  0  0  0  0  0  0  0  0  0  0
   40.7060   35.0070   38.2440 C   0  0  0  0  0  0  0  0  0  0  0  0
   39.3280   34.3810   38.2870 C   0  0  0  0  0  0  0  0  0  0  0  0
   38.8830   34.6130   39.7230 C   0  0  0  0  0  0  0  0  0  0  0  0
   40.1410   35.1080   40.4710 C   0  0  0  0  0  0  0  0  0  0  0  0
   46.9632   35.8885   42.8485 H   0  0  0  0  0  0  0  0  0  0  0  0
   44.6498   36.2536   43.9534 H   0  0  0  0  0  0  0  0  0  0  0  0
   45.2835   37.1990   42.5799 H   0  0  0  0  0  0  0  0  0  0  0  0
   42.9162   35.4962   42.6435 H   0  0  0  0  0  0  0  0  0  0  0  0
   43.5298   36.4226   41.2590 H   0  0  0  0  0  0  0  0  0  0  0  0
   43.8939   33.5575   41.9729 H   0  0  0  0  0  0  0  0  0  0  0  0
   46.1841   33.4648   41.4848 H   0  0  0  0  0  0  0  0  0  0  0  0
   46.1891   34.9583   40.5602 H   0  0  0  0  0  0  0  0  0  0  0  0
   44.8917   35.1552   45.1604 H   0  0  0  0  0  0  0  0  0  0  0  0
   45.2014   33.3701   46.9467 H   0  0  0  0  0  0  0  0  0  0  0  0
   47.9567   31.4253   44.2984 H   0  0  0  0  0  0  0  0  0  0  0  0
   44.4644   34.1254   39.2971 H   0  0  0  0  0  0  0  0  0  0  0  0
   42.9153   32.4148   41.1423 H   0  0  0  0  0  0  0  0  0  0  0  0
   42.0870   32.7631   39.5869 H   0  0  0  0  0  0  0  0  0  0  0  0
   43.7212   32.0175   39.5869 H   0  0  0  0  0  0  0  0  0  0  0  0
   42.5755   35.8095   40.6638 H   0  0  0  0  0  0  0  0  0  0  0  0
   42.8620   35.5987   38.8589 H   0  0  0  0  0  0  0  0  0  0  0  0
   41.3722   33.4722   39.8396 H   0  0  0  0  0  0  0  0  0  0  0  0
   41.3156   34.6072   37.4203 H   0  0  0  0  0  0  0  0  0  0  0  0
   40.7283   36.0928   38.0692 H   0  0  0  0  0  0  0  0  0  0  0  0
   38.6478   34.8766   37.5787 H   0  0  0  0  0  0  0  0  0  0  0  0
   39.3289   33.3183   38.0029 H   0  0  0  0  0  0  0  0  0  0  0  0
   38.0891   35.3734   39.7612 H   0  0  0  0  0  0  0  0  0  0  0  0
   38.4730   33.6981   40.1757 H   0  0  0  0  0  0  0  0  0  0  0  0
   40.1800   34.7135   41.4971 H   0  0  0  0  0  0  0  0  0  0  0  0
   40.1908   36.2002   40.5923 H   0  0  0  0  0  0  0  0  0  0  0  0
  1  2  1  0
  1  6  1  0
  3  2  1  0
  4  5  1  0
  4  3  1  0
  5  1  1  0
  6  7  2  0
  7  8  1  0
  9  8  2  0
 10  9  1  0
 11  6  1  0
 11 10  2  0
 12 13  1  0
 12  4  1  0
 14 12  1  0
 15 14  1  0
 15 19  1  0
 16 17  1  0
 16 15  1  0
 17 18  1  0
 18 19  1  0
  1 20  1  6
  2 21  1  0
  2 22  1  0
  3 23  1  0
  3 24  1  0
  4 25  1  1
  5 26  1  0
  5 27  1  0
  7 28  1  0
  8 29  1  0
 10 30  1  0
 12 31  1  6
 13 32  1  0
 13 33  1  0
 13 34  1  0
 14 35  1  0
 14 36  1  0
 15 37  1  0
 16 38  1  0
 16 39  1  0
 17 40  1  0
 17 41  1  0
 18 42  1  0
 18 43  1  0
 19 44  1  0
 19 45  1  0
M  ISO  8  20  13  21  13  22  13  23  13  24  13  25  13  26  13  27  13
M  ISO  8  28  14  29  14  30  14  31   8  32   8  33   8  34   8  35   8
M  ISO  8  36   8  37  13  38  13  39  13  40  13  41  13  42  13  43  13
M  ISO  2  44  13  45  13
M  END
>  <minimizedAffinity>  (1) 
-5.71680784

>  <minimizedRMSD>  (1) 
1.13462877

$$$$
