
     RDKit          3D

 42 44  0  0  1  0  0  0  0  0999 V2000
   46.0660   35.0620   42.7920 C   0  0  2  0  0  0  0  0  0  0  0  0
   45.1850   36.1520   43.1280 C   0  0  0  0  0  0  0  0  0  0  0  0
   43.7710   35.7980   42.6090 C   0  0  0  0  0  0  0  0  0  0  0  0
   43.8730   34.4400   42.0040 C   0  0  2  0  0  0  0  0  0  0  0  0
   45.2980   34.2790   41.6680 C   0  0  0  0  0  0  0  0  0  0  0  0
   46.4050   34.0440   43.7870 C   0  0  0  0  0  0  0  0  0  0  0  0
   45.8400   34.1690   45.0800 C   0  0  0  0  0  0  0  0  0  0  0  0
   46.1140   33.2080   46.0430 C   0  0  0  0  0  0  0  0  0  0  0  0
   46.9360   32.1840   45.6500 N   0  0  0  0  0  0  0  0  0  0  0  0
   47.4630   32.0800   44.4220 C   0  0  0  0  0  0  0  0  0  0  0  0
   47.1930   33.0190   43.4910 N   0  0  0  0  0  0  0  0  0  0  0  0
   42.8940   34.1450   40.9390 C   0  0  1  0  0  0  0  0  0  0  0  0
   42.4720   32.6930   40.9860 C   0  0  0  0  0  0  0  0  0  0  0  0
   41.6490   34.9540   41.2370 C   0  0  0  0  0  0  0  0  0  0  0  0
   40.7460   34.7550   40.0260 C   0  0  0  0  0  0  0  0  0  0  0  0
   41.1010   35.0640   38.7280 C   0  0  0  0  0  0  0  0  0  0  0  0
   40.2010   34.8410   37.7120 C   0  0  0  0  0  0  0  0  0  0  0  0
   38.9530   34.3200   37.9500 C   0  0  0  0  0  0  0  0  0  0  0  0
   38.5510   33.9950   39.2280 C   0  0  0  0  0  0  0  0  0  0  0  0
   39.4750   34.2290   40.2250 C   0  0  0  0  0  0  0  0  0  0  0  0
   47.0286   35.5473   42.5733 H   0  0  0  0  0  0  0  0  0  0  0  0
   45.1592   36.2889   44.2191 H   0  0  0  0  0  0  0  0  0  0  0  0
   45.5391   37.0865   42.6683 H   0  0  0  0  0  0  0  0  0  0  0  0
   43.0511   35.7909   43.4407 H   0  0  0  0  0  0  0  0  0  0  0  0
   43.4194   36.5368   41.8738 H   0  0  0  0  0  0  0  0  0  0  0  0
   43.5658   33.6559   42.7117 H   0  0  0  0  0  0  0  0  0  0  0  0
   45.5800   33.2158   41.6746 H   0  0  0  0  0  0  0  0  0  0  0  0
   45.5331   34.6586   40.6627 H   0  0  0  0  0  0  0  0  0  0  0  0
   45.1883   35.0223   45.3192 H   0  0  0  0  0  0  0  0  0  0  0  0
   45.6971   33.2646   47.0593 H   0  0  0  0  0  0  0  0  0  0  0  0
   48.1152   31.2298   44.1732 H   0  0  0  0  0  0  0  0  0  0  0  0
   43.3445   34.3772   39.9627 H   0  0  0  0  0  0  0  0  0  0  0  0
   42.3787   32.3720   42.0340 H   0  0  0  0  0  0  0  0  0  0  0  0
   41.5028   32.5763   40.4791 H   0  0  0  0  0  0  0  0  0  0  0  0
   43.2277   32.0749   40.4791 H   0  0  0  0  0  0  0  0  0  0  0  0
   41.1580   34.5849   42.1495 H   0  0  0  0  0  0  0  0  0  0  0  0
   41.8792   36.0158   41.4090 H   0  0  0  0  0  0  0  0  0  0  0  0
   42.0936   35.4843   38.5086 H   0  0  0  0  0  0  0  0  0  0  0  0
   40.4892   35.0870   36.6793 H   0  0  0  0  0  0  0  0  0  0  0  0
   38.2635   34.1595   37.1081 H   0  0  0  0  0  0  0  0  0  0  0  0
   37.5563   33.5756   39.4393 H   0  0  0  0  0  0  0  0  0  0  0  0
   39.1838   33.9804   41.2562 H   0  0  0  0  0  0  0  0  0  0  0  0
  1  2  1  0
  1  6  1  0
  3  2  1  0
  4  3  1  0
  5  4  1  0
  5  1  1  0
  6  7  2  0
  7  8  1  0
  9  8  2  0
 10  9  1  0
 11  6  1  0
 11 10  2  0
 12 13  1  0
 12 14  1  0
 12  4  1  0
 15 20  1  0
 15 14  1  0
 16 15  2  0
 17 18  2  0
 17 16  1  0
 18 19  1  0
 19 20  2  0
  1 21  1  6
  2 22  1  0
  2 23  1  0
  3 24  1  0
  3 25  1  0
  4 26  1  1
  5 27  1  0
  5 28  1  0
  7 29  1  0
  8 30  1  0
 10 31  1  0
 12 32  1  6
 13 33  1  0
 13 34  1  0
 13 35  1  0
 14 36  1  0
 14 37  1  0
 16 38  1  0
 17 39  1  0
 18 40  1  0
 19 41  1  0
 20 42  1  0
M  ISO  8  21  13  22  13  23  13  24  13  25  13  26  13  27  13  28  13
M  ISO  8  29  14  30  14  31  14  32   8  33   8  34   8  35   8  36   8
M  ISO  6  37   8  38  14  39  14  40  14  41  14  42  14
M  END
>  <minimizedAffinity>  (1) 
-5.78874254

>  <minimizedRMSD>  (1) 
1.61578536

$$$$
