
     RDKit          3D

 27 29  0  0  1  0  0  0  0  0999 V2000
   47.2000   34.5780   41.9590 C   0  0  1  0  0  0  0  0  0  0  0  0
   48.3480   35.4940   41.7040 C   0  0  0  0  0  0  0  0  0  0  0  0
   48.5320   34.0650   42.2120 C   0  0  2  0  0  0  0  0  0  0  0  0
   45.4740   35.9720   43.1080 C   0  0  0  0  0  0  0  0  0  0  0  0
   46.3040   34.8490   43.1140 C   0  0  0  0  0  0  0  0  0  0  0  0
   46.2430   33.9850   44.2210 C   0  0  0  0  0  0  0  0  0  0  0  0
   45.3770   34.2800   45.2340 N   0  0  0  0  0  0  0  0  0  0  0  0
   44.5840   35.3790   45.1970 C   0  0  0  0  0  0  0  0  0  0  0  0
   44.6320   36.2280   44.1310 N   0  0  0  0  0  0  0  0  0  0  0  0
   49.2320   33.1810   41.3080 N   0  0  0  0  0  0  0  0  0  0  0  0
   48.6610   32.6410   40.2320 C   0  0  0  0  0  0  0  0  0  0  0  0
   49.3470   31.7990   39.3810 C   0  0  0  0  0  0  0  0  0  0  0  0
   50.6640   31.4970   39.6380 C   0  0  0  0  0  0  0  0  0  0  0  0
   51.4280   30.7390   38.9500 O   0  0  0  0  0  0  0  0  0  0  0  0
   51.2210   32.0550   40.7330 N   0  0  0  0  0  0  0  0  0  0  0  0
   50.5250   32.8610   41.5270 C   0  0  0  0  0  0  0  0  0  0  0  0
   51.0820   33.3560   42.5330 O   0  0  0  0  0  0  0  0  0  0  0  0
   46.3519   34.2322   41.3498 H   0  0  0  0  0  0  0  0  0  0  0  0
   48.6305   35.7600   40.6747 H   0  0  0  0  0  0  0  0  0  0  0  0
   48.6497   36.4984   42.0358 H   0  0  0  0  0  0  0  0  0  0  0  0
   48.9584   33.5444   43.0822 H   0  0  0  0  0  0  0  0  0  0  0  0
   45.5072   36.6620   42.2519 H   0  0  0  0  0  0  0  0  0  0  0  0
   46.8800   33.0896   44.2700 H   0  0  0  0  0  0  0  0  0  0  0  0
   43.8981   35.5870   46.0315 H   0  0  0  0  0  0  0  0  0  0  0  0
   47.6081   32.8741   40.0150 H   0  0  0  0  0  0  0  0  0  0  0  0
   48.8432   31.3715   38.5016 H   0  0  0  0  0  0  0  0  0  0  0  0
   52.2055   31.8519   40.9577 H   0  0  0  0  0  0  0  0  0  0  0  0
  1  3  1  0
  1  5  1  0
  2  1  1  0
  2  3  1  0
  4  5  2  0
  4  9  1  0
  5  6  1  0
  6  7  2  0
  8  7  1  0
  9  8  2  0
 10 16  1  0
 10  3  1  0
 11 10  1  0
 12 13  1  0
 12 11  2  0
 13 15  1  0
 14 13  2  0
 15 16  1  0
 16 17  2  0
  1 18  1  6
  2 19  1  0
  2 20  1  0
  3 21  1  1
  4 22  1  0
  6 23  1  0
  8 24  1  0
 11 25  1  0
 12 26  1  0
 15 27  1  0
M  ISO  8  18  13  19  13  20  13  21  13  22  14  23  14  24  14  25  14
M  ISO  2  26  14  27   9
M  END
>  <minimizedAffinity>  (1) 
-5.12048149

>  <minimizedRMSD>  (1) 
1.20241296

$$$$
