
     RDKit          3D

 24 26  0  0  1  0  0  0  0  0999 V2000
   47.4150   34.4320   42.1220 C   0  0  1  0  0  0  0  0  0  0  0  0
   48.4010   35.4770   41.7250 C   0  0  0  0  0  0  0  0  0  0  0  0
   48.7950   34.2350   42.5210 C   0  0  2  0  0  0  0  0  0  0  0  0
   45.5970   35.9090   43.0330 C   0  0  0  0  0  0  0  0  0  0  0  0
   46.4100   34.7640   43.1970 C   0  0  0  0  0  0  0  0  0  0  0  0
   46.2410   33.9570   44.3600 C   0  0  0  0  0  0  0  0  0  0  0  0
   45.2990   34.3400   45.2500 N   0  0  0  0  0  0  0  0  0  0  0  0
   44.5400   35.4430   45.0570 C   0  0  0  0  0  0  0  0  0  0  0  0
   44.6900   36.2250   43.9490 N   0  0  0  0  0  0  0  0  0  0  0  0
   49.7000   33.3020   41.7810 C   0  0  0  0  0  0  0  0  0  0  0  0
   50.9780   32.8990   42.1180 C   0  0  0  0  0  0  0  0  0  0  0  0
   51.3700   32.0410   41.1120 C   0  0  0  0  0  0  0  0  0  0  0  0
   50.3760   31.9290   40.2090 N   0  0  0  0  0  0  0  0  0  0  0  0
   49.3710   32.6970   40.6250 N   0  0  0  0  0  0  0  0  0  0  0  0
   46.6846   33.8263   41.5656 H   0  0  0  0  0  0  0  0  0  0  0  0
   48.7057   35.5845   40.6735 H   0  0  0  0  0  0  0  0  0  0  0  0
   48.4981   36.5651   41.8542 H   0  0  0  0  0  0  0  0  0  0  0  0
   49.2498   33.9902   43.4922 H   0  0  0  0  0  0  0  0  0  0  0  0
   45.7169   36.5416   42.1411 H   0  0  0  0  0  0  0  0  0  0  0  0
   46.8531   33.0583   44.5263 H   0  0  0  0  0  0  0  0  0  0  0  0
   43.7855   35.7154   45.8097 H   0  0  0  0  0  0  0  0  0  0  0  0
   51.5598   33.1991   43.0020 H   0  0  0  0  0  0  0  0  0  0  0  0
   52.3416   31.5284   41.0555 H   0  0  0  0  0  0  0  0  0  0  0  0
   50.3909   31.3548   39.3540 H   0  0  0  0  0  0  0  0  0  0  0  0
  1  3  1  0
  1  5  1  0
  2  1  1  0
  2  3  1  0
  4  5  2  0
  4  9  1  0
  5  6  1  0
  6  7  2  0
  8  7  1  0
  9  8  2  0
 10 11  1  0
 10  3  1  0
 12 11  2  0
 13 14  1  0
 13 12  1  0
 14 10  2  0
  1 15  1  6
  2 16  1  0
  2 17  1  0
  3 18  1  1
  4 19  1  0
  6 20  1  0
  8 21  1  0
 11 22  1  0
 12 23  1  0
 13 24  1  0
M  ISO  8  15  13  16  13  17  13  18  13  19  14  20  14  21  14  22  14
M  ISO  2  23  14  24   9
M  END
>  <minimizedAffinity>  (1) 
-4.78080988

>  <minimizedRMSD>  (1) 
1.37507403

$$$$
