
     RDKit          3D

 25 27  0  0  1  0  0  0  0  0999 V2000
   46.7300   35.2180   41.8010 C   0  0  1  0  0  0  0  0  0  0  0  0
   48.2150   35.3320   41.7440 C   0  0  0  0  0  0  0  0  0  0  0  0
   47.4630   34.1090   41.2250 C   0  0  2  0  0  0  0  0  0  0  0  0
   46.4890   33.9720   43.9600 C   0  0  0  0  0  0  0  0  0  0  0  0
   46.0760   35.0350   43.1460 C   0  0  0  0  0  0  0  0  0  0  0  0
   45.0720   35.9240   43.6140 C   0  0  0  0  0  0  0  0  0  0  0  0
   44.5590   35.6850   44.8550 N   0  0  0  0  0  0  0  0  0  0  0  0
   44.9800   34.6480   45.6180 C   0  0  0  0  0  0  0  0  0  0  0  0
   45.9440   33.7950   45.1660 N   0  0  0  0  0  0  0  0  0  0  0  0
   47.3690   33.9330   39.7520 C   0  0  0  0  0  0  0  0  0  0  0  0
   46.3020   33.2010   39.2400 C   0  0  0  0  0  0  0  0  0  0  0  0
   46.2570   33.0640   37.8580 C   0  0  0  0  0  0  0  0  0  0  0  0
   47.1990   33.6110   37.0470 N   0  0  0  0  0  0  0  0  0  0  0  0
   48.2190   34.3130   37.5910 C   0  0  0  0  0  0  0  0  0  0  0  0
   48.2980   34.4710   38.9410 N   0  0  0  0  0  0  0  0  0  0  0  0
   45.9005   35.8473   41.4462 H   0  0  0  0  0  0  0  0  0  0  0  0
   48.6936   36.0310   41.0423 H   0  0  0  0  0  0  0  0  0  0  0  0
   49.0242   35.5180   42.4655 H   0  0  0  0  0  0  0  0  0  0  0  0
   47.5202   33.0269   41.4143 H   0  0  0  0  0  0  0  0  0  0  0  0
   47.2661   33.2798   43.6037 H   0  0  0  0  0  0  0  0  0  0  0  0
   44.7232   36.7688   43.0020 H   0  0  0  0  0  0  0  0  0  0  0  0
   44.5394   34.4918   46.6137 H   0  0  0  0  0  0  0  0  0  0  0  0
   45.5369   32.7557   39.8929 H   0  0  0  0  0  0  0  0  0  0  0  0
   45.4317   32.4941   37.4062 H   0  0  0  0  0  0  0  0  0  0  0  0
   48.9869   34.7576   36.9409 H   0  0  0  0  0  0  0  0  0  0  0  0
  1  5  1  0
  2  1  1  0
  3  2  1  0
  3  1  1  0
  4  9  2  0
  5  6  2  0
  5  4  1  0
  6  7  1  0
  7  8  2  0
  9  8  1  0
 10  3  1  0
 11 10  2  0
 12 11  1  0
 13 14  1  0
 13 12  2  0
 14 15  2  0
 15 10  1  0
  1 16  1  6
  2 17  1  0
  2 18  1  0
  3 19  1  1
  4 20  1  0
  6 21  1  0
  8 22  1  0
 11 23  1  0
 12 24  1  0
 14 25  1  0
M  ISO  8  16  13  17  13  18  13  19  13  20  14  21  14  22  14  23  14
M  ISO  2  24  14  25  14
M  END
>  <minimizedAffinity>  (1) 
-4.80084324

>  <minimizedRMSD>  (1) 
2.37173653

$$$$
