
     RDKit          3D

 43 48  0  0  1  0  0  0  0  0999 V2000
   45.9000   33.9640   43.9750 N   0  0  0  0  0  0  0  0  0  0  0  0
   45.0870   34.8710   44.5750 C   0  0  0  0  0  0  0  0  0  0  0  0
   44.9210   34.5820   45.8860 N   0  0  0  0  0  0  0  0  0  0  0  0
   45.6120   33.4990   46.1620 C   0  0  0  0  0  0  0  0  0  0  0  0
   45.8220   32.7570   47.3200 C   0  0  0  0  0  0  0  0  0  0  0  0
   46.6060   31.6740   47.2990 N   0  0  0  0  0  0  0  0  0  0  0  0
   47.2050   31.2850   46.1630 C   0  0  0  0  0  0  0  0  0  0  0  0
   47.0030   32.0010   45.0370 N   0  0  0  0  0  0  0  0  0  0  0  0
   46.2150   33.1130   45.0000 C   0  0  0  0  0  0  0  0  0  0  0  0
   48.0310   30.1260   46.1850 N   0  0  0  0  0  0  0  0  0  0  0  0
   48.0830   29.3030   45.1150 C   0  0  0  0  0  0  0  0  0  0  0  0
   48.9370   28.3020   45.4170 N   0  0  0  0  0  0  0  0  0  0  0  0
   49.4090   28.4950   46.6480 C   0  0  0  0  0  0  0  0  0  0  0  0
   50.2800   27.8590   47.5090 C   0  0  0  0  0  0  0  0  0  0  0  0
   50.5580   28.3390   48.7570 N   0  0  0  0  0  0  0  0  0  0  0  0
   49.9600   29.4890   49.1860 C   0  0  0  0  0  0  0  0  0  0  0  0
   49.1030   30.1390   48.3770 N   0  0  0  0  0  0  0  0  0  0  0  0
   48.8490   29.6470   47.1620 C   0  0  0  0  0  0  0  0  0  0  0  0
   45.7670   34.0440   41.3900 C   0  0  1  0  0  0  0  0  0  0  0  0
   46.5740   35.1450   41.9530 C   0  0  0  0  0  0  0  0  0  0  0  0
   46.4080   33.7960   42.6620 C   0  0  1  0  0  0  0  0  0  0  0  0
   43.6600   35.4220   41.1700 C   0  0  0  0  0  0  0  0  0  0  0  0
   44.3110   34.1690   41.2310 C   0  0  0  0  0  0  0  0  0  0  0  0
   43.5180   33.0420   41.1280 C   0  0  0  0  0  0  0  0  0  0  0  0
   42.1740   33.1830   40.9760 N   0  0  0  0  0  0  0  0  0  0  0  0
   41.5780   34.3930   40.9210 C   0  0  0  0  0  0  0  0  0  0  0  0
   42.3280   35.5170   41.0190 N   0  0  0  0  0  0  0  0  0  0  0  0
   45.2070   33.1450   48.5480 N   0  0  0  0  0  0  0  0  0  0  0  0
   50.9120   26.6600   47.0770 N   0  0  0  0  0  0  0  0  0  0  0  0
   44.6245   35.7275   44.0627 H   0  0  0  0  0  0  0  0  0  0  0  0
   47.5311   29.4259   44.1714 H   0  0  0  0  0  0  0  0  0  0  0  0
   50.1779   29.8830   50.1896 H   0  0  0  0  0  0  0  0  0  0  0  0
   45.7675   33.4980   40.4350 H   0  0  0  0  0  0  0  0  0  0  0  0
   47.5365   35.4199   41.4969 H   0  0  0  0  0  0  0  0  0  0  0  0
   46.4049   36.2013   42.2090 H   0  0  0  0  0  0  0  0  0  0  0  0
   46.9442   32.8911   42.9839 H   0  0  0  0  0  0  0  0  0  0  0  0
   44.2582   36.3418   41.2480 H   0  0  0  0  0  0  0  0  0  0  0  0
   43.9698   32.0399   41.1686 H   0  0  0  0  0  0  0  0  0  0  0  0
   40.4874   34.4661   40.7971 H   0  0  0  0  0  0  0  0  0  0  0  0
   45.3668   32.5911   49.4016 H   0  0  0  0  0  0  0  0  0  0  0  0
   44.6034   33.9789   48.5807 H   0  0  0  0  0  0  0  0  0  0  0  0
   51.5658   26.1682   47.7027 H   0  0  0  0  0  0  0  0  0  0  0  0
   50.7158   26.2837   46.1385 H   0  0  0  0  0  0  0  0  0  0  0  0
  1  2  1  0
  1  9  1  0
  2  3  2  0
  3  4  1  0
  4  5  2  0
  5 28  1  0
  6  5  1  0
  7 10  1  0
  7  6  2  0
  8  7  1  0
  9  8  2  0
  9  4  1  0
 10 18  1  0
 11 12  2  0
 11 10  1  0
 12 13  1  0
 13 18  2  0
 13 14  1  0
 14 15  2  0
 15 16  1  0
 17 16  2  0
 18 17  1  0
 19 20  1  0
 19 21  1  0
 20 21  1  0
 21  1  1  0
 22 23  2  0
 23 19  1  0
 24 23  1  0
 25 24  2  0
 26 25  1  0
 26 27  2  0
 27 22  1  0
 29 14  1  0
  2 30  1  0
 11 31  1  0
 16 32  1  0
 19 33  1  6
 20 34  1  0
 20 35  1  0
 21 36  1  6
 22 37  1  0
 24 38  1  0
 26 39  1  0
 28 40  1  0
 28 41  1  0
 29 42  1  0
 29 43  1  0
M  ISO  8  30  14  31  14  32  14  33  13  34  13  35  13  36  13  37  14
M  ISO  2  38  14  39  14
M  END
>  <minimizedAffinity>  (1) 
-6.38396549

>  <minimizedRMSD>  (1) 
0.329004377

$$$$
