
     RDKit          3D

 35 37  0  0  0  0  0  0  0  0999 V2000
   47.7000   34.7670   41.5110 C   0  0  0  0  0  0  0  0  0  0  0  0
   47.3200   34.2580   40.1630 C   0  0  0  0  0  0  0  0  0  0  0  0
   48.2080   34.2080   39.1100 C   0  0  0  0  0  0  0  0  0  0  0  0
   47.9410   33.7500   37.8450 C   0  0  0  0  0  0  0  0  0  0  0  0
   46.6590   33.3080   37.6520 N   0  0  0  0  0  0  0  0  0  0  0  0
   45.7770   33.3500   38.6710 C   0  0  0  0  0  0  0  0  0  0  0  0
   46.0480   33.8030   39.9140 N   0  0  0  0  0  0  0  0  0  0  0  0
   44.4280   32.8600   38.3910 C   0  0  0  0  0  0  0  0  0  0  0  0
   43.3050   33.5960   38.7850 C   0  0  0  0  0  0  0  0  0  0  0  0
   42.0440   33.1300   38.5210 C   0  0  0  0  0  0  0  0  0  0  0  0
   41.8760   31.9740   37.8860 N   0  0  0  0  0  0  0  0  0  0  0  0
   42.9740   31.2710   37.5090 C   0  0  0  0  0  0  0  0  0  0  0  0
   44.2490   31.6950   37.7500 N   0  0  0  0  0  0  0  0  0  0  0  0
   47.4430   33.6850   42.5060 C   0  0  0  0  0  0  0  0  0  0  0  0
   44.8190   35.4600   44.5550 C   0  0  0  0  0  0  0  0  0  0  0  0
   45.6750   35.1000   43.5030 C   0  0  0  0  0  0  0  0  0  0  0  0
   46.5460   34.0520   43.6090 C   0  0  0  0  0  0  0  0  0  0  0  0
   46.5610   33.3630   44.7680 N   0  0  0  0  0  0  0  0  0  0  0  0
   45.7210   33.7180   45.7980 C   0  0  0  0  0  0  0  0  0  0  0  0
   44.8810   34.7350   45.6860 N   0  0  0  0  0  0  0  0  0  0  0  0
   45.8980   32.8230   46.9960 C   0  0  0  0  0  0  0  0  0  0  0  0
   47.1690   32.8740   47.4790 F   0  0  0  0  0  0  0  0  0  0  0  0
   45.6320   31.5130   46.6020 F   0  0  0  0  0  0  0  0  0  0  0  0
   44.9530   33.1060   47.9750 F   0  0  0  0  0  0  0  0  0  0  0  0
   47.0960   35.6523   41.7589 H   0  0  0  0  0  0  0  0  0  0  0  0
   48.7624   35.0519   41.5246 H   0  0  0  0  0  0  0  0  0  0  0  0
   49.2287   34.5701   39.3026 H   0  0  0  0  0  0  0  0  0  0  0  0
   48.6980   33.7385   37.0470 H   0  0  0  0  0  0  0  0  0  0  0  0
   43.4354   34.5540   39.3096 H   0  0  0  0  0  0  0  0  0  0  0  0
   41.1670   33.7146   38.8357 H   0  0  0  0  0  0  0  0  0  0  0  0
   42.8298   30.3148   36.9847 H   0  0  0  0  0  0  0  0  0  0  0  0
   46.9970   32.8318   41.9738 H   0  0  0  0  0  0  0  0  0  0  0  0
   48.4154   33.4553   42.9661 H   0  0  0  0  0  0  0  0  0  0  0  0
   44.1219   36.3054   44.4580 H   0  0  0  0  0  0  0  0  0  0  0  0
   45.6442   35.6772   42.5671 H   0  0  0  0  0  0  0  0  0  0  0  0
  1 14  1  0
  2  1  1  0
  3  2  2  0
  4  3  1  0
  5  4  2  0
  5  6  1  0
  6  7  2  0
  7  2  1  0
  8  6  1  0
  8  9  2  0
 10  9  1  0
 11 10  2  0
 12 13  2  0
 12 11  1  0
 13  8  1  0
 14 17  1  0
 15 20  2  0
 16 17  2  0
 16 15  1  0
 17 18  1  0
 18 19  2  0
 19 21  1  0
 20 19  1  0
 21 22  1  0
 21 24  1  0
 23 21  1  0
  1 25  1  0
  1 26  1  0
  3 27  1  0
  4 28  1  0
  9 29  1  0
 10 30  1  0
 12 31  1  0
 14 32  1  0
 14 33  1  0
 15 34  1  0
 16 35  1  0
M  ISO  8  25   8  26   8  27  14  28  14  29  14  30  14  31  14  32   8
M  ISO  3  33   8  34  14  35  14
M  END
>  <minimizedAffinity>  (1) 
-5.52326107

>  <minimizedRMSD>  (1) 
0.601270437

$$$$
