
     RDKit          3D

 37 41  0  0  1  0  0  0  0  0999 V2000
   45.8610   33.9730   43.9560 N   0  0  0  0  0  0  0  0  0  0  0  0
   45.0750   34.8590   44.6220 C   0  0  0  0  0  0  0  0  0  0  0  0
   44.9660   34.5260   45.9250 N   0  0  0  0  0  0  0  0  0  0  0  0
   45.6680   33.4310   46.1330 C   0  0  0  0  0  0  0  0  0  0  0  0
   45.9190   32.6630   47.2610 C   0  0  0  0  0  0  0  0  0  0  0  0
   46.6980   31.5850   47.1750 N   0  0  0  0  0  0  0  0  0  0  0  0
   47.2570   31.2200   45.9930 C   0  0  0  0  0  0  0  0  0  0  0  0
   47.0060   31.9750   44.9010 N   0  0  0  0  0  0  0  0  0  0  0  0
   46.2180   33.0860   44.9330 C   0  0  0  0  0  0  0  0  0  0  0  0
   48.0920   30.0650   45.8940 N   0  0  0  0  0  0  0  0  0  0  0  0
   48.8140   29.7240   46.9700 N   0  0  0  0  0  0  0  0  0  0  0  0
   49.5440   28.6210   46.7200 C   0  0  0  0  0  0  0  0  0  0  0  0
   49.2670   28.2500   45.4180 C   0  0  0  0  0  0  0  0  0  0  0  0
   48.3640   29.1660   44.9360 C   0  0  0  0  0  0  0  0  0  0  0  0
   45.6180   34.1340   41.3830 C   0  0  1  0  0  0  0  0  0  0  0  0
   46.4510   35.2160   41.9430 C   0  0  0  0  0  0  0  0  0  0  0  0
   46.3140   33.8490   42.6180 C   0  0  1  0  0  0  0  0  0  0  0  0
   43.5010   35.5290   41.2900 C   0  0  0  0  0  0  0  0  0  0  0  0
   44.1570   34.2790   41.2930 C   0  0  0  0  0  0  0  0  0  0  0  0
   43.3540   33.1550   41.1980 C   0  0  0  0  0  0  0  0  0  0  0  0
   42.0060   33.3060   41.1060 N   0  0  0  0  0  0  0  0  0  0  0  0
   41.4130   34.5180   41.1070 C   0  0  0  0  0  0  0  0  0  0  0  0
   42.1710   35.6380   41.1990 N   0  0  0  0  0  0  0  0  0  0  0  0
   45.3710   32.9990   48.5240 N   0  0  0  0  0  0  0  0  0  0  0  0
   44.5915   35.7323   44.1599 H   0  0  0  0  0  0  0  0  0  0  0  0
   50.2278   28.1138   47.4165 H   0  0  0  0  0  0  0  0  0  0  0  0
   49.6868   27.3906   44.8747 H   0  0  0  0  0  0  0  0  0  0  0  0
   47.9321   29.1629   43.9243 H   0  0  0  0  0  0  0  0  0  0  0  0
   45.5747   33.6108   40.4164 H   0  0  0  0  0  0  0  0  0  0  0  0
   47.3932   35.5035   41.4536 H   0  0  0  0  0  0  0  0  0  0  0  0
   46.2953   36.2644   42.2375 H   0  0  0  0  0  0  0  0  0  0  0  0
   46.8650   32.9367   42.8903 H   0  0  0  0  0  0  0  0  0  0  0  0
   44.1047   36.4454   41.3651 H   0  0  0  0  0  0  0  0  0  0  0  0
   43.8020   32.1504   41.1970 H   0  0  0  0  0  0  0  0  0  0  0  0
   40.3183   34.5969   41.0334 H   0  0  0  0  0  0  0  0  0  0  0  0
   45.5731   32.4118   49.3457 H   0  0  0  0  0  0  0  0  0  0  0  0
   44.7707   33.8304   48.6202 H   0  0  0  0  0  0  0  0  0  0  0  0
  1  2  1  0
  1  9  1  0
  2  3  2  0
  3  4  1  0
  4  5  2  0
  5 24  1  0
  6  5  1  0
  7  6  2  0
  8  9  2  0
  8  7  1  0
  9  4  1  0
 10  7  1  0
 10 11  1  0
 12 11  2  0
 13 12  1  0
 14 13  2  0
 14 10  1  0
 15 16  1  0
 15 17  1  0
 16 17  1  0
 17  1  1  0
 18 19  2  0
 19 15  1  0
 20 19  1  0
 21 22  1  0
 21 20  2  0
 22 23  2  0
 23 18  1  0
  2 25  1  0
 12 26  1  0
 13 27  1  0
 14 28  1  0
 15 29  1  6
 16 30  1  0
 16 31  1  0
 17 32  1  6
 18 33  1  0
 20 34  1  0
 22 35  1  0
 24 36  1  0
 24 37  1  0
M  ISO  8  25  14  26  14  27  14  28  14  29  13  30  13  31  13  32  13
M  ISO  3  33  14  34  14  35  14
M  END
>  <minimizedAffinity>  (1) 
-5.89198685

>  <minimizedRMSD>  (1) 
0.0591821037

$$$$
