
     RDKit          3D

 37 41  0  0  1  0  0  0  0  0999 V2000
   45.8640   33.9800   43.9460 N   0  0  0  0  0  0  0  0  0  0  0  0
   45.0800   34.8800   44.5970 C   0  0  0  0  0  0  0  0  0  0  0  0
   44.9570   34.5580   45.9050 N   0  0  0  0  0  0  0  0  0  0  0  0
   45.6460   33.4630   46.1270 C   0  0  0  0  0  0  0  0  0  0  0  0
   45.8890   32.6910   47.2580 C   0  0  0  0  0  0  0  0  0  0  0  0
   46.6570   31.6120   47.1840 N   0  0  0  0  0  0  0  0  0  0  0  0
   47.2180   31.2350   46.0230 C   0  0  0  0  0  0  0  0  0  0  0  0
   46.9840   31.9820   44.9160 N   0  0  0  0  0  0  0  0  0  0  0  0
   46.2050   33.0990   44.9340 C   0  0  0  0  0  0  0  0  0  0  0  0
   45.6360   34.1130   41.3690 C   0  0  1  0  0  0  0  0  0  0  0  0
   46.4660   35.2030   41.9240 C   0  0  0  0  0  0  0  0  0  0  0  0
   46.3230   33.8430   42.6120 C   0  0  1  0  0  0  0  0  0  0  0  0
   43.5260   35.5140   41.2530 C   0  0  0  0  0  0  0  0  0  0  0  0
   44.1750   34.2600   41.2690 C   0  0  0  0  0  0  0  0  0  0  0  0
   43.3680   33.1400   41.1760 C   0  0  0  0  0  0  0  0  0  0  0  0
   42.0220   33.2950   41.0750 N   0  0  0  0  0  0  0  0  0  0  0  0
   41.4340   34.5120   41.0620 C   0  0  0  0  0  0  0  0  0  0  0  0
   42.1970   35.6280   41.1530 N   0  0  0  0  0  0  0  0  0  0  0  0
   48.0660   30.0520   45.9140 C   0  0  0  0  0  0  0  0  0  0  0  0
   48.7470   29.4400   46.9380 C   0  0  0  0  0  0  0  0  0  0  0  0
   49.4230   28.3740   46.4310 N   0  0  0  0  0  0  0  0  0  0  0  0
   49.1740   28.3140   45.1100 C   0  0  0  0  0  0  0  0  0  0  0  0
   48.3390   29.3440   44.7810 N   0  0  0  0  0  0  0  0  0  0  0  0
   45.3180   33.0530   48.5180 N   0  0  0  0  0  0  0  0  0  0  0  0
   44.6085   35.7536   44.1232 H   0  0  0  0  0  0  0  0  0  0  0  0
   45.5998   33.5778   40.4086 H   0  0  0  0  0  0  0  0  0  0  0  0
   47.4120   35.4851   41.4388 H   0  0  0  0  0  0  0  0  0  0  0  0
   46.3085   36.2545   42.2059 H   0  0  0  0  0  0  0  0  0  0  0  0
   46.8710   32.9330   42.8978 H   0  0  0  0  0  0  0  0  0  0  0  0
   44.1339   36.4279   41.3252 H   0  0  0  0  0  0  0  0  0  0  0  0
   43.8120   32.1336   41.1838 H   0  0  0  0  0  0  0  0  0  0  0  0
   40.3404   34.5961   40.9779 H   0  0  0  0  0  0  0  0  0  0  0  0
   48.7459   29.7584   47.9909 H   0  0  0  0  0  0  0  0  0  0  0  0
   49.5748   27.5630   44.4133 H   0  0  0  0  0  0  0  0  0  0  0  0
   47.9777   29.5504   43.8388 H   0  0  0  0  0  0  0  0  0  0  0  0
   45.5022   32.4766   49.3515 H   0  0  0  0  0  0  0  0  0  0  0  0
   44.7225   33.8901   48.5921 H   0  0  0  0  0  0  0  0  0  0  0  0
  1  2  1  0
  1  9  1  0
  2  3  2  0
  3  4  1  0
  4  5  2  0
  5 24  1  0
  6  5  1  0
  7  6  2  0
  8  9  2  0
  8  7  1  0
  9  4  1  0
 10 11  1  0
 10 12  1  0
 11 12  1  0
 12  1  1  0
 13 14  2  0
 14 10  1  0
 15 14  1  0
 16 15  2  0
 17 16  1  0
 17 18  2  0
 18 13  1  0
 19  7  1  0
 19 20  2  0
 21 20  1  0
 22 21  2  0
 23 22  1  0
 23 19  1  0
  2 25  1  0
 10 26  1  6
 11 27  1  0
 11 28  1  0
 12 29  1  6
 13 30  1  0
 15 31  1  0
 17 32  1  0
 20 33  1  0
 22 34  1  0
 23 35  1  0
 24 36  1  0
 24 37  1  0
M  ISO  8  25  14  26  13  27  13  28  13  29  13  30  14  31  14  32  14
M  ISO  3  33  14  34  14  35   9
M  END
>  <minimizedAffinity>  (1) 
-5.5355649

>  <minimizedRMSD>  (1) 
0.266834795

$$$$
