
     RDKit          3D

 44 46  0  0  0  0  0  0  0  0999 V2000
   47.4140   34.8240   41.8510 C   0  0  0  0  0  0  0  0  0  0  0  0
   47.1490   34.2850   40.4910 C   0  0  0  0  0  0  0  0  0  0  0  0
   48.1270   34.2160   39.5220 C   0  0  0  0  0  0  0  0  0  0  0  0
   47.9510   33.7280   38.2450 C   0  0  0  0  0  0  0  0  0  0  0  0
   46.6880   33.2880   37.9550 N   0  0  0  0  0  0  0  0  0  0  0  0
   45.7220   33.3520   38.9000 C   0  0  0  0  0  0  0  0  0  0  0  0
   45.8950   33.8310   40.1550 N   0  0  0  0  0  0  0  0  0  0  0  0
   44.3990   32.8640   38.5210 C   0  0  0  0  0  0  0  0  0  0  0  0
   43.2550   33.5740   38.8400 C   0  0  0  0  0  0  0  0  0  0  0  0
   42.0200   33.1100   38.4810 C   0  0  0  0  0  0  0  0  0  0  0  0
   41.8840   31.9780   37.8230 N   0  0  0  0  0  0  0  0  0  0  0  0
   43.0100   31.2840   37.5100 C   0  0  0  0  0  0  0  0  0  0  0  0
   44.2510   31.7210   37.8540 N   0  0  0  0  0  0  0  0  0  0  0  0
   47.4960   33.6810   42.8090 C   0  0  0  0  0  0  0  0  0  0  0  0
   44.9100   34.9390   45.2550 C   0  0  0  0  0  0  0  0  0  0  0  0
   45.7090   34.8110   44.1110 C   0  0  0  0  0  0  0  0  0  0  0  0
   46.6520   33.8230   44.0070 C   0  0  0  0  0  0  0  0  0  0  0  0
   46.7890   32.9680   45.0510 N   0  0  0  0  0  0  0  0  0  0  0  0
   45.9940   33.1130   46.1640 C   0  0  0  0  0  0  0  0  0  0  0  0
   45.0890   34.0660   46.2540 N   0  0  0  0  0  0  0  0  0  0  0  0
   46.2740   32.0970   47.2090 C   0  0  0  0  0  0  0  0  0  0  0  0
   47.5380   32.4250   47.9780 C   0  0  0  0  0  0  0  0  0  0  0  0
   46.3500   30.7500   46.5650 C   0  0  0  0  0  0  0  0  0  0  0  0
   45.1360   32.1970   48.2170 C   0  0  0  0  0  0  0  0  0  0  0  0
   46.5974   35.4985   42.1479 H   0  0  0  0  0  0  0  0  0  0  0  0
   48.3596   35.3861   41.8548 H   0  0  0  0  0  0  0  0  0  0  0  0
   49.1298   34.5802   39.7898 H   0  0  0  0  0  0  0  0  0  0  0  0
   48.7688   33.6945   37.5101 H   0  0  0  0  0  0  0  0  0  0  0  0
   43.3402   34.5233   39.3891 H   0  0  0  0  0  0  0  0  0  0  0  0
   41.1253   33.6922   38.7464 H   0  0  0  0  0  0  0  0  0  0  0  0
   42.9142   30.3364   36.9596 H   0  0  0  0  0  0  0  0  0  0  0  0
   47.1890   32.7670   42.2795 H   0  0  0  0  0  0  0  0  0  0  0  0
   48.5367   33.6457   43.1635 H   0  0  0  0  0  0  0  0  0  0  0  0
   44.1555   35.7359   45.3302 H   0  0  0  0  0  0  0  0  0  0  0  0
   45.5762   35.5186   43.2793 H   0  0  0  0  0  0  0  0  0  0  0  0
   47.3344   32.3722   49.0577 H   0  0  0  0  0  0  0  0  0  0  0  0
   48.3241   31.7011   47.7172 H   0  0  0  0  0  0  0  0  0  0  0  0
   47.8729   33.4398   47.7172 H   0  0  0  0  0  0  0  0  0  0  0  0
   46.3938   29.9736   47.3430 H   0  0  0  0  0  0  0  0  0  0  0  0
   45.4593   30.5921   45.9391 H   0  0  0  0  0  0  0  0  0  0  0  0
   47.2528   30.6932   45.9391 H   0  0  0  0  0  0  0  0  0  0  0  0
   45.5457   32.1610   49.2372 H   0  0  0  0  0  0  0  0  0  0  0  0
   44.5990   33.1458   48.0708 H   0  0  0  0  0  0  0  0  0  0  0  0
   44.4417   31.3564   48.0708 H   0  0  0  0  0  0  0  0  0  0  0  0
  1 14  1  0
  2  1  1  0
  3  2  2  0
  4  3  1  0
  5  4  2  0
  5  6  1  0
  6  7  2  0
  7  2  1  0
  8  9  2  0
  8  6  1  0
 10  9  1  0
 11 10  2  0
 12 11  1  0
 12 13  2  0
 13  8  1  0
 14 17  1  0
 15 20  2  0
 16 15  1  0
 17 16  2  0
 17 18  1  0
 18 19  2  0
 19 20  1  0
 19 21  1  0
 21 22  1  0
 21 24  1  0
 23 21  1  0
  1 25  1  0
  1 26  1  0
  3 27  1  0
  4 28  1  0
  9 29  1  0
 10 30  1  0
 12 31  1  0
 14 32  1  0
 14 33  1  0
 15 34  1  0
 16 35  1  0
 22 36  1  0
 22 37  1  0
 22 38  1  0
 23 39  1  0
 23 40  1  0
 23 41  1  0
 24 42  1  0
 24 43  1  0
 24 44  1  0
M  ISO  8  25   8  26   8  27  14  28  14  29  14  30  14  31  14  32   8
M  ISO  8  33   8  34  14  35  14  36   8  37   8  38   8  39   8  40   8
M  ISO  4  41   8  42   8  43   8  44   8
M  END
>  <minimizedAffinity>  (1) 
-5.34879732

>  <minimizedRMSD>  (1) 
1.09433115

$$$$
