
     RDKit          3D

 33 36  0  0  1  0  0  0  0  0999 V2000
   45.8350   33.9510   43.9570 N   0  0  0  0  0  0  0  0  0  0  0  0
   45.0780   34.8540   44.6360 C   0  0  0  0  0  0  0  0  0  0  0  0
   44.9840   34.5250   45.9400 N   0  0  0  0  0  0  0  0  0  0  0  0
   45.6670   33.4160   46.1390 C   0  0  0  0  0  0  0  0  0  0  0  0
   45.9170   32.6480   47.2600 C   0  0  0  0  0  0  0  0  0  0  0  0
   46.6770   31.5420   47.1580 N   0  0  0  0  0  0  0  0  0  0  0  0
   47.2040   31.1700   45.9710 C   0  0  0  0  0  0  0  0  0  0  0  0
   46.9540   31.9280   44.8860 N   0  0  0  0  0  0  0  0  0  0  0  0
   46.1900   33.0590   44.9290 C   0  0  0  0  0  0  0  0  0  0  0  0
   45.5530   34.1200   41.3880 C   0  0  1  0  0  0  0  0  0  0  0  0
   46.4160   35.1840   41.9350 C   0  0  0  0  0  0  0  0  0  0  0  0
   46.2620   33.8190   42.6110 C   0  0  1  0  0  0  0  0  0  0  0  0
   43.4680   35.5420   41.2950 C   0  0  0  0  0  0  0  0  0  0  0  0
   44.0930   34.2760   41.3200 C   0  0  0  0  0  0  0  0  0  0  0  0
   43.2770   33.1600   41.2690 C   0  0  0  0  0  0  0  0  0  0  0  0
   41.9290   33.3200   41.1980 N   0  0  0  0  0  0  0  0  0  0  0  0
   41.3560   34.5510   41.1740 C   0  0  0  0  0  0  0  0  0  0  0  0
   42.1290   35.6650   41.2230 N   0  0  0  0  0  0  0  0  0  0  0  0
   45.4010   32.9940   48.5330 N   0  0  0  0  0  0  0  0  0  0  0  0
   48.0260   29.9700   45.8760 C   0  0  0  0  0  0  0  0  0  0  0  0
   47.9630   29.1200   46.8000 O   0  0  0  0  0  0  0  0  0  0  0  0
   48.8530   29.7860   44.7850 O   0  0  0  0  0  0  0  0  0  0  0  0
   44.6047   35.7366   44.1811 H   0  0  0  0  0  0  0  0  0  0  0  0
   45.4848   33.6067   40.4175 H   0  0  0  0  0  0  0  0  0  0  0  0
   47.3559   35.4530   41.4309 H   0  0  0  0  0  0  0  0  0  0  0  0
   46.2863   36.2350   42.2327 H   0  0  0  0  0  0  0  0  0  0  0  0
   46.7975   32.8946   42.8734 H   0  0  0  0  0  0  0  0  0  0  0  0
   44.0894   36.4488   41.3353 H   0  0  0  0  0  0  0  0  0  0  0  0
   43.7155   32.1513   41.2858 H   0  0  0  0  0  0  0  0  0  0  0  0
   40.2617   34.6453   41.1146 H   0  0  0  0  0  0  0  0  0  0  0  0
   45.6051   32.4009   49.3500 H   0  0  0  0  0  0  0  0  0  0  0  0
   44.8217   33.8387   48.6417 H   0  0  0  0  0  0  0  0  0  0  0  0
   49.4118   28.9714   44.7192 H   0  0  0  0  0  0  0  0  0  0  0  0
  1  2  1  0
  1  9  1  0
  2  3  2  0
  3  4  1  0
  4  5  2  0
  5 19  1  0
  6  5  1  0
  7  6  2  0
  8  9  2  0
  8  7  1  0
  9  4  1  0
 10 11  1  0
 10 12  1  0
 11 12  1  0
 12  1  1  0
 13 14  2  0
 14 10  1  0
 15 14  1  0
 16 15  2  0
 17 16  1  0
 17 18  2  0
 18 13  1  0
 20  7  1  0
 20 21  2  0
 22 20  1  0
  2 23  1  0
 10 24  1  6
 11 25  1  0
 11 26  1  0
 12 27  1  6
 13 28  1  0
 15 29  1  0
 17 30  1  0
 19 31  1  0
 19 32  1  0
 22 33  1  0
M  ISO  8  23  14  24  13  25  13  26  13  27  13  28  14  29  14  30  14
M  ISO  1  33   3
M  END
>  <minimizedAffinity>  (1) 
-5.42564869

>  <minimizedRMSD>  (1) 
0.0518958382

$$$$
