
     RDKit          3D

 39 42  0  0  0  0  0  0  0  0999 V2000
   47.6680   34.7160   41.5240 C   0  0  0  0  0  0  0  0  0  0  0  0
   47.2980   34.2270   40.1660 C   0  0  0  0  0  0  0  0  0  0  0  0
   48.1880   34.2000   39.1170 C   0  0  0  0  0  0  0  0  0  0  0  0
   47.9300   33.7650   37.8420 C   0  0  0  0  0  0  0  0  0  0  0  0
   46.6460   33.3220   37.6350 N   0  0  0  0  0  0  0  0  0  0  0  0
   45.7610   33.3420   38.6520 C   0  0  0  0  0  0  0  0  0  0  0  0
   46.0330   33.7760   39.9080 N   0  0  0  0  0  0  0  0  0  0  0  0
   44.4160   32.8560   38.3600 C   0  0  0  0  0  0  0  0  0  0  0  0
   43.2950   33.5690   38.7820 C   0  0  0  0  0  0  0  0  0  0  0  0
   42.0330   33.1070   38.5050 C   0  0  0  0  0  0  0  0  0  0  0  0
   41.8590   31.9780   37.8340 N   0  0  0  0  0  0  0  0  0  0  0  0
   42.9540   31.2930   37.4290 C   0  0  0  0  0  0  0  0  0  0  0  0
   44.2270   31.7180   37.6840 N   0  0  0  0  0  0  0  0  0  0  0  0
   47.4100   33.6150   42.5040 C   0  0  0  0  0  0  0  0  0  0  0  0
   44.8630   35.4170   44.6270 C   0  0  0  0  0  0  0  0  0  0  0  0
   45.6920   35.0660   43.5570 C   0  0  0  0  0  0  0  0  0  0  0  0
   46.5350   33.9880   43.6250 C   0  0  0  0  0  0  0  0  0  0  0  0
   46.5380   33.2680   44.7710 N   0  0  0  0  0  0  0  0  0  0  0  0
   45.7160   33.6290   45.8110 C   0  0  0  0  0  0  0  0  0  0  0  0
   44.9070   34.6680   45.7370 N   0  0  0  0  0  0  0  0  0  0  0  0
   45.7500   32.8070   47.0570 C   0  0  0  0  0  0  0  0  0  0  0  0
   47.1190   32.4830   47.6500 C   0  0  0  0  0  0  0  0  0  0  0  0
   46.2520   31.4290   47.0560 C   0  0  0  0  0  0  0  0  0  0  0  0
   47.0586   35.5946   41.7822 H   0  0  0  0  0  0  0  0  0  0  0  0
   48.7292   35.0047   41.5477 H   0  0  0  0  0  0  0  0  0  0  0  0
   49.2062   34.5628   39.3209 H   0  0  0  0  0  0  0  0  0  0  0  0
   48.6911   33.7704   37.0478 H   0  0  0  0  0  0  0  0  0  0  0  0
   43.4229   34.5079   39.3406 H   0  0  0  0  0  0  0  0  0  0  0  0
   41.1570   33.6798   38.8435 H   0  0  0  0  0  0  0  0  0  0  0  0
   42.8130   30.3553   36.8715 H   0  0  0  0  0  0  0  0  0  0  0  0
   46.9403   32.7788   41.9653 H   0  0  0  0  0  0  0  0  0  0  0  0
   48.3841   33.3521   42.9421 H   0  0  0  0  0  0  0  0  0  0  0  0
   44.1919   36.2859   44.5591 H   0  0  0  0  0  0  0  0  0  0  0  0
   45.6667   35.6702   42.6381 H   0  0  0  0  0  0  0  0  0  0  0  0
   44.8134   33.2700   47.4010 H   0  0  0  0  0  0  0  0  0  0  0  0
   48.0367   32.8023   47.1345 H   0  0  0  0  0  0  0  0  0  0  0  0
   47.6161   32.6415   48.6184 H   0  0  0  0  0  0  0  0  0  0  0  0
   45.7827   30.6788   47.7095 H   0  0  0  0  0  0  0  0  0  0  0  0
   46.3987   30.6692   46.2742 H   0  0  0  0  0  0  0  0  0  0  0  0
  1 14  1  0
  2  1  1  0
  3  2  2  0
  4  3  1  0
  5  4  2  0
  5  6  1  0
  6  7  2  0
  7  2  1  0
  8  6  1  0
  8  9  2  0
 10  9  1  0
 11 10  2  0
 12 13  2  0
 12 11  1  0
 13  8  1  0
 14 17  1  0
 15 20  2  0
 16 17  2  0
 16 15  1  0
 17 18  1  0
 18 19  2  0
 19 21  1  0
 20 19  1  0
 21 22  1  0
 23 21  1  0
 23 22  1  0
  1 24  1  0
  1 25  1  0
  3 26  1  0
  4 27  1  0
  9 28  1  0
 10 29  1  0
 12 30  1  0
 14 31  1  0
 14 32  1  0
 15 33  1  0
 16 34  1  0
 21 35  1  0
 22 36  1  0
 22 37  1  0
 23 38  1  0
 23 39  1  0
M  ISO  8  24   8  25   8  26  14  27  14  28  14  29  14  30  14  31   8
M  ISO  8  32   8  33  14  34  14  35  13  36  13  37  13  38  13  39  13
M  END
>  <minimizedAffinity>  (1) 
-5.19074106

>  <minimizedRMSD>  (1) 
0.550939143

$$$$
