
     RDKit          3D

 41 45  0  0  0  0  0  0  0  0999 V2000
   46.4610   34.3130   41.8140 N   0  0  0  0  0  0  0  0  0  0  0  0
   45.8260   33.7960   40.7420 C   0  0  0  0  0  0  0  0  0  0  0  0
   46.4300   33.6080   39.5190 C   0  0  0  0  0  0  0  0  0  0  0  0
   47.7570   33.9940   39.4760 C   0  0  0  0  0  0  0  0  0  0  0  0
   48.4040   33.8640   38.4030 O   0  0  0  0  0  0  0  0  0  0  0  0
   48.4220   34.5150   40.5310 N   0  0  0  0  0  0  0  0  0  0  0  0
   47.7750   34.6810   41.7180 C   0  0  0  0  0  0  0  0  0  0  0  0
   48.4410   35.1630   42.6460 O   0  0  0  0  0  0  0  0  0  0  0  0
   44.5990   36.0020   44.5170 C   0  0  0  0  0  0  0  0  0  0  0  0
   45.1690   35.7110   43.2530 C   0  0  0  0  0  0  0  0  0  0  0  0
   45.9300   34.5390   43.0860 C   0  0  0  0  0  0  0  0  0  0  0  0
   46.0870   33.7170   44.1780 N   0  0  0  0  0  0  0  0  0  0  0  0
   45.5210   34.0460   45.3620 C   0  0  0  0  0  0  0  0  0  0  0  0
   44.7980   35.1420   45.5540 N   0  0  0  0  0  0  0  0  0  0  0  0
   45.7410   33.1140   46.4420 C   0  0  0  0  0  0  0  0  0  0  0  0
   45.1900   32.9700   47.6570 C   0  0  0  0  0  0  0  0  0  0  0  0
   45.5620   31.9920   48.5160 C   0  0  0  0  0  0  0  0  0  0  0  0
   46.6040   31.1280   47.9950 C   0  0  0  0  0  0  0  0  0  0  0  0
   46.9410   31.7940   46.3510 S   0  0  0  0  0  0  0  0  0  0  0  0
   45.7030   33.0440   38.3770 C   0  0  0  0  0  0  0  0  0  0  0  0
   44.4730   32.3960   38.7440 N   0  0  0  0  0  0  0  0  0  0  0  0
   44.1460   31.1270   39.1320 C   0  0  0  0  0  0  0  0  0  0  0  0
   42.8210   31.0530   39.3420 N   0  0  0  0  0  0  0  0  0  0  0  0
   42.2930   32.2730   39.0910 C   0  0  0  0  0  0  0  0  0  0  0  0
   41.0030   32.7440   39.1500 C   0  0  0  0  0  0  0  0  0  0  0  0
   40.7580   34.0240   38.8420 N   0  0  0  0  0  0  0  0  0  0  0  0
   41.7350   34.8650   38.4750 C   0  0  0  0  0  0  0  0  0  0  0  0
   42.9910   34.3970   38.4200 N   0  0  0  0  0  0  0  0  0  0  0  0
   43.3060   33.1080   38.7210 C   0  0  0  0  0  0  0  0  0  0  0  0
   44.7696   33.5094   40.8507 H   0  0  0  0  0  0  0  0  0  0  0  0
   49.4117   34.7848   40.4380 H   0  0  0  0  0  0  0  0  0  0  0  0
   44.0011   36.9143   44.6595 H   0  0  0  0  0  0  0  0  0  0  0  0
   45.0176   36.3973   42.4068 H   0  0  0  0  0  0  0  0  0  0  0  0
   44.4046   33.6748   47.9675 H   0  0  0  0  0  0  0  0  0  0  0  0
   45.1166   31.8648   49.5137 H   0  0  0  0  0  0  0  0  0  0  0  0
   47.0789   30.2666   48.4874 H   0  0  0  0  0  0  0  0  0  0  0  0
   46.3511   32.3060   37.8817 H   0  0  0  0  0  0  0  0  0  0  0  0
   45.4421   33.8818   37.7136 H   0  0  0  0  0  0  0  0  0  0  0  0
   44.8565   30.2961   39.2534 H   0  0  0  0  0  0  0  0  0  0  0  0
   40.1806   32.0766   39.4471 H   0  0  0  0  0  0  0  0  0  0  0  0
   41.5125   35.9129   38.2251 H   0  0  0  0  0  0  0  0  0  0  0  0
  1 11  1  0
  2  1  1  0
  3  2  2  0
  4  3  1  0
  4  6  1  0
  5  4  2  0
  6  7  1  0
  7  1  1  0
  7  8  2  0
  9 14  2  0
 10  9  1  0
 11 10  2  0
 11 12  1  0
 12 13  2  0
 13 14  1  0
 13 15  1  0
 15 16  2  0
 16 17  1  0
 18 17  2  0
 19 15  1  0
 19 18  1  0
 20 21  1  0
 20  3  1  0
 21 22  1  0
 22 23  2  0
 24 25  2  0
 24 23  1  0
 26 25  1  0
 27 26  2  0
 28 27  1  0
 28 29  2  0
 29 21  1  0
 29 24  1  0
  2 30  1  0
  6 31  1  0
  9 32  1  0
 10 33  1  0
 16 34  1  0
 17 35  1  0
 18 36  1  0
 20 37  1  0
 20 38  1  0
 22 39  1  0
 25 40  1  0
 27 41  1  0
M  ISO  8  30  14  31   9  32  14  33  14  34  14  35  14  36  14  37   8
M  ISO  4  38   8  39  14  40  14  41  14
M  END
>  <minimizedAffinity>  (1) 
-6.52777433

>  <minimizedRMSD>  (1) 
3.97494793

$$$$
