
     RDKit          3D

 44 48  0  0  0  0  0  0  0  0999 V2000
   45.9830   34.1830   41.9450 N   0  0  0  0  0  0  0  0  0  0  0  0
   45.2250   33.7730   40.9270 C   0  0  0  0  0  0  0  0  0  0  0  0
   45.7030   33.5450   39.6530 C   0  0  0  0  0  0  0  0  0  0  0  0
   47.0560   33.7790   39.5120 C   0  0  0  0  0  0  0  0  0  0  0  0
   47.5630   33.5890   38.3620 O   0  0  0  0  0  0  0  0  0  0  0  0
   47.8660   34.1940   40.5120 N   0  0  0  0  0  0  0  0  0  0  0  0
   47.3100   34.3940   41.7380 C   0  0  0  0  0  0  0  0  0  0  0  0
   48.1110   34.7780   42.6210 O   0  0  0  0  0  0  0  0  0  0  0  0
   44.4720   35.9490   44.8010 C   0  0  0  0  0  0  0  0  0  0  0  0
   44.8990   35.6290   43.4910 C   0  0  0  0  0  0  0  0  0  0  0  0
   45.5900   34.4380   43.2630 C   0  0  0  0  0  0  0  0  0  0  0  0
   45.8210   33.6250   44.3420 N   0  0  0  0  0  0  0  0  0  0  0  0
   45.3950   33.9710   45.5680 C   0  0  0  0  0  0  0  0  0  0  0  0
   44.7360   35.0980   45.8230 N   0  0  0  0  0  0  0  0  0  0  0  0
   45.6980   33.0320   46.6350 C   0  0  0  0  0  0  0  0  0  0  0  0
   45.1840   32.8360   47.8520 C   0  0  0  0  0  0  0  0  0  0  0  0
   45.6240   31.8780   48.7020 C   0  0  0  0  0  0  0  0  0  0  0  0
   46.7100   31.0990   48.1370 C   0  0  0  0  0  0  0  0  0  0  0  0
   46.9670   31.8070   46.5030 S   0  0  0  0  0  0  0  0  0  0  0  0
   44.8070   33.0830   38.5750 C   0  0  0  0  0  0  0  0  0  0  0  0
   43.5300   32.6430   39.2040 C   0  0  0  0  0  0  0  0  0  0  0  0
   43.3500   31.4760   39.8510 N   0  0  0  0  0  0  0  0  0  0  0  0
   42.1780   31.1230   40.4010 C   0  0  0  0  0  0  0  0  0  0  0  0
   41.1260   31.9390   40.3230 N   0  0  0  0  0  0  0  0  0  0  0  0
   41.2320   33.1240   39.6890 C   0  0  0  0  0  0  0  0  0  0  0  0
   40.1060   33.9090   39.6500 C   0  0  0  0  0  0  0  0  0  0  0  0
   40.1610   35.1370   39.0130 C   0  0  0  0  0  0  0  0  0  0  0  0
   41.3670   35.5210   38.4370 C   0  0  0  0  0  0  0  0  0  0  0  0
   42.4870   34.7060   38.4930 C   0  0  0  0  0  0  0  0  0  0  0  0
   42.4350   33.4830   39.1270 C   0  0  0  0  0  0  0  0  0  0  0  0
   44.1540   33.6066   41.1145 H   0  0  0  0  0  0  0  0  0  0  0  0
   48.8708   34.3535   40.3512 H   0  0  0  0  0  0  0  0  0  0  0  0
   43.9272   36.8857   44.9901 H   0  0  0  0  0  0  0  0  0  0  0  0
   44.6878   36.3146   42.6571 H   0  0  0  0  0  0  0  0  0  0  0  0
   44.3603   33.4866   48.1811 H   0  0  0  0  0  0  0  0  0  0  0  0
   45.2061   31.7097   49.7055 H   0  0  0  0  0  0  0  0  0  0  0  0
   47.2537   30.2638   48.6027 H   0  0  0  0  0  0  0  0  0  0  0  0
   45.2696   32.2416   38.0383 H   0  0  0  0  0  0  0  0  0  0  0  0
   44.6221   33.8932   37.8543 H   0  0  0  0  0  0  0  0  0  0  0  0
   42.0846   30.1567   40.9183 H   0  0  0  0  0  0  0  0  0  0  0  0
   39.1719   33.5664   40.1191 H   0  0  0  0  0  0  0  0  0  0  0  0
   39.2769   35.7896   38.9640 H   0  0  0  0  0  0  0  0  0  0  0  0
   41.4337   36.4927   37.9258 H   0  0  0  0  0  0  0  0  0  0  0  0
   43.4263   35.0384   38.0270 H   0  0  0  0  0  0  0  0  0  0  0  0
  1 11  1  0
  2  1  1  0
  3  2  2  0
  4  3  1  0
  4  6  1  0
  5  4  2  0
  6  7  1  0
  7  1  1  0
  7  8  2  0
  9 14  2  0
 10  9  1  0
 11 10  2  0
 11 12  1  0
 12 13  2  0
 13 14  1  0
 13 15  1  0
 15 16  2  0
 16 17  1  0
 18 17  2  0
 19 15  1  0
 19 18  1  0
 20 21  1  0
 20  3  1  0
 21 22  2  0
 22 23  1  0
 24 23  2  0
 25 24  1  0
 26 25  2  0
 27 26  1  0
 28 29  1  0
 28 27  2  0
 29 30  2  0
 30 21  1  0
 30 25  1  0
  2 31  1  0
  6 32  1  0
  9 33  1  0
 10 34  1  0
 16 35  1  0
 17 36  1  0
 18 37  1  0
 20 38  1  0
 20 39  1  0
 23 40  1  0
 26 41  1  0
 27 42  1  0
 28 43  1  0
 29 44  1  0
M  ISO  8  31  14  32   9  33  14  34  14  35  14  36  14  37  14  38   8
M  ISO  6  39   8  40  14  41  14  42  14  43  14  44  14
M  END
>  <minimizedAffinity>  (1) 
-7.07968616

>  <minimizedRMSD>  (1) 
3.85523725

$$$$
