
     RDKit          3D

 39 42  0  0  0  0  0  0  0  0999 V2000
   46.6190   34.4760   41.6430 N   0  0  0  0  0  0  0  0  0  0  0  0
   46.0790   33.8560   40.5780 C   0  0  0  0  0  0  0  0  0  0  0  0
   46.7080   33.7050   39.3700 C   0  0  0  0  0  0  0  0  0  0  0  0
   47.9790   34.2560   39.3260 C   0  0  0  0  0  0  0  0  0  0  0  0
   48.6500   34.1750   38.2570 O   0  0  0  0  0  0  0  0  0  0  0  0
   48.5680   34.8940   40.3780 N   0  0  0  0  0  0  0  0  0  0  0  0
   47.8750   35.0010   41.5420 C   0  0  0  0  0  0  0  0  0  0  0  0
   48.4650   35.5890   42.4590 O   0  0  0  0  0  0  0  0  0  0  0  0
   44.6510   36.0490   44.3330 C   0  0  0  0  0  0  0  0  0  0  0  0
   45.2640   35.8000   43.0810 C   0  0  0  0  0  0  0  0  0  0  0  0
   46.0420   34.6630   42.9050 C   0  0  0  0  0  0  0  0  0  0  0  0
   46.1850   33.8130   43.9790 N   0  0  0  0  0  0  0  0  0  0  0  0
   45.5910   34.0790   45.1490 C   0  0  0  0  0  0  0  0  0  0  0  0
   44.8340   35.1690   45.3520 N   0  0  0  0  0  0  0  0  0  0  0  0
   45.7960   33.1430   46.2180 C   0  0  0  0  0  0  0  0  0  0  0  0
   45.2960   33.0140   47.4520 C   0  0  0  0  0  0  0  0  0  0  0  0
   45.6580   32.0230   48.3030 C   0  0  0  0  0  0  0  0  0  0  0  0
   46.6410   31.1250   47.7340 C   0  0  0  0  0  0  0  0  0  0  0  0
   46.9380   31.7770   46.0720 S   0  0  0  0  0  0  0  0  0  0  0  0
   46.0920   33.0120   38.2510 C   0  0  0  0  0  0  0  0  0  0  0  0
   46.7110   31.6690   38.1130 C   0  0  0  0  0  0  0  0  0  0  0  0
   46.4140   30.7520   39.1180 C   0  0  0  0  0  0  0  0  0  0  0  0
   46.9660   29.4760   39.0420 C   0  0  0  0  0  0  0  0  0  0  0  0
   47.7810   29.2080   37.9610 C   0  0  0  0  0  0  0  0  0  0  0  0
   48.0760   30.1190   36.9620 C   0  0  0  0  0  0  0  0  0  0  0  0
   47.5060   31.3200   37.1100 N   0  0  0  0  0  0  0  0  0  0  0  0
   45.0651   33.4428   40.6841 H   0  0  0  0  0  0  0  0  0  0  0  0
   49.5167   35.2858   40.2920 H   0  0  0  0  0  0  0  0  0  0  0  0
   44.0323   36.9467   44.4793 H   0  0  0  0  0  0  0  0  0  0  0  0
   45.1242   36.5060   42.2491 H   0  0  0  0  0  0  0  0  0  0  0  0
   44.5531   33.7498   47.7936 H   0  0  0  0  0  0  0  0  0  0  0  0
   45.2485   31.9127   49.3180 H   0  0  0  0  0  0  0  0  0  0  0  0
   47.1030   30.2451   48.2055 H   0  0  0  0  0  0  0  0  0  0  0  0
   45.0127   32.9035   38.4336 H   0  0  0  0  0  0  0  0  0  0  0  0
   46.2460   33.5886   37.3270 H   0  0  0  0  0  0  0  0  0  0  0  0
   45.7566   31.0301   39.9550 H   0  0  0  0  0  0  0  0  0  0  0  0
   46.7615   28.7152   39.8097 H   0  0  0  0  0  0  0  0  0  0  0  0
   48.2253   28.2043   37.8887 H   0  0  0  0  0  0  0  0  0  0  0  0
   48.7292   29.8743   36.1114 H   0  0  0  0  0  0  0  0  0  0  0  0
  1 11  1  0
  2  1  1  0
  3  2  2  0
  4  3  1  0
  4  6  1  0
  5  4  2  0
  6  7  1  0
  7  1  1  0
  7  8  2  0
  9 14  2  0
 10  9  1  0
 11 10  2  0
 11 12  1  0
 12 13  2  0
 13 14  1  0
 13 15  1  0
 15 16  2  0
 16 17  1  0
 18 17  2  0
 19 15  1  0
 19 18  1  0
 20  3  1  0
 21 20  1  0
 21 22  2  0
 23 22  1  0
 24 23  2  0
 25 26  2  0
 25 24  1  0
 26 21  1  0
  2 27  1  0
  6 28  1  0
  9 29  1  0
 10 30  1  0
 16 31  1  0
 17 32  1  0
 18 33  1  0
 20 34  1  0
 20 35  1  0
 22 36  1  0
 23 37  1  0
 24 38  1  0
 25 39  1  0
M  ISO  8  27  14  28   9  29  14  30  14  31  14  32  14  33  14  34   8
M  ISO  5  35   8  36  14  37  14  38  14  39  14
M  END
>  <minimizedAffinity>  (1) 
-5.71734905

>  <minimizedRMSD>  (1) 
0.453298062

$$$$
