
     RDKit          3D

 32 34  0  0  0  0  0  0  0  0999 V2000
   45.6540   35.0440   43.0670 C   0  0  0  0  0  0  0  0  0  0  0  0
   45.2930   34.3950   44.2480 C   0  0  0  0  0  0  0  0  0  0  0  0
   44.7270   35.1560   45.2620 C   0  0  0  0  0  0  0  0  0  0  0  0
   44.5580   36.4850   45.0360 N   0  0  0  0  0  0  0  0  0  0  0  0
   44.9070   37.0940   43.8980 C   0  0  0  0  0  0  0  0  0  0  0  0
   45.4620   36.3620   42.9020 N   0  0  0  0  0  0  0  0  0  0  0  0
   46.2410   34.3210   41.9430 C   0  0  0  0  0  0  0  0  0  0  0  0
   45.3060   33.9890   40.9590 C   0  0  0  0  0  0  0  0  0  0  0  0
   45.7160   33.2790   39.8470 C   0  0  0  0  0  0  0  0  0  0  0  0
   47.0310   32.9150   39.7260 C   0  0  0  0  0  0  0  0  0  0  0  0
   47.9520   33.2550   40.7190 C   0  0  0  0  0  0  0  0  0  0  0  0
   49.2940   32.9160   40.6290 C   0  0  0  0  0  0  0  0  0  0  0  0
   50.1510   33.3100   41.6650 C   0  0  0  0  0  0  0  0  0  0  0  0
   49.7370   34.0080   42.7590 C   0  0  0  0  0  0  0  0  0  0  0  0
   48.3940   34.3370   42.8340 C   0  0  0  0  0  0  0  0  0  0  0  0
   47.5450   33.9630   41.8330 C   0  0  0  0  0  0  0  0  0  0  0  0
   45.4790   32.9510   44.3760 C   0  0  0  0  0  0  0  0  0  0  0  0
   46.4250   32.6790   45.5240 C   0  0  0  0  0  0  0  0  0  0  0  0
   44.4257   34.6985   46.2159 H   0  0  0  0  0  0  0  0  0  0  0  0
   44.7457   38.1748   43.7721 H   0  0  0  0  0  0  0  0  0  0  0  0
   44.2537   34.2900   41.0687 H   0  0  0  0  0  0  0  0  0  0  0  0
   44.9918   33.0080   39.0646 H   0  0  0  0  0  0  0  0  0  0  0  0
   47.3634   32.3517   38.8416 H   0  0  0  0  0  0  0  0  0  0  0  0
   49.6760   32.3517   39.7655 H   0  0  0  0  0  0  0  0  0  0  0  0
   51.2151   33.0413   41.5910 H   0  0  0  0  0  0  0  0  0  0  0  0
   50.4419   34.2989   43.5518 H   0  0  0  0  0  0  0  0  0  0  0  0
   48.0120   34.8989   43.6991 H   0  0  0  0  0  0  0  0  0  0  0  0
   44.5098   32.4700   44.5742 H   0  0  0  0  0  0  0  0  0  0  0  0
   45.8980   32.5450   43.4435 H   0  0  0  0  0  0  0  0  0  0  0  0
   45.8977   32.8306   46.4774 H   0  0  0  0  0  0  0  0  0  0  0  0
   46.7845   31.6411   45.4648 H   0  0  0  0  0  0  0  0  0  0  0  0
   47.2809   33.3674   45.4648 H   0  0  0  0  0  0  0  0  0  0  0  0
  1  2  2  0
  2 17  1  0
  2  3  1  0
  4  3  2  0
  5  4  1  0
  6  1  1  0
  6  5  2  0
  7  1  1  0
  8  7  2  0
  9  8  1  0
 10  9  2  0
 10 11  1  0
 11 16  2  0
 12 11  1  0
 12 13  2  0
 13 14  1  0
 14 15  2  0
 16  7  1  0
 16 15  1  0
 17 18  1  0
  3 19  1  0
  5 20  1  0
  8 21  1  0
  9 22  1  0
 10 23  1  0
 12 24  1  0
 13 25  1  0
 14 26  1  0
 15 27  1  0
 17 28  1  0
 17 29  1  0
 18 30  1  0
 18 31  1  0
 18 32  1  0
M  ISO  8  19  14  20  14  21  14  22  14  23  14  24  14  25  14  26  14
M  ISO  6  27  14  28   8  29   8  30   8  31   8  32   8
M  END
>  <minimizedAffinity>  (1) 
-4.59452677

>  <minimizedRMSD>  (1) 
5.27808142

$$$$
