
     RDKit          3D

 29 30  0  0  0  0  0  0  0  0999 V2000
   46.0640   34.7170   43.3430 C   0  0  0  0  0  0  0  0  0  0  0  0
   46.1750   33.8120   44.4050 C   0  0  0  0  0  0  0  0  0  0  0  0
   45.4410   34.0940   45.5530 C   0  0  0  0  0  0  0  0  0  0  0  0
   44.6770   35.2180   45.5600 N   0  0  0  0  0  0  0  0  0  0  0  0
   44.5840   36.0680   44.5360 C   0  0  0  0  0  0  0  0  0  0  0  0
   45.2850   35.8180   43.4110 N   0  0  0  0  0  0  0  0  0  0  0  0
   46.7320   34.6070   42.0930 N   0  0  0  0  0  0  0  0  0  0  0  0
   46.4580   33.9390   40.8430 C   0  0  0  0  0  0  0  0  0  0  0  0
   47.5550   32.9660   40.4640 C   0  0  0  0  0  0  0  0  0  0  0  0
   48.8110   33.5640   40.5050 O   0  0  0  0  0  0  0  0  0  0  0  0
   49.0490   34.2350   41.6790 C   0  0  0  0  0  0  0  0  0  0  0  0
   48.0040   35.2990   41.9490 C   0  0  0  0  0  0  0  0  0  0  0  0
   47.0290   32.6600   44.2440 C   0  0  0  0  0  0  0  0  0  0  0  0
   46.9870   31.8440   45.5410 C   0  0  0  0  0  0  0  0  0  0  0  0
   45.4780   33.4279   46.4276 H   0  0  0  0  0  0  0  0  0  0  0  0
   43.9446   36.9602   44.6081 H   0  0  0  0  0  0  0  0  0  0  0  0
   45.5110   33.3871   40.9360 H   0  0  0  0  0  0  0  0  0  0  0  0
   46.3981   34.7050   40.0558 H   0  0  0  0  0  0  0  0  0  0  0  0
   47.3685   32.5983   39.4442 H   0  0  0  0  0  0  0  0  0  0  0  0
   47.5453   32.1392   41.1895 H   0  0  0  0  0  0  0  0  0  0  0  0
   49.0421   33.5124   42.5083 H   0  0  0  0  0  0  0  0  0  0  0  0
   50.0257   34.7335   41.5924 H   0  0  0  0  0  0  0  0  0  0  0  0
   48.2467   35.8430   42.8737 H   0  0  0  0  0  0  0  0  0  0  0  0
   47.9653   36.0330   41.1306 H   0  0  0  0  0  0  0  0  0  0  0  0
   46.6696   32.0449   43.4059 H   0  0  0  0  0  0  0  0  0  0  0  0
   48.0598   32.9795   44.0307 H   0  0  0  0  0  0  0  0  0  0  0  0
   47.0221   32.5251   46.4040 H   0  0  0  0  0  0  0  0  0  0  0  0
   46.0574   31.2568   45.5748 H   0  0  0  0  0  0  0  0  0  0  0  0
   47.8514   31.1645   45.5748 H   0  0  0  0  0  0  0  0  0  0  0  0
  1  6  1  0
  1  2  2  0
  2  3  1  0
  3  4  2  0
  5  4  1  0
  6  5  2  0
  7  1  1  0
  8  7  1  0
  9 10  1  0
  9  8  1  0
 10 11  1  0
 11 12  1  0
 12  7  1  0
 13  2  1  0
 13 14  1  0
  3 15  1  0
  5 16  1  0
  8 17  1  0
  8 18  1  0
  9 19  1  0
  9 20  1  0
 11 21  1  0
 11 22  1  0
 12 23  1  0
 12 24  1  0
 13 25  1  0
 13 26  1  0
 14 27  1  0
 14 28  1  0
 14 29  1  0
M  ISO  8  15  14  16  14  17  13  18  13  19  13  20  13  21  13  22  13
M  ISO  7  23  13  24  13  25   8  26   8  27   8  28   8  29   8
M  END
>  <minimizedAffinity>  (1) 
-4.18866491

>  <minimizedRMSD>  (1) 
4.08712387

$$$$
