
     RDKit          3D

 28 28  0  0  0  0  0  0  0  0999 V2000
   46.4540   34.4830   43.3590 C   0  0  0  0  0  0  0  0  0  0  0  0
   46.1010   33.9710   44.6290 C   0  0  0  0  0  0  0  0  0  0  0  0
   45.1080   34.6070   45.3640 C   0  0  0  0  0  0  0  0  0  0  0  0
   44.5220   35.6980   44.8190 N   0  0  0  0  0  0  0  0  0  0  0  0
   44.8440   36.1920   43.6220 C   0  0  0  0  0  0  0  0  0  0  0  0
   45.7890   35.5950   42.9130 N   0  0  0  0  0  0  0  0  0  0  0  0
   47.4790   33.8520   42.4960 C   0  0  0  0  0  0  0  0  0  0  0  0
   47.4690   34.6940   41.1820 C   0  0  0  0  0  0  0  0  0  0  0  0
   48.8860   33.9820   42.8830 C   0  0  0  0  0  0  0  0  0  0  0  0
   47.0530   32.5380   41.8900 C   0  0  0  0  0  0  0  0  0  0  0  0
   46.8080   32.8180   45.0550 C   0  0  0  0  0  0  0  0  0  0  0  0
   46.7320   32.6880   46.5630 C   0  0  0  0  0  0  0  0  0  0  0  0
   44.8085   34.2361   46.3553 H   0  0  0  0  0  0  0  0  0  0  0  0
   44.3314   37.0828   43.2300 H   0  0  0  0  0  0  0  0  0  0  0  0
   47.4563   35.7649   41.4329 H   0  0  0  0  0  0  0  0  0  0  0  0
   48.3699   34.4659   40.5935 H   0  0  0  0  0  0  0  0  0  0  0  0
   46.5738   34.4446   40.5935 H   0  0  0  0  0  0  0  0  0  0  0  0
   48.9653   33.9893   43.9801 H   0  0  0  0  0  0  0  0  0  0  0  0
   49.4572   33.1328   42.4797 H   0  0  0  0  0  0  0  0  0  0  0  0
   49.2919   34.9215   42.4797 H   0  0  0  0  0  0  0  0  0  0  0  0
   46.8210   31.8223   42.6924 H   0  0  0  0  0  0  0  0  0  0  0  0
   46.1593   32.6937   41.2678 H   0  0  0  0  0  0  0  0  0  0  0  0
   47.8681   32.1398   41.2678 H   0  0  0  0  0  0  0  0  0  0  0  0
   46.3630   31.9259   44.5900 H   0  0  0  0  0  0  0  0  0  0  0  0
   47.8621   32.9105   44.7543 H   0  0  0  0  0  0  0  0  0  0  0  0
   47.2344   33.5474   47.0309 H   0  0  0  0  0  0  0  0  0  0  0  0
   45.6778   32.6644   46.8763 H   0  0  0  0  0  0  0  0  0  0  0  0
   47.2286   31.7578   46.8763 H   0  0  0  0  0  0  0  0  0  0  0  0
  1  2  2  0
  2 11  1  0
  2  3  1  0
  4  3  2  0
  5  4  1  0
  6  1  1  0
  6  5  2  0
  7  9  1  0
  7  1  1  0
  8  7  1  0
 10  7  1  0
 11 12  1  0
  3 13  1  0
  5 14  1  0
  8 15  1  0
  8 16  1  0
  8 17  1  0
  9 18  1  0
  9 19  1  0
  9 20  1  0
 10 21  1  0
 10 22  1  0
 10 23  1  0
 11 24  1  0
 11 25  1  0
 12 26  1  0
 12 27  1  0
 12 28  1  0
M  ISO  8  13  14  14  14  15   8  16   8  17   8  18   8  19   8  20   8
M  ISO  8  21   8  22   8  23   8  24   8  25   8  26   8  27   8  28   8
M  END
>  <minimizedAffinity>  (1) 
-3.97644472

>  <minimizedRMSD>  (1) 
3.90172529

$$$$
