
     RDKit          3D

 19 19  0  0  0  0  0  0  0  0999 V2000
   45.6590   34.6850   43.8690 C   0  0  0  0  0  0  0  0  0  0  0  0
   46.7590   34.2210   43.1050 C   0  0  0  0  0  0  0  0  0  0  0  0
   47.5570   33.2270   43.6610 C   0  0  0  0  0  0  0  0  0  0  0  0
   47.2380   32.7580   44.8980 N   0  0  0  0  0  0  0  0  0  0  0  0
   46.1870   33.2140   45.6050 C   0  0  0  0  0  0  0  0  0  0  0  0
   45.4050   34.1660   45.0980 N   0  0  0  0  0  0  0  0  0  0  0  0
   44.7470   35.7530   43.3560 C   0  0  0  0  0  0  0  0  0  0  0  0
   43.7390   35.9950   44.2700 F   0  0  0  0  0  0  0  0  0  0  0  0
   45.4040   36.9790   43.2340 F   0  0  0  0  0  0  0  0  0  0  0  0
   44.1420   35.3800   42.1710 F   0  0  0  0  0  0  0  0  0  0  0  0
   46.9970   34.7900   41.7970 C   0  0  0  0  0  0  0  0  0  0  0  0
   48.3920   35.3780   41.7640 C   0  0  0  0  0  0  0  0  0  0  0  0
   48.4248   32.8296   43.1143 H   0  0  0  0  0  0  0  0  0  0  0  0
   45.9738   32.8004   46.6017 H   0  0  0  0  0  0  0  0  0  0  0  0
   46.9090   34.0051   41.0314 H   0  0  0  0  0  0  0  0  0  0  0  0
   46.2561   35.5769   41.5926 H   0  0  0  0  0  0  0  0  0  0  0  0
   48.7506   35.5292   42.7929 H   0  0  0  0  0  0  0  0  0  0  0  0
   49.0682   34.6884   41.2376 H   0  0  0  0  0  0  0  0  0  0  0  0
   48.3705   36.3436   41.2376 H   0  0  0  0  0  0  0  0  0  0  0  0
  1  6  2  0
  2  3  2  0
  2  1  1  0
  3  4  1  0
  4  5  2  0
  6  5  1  0
  7  1  1  0
  7  8  1  0
  9  7  1  0
 10  7  1  0
 11  2  1  0
 12 11  1  0
  3 13  1  0
  5 14  1  0
 11 15  1  0
 11 16  1  0
 12 17  1  0
 12 18  1  0
 12 19  1  0
M  ISO  7  13  14  14  14  15   8  16   8  17   8  18   8  19   8
M  END
>  <minimizedAffinity>  (1) 
-4.19329357

>  <minimizedRMSD>  (1) 
0.760344565

$$$$
