
     RDKit          3D

 27 29  0  0  0  0  0  0  0  0999 V2000
   46.9800   33.0040   43.7470 C   0  0  0  0  0  0  0  0  0  0  0  0
   46.2540   34.1520   43.4000 C   0  0  0  0  0  0  0  0  0  0  0  0
   46.9120   35.1300   42.6590 C   0  0  0  0  0  0  0  0  0  0  0  0
   48.2120   34.9260   42.3140 N   0  0  0  0  0  0  0  0  0  0  0  0
   48.8810   33.8020   42.6700 C   0  0  0  0  0  0  0  0  0  0  0  0
   48.2710   32.8340   43.3870 N   0  0  0  0  0  0  0  0  0  0  0  0
   46.4280   31.9280   44.5020 N   0  0  0  0  0  0  0  0  0  0  0  0
   45.7400   30.8050   44.1500 C   0  0  0  0  0  0  0  0  0  0  0  0
   45.4450   30.1140   45.2670 N   0  0  0  0  0  0  0  0  0  0  0  0
   45.9420   30.7880   46.3350 C   0  0  0  0  0  0  0  0  0  0  0  0
   45.8750   30.4510   47.6740 C   0  0  0  0  0  0  0  0  0  0  0  0
   46.4470   31.2820   48.5890 N   0  0  0  0  0  0  0  0  0  0  0  0
   47.0470   32.3960   48.0870 C   0  0  0  0  0  0  0  0  0  0  0  0
   47.0950   32.6940   46.7910 N   0  0  0  0  0  0  0  0  0  0  0  0
   46.5580   31.9300   45.8380 C   0  0  0  0  0  0  0  0  0  0  0  0
   44.8770   34.2630   43.8200 C   0  0  0  0  0  0  0  0  0  0  0  0
   44.7960   35.2470   44.9840 C   0  0  0  0  0  0  0  0  0  0  0  0
   46.3904   36.0505   42.3581 H   0  0  0  0  0  0  0  0  0  0  0  0
   49.9323   33.6772   42.3715 H   0  0  0  0  0  0  0  0  0  0  0  0
   45.4708   30.5123   43.1244 H   0  0  0  0  0  0  0  0  0  0  0  0
   45.3689   29.5285   47.9946 H   0  0  0  0  0  0  0  0  0  0  0  0
   47.5207   33.0917   48.7953 H   0  0  0  0  0  0  0  0  0  0  0  0
   44.2635   34.6286   42.9833 H   0  0  0  0  0  0  0  0  0  0  0  0
   44.5019   33.2784   44.1360 H   0  0  0  0  0  0  0  0  0  0  0  0
   44.8414   34.6952   45.9345 H   0  0  0  0  0  0  0  0  0  0  0  0
   45.6392   35.9512   44.9282 H   0  0  0  0  0  0  0  0  0  0  0  0
   43.8490   35.8038   44.9282 H   0  0  0  0  0  0  0  0  0  0  0  0
  1  7  1  0
  2  1  2  0
  2 16  1  0
  3  2  1  0
  4  3  2  0
  4  5  1  0
  5  6  2  0
  6  1  1  0
  7 15  1  0
  8  7  1  0
  8  9  2  0
  9 10  1  0
 10 11  2  0
 11 12  1  0
 13 12  2  0
 14 13  1  0
 15 10  1  0
 15 14  2  0
 16 17  1  0
  3 18  1  0
  5 19  1  0
  8 20  1  0
 11 21  1  0
 13 22  1  0
 16 23  1  0
 16 24  1  0
 17 25  1  0
 17 26  1  0
 17 27  1  0
M  ISO  8  18  14  19  14  20  14  21  14  22  14  23   8  24   8  25   8
M  ISO  2  26   8  27   8
M  END
>  <minimizedAffinity>  (1) 
-4.07972574

>  <minimizedRMSD>  (1) 
6.25248814

$$$$
