
     RDKit          3D

 17 17  0  0  0  0  0  0  0  0999 V2000
   45.8480   34.7520   43.8370 C   0  0  0  0  0  0  0  0  0  0  0  0
   46.9430   34.2760   43.1070 C   0  0  0  0  0  0  0  0  0  0  0  0
   47.6470   33.1960   43.6310 C   0  0  0  0  0  0  0  0  0  0  0  0
   47.2370   32.6650   44.8180 N   0  0  0  0  0  0  0  0  0  0  0  0
   46.1710   33.1550   45.4970 C   0  0  0  0  0  0  0  0  0  0  0  0
   45.4850   34.1900   45.0070 N   0  0  0  0  0  0  0  0  0  0  0  0
   47.2890   34.9120   41.8590 C   0  0  0  0  0  0  0  0  0  0  0  0
   48.7500   35.3230   41.8880 C   0  0  0  0  0  0  0  0  0  0  0  0
   44.9220   36.1430   43.1850 S   0  0  0  0  0  0  0  0  0  0  0  0
   48.5153   32.7798   43.0992 H   0  0  0  0  0  0  0  0  0  0  0  0
   45.8711   32.6995   46.4523 H   0  0  0  0  0  0  0  0  0  0  0  0
   46.6603   35.8031   41.7150 H   0  0  0  0  0  0  0  0  0  0  0  0
   47.1228   34.2079   41.0304 H   0  0  0  0  0  0  0  0  0  0  0  0
   49.0838   35.4169   42.9319 H   0  0  0  0  0  0  0  0  0  0  0  0
   49.3557   34.5604   41.3766 H   0  0  0  0  0  0  0  0  0  0  0  0
   48.8692   36.2895   41.3766 H   0  0  0  0  0  0  0  0  0  0  0  0
   44.4261   36.8880   44.2223 H   0  0  0  0  0  0  0  0  0  0  0  0
  1  6  2  0
  2  3  2  0
  2  1  1  0
  3  4  1  0
  4  5  2  0
  6  5  1  0
  7  8  1  0
  7  2  1  0
  9  1  1  0
  3 10  1  0
  5 11  1  0
  7 12  1  0
  7 13  1  0
  8 14  1  0
  8 15  1  0
  8 16  1  0
  9 17  1  0
M  ISO  8  10  14  11  14  12   8  13   8  14   8  15   8  16   8  17  11
M  END
>  <minimizedAffinity>  (1) 
-3.19177628

>  <minimizedRMSD>  (1) 
0.892864466

$$$$
