
     RDKit          3D

 19 19  0  0  0  0  0  0  0  0999 V2000
   45.6130   34.9860   43.8530 C   0  0  0  0  0  0  0  0  0  0  0  0
   46.7160   34.3910   43.2070 C   0  0  0  0  0  0  0  0  0  0  0  0
   47.3590   33.3510   43.8540 C   0  0  0  0  0  0  0  0  0  0  0  0
   46.8820   32.9700   45.0790 N   0  0  0  0  0  0  0  0  0  0  0  0
   45.8320   33.5500   45.6740 C   0  0  0  0  0  0  0  0  0  0  0  0
   45.1870   34.5610   45.0720 N   0  0  0  0  0  0  0  0  0  0  0  0
   47.1100   34.8920   41.9150 C   0  0  0  0  0  0  0  0  0  0  0  0
   48.5850   35.2160   41.9380 C   0  0  0  0  0  0  0  0  0  0  0  0
   44.9100   36.1180   43.1530 C   0  0  0  0  0  0  0  0  0  0  0  0
   48.2246   32.8471   43.3992 H   0  0  0  0  0  0  0  0  0  0  0  0
   45.4968   33.1963   46.6602 H   0  0  0  0  0  0  0  0  0  0  0  0
   46.5369   35.8016   41.6825 H   0  0  0  0  0  0  0  0  0  0  0  0
   46.9102   34.1309   41.1463 H   0  0  0  0  0  0  0  0  0  0  0  0
   48.9277   35.2913   42.9806 H   0  0  0  0  0  0  0  0  0  0  0  0
   49.1435   34.4191   41.4251 H   0  0  0  0  0  0  0  0  0  0  0  0
   48.7581   36.1736   41.4251 H   0  0  0  0  0  0  0  0  0  0  0  0
   44.4843   36.8035   43.9006 H   0  0  0  0  0  0  0  0  0  0  0  0
   45.6290   36.6627   42.5234 H   0  0  0  0  0  0  0  0  0  0  0  0
   44.1030   35.7151   42.5234 H   0  0  0  0  0  0  0  0  0  0  0  0
  1  6  2  0
  2  1  1  0
  2  3  2  0
  3  4  1  0
  4  5  2  0
  6  5  1  0
  7  8  1  0
  7  2  1  0
  9  1  1  0
  3 10  1  0
  5 11  1  0
  7 12  1  0
  7 13  1  0
  8 14  1  0
  8 15  1  0
  8 16  1  0
  9 17  1  0
  9 18  1  0
  9 19  1  0
M  ISO  8  10  14  11  14  12   8  13   8  14   8  15   8  16   8  17   8
M  ISO  2  18   8  19   8
M  END
>  <minimizedAffinity>  (1) 
-3.42481232

>  <minimizedRMSD>  (1) 
0.537157059

$$$$
