
     RDKit          3D

 37 39  0  0  0  0  0  0  0  0999 V2000
   46.3420   33.1620   42.4710 C   0  0  0  0  0  0  0  0  0  0  0  0
   44.9640   35.0210   43.2860 C   0  0  0  0  0  0  0  0  0  0  0  0
   45.7500   33.9070   43.5410 C   0  0  0  0  0  0  0  0  0  0  0  0
   45.9270   33.5540   44.8830 C   0  0  0  0  0  0  0  0  0  0  0  0
   45.3230   34.3190   45.8590 N   0  0  0  0  0  0  0  0  0  0  0  0
   44.5700   35.3910   45.5650 C   0  0  0  0  0  0  0  0  0  0  0  0
   44.3890   35.7430   44.2870 N   0  0  0  0  0  0  0  0  0  0  0  0
   44.6800   35.5200   41.9890 N   0  0  0  0  0  0  0  0  0  0  0  0
   43.3640   35.4330   41.3870 C   0  0  0  0  0  0  0  0  0  0  0  0
   42.3380   35.3340   42.2130 N   0  0  0  0  0  0  0  0  0  0  0  0
   43.1640   35.4500   39.9610 N   0  0  0  0  0  0  0  0  0  0  0  0
   41.4050   35.2840   41.7760 H   0  0  0  0  0  0  0  0  0  0  0  0
   47.7210   33.7740   42.1640 C   0  0  0  0  0  0  0  0  0  0  0  0
   48.4780   32.9000   41.2610 C   0  0  0  0  0  0  0  0  0  0  0  0
   49.0940   31.7880   41.7610 N   0  0  0  0  0  0  0  0  0  0  0  0
   49.7860   30.9390   40.9840 C   0  0  0  0  0  0  0  0  0  0  0  0
   49.9410   31.0990   39.6470 N   0  0  0  0  0  0  0  0  0  0  0  0
   49.3490   32.1870   39.1100 C   0  0  0  0  0  0  0  0  0  0  0  0
   49.4830   32.3960   37.7610 C   0  0  0  0  0  0  0  0  0  0  0  0
   48.9020   33.5040   37.1500 C   0  0  0  0  0  0  0  0  0  0  0  0
   48.1920   34.3670   37.9760 C   0  0  0  0  0  0  0  0  0  0  0  0
   48.0710   34.1410   39.3150 C   0  0  0  0  0  0  0  0  0  0  0  0
   48.6360   33.0600   39.9180 C   0  0  0  0  0  0  0  0  0  0  0  0
   46.4597   32.1101   42.7703 H   0  0  0  0  0  0  0  0  0  0  0  0
   45.7005   33.2039   41.5784 H   0  0  0  0  0  0  0  0  0  0  0  0
   46.5378   32.6807   45.1555 H   0  0  0  0  0  0  0  0  0  0  0  0
   44.1042   35.9770   46.3710 H   0  0  0  0  0  0  0  0  0  0  0  0
   45.4400   35.9624   41.4528 H   0  0  0  0  0  0  0  0  0  0  0  0
   42.2117   35.3860   39.5737 H   0  0  0  0  0  0  0  0  0  0  0  0
   43.9732   35.5262   39.3283 H   0  0  0  0  0  0  0  0  0  0  0  0
   47.5840   34.7560   41.6877 H   0  0  0  0  0  0  0  0  0  0  0  0
   48.2798   33.8854   43.1049 H   0  0  0  0  0  0  0  0  0  0  0  0
   50.2535   30.0642   41.4595 H   0  0  0  0  0  0  0  0  0  0  0  0
   50.0564   31.6795   37.1545 H   0  0  0  0  0  0  0  0  0  0  0  0
   48.9999   33.6867   36.0697 H   0  0  0  0  0  0  0  0  0  0  0  0
   47.7150   35.2561   37.5378 H   0  0  0  0  0  0  0  0  0  0  0  0
   47.4991   34.8544   39.9266 H   0  0  0  0  0  0  0  0  0  0  0  0
  1  3  1  0
  2  3  2  0
  2  7  1  0
  3  4  1  0
  4  5  2  0
  6  5  1  0
  7  6  2  0
  8  2  1  0
  9  8  1  0
  9 10  2  0
 11  9  1  0
 12 10  1  0
 13  1  1  0
 14 15  2  0
 14 13  1  0
 16 15  1  0
 17 16  2  0
 18 17  1  0
 18 23  2  0
 19 18  1  0
 20 19  2  0
 20 21  1  0
 21 22  2  0
 22 23  1  0
 23 14  1  0
  1 24  1  0
  1 25  1  0
  4 26  1  0
  6 27  1  0
  8 28  1  0
 11 29  1  0
 11 30  1  0
 13 31  1  0
 13 32  1  0
 16 33  1  0
 19 34  1  0
 20 35  1  0
 21 36  1  0
 22 37  1  0
M  ISO  8  24   8  25   8  26  14  27  14  31   8  32   8  33  14  34  14
M  ISO  3  35  14  36  14  37  14
M  END
>  <minimizedAffinity>  (1) 
-5.55349255

>  <minimizedRMSD>  (1) 
1.37559092

$$$$
