
     RDKit          3D

 36 37  0  0  0  0  0  0  0  0999 V2000
   45.1400   35.0040   43.5960 C   0  0  0  0  0  0  0  0  0  0  0  0
   46.0290   33.9550   43.8730 C   0  0  0  0  0  0  0  0  0  0  0  0
   46.1310   33.5560   45.1900 C   0  0  0  0  0  0  0  0  0  0  0  0
   45.3680   34.2000   46.1350 N   0  0  0  0  0  0  0  0  0  0  0  0
   44.5240   35.2040   45.8360 C   0  0  0  0  0  0  0  0  0  0  0  0
   44.4150   35.6000   44.5670 N   0  0  0  0  0  0  0  0  0  0  0  0
   44.9000   35.5530   42.2880 N   0  0  0  0  0  0  0  0  0  0  0  0
   43.6330   35.4400   41.6270 C   0  0  0  0  0  0  0  0  0  0  0  0
   42.5740   35.2680   42.3720 N   0  0  0  0  0  0  0  0  0  0  0  0
   43.5210   35.5130   40.1820 N   0  0  0  0  0  0  0  0  0  0  0  0
   41.6560   35.1910   41.8790 H   0  0  0  0  0  0  0  0  0  0  0  0
   46.7670   33.3660   42.7970 C   0  0  0  0  0  0  0  0  0  0  0  0
   48.1620   34.0250   42.7350 C   0  0  0  0  0  0  0  0  0  0  0  0
   50.8620   31.7510   40.4240 C   0  0  0  0  0  0  0  0  0  0  0  0
   51.2510   32.3460   41.6060 C   0  0  0  0  0  0  0  0  0  0  0  0
   50.3180   33.0880   42.3310 C   0  0  0  0  0  0  0  0  0  0  0  0
   49.0260   33.2190   41.8680 C   0  0  0  0  0  0  0  0  0  0  0  0
   48.6400   32.6300   40.6970 C   0  0  0  0  0  0  0  0  0  0  0  0
   49.5640   31.9010   39.9880 C   0  0  0  0  0  0  0  0  0  0  0  0
   52.0940   30.8350   39.5710 S   0  0  0  0  0  0  0  0  0  0  0  0
   51.8640   29.3510   39.7070 O   0  0  0  0  0  0  0  0  0  0  0  0
   53.4640   31.1870   40.0820 O   0  0  0  0  0  0  0  0  0  0  0  0
   46.8091   32.7391   45.4779 H   0  0  0  0  0  0  0  0  0  0  0  0
   43.9330   35.6908   46.6258 H   0  0  0  0  0  0  0  0  0  0  0  0
   45.6671   36.0456   41.8086 H   0  0  0  0  0  0  0  0  0  0  0  0
   42.5983   35.4288   39.7321 H   0  0  0  0  0  0  0  0  0  0  0  0
   44.3642   35.6490   39.6063 H   0  0  0  0  0  0  0  0  0  0  0  0
   46.8755   32.2852   42.9705 H   0  0  0  0  0  0  0  0  0  0  0  0
   46.2352   33.5237   41.8471 H   0  0  0  0  0  0  0  0  0  0  0  0
   48.0727   35.0421   42.3257 H   0  0  0  0  0  0  0  0  0  0  0  0
   48.5941   34.0820   43.7450 H   0  0  0  0  0  0  0  0  0  0  0  0
   52.2826   32.2370   41.9720 H   0  0  0  0  0  0  0  0  0  0  0  0
   50.6141   33.5698   43.2745 H   0  0  0  0  0  0  0  0  0  0  0  0
   47.6090   32.7374   40.3289 H   0  0  0  0  0  0  0  0  0  0  0  0
   49.2585   31.4235   39.0453 H   0  0  0  0  0  0  0  0  0  0  0  0
   52.0115   31.1662   38.2442 H   0  0  0  0  0  0  0  0  0  0  0  0
  1  2  2  0
  1  6  1  0
  2  3  1  0
  3  4  2  0
  5  4  1  0
  6  5  2  0
  7  1  1  0
  8  7  1  0
  8  9  2  0
 10  8  1  0
 11  9  1  0
 12  2  1  0
 13 12  1  0
 14 15  2  0
 15 16  1  0
 17 16  2  0
 17 13  1  0
 18 17  1  0
 19 14  1  0
 19 18  2  0
 20 21  2  0
 20 22  2  0
 20 14  1  0
  3 23  1  0
  5 24  1  0
  7 25  1  0
 10 26  1  0
 10 27  1  0
 12 28  1  0
 12 29  1  0
 13 30  1  0
 13 31  1  0
 15 32  1  0
 16 33  1  0
 18 34  1  0
 19 35  1  0
 20 36  1  0
M  ISO  8  23  14  24  14  28   8  29   8  30   8  31   8  32  14  33  14
M  ISO  3  34  14  35  14  36  11
M  END
>  <minimizedAffinity>  (1) 
-5.18774939

>  <minimizedRMSD>  (1) 
0.573404431

$$$$
