
     RDKit          3D

 33 34  0  0  0  0  0  0  0  0999 V2000
   44.7750   35.3580   43.1360 C   0  0  0  0  0  0  0  0  0  0  0  0
   45.8750   34.4860   43.1130 C   0  0  0  0  0  0  0  0  0  0  0  0
   46.3330   34.0020   44.3230 C   0  0  0  0  0  0  0  0  0  0  0  0
   45.6970   34.3970   45.4710 N   0  0  0  0  0  0  0  0  0  0  0  0
   44.6350   35.2400   45.4680 C   0  0  0  0  0  0  0  0  0  0  0  0
   44.1940   35.7050   44.3040 N   0  0  0  0  0  0  0  0  0  0  0  0
   44.1750   35.9460   41.9910 N   0  0  0  0  0  0  0  0  0  0  0  0
   43.1270   35.2990   41.2400 C   0  0  0  0  0  0  0  0  0  0  0  0
   42.4100   34.3970   41.8740 N   0  0  0  0  0  0  0  0  0  0  0  0
   42.8540   35.6040   39.8580 N   0  0  0  0  0  0  0  0  0  0  0  0
   41.6460   33.9370   41.3280 H   0  0  0  0  0  0  0  0  0  0  0  0
   46.4600   34.1470   41.8360 C   0  0  0  0  0  0  0  0  0  0  0  0
   47.7020   35.0150   41.6200 C   0  0  0  0  0  0  0  0  0  0  0  0
   48.8640   34.0830   41.6000 C   0  0  0  0  0  0  0  0  0  0  0  0
   49.9590   34.2850   42.4490 C   0  0  0  0  0  0  0  0  0  0  0  0
   51.0100   33.4020   42.3990 C   0  0  0  0  0  0  0  0  0  0  0  0
   50.9640   32.3390   41.5160 C   0  0  0  0  0  0  0  0  0  0  0  0
   49.8690   32.1410   40.6700 C   0  0  0  0  0  0  0  0  0  0  0  0
   48.8020   33.0240   40.7100 C   0  0  0  0  0  0  0  0  0  0  0  0
   47.1902   33.3139   44.3643 H   0  0  0  0  0  0  0  0  0  0  0  0
   44.1484   35.5330   46.4100 H   0  0  0  0  0  0  0  0  0  0  0  0
   44.5018   36.8733   41.6839 H   0  0  0  0  0  0  0  0  0  0  0  0
   43.4181   36.3112   39.3655 H   0  0  0  0  0  0  0  0  0  0  0  0
   42.0948   35.1148   39.3629 H   0  0  0  0  0  0  0  0  0  0  0  0
   46.7451   33.0846   41.8297 H   0  0  0  0  0  0  0  0  0  0  0  0
   45.7324   34.3263   41.0307 H   0  0  0  0  0  0  0  0  0  0  0  0
   47.6289   35.5535   40.6636 H   0  0  0  0  0  0  0  0  0  0  0  0
   47.8069   35.7684   42.4146 H   0  0  0  0  0  0  0  0  0  0  0  0
   49.9773   35.1369   43.1447 H   0  0  0  0  0  0  0  0  0  0  0  0
   51.8813   33.5395   43.0562 H   0  0  0  0  0  0  0  0  0  0  0  0
   51.8074   31.6338   41.4784 H   0  0  0  0  0  0  0  0  0  0  0  0
   49.8545   31.2880   39.9756 H   0  0  0  0  0  0  0  0  0  0  0  0
   47.9302   32.8876   40.0532 H   0  0  0  0  0  0  0  0  0  0  0  0
  1  6  2  0
  2  1  1  0
  2  3  2  0
  3  4  1  0
  5  4  2  0
  6  5  1  0
  7  1  1  0
  8  9  2  0
  8  7  1  0
 10  8  1  0
 11  9  1  0
 12  2  1  0
 13 12  1  0
 14 13  1  0
 14 15  2  0
 16 15  1  0
 17 16  2  0
 18 19  2  0
 18 17  1  0
 19 14  1  0
  3 20  1  0
  5 21  1  0
  7 22  1  0
 10 23  1  0
 10 24  1  0
 12 25  1  0
 12 26  1  0
 13 27  1  0
 13 28  1  0
 15 29  1  0
 16 30  1  0
 17 31  1  0
 18 32  1  0
 19 33  1  0
M  ISO  8  20  14  21  14  25   8  26   8  27   8  28   8  29  14  30  14
M  ISO  3  31  14  32  14  33  14
M  END
>  <minimizedAffinity>  (1) 
-5.38809347

>  <minimizedRMSD>  (1) 
1.28889513

$$$$
