
     RDKit          3D

 30 31  0  0  0  0  0  0  0  0999 V2000
   45.2220   34.9940   43.5330 C   0  0  0  0  0  0  0  0  0  0  0  0
   46.1670   33.9980   43.7630 C   0  0  0  0  0  0  0  0  0  0  0  0
   46.3190   33.5560   45.0660 C   0  0  0  0  0  0  0  0  0  0  0  0
   45.5390   34.1170   46.0510 N   0  0  0  0  0  0  0  0  0  0  0  0
   44.6300   35.0880   45.7860 C   0  0  0  0  0  0  0  0  0  0  0  0
   44.4790   35.5130   44.5470 N   0  0  0  0  0  0  0  0  0  0  0  0
   44.9400   35.5650   42.2510 N   0  0  0  0  0  0  0  0  0  0  0  0
   43.6650   35.4210   41.6190 C   0  0  0  0  0  0  0  0  0  0  0  0
   42.6190   35.1750   42.3890 N   0  0  0  0  0  0  0  0  0  0  0  0
   43.4940   35.5380   40.1840 N   0  0  0  0  0  0  0  0  0  0  0  0
   41.7070   35.0940   41.9140 H   0  0  0  0  0  0  0  0  0  0  0  0
   46.9250   33.4750   42.6770 C   0  0  0  0  0  0  0  0  0  0  0  0
   48.4170   33.6780   42.9430 C   0  0  0  0  0  0  0  0  0  0  0  0
   48.9700   34.2270   41.6470 C   0  0  0  0  0  0  0  0  0  0  0  0
   48.9260   35.7260   41.5370 C   0  0  0  0  0  0  0  0  0  0  0  0
   48.1370   34.8330   40.6100 C   0  0  0  0  0  0  0  0  0  0  0  0
   47.0499   32.7708   45.3095 H   0  0  0  0  0  0  0  0  0  0  0  0
   44.0241   35.5172   46.5975 H   0  0  0  0  0  0  0  0  0  0  0  0
   45.6786   36.0964   41.7684 H   0  0  0  0  0  0  0  0  0  0  0  0
   42.5591   35.4278   39.7661 H   0  0  0  0  0  0  0  0  0  0  0  0
   44.3075   35.7313   39.5825 H   0  0  0  0  0  0  0  0  0  0  0  0
   46.6446   33.9976   41.7506 H   0  0  0  0  0  0  0  0  0  0  0  0
   46.7171   32.3998   42.5729 H   0  0  0  0  0  0  0  0  0  0  0  0
   48.5702   34.3942   43.7638 H   0  0  0  0  0  0  0  0  0  0  0  0
   48.9154   32.7449   43.2446 H   0  0  0  0  0  0  0  0  0  0  0  0
   49.7139   33.4187   41.5896 H   0  0  0  0  0  0  0  0  0  0  0  0
   48.4113   36.3242   42.3033 H   0  0  0  0  0  0  0  0  0  0  0  0
   49.6664   36.5306   41.4170 H   0  0  0  0  0  0  0  0  0  0  0  0
   47.0410   34.7893   40.6927 H   0  0  0  0  0  0  0  0  0  0  0  0
   48.0619   34.7259   39.5178 H   0  0  0  0  0  0  0  0  0  0  0  0
  1  2  2  0
  1  6  1  0
  2  3  1  0
  3  4  2  0
  5  4  1  0
  6  5  2  0
  7  1  1  0
  8  7  1  0
  8  9  2  0
 10  8  1  0
 11  9  1  0
 12 13  1  0
 12  2  1  0
 14 13  1  0
 15 14  1  0
 16 15  1  0
 16 14  1  0
  3 17  1  0
  5 18  1  0
  7 19  1  0
 10 20  1  0
 10 21  1  0
 12 22  1  0
 12 23  1  0
 13 24  1  0
 13 25  1  0
 14 26  1  0
 15 27  1  0
 15 28  1  0
 16 29  1  0
 16 30  1  0
M  ISO  8  17  14  18  14  22   8  23   8  24   8  25   8  26  13  27  13
M  ISO  3  28  13  29  13  30  13
M  END
>  <minimizedAffinity>  (1) 
-5.02778673

>  <minimizedRMSD>  (1) 
0.973894954

$$$$
