
     RDKit          3D

 36 37  0  0  0  0  0  0  0  0999 V2000
   45.1960   34.9790   43.6100 C   0  0  0  0  0  0  0  0  0  0  0  0
   46.0630   33.9230   43.9310 C   0  0  0  0  0  0  0  0  0  0  0  0
   46.1240   33.5400   45.2540 C   0  0  0  0  0  0  0  0  0  0  0  0
   45.3550   34.1880   46.1720 N   0  0  0  0  0  0  0  0  0  0  0  0
   44.5260   35.2020   45.8430 C   0  0  0  0  0  0  0  0  0  0  0  0
   44.4470   35.5940   44.5740 N   0  0  0  0  0  0  0  0  0  0  0  0
   44.9980   35.5150   42.2920 N   0  0  0  0  0  0  0  0  0  0  0  0
   43.7410   35.4020   41.6010 C   0  0  0  0  0  0  0  0  0  0  0  0
   42.6550   35.2460   42.3430 N   0  0  0  0  0  0  0  0  0  0  0  0
   43.6480   35.4530   40.1610 N   0  0  0  0  0  0  0  0  0  0  0  0
   41.7560   35.1350   41.8130 H   0  0  0  0  0  0  0  0  0  0  0  0
   46.8300   33.3260   42.8610 C   0  0  0  0  0  0  0  0  0  0  0  0
   48.2490   33.8990   42.9080 C   0  0  0  0  0  0  0  0  0  0  0  0
   49.0690   33.0970   42.0860 N   0  0  0  0  0  0  0  0  0  0  0  0
   50.4590   33.1740   42.2500 C   0  0  0  0  0  0  0  0  0  0  0  0
   51.2300   32.1700   41.4300 C   0  0  0  0  0  0  0  0  0  0  0  0
   50.6780   31.9030   40.2060 O   0  0  0  0  0  0  0  0  0  0  0  0
   49.4030   31.3720   40.3980 C   0  0  0  0  0  0  0  0  0  0  0  0
   48.5390   32.5070   40.9340 C   0  0  0  0  0  0  0  0  0  0  0  0
   46.7872   32.7193   45.5648 H   0  0  0  0  0  0  0  0  0  0  0  0
   43.9220   35.6989   46.6165 H   0  0  0  0  0  0  0  0  0  0  0  0
   45.7811   35.9957   41.8266 H   0  0  0  0  0  0  0  0  0  0  0  0
   42.7304   35.3686   39.7009 H   0  0  0  0  0  0  0  0  0  0  0  0
   44.4993   35.5738   39.5939 H   0  0  0  0  0  0  0  0  0  0  0  0
   46.3650   33.5635   41.8928 H   0  0  0  0  0  0  0  0  0  0  0  0
   46.8589   32.2328   42.9800 H   0  0  0  0  0  0  0  0  0  0  0  0
   48.2463   34.9344   42.5365 H   0  0  0  0  0  0  0  0  0  0  0  0
   48.6272   33.9005   43.9409 H   0  0  0  0  0  0  0  0  0  0  0  0
   50.7863   34.1829   41.9586 H   0  0  0  0  0  0  0  0  0  0  0  0
   50.6677   32.9496   43.3064 H   0  0  0  0  0  0  0  0  0  0  0  0
   52.2461   32.5607   41.2724 H   0  0  0  0  0  0  0  0  0  0  0  0
   51.2193   31.2259   41.9944 H   0  0  0  0  0  0  0  0  0  0  0  0
   48.9973   31.0030   39.4445 H   0  0  0  0  0  0  0  0  0  0  0  0
   49.4261   30.5241   41.0984 H   0  0  0  0  0  0  0  0  0  0  0  0
   48.4490   33.2779   40.1545 H   0  0  0  0  0  0  0  0  0  0  0  0
   47.5614   32.0796   41.2018 H   0  0  0  0  0  0  0  0  0  0  0  0
  1  2  2  0
  1  6  1  0
  2  3  1  0
  3  4  2  0
  5  4  1  0
  6  5  2  0
  7  1  1  0
  8  7  1  0
  8  9  2  0
 10  8  1  0
 11  9  1  0
 12 13  1  0
 12  2  1  0
 14 15  1  0
 14 13  1  0
 16 15  1  0
 17 18  1  0
 17 16  1  0
 18 19  1  0
 19 14  1  0
  3 20  1  0
  5 21  1  0
  7 22  1  0
 10 23  1  0
 10 24  1  0
 12 25  1  0
 12 26  1  0
 13 27  1  0
 13 28  1  0
 15 29  1  0
 15 30  1  0
 16 31  1  0
 16 32  1  0
 18 33  1  0
 18 34  1  0
 19 35  1  0
 19 36  1  0
M  ISO  8  20  14  21  14  25   8  26   8  27   8  28   8  29  13  30  13
M  ISO  6  31  13  32  13  33  13  34  13  35  13  36  13
M  END
>  <minimizedAffinity>  (1) 
-4.76991558

>  <minimizedRMSD>  (1) 
0.681223631

$$$$
