
     RDKit          3D

 31 32  0  0  0  0  0  0  0  0999 V2000
   45.1260   34.9920   43.5570 C   0  0  0  0  0  0  0  0  0  0  0  0
   46.0020   33.9410   43.8420 C   0  0  0  0  0  0  0  0  0  0  0  0
   46.1130   33.5560   45.1640 C   0  0  0  0  0  0  0  0  0  0  0  0
   45.3750   34.2080   46.1120 N   0  0  0  0  0  0  0  0  0  0  0  0
   44.5340   35.2210   45.8040 C   0  0  0  0  0  0  0  0  0  0  0  0
   44.4200   35.5980   44.5430 N   0  0  0  0  0  0  0  0  0  0  0  0
   44.8890   35.5170   42.2450 N   0  0  0  0  0  0  0  0  0  0  0  0
   43.6100   35.4270   41.6020 C   0  0  0  0  0  0  0  0  0  0  0  0
   42.5550   35.2700   42.3650 N   0  0  0  0  0  0  0  0  0  0  0  0
   43.4890   35.5070   40.1570 N   0  0  0  0  0  0  0  0  0  0  0  0
   41.6430   35.2140   41.8670 H   0  0  0  0  0  0  0  0  0  0  0  0
   46.7350   33.3240   42.7590 C   0  0  0  0  0  0  0  0  0  0  0  0
   48.1270   33.9590   42.7110 C   0  0  0  0  0  0  0  0  0  0  0  0
   49.0450   33.1800   41.8620 C   0  0  0  0  0  0  0  0  0  0  0  0
   50.3450   33.0300   42.2980 C   0  0  0  0  0  0  0  0  0  0  0  0
   51.2730   32.3170   41.5690 C   0  0  0  0  0  0  0  0  0  0  0  0
   50.9000   31.7530   40.3990 N   0  0  0  0  0  0  0  0  0  0  0  0
   49.6250   31.8980   39.9660 C   0  0  0  0  0  0  0  0  0  0  0  0
   48.7230   32.6030   40.6980 N   0  0  0  0  0  0  0  0  0  0  0  0
   46.7868   32.7350   45.4502 H   0  0  0  0  0  0  0  0  0  0  0  0
   43.9535   35.7236   46.5916 H   0  0  0  0  0  0  0  0  0  0  0  0
   45.6647   35.9753   41.7459 H   0  0  0  0  0  0  0  0  0  0  0  0
   42.5618   35.4403   39.7134 H   0  0  0  0  0  0  0  0  0  0  0  0
   44.3303   35.6304   39.5758 H   0  0  0  0  0  0  0  0  0  0  0  0
   46.8237   32.2420   42.9365 H   0  0  0  0  0  0  0  0  0  0  0  0
   46.2104   33.4783   41.8045 H   0  0  0  0  0  0  0  0  0  0  0  0
   48.0417   34.9777   42.3048 H   0  0  0  0  0  0  0  0  0  0  0  0
   48.5336   33.9786   43.7329 H   0  0  0  0  0  0  0  0  0  0  0  0
   50.6486   33.4901   43.2499 H   0  0  0  0  0  0  0  0  0  0  0  0
   52.3045   32.2086   41.9353 H   0  0  0  0  0  0  0  0  0  0  0  0
   49.3170   31.4413   39.0139 H   0  0  0  0  0  0  0  0  0  0  0  0
  1  2  2  0
  1  6  1  0
  2  3  1  0
  3  4  2  0
  5  4  1  0
  6  5  2  0
  7  1  1  0
  8  7  1  0
  8  9  2  0
 10  8  1  0
 11  9  1  0
 12  2  1  0
 13 12  1  0
 14 15  2  0
 14 13  1  0
 16 15  1  0
 17 16  2  0
 18 17  1  0
 18 19  2  0
 19 14  1  0
  3 20  1  0
  5 21  1  0
  7 22  1  0
 10 23  1  0
 10 24  1  0
 12 25  1  0
 12 26  1  0
 13 27  1  0
 13 28  1  0
 15 29  1  0
 16 30  1  0
 18 31  1  0
M  ISO  8  20  14  21  14  25   8  26   8  27   8  28   8  29  14  30  14
M  ISO  1  31  14
M  END
>  <minimizedAffinity>  (1) 
-4.91129637

>  <minimizedRMSD>  (1) 
0.231835887

$$$$
