
     RDKit          3D

 38 39  0  0  0  0  0  0  0  0999 V2000
   45.1160   34.9850   43.5590 C   0  0  0  0  0  0  0  0  0  0  0  0
   45.9730   33.9090   43.8320 C   0  0  0  0  0  0  0  0  0  0  0  0
   46.0800   33.5190   45.1620 C   0  0  0  0  0  0  0  0  0  0  0  0
   45.3590   34.1860   46.1250 N   0  0  0  0  0  0  0  0  0  0  0  0
   44.5410   35.2230   45.8140 C   0  0  0  0  0  0  0  0  0  0  0  0
   44.4270   35.6080   44.5590 N   0  0  0  0  0  0  0  0  0  0  0  0
   44.8750   35.5300   42.2620 N   0  0  0  0  0  0  0  0  0  0  0  0
   43.5980   35.4390   41.6120 C   0  0  0  0  0  0  0  0  0  0  0  0
   42.5430   35.2860   42.3750 N   0  0  0  0  0  0  0  0  0  0  0  0
   43.4680   35.5120   40.1690 N   0  0  0  0  0  0  0  0  0  0  0  0
   41.6180   35.2080   41.8860 H   0  0  0  0  0  0  0  0  0  0  0  0
   46.6730   33.2910   42.7530 C   0  0  0  0  0  0  0  0  0  0  0  0
   48.1000   33.8700   42.6980 C   0  0  0  0  0  0  0  0  0  0  0  0
   48.5600   33.9910   41.3480 N   0  0  0  0  0  0  0  0  0  0  0  0
   49.2910   32.8060   41.0000 C   0  0  0  0  0  0  0  0  0  0  0  0
   48.7290   32.0700   39.8160 C   0  0  0  0  0  0  0  0  0  0  0  0
   48.5670   32.9400   38.5980 C   0  0  0  0  0  0  0  0  0  0  0  0
   48.2040   34.3200   39.0250 C   0  0  0  0  0  0  0  0  0  0  0  0
   47.5300   34.3020   40.4040 C   0  0  0  0  0  0  0  0  0  0  0  0
   46.7369   32.6825   45.4425 H   0  0  0  0  0  0  0  0  0  0  0  0
   43.9766   35.7390   46.6046 H   0  0  0  0  0  0  0  0  0  0  0  0
   45.6465   36.0067   41.7738 H   0  0  0  0  0  0  0  0  0  0  0  0
   42.5380   35.4436   39.7316 H   0  0  0  0  0  0  0  0  0  0  0  0
   44.3057   35.6323   39.5819 H   0  0  0  0  0  0  0  0  0  0  0  0
   46.7199   32.2041   42.9157 H   0  0  0  0  0  0  0  0  0  0  0  0
   46.1509   33.4867   41.8048 H   0  0  0  0  0  0  0  0  0  0  0  0
   48.1015   34.8647   43.1677 H   0  0  0  0  0  0  0  0  0  0  0  0
   48.7735   33.1855   43.2345 H   0  0  0  0  0  0  0  0  0  0  0  0
   50.3274   33.0935   40.7692 H   0  0  0  0  0  0  0  0  0  0  0  0
   49.2238   32.1247   41.8610 H   0  0  0  0  0  0  0  0  0  0  0  0
   49.4074   31.2411   39.5656 H   0  0  0  0  0  0  0  0  0  0  0  0
   47.7273   31.7138   40.0984 H   0  0  0  0  0  0  0  0  0  0  0  0
   47.7710   32.5318   37.9579 H   0  0  0  0  0  0  0  0  0  0  0  0
   49.5110   32.9646   38.0339 H   0  0  0  0  0  0  0  0  0  0  0  0
   49.1156   34.9335   39.0767 H   0  0  0  0  0  0  0  0  0  0  0  0
   47.5002   34.7429   38.2930 H   0  0  0  0  0  0  0  0  0  0  0  0
   47.0925   35.2862   40.6275 H   0  0  0  0  0  0  0  0  0  0  0  0
   46.7152   33.5640   40.4422 H   0  0  0  0  0  0  0  0  0  0  0  0
  1  2  2  0
  1  6  1  0
  2  3  1  0
  3  4  2  0
  5  4  1  0
  6  5  2  0
  7  1  1  0
  8  7  1  0
  8  9  2  0
 10  8  1  0
 11  9  1  0
 12  2  1  0
 13 12  1  0
 14 13  1  0
 15 14  1  0
 16 15  1  0
 17 18  1  0
 17 16  1  0
 18 19  1  0
 19 14  1  0
  3 20  1  0
  5 21  1  0
  7 22  1  0
 10 23  1  0
 10 24  1  0
 12 25  1  0
 12 26  1  0
 13 27  1  0
 13 28  1  0
 15 29  1  0
 15 30  1  0
 16 31  1  0
 16 32  1  0
 17 33  1  0
 17 34  1  0
 18 35  1  0
 18 36  1  0
 19 37  1  0
 19 38  1  0
M  ISO  8  20  14  21  14  25   8  26   8  27   8  28   8  29  13  30  13
M  ISO  8  31  13  32  13  33  13  34  13  35  13  36  13  37  13  38  13
M  END
>  <minimizedAffinity>  (1) 
-4.93126249

>  <minimizedRMSD>  (1) 
1.34342873

$$$$
