
     RDKit          3D

 30 31  0  0  0  0  0  0  0  0999 V2000
   44.9550   34.7840   43.3000 C   0  0  0  0  0  0  0  0  0  0  0  0
   45.5410   33.5750   43.6480 C   0  0  0  0  0  0  0  0  0  0  0  0
   45.6580   33.2950   45.0100 C   0  0  0  0  0  0  0  0  0  0  0  0
   45.1930   34.2220   45.9220 N   0  0  0  0  0  0  0  0  0  0  0  0
   44.6330   35.3800   45.5380 C   0  0  0  0  0  0  0  0  0  0  0  0
   44.5150   35.6580   44.2440 N   0  0  0  0  0  0  0  0  0  0  0  0
   44.7610   35.2190   41.9570 N   0  0  0  0  0  0  0  0  0  0  0  0
   43.4530   35.3140   41.3550 C   0  0  0  0  0  0  0  0  0  0  0  0
   42.4280   35.4530   42.1720 N   0  0  0  0  0  0  0  0  0  0  0  0
   43.2590   35.2620   39.9260 N   0  0  0  0  0  0  0  0  0  0  0  0
   41.4890   35.5520   41.7320 H   0  0  0  0  0  0  0  0  0  0  0  0
   45.9960   32.6690   42.6470 C   0  0  0  0  0  0  0  0  0  0  0  0
   47.5310   32.5710   42.7080 C   0  0  0  0  0  0  0  0  0  0  0  0
   48.1480   33.7630   42.2150 N   0  0  0  0  0  0  0  0  0  0  0  0
   47.8300   34.2990   41.0280 N   0  0  0  0  0  0  0  0  0  0  0  0
   48.5390   35.3950   40.8030 C   0  0  0  0  0  0  0  0  0  0  0  0
   49.3630   35.5920   41.8890 C   0  0  0  0  0  0  0  0  0  0  0  0
   49.0960   34.5430   42.7700 C   0  0  0  0  0  0  0  0  0  0  0  0
   46.1123   32.3531   45.3511 H   0  0  0  0  0  0  0  0  0  0  0  0
   44.2732   36.0960   46.2916 H   0  0  0  0  0  0  0  0  0  0  0  0
   45.5852   35.4752   41.3949 H   0  0  0  0  0  0  0  0  0  0  0  0
   42.3099   35.3331   39.5322 H   0  0  0  0  0  0  0  0  0  0  0  0
   44.0696   35.1538   39.2998 H   0  0  0  0  0  0  0  0  0  0  0  0
   45.6904   33.0337   41.6552 H   0  0  0  0  0  0  0  0  0  0  0  0
   45.5565   31.6759   42.8221 H   0  0  0  0  0  0  0  0  0  0  0  0
   47.8387   32.4139   43.7523 H   0  0  0  0  0  0  0  0  0  0  0  0
   47.8503   31.7284   42.0770 H   0  0  0  0  0  0  0  0  0  0  0  0
   48.4803   36.0334   39.9091 H   0  0  0  0  0  0  0  0  0  0  0  0
   50.0846   36.4097   42.0327 H   0  0  0  0  0  0  0  0  0  0  0  0
   49.5756   34.3813   43.7466 H   0  0  0  0  0  0  0  0  0  0  0  0
  1  2  2  0
  1  6  1  0
  2  3  1  0
  3  4  2  0
  5  4  1  0
  6  5  2  0
  7  1  1  0
  8  7  1  0
  8  9  2  0
 10  8  1  0
 11  9  1  0
 12 13  1  0
 12  2  1  0
 14 13  1  0
 14 18  1  0
 15 14  1  0
 16 15  2  0
 16 17  1  0
 17 18  2  0
  3 19  1  0
  5 20  1  0
  7 21  1  0
 10 22  1  0
 10 23  1  0
 12 24  1  0
 12 25  1  0
 13 26  1  0
 13 27  1  0
 16 28  1  0
 17 29  1  0
 18 30  1  0
M  ISO  8  19  14  20  14  24   8  25   8  26   8  27   8  28  14  29  14
M  ISO  1  30  14
M  END
>  <minimizedAffinity>  (1) 
-5.04071617

>  <minimizedRMSD>  (1) 
1.11573219

$$$$
