
     RDKit          3D

 39 40  0  0  0  0  0  0  0  0999 V2000
   45.1420   34.9490   43.5960 C   0  0  0  0  0  0  0  0  0  0  0  0
   45.9620   33.8730   43.9050 C   0  0  0  0  0  0  0  0  0  0  0  0
   46.0360   33.5140   45.2480 C   0  0  0  0  0  0  0  0  0  0  0  0
   45.3190   34.2160   46.1710 N   0  0  0  0  0  0  0  0  0  0  0  0
   44.5350   35.2560   45.8260 C   0  0  0  0  0  0  0  0  0  0  0  0
   44.4490   35.6160   44.5490 N   0  0  0  0  0  0  0  0  0  0  0  0
   44.9480   35.4530   42.2730 N   0  0  0  0  0  0  0  0  0  0  0  0
   43.6720   35.3970   41.5970 C   0  0  0  0  0  0  0  0  0  0  0  0
   42.5920   35.3020   42.3550 N   0  0  0  0  0  0  0  0  0  0  0  0
   43.5540   35.4390   40.1660 N   0  0  0  0  0  0  0  0  0  0  0  0
   41.6890   35.2770   41.8580 H   0  0  0  0  0  0  0  0  0  0  0  0
   46.6870   33.1850   42.8590 C   0  0  0  0  0  0  0  0  0  0  0  0
   48.0670   33.8210   42.7370 C   0  0  0  0  0  0  0  0  0  0  0  0
   48.7000   33.6110   41.4050 C   0  0  0  0  0  0  0  0  0  0  0  0
   48.5410   32.2280   40.8630 C   0  0  0  0  0  0  0  0  0  0  0  0
   49.2470   32.1740   39.5120 C   0  0  0  0  0  0  0  0  0  0  0  0
   48.6940   33.1730   38.5380 C   0  0  0  0  0  0  0  0  0  0  0  0
   47.6040   33.9800   39.1820 C   0  0  0  0  0  0  0  0  0  0  0  0
   48.1040   34.6190   40.4580 C   0  0  0  0  0  0  0  0  0  0  0  0
   46.6682   32.6704   45.5621 H   0  0  0  0  0  0  0  0  0  0  0  0
   43.9702   35.8032   46.5952 H   0  0  0  0  0  0  0  0  0  0  0  0
   45.7498   35.8730   41.7815 H   0  0  0  0  0  0  0  0  0  0  0  0
   42.6244   35.3964   39.7244 H   0  0  0  0  0  0  0  0  0  0  0  0
   44.3990   35.5117   39.5815 H   0  0  0  0  0  0  0  0  0  0  0  0
   46.7893   32.1202   43.1155 H   0  0  0  0  0  0  0  0  0  0  0  0
   46.1456   33.2669   41.9049 H   0  0  0  0  0  0  0  0  0  0  0  0
   47.9687   34.9029   42.9096 H   0  0  0  0  0  0  0  0  0  0  0  0
   48.7142   33.3377   43.4837 H   0  0  0  0  0  0  0  0  0  0  0  0
   49.7857   33.7462   41.5191 H   0  0  0  0  0  0  0  0  0  0  0  0
   48.9955   31.5012   41.5523 H   0  0  0  0  0  0  0  0  0  0  0  0
   47.4755   31.9790   40.7505 H   0  0  0  0  0  0  0  0  0  0  0  0
   50.3163   32.3827   39.6635 H   0  0  0  0  0  0  0  0  0  0  0  0
   49.0884   31.1706   39.0902 H   0  0  0  0  0  0  0  0  0  0  0  0
   48.2852   32.6417   37.6659 H   0  0  0  0  0  0  0  0  0  0  0  0
   49.5016   33.8499   38.2223 H   0  0  0  0  0  0  0  0  0  0  0  0
   47.2768   34.7671   38.4867 H   0  0  0  0  0  0  0  0  0  0  0  0
   46.7622   33.3141   39.4228 H   0  0  0  0  0  0  0  0  0  0  0  0
   48.8729   35.3634   40.2035 H   0  0  0  0  0  0  0  0  0  0  0  0
   47.2442   35.0863   40.9604 H   0  0  0  0  0  0  0  0  0  0  0  0
  1  2  2  0
  1  6  1  0
  2  3  1  0
  3  4  2  0
  5  4  1  0
  6  5  2  0
  7  1  1  0
  8  7  1  0
  8  9  2  0
 10  8  1  0
 11  9  1  0
 12  2  1  0
 13 12  1  0
 14 13  1  0
 15 14  1  0
 16 15  1  0
 17 18  1  0
 17 16  1  0
 18 19  1  0
 19 14  1  0
  3 20  1  0
  5 21  1  0
  7 22  1  0
 10 23  1  0
 10 24  1  0
 12 25  1  0
 12 26  1  0
 13 27  1  0
 13 28  1  0
 14 29  1  0
 15 30  1  0
 15 31  1  0
 16 32  1  0
 16 33  1  0
 17 34  1  0
 17 35  1  0
 18 36  1  0
 18 37  1  0
 19 38  1  0
 19 39  1  0
M  ISO  8  20  14  21  14  25   8  26   8  27   8  28   8  29  13  30  13
M  ISO  8  31  13  32  13  33  13  34  13  35  13  36  13  37  13  38  13
M  ISO  1  39  13
M  END
>  <minimizedAffinity>  (1) 
-5.04836512

>  <minimizedRMSD>  (1) 
0.732906878

$$$$
