
     RDKit          3D

 46 48  0  0  1  0  0  0  0  0999 V2000
   47.2980   32.3030   42.7480 C   0  0  0  0  0  0  0  0  0  0  0  0
   48.0410   32.4890   41.4740 C   0  0  1  0  0  0  0  0  0  0  0  0
   47.4830   31.6450   40.3820 C   0  0  0  0  0  0  0  0  0  0  0  0
   48.3300   31.8820   39.1340 C   0  0  0  0  0  0  0  0  0  0  0  0
   48.1870   33.2760   38.6490 C   0  0  0  0  0  0  0  0  0  0  0  0
   47.4990   34.1520   39.6880 C   0  0  0  0  0  0  0  0  0  0  0  0
   48.0990   33.9170   41.0730 C   0  0  1  0  0  0  0  0  0  0  0  0
   48.4410   35.0050   41.9490 C   0  0  0  0  0  0  0  0  0  0  0  0
   49.2250   36.1490   41.4960 C   0  0  0  0  0  0  0  0  0  0  0  0
   49.8590   35.3010   42.4930 C   0  0  0  0  0  0  0  0  0  0  0  0
   45.8230   32.5660   42.6440 C   0  0  0  0  0  0  0  0  0  0  0  0
   44.9100   34.7250   43.2660 C   0  0  0  0  0  0  0  0  0  0  0  0
   45.4480   33.5140   43.6500 C   0  0  0  0  0  0  0  0  0  0  0  0
   45.5740   33.2900   45.0190 C   0  0  0  0  0  0  0  0  0  0  0  0
   45.1690   34.2560   45.8940 N   0  0  0  0  0  0  0  0  0  0  0  0
   44.6430   35.4350   45.4700 C   0  0  0  0  0  0  0  0  0  0  0  0
   44.5100   35.6770   44.1550 N   0  0  0  0  0  0  0  0  0  0  0  0
   44.7150   35.1750   41.9270 N   0  0  0  0  0  0  0  0  0  0  0  0
   43.3850   35.3000   41.3470 C   0  0  0  0  0  0  0  0  0  0  0  0
   42.3460   35.4200   42.1790 N   0  0  0  0  0  0  0  0  0  0  0  0
   43.1790   35.3100   39.9450 N   0  0  0  0  0  0  0  0  0  0  0  0
   41.4260   35.5740   41.7400 H   0  0  0  0  0  0  0  0  0  0  0  0
   47.4406   31.2648   43.0822 H   0  0  0  0  0  0  0  0  0  0  0  0
   47.7011   33.0387   43.4595 H   0  0  0  0  0  0  0  0  0  0  0  0
   49.0734   32.1554   41.6552 H   0  0  0  0  0  0  0  0  0  0  0  0
   47.5269   30.5839   40.6688 H   0  0  0  0  0  0  0  0  0  0  0  0
   46.4322   31.9078   40.1903 H   0  0  0  0  0  0  0  0  0  0  0  0
   49.3863   31.6920   39.3752 H   0  0  0  0  0  0  0  0  0  0  0  0
   47.9855   31.1996   38.3430 H   0  0  0  0  0  0  0  0  0  0  0  0
   49.1853   33.6867   38.4376 H   0  0  0  0  0  0  0  0  0  0  0  0
   47.5709   33.2667   37.7378 H   0  0  0  0  0  0  0  0  0  0  0  0
   47.6289   35.2090   39.4126 H   0  0  0  0  0  0  0  0  0  0  0  0
   46.4300   33.8943   39.7167 H   0  0  0  0  0  0  0  0  0  0  0  0
   49.1523   34.1972   41.2216 H   0  0  0  0  0  0  0  0  0  0  0  0
   47.4574   34.8280   42.4085 H   0  0  0  0  0  0  0  0  0  0  0  0
   49.6188   36.1587   40.4689 H   0  0  0  0  0  0  0  0  0  0  0  0
   49.0211   37.2288   41.4464 H   0  0  0  0  0  0  0  0  0  0  0  0
   49.9944   35.6614   43.5234 H   0  0  0  0  0  0  0  0  0  0  0  0
   50.8060   34.7468   42.5703 H   0  0  0  0  0  0  0  0  0  0  0  0
   45.5898   32.9722   41.6487 H   0  0  0  0  0  0  0  0  0  0  0  0
   45.2664   31.6285   42.7898 H   0  0  0  0  0  0  0  0  0  0  0  0
   45.9955   32.3445   45.3910 H   0  0  0  0  0  0  0  0  0  0  0  0
   44.3261   36.1913   46.2033 H   0  0  0  0  0  0  0  0  0  0  0  0
   45.5364   35.4180   41.3550 H   0  0  0  0  0  0  0  0  0  0  0  0
   42.2258   35.3998   39.5652 H   0  0  0  0  0  0  0  0  0  0  0  0
   43.9824   35.2274   39.3058 H   0  0  0  0  0  0  0  0  0  0  0  0
  2  1  1  0
  3  2  1  0
  4  3  1  0
  5  4  1  0
  5  6  1  0
  6  7  1  0
  7  2  1  0
  7  8  1  0
  8 10  1  0
  9  8  1  0
  9 10  1  0
 11  1  1  0
 11 13  1  0
 12 13  2  0
 12 17  1  0
 13 14  1  0
 14 15  2  0
 16 15  1  0
 17 16  2  0
 18 12  1  0
 19 18  1  0
 19 20  2  0
 21 19  1  0
 22 20  1  0
  1 23  1  0
  1 24  1  0
  2 25  1  1
  3 26  1  0
  3 27  1  0
  4 28  1  0
  4 29  1  0
  5 30  1  0
  5 31  1  0
  6 32  1  0
  6 33  1  0
  7 34  1  6
  8 35  1  0
  9 36  1  0
  9 37  1  0
 10 38  1  0
 10 39  1  0
 11 40  1  0
 11 41  1  0
 14 42  1  0
 16 43  1  0
 18 44  1  0
 21 45  1  0
 21 46  1  0
M  ISO  8  23   8  24   8  25  13  26  13  27  13  28  13  29  13  30  13
M  ISO  8  31  13  32  13  33  13  34  13  35  13  36  13  37  13  38  13
M  ISO  5  39  13  40   8  41   8  42  14  43  14
M  END
>  <minimizedAffinity>  (1) 
-5.77950954

>  <minimizedRMSD>  (1) 
0.991148353

$$$$
