
     RDKit          3D

 51 52  0  0  1  0  0  0  0  0999 V2000
   48.2250   34.0820   42.9200 C   0  0  0  0  0  0  0  0  0  0  0  0
   49.1430   33.5640   41.8560 C   0  0  1  0  0  0  0  0  0  0  0  0
   50.2900   32.7970   42.4380 C   0  0  0  0  0  0  0  0  0  0  0  0
   51.1820   32.3030   41.3210 C   0  0  0  0  0  0  0  0  0  0  0  0
   50.4330   31.4260   40.3690 C   0  0  0  0  0  0  0  0  0  0  0  0
   48.9930   31.3200   40.7410 C   0  0  0  0  0  0  0  0  0  0  0  0
   48.3710   32.7010   40.9230 C   0  0  2  0  0  0  0  0  0  0  0  0
   48.0190   33.3540   39.5950 C   0  0  0  0  0  0  0  0  0  0  0  0
   46.5150   33.4010   39.3930 C   0  0  0  0  0  0  0  0  0  0  0  0
   48.6910   32.8150   38.4000 C   0  0  0  0  0  0  0  0  0  0  0  0
   48.4040   34.8420   39.6970 C   0  0  0  0  0  0  0  0  0  0  0  0
   46.8930   33.3690   42.9930 C   0  0  0  0  0  0  0  0  0  0  0  0
   45.2120   34.9880   43.6760 C   0  0  0  0  0  0  0  0  0  0  0  0
   46.0810   33.9740   44.0110 C   0  0  0  0  0  0  0  0  0  0  0  0
   46.1210   33.5890   45.3490 C   0  0  0  0  0  0  0  0  0  0  0  0
   45.3080   34.2250   46.2440 N   0  0  0  0  0  0  0  0  0  0  0  0
   44.4720   35.2110   45.8790 C   0  0  0  0  0  0  0  0  0  0  0  0
   44.4160   35.6000   44.5980 N   0  0  0  0  0  0  0  0  0  0  0  0
   45.0310   35.5540   42.3740 N   0  0  0  0  0  0  0  0  0  0  0  0
   43.7640   35.3990   41.6640 C   0  0  0  0  0  0  0  0  0  0  0  0
   42.6520   35.1950   42.3830 N   0  0  0  0  0  0  0  0  0  0  0  0
   43.6710   35.4700   40.2300 N   0  0  0  0  0  0  0  0  0  0  0  0
   41.7730   35.2110   41.8660 H   0  0  0  0  0  0  0  0  0  0  0  0
   48.0353   35.1474   42.7227 H   0  0  0  0  0  0  0  0  0  0  0  0
   48.7285   33.9089   43.8826 H   0  0  0  0  0  0  0  0  0  0  0  0
   49.5643   34.4231   41.3134 H   0  0  0  0  0  0  0  0  0  0  0  0
   50.8678   33.4519   43.1068 H   0  0  0  0  0  0  0  0  0  0  0  0
   49.9062   31.9386   43.0088 H   0  0  0  0  0  0  0  0  0  0  0  0
   51.5799   33.1690   40.7717 H   0  0  0  0  0  0  0  0  0  0  0  0
   51.9972   31.7131   41.7654 H   0  0  0  0  0  0  0  0  0  0  0  0
   50.8803   30.4211   40.3814 H   0  0  0  0  0  0  0  0  0  0  0  0
   50.4982   31.8714   39.3653 H   0  0  0  0  0  0  0  0  0  0  0  0
   48.4544   30.7853   39.9448 H   0  0  0  0  0  0  0  0  0  0  0  0
   48.9167   30.7737   41.6927 H   0  0  0  0  0  0  0  0  0  0  0  0
   47.4054   32.5561   41.4296 H   0  0  0  0  0  0  0  0  0  0  0  0
   46.0139   33.4167   40.3721 H   0  0  0  0  0  0  0  0  0  0  0  0
   46.2488   34.3079   38.8303 H   0  0  0  0  0  0  0  0  0  0  0  0
   46.1927   32.5125   38.8303 H   0  0  0  0  0  0  0  0  0  0  0  0
   49.5145   32.1545   38.7090 H   0  0  0  0  0  0  0  0  0  0  0  0
   47.9682   32.2434   37.7993 H   0  0  0  0  0  0  0  0  0  0  0  0
   49.0921   33.6447   37.7993 H   0  0  0  0  0  0  0  0  0  0  0  0
   48.4784   35.1297   40.7561 H   0  0  0  0  0  0  0  0  0  0  0  0
   49.3738   35.0045   39.2039 H   0  0  0  0  0  0  0  0  0  0  0  0
   47.6347   35.4544   39.2039 H   0  0  0  0  0  0  0  0  0  0  0  0
   46.3819   33.4467   42.0221 H   0  0  0  0  0  0  0  0  0  0  0  0
   47.0575   32.3091   43.2372 H   0  0  0  0  0  0  0  0  0  0  0  0
   46.7962   32.7860   45.6797 H   0  0  0  0  0  0  0  0  0  0  0  0
   43.8341   35.6986   46.6309 H   0  0  0  0  0  0  0  0  0  0  0  0
   45.8019   36.0759   41.9332 H   0  0  0  0  0  0  0  0  0  0  0  0
   42.7582   35.3554   39.7668 H   0  0  0  0  0  0  0  0  0  0  0  0
   44.5172   35.6354   39.6666 H   0  0  0  0  0  0  0  0  0  0  0  0
  1 12  1  0
  2  3  1  0
  2  1  1  0
  4  3  1  0
  5  6  1  0
  5  4  1  0
  6  7  1  0
  7  2  1  0
  8 11  1  0
  8  7  1  0
  9  8  1  0
 10  8  1  0
 12 14  1  0
 13 14  2  0
 13 18  1  0
 14 15  1  0
 15 16  2  0
 17 16  1  0
 18 17  2  0
 19 13  1  0
 20 19  1  0
 20 21  2  0
 22 20  1  0
 23 21  1  0
  1 24  1  0
  1 25  1  0
  2 26  1  6
  3 27  1  0
  3 28  1  0
  4 29  1  0
  4 30  1  0
  5 31  1  0
  5 32  1  0
  6 33  1  0
  6 34  1  0
  7 35  1  1
  9 36  1  0
  9 37  1  0
  9 38  1  0
 10 39  1  0
 10 40  1  0
 10 41  1  0
 11 42  1  0
 11 43  1  0
 11 44  1  0
 12 45  1  0
 12 46  1  0
 15 47  1  0
 17 48  1  0
 19 49  1  0
 22 50  1  0
 22 51  1  0
M  ISO  8  24   8  25   8  26  13  27  13  28  13  29  13  30  13  31  13
M  ISO  8  32  13  33  13  34  13  35  13  36   8  37   8  38   8  39   8
M  ISO  8  40   8  41   8  42   8  43   8  44   8  45   8  46   8  47  14
M  ISO  1  48  14
M  END
>  <minimizedAffinity>  (1) 
-5.4255743

>  <minimizedRMSD>  (1) 
1.90238273

$$$$
