
     RDKit          3D

 51 53  0  0  1  0  0  0  0  0999 V2000
   48.0930   34.3770   42.4370 C   0  0  0  0  0  0  0  0  0  0  0  0
   49.0820   33.6740   41.5830 C   0  0  1  0  0  0  0  0  0  0  0  0
   50.1600   32.9800   42.3250 C   0  0  0  0  0  0  0  0  0  0  0  0
   51.0830   32.3250   41.3000 C   0  0  0  0  0  0  0  0  0  0  0  0
   50.3580   31.3310   40.4340 C   0  0  0  0  0  0  0  0  0  0  0  0
   48.9040   31.3000   40.8090 C   0  0  0  0  0  0  0  0  0  0  0  0
   48.3280   32.6960   40.7020 C   0  0  2  0  0  0  0  0  0  0  0  0
   48.6480   33.0160   39.2770 N   0  0  0  0  0  0  0  0  0  0  0  0
   48.4850   34.4240   39.0260 C   0  0  0  0  0  0  0  0  0  0  0  0
   48.2380   34.4670   37.5230 C   0  0  0  0  0  0  0  0  0  0  0  0
   47.5610   33.1840   37.1690 C   0  0  0  0  0  0  0  0  0  0  0  0
   47.6320   32.3960   38.4600 C   0  0  0  0  0  0  0  0  0  0  0  0
   46.7460   33.6800   42.4950 C   0  0  0  0  0  0  0  0  0  0  0  0
   45.0590   35.0940   43.5400 C   0  0  0  0  0  0  0  0  0  0  0  0
   46.0340   34.1290   43.6580 C   0  0  0  0  0  0  0  0  0  0  0  0
   46.2790   33.6290   44.9360 C   0  0  0  0  0  0  0  0  0  0  0  0
   45.5500   34.1160   45.9870 N   0  0  0  0  0  0  0  0  0  0  0  0
   44.6030   35.0620   45.8250 C   0  0  0  0  0  0  0  0  0  0  0  0
   44.3500   35.5570   44.6070 N   0  0  0  0  0  0  0  0  0  0  0  0
   44.6690   35.7470   42.3240 N   0  0  0  0  0  0  0  0  0  0  0  0
   43.5420   35.2560   41.5390 C   0  0  0  0  0  0  0  0  0  0  0  0
   42.5940   34.5550   42.1660 N   0  0  0  0  0  0  0  0  0  0  0  0
   43.4170   35.5090   40.1300 N   0  0  0  0  0  0  0  0  0  0  0  0
   41.7790   34.2880   41.6040 H   0  0  0  0  0  0  0  0  0  0  0  0
   47.9444   35.3908   42.0368 H   0  0  0  0  0  0  0  0  0  0  0  0
   48.4971   34.3899   43.4600 H   0  0  0  0  0  0  0  0  0  0  0  0
   49.6037   34.4394   40.9897 H   0  0  0  0  0  0  0  0  0  0  0  0
   50.7255   33.7049   42.9289 H   0  0  0  0  0  0  0  0  0  0  0  0
   49.7361   32.2225   43.0007 H   0  0  0  0  0  0  0  0  0  0  0  0
   51.5111   33.1085   40.6574 H   0  0  0  0  0  0  0  0  0  0  0  0
   51.8675   31.7843   41.8497 H   0  0  0  0  0  0  0  0  0  0  0  0
   50.7947   30.3320   40.5796 H   0  0  0  0  0  0  0  0  0  0  0  0
   50.4563   31.6265   39.3790 H   0  0  0  0  0  0  0  0  0  0  0  0
   48.3634   30.6266   40.1276 H   0  0  0  0  0  0  0  0  0  0  0  0
   48.7983   30.9367   41.8419 H   0  0  0  0  0  0  0  0  0  0  0  0
   47.2694   32.7574   40.9945 H   0  0  0  0  0  0  0  0  0  0  0  0
   47.6265   34.8296   39.5813 H   0  0  0  0  0  0  0  0  0  0  0  0
   49.3470   35.0281   39.3453 H   0  0  0  0  0  0  0  0  0  0  0  0
   47.5926   35.3205   37.2680 H   0  0  0  0  0  0  0  0  0  0  0  0
   49.1800   34.5867   36.9678 H   0  0  0  0  0  0  0  0  0  0  0  0
   46.5172   33.3573   36.8681 H   0  0  0  0  0  0  0  0  0  0  0  0
   48.0286   32.6667   36.3183 H   0  0  0  0  0  0  0  0  0  0  0  0
   46.6610   32.4276   38.9759 H   0  0  0  0  0  0  0  0  0  0  0  0
   47.8754   31.3414   38.2636 H   0  0  0  0  0  0  0  0  0  0  0  0
   46.1666   33.9226   41.5920 H   0  0  0  0  0  0  0  0  0  0  0  0
   46.8943   32.5914   42.5488 H   0  0  0  0  0  0  0  0  0  0  0  0
   47.0451   32.8563   45.0970 H   0  0  0  0  0  0  0  0  0  0  0  0
   44.0375   35.4276   46.6948 H   0  0  0  0  0  0  0  0  0  0  0  0
   45.1917   36.5736   42.0008 H   0  0  0  0  0  0  0  0  0  0  0  0
   44.1429   36.0487   39.6373 H   0  0  0  0  0  0  0  0  0  0  0  0
   42.6015   35.1507   39.6128 H   0  0  0  0  0  0  0  0  0  0  0  0
  1 13  1  0
  2  3  1  0
  2  1  1  0
  4  3  1  0
  5  6  1  0
  5  4  1  0
  7  6  1  0
  7  2  1  0
  8  9  1  0
  8  7  1  0
 10  9  1  0
 11 10  1  0
 11 12  1  0
 12  8  1  0
 13 15  1  0
 14 15  2  0
 14 19  1  0
 15 16  1  0
 16 17  2  0
 18 17  1  0
 19 18  2  0
 20 14  1  0
 21 22  2  0
 21 20  1  0
 23 21  1  0
 24 22  1  0
  1 25  1  0
  1 26  1  0
  2 27  1  6
  3 28  1  0
  3 29  1  0
  4 30  1  0
  4 31  1  0
  5 32  1  0
  5 33  1  0
  6 34  1  0
  6 35  1  0
  7 36  1  6
  9 37  1  0
  9 38  1  0
 10 39  1  0
 10 40  1  0
 11 41  1  0
 11 42  1  0
 12 43  1  0
 12 44  1  0
 13 45  1  0
 13 46  1  0
 16 47  1  0
 18 48  1  0
 20 49  1  0
 23 50  1  0
 23 51  1  0
M  ISO  8  25   8  26   8  27  13  28  13  29  13  30  13  31  13  32  13
M  ISO  8  33  13  34  13  35  13  36  13  37  13  38  13  39  13  40  13
M  ISO  8  41  13  42  13  43  13  44  13  45   8  46   8  47  14  48  14
M  END
>  <minimizedAffinity>  (1) 
-5.41835737

>  <minimizedRMSD>  (1) 
2.03741837

$$$$
