
     RDKit          3D

 52 54  0  0  1  0  0  0  0  0999 V2000
   48.2600   33.7570   42.9860 C   0  0  0  0  0  0  0  0  0  0  0  0
   49.1640   33.1780   41.9540 C   0  0  1  0  0  0  0  0  0  0  0  0
   50.5440   32.8680   42.4820 C   0  0  0  0  0  0  0  0  0  0  0  0
   51.3670   32.2770   41.3550 C   0  0  0  0  0  0  0  0  0  0  0  0
   50.7500   31.0370   40.7930 C   0  0  0  0  0  0  0  0  0  0  0  0
   49.4470   30.7510   41.4850 C   0  0  0  0  0  0  0  0  0  0  0  0
   48.5280   31.9630   41.3870 C   0  0  2  0  0  0  0  0  0  0  0  0
   48.5190   32.1610   39.8940 N   0  0  0  0  0  0  0  0  0  0  0  0
   48.2970   33.5450   39.6630 C   0  0  0  0  0  0  0  0  0  0  0  0
   47.6220   33.8870   38.3480 C   0  0  0  0  0  0  0  0  0  0  0  0
   46.3590   33.2970   38.3800 O   0  0  0  0  0  0  0  0  0  0  0  0
   46.6620   31.9280   38.2570 C   0  0  0  0  0  0  0  0  0  0  0  0
   47.3670   31.3980   39.4580 C   0  0  0  0  0  0  0  0  0  0  0  0
   46.9190   33.0700   43.0880 C   0  0  0  0  0  0  0  0  0  0  0  0
   45.2770   34.8020   43.6200 C   0  0  0  0  0  0  0  0  0  0  0  0
   46.1060   33.7860   44.0470 C   0  0  0  0  0  0  0  0  0  0  0  0
   46.1090   33.5130   45.4030 C   0  0  0  0  0  0  0  0  0  0  0  0
   45.3090   34.2420   46.2390 N   0  0  0  0  0  0  0  0  0  0  0  0
   44.5160   35.2230   45.7740 C   0  0  0  0  0  0  0  0  0  0  0  0
   44.4960   35.5080   44.4650 N   0  0  0  0  0  0  0  0  0  0  0  0
   45.1460   35.2290   42.2520 N   0  0  0  0  0  0  0  0  0  0  0  0
   44.0230   34.8060   41.4190 C   0  0  0  0  0  0  0  0  0  0  0  0
   42.9170   34.4290   42.0300 N   0  0  0  0  0  0  0  0  0  0  0  0
   44.1140   34.7990   39.9810 N   0  0  0  0  0  0  0  0  0  0  0  0
   42.1310   34.1560   41.4210 H   0  0  0  0  0  0  0  0  0  0  0  0
   48.0879   34.8152   42.7398 H   0  0  0  0  0  0  0  0  0  0  0  0
   48.7597   33.6219   43.9566 H   0  0  0  0  0  0  0  0  0  0  0  0
   49.3086   33.9338   41.1680 H   0  0  0  0  0  0  0  0  0  0  0  0
   51.0192   33.7917   42.8439 H   0  0  0  0  0  0  0  0  0  0  0  0
   50.4775   32.1535   43.3157 H   0  0  0  0  0  0  0  0  0  0  0  0
   51.4552   33.0236   40.5520 H   0  0  0  0  0  0  0  0  0  0  0  0
   52.3525   32.0079   41.7628 H   0  0  0  0  0  0  0  0  0  0  0  0
   50.5680   31.1763   39.7171 H   0  0  0  0  0  0  0  0  0  0  0  0
   51.4349   30.1906   40.9495 H   0  0  0  0  0  0  0  0  0  0  0  0
   48.9626   29.8869   41.0069 H   0  0  0  0  0  0  0  0  0  0  0  0
   49.6418   30.5302   42.5449 H   0  0  0  0  0  0  0  0  0  0  0  0
   47.5652   31.8175   41.8986 H   0  0  0  0  0  0  0  0  0  0  0  0
   47.6651   33.9277   40.4780 H   0  0  0  0  0  0  0  0  0  0  0  0
   49.2939   34.0081   39.6205 H   0  0  0  0  0  0  0  0  0  0  0  0
   48.2063   33.4863   37.5066 H   0  0  0  0  0  0  0  0  0  0  0  0
   47.5464   34.9762   38.2138 H   0  0  0  0  0  0  0  0  0  0  0  0
   45.7248   31.3685   38.1206 H   0  0  0  0  0  0  0  0  0  0  0  0
   47.3302   31.8062   37.3917 H   0  0  0  0  0  0  0  0  0  0  0  0
   46.6462   31.3688   40.2884 H   0  0  0  0  0  0  0  0  0  0  0  0
   47.7523   30.4090   39.1693 H   0  0  0  0  0  0  0  0  0  0  0  0
   46.4242   33.0750   42.1056 H   0  0  0  0  0  0  0  0  0  0  0  0
   47.0541   32.0279   43.4132 H   0  0  0  0  0  0  0  0  0  0  0  0
   46.7502   32.7153   45.8060 H   0  0  0  0  0  0  0  0  0  0  0  0
   43.8824   35.7928   46.4696 H   0  0  0  0  0  0  0  0  0  0  0  0
   45.8630   35.8493   41.8495 H   0  0  0  0  0  0  0  0  0  0  0  0
   44.9850   35.0964   39.5186 H   0  0  0  0  0  0  0  0  0  0  0  0
   43.3080   34.4966   39.4154 H   0  0  0  0  0  0  0  0  0  0  0  0
  1 14  1  0
  2  3  1  0
  2  1  1  0
  4  3  1  0
  5  4  1  0
  5  6  1  0
  7  6  1  0
  7  2  1  0
  8  7  1  0
  9  8  1  0
 10 11  1  0
 10  9  1  0
 12 11  1  0
 12 13  1  0
 13  8  1  0
 14 16  1  0
 15 16  2  0
 15 20  1  0
 16 17  1  0
 17 18  2  0
 19 18  1  0
 20 19  2  0
 21 15  1  0
 22 23  2  0
 22 21  1  0
 24 22  1  0
 25 23  1  0
  1 26  1  0
  1 27  1  0
  2 28  1  6
  3 29  1  0
  3 30  1  0
  4 31  1  0
  4 32  1  0
  5 33  1  0
  5 34  1  0
  6 35  1  0
  6 36  1  0
  7 37  1  1
  9 38  1  0
  9 39  1  0
 10 40  1  0
 10 41  1  0
 12 42  1  0
 12 43  1  0
 13 44  1  0
 13 45  1  0
 14 46  1  0
 14 47  1  0
 17 48  1  0
 19 49  1  0
 21 50  1  0
 24 51  1  0
 24 52  1  0
M  ISO  8  26   8  27   8  28  13  29  13  30  13  31  13  32  13  33  13
M  ISO  8  34  13  35  13  36  13  37  13  38  13  39  13  40  13  41  13
M  ISO  8  42  13  43  13  44  13  45  13  46   8  47   8  48  14  49  14
M  END
>  <minimizedAffinity>  (1) 
-5.11070967

>  <minimizedRMSD>  (1) 
2.62695241

$$$$
