
     RDKit          3D

 27 30  0  0  0  0  0  0  0  0999 V2000
   44.4900   36.1210   44.6960 C   0  0  0  0  0  0  0  0  0  0  0  0
   45.1440   36.0410   43.4550 C   0  0  0  0  0  0  0  0  0  0  0  0
   45.9950   34.9430   43.2070 C   0  0  0  0  0  0  0  0  0  0  0  0
   46.1380   34.0170   44.1890 N   0  0  0  0  0  0  0  0  0  0  0  0
   45.4930   34.1190   45.3820 C   0  0  0  0  0  0  0  0  0  0  0  0
   44.6750   35.1710   45.6230 N   0  0  0  0  0  0  0  0  0  0  0  0
   45.6410   33.1510   46.4140 N   0  0  0  0  0  0  0  0  0  0  0  0
   45.0660   33.1790   47.6330 C   0  0  0  0  0  0  0  0  0  0  0  0
   45.4530   32.0780   48.3260 N   0  0  0  0  0  0  0  0  0  0  0  0
   46.2790   31.3780   47.4950 C   0  0  0  0  0  0  0  0  0  0  0  0
   46.9240   30.1710   47.7690 C   0  0  0  0  0  0  0  0  0  0  0  0
   47.6970   29.6560   46.7970 N   0  0  0  0  0  0  0  0  0  0  0  0
   47.8220   30.3030   45.6220 C   0  0  0  0  0  0  0  0  0  0  0  0
   47.1950   31.4810   45.3440 N   0  0  0  0  0  0  0  0  0  0  0  0
   46.4040   32.0500   46.2810 C   0  0  0  0  0  0  0  0  0  0  0  0
   46.7050   34.7600   41.9940 N   0  0  0  0  0  0  0  0  0  0  0  0
   46.4540   34.1640   40.8240 C   0  0  0  0  0  0  0  0  0  0  0  0
   47.5170   34.2990   39.9970 N   0  0  0  0  0  0  0  0  0  0  0  0
   48.4340   34.9950   40.6850 C   0  0  0  0  0  0  0  0  0  0  0  0
   47.9450   35.2890   41.9250 N   0  0  0  0  0  0  0  0  0  0  0  0
   43.8219   36.9688   44.9080 H   0  0  0  0  0  0  0  0  0  0  0  0
   44.9955   36.8190   42.6917 H   0  0  0  0  0  0  0  0  0  0  0  0
   44.3931   33.9656   48.0052 H   0  0  0  0  0  0  0  0  0  0  0  0
   46.8051   29.6634   48.7376 H   0  0  0  0  0  0  0  0  0  0  0  0
   48.4631   29.8577   44.8469 H   0  0  0  0  0  0  0  0  0  0  0  0
   45.5203   33.6405   40.5705 H   0  0  0  0  0  0  0  0  0  0  0  0
   49.4263   35.2841   40.3084 H   0  0  0  0  0  0  0  0  0  0  0  0
  1  6  2  0
  2  1  1  0
  3  2  2  0
  3  4  1  0
  4  5  2  0
  5  6  1  0
  5  7  1  0
  7  8  1  0
  8  9  2  0
 10 11  2  0
 10  9  1  0
 12 11  1  0
 13 12  2  0
 14 13  1  0
 14 15  2  0
 15  7  1  0
 15 10  1  0
 16  3  1  0
 17 16  1  0
 18 19  1  0
 18 17  2  0
 19 20  2  0
 20 16  1  0
  1 21  1  0
  2 22  1  0
  8 23  1  0
 11 24  1  0
 13 25  1  0
 17 26  1  0
 19 27  1  0
M  ISO  7  21  14  22  14  23  14  24  14  25  14  26  14  27  14
M  END
>  <minimizedAffinity>  (1) 
-6.11877155

>  <minimizedRMSD>  (1) 
0.127123773

$$$$
