
     RDKit          3D

 26 28  0  0  0  0  0  0  0  0999 V2000
   44.4760   35.9410   44.3080 C   0  0  0  0  0  0  0  0  0  0  0  0
   45.1920   35.9110   43.1050 C   0  0  0  0  0  0  0  0  0  0  0  0
   46.2070   34.9730   42.9330 C   0  0  0  0  0  0  0  0  0  0  0  0
   46.4560   34.1060   43.9760 N   0  0  0  0  0  0  0  0  0  0  0  0
   45.7410   34.1650   45.1290 C   0  0  0  0  0  0  0  0  0  0  0  0
   44.7680   35.0690   45.2860 N   0  0  0  0  0  0  0  0  0  0  0  0
   45.9980   33.2720   46.2040 N   0  0  0  0  0  0  0  0  0  0  0  0
   46.9440   32.3180   46.1630 C   0  0  0  0  0  0  0  0  0  0  0  0
   47.0620   31.5330   47.3010 C   0  0  0  0  0  0  0  0  0  0  0  0
   46.2500   31.7270   48.4080 C   0  0  0  0  0  0  0  0  0  0  0  0
   46.3500   31.0170   49.4510 O   0  0  0  0  0  0  0  0  0  0  0  0
   45.3150   32.6930   48.4100 N   0  0  0  0  0  0  0  0  0  0  0  0
   45.2170   33.4420   47.2990 C   0  0  0  0  0  0  0  0  0  0  0  0
   44.3180   34.3430   47.3460 O   0  0  0  0  0  0  0  0  0  0  0  0
   47.0060   34.8380   41.7630 N   0  0  0  0  0  0  0  0  0  0  0  0
   46.8580   34.1710   40.5980 C   0  0  0  0  0  0  0  0  0  0  0  0
   47.9300   34.3850   39.8180 N   0  0  0  0  0  0  0  0  0  0  0  0
   48.7370   35.1920   40.5150 C   0  0  0  0  0  0  0  0  0  0  0  0
   48.1700   35.4810   41.7320 N   0  0  0  0  0  0  0  0  0  0  0  0
   43.6737   36.6796   44.4518 H   0  0  0  0  0  0  0  0  0  0  0  0
   44.9544   36.6234   42.3013 H   0  0  0  0  0  0  0  0  0  0  0  0
   47.5851   32.1688   45.2816 H   0  0  0  0  0  0  0  0  0  0  0  0
   47.8196   30.7359   47.3256 H   0  0  0  0  0  0  0  0  0  0  0  0
   44.7036   32.8512   49.2237 H   0  0  0  0  0  0  0  0  0  0  0  0
   45.9922   33.5480   40.3293 H   0  0  0  0  0  0  0  0  0  0  0  0
   49.7098   35.5682   40.1657 H   0  0  0  0  0  0  0  0  0  0  0  0
  1  6  2  0
  2  1  1  0
  3  2  2  0
  3  4  1  0
  4  5  2  0
  5  6  1  0
  5  7  1  0
  7 13  1  0
  8  7  1  0
  8  9  2  0
  9 10  1  0
 10 12  1  0
 10 11  2  0
 13 14  2  0
 13 12  1  0
 15  3  1  0
 16 15  1  0
 17 18  1  0
 17 16  2  0
 18 19  2  0
 19 15  1  0
  1 20  1  0
  2 21  1  0
  8 22  1  0
  9 23  1  0
 12 24  1  0
 16 25  1  0
 18 26  1  0
M  ISO  7  20  14  21  14  22  14  23  14  24   9  25  14  26  14
M  END
>  <minimizedAffinity>  (1) 
-6.42606115

>  <minimizedRMSD>  (1) 
0.379373312

$$$$
