
     RDKit          3D

 34 37  0  0  1  0  0  0  0  0999 V2000
   44.9590   35.1180   44.6140 C   0  0  0  0  0  0  0  0  0  0  0  0
   45.5870   35.4030   43.4020 C   0  0  0  0  0  0  0  0  0  0  0  0
   46.5740   34.5560   42.9300 C   0  0  0  0  0  0  0  0  0  0  0  0
   46.8450   33.4890   43.7250 N   0  0  0  0  0  0  0  0  0  0  0  0
   46.2250   33.2190   44.9090 C   0  0  0  0  0  0  0  0  0  0  0  0
   45.2980   34.0510   45.3100 N   0  0  0  0  0  0  0  0  0  0  0  0
   46.8970   32.0050   45.2370 C   0  0  0  0  0  0  0  0  0  0  0  0
   47.4690   30.9720   45.5160 N   0  0  0  0  0  0  0  0  0  0  0  0
   48.1430   29.9490   45.5510 C   0  0  0  0  0  0  0  0  0  0  0  0
   47.6920   29.7880   46.8020 N   0  0  0  0  0  0  0  0  0  0  0  0
   46.8360   30.6820   47.3730 C   0  0  0  0  0  0  0  0  0  0  0  0
   46.4670   30.3530   48.7160 C   0  0  0  0  0  0  0  0  0  0  0  0
   45.6170   31.2300   49.3240 C   0  0  0  0  0  0  0  0  0  0  0  0
   45.1030   32.3740   48.7590 C   0  0  0  0  0  0  0  0  0  0  0  0
   45.5490   32.5520   47.4680 C   0  0  0  0  0  0  0  0  0  0  0  0
   46.4200   31.8100   46.6000 C   0  0  0  0  0  0  0  0  0  0  0  0
   47.2980   34.7210   41.7100 N   0  0  0  0  0  0  0  0  0  0  0  0
   47.1650   34.2200   40.4800 C   0  0  0  0  0  0  0  0  0  0  0  0
   48.1560   34.7220   39.6980 N   0  0  0  0  0  0  0  0  0  0  0  0
   48.8770   35.5250   40.4730 C   0  0  0  0  0  0  0  0  0  0  0  0
   48.3490   35.5280   41.7220 N   0  0  0  0  0  0  0  0  0  0  0  0
   44.1740   35.7892   44.9925 H   0  0  0  0  0  0  0  0  0  0  0  0
   45.2998   36.2947   42.8254 H   0  0  0  0  0  0  0  0  0  0  0  0
   46.4495   31.5196   44.3572 H   0  0  0  0  0  0  0  0  0  0  0  0
   47.9078   31.3672   46.3599 H   0  0  0  0  0  0  0  0  0  0  0  0
   47.8318   29.1663   44.8435 H   0  0  0  0  0  0  0  0  0  0  0  0
   49.2164   29.9462   45.3104 H   0  0  0  0  0  0  0  0  0  0  0  0
   47.9995   28.9689   47.3456 H   0  0  0  0  0  0  0  0  0  0  0  0
   46.8436   29.4530   49.2242 H   0  0  0  0  0  0  0  0  0  0  0  0
   45.3161   31.0022   50.3572 H   0  0  0  0  0  0  0  0  0  0  0  0
   44.4187   33.0632   49.2756 H   0  0  0  0  0  0  0  0  0  0  0  0
   45.1502   33.4632   46.9983 H   0  0  0  0  0  0  0  0  0  0  0  0
   46.3835   33.5179   40.1540 H   0  0  0  0  0  0  0  0  0  0  0  0
   49.7609   36.0961   40.1527 H   0  0  0  0  0  0  0  0  0  0  0  0
  1  6  2  0
  2  1  1  0
  3  2  2  0
  3  4  1  0
  4  5  2  0
  5  6  1  0
  7  5  1  0
  7  8  1  0
  7 16  1  0
  8  9  1  0
  9 10  1  0
 10 11  1  0
 11 12  2  0
 12 13  1  0
 14 13  2  0
 15 14  1  0
 16 11  1  0
 16 15  2  0
 17 21  1  0
 17  3  1  0
 18 17  1  0
 19 20  1  0
 19 18  2  0
 20 21  2  0
  1 22  1  0
  2 23  1  0
  7 24  1  0
  8 25  1  0
  9 26  1  0
  9 27  1  0
 10 28  1  0
 12 29  1  0
 13 30  1  0
 14 31  1  0
 15 32  1  0
 18 33  1  0
 20 34  1  0
M  ISO  8  22  14  23  14  24  13  25   5  26  13  27  13  29  14  30  14
M  ISO  4  31  14  32  14  33  14  34  14
M  END
>  <minimizedAffinity>  (1) 
-5.66995478

>  <minimizedRMSD>  (1) 
1.4288125

$$$$
