
     RDKit          3D

 23 25  0  0  0  0  0  0  0  0999 V2000
   44.4220   36.2310   44.5940 C   0  0  0  0  0  0  0  0  0  0  0  0
   45.0960   36.1060   43.3690 C   0  0  0  0  0  0  0  0  0  0  0  0
   45.9600   35.0270   43.1720 C   0  0  0  0  0  0  0  0  0  0  0  0
   46.1060   34.1370   44.1980 N   0  0  0  0  0  0  0  0  0  0  0  0
   45.4370   34.2860   45.3730 C   0  0  0  0  0  0  0  0  0  0  0  0
   44.6110   35.3150   45.5640 N   0  0  0  0  0  0  0  0  0  0  0  0
   46.6990   34.7920   41.9770 N   0  0  0  0  0  0  0  0  0  0  0  0
   46.4460   34.1560   40.8170 C   0  0  0  0  0  0  0  0  0  0  0  0
   47.5300   34.2460   40.0130 N   0  0  0  0  0  0  0  0  0  0  0  0
   48.4450   34.9400   40.6920 C   0  0  0  0  0  0  0  0  0  0  0  0
   47.9480   35.2910   41.9160 N   0  0  0  0  0  0  0  0  0  0  0  0
   45.6440   33.2940   46.4220 C   0  0  0  0  0  0  0  0  0  0  0  0
   46.5400   32.2530   46.4070 C   0  0  0  0  0  0  0  0  0  0  0  0
   46.4010   31.5800   47.5760 N   0  0  0  0  0  0  0  0  0  0  0  0
   45.4410   32.1690   48.3230 C   0  0  0  0  0  0  0  0  0  0  0  0
   44.9920   33.2170   47.5970 N   0  0  0  0  0  0  0  0  0  0  0  0
   43.7393   37.0770   44.7621 H   0  0  0  0  0  0  0  0  0  0  0  0
   44.9451   36.8500   42.5729 H   0  0  0  0  0  0  0  0  0  0  0  0
   45.5060   33.6441   40.5634 H   0  0  0  0  0  0  0  0  0  0  0  0
   49.4497   35.1922   40.3220 H   0  0  0  0  0  0  0  0  0  0  0  0
   47.2417   32.0099   45.5955 H   0  0  0  0  0  0  0  0  0  0  0  0
   45.0951   31.8584   49.3199 H   0  0  0  0  0  0  0  0  0  0  0  0
   44.2530   33.8669   47.9009 H   0  0  0  0  0  0  0  0  0  0  0  0
  1  6  2  0
  2  1  1  0
  3  2  2  0
  3  4  1  0
  4  5  2  0
  5  6  1  0
  5 12  1  0
  7  3  1  0
  8  7  1  0
  9 10  1  0
  9  8  2  0
 10 11  2  0
 11  7  1  0
 12 16  1  0
 13 12  2  0
 13 14  1  0
 14 15  2  0
 16 15  1  0
  1 17  1  0
  2 18  1  0
  8 19  1  0
 10 20  1  0
 13 21  1  0
 15 22  1  0
 16 23  1  0
M  ISO  7  17  14  18  14  19  14  20  14  21  14  22  14  23   9
M  END
>  <minimizedAffinity>  (1) 
-5.69774055

>  <minimizedRMSD>  (1) 
0.252249867

$$$$
