
     RDKit          3D

 23 25  0  0  0  0  0  0  0  0999 V2000
   44.4230   36.0100   44.6860 C   0  0  0  0  0  0  0  0  0  0  0  0
   45.0790   35.9330   43.4580 C   0  0  0  0  0  0  0  0  0  0  0  0
   46.0110   34.9280   43.2150 C   0  0  0  0  0  0  0  0  0  0  0  0
   46.2390   34.0370   44.2400 N   0  0  0  0  0  0  0  0  0  0  0  0
   45.5850   34.1340   45.4270 C   0  0  0  0  0  0  0  0  0  0  0  0
   44.6950   35.1030   45.6430 N   0  0  0  0  0  0  0  0  0  0  0  0
   46.7280   34.7630   42.0090 N   0  0  0  0  0  0  0  0  0  0  0  0
   46.4800   34.1730   40.8310 C   0  0  0  0  0  0  0  0  0  0  0  0
   47.5480   34.3200   40.0090 N   0  0  0  0  0  0  0  0  0  0  0  0
   48.4560   35.0120   40.7070 C   0  0  0  0  0  0  0  0  0  0  0  0
   47.9590   35.2910   41.9440 N   0  0  0  0  0  0  0  0  0  0  0  0
   45.8450   33.1870   46.4760 C   0  0  0  0  0  0  0  0  0  0  0  0
   46.9320   32.3110   46.5240 C   0  0  0  0  0  0  0  0  0  0  0  0
   46.8720   31.5400   47.6740 C   0  0  0  0  0  0  0  0  0  0  0  0
   45.7640   31.9630   48.2880 N   0  0  0  0  0  0  0  0  0  0  0  0
   45.1690   32.9180   47.5940 N   0  0  0  0  0  0  0  0  0  0  0  0
   43.6878   36.8069   44.8717 H   0  0  0  0  0  0  0  0  0  0  0  0
   44.8581   36.6728   42.6745 H   0  0  0  0  0  0  0  0  0  0  0  0
   45.5491   33.6481   40.5704 H   0  0  0  0  0  0  0  0  0  0  0  0
   49.4491   35.3092   40.3391 H   0  0  0  0  0  0  0  0  0  0  0  0
   47.7207   32.2430   45.7603 H   0  0  0  0  0  0  0  0  0  0  0  0
   47.5742   30.7604   48.0045 H   0  0  0  0  0  0  0  0  0  0  0  0
   45.4182   31.5934   49.1851 H   0  0  0  0  0  0  0  0  0  0  0  0
  1  6  2  0
  2  1  1  0
  3  2  2  0
  3  4  1  0
  4  5  2  0
  5  6  1  0
  5 12  1  0
  7  3  1  0
  8  7  1  0
  9 10  1  0
  9  8  2  0
 10 11  2  0
 11  7  1  0
 12 13  1  0
 12 16  2  0
 13 14  2  0
 14 15  1  0
 16 15  1  0
  1 17  1  0
  2 18  1  0
  8 19  1  0
 10 20  1  0
 13 21  1  0
 14 22  1  0
 15 23  1  0
M  ISO  7  17  14  18  14  19  14  20  14  21  14  22  14  23   9
M  END
>  <minimizedAffinity>  (1) 
-5.29619646

>  <minimizedRMSD>  (1) 
0.173337892

$$$$
