
     RDKit          3D

 24 26  0  0  0  0  0  0  0  0999 V2000
   44.4690   35.9110   44.7220 C   0  0  0  0  0  0  0  0  0  0  0  0
   45.1110   35.8810   43.4850 C   0  0  0  0  0  0  0  0  0  0  0  0
   46.0500   34.8820   43.2370 C   0  0  0  0  0  0  0  0  0  0  0  0
   46.2990   33.9770   44.2220 N   0  0  0  0  0  0  0  0  0  0  0  0
   45.6490   34.0370   45.4220 C   0  0  0  0  0  0  0  0  0  0  0  0
   44.7480   34.9940   45.6590 N   0  0  0  0  0  0  0  0  0  0  0  0
   46.7700   34.7500   42.0150 N   0  0  0  0  0  0  0  0  0  0  0  0
   46.5390   34.1680   40.8170 C   0  0  0  0  0  0  0  0  0  0  0  0
   47.5830   34.3510   40.0000 N   0  0  0  0  0  0  0  0  0  0  0  0
   48.4750   35.0550   40.6980 C   0  0  0  0  0  0  0  0  0  0  0  0
   47.9880   35.3130   41.9520 N   0  0  0  0  0  0  0  0  0  0  0  0
   45.9530   33.0410   46.4420 C   0  0  0  0  0  0  0  0  0  0  0  0
   46.9940   32.1580   46.2830 C   0  0  0  0  0  0  0  0  0  0  0  0
   47.2240   31.2360   47.2980 C   0  0  0  0  0  0  0  0  0  0  0  0
   46.4690   31.1890   48.4050 N   0  0  0  0  0  0  0  0  0  0  0  0
   45.4450   32.0750   48.5360 C   0  0  0  0  0  0  0  0  0  0  0  0
   45.2020   32.9790   47.5650 N   0  0  0  0  0  0  0  0  0  0  0  0
   43.7262   36.6949   44.9312 H   0  0  0  0  0  0  0  0  0  0  0  0
   44.8800   36.6339   42.7171 H   0  0  0  0  0  0  0  0  0  0  0  0
   45.6223   33.6212   40.5512 H   0  0  0  0  0  0  0  0  0  0  0  0
   49.4564   35.3803   40.3224 H   0  0  0  0  0  0  0  0  0  0  0  0
   47.6247   32.1799   45.3821 H   0  0  0  0  0  0  0  0  0  0  0  0
   48.0530   30.5213   47.1892 H   0  0  0  0  0  0  0  0  0  0  0  0
   44.8134   32.0541   49.4364 H   0  0  0  0  0  0  0  0  0  0  0  0
  1  6  2  0
  2  1  1  0
  3  2  2  0
  3  4  1  0
  4  5  2  0
  5  6  1  0
  5 12  1  0
  7  3  1  0
  8  7  1  0
  9 10  1  0
  9  8  2  0
 10 11  2  0
 11  7  1  0
 12 17  1  0
 13 12  2  0
 13 14  1  0
 14 15  2  0
 15 16  1  0
 17 16  2  0
  1 18  1  0
  2 19  1  0
  8 20  1  0
 10 21  1  0
 13 22  1  0
 14 23  1  0
 16 24  1  0
M  ISO  7  18  14  19  14  20  14  21  14  22  14  23  14  24  14
M  END
>  <minimizedAffinity>  (1) 
-5.57517385

>  <minimizedRMSD>  (1) 
0.528033614

$$$$
