
     RDKit          3D

 21 23  0  0  0  0  0  0  0  0999 V2000
   44.4380   36.0350   44.5880 C   0  0  0  0  0  0  0  0  0  0  0  0
   45.1070   35.9700   43.3550 C   0  0  0  0  0  0  0  0  0  0  0  0
   46.0460   34.9600   43.1540 C   0  0  0  0  0  0  0  0  0  0  0  0
   46.2630   34.0830   44.1820 N   0  0  0  0  0  0  0  0  0  0  0  0
   45.5980   34.1760   45.3580 C   0  0  0  0  0  0  0  0  0  0  0  0
   44.6910   35.1520   45.5510 N   0  0  0  0  0  0  0  0  0  0  0  0
   46.7860   34.7910   41.9550 N   0  0  0  0  0  0  0  0  0  0  0  0
   46.5690   34.1740   40.7780 C   0  0  0  0  0  0  0  0  0  0  0  0
   47.6380   34.3310   39.9670 N   0  0  0  0  0  0  0  0  0  0  0  0
   48.5240   35.0610   40.6690 C   0  0  0  0  0  0  0  0  0  0  0  0
   48.0090   35.3530   41.9030 N   0  0  0  0  0  0  0  0  0  0  0  0
   45.9570   33.1550   46.3390 C   0  0  0  0  0  0  0  0  0  0  0  0
   46.9800   32.2930   46.3340 N   0  0  0  0  0  0  0  0  0  0  0  0
   46.9300   31.5600   47.3940 O   0  0  0  0  0  0  0  0  0  0  0  0
   45.8850   31.9430   48.0780 C   0  0  0  0  0  0  0  0  0  0  0  0
   45.2400   32.9570   47.4410 N   0  0  0  0  0  0  0  0  0  0  0  0
   43.6943   36.8270   44.7603 H   0  0  0  0  0  0  0  0  0  0  0  0
   44.8939   36.7026   42.5626 H   0  0  0  0  0  0  0  0  0  0  0  0
   45.6544   33.6224   40.5151 H   0  0  0  0  0  0  0  0  0  0  0  0
   49.5134   35.3757   40.3057 H   0  0  0  0  0  0  0  0  0  0  0  0
   45.5701   31.5057   49.0370 H   0  0  0  0  0  0  0  0  0  0  0  0
  1  6  2  0
  2  1  1  0
  3  2  2  0
  3  4  1  0
  4  5  2  0
  5  6  1  0
  5 12  1  0
  7  3  1  0
  8  7  1  0
  9 10  1  0
  9  8  2  0
 10 11  2  0
 11  7  1  0
 12 16  1  0
 13 12  2  0
 13 14  1  0
 14 15  1  0
 16 15  2  0
  1 17  1  0
  2 18  1  0
  8 19  1  0
 10 20  1  0
 15 21  1  0
M  ISO  5  17  14  18  14  19  14  20  14  21  14
M  END
>  <minimizedAffinity>  (1) 
-5.22558451

>  <minimizedRMSD>  (1) 
0.513827205

$$$$
