
     RDKit          3D

 19 20  0  0  0  0  0  0  0  0999 V2000
   44.4600   35.9970   44.7380 C   0  0  0  0  0  0  0  0  0  0  0  0
   45.1120   35.9560   43.4900 C   0  0  0  0  0  0  0  0  0  0  0  0
   46.0160   34.9230   43.2380 C   0  0  0  0  0  0  0  0  0  0  0  0
   46.2130   34.0030   44.2370 N   0  0  0  0  0  0  0  0  0  0  0  0
   45.5680   34.0740   45.4250 C   0  0  0  0  0  0  0  0  0  0  0  0
   44.7030   35.0600   45.6710 N   0  0  0  0  0  0  0  0  0  0  0  0
   46.7360   34.7650   42.0290 N   0  0  0  0  0  0  0  0  0  0  0  0
   46.4730   34.1690   40.8430 C   0  0  0  0  0  0  0  0  0  0  0  0
   47.5280   34.3200   40.0160 N   0  0  0  0  0  0  0  0  0  0  0  0
   48.4350   35.0110   40.7070 C   0  0  0  0  0  0  0  0  0  0  0  0
   47.9580   35.2960   41.9610 N   0  0  0  0  0  0  0  0  0  0  0  0
   45.8510   33.0190   46.4520 C   0  0  0  0  0  0  0  0  0  0  0  0
   45.6750   31.7770   45.8760 F   0  0  0  0  0  0  0  0  0  0  0  0
   47.1490   33.1060   46.9070 F   0  0  0  0  0  0  0  0  0  0  0  0
   44.9220   33.1760   47.4630 F   0  0  0  0  0  0  0  0  0  0  0  0
   43.7442   36.8045   44.9515 H   0  0  0  0  0  0  0  0  0  0  0  0
   44.9123   36.7239   42.7282 H   0  0  0  0  0  0  0  0  0  0  0  0
   45.5409   33.6417   40.5915 H   0  0  0  0  0  0  0  0  0  0  0  0
   49.4230   35.3094   40.3264 H   0  0  0  0  0  0  0  0  0  0  0  0
  1  6  2  0
  2  1  1  0
  3  2  2  0
  3  4  1  0
  4  5  2  0
  5  6  1  0
  5 12  1  0
  7  3  1  0
  8  7  1  0
  9 10  1  0
  9  8  2  0
 10 11  2  0
 11  7  1  0
 12 14  1  0
 12 15  1  0
 13 12  1  0
  1 16  1  0
  2 17  1  0
  8 18  1  0
 10 19  1  0
M  ISO  4  16  14  17  14  18  14  19  14
M  END
>  <minimizedAffinity>  (1) 
-5.15205956

>  <minimizedRMSD>  (1) 
0.134230599

$$$$
