
     RDKit          3D

 22 23  0  0  0  0  0  0  0  0999 V2000
   44.5570   35.6470   44.8170 C   0  0  0  0  0  0  0  0  0  0  0  0
   45.1700   35.7050   43.5470 C   0  0  0  0  0  0  0  0  0  0  0  0
   46.1670   34.7780   43.2640 C   0  0  0  0  0  0  0  0  0  0  0  0
   46.5000   33.8560   44.2330 N   0  0  0  0  0  0  0  0  0  0  0  0
   45.8820   33.8410   45.4350 C   0  0  0  0  0  0  0  0  0  0  0  0
   44.9220   34.7330   45.7110 N   0  0  0  0  0  0  0  0  0  0  0  0
   46.8760   34.7160   42.0240 N   0  0  0  0  0  0  0  0  0  0  0  0
   46.6610   34.1570   40.8300 C   0  0  0  0  0  0  0  0  0  0  0  0
   47.6830   34.4160   39.9960 N   0  0  0  0  0  0  0  0  0  0  0  0
   48.5510   35.1600   40.7070 C   0  0  0  0  0  0  0  0  0  0  0  0
   48.0620   35.3530   41.9700 N   0  0  0  0  0  0  0  0  0  0  0  0
   46.2600   32.8360   46.4660 C   0  0  0  0  0  0  0  0  0  0  0  0
   45.2430   32.8750   47.5910 C   0  0  0  0  0  0  0  0  0  0  0  0
   43.7661   36.3682   45.0708 H   0  0  0  0  0  0  0  0  0  0  0  0
   44.8688   36.4592   42.8051 H   0  0  0  0  0  0  0  0  0  0  0  0
   45.7712   33.5667   40.5659 H   0  0  0  0  0  0  0  0  0  0  0  0
   49.5070   35.5526   40.3301 H   0  0  0  0  0  0  0  0  0  0  0  0
   46.2730   31.8326   46.0154 H   0  0  0  0  0  0  0  0  0  0  0  0
   47.2601   33.0676   46.8613 H   0  0  0  0  0  0  0  0  0  0  0  0
   45.7657   32.8550   48.5587 H   0  0  0  0  0  0  0  0  0  0  0  0
   44.6474   33.7966   47.5150 H   0  0  0  0  0  0  0  0  0  0  0  0
   44.5785   32.0017   47.5150 H   0  0  0  0  0  0  0  0  0  0  0  0
  1  6  2  0
  2  1  1  0
  3  2  2  0
  3  4  1  0
  4  5  2  0
  5  6  1  0
  5 12  1  0
  7  3  1  0
  8  7  1  0
  9 10  1  0
  9  8  2  0
 10 11  2  0
 11  7  1  0
 12 13  1  0
  1 14  1  0
  2 15  1  0
  8 16  1  0
 10 17  1  0
 12 18  1  0
 12 19  1  0
 13 20  1  0
 13 21  1  0
 13 22  1  0
M  ISO  8  14  14  15  14  16  14  17  14  18   8  19   8  20   8  21   8
M  ISO  1  22   8
M  END
>  <minimizedAffinity>  (1) 
-4.49292421

>  <minimizedRMSD>  (1) 
0.365236014

$$$$
