
     RDKit          3D

 18 19  0  0  0  0  0  0  0  0999 V2000
   44.4590   35.9840   44.7310 C   0  0  0  0  0  0  0  0  0  0  0  0
   45.1140   35.9390   43.4900 C   0  0  0  0  0  0  0  0  0  0  0  0
   46.0260   34.9130   43.2370 C   0  0  0  0  0  0  0  0  0  0  0  0
   46.2420   33.9840   44.2280 N   0  0  0  0  0  0  0  0  0  0  0  0
   45.5850   34.0650   45.4150 C   0  0  0  0  0  0  0  0  0  0  0  0
   44.7140   35.0450   45.6590 N   0  0  0  0  0  0  0  0  0  0  0  0
   46.7490   34.7640   42.0210 N   0  0  0  0  0  0  0  0  0  0  0  0
   46.4870   34.1700   40.8320 C   0  0  0  0  0  0  0  0  0  0  0  0
   47.5410   34.3280   40.0030 N   0  0  0  0  0  0  0  0  0  0  0  0
   48.4470   35.0260   40.7040 C   0  0  0  0  0  0  0  0  0  0  0  0
   47.9650   35.3000   41.9550 N   0  0  0  0  0  0  0  0  0  0  0  0
   45.8990   33.0230   46.3850 C   0  0  0  0  0  0  0  0  0  0  0  0
   45.2280   32.9670   47.4460 O   0  0  0  0  0  0  0  0  0  0  0  0
   43.7378   36.7868   44.9440 H   0  0  0  0  0  0  0  0  0  0  0  0
   44.9108   36.7036   42.7257 H   0  0  0  0  0  0  0  0  0  0  0  0
   45.5569   33.6395   40.5802 H   0  0  0  0  0  0  0  0  0  0  0  0
   49.4339   35.3334   40.3279 H   0  0  0  0  0  0  0  0  0  0  0  0
   46.7062   32.3010   46.1922 H   0  0  0  0  0  0  0  0  0  0  0  0
  1  6  2  0
  2  1  1  0
  3  2  2  0
  3  4  1  0
  4  5  2  0
  5  6  1  0
  5 12  1  0
  7  3  1  0
  8  7  1  0
  9 10  1  0
  9  8  2  0
 10 11  2  0
 11  7  1  0
 12 13  2  0
  1 14  1  0
  2 15  1  0
  8 16  1  0
 10 17  1  0
 12 18  1  0
M  ISO  5  14  14  15  14  16  14  17  14  18   6
M  END
>  <minimizedAffinity>  (1) 
-4.51715374

>  <minimizedRMSD>  (1) 
0.323329628

$$$$
