
     RDKit          3D

 24 26  0  0  0  0  0  0  0  0999 V2000
   44.4790   35.6110   45.0380 C   0  0  0  0  0  0  0  0  0  0  0  0
   45.1750   35.4810   43.8180 C   0  0  0  0  0  0  0  0  0  0  0  0
   46.1170   34.4290   43.6940 C   0  0  0  0  0  0  0  0  0  0  0  0
   46.2970   33.6120   44.7510 N   0  0  0  0  0  0  0  0  0  0  0  0
   45.5960   33.7800   45.9170 C   0  0  0  0  0  0  0  0  0  0  0  0
   44.7120   34.7590   46.0440 N   0  0  0  0  0  0  0  0  0  0  0  0
   45.8550   32.8630   46.9830 N   0  0  0  0  0  0  0  0  0  0  0  0
   46.8290   31.9470   47.0470 C   0  0  0  0  0  0  0  0  0  0  0  0
   46.7130   31.2970   48.2210 N   0  0  0  0  0  0  0  0  0  0  0  0
   45.6710   31.7970   48.9000 C   0  0  0  0  0  0  0  0  0  0  0  0
   45.1500   32.7690   48.1120 N   0  0  0  0  0  0  0  0  0  0  0  0
   46.8730   34.2060   42.5130 N   0  0  0  0  0  0  0  0  0  0  0  0
   47.1310   33.1290   41.7560 C   0  0  0  0  0  0  0  0  0  0  0  0
   47.9220   33.4700   40.7200 N   0  0  0  0  0  0  0  0  0  0  0  0
   48.1440   34.7940   40.8610 C   0  0  0  0  0  0  0  0  0  0  0  0
   47.4930   35.2620   41.9770 N   0  0  0  0  0  0  0  0  0  0  0  0
   48.9390   35.5890   39.9790 N   0  0  0  0  0  0  0  0  0  0  0  0
   43.7408   36.4168   45.1635 H   0  0  0  0  0  0  0  0  0  0  0  0
   44.9918   36.1767   42.9859 H   0  0  0  0  0  0  0  0  0  0  0  0
   47.5906   31.7582   46.2760 H   0  0  0  0  0  0  0  0  0  0  0  0
   45.3128   31.4833   49.8916 H   0  0  0  0  0  0  0  0  0  0  0  0
   46.7520   32.1152   41.9525 H   0  0  0  0  0  0  0  0  0  0  0  0
   49.0578   36.5961   40.1594 H   0  0  0  0  0  0  0  0  0  0  0  0
   49.3933   35.1549   39.1628 H   0  0  0  0  0  0  0  0  0  0  0  0
  1  6  2  0
  2  1  1  0
  3  2  2  0
  3  4  1  0
  4  5  2  0
  5  6  1  0
  5  7  1  0
  7  8  1  0
  7 11  1  0
  8  9  2  0
  9 10  1  0
 11 10  2  0
 12  3  1  0
 13 12  1  0
 14 15  1  0
 14 13  2  0
 15 16  2  0
 16 12  1  0
 17 15  1  0
  1 18  1  0
  2 19  1  0
  8 20  1  0
 10 21  1  0
 13 22  1  0
 17 23  1  0
 17 24  1  0
M  ISO  5  18  14  19  14  20  14  21  14  22  14
M  END
>  <minimizedAffinity>  (1) 
-5.70565319

>  <minimizedRMSD>  (1) 
0.772351384

$$$$
