
     RDKit          3D

 28 30  0  0  0  0  0  0  0  0999 V2000
   44.4510   36.0280   44.7670 C   0  0  0  0  0  0  0  0  0  0  0  0
   44.8360   35.7980   43.4310 C   0  0  0  0  0  0  0  0  0  0  0  0
   45.5120   34.6070   43.1390 C   0  0  0  0  0  0  0  0  0  0  0  0
   45.7610   33.7380   44.1590 N   0  0  0  0  0  0  0  0  0  0  0  0
   45.3660   34.0110   45.4410 C   0  0  0  0  0  0  0  0  0  0  0  0
   44.7280   35.1300   45.7310 N   0  0  0  0  0  0  0  0  0  0  0  0
   45.6710   33.0410   46.4470 N   0  0  0  0  0  0  0  0  0  0  0  0
   46.4510   31.9600   46.3330 C   0  0  0  0  0  0  0  0  0  0  0  0
   46.4570   31.3290   47.5200 N   0  0  0  0  0  0  0  0  0  0  0  0
   45.6880   32.0000   48.3890 C   0  0  0  0  0  0  0  0  0  0  0  0
   45.2110   33.0570   47.7050 N   0  0  0  0  0  0  0  0  0  0  0  0
   45.9570   34.2470   41.8330 N   0  0  0  0  0  0  0  0  0  0  0  0
   45.4730   33.4870   40.8500 C   0  0  0  0  0  0  0  0  0  0  0  0
   46.3170   33.4820   39.7930 N   0  0  0  0  0  0  0  0  0  0  0  0
   47.3460   34.2750   40.1700 C   0  0  0  0  0  0  0  0  0  0  0  0
   47.1340   34.7520   41.4260 N   0  0  0  0  0  0  0  0  0  0  0  0
   48.5140   34.5450   39.2830 C   0  0  0  0  0  0  0  0  0  0  0  0
   48.1680   34.2870   37.8270 C   0  0  0  0  0  0  0  0  0  0  0  0
   43.9168   36.9541   45.0257 H   0  0  0  0  0  0  0  0  0  0  0  0
   44.6124   36.5313   42.6421 H   0  0  0  0  0  0  0  0  0  0  0  0
   46.9914   31.6437   45.4286 H   0  0  0  0  0  0  0  0  0  0  0  0
   45.4887   31.7415   49.4395 H   0  0  0  0  0  0  0  0  0  0  0  0
   44.5196   32.9400   40.8928 H   0  0  0  0  0  0  0  0  0  0  0  0
   48.8175   35.5959   39.3991 H   0  0  0  0  0  0  0  0  0  0  0  0
   49.3340   33.8708   39.5713 H   0  0  0  0  0  0  0  0  0  0  0  0
   47.2873   33.6303   37.7702 H   0  0  0  0  0  0  0  0  0  0  0  0
   47.9461   35.2419   37.3281 H   0  0  0  0  0  0  0  0  0  0  0  0
   49.0199   33.8019   37.3281 H   0  0  0  0  0  0  0  0  0  0  0  0
  1  6  2  0
  2  1  1  0
  3  2  2  0
  3  4  1  0
  4  5  2  0
  5  6  1  0
  5  7  1  0
  7 11  1  0
  8  7  1  0
  8  9  2  0
  9 10  1  0
 11 10  2  0
 12  3  1  0
 13 12  1  0
 14 15  1  0
 14 13  2  0
 15 16  2  0
 16 12  1  0
 17 15  1  0
 18 17  1  0
  1 19  1  0
  2 20  1  0
  8 21  1  0
 10 22  1  0
 13 23  1  0
 17 24  1  0
 17 25  1  0
 18 26  1  0
 18 27  1  0
 18 28  1  0
M  ISO  8  19  14  20  14  21  14  22  14  23  14  24   8  25   8  26   8
M  ISO  2  27   8  28   8
M  END
>  <minimizedAffinity>  (1) 
-5.3363657

>  <minimizedRMSD>  (1) 
0.969836771

$$$$
