
     RDKit          3D

 52 56  0  0  0  0  0  0  0  0999 V2000
   47.2560   33.6060   42.6550 C   0  0  0  0  0  0  0  0  0  0  0  0
   44.7080   35.2960   44.8300 C   0  0  0  0  0  0  0  0  0  0  0  0
   45.5170   34.9520   43.7330 C   0  0  0  0  0  0  0  0  0  0  0  0
   46.4250   33.9460   43.8020 C   0  0  0  0  0  0  0  0  0  0  0  0
   46.5310   33.2740   44.9720 N   0  0  0  0  0  0  0  0  0  0  0  0
   45.7380   33.6160   46.0340 C   0  0  0  0  0  0  0  0  0  0  0  0
   44.8570   34.5950   45.9640 N   0  0  0  0  0  0  0  0  0  0  0  0
   46.0210   32.7440   47.2130 C   0  0  0  0  0  0  0  0  0  0  0  0
   45.0610   32.1250   48.1360 C   0  0  0  0  0  0  0  0  0  0  0  0
   46.2190   31.2790   49.2150 S   0  0  0  0  0  0  0  0  0  0  0  0
   47.7580   31.8750   48.2820 C   0  0  0  0  0  0  0  0  0  0  0  0
   47.3120   32.6240   47.2830 N   0  0  0  0  0  0  0  0  0  0  0  0
   49.0730   31.4450   48.7770 N   0  0  0  0  0  0  0  0  0  0  0  0
   49.6470   30.1760   48.3700 C   0  0  0  0  0  0  0  0  0  0  0  0
   49.5770   29.2210   49.5590 C   0  0  0  0  0  0  0  0  0  0  0  0
   49.3950   29.9910   50.7600 N   0  0  0  0  0  0  0  0  0  0  0  0
   50.2670   31.1570   50.8210 C   0  0  0  0  0  0  0  0  0  0  0  0
   49.9650   32.1070   49.6610 C   0  0  0  0  0  0  0  0  0  0  0  0
   47.5850   34.7110   41.7210 C   0  0  0  0  0  0  0  0  0  0  0  0
   47.3080   34.2510   40.3330 C   0  0  0  0  0  0  0  0  0  0  0  0
   48.2420   34.3420   39.3180 C   0  0  0  0  0  0  0  0  0  0  0  0
   48.0720   33.9430   38.0270 C   0  0  0  0  0  0  0  0  0  0  0  0
   46.8460   33.4080   37.7480 N   0  0  0  0  0  0  0  0  0  0  0  0
   45.9060   33.3030   38.7150 C   0  0  0  0  0  0  0  0  0  0  0  0
   46.0930   33.7070   40.0010 N   0  0  0  0  0  0  0  0  0  0  0  0
   44.6370   32.7240   38.3410 C   0  0  0  0  0  0  0  0  0  0  0  0
   43.4360   33.3010   38.7760 C   0  0  0  0  0  0  0  0  0  0  0  0
   42.2380   32.7380   38.4160 C   0  0  0  0  0  0  0  0  0  0  0  0
   42.1930   31.6410   37.6510 N   0  0  0  0  0  0  0  0  0  0  0  0
   43.3640   31.1070   37.2470 C   0  0  0  0  0  0  0  0  0  0  0  0
   44.5800   31.6190   37.5720 N   0  0  0  0  0  0  0  0  0  0  0  0
   48.2037   33.2000   43.0384 H   0  0  0  0  0  0  0  0  0  0  0  0
   46.6582   32.8960   42.0646 H   0  0  0  0  0  0  0  0  0  0  0  0
   43.9760   36.1141   44.7607 H   0  0  0  0  0  0  0  0  0  0  0  0
   45.4111   35.5136   42.7931 H   0  0  0  0  0  0  0  0  0  0  0  0
   43.9621   32.1672   48.1591 H   0  0  0  0  0  0  0  0  0  0  0  0
   49.0764   29.7624   47.5254 H   0  0  0  0  0  0  0  0  0  0  0  0
   50.6912   30.3141   48.0530 H   0  0  0  0  0  0  0  0  0  0  0  0
   48.7301   28.5310   49.4300 H   0  0  0  0  0  0  0  0  0  0  0  0
   50.5071   28.6375   49.6258 H   0  0  0  0  0  0  0  0  0  0  0  0
   48.4163   30.3095   50.8016 H   0  0  0  0  0  0  0  0  0  0  0  0
   50.1032   31.6832   51.7730 H   0  0  0  0  0  0  0  0  0  0  0  0
   51.3134   30.8254   50.7488 H   0  0  0  0  0  0  0  0  0  0  0  0
   50.8961   32.3598   49.1326 H   0  0  0  0  0  0  0  0  0  0  0  0
   49.5139   33.0379   50.0351 H   0  0  0  0  0  0  0  0  0  0  0  0
   46.9648   35.5897   41.9519 H   0  0  0  0  0  0  0  0  0  0  0  0
   48.6444   34.9890   41.8227 H   0  0  0  0  0  0  0  0  0  0  0  0
   49.2173   34.7791   39.5783 H   0  0  0  0  0  0  0  0  0  0  0  0
   48.8610   34.0437   37.2672 H   0  0  0  0  0  0  0  0  0  0  0  0
   43.4541   34.2034   39.4048 H   0  0  0  0  0  0  0  0  0  0  0  0
   41.2993   33.1956   38.7617 H   0  0  0  0  0  0  0  0  0  0  0  0
   43.3327   30.2050   36.6182 H   0  0  0  0  0  0  0  0  0  0  0  0
  1  4  1  0
  2  7  2  0
  3  4  2  0
  3  2  1  0
  4  5  1  0
  5  6  2  0
  6  8  1  0
  7  6  1  0
  8 12  1  0
  8  9  2  0
  9 10  1  0
 11 13  1  0
 11 10  1  0
 12 11  2  0
 13 18  1  0
 14 13  1  0
 14 15  1  0
 15 16  1  0
 16 17  1  0
 18 17  1  0
 19  1  1  0
 20 19  1  0
 21 20  2  0
 22 21  1  0
 23 22  2  0
 23 24  1  0
 24 25  2  0
 25 20  1  0
 26 24  1  0
 26 27  2  0
 28 27  1  0
 29 28  2  0
 30 31  2  0
 30 29  1  0
 31 26  1  0
  1 32  1  0
  1 33  1  0
  2 34  1  0
  3 35  1  0
  9 36  1  0
 14 37  1  0
 14 38  1  0
 15 39  1  0
 15 40  1  0
 16 41  1  0
 17 42  1  0
 17 43  1  0
 18 44  1  0
 18 45  1  0
 19 46  1  0
 19 47  1  0
 21 48  1  0
 22 49  1  0
 27 50  1  0
 28 51  1  0
 30 52  1  0
M  ISO  8  32   8  33   8  34  14  35  14  36  14  37  13  38  13  39  13
M  ISO  8  40  13  41   5  42  13  43  13  44  13  45  13  46   8  47   8
M  ISO  5  48  14  49  14  50  14  51  14  52  14
M  END
>  <minimizedAffinity>  (1) 
-6.78553486

>  <minimizedRMSD>  (1) 
0.130310461

$$$$
