
     RDKit          3D

 38 41  0  0  0  0  0  0  0  0999 V2000
   44.7450   35.5600   44.2340 C   0  0  0  0  0  0  0  0  0  0  0  0
   45.5090   35.2930   43.0870 C   0  0  0  0  0  0  0  0  0  0  0  0
   46.4460   34.2220   43.1580 C   0  0  0  0  0  0  0  0  0  0  0  0
   46.5500   33.5260   44.3160 N   0  0  0  0  0  0  0  0  0  0  0  0
   45.7810   33.8320   45.3990 C   0  0  0  0  0  0  0  0  0  0  0  0
   44.9030   34.8300   45.3440 N   0  0  0  0  0  0  0  0  0  0  0  0
   45.9320   33.0700   46.5840 N   0  0  0  0  0  0  0  0  0  0  0  0
   46.8680   32.1550   46.8250 C   0  0  0  0  0  0  0  0  0  0  0  0
   46.6720   31.6630   48.0530 N   0  0  0  0  0  0  0  0  0  0  0  0
   45.6130   32.2520   48.6110 C   0  0  0  0  0  0  0  0  0  0  0  0
   45.1740   33.1200   47.6780 N   0  0  0  0  0  0  0  0  0  0  0  0
   47.2790   33.8540   42.0580 N   0  0  0  0  0  0  0  0  0  0  0  0
   48.0930   32.8270   41.8010 C   0  0  0  0  0  0  0  0  0  0  0  0
   48.6440   32.9810   40.5860 N   0  0  0  0  0  0  0  0  0  0  0  0
   48.1460   34.1270   40.1080 C   0  0  0  0  0  0  0  0  0  0  0  0
   47.2880   34.7000   41.0060 N   0  0  0  0  0  0  0  0  0  0  0  0
   48.4010   34.7560   38.8640 O   0  0  0  0  0  0  0  0  0  0  0  0
   47.1060   32.6200   35.6730 N   0  0  0  0  0  0  0  0  0  0  0  0
   48.5250   32.7840   35.7420 C   0  0  0  0  0  0  0  0  0  0  0  0
   49.0010   33.5580   36.9370 C   0  0  0  0  0  0  0  0  0  0  0  0
   47.8830   34.2640   37.6650 C   0  0  0  0  0  0  0  0  0  0  0  0
   46.7280   33.3680   37.9770 C   0  0  0  0  0  0  0  0  0  0  0  0
   46.5260   32.2790   36.9540 C   0  0  0  0  0  0  0  0  0  0  0  0
   44.0091   36.3775   44.2200 H   0  0  0  0  0  0  0  0  0  0  0  0
   45.3890   35.8874   42.1692 H   0  0  0  0  0  0  0  0  0  0  0  0
   47.6673   31.8544   46.1316 H   0  0  0  0  0  0  0  0  0  0  0  0
   45.1916   32.0697   49.6106 H   0  0  0  0  0  0  0  0  0  0  0  0
   48.2832   31.9835   42.4809 H   0  0  0  0  0  0  0  0  0  0  0  0
   46.6869   33.5017   35.3446 H   0  0  0  0  0  0  0  0  0  0  0  0
   48.9859   31.7857   35.7725 H   0  0  0  0  0  0  0  0  0  0  0  0
   48.8182   33.3639   34.8544 H   0  0  0  0  0  0  0  0  0  0  0  0
   49.4887   32.8612   37.6346 H   0  0  0  0  0  0  0  0  0  0  0  0
   49.6965   34.3292   36.5743 H   0  0  0  0  0  0  0  0  0  0  0  0
   47.5040   35.0628   37.0106 H   0  0  0  0  0  0  0  0  0  0  0  0
   46.9043   32.8990   38.9563 H   0  0  0  0  0  0  0  0  0  0  0  0
   45.8215   33.9911   37.9736 H   0  0  0  0  0  0  0  0  0  0  0  0
   45.4467   32.1128   36.8215 H   0  0  0  0  0  0  0  0  0  0  0  0
   47.0278   31.3719   37.3219 H   0  0  0  0  0  0  0  0  0  0  0  0
  1  6  2  0
  2  3  2  0
  2  1  1  0
  3  4  1  0
  4  5  2  0
  5  7  1  0
  6  5  1  0
  7  8  1  0
  7 11  1  0
  8  9  2  0
  9 10  1  0
 11 10  2  0
 12  3  1  0
 13 12  1  0
 14 13  2  0
 15 14  1  0
 15 16  2  0
 16 12  1  0
 17 15  1  0
 18 19  1  0
 18 23  1  0
 19 20  1  0
 20 21  1  0
 21 22  1  0
 21 17  1  0
 23 22  1  0
  1 24  1  0
  2 25  1  0
  8 26  1  0
 10 27  1  0
 13 28  1  0
 18 29  1  0
 19 30  1  0
 19 31  1  0
 20 32  1  0
 20 33  1  0
 21 34  1  0
 22 35  1  0
 22 36  1  0
 23 37  1  0
 23 38  1  0
M  ISO  8  24  14  25  14  26  14  27  14  28  14  29   5  30  13  31  13
M  ISO  7  32  13  33  13  34  13  35  13  36  13  37  13  38  13
M  END
>  <minimizedAffinity>  (1) 
-6.08744812

>  <minimizedRMSD>  (1) 
1.69267547

$$$$
