
     RDKit          3D

 32 35  0  0  0  0  0  0  0  0999 V2000
   44.7350   35.5730   44.2900 C   0  0  0  0  0  0  0  0  0  0  0  0
   45.5670   35.3560   43.1880 C   0  0  0  0  0  0  0  0  0  0  0  0
   46.5490   34.3490   43.2730 C   0  0  0  0  0  0  0  0  0  0  0  0
   46.6340   33.6410   44.4250 N   0  0  0  0  0  0  0  0  0  0  0  0
   45.7930   33.8950   45.4740 C   0  0  0  0  0  0  0  0  0  0  0  0
   44.8770   34.8310   45.4010 N   0  0  0  0  0  0  0  0  0  0  0  0
   45.9560   33.0940   46.6530 N   0  0  0  0  0  0  0  0  0  0  0  0
   46.9470   32.2410   46.9280 C   0  0  0  0  0  0  0  0  0  0  0  0
   46.7110   31.7030   48.1310 N   0  0  0  0  0  0  0  0  0  0  0  0
   45.5820   32.2000   48.6330 C   0  0  0  0  0  0  0  0  0  0  0  0
   45.1150   33.0730   47.6970 N   0  0  0  0  0  0  0  0  0  0  0  0
   47.4580   34.0400   42.2060 N   0  0  0  0  0  0  0  0  0  0  0  0
   48.5260   33.2800   42.0810 C   0  0  0  0  0  0  0  0  0  0  0  0
   48.9970   33.3670   40.8290 N   0  0  0  0  0  0  0  0  0  0  0  0
   48.1870   34.2110   40.1650 C   0  0  0  0  0  0  0  0  0  0  0  0
   47.1910   34.6590   41.0210 N   0  0  0  0  0  0  0  0  0  0  0  0
   48.2240   34.6500   38.8450 O   0  0  0  0  0  0  0  0  0  0  0  0
   47.7160   33.8620   37.8430 C   0  0  0  0  0  0  0  0  0  0  0  0
   46.5280   33.2350   37.5410 C   0  0  0  0  0  0  0  0  0  0  0  0
   46.3620   32.4910   36.3960 C   0  0  0  0  0  0  0  0  0  0  0  0
   47.3840   32.3320   35.4820 C   0  0  0  0  0  0  0  0  0  0  0  0
   48.5620   32.9680   35.8030 C   0  0  0  0  0  0  0  0  0  0  0  0
   48.7330   33.7080   36.9390 N   0  0  0  0  0  0  0  0  0  0  0  0
   43.9614   36.3539   44.2475 H   0  0  0  0  0  0  0  0  0  0  0  0
   45.4575   35.9583   42.2741 H   0  0  0  0  0  0  0  0  0  0  0  0
   47.8070   32.0194   46.2790 H   0  0  0  0  0  0  0  0  0  0  0  0
   45.1221   31.9563   49.6021 H   0  0  0  0  0  0  0  0  0  0  0  0
   48.9649   32.6670   42.8820 H   0  0  0  0  0  0  0  0  0  0  0  0
   45.6832   33.3323   38.2388 H   0  0  0  0  0  0  0  0  0  0  0  0
   45.3910   32.0110   36.2041 H   0  0  0  0  0  0  0  0  0  0  0  0
   47.2657   31.7395   34.5628 H   0  0  0  0  0  0  0  0  0  0  0  0
   49.4101   32.8757   35.1086 H   0  0  0  0  0  0  0  0  0  0  0  0
  1  6  2  0
  2  3  2  0
  2  1  1  0
  3  4  1  0
  4  5  2  0
  5  7  1  0
  6  5  1  0
  7  8  1  0
  7 11  1  0
  8  9  2  0
  9 10  1  0
 11 10  2  0
 12  3  1  0
 13 12  1  0
 14 13  2  0
 15 14  1  0
 15 16  2  0
 16 12  1  0
 17 15  1  0
 18 17  1  0
 19 18  2  0
 20 19  1  0
 21 22  1  0
 21 20  2  0
 22 23  2  0
 23 18  1  0
  1 24  1  0
  2 25  1  0
  8 26  1  0
 10 27  1  0
 13 28  1  0
 19 29  1  0
 20 30  1  0
 21 31  1  0
 22 32  1  0
M  ISO  8  24  14  25  14  26  14  27  14  28  14  29  14  30  14  31  14
M  ISO  1  32  14
M  END
>  <minimizedAffinity>  (1) 
-6.19480896

>  <minimizedRMSD>  (1) 
2.08364272

$$$$
