
     RDKit          3D

 30 33  0  0  0  0  0  0  0  0999 V2000
   44.7600   35.4840   44.4850 C   0  0  0  0  0  0  0  0  0  0  0  0
   45.5820   35.3120   43.3480 C   0  0  0  0  0  0  0  0  0  0  0  0
   46.5710   34.3010   43.4180 C   0  0  0  0  0  0  0  0  0  0  0  0
   46.6700   33.5670   44.5530 N   0  0  0  0  0  0  0  0  0  0  0  0
   45.8540   33.7770   45.6140 C   0  0  0  0  0  0  0  0  0  0  0  0
   44.9180   34.7200   45.5710 N   0  0  0  0  0  0  0  0  0  0  0  0
   46.0070   32.9780   46.7750 N   0  0  0  0  0  0  0  0  0  0  0  0
   47.0140   32.1440   47.0360 C   0  0  0  0  0  0  0  0  0  0  0  0
   46.7850   31.5850   48.2320 N   0  0  0  0  0  0  0  0  0  0  0  0
   45.6460   32.0480   48.7450 C   0  0  0  0  0  0  0  0  0  0  0  0
   45.1740   32.9190   47.8180 N   0  0  0  0  0  0  0  0  0  0  0  0
   47.4590   34.0280   42.3410 N   0  0  0  0  0  0  0  0  0  0  0  0
   48.4750   33.1920   42.1480 C   0  0  0  0  0  0  0  0  0  0  0  0
   48.9820   33.3480   40.9170 N   0  0  0  0  0  0  0  0  0  0  0  0
   48.2440   34.3170   40.3480 C   0  0  0  0  0  0  0  0  0  0  0  0
   47.2830   34.7580   41.2180 N   0  0  0  0  0  0  0  0  0  0  0  0
   48.3480   34.8770   39.0490 O   0  0  0  0  0  0  0  0  0  0  0  0
   48.2140   34.0650   37.9310 C   0  0  0  0  0  0  0  0  0  0  0  0
   47.2350   33.5770   37.0910 C   0  0  0  0  0  0  0  0  0  0  0  0
   47.8220   32.7960   36.1510 N   0  0  0  0  0  0  0  0  0  0  0  0
   49.1460   32.7940   36.4000 C   0  0  0  0  0  0  0  0  0  0  0  0
   49.3970   33.5630   37.4820 N   0  0  0  0  0  0  0  0  0  0  0  0
   43.9785   36.2581   44.4763 H   0  0  0  0  0  0  0  0  0  0  0  0
   45.4590   35.9350   42.4498 H   0  0  0  0  0  0  0  0  0  0  0  0
   47.8791   31.9494   46.3851 H   0  0  0  0  0  0  0  0  0  0  0  0
   45.1883   31.7822   49.7093 H   0  0  0  0  0  0  0  0  0  0  0  0
   48.8469   32.4737   42.8935 H   0  0  0  0  0  0  0  0  0  0  0  0
   46.1580   33.7864   37.1704 H   0  0  0  0  0  0  0  0  0  0  0  0
   49.9032   32.2518   35.8147 H   0  0  0  0  0  0  0  0  0  0  0  0
   50.3236   33.7391   37.8958 H   0  0  0  0  0  0  0  0  0  0  0  0
  1  6  2  0
  2  3  2  0
  2  1  1  0
  3  4  1  0
  4  5  2  0
  5  7  1  0
  6  5  1  0
  7  8  1  0
  7 11  1  0
  8  9  2  0
  9 10  1  0
 11 10  2  0
 12  3  1  0
 13 12  1  0
 14 13  2  0
 15 14  1  0
 15 16  2  0
 16 12  1  0
 17 15  1  0
 18 17  1  0
 19 18  2  0
 20 21  2  0
 20 19  1  0
 21 22  1  0
 22 18  1  0
  1 23  1  0
  2 24  1  0
  8 25  1  0
 10 26  1  0
 13 27  1  0
 19 28  1  0
 21 29  1  0
 22 30  1  0
M  ISO  8  23  14  24  14  25  14  26  14  27  14  28  14  29  14  30   9
M  END
>  <minimizedAffinity>  (1) 
-6.15297985

>  <minimizedRMSD>  (1) 
1.56727338

$$$$
