
     RDKit          3D

 33 36  0  0  0  0  0  0  0  0999 V2000
   44.7240   35.4520   44.6380 C   0  0  0  0  0  0  0  0  0  0  0  0
   45.5530   35.2940   43.5060 C   0  0  0  0  0  0  0  0  0  0  0  0
   46.5510   34.2780   43.5640 C   0  0  0  0  0  0  0  0  0  0  0  0
   46.6430   33.5290   44.6910 N   0  0  0  0  0  0  0  0  0  0  0  0
   45.8100   33.7290   45.7550 C   0  0  0  0  0  0  0  0  0  0  0  0
   44.8880   34.6580   45.7220 N   0  0  0  0  0  0  0  0  0  0  0  0
   45.9750   32.9030   46.8910 N   0  0  0  0  0  0  0  0  0  0  0  0
   46.9590   32.0120   47.1140 C   0  0  0  0  0  0  0  0  0  0  0  0
   46.7430   31.4430   48.3010 N   0  0  0  0  0  0  0  0  0  0  0  0
   45.6300   31.9530   48.8580 C   0  0  0  0  0  0  0  0  0  0  0  0
   45.1700   32.8620   47.9580 N   0  0  0  0  0  0  0  0  0  0  0  0
   47.4370   34.0280   42.4860 N   0  0  0  0  0  0  0  0  0  0  0  0
   48.4930   33.2330   42.3020 C   0  0  0  0  0  0  0  0  0  0  0  0
   48.9740   33.3960   41.0480 N   0  0  0  0  0  0  0  0  0  0  0  0
   48.1910   34.3020   40.4790 C   0  0  0  0  0  0  0  0  0  0  0  0
   47.2220   34.7140   41.3540 N   0  0  0  0  0  0  0  0  0  0  0  0
   48.2530   34.8380   39.1660 O   0  0  0  0  0  0  0  0  0  0  0  0
   48.0460   34.0170   38.0780 C   0  0  0  0  0  0  0  0  0  0  0  0
   48.8760   33.7880   36.9900 C   0  0  0  0  0  0  0  0  0  0  0  0
   48.4900   32.9280   35.9990 C   0  0  0  0  0  0  0  0  0  0  0  0
   47.2720   32.2790   36.0710 C   0  0  0  0  0  0  0  0  0  0  0  0
   46.4200   32.4860   37.1460 C   0  0  0  0  0  0  0  0  0  0  0  0
   46.8330   33.3610   38.1320 C   0  0  0  0  0  0  0  0  0  0  0  0
   43.9408   36.2244   44.6390 H   0  0  0  0  0  0  0  0  0  0  0  0
   45.4335   35.9290   42.6158 H   0  0  0  0  0  0  0  0  0  0  0  0
   47.7960   31.7914   46.4352 H   0  0  0  0  0  0  0  0  0  0  0  0
   45.1879   31.6913   49.8307 H   0  0  0  0  0  0  0  0  0  0  0  0
   48.9094   32.5487   43.0559 H   0  0  0  0  0  0  0  0  0  0  0  0
   49.8475   34.2997   36.9242 H   0  0  0  0  0  0  0  0  0  0  0  0
   49.1532   32.7518   35.1393 H   0  0  0  0  0  0  0  0  0  0  0  0
   46.9747   31.5903   35.2665 H   0  0  0  0  0  0  0  0  0  0  0  0
   45.4499   31.9716   37.2110 H   0  0  0  0  0  0  0  0  0  0  0  0
   46.1708   33.5415   38.9916 H   0  0  0  0  0  0  0  0  0  0  0  0
  1  6  2  0
  2  3  2  0
  2  1  1  0
  3  4  1  0
  4  5  2  0
  5  7  1  0
  6  5  1  0
  7  8  1  0
  7 11  1  0
  8  9  2  0
  9 10  1  0
 11 10  2  0
 12  3  1  0
 13 12  1  0
 14 13  2  0
 15 14  1  0
 15 16  2  0
 16 12  1  0
 17 15  1  0
 18 23  1  0
 18 17  1  0
 19 18  2  0
 20 21  2  0
 20 19  1  0
 21 22  1  0
 22 23  2  0
  1 24  1  0
  2 25  1  0
  8 26  1  0
 10 27  1  0
 13 28  1  0
 19 29  1  0
 20 30  1  0
 21 31  1  0
 22 32  1  0
 23 33  1  0
M  ISO  8  24  14  25  14  26  14  27  14  28  14  29  14  30  14  31  14
M  ISO  2  32  14  33  14
M  END
>  <minimizedAffinity>  (1) 
-6.18695259

>  <minimizedRMSD>  (1) 
1.77210832

$$$$
