
     RDKit          3D

 26 28  0  0  0  0  0  0  0  0999 V2000
   44.5870   35.7190   44.6800 C   0  0  0  0  0  0  0  0  0  0  0  0
   45.2970   35.5660   43.4860 C   0  0  0  0  0  0  0  0  0  0  0  0
   46.2200   34.5080   43.4040 C   0  0  0  0  0  0  0  0  0  0  0  0
   46.3770   33.6920   44.4870 N   0  0  0  0  0  0  0  0  0  0  0  0
   45.6540   33.8940   45.6260 C   0  0  0  0  0  0  0  0  0  0  0  0
   44.7900   34.8760   45.7130 N   0  0  0  0  0  0  0  0  0  0  0  0
   45.8720   32.9980   46.7200 N   0  0  0  0  0  0  0  0  0  0  0  0
   46.8190   32.0590   46.8230 C   0  0  0  0  0  0  0  0  0  0  0  0
   46.6660   31.4470   48.0050 N   0  0  0  0  0  0  0  0  0  0  0  0
   45.6270   31.9850   48.6650 C   0  0  0  0  0  0  0  0  0  0  0  0
   45.1350   32.9600   47.8430 N   0  0  0  0  0  0  0  0  0  0  0  0
   47.0130   34.2390   42.2370 N   0  0  0  0  0  0  0  0  0  0  0  0
   46.9100   34.5390   40.9390 C   0  0  0  0  0  0  0  0  0  0  0  0
   47.9790   34.0070   40.2900 N   0  0  0  0  0  0  0  0  0  0  0  0
   48.7080   33.3940   41.2110 C   0  0  0  0  0  0  0  0  0  0  0  0
   48.1280   33.5210   42.4480 N   0  0  0  0  0  0  0  0  0  0  0  0
   49.9070   32.7010   41.0150 O   0  0  0  0  0  0  0  0  0  0  0  0
   50.7340   32.5720   42.1310 C   0  0  0  0  0  0  0  0  0  0  0  0
   51.1380   31.5400   42.7610 O   0  0  0  0  0  0  0  0  0  0  0  0
   51.1980   33.7750   42.6460 O   0  0  0  0  0  0  0  0  0  0  0  0
   43.8556   36.5348   44.7782 H   0  0  0  0  0  0  0  0  0  0  0  0
   45.1393   36.2499   42.6390 H   0  0  0  0  0  0  0  0  0  0  0  0
   47.5876   31.8297   46.0702 H   0  0  0  0  0  0  0  0  0  0  0  0
   45.2509   31.7005   49.6588 H   0  0  0  0  0  0  0  0  0  0  0  0
   46.0981   35.1180   40.4747 H   0  0  0  0  0  0  0  0  0  0  0  0
   51.7914   33.7782   43.4384 H   0  0  0  0  0  0  0  0  0  0  0  0
  1  6  2  0
  2  1  1  0
  3  2  2  0
  3  4  1  0
  4  5  2  0
  5  6  1  0
  5  7  1  0
  7  8  1  0
  7 11  1  0
  8  9  2  0
  9 10  1  0
 11 10  2  0
 12 16  1  0
 12  3  1  0
 13 12  1  0
 14 13  2  0
 14 15  1  0
 15 16  2  0
 17 15  1  0
 17 18  1  0
 18 20  1  0
 18 19  2  0
  1 21  1  0
  2 22  1  0
  8 23  1  0
 10 24  1  0
 13 25  1  0
 20 26  1  0
M  ISO  6  21  14  22  14  23  14  24  14  25  14  26   3
M  END
>  <minimizedAffinity>  (1) 
-5.89898682

>  <minimizedRMSD>  (1) 
2.72623205

$$$$
