
     RDKit          3D

 29 32  0  0  0  0  0  0  0  0999 V2000
   44.7580   35.5470   44.3530 C   0  0  0  0  0  0  0  0  0  0  0  0
   45.5660   35.3460   43.2180 C   0  0  0  0  0  0  0  0  0  0  0  0
   46.5350   34.3040   43.2910 C   0  0  0  0  0  0  0  0  0  0  0  0
   46.6190   33.5810   44.4290 N   0  0  0  0  0  0  0  0  0  0  0  0
   45.8160   33.8170   45.4920 C   0  0  0  0  0  0  0  0  0  0  0  0
   44.9060   34.7790   45.4520 N   0  0  0  0  0  0  0  0  0  0  0  0
   45.9630   33.0190   46.6590 N   0  0  0  0  0  0  0  0  0  0  0  0
   46.9260   32.1260   46.8970 C   0  0  0  0  0  0  0  0  0  0  0  0
   46.7160   31.5910   48.1050 N   0  0  0  0  0  0  0  0  0  0  0  0
   45.6140   32.1390   48.6510 C   0  0  0  0  0  0  0  0  0  0  0  0
   45.1690   33.0200   47.7330 N   0  0  0  0  0  0  0  0  0  0  0  0
   47.4180   33.9950   42.2090 N   0  0  0  0  0  0  0  0  0  0  0  0
   48.4110   33.1200   42.0230 C   0  0  0  0  0  0  0  0  0  0  0  0
   48.9100   33.2690   40.7780 N   0  0  0  0  0  0  0  0  0  0  0  0
   48.2030   34.2430   40.2220 C   0  0  0  0  0  0  0  0  0  0  0  0
   47.2530   34.7250   41.0930 N   0  0  0  0  0  0  0  0  0  0  0  0
   48.3220   34.7930   38.9140 O   0  0  0  0  0  0  0  0  0  0  0  0
   47.7930   33.9700   37.9300 C   0  0  0  0  0  0  0  0  0  0  0  0
   48.9070   33.7900   37.1110 C   0  0  0  0  0  0  0  0  0  0  0  0
   48.2740   32.6750   35.7380 S   0  0  0  0  0  0  0  0  0  0  0  0
   46.5680   32.6750   36.5750 C   0  0  0  0  0  0  0  0  0  0  0  0
   46.7500   33.3240   37.4660 N   0  0  0  0  0  0  0  0  0  0  0  0
   43.9962   36.3405   44.3436 H   0  0  0  0  0  0  0  0  0  0  0  0
   45.4544   35.9652   42.3157 H   0  0  0  0  0  0  0  0  0  0  0  0
   47.7518   31.8730   46.2158 H   0  0  0  0  0  0  0  0  0  0  0  0
   45.1724   31.9160   49.6335 H   0  0  0  0  0  0  0  0  0  0  0  0
   48.7659   32.3925   42.7679 H   0  0  0  0  0  0  0  0  0  0  0  0
   49.9183   34.2035   37.2388 H   0  0  0  0  0  0  0  0  0  0  0  0
   45.6427   32.1682   36.2635 H   0  0  0  0  0  0  0  0  0  0  0  0
  1  6  2  0
  2  3  2  0
  2  1  1  0
  3  4  1  0
  4  5  2  0
  5  7  1  0
  6  5  1  0
  7  8  1  0
  7 11  1  0
  8  9  2  0
  9 10  1  0
 11 10  2  0
 12  3  1  0
 13 12  1  0
 14 13  2  0
 15 14  1  0
 15 16  2  0
 16 12  1  0
 17 15  1  0
 18 17  1  0
 19 18  2  0
 20 21  1  0
 20 19  1  0
 21 22  2  0
 22 18  1  0
  1 23  1  0
  2 24  1  0
  8 25  1  0
 10 26  1  0
 13 27  1  0
 19 28  1  0
 21 29  1  0
M  ISO  7  23  14  24  14  25  14  26  14  27  14  28  14  29  14
M  END
>  <minimizedAffinity>  (1) 
-5.9682579

>  <minimizedRMSD>  (1) 
1.76978314

$$$$
