
     RDKit          3D

 45 49  0  0  0  0  0  0  0  0999 V2000
   47.3940   33.7340   43.0070 C   0  0  0  0  0  0  0  0  0  0  0  0
   44.7140   35.3320   45.0890 C   0  0  0  0  0  0  0  0  0  0  0  0
   45.6050   35.0440   44.0400 C   0  0  0  0  0  0  0  0  0  0  0  0
   46.4790   34.0080   44.1070 C   0  0  0  0  0  0  0  0  0  0  0  0
   46.4630   33.2560   45.2220 N   0  0  0  0  0  0  0  0  0  0  0  0
   45.5920   33.5430   46.2370 C   0  0  0  0  0  0  0  0  0  0  0  0
   44.7500   34.5430   46.1750 N   0  0  0  0  0  0  0  0  0  0  0  0
   45.7510   32.5830   47.3640 C   0  0  0  0  0  0  0  0  0  0  0  0
   44.7160   31.8020   48.0540 C   0  0  0  0  0  0  0  0  0  0  0  0
   45.7730   30.9320   49.2510 S   0  0  0  0  0  0  0  0  0  0  0  0
   47.3640   31.7380   48.6390 C   0  0  0  0  0  0  0  0  0  0  0  0
   47.0290   32.5480   47.6510 N   0  0  0  0  0  0  0  0  0  0  0  0
   48.6480   31.3700   49.3080 C   0  0  0  0  0  0  0  0  0  0  0  0
   49.7880   32.0720   49.3350 C   0  0  0  0  0  0  0  0  0  0  0  0
   50.6350   31.3180   50.0570 N   0  0  0  0  0  0  0  0  0  0  0  0
   49.9690   30.2100   50.4270 C   0  0  0  0  0  0  0  0  0  0  0  0
   48.6830   30.2030   49.9640 N   0  0  0  0  0  0  0  0  0  0  0  0
   47.5860   34.8120   42.0100 C   0  0  0  0  0  0  0  0  0  0  0  0
   47.2220   34.2720   40.6660 C   0  0  0  0  0  0  0  0  0  0  0  0
   48.1590   34.0780   39.6670 C   0  0  0  0  0  0  0  0  0  0  0  0
   47.9330   33.5960   38.4170 C   0  0  0  0  0  0  0  0  0  0  0  0
   46.6310   33.2810   38.1610 N   0  0  0  0  0  0  0  0  0  0  0  0
   45.6810   33.4580   39.1180 C   0  0  0  0  0  0  0  0  0  0  0  0
   45.9320   33.9410   40.3560 N   0  0  0  0  0  0  0  0  0  0  0  0
   44.3240   33.0980   38.7610 C   0  0  0  0  0  0  0  0  0  0  0  0
   43.2540   33.8950   39.2100 C   0  0  0  0  0  0  0  0  0  0  0  0
   41.9680   33.5590   38.8750 C   0  0  0  0  0  0  0  0  0  0  0  0
   41.7120   32.4830   38.1270 N   0  0  0  0  0  0  0  0  0  0  0  0
   42.7530   31.7350   37.7080 C   0  0  0  0  0  0  0  0  0  0  0  0
   44.0580   32.0160   38.0080 N   0  0  0  0  0  0  0  0  0  0  0  0
   48.3779   33.5052   43.4425 H   0  0  0  0  0  0  0  0  0  0  0  0
   46.9313   32.9067   42.4489 H   0  0  0  0  0  0  0  0  0  0  0  0
   44.0110   36.1754   45.0222 H   0  0  0  0  0  0  0  0  0  0  0  0
   45.5933   35.6762   43.1399 H   0  0  0  0  0  0  0  0  0  0  0  0
   43.6285   31.7569   47.8946 H   0  0  0  0  0  0  0  0  0  0  0  0
   49.9872   33.0487   48.8698 H   0  0  0  0  0  0  0  0  0  0  0  0
   50.4081   29.4030   51.0320 H   0  0  0  0  0  0  0  0  0  0  0  0
   47.9446   29.4954   50.0860 H   0  0  0  0  0  0  0  0  0  0  0  0
   46.9389   35.6668   42.2560 H   0  0  0  0  0  0  0  0  0  0  0  0
   48.6322   35.1519   42.0133 H   0  0  0  0  0  0  0  0  0  0  0  0
   49.1986   34.3423   39.9108 H   0  0  0  0  0  0  0  0  0  0  0  0
   48.7336   33.4703   37.6732 H   0  0  0  0  0  0  0  0  0  0  0  0
   43.4492   34.7842   39.8274 H   0  0  0  0  0  0  0  0  0  0  0  0
   41.1349   34.1848   39.2275 H   0  0  0  0  0  0  0  0  0  0  0  0
   42.5411   30.8496   37.0906 H   0  0  0  0  0  0  0  0  0  0  0  0
  1  4  1  0
  2  7  2  0
  3  4  2  0
  3  2  1  0
  4  5  1  0
  5  6  2  0
  6  8  1  0
  7  6  1  0
  8 12  1  0
  8  9  2  0
  9 10  1  0
 11 10  1  0
 11 13  1  0
 12 11  2  0
 13 14  2  0
 13 17  1  0
 14 15  1  0
 15 16  2  0
 17 16  1  0
 18  1  1  0
 19 18  1  0
 20 19  2  0
 21 20  1  0
 22 21  2  0
 22 23  1  0
 23 24  2  0
 24 19  1  0
 25 23  1  0
 25 26  2  0
 27 26  1  0
 28 27  2  0
 29 30  2  0
 29 28  1  0
 30 25  1  0
  1 31  1  0
  1 32  1  0
  2 33  1  0
  3 34  1  0
  9 35  1  0
 14 36  1  0
 16 37  1  0
 17 38  1  0
 18 39  1  0
 18 40  1  0
 20 41  1  0
 21 42  1  0
 26 43  1  0
 27 44  1  0
 29 45  1  0
M  ISO  8  31   8  32   8  33  14  34  14  35  14  36  14  37  14  38   9
M  ISO  7  39   8  40   8  41  14  42  14  43  14  44  14  45  14
M  END
>  <minimizedAffinity>  (1) 
-6.49020386

>  <minimizedRMSD>  (1) 
0.585644543

$$$$
