
     RDKit          3D

 40 43  0  0  0  0  0  0  0  0999 V2000
   46.8120   34.7850   41.7410 C   0  0  0  0  0  0  0  0  0  0  0  0
   45.8120   34.2510   40.7740 C   0  0  0  0  0  0  0  0  0  0  0  0
   46.1350   33.3600   39.7760 C   0  0  0  0  0  0  0  0  0  0  0  0
   45.2970   32.8200   38.8520 C   0  0  0  0  0  0  0  0  0  0  0  0
   44.0010   33.2290   38.9550 N   0  0  0  0  0  0  0  0  0  0  0  0
   43.6390   34.1050   39.9220 C   0  0  0  0  0  0  0  0  0  0  0  0
   44.4980   34.6270   40.8310 N   0  0  0  0  0  0  0  0  0  0  0  0
   42.2370   34.4960   39.9730 C   0  0  0  0  0  0  0  0  0  0  0  0
   41.8120   35.4990   40.8410 C   0  0  0  0  0  0  0  0  0  0  0  0
   40.4910   35.8570   40.8820 C   0  0  0  0  0  0  0  0  0  0  0  0
   39.5960   35.2640   40.1050 N   0  0  0  0  0  0  0  0  0  0  0  0
   40.0240   34.2880   39.2620 C   0  0  0  0  0  0  0  0  0  0  0  0
   41.3270   33.8940   39.1840 N   0  0  0  0  0  0  0  0  0  0  0  0
   46.9480   33.8170   42.8540 C   0  0  0  0  0  0  0  0  0  0  0  0
   44.5740   35.4360   45.2700 C   0  0  0  0  0  0  0  0  0  0  0  0
   45.3290   35.1450   44.1200 C   0  0  0  0  0  0  0  0  0  0  0  0
   46.1760   34.0870   44.0620 C   0  0  0  0  0  0  0  0  0  0  0  0
   46.2800   33.3080   45.1520 N   0  0  0  0  0  0  0  0  0  0  0  0
   45.5430   33.5910   46.2710 C   0  0  0  0  0  0  0  0  0  0  0  0
   44.7220   34.6150   46.3310 N   0  0  0  0  0  0  0  0  0  0  0  0
   45.8030   32.6040   47.3630 C   0  0  0  0  0  0  0  0  0  0  0  0
   44.8450   31.7780   48.1000 C   0  0  0  0  0  0  0  0  0  0  0  0
   46.0050   30.9180   49.1860 S   0  0  0  0  0  0  0  0  0  0  0  0
   47.5320   31.7880   48.4860 C   0  0  0  0  0  0  0  0  0  0  0  0
   47.0930   32.6100   47.5470 N   0  0  0  0  0  0  0  0  0  0  0  0
   48.9100   31.4350   49.0660 C   0  0  0  0  0  0  0  0  0  0  0  0
   48.9020   30.5120   49.9010 O   0  0  0  0  0  0  0  0  0  0  0  0
   46.4702   35.7548   42.1316 H   0  0  0  0  0  0  0  0  0  0  0  0
   47.7822   34.9269   41.2423 H   0  0  0  0  0  0  0  0  0  0  0  0
   47.1890   33.0503   39.7198 H   0  0  0  0  0  0  0  0  0  0  0  0
   45.6373   32.1104   38.0834 H   0  0  0  0  0  0  0  0  0  0  0  0
   42.5385   36.0042   41.4944 H   0  0  0  0  0  0  0  0  0  0  0  0
   40.1671   36.6504   41.5717 H   0  0  0  0  0  0  0  0  0  0  0  0
   39.2860   33.7935   38.6133 H   0  0  0  0  0  0  0  0  0  0  0  0
   46.6398   32.8309   42.4762 H   0  0  0  0  0  0  0  0  0  0  0  0
   48.0008   33.8846   43.1656 H   0  0  0  0  0  0  0  0  0  0  0  0
   43.8908   36.2974   45.3035 H   0  0  0  0  0  0  0  0  0  0  0  0
   45.2296   35.7962   43.2391 H   0  0  0  0  0  0  0  0  0  0  0  0
   43.7506   31.7035   48.0176 H   0  0  0  0  0  0  0  0  0  0  0  0
   49.8311   31.9567   48.7670 H   0  0  0  0  0  0  0  0  0  0  0  0
  1 14  1  0
  2  7  1  0
  2  1  1  0
  3  2  2  0
  4  5  2  0
  4  3  1  0
  5  6  1  0
  6  8  1  0
  6  7  2  0
  8  9  2  0
  9 10  1  0
 11 10  2  0
 12 11  1  0
 13 12  2  0
 13  8  1  0
 14 17  1  0
 15 20  2  0
 16 15  1  0
 17 16  2  0
 17 18  1  0
 18 19  2  0
 19 20  1  0
 19 21  1  0
 21 25  1  0
 21 22  2  0
 22 23  1  0
 24 26  1  0
 24 23  1  0
 25 24  2  0
 26 27  2  0
  1 28  1  0
  1 29  1  0
  3 30  1  0
  4 31  1  0
  9 32  1  0
 10 33  1  0
 12 34  1  0
 14 35  1  0
 14 36  1  0
 15 37  1  0
 16 38  1  0
 22 39  1  0
 26 40  1  0
M  ISO  8  28   8  29   8  30  14  31  14  32  14  33  14  34  14  35   8
M  ISO  5  36   8  37  14  38  14  39  14  40   6
M  END
>  <minimizedAffinity>  (1) 
-6.4061904

>  <minimizedRMSD>  (1) 
2.42839885

$$$$
