
     RDKit          3D

 44 46  0  0  1  0  0  0  0  0999 V2000
   45.4730   35.2370   42.8390 C   0  0  0  0  0  0  0  0  0  0  0  0
   46.8890   34.9430   42.8380 C   0  0  0  0  0  0  0  0  0  0  0  0
   47.1160   33.8100   43.8550 C   0  0  0  0  0  0  0  0  0  0  0  0
   45.7980   33.4930   44.4570 C   0  0  0  0  0  0  0  0  0  0  0  0
   44.9660   34.7260   44.1680 C   0  0  0  0  0  0  0  0  0  0  0  0
   44.5930   34.6130   41.8200 C   0  0  0  0  0  0  0  0  0  0  0  0
   45.1480   33.9930   40.7340 C   0  0  0  0  0  0  0  0  0  0  0  0
   44.3540   33.4000   39.7640 C   0  0  0  0  0  0  0  0  0  0  0  0
   42.9960   33.4700   39.9520 N   0  0  0  0  0  0  0  0  0  0  0  0
   42.4770   34.0820   41.0180 C   0  0  0  0  0  0  0  0  0  0  0  0
   43.2680   34.6380   41.9260 N   0  0  0  0  0  0  0  0  0  0  0  0
   41.0530   34.1350   41.1800 N   0  0  0  0  0  0  0  0  0  0  0  0
   40.2620   33.0280   41.5810 C   0  0  0  0  0  0  0  0  0  0  0  0
   40.8880   31.9690   42.0040 N   0  0  0  0  0  0  0  0  0  0  0  0
   38.8270   33.0870   41.5190 N   0  0  0  0  0  0  0  0  0  0  0  0
   40.2960   31.1620   42.2870 H   0  0  0  0  0  0  0  0  0  0  0  0
   45.1770   36.7070   42.7830 C   0  0  0  0  0  0  0  0  0  0  0  0
   45.1030   37.4400   44.0450 C   0  0  0  0  0  0  0  0  0  0  0  0
   45.1440   38.9710   43.8020 C   0  0  2  0  0  0  0  0  0  0  0  0
   46.4010   39.6870   44.1080 C   0  0  0  0  0  0  0  0  0  0  0  0
   45.2430   39.8220   45.0550 C   0  0  1  0  0  0  0  0  0  0  0  0
   44.5410   41.0270   44.9470 O   0  0  0  0  0  0  0  0  0  0  0  0
   47.2067   34.6198   41.8357 H   0  0  0  0  0  0  0  0  0  0  0  0
   47.4744   35.8344   43.1074 H   0  0  0  0  0  0  0  0  0  0  0  0
   47.5218   32.9228   43.3469 H   0  0  0  0  0  0  0  0  0  0  0  0
   47.8358   34.1167   44.6282 H   0  0  0  0  0  0  0  0  0  0  0  0
   45.3559   32.6023   43.9868 H   0  0  0  0  0  0  0  0  0  0  0  0
   45.8634   33.2647   45.5311 H   0  0  0  0  0  0  0  0  0  0  0  0
   45.1100   35.4825   44.9535 H   0  0  0  0  0  0  0  0  0  0  0  0
   43.8896   34.5012   44.1409 H   0  0  0  0  0  0  0  0  0  0  0  0
   46.2426   33.9644   40.6285 H   0  0  0  0  0  0  0  0  0  0  0  0
   44.7906   32.8986   38.8877 H   0  0  0  0  0  0  0  0  0  0  0  0
   40.5768   35.0292   40.9943 H   0  0  0  0  0  0  0  0  0  0  0  0
   38.2650   32.2756   41.8134 H   0  0  0  0  0  0  0  0  0  0  0  0
   38.3608   33.9407   41.1802 H   0  0  0  0  0  0  0  0  0  0  0  0
   45.9661   37.1768   42.1775 H   0  0  0  0  0  0  0  0  0  0  0  0
   44.1592   36.7670   42.3701 H   0  0  0  0  0  0  0  0  0  0  0  0
   44.1638   37.1820   44.5562 H   0  0  0  0  0  0  0  0  0  0  0  0
   45.9683   37.1602   44.6639 H   0  0  0  0  0  0  0  0  0  0  0  0
   44.4859   38.9284   42.9216 H   0  0  0  0  0  0  0  0  0  0  0  0
   47.2929   39.1198   44.4126 H   0  0  0  0  0  0  0  0  0  0  0  0
   47.0352   40.3992   43.5598 H   0  0  0  0  0  0  0  0  0  0  0  0
   45.0993   39.6733   46.1354 H   0  0  0  0  0  0  0  0  0  0  0  0
   44.3391   41.3736   45.8521 H   0  0  0  0  0  0  0  0  0  0  0  0
  1  5  1  0
  2  1  1  0
  2  3  1  0
  3  4  1  0
  5  4  1  0
  6 11  1  0
  6  1  1  0
  7  6  2  0
  8  9  2  0
  8  7  1  0
  9 10  1  0
 10 12  1  0
 10 11  2  0
 12 13  1  0
 13 14  2  0
 14 16  1  0
 15 13  1  0
 17  1  1  0
 17 18  1  0
 19 18  1  0
 19 20  1  0
 19 21  1  0
 20 21  1  0
 22 21  1  0
  2 23  1  0
  2 24  1  0
  3 25  1  0
  3 26  1  0
  4 27  1  0
  4 28  1  0
  5 29  1  0
  5 30  1  0
  7 31  1  0
  8 32  1  0
 12 33  1  0
 15 34  1  0
 15 35  1  0
 17 36  1  0
 17 37  1  0
 18 38  1  0
 18 39  1  0
 19 40  1  6
 20 41  1  0
 20 42  1  0
 21 43  1  1
 22 44  1  0
M  ISO  8  23  13  24  13  25  13  26  13  27  13  28  13  29  13  30  13
M  ISO  8  31  14  32  14  36   8  37   8  38   8  39   8  40  13  41  13
M  ISO  3  42  13  43  13  44   3
M  END
>  <minimizedAffinity>  (1) 
-5.0327692

>  <minimizedRMSD>  (1) 
0.0234969184

$$$$
