
     RDKit          3D

 50 53  0  0  1  0  0  0  0  0999 V2000
   45.6620   35.0690   42.5520 C   0  0  0  0  0  0  0  0  0  0  0  0
   47.0890   35.0350   42.3010 C   0  0  0  0  0  0  0  0  0  0  0  0
   47.6640   33.8800   43.1320 C   0  0  0  0  0  0  0  0  0  0  0  0
   46.5440   33.2770   43.8960 C   0  0  0  0  0  0  0  0  0  0  0  0
   45.4810   34.3660   43.8770 C   0  0  0  0  0  0  0  0  0  0  0  0
   44.7390   34.3830   41.6150 C   0  0  0  0  0  0  0  0  0  0  0  0
   45.2450   33.6350   40.5860 C   0  0  0  0  0  0  0  0  0  0  0  0
   44.4040   32.9840   39.6960 C   0  0  0  0  0  0  0  0  0  0  0  0
   43.0560   33.1270   39.8990 N   0  0  0  0  0  0  0  0  0  0  0  0
   42.5810   33.8620   40.9080 C   0  0  0  0  0  0  0  0  0  0  0  0
   43.4120   34.4700   41.7390 N   0  0  0  0  0  0  0  0  0  0  0  0
   41.1700   33.9880   41.0870 N   0  0  0  0  0  0  0  0  0  0  0  0
   40.3530   32.9380   41.6220 C   0  0  0  0  0  0  0  0  0  0  0  0
   40.9550   31.9070   42.1290 N   0  0  0  0  0  0  0  0  0  0  0  0
   38.9210   33.0400   41.5900 N   0  0  0  0  0  0  0  0  0  0  0  0
   40.3440   31.1500   42.5130 H   0  0  0  0  0  0  0  0  0  0  0  0
   45.1240   36.4640   42.6960 C   0  0  0  0  0  0  0  0  0  0  0  0
   45.1310   37.0510   44.0420 C   0  0  0  0  0  0  0  0  0  0  0  0
   44.7820   38.5570   43.9750 C   0  0  2  0  0  0  0  0  0  0  0  0
   45.6760   39.4550   43.2280 C   0  0  0  0  0  0  0  0  0  0  0  0
   45.7410   39.4730   44.7250 C   0  0  1  0  0  0  0  0  0  0  0  0
   45.0670   40.5260   45.5020 C   0  0  0  0  0  0  0  0  0  0  0  0
   44.4950   41.6960   45.0450 C   0  0  0  0  0  0  0  0  0  0  0  0
   44.0120   42.3050   46.1910 C   0  0  0  0  0  0  0  0  0  0  0  0
   44.2740   41.5500   47.2690 N   0  0  0  0  0  0  0  0  0  0  0  0
   44.9120   40.4770   46.8380 N   0  0  0  0  0  0  0  0  0  0  0  0
   47.2803   34.8626   41.2316 H   0  0  0  0  0  0  0  0  0  0  0  0
   47.5590   35.9900   42.5786 H   0  0  0  0  0  0  0  0  0  0  0  0
   48.1133   33.1271   42.4677 H   0  0  0  0  0  0  0  0  0  0  0  0
   48.4448   34.2462   43.8148 H   0  0  0  0  0  0  0  0  0  0  0  0
   46.1798   32.3622   43.4055 H   0  0  0  0  0  0  0  0  0  0  0  0
   46.8312   32.9735   44.9135 H   0  0  0  0  0  0  0  0  0  0  0  0
   45.6321   35.0678   44.7104 H   0  0  0  0  0  0  0  0  0  0  0  0
   44.4672   33.9546   43.9904 H   0  0  0  0  0  0  0  0  0  0  0  0
   46.3348   33.5491   40.4634 H   0  0  0  0  0  0  0  0  0  0  0  0
   44.8003   32.3809   38.8658 H   0  0  0  0  0  0  0  0  0  0  0  0
   40.7181   34.8741   40.8195 H   0  0  0  0  0  0  0  0  0  0  0  0
   38.3419   32.2810   41.9766 H   0  0  0  0  0  0  0  0  0  0  0  0
   38.4730   33.8722   41.1805 H   0  0  0  0  0  0  0  0  0  0  0  0
   45.7238   37.1185   42.0465 H   0  0  0  0  0  0  0  0  0  0  0  0
   44.0604   36.3866   42.4263 H   0  0  0  0  0  0  0  0  0  0  0  0
   44.3878   36.5341   44.6668 H   0  0  0  0  0  0  0  0  0  0  0  0
   46.1351   36.9362   44.4763 H   0  0  0  0  0  0  0  0  0  0  0  0
   43.6965   38.3801   43.9544 H   0  0  0  0  0  0  0  0  0  0  0  0
   46.5130   39.0348   42.6510 H   0  0  0  0  0  0  0  0  0  0  0  0
   45.5218   40.2244   42.4572 H   0  0  0  0  0  0  0  0  0  0  0  0
   46.5763   39.3976   45.4367 H   0  0  0  0  0  0  0  0  0  0  0  0
   44.4363   42.0607   44.0089 H   0  0  0  0  0  0  0  0  0  0  0  0
   43.4874   43.2716   46.2144 H   0  0  0  0  0  0  0  0  0  0  0  0
   44.0253   41.7658   48.2449 H   0  0  0  0  0  0  0  0  0  0  0  0
  1 17  1  0
  1  5  1  0
  2  1  1  0
  2  3  1  0
  3  4  1  0
  5  4  1  0
  6 11  1  0
  6  1  1  0
  7  6  2  0
  8  9  2  0
  8  7  1  0
  9 10  1  0
 10 12  1  0
 10 11  2  0
 12 13  1  0
 13 14  2  0
 14 16  1  0
 15 13  1  0
 17 18  1  0
 19 18  1  0
 19 21  1  0
 20 19  1  0
 20 21  1  0
 21 22  1  0
 22 26  2  0
 23 22  1  0
 23 24  2  0
 24 25  1  0
 26 25  1  0
  2 27  1  0
  2 28  1  0
  3 29  1  0
  3 30  1  0
  4 31  1  0
  4 32  1  0
  5 33  1  0
  5 34  1  0
  7 35  1  0
  8 36  1  0
 12 37  1  0
 15 38  1  0
 15 39  1  0
 17 40  1  0
 17 41  1  0
 18 42  1  0
 18 43  1  0
 19 44  1  1
 20 45  1  0
 20 46  1  0
 21 47  1  6
 23 48  1  0
 24 49  1  0
 25 50  1  0
M  ISO  8  27  13  28  13  29  13  30  13  31  13  32  13  33  13  34  13
M  ISO  8  35  14  36  14  40   8  41   8  42   8  43   8  44  13  45  13
M  ISO  5  46  13  47  13  48  14  49  14  50   9
M  END
>  <minimizedAffinity>  (1) 
-5.41421366

>  <minimizedRMSD>  (1) 
0.895544231

$$$$
