
     RDKit          3D

 46 48  0  0  1  0  0  0  0  0999 V2000
   45.2530   35.2290   42.8460 C   0  0  0  0  0  0  0  0  0  0  0  0
   46.6870   35.0070   42.8670 C   0  0  0  0  0  0  0  0  0  0  0  0
   46.9550   33.9290   43.9280 C   0  0  0  0  0  0  0  0  0  0  0  0
   45.6490   33.5750   44.5450 C   0  0  0  0  0  0  0  0  0  0  0  0
   44.7610   34.7520   44.1930 C   0  0  0  0  0  0  0  0  0  0  0  0
   44.4180   34.5190   41.8480 C   0  0  0  0  0  0  0  0  0  0  0  0
   45.0130   33.7590   40.8800 C   0  0  0  0  0  0  0  0  0  0  0  0
   44.2580   33.0840   39.9330 C   0  0  0  0  0  0  0  0  0  0  0  0
   42.8980   33.2190   40.0200 N   0  0  0  0  0  0  0  0  0  0  0  0
   42.3390   33.9590   40.9670 C   0  0  0  0  0  0  0  0  0  0  0  0
   43.0870   34.5970   41.8620 N   0  0  0  0  0  0  0  0  0  0  0  0
   40.9090   34.0840   41.0370 N   0  0  0  0  0  0  0  0  0  0  0  0
   40.0600   33.0340   41.5190 C   0  0  0  0  0  0  0  0  0  0  0  0
   40.6230   32.0160   42.0950 N   0  0  0  0  0  0  0  0  0  0  0  0
   38.6330   33.1260   41.3590 N   0  0  0  0  0  0  0  0  0  0  0  0
   39.9890   31.2620   42.4350 H   0  0  0  0  0  0  0  0  0  0  0  0
   44.8920   36.6820   42.7140 C   0  0  0  0  0  0  0  0  0  0  0  0
   45.1290   37.5430   43.8790 C   0  0  0  0  0  0  0  0  0  0  0  0
   45.2780   39.0250   43.4570 C   0  0  2  0  0  0  0  0  0  0  0  0
   46.5430   39.7160   43.7650 C   0  0  0  0  0  0  0  0  0  0  0  0
   45.3330   40.0270   44.5920 C   0  0  2  0  0  0  0  0  0  0  0  0
   45.1420   39.4760   45.9670 C   0  0  0  0  0  0  0  0  0  0  0  0
   47.0309   34.6613   41.8810 H   0  0  0  0  0  0  0  0  0  0  0  0
   47.2263   35.9360   43.1040 H   0  0  0  0  0  0  0  0  0  0  0  0
   47.4008   33.0407   43.4567 H   0  0  0  0  0  0  0  0  0  0  0  0
   47.6555   34.3010   44.6901 H   0  0  0  0  0  0  0  0  0  0  0  0
   45.2526   32.6419   44.1183 H   0  0  0  0  0  0  0  0  0  0  0  0
   45.7202   33.4010   45.6288 H   0  0  0  0  0  0  0  0  0  0  0  0
   44.8606   35.5490   44.9446 H   0  0  0  0  0  0  0  0  0  0  0  0
   43.6975   34.4721   44.1673 H   0  0  0  0  0  0  0  0  0  0  0  0
   46.1099   33.6816   40.8519 H   0  0  0  0  0  0  0  0  0  0  0  0
   44.7282   32.4704   39.1505 H   0  0  0  0  0  0  0  0  0  0  0  0
   40.4755   34.9656   40.7277 H   0  0  0  0  0  0  0  0  0  0  0  0
   38.0260   32.3699   41.7064 H   0  0  0  0  0  0  0  0  0  0  0  0
   38.2185   33.9480   40.8970 H   0  0  0  0  0  0  0  0  0  0  0  0
   45.4744   37.0924   41.8759 H   0  0  0  0  0  0  0  0  0  0  0  0
   43.8010   36.6904   42.5739 H   0  0  0  0  0  0  0  0  0  0  0  0
   44.2800   37.4507   44.5723 H   0  0  0  0  0  0  0  0  0  0  0  0
   46.0624   37.2231   44.3652 H   0  0  0  0  0  0  0  0  0  0  0  0
   44.6835   38.8963   42.5405 H   0  0  0  0  0  0  0  0  0  0  0  0
   47.3784   39.1545   44.2086 H   0  0  0  0  0  0  0  0  0  0  0  0
   47.2526   40.3202   43.1807 H   0  0  0  0  0  0  0  0  0  0  0  0
   44.8436   40.9686   44.8815 H   0  0  0  0  0  0  0  0  0  0  0  0
   45.4078   40.2428   46.7095 H   0  0  0  0  0  0  0  0  0  0  0  0
   44.0901   39.1838   46.1021 H   0  0  0  0  0  0  0  0  0  0  0  0
   45.7874   38.5955   46.1021 H   0  0  0  0  0  0  0  0  0  0  0  0
  1  2  1  0
  1  5  1  0
  2  3  1  0
  3  4  1  0
  5  4  1  0
  6 11  1  0
  6  1  1  0
  7  6  2  0
  8  9  2  0
  8  7  1  0
  9 10  1  0
 10 12  1  0
 10 11  2  0
 12 13  1  0
 13 14  2  0
 14 16  1  0
 15 13  1  0
 17  1  1  0
 17 18  1  0
 19 20  1  0
 19 18  1  0
 19 21  1  0
 20 21  1  0
 21 22  1  0
  2 23  1  0
  2 24  1  0
  3 25  1  0
  3 26  1  0
  4 27  1  0
  4 28  1  0
  5 29  1  0
  5 30  1  0
  7 31  1  0
  8 32  1  0
 12 33  1  0
 15 34  1  0
 15 35  1  0
 17 36  1  0
 17 37  1  0
 18 38  1  0
 18 39  1  0
 19 40  1  6
 20 41  1  0
 20 42  1  0
 21 43  1  6
 22 44  1  0
 22 45  1  0
 22 46  1  0
M  ISO  8  23  13  24  13  25  13  26  13  27  13  28  13  29  13  30  13
M  ISO  8  31  14  32  14  36   8  37   8  38   8  39   8  40  13  41  13
M  ISO  5  42  13  43  13  44   8  45   8  46   8
M  END
>  <minimizedAffinity>  (1) 
-4.09596586

>  <minimizedRMSD>  (1) 
0.305124164

$$$$
