
     RDKit          3D

 50 53  0  0  1  0  0  0  0  0999 V2000
   45.4730   35.3260   42.7980 C   0  0  0  0  0  0  0  0  0  0  0  0
   46.9120   35.1770   42.6890 C   0  0  0  0  0  0  0  0  0  0  0  0
   47.3110   34.0090   43.6070 C   0  0  0  0  0  0  0  0  0  0  0  0
   46.0730   33.5120   44.2620 C   0  0  0  0  0  0  0  0  0  0  0  0
   45.1060   34.6730   44.1110 C   0  0  0  0  0  0  0  0  0  0  0  0
   44.5970   34.6830   41.7880 C   0  0  0  0  0  0  0  0  0  0  0  0
   45.1530   34.0500   40.7090 C   0  0  0  0  0  0  0  0  0  0  0  0
   44.3510   33.4450   39.7530 C   0  0  0  0  0  0  0  0  0  0  0  0
   42.9950   33.5120   39.9390 N   0  0  0  0  0  0  0  0  0  0  0  0
   42.4760   34.1350   40.9980 C   0  0  0  0  0  0  0  0  0  0  0  0
   43.2730   34.7070   41.9000 N   0  0  0  0  0  0  0  0  0  0  0  0
   41.0580   34.1810   41.1520 N   0  0  0  0  0  0  0  0  0  0  0  0
   40.2820   33.0560   41.5860 C   0  0  0  0  0  0  0  0  0  0  0  0
   40.9230   32.0050   42.0170 N   0  0  0  0  0  0  0  0  0  0  0  0
   38.8470   33.1060   41.5410 N   0  0  0  0  0  0  0  0  0  0  0  0
   40.3350   31.1980   42.3150 H   0  0  0  0  0  0  0  0  0  0  0  0
   45.0300   36.7560   42.8650 C   0  0  0  0  0  0  0  0  0  0  0  0
   45.3290   37.5070   44.0890 C   0  0  0  0  0  0  0  0  0  0  0  0
   44.9860   39.0120   43.9000 C   0  0  2  0  0  0  0  0  0  0  0  0
   46.1100   39.9760   43.9230 C   0  0  0  0  0  0  0  0  0  0  0  0
   45.2320   39.8740   45.1370 C   0  0  1  0  0  0  0  0  0  0  0  0
   44.2870   41.0530   45.3210 C   0  0  0  0  0  0  0  0  0  0  0  0
   44.7850   42.4490   45.3000 C   0  0  0  0  0  0  0  0  0  0  0  0
   44.3700   41.8470   46.5910 C   0  0  0  0  0  0  0  0  0  0  0  0
   47.1914   34.9532   41.6489 H   0  0  0  0  0  0  0  0  0  0  0  0
   47.4272   36.1031   42.9836 H   0  0  0  0  0  0  0  0  0  0  0  0
   47.7705   33.2049   43.0134 H   0  0  0  0  0  0  0  0  0  0  0  0
   48.0413   34.3403   44.3600 H   0  0  0  0  0  0  0  0  0  0  0  0
   45.6922   32.6137   43.7541 H   0  0  0  0  0  0  0  0  0  0  0  0
   46.2299   33.2167   45.3099 H   0  0  0  0  0  0  0  0  0  0  0  0
   45.2243   35.3841   44.9419 H   0  0  0  0  0  0  0  0  0  0  0  0
   44.0578   34.3397   44.1257 H   0  0  0  0  0  0  0  0  0  0  0  0
   46.2471   34.0210   40.5992 H   0  0  0  0  0  0  0  0  0  0  0  0
   44.7852   32.9327   38.8818 H   0  0  0  0  0  0  0  0  0  0  0  0
   40.5694   35.0630   40.9417 H   0  0  0  0  0  0  0  0  0  0  0  0
   38.2934   32.2957   41.8537 H   0  0  0  0  0  0  0  0  0  0  0  0
   38.3717   33.9522   41.1960 H   0  0  0  0  0  0  0  0  0  0  0  0
   45.5081   37.2873   42.0288 H   0  0  0  0  0  0  0  0  0  0  0  0
   43.9316   36.7081   42.8302 H   0  0  0  0  0  0  0  0  0  0  0  0
   44.7316   37.1006   44.9184 H   0  0  0  0  0  0  0  0  0  0  0  0
   46.4017   37.4112   44.3129 H   0  0  0  0  0  0  0  0  0  0  0  0
   44.1512   38.8309   43.2070 H   0  0  0  0  0  0  0  0  0  0  0  0
   47.1451   39.6061   43.9658 H   0  0  0  0  0  0  0  0  0  0  0  0
   46.4258   40.8035   43.2707 H   0  0  0  0  0  0  0  0  0  0  0  0
   45.3733   39.6747   46.2095 H   0  0  0  0  0  0  0  0  0  0  0  0
   43.5029   40.5134   44.7697 H   0  0  0  0  0  0  0  0  0  0  0  0
   45.8492   42.6482   45.1053 H   0  0  0  0  0  0  0  0  0  0  0  0
   44.5103   43.3598   44.7477 H   0  0  0  0  0  0  0  0  0  0  0  0
   43.4504   42.1890   47.0883 H   0  0  0  0  0  0  0  0  0  0  0  0
   44.8447   41.7016   47.5726 H   0  0  0  0  0  0  0  0  0  0  0  0
  1 17  1  0
  1  5  1  0
  2  1  1  0
  2  3  1  0
  3  4  1  0
  5  4  1  0
  6 11  1  0
  6  1  1  0
  7  6  2  0
  8  9  2  0
  8  7  1  0
  9 10  1  0
 10 12  1  0
 10 11  2  0
 12 13  1  0
 13 14  2  0
 14 16  1  0
 15 13  1  0
 17 18  1  0
 19 20  1  0
 19 18  1  0
 19 21  1  0
 20 21  1  0
 21 22  1  0
 22 24  1  0
 23 22  1  0
 23 24  1  0
  2 25  1  0
  2 26  1  0
  3 27  1  0
  3 28  1  0
  4 29  1  0
  4 30  1  0
  5 31  1  0
  5 32  1  0
  7 33  1  0
  8 34  1  0
 12 35  1  0
 15 36  1  0
 15 37  1  0
 17 38  1  0
 17 39  1  0
 18 40  1  0
 18 41  1  0
 19 42  1  6
 20 43  1  0
 20 44  1  0
 21 45  1  1
 22 46  1  0
 23 47  1  0
 23 48  1  0
 24 49  1  0
 24 50  1  0
M  ISO  8  25  13  26  13  27  13  28  13  29  13  30  13  31  13  32  13
M  ISO  8  33  14  34  14  38   8  39   8  40   8  41   8  42  13  43  13
M  ISO  7  44  13  45  13  46  13  47  13  48  13  49  13  50  13
M  END
>  <minimizedAffinity>  (1) 
-4.09166193

>  <minimizedRMSD>  (1) 
0.699659944

$$$$
