
     RDKit          3D

 51 54  0  0  1  0  0  0  0  0999 V2000
   45.6970   35.0130   42.5240 C   0  0  0  0  0  0  0  0  0  0  0  0
   47.1220   35.0010   42.2580 C   0  0  0  0  0  0  0  0  0  0  0  0
   47.7250   33.8650   43.0960 C   0  0  0  0  0  0  0  0  0  0  0  0
   46.6180   33.2550   43.8780 C   0  0  0  0  0  0  0  0  0  0  0  0
   45.5430   34.3230   43.8620 C   0  0  0  0  0  0  0  0  0  0  0  0
   44.7760   34.3000   41.6050 C   0  0  0  0  0  0  0  0  0  0  0  0
   45.2820   33.5110   40.6080 C   0  0  0  0  0  0  0  0  0  0  0  0
   44.4460   32.8340   39.7350 C   0  0  0  0  0  0  0  0  0  0  0  0
   43.0890   33.0020   39.9300 N   0  0  0  0  0  0  0  0  0  0  0  0
   42.6260   33.7710   40.9010 C   0  0  0  0  0  0  0  0  0  0  0  0
   43.4470   34.4050   41.7200 N   0  0  0  0  0  0  0  0  0  0  0  0
   41.2070   33.9160   41.0660 N   0  0  0  0  0  0  0  0  0  0  0  0
   40.3740   32.9040   41.6330 C   0  0  0  0  0  0  0  0  0  0  0  0
   40.9580   31.8840   42.1890 N   0  0  0  0  0  0  0  0  0  0  0  0
   38.9420   33.0310   41.5800 N   0  0  0  0  0  0  0  0  0  0  0  0
   40.3280   31.1630   42.5950 H   0  0  0  0  0  0  0  0  0  0  0  0
   45.1290   36.3920   42.6730 C   0  0  0  0  0  0  0  0  0  0  0  0
   45.1000   36.9850   44.0040 C   0  0  0  0  0  0  0  0  0  0  0  0
   44.7680   38.5030   43.9180 C   0  0  2  0  0  0  0  0  0  0  0  0
   45.7030   39.3620   43.1730 C   0  0  0  0  0  0  0  0  0  0  0  0
   45.7630   39.4050   44.6550 C   0  0  1  0  0  0  0  0  0  0  0  0
   45.0820   40.5250   45.3580 C   0  0  0  0  0  0  0  0  0  0  0  0
   44.9310   40.4140   46.7440 C   0  0  0  0  0  0  0  0  0  0  0  0
   44.2900   41.4940   47.3280 C   0  0  0  0  0  0  0  0  0  0  0  0
   43.8330   42.5730   46.6850 N   0  0  0  0  0  0  0  0  0  0  0  0
   44.0070   42.6260   45.3540 C   0  0  0  0  0  0  0  0  0  0  0  0
   44.6210   41.6230   44.6930 N   0  0  0  0  0  0  0  0  0  0  0  0
   47.3052   34.8199   41.1886 H   0  0  0  0  0  0  0  0  0  0  0  0
   47.5785   35.9670   42.5196 H   0  0  0  0  0  0  0  0  0  0  0  0
   48.1793   33.1112   42.4362 H   0  0  0  0  0  0  0  0  0  0  0  0
   48.5083   34.2495   43.7658 H   0  0  0  0  0  0  0  0  0  0  0  0
   46.2613   32.3310   43.3995 H   0  0  0  0  0  0  0  0  0  0  0  0
   46.9205   32.9669   44.8956 H   0  0  0  0  0  0  0  0  0  0  0  0
   45.6949   35.0369   44.6850 H   0  0  0  0  0  0  0  0  0  0  0  0
   44.5368   33.8988   43.9950 H   0  0  0  0  0  0  0  0  0  0  0  0
   46.3720   33.4125   40.4977 H   0  0  0  0  0  0  0  0  0  0  0  0
   44.8416   32.1971   38.9301 H   0  0  0  0  0  0  0  0  0  0  0  0
   40.7671   34.7955   40.7595 H   0  0  0  0  0  0  0  0  0  0  0  0
   38.3445   32.2990   41.9901 H   0  0  0  0  0  0  0  0  0  0  0  0
   38.5142   33.8539   41.1320 H   0  0  0  0  0  0  0  0  0  0  0  0
   45.7221   37.0601   42.0312 H   0  0  0  0  0  0  0  0  0  0  0  0
   44.0689   36.2809   42.4011 H   0  0  0  0  0  0  0  0  0  0  0  0
   44.3319   36.4803   44.6084 H   0  0  0  0  0  0  0  0  0  0  0  0
   46.0894   36.8633   44.4690 H   0  0  0  0  0  0  0  0  0  0  0  0
   43.6776   38.3597   43.8960 H   0  0  0  0  0  0  0  0  0  0  0  0
   46.5292   38.9044   42.6090 H   0  0  0  0  0  0  0  0  0  0  0  0
   45.5799   40.1264   42.3916 H   0  0  0  0  0  0  0  0  0  0  0  0
   46.5866   39.3080   45.3777 H   0  0  0  0  0  0  0  0  0  0  0  0
   45.2891   39.5470   47.3185 H   0  0  0  0  0  0  0  0  0  0  0  0
   44.1441   41.4608   48.4178 H   0  0  0  0  0  0  0  0  0  0  0  0
   43.6433   43.5005   44.7946 H   0  0  0  0  0  0  0  0  0  0  0  0
  1 17  1  0
  1  5  1  0
  2  1  1  0
  2  3  1  0
  3  4  1  0
  5  4  1  0
  6 11  1  0
  6  1  1  0
  7  6  2  0
  8  9  2  0
  8  7  1  0
  9 10  1  0
 10 12  1  0
 10 11  2  0
 12 13  1  0
 13 14  2  0
 14 16  1  0
 15 13  1  0
 17 18  1  0
 19 18  1  0
 19 21  1  0
 20 19  1  0
 20 21  1  0
 21 22  1  0
 22 23  2  0
 23 24  1  0
 25 24  2  0
 26 25  1  0
 27 26  2  0
 27 22  1  0
  2 28  1  0
  2 29  1  0
  3 30  1  0
  3 31  1  0
  4 32  1  0
  4 33  1  0
  5 34  1  0
  5 35  1  0
  7 36  1  0
  8 37  1  0
 12 38  1  0
 15 39  1  0
 15 40  1  0
 17 41  1  0
 17 42  1  0
 18 43  1  0
 18 44  1  0
 19 45  1  1
 20 46  1  0
 20 47  1  0
 21 48  1  6
 23 49  1  0
 24 50  1  0
 26 51  1  0
M  ISO  8  28  13  29  13  30  13  31  13  32  13  33  13  34  13  35  13
M  ISO  8  36  14  37  14  41   8  42   8  43   8  44   8  45  13  46  13
M  ISO  5  47  13  48  13  49  14  50  14  51  14
M  END
>  <minimizedAffinity>  (1) 
-4.30058527

>  <minimizedRMSD>  (1) 
1.06273997

$$$$
