
     RDKit          3D

 37 39  0  0  0  0  0  0  0  0999 V2000
   46.1520   33.9360   44.5260 C   0  0  0  0  0  0  0  0  0  0  0  0
   46.1350   34.7330   43.3650 C   0  0  0  0  0  0  0  0  0  0  0  0
   45.2830   35.8990   43.3080 C   0  0  0  0  0  0  0  0  0  0  0  0
   44.5290   36.1640   44.3990 N   0  0  0  0  0  0  0  0  0  0  0  0
   44.5690   35.3680   45.5120 C   0  0  0  0  0  0  0  0  0  0  0  0
   45.3780   34.2640   45.5670 N   0  0  0  0  0  0  0  0  0  0  0  0
   46.9070   32.7710   44.7650 N   0  0  0  0  0  0  0  0  0  0  0  0
   47.8650   32.0540   43.9430 C   0  0  0  0  0  0  0  0  0  0  0  0
   47.6710   30.5400   44.0990 C   0  0  0  0  0  0  0  0  0  0  0  0
   46.3190   30.2240   44.4890 N   0  0  0  0  0  0  0  0  0  0  0  0
   45.9450   30.8430   45.7400 C   0  0  0  0  0  0  0  0  0  0  0  0
   46.7590   32.0790   46.0570 C   0  0  0  0  0  0  0  0  0  0  0  0
   46.9200   34.2430   42.2210 C   0  0  0  0  0  0  0  0  0  0  0  0
   48.0630   35.3240   41.8970 C   0  0  0  0  0  0  0  0  0  0  0  0
   48.6800   34.5220   40.7300 C   0  0  0  0  0  0  0  0  0  0  0  0
   47.4350   34.2190   39.9290 C   0  0  0  0  0  0  0  0  0  0  0  0
   46.2850   34.2020   40.9410 C   0  0  0  0  0  0  0  0  0  0  0  0
   45.2493   36.5426   42.4165 H   0  0  0  0  0  0  0  0  0  0  0  0
   43.9397   35.6197   46.3784 H   0  0  0  0  0  0  0  0  0  0  0  0
   48.8848   32.3234   44.2552 H   0  0  0  0  0  0  0  0  0  0  0  0
   47.7092   32.3285   42.8893 H   0  0  0  0  0  0  0  0  0  0  0  0
   47.8914   30.0494   43.1394 H   0  0  0  0  0  0  0  0  0  0  0  0
   48.3525   30.1810   44.8842 H   0  0  0  0  0  0  0  0  0  0  0  0
   45.6776   30.5526   43.7531 H   0  0  0  0  0  0  0  0  0  0  0  0
   44.8836   31.1269   45.6867 H   0  0  0  0  0  0  0  0  0  0  0  0
   46.1356   30.1108   46.5384 H   0  0  0  0  0  0  0  0  0  0  0  0
   47.7428   31.8018   46.4635 H   0  0  0  0  0  0  0  0  0  0  0  0
   46.2756   32.7124   46.8153 H   0  0  0  0  0  0  0  0  0  0  0  0
   47.1956   33.2309   42.5521 H   0  0  0  0  0  0  0  0  0  0  0  0
   47.6569   36.2965   41.5818 H   0  0  0  0  0  0  0  0  0  0  0  0
   48.7293   35.6253   42.7187 H   0  0  0  0  0  0  0  0  0  0  0  0
   49.3979   35.1254   40.1551 H   0  0  0  0  0  0  0  0  0  0  0  0
   49.2613   33.6386   41.0327 H   0  0  0  0  0  0  0  0  0  0  0  0
   47.2674   34.9984   39.1711 H   0  0  0  0  0  0  0  0  0  0  0  0
   47.5193   33.2615   39.3941 H   0  0  0  0  0  0  0  0  0  0  0  0
   45.6353   35.0789   40.8031 H   0  0  0  0  0  0  0  0  0  0  0  0
   45.6447   33.3151   40.8249 H   0  0  0  0  0  0  0  0  0  0  0  0
  1  7  1  0
  1  6  2  0
  2  1  1  0
  3  2  2  0
  3  4  1  0
  4  5  2  0
  5  6  1  0
  7 12  1  0
  8  9  1  0
  8  7  1  0
  9 10  1  0
 10 11  1  0
 11 12  1  0
 13  2  1  0
 14 13  1  0
 15 14  1  0
 16 15  1  0
 16 17  1  0
 17 13  1  0
  3 18  1  0
  5 19  1  0
  8 20  1  0
  8 21  1  0
  9 22  1  0
  9 23  1  0
 10 24  1  0
 11 25  1  0
 11 26  1  0
 12 27  1  0
 12 28  1  0
 13 29  1  0
 14 30  1  0
 14 31  1  0
 15 32  1  0
 15 33  1  0
 16 34  1  0
 16 35  1  0
 17 36  1  0
 17 37  1  0
M  ISO  8  18  14  19  14  20  13  21  13  22  13  23  13  24   5  25  13
M  ISO  8  26  13  27  13  28  13  29  13  30  13  31  13  32  13  33  13
M  ISO  4  34  13  35  13  36  13  37  13
M  END
>  <minimizedAffinity>  (1) 
-5.25442171

>  <minimizedRMSD>  (1) 
5.46428394

$$$$
