
     RDKit          3D

 30 32  0  0  0  0  0  0  0  0999 V2000
   45.4790   34.4250   42.2720 C   0  0  0  0  0  0  0  0  0  0  0  0
   44.9910   34.1710   40.7650 C   0  0  0  0  0  0  0  0  0  0  0  0
   43.4960   34.1280   41.0820 C   0  0  0  0  0  0  0  0  0  0  0  0
   43.3580   35.3250   41.9960 C   0  0  0  0  0  0  0  0  0  0  0  0
   44.7520   35.6480   42.5330 C   0  0  0  0  0  0  0  0  0  0  0  0
   47.6020   33.7370   43.2750 C   0  0  0  0  0  0  0  0  0  0  0  0
   46.9410   34.4510   42.2920 C   0  0  0  0  0  0  0  0  0  0  0  0
   47.7270   35.2470   41.3700 C   0  0  0  0  0  0  0  0  0  0  0  0
   49.0700   35.2600   41.5010 N   0  0  0  0  0  0  0  0  0  0  0  0
   49.6750   34.5340   42.4840 C   0  0  0  0  0  0  0  0  0  0  0  0
   48.9530   33.8030   43.3340 N   0  0  0  0  0  0  0  0  0  0  0  0
   47.0390   32.9770   44.3760 C   0  0  0  0  0  0  0  0  0  0  0  0
   46.4180   33.5080   45.4710 C   0  0  0  0  0  0  0  0  0  0  0  0
   45.9590   32.7030   46.4420 C   0  0  0  0  0  0  0  0  0  0  0  0
   46.0820   31.2990   46.3990 C   0  0  0  0  0  0  0  0  0  0  0  0
   46.9730   31.1760   44.7430 S   0  0  0  0  0  0  0  0  0  0  0  0
   45.2756   33.6821   43.0574 H   0  0  0  0  0  0  0  0  0  0  0  0
   45.3647   33.2224   40.3522 H   0  0  0  0  0  0  0  0  0  0  0  0
   45.3205   34.8935   40.0038 H   0  0  0  0  0  0  0  0  0  0  0  0
   42.8872   34.2420   40.1729 H   0  0  0  0  0  0  0  0  0  0  0  0
   43.1539   33.1801   41.5229 H   0  0  0  0  0  0  0  0  0  0  0  0
   42.9623   36.1841   41.4344 H   0  0  0  0  0  0  0  0  0  0  0  0
   42.6630   35.1081   42.8206 H   0  0  0  0  0  0  0  0  0  0  0  0
   44.7215   35.8703   43.6099 H   0  0  0  0  0  0  0  0  0  0  0  0
   45.2061   36.5358   42.0685 H   0  0  0  0  0  0  0  0  0  0  0  0
   47.2369   35.8307   40.5768 H   0  0  0  0  0  0  0  0  0  0  0  0
   50.7709   34.5516   42.5768 H   0  0  0  0  0  0  0  0  0  0  0  0
   46.2939   34.5976   45.5570 H   0  0  0  0  0  0  0  0  0  0  0  0
   45.4639   33.1597   47.3116 H   0  0  0  0  0  0  0  0  0  0  0  0
   45.7599   30.5217   47.1076 H   0  0  0  0  0  0  0  0  0  0  0  0
  1  7  1  0
  1  5  1  0
  2  3  1  0
  2  1  1  0
  3  4  1  0
  4  5  1  0
  6 11  1  0
  6 12  1  0
  7  6  2  0
  8  9  2  0
  8  7  1  0
  9 10  1  0
 10 11  2  0
 12 16  1  0
 12 13  2  0
 13 14  1  0
 15 14  2  0
 16 15  1  0
  1 17  1  0
  2 18  1  0
  2 19  1  0
  3 20  1  0
  3 21  1  0
  4 22  1  0
  4 23  1  0
  5 24  1  0
  5 25  1  0
  8 26  1  0
 10 27  1  0
 13 28  1  0
 14 29  1  0
 15 30  1  0
M  ISO  8  17  13  18  13  19  13  20  13  21  13  22  13  23  13  24  13
M  ISO  6  25  13  26  14  27  14  28  14  29  14  30  14
M  END
>  <minimizedAffinity>  (1) 
-4.31425762

>  <minimizedRMSD>  (1) 
5.17200994

$$$$
