
     RDKit          3D

 35 36  0  0  0  0  0  0  0  0999 V2000
   47.9050   34.0170   40.6380 C   0  0  0  0  0  0  0  0  0  0  0  0
   48.3350   33.0260   41.7560 C   0  0  0  0  0  0  0  0  0  0  0  0
   49.7430   33.6990   41.9730 C   0  0  0  0  0  0  0  0  0  0  0  0
   49.3330   35.1240   42.1350 C   0  0  0  0  0  0  0  0  0  0  0  0
   48.0140   35.2450   41.3740 C   0  0  0  0  0  0  0  0  0  0  0  0
   46.4770   33.3880   38.7620 C   0  0  0  0  0  0  0  0  0  0  0  0
   46.5240   33.6650   40.1780 C   0  0  0  0  0  0  0  0  0  0  0  0
   45.3410   33.7350   41.0320 C   0  0  0  0  0  0  0  0  0  0  0  0
   44.1740   33.5190   40.4040 N   0  0  0  0  0  0  0  0  0  0  0  0
   44.1300   33.2610   39.0930 C   0  0  0  0  0  0  0  0  0  0  0  0
   45.2270   33.2030   38.3270 N   0  0  0  0  0  0  0  0  0  0  0  0
   47.4370   33.1530   37.7590 C   0  0  0  0  0  0  0  0  0  0  0  0
   46.6940   32.6000   36.4820 C   0  0  0  0  0  0  0  0  0  0  0  0
   48.1950   31.8320   38.1150 C   0  0  0  0  0  0  0  0  0  0  0  0
   48.3710   34.0880   37.2150 C   0  0  0  0  0  0  0  0  0  0  0  0
   48.4819   34.0345   39.7016 H   0  0  0  0  0  0  0  0  0  0  0  0
   47.6913   33.0737   42.6467 H   0  0  0  0  0  0  0  0  0  0  0  0
   48.3040   31.9491   41.5340 H   0  0  0  0  0  0  0  0  0  0  0  0
   50.2438   33.3144   42.8737 H   0  0  0  0  0  0  0  0  0  0  0  0
   50.4701   33.5170   41.1679 H   0  0  0  0  0  0  0  0  0  0  0  0
   49.1895   35.3665   43.1983 H   0  0  0  0  0  0  0  0  0  0  0  0
   50.0954   35.8192   41.7535 H   0  0  0  0  0  0  0  0  0  0  0  0
   48.0380   36.1064   40.6903 H   0  0  0  0  0  0  0  0  0  0  0  0
   47.1583   35.4051   42.0464 H   0  0  0  0  0  0  0  0  0  0  0  0
   45.4017   33.9487   42.1093 H   0  0  0  0  0  0  0  0  0  0  0  0
   43.1504   33.0889   38.6231 H   0  0  0  0  0  0  0  0  0  0  0  0
   45.8478   31.9702   36.7941 H   0  0  0  0  0  0  0  0  0  0  0  0
   46.3218   33.4426   35.8807 H   0  0  0  0  0  0  0  0  0  0  0  0
   47.3943   32.0016   35.8807 H   0  0  0  0  0  0  0  0  0  0  0  0
   48.2552   31.7271   39.2083 H   0  0  0  0  0  0  0  0  0  0  0  0
   47.6524   30.9729   37.6935 H   0  0  0  0  0  0  0  0  0  0  0  0
   49.2104   31.8669   37.6935 H   0  0  0  0  0  0  0  0  0  0  0  0
   48.8896   34.6072   38.0345 H   0  0  0  0  0  0  0  0  0  0  0  0
   49.1066   33.5535   36.5959 H   0  0  0  0  0  0  0  0  0  0  0  0
   47.8357   34.8230   36.5959 H   0  0  0  0  0  0  0  0  0  0  0  0
  1  5  1  0
  1  2  1  0
  2  3  1  0
  3  4  1  0
  5  4  1  0
  6  7  2  0
  7  1  1  0
  7  8  1  0
  9  8  2  0
 10  9  1  0
 11  6  1  0
 11 10  2  0
 12 14  1  0
 12  6  1  0
 13 12  1  0
 15 12  1  0
  1 16  1  0
  2 17  1  0
  2 18  1  0
  3 19  1  0
  3 20  1  0
  4 21  1  0
  4 22  1  0
  5 23  1  0
  5 24  1  0
  8 25  1  0
 10 26  1  0
 13 27  1  0
 13 28  1  0
 13 29  1  0
 14 30  1  0
 14 31  1  0
 14 32  1  0
 15 33  1  0
 15 34  1  0
 15 35  1  0
M  ISO  8  16  13  17  13  18  13  19  13  20  13  21  13  22  13  23  13
M  ISO  8  24  13  25  14  26  14  27   8  28   8  29   8  30   8  31   8
M  ISO  4  32   8  33   8  34   8  35   8
M  END
>  <minimizedAffinity>  (1) 
-3.74815655

>  <minimizedRMSD>  (1) 
6.69337893

$$$$
