
     RDKit          3D

 26 27  0  0  0  0  0  0  0  0999 V2000
   46.5200   34.5820   41.2150 C   0  0  0  0  0  0  0  0  0  0  0  0
   47.6300   33.8950   40.2850 C   0  0  0  0  0  0  0  0  0  0  0  0
   48.5220   35.1540   40.1930 C   0  0  0  0  0  0  0  0  0  0  0  0
   48.6340   35.5030   41.6640 C   0  0  0  0  0  0  0  0  0  0  0  0
   47.3270   35.0330   42.3080 C   0  0  0  0  0  0  0  0  0  0  0  0
   44.1310   34.0480   41.4080 C   0  0  0  0  0  0  0  0  0  0  0  0
   45.4610   33.5900   41.4780 C   0  0  0  0  0  0  0  0  0  0  0  0
   45.7410   32.2340   41.8960 C   0  0  0  0  0  0  0  0  0  0  0  0
   44.6870   31.4400   42.2120 N   0  0  0  0  0  0  0  0  0  0  0  0
   43.4080   31.9250   42.1300 C   0  0  0  0  0  0  0  0  0  0  0  0
   43.1390   33.2080   41.7340 N   0  0  0  0  0  0  0  0  0  0  0  0
   43.6840   35.3790   41.0120 C   0  0  0  0  0  0  0  0  0  0  0  0
   45.9391   35.4307   40.8247 H   0  0  0  0  0  0  0  0  0  0  0  0
   48.1332   33.0467   40.7720 H   0  0  0  0  0  0  0  0  0  0  0  0
   47.2959   33.4340   39.3438 H   0  0  0  0  0  0  0  0  0  0  0  0
   49.5035   34.9279   39.7509 H   0  0  0  0  0  0  0  0  0  0  0  0
   48.1262   35.9574   39.5543 H   0  0  0  0  0  0  0  0  0  0  0  0
   49.4917   34.9835   42.1162 H   0  0  0  0  0  0  0  0  0  0  0  0
   48.7920   36.5815   41.8121 H   0  0  0  0  0  0  0  0  0  0  0  0
   46.8350   35.8633   42.8357 H   0  0  0  0  0  0  0  0  0  0  0  0
   47.4936   34.2421   43.0541 H   0  0  0  0  0  0  0  0  0  0  0  0
   46.7734   31.8591   41.9557 H   0  0  0  0  0  0  0  0  0  0  0  0
   42.5699   31.2620   42.3908 H   0  0  0  0  0  0  0  0  0  0  0  0
   43.4820   35.9804   41.9106 H   0  0  0  0  0  0  0  0  0  0  0  0
   44.4679   35.8660   40.4134 H   0  0  0  0  0  0  0  0  0  0  0  0
   42.7650   35.2942   40.4134 H   0  0  0  0  0  0  0  0  0  0  0  0
  1  7  1  0
  1  5  1  0
  2  1  1  0
  3  2  1  0
  3  4  1  0
  4  5  1  0
  6  7  2  0
  6 11  1  0
  7  8  1  0
  8  9  2  0
 10  9  1  0
 11 10  2  0
 12  6  1  0
  1 13  1  0
  2 14  1  0
  2 15  1  0
  3 16  1  0
  3 17  1  0
  4 18  1  0
  4 19  1  0
  5 20  1  0
  5 21  1  0
  8 22  1  0
 10 23  1  0
 12 24  1  0
 12 25  1  0
 12 26  1  0
M  ISO  8  13  13  14  13  15  13  16  13  17  13  18  13  19  13  20  13
M  ISO  6  21  13  22  14  23  14  24   8  25   8  26   8
M  END
>  <minimizedAffinity>  (1) 
-3.60584044

>  <minimizedRMSD>  (1) 
4.07764721

$$$$
