
     RDKit          3D

 25 26  0  0  0  0  0  0  0  0999 V2000
   44.0880   34.7510   41.6580 C   0  0  0  0  0  0  0  0  0  0  0  0
   42.5330   34.7610   41.6220 C   0  0  0  0  0  0  0  0  0  0  0  0
   42.3890   35.2170   40.1490 C   0  0  0  0  0  0  0  0  0  0  0  0
   43.3710   34.3220   39.4550 C   0  0  0  0  0  0  0  0  0  0  0  0
   44.4520   34.0200   40.4810 C   0  0  0  0  0  0  0  0  0  0  0  0
   44.8120   35.2320   43.9240 C   0  0  0  0  0  0  0  0  0  0  0  0
   44.5790   34.2530   42.9500 C   0  0  0  0  0  0  0  0  0  0  0  0
   44.9390   32.8790   43.1700 C   0  0  0  0  0  0  0  0  0  0  0  0
   45.5150   32.5940   44.3690 N   0  0  0  0  0  0  0  0  0  0  0  0
   45.7400   33.5600   45.3170 C   0  0  0  0  0  0  0  0  0  0  0  0
   45.3940   34.8690   45.1040 N   0  0  0  0  0  0  0  0  0  0  0  0
   44.4540   36.5850   43.7010 N   0  0  0  0  0  0  0  0  0  0  0  0
   44.5702   35.7388   41.6174 H   0  0  0  0  0  0  0  0  0  0  0  0
   42.1003   33.7654   41.7998 H   0  0  0  0  0  0  0  0  0  0  0  0
   42.0241   35.3726   42.3816 H   0  0  0  0  0  0  0  0  0  0  0  0
   41.3665   35.0545   39.7773 H   0  0  0  0  0  0  0  0  0  0  0  0
   42.5763   36.2898   39.9939 H   0  0  0  0  0  0  0  0  0  0  0  0
   42.8799   33.3926   39.1310 H   0  0  0  0  0  0  0  0  0  0  0  0
   43.7879   34.7984   38.5554 H   0  0  0  0  0  0  0  0  0  0  0  0
   44.4863   32.9416   40.6952 H   0  0  0  0  0  0  0  0  0  0  0  0
   45.4486   34.3098   40.1164 H   0  0  0  0  0  0  0  0  0  0  0  0
   44.7590   32.1023   42.4122 H   0  0  0  0  0  0  0  0  0  0  0  0
   46.2093   33.2771   46.2708 H   0  0  0  0  0  0  0  0  0  0  0  0
   44.0147   36.8616   42.8114 H   0  0  0  0  0  0  0  0  0  0  0  0
   44.6331   37.2918   44.4285 H   0  0  0  0  0  0  0  0  0  0  0  0
  1  7  1  0
  2  1  1  0
  3  2  1  0
  4  3  1  0
  4  5  1  0
  5  1  1  0
  6 11  2  0
  7  8  2  0
  7  6  1  0
  8  9  1  0
  9 10  2  0
 11 10  1  0
 12  6  1  0
  1 13  1  0
  2 14  1  0
  2 15  1  0
  3 16  1  0
  3 17  1  0
  4 18  1  0
  4 19  1  0
  5 20  1  0
  5 21  1  0
  8 22  1  0
 10 23  1  0
 12 24  1  0
 12 25  1  0
M  ISO  8  13  13  14  13  15  13  16  13  17  13  18  13  19  13  20  13
M  ISO  3  21  13  22  14  23  14
M  END
>  <minimizedAffinity>  (1) 
-3.63778734

>  <minimizedRMSD>  (1) 
0.650373399

$$$$
