
     RDKit          3D

 35 37  0  0  0  0  0  0  0  0999 V2000
   45.9640   34.1620   41.0230 C   0  0  0  0  0  0  0  0  0  0  0  0
   46.2660   34.8480   42.1930 C   0  0  0  0  0  0  0  0  0  0  0  0
   45.2980   35.6940   42.8590 C   0  0  0  0  0  0  0  0  0  0  0  0
   44.0740   35.7770   42.2650 N   0  0  0  0  0  0  0  0  0  0  0  0
   43.7780   35.1000   41.1080 C   0  0  0  0  0  0  0  0  0  0  0  0
   44.7060   34.3060   40.4960 N   0  0  0  0  0  0  0  0  0  0  0  0
   46.9140   33.3300   40.4040 N   0  0  0  0  0  0  0  0  0  0  0  0
   47.6510   34.7680   42.6580 C   0  0  0  0  0  0  0  0  0  0  0  0
   48.6090   35.5220   41.6410 C   0  0  0  0  0  0  0  0  0  0  0  0
   49.9300   35.1860   42.3880 C   0  0  0  0  0  0  0  0  0  0  0  0
   49.7590   33.7220   42.6410 C   0  0  0  0  0  0  0  0  0  0  0  0
   48.2540   33.5090   42.8290 C   0  0  0  0  0  0  0  0  0  0  0  0
   42.4560   35.2150   40.5010 C   0  0  0  0  0  0  0  0  0  0  0  0
   42.2930   34.8600   39.1770 C   0  0  0  0  0  0  0  0  0  0  0  0
   41.0610   34.9560   38.5710 C   0  0  0  0  0  0  0  0  0  0  0  0
   39.9840   35.4180   39.3240 C   0  0  0  0  0  0  0  0  0  0  0  0
   40.1390   35.7740   40.6480 C   0  0  0  0  0  0  0  0  0  0  0  0
   41.3770   35.6700   41.2280 C   0  0  0  0  0  0  0  0  0  0  0  0
   45.5355   36.2359   43.7863 H   0  0  0  0  0  0  0  0  0  0  0  0
   46.6727   32.8290   39.5370 H   0  0  0  0  0  0  0  0  0  0  0  0
   47.8510   33.2216   40.8177 H   0  0  0  0  0  0  0  0  0  0  0  0
   47.5483   35.2065   43.6616 H   0  0  0  0  0  0  0  0  0  0  0  0
   48.4111   36.6029   41.5918 H   0  0  0  0  0  0  0  0  0  0  0  0
   48.5434   35.2349   40.5811 H   0  0  0  0  0  0  0  0  0  0  0  0
   50.8102   35.3859   41.7593 H   0  0  0  0  0  0  0  0  0  0  0  0
   50.0987   35.7835   43.2960 H   0  0  0  0  0  0  0  0  0  0  0  0
   50.1250   33.1388   41.7831 H   0  0  0  0  0  0  0  0  0  0  0  0
   50.3297   33.3919   43.5216 H   0  0  0  0  0  0  0  0  0  0  0  0
   48.0475   33.1220   43.8378 H   0  0  0  0  0  0  0  0  0  0  0  0
   47.8614   32.7772   42.1077 H   0  0  0  0  0  0  0  0  0  0  0  0
   43.1565   34.4967   38.6005 H   0  0  0  0  0  0  0  0  0  0  0  0
   40.9298   34.6742   37.5158 H   0  0  0  0  0  0  0  0  0  0  0  0
   38.9925   35.5005   38.8548 H   0  0  0  0  0  0  0  0  0  0  0  0
   39.2798   36.1369   41.2311 H   0  0  0  0  0  0  0  0  0  0  0  0
   41.5103   35.9522   42.2828 H   0  0  0  0  0  0  0  0  0  0  0  0
  1  2  2  0
  2  8  1  0
  2  3  1  0
  4  3  2  0
  5  4  1  0
  6  1  1  0
  6  5  2  0
  7  1  1  0
  8 12  1  0
  9 10  1  0
  9  8  1  0
 10 11  1  0
 11 12  1  0
 13  5  1  0
 13 18  1  0
 14 13  2  0
 15 14  1  0
 15 16  2  0
 16 17  1  0
 17 18  2  0
  3 19  1  0
  7 20  1  0
  7 21  1  0
  8 22  1  0
  9 23  1  0
  9 24  1  0
 10 25  1  0
 10 26  1  0
 11 27  1  0
 11 28  1  0
 12 29  1  0
 12 30  1  0
 14 31  1  0
 15 32  1  0
 16 33  1  0
 17 34  1  0
 18 35  1  0
M  ISO  8  19  14  22  13  23  13  24  13  25  13  26  13  27  13  28  13
M  ISO  7  29  13  30  13  31  14  32  14  33  14  34  14  35  14
M  END
>  <minimizedAffinity>  (1) 
-6.31916618

>  <minimizedRMSD>  (1) 
7.17160845

$$$$
