
     RDKit          3D

 32 34  0  0  0  0  0  0  0  0999 V2000
   44.9000   34.9730   44.2200 C   0  0  0  0  0  0  0  0  0  0  0  0
   44.7450   34.1000   43.1550 C   0  0  0  0  0  0  0  0  0  0  0  0
   45.0630   32.6980   43.2890 C   0  0  0  0  0  0  0  0  0  0  0  0
   45.5230   32.2840   44.5080 N   0  0  0  0  0  0  0  0  0  0  0  0
   45.6710   33.1630   45.5460 C   0  0  0  0  0  0  0  0  0  0  0  0
   45.3620   34.5050   45.4120 N   0  0  0  0  0  0  0  0  0  0  0  0
   44.5420   36.3310   44.0790 N   0  0  0  0  0  0  0  0  0  0  0  0
   46.1520   32.7380   46.8180 N   0  0  0  0  0  0  0  0  0  0  0  0
   47.3710   32.4030   47.2290 N   0  0  0  0  0  0  0  0  0  0  0  0
   47.3140   32.0650   48.5510 C   0  0  0  0  0  0  0  0  0  0  0  0
   45.9910   32.2000   48.9700 C   0  0  0  0  0  0  0  0  0  0  0  0
   45.2890   32.6270   47.8450 C   0  0  0  0  0  0  0  0  0  0  0  0
   44.3740   34.6610   41.8620 C   0  0  0  0  0  0  0  0  0  0  0  0
   42.8010   34.6170   41.6760 C   0  0  0  0  0  0  0  0  0  0  0  0
   42.8060   35.2580   40.2520 C   0  0  0  0  0  0  0  0  0  0  0  0
   43.8660   34.4530   39.5860 C   0  0  0  0  0  0  0  0  0  0  0  0
   44.8740   34.0840   40.6790 C   0  0  0  0  0  0  0  0  0  0  0  0
   44.9410   31.9966   42.4504 H   0  0  0  0  0  0  0  0  0  0  0  0
   44.1929   36.6804   43.1751 H   0  0  0  0  0  0  0  0  0  0  0  0
   44.6298   36.9726   44.8800 H   0  0  0  0  0  0  0  0  0  0  0  0
   48.1613   31.7434   49.1745 H   0  0  0  0  0  0  0  0  0  0  0  0
   45.5873   32.0097   49.9754 H   0  0  0  0  0  0  0  0  0  0  0  0
   44.2103   32.8381   47.8030 H   0  0  0  0  0  0  0  0  0  0  0  0
   44.8370   35.6552   41.9471 H   0  0  0  0  0  0  0  0  0  0  0  0
   42.3978   33.5936   41.6831 H   0  0  0  0  0  0  0  0  0  0  0  0
   42.1841   35.0994   42.4485 H   0  0  0  0  0  0  0  0  0  0  0  0
   41.8336   35.1396   39.7516 H   0  0  0  0  0  0  0  0  0  0  0  0
   42.9853   36.3432   40.2423 H   0  0  0  0  0  0  0  0  0  0  0  0
   43.4329   33.5435   39.1442 H   0  0  0  0  0  0  0  0  0  0  0  0
   44.3458   35.0173   38.7727 H   0  0  0  0  0  0  0  0  0  0  0  0
   44.9443   32.9913   40.7841 H   0  0  0  0  0  0  0  0  0  0  0  0
   45.8844   34.4488   40.4424 H   0  0  0  0  0  0  0  0  0  0  0  0
  1  6  2  0
  2  3  2  0
  2  1  1  0
  3  4  1  0
  4  5  2  0
  5  8  1  0
  6  5  1  0
  7  1  1  0
  8  9  1  0
  8 12  1  0
  9 10  2  0
 10 11  1  0
 12 11  2  0
 13  2  1  0
 14 13  1  0
 15 14  1  0
 16 15  1  0
 16 17  1  0
 17 13  1  0
  3 18  1  0
  7 19  1  0
  7 20  1  0
 10 21  1  0
 11 22  1  0
 12 23  1  0
 13 24  1  0
 14 25  1  0
 14 26  1  0
 15 27  1  0
 15 28  1  0
 16 29  1  0
 16 30  1  0
 17 31  1  0
 17 32  1  0
M  ISO  8  18  14  21  14  22  14  23  14  24  13  25  13  26  13  27  13
M  ISO  5  28  13  29  13  30  13  31  13  32  13
M  END
>  <minimizedAffinity>  (1) 
-5.17980862

>  <minimizedRMSD>  (1) 
0.510612905

$$$$
