
     RDKit          3D

 36 39  0  0  0  0  0  0  0  0999 V2000
   44.4520   35.1030   42.6550 C   0  0  0  0  0  0  0  0  0  0  0  0
   43.4200   34.4910   41.9680 C   0  0  0  0  0  0  0  0  0  0  0  0
   43.2790   33.0560   41.9420 C   0  0  0  0  0  0  0  0  0  0  0  0
   44.2070   32.3340   42.6200 N   0  0  0  0  0  0  0  0  0  0  0  0
   45.2290   32.9500   43.2960 C   0  0  0  0  0  0  0  0  0  0  0  0
   45.3590   34.3250   43.3210 N   0  0  0  0  0  0  0  0  0  0  0  0
   44.5540   36.5070   42.6970 N   0  0  0  0  0  0  0  0  0  0  0  0
   46.1940   32.1770   44.0000 N   0  0  0  0  0  0  0  0  0  0  0  0
   47.2910   31.6190   43.4670 C   0  0  0  0  0  0  0  0  0  0  0  0
   48.0110   30.9480   44.3750 N   0  0  0  0  0  0  0  0  0  0  0  0
   47.3520   31.0780   45.5470 C   0  0  0  0  0  0  0  0  0  0  0  0
   47.6780   30.5700   46.8070 C   0  0  0  0  0  0  0  0  0  0  0  0
   46.8190   30.8690   47.7970 N   0  0  0  0  0  0  0  0  0  0  0  0
   45.7170   31.6200   47.5450 C   0  0  0  0  0  0  0  0  0  0  0  0
   45.3940   32.1180   46.3200 N   0  0  0  0  0  0  0  0  0  0  0  0
   46.2340   31.8410   45.2880 C   0  0  0  0  0  0  0  0  0  0  0  0
   42.5450   35.3500   41.1700 C   0  0  0  0  0  0  0  0  0  0  0  0
   41.0570   35.2730   41.7260 C   0  0  0  0  0  0  0  0  0  0  0  0
   40.4450   36.2360   40.6710 C   0  0  0  0  0  0  0  0  0  0  0  0
   41.0420   35.7190   39.4100 C   0  0  0  0  0  0  0  0  0  0  0  0
   42.3890   35.0990   39.7960 C   0  0  0  0  0  0  0  0  0  0  0  0
   42.4568   32.5688   41.3975 H   0  0  0  0  0  0  0  0  0  0  0  0
   43.8686   37.0884   42.1939 H   0  0  0  0  0  0  0  0  0  0  0  0
   45.3140   36.9524   43.2308 H   0  0  0  0  0  0  0  0  0  0  0  0
   47.5675   31.7029   42.4056 H   0  0  0  0  0  0  0  0  0  0  0  0
   48.5800   29.9640   46.9781 H   0  0  0  0  0  0  0  0  0  0  0  0
   45.0414   31.8404   48.3846 H   0  0  0  0  0  0  0  0  0  0  0  0
   43.0737   36.3097   41.2673 H   0  0  0  0  0  0  0  0  0  0  0  0
   40.6344   34.2588   41.6725 H   0  0  0  0  0  0  0  0  0  0  0  0
   40.9018   35.5228   42.7860 H   0  0  0  0  0  0  0  0  0  0  0  0
   39.3474   36.1663   40.6532 H   0  0  0  0  0  0  0  0  0  0  0  0
   40.6542   37.2990   40.8616 H   0  0  0  0  0  0  0  0  0  0  0  0
   41.1918   36.5408   38.6943 H   0  0  0  0  0  0  0  0  0  0  0  0
   40.3842   34.9800   38.9292 H   0  0  0  0  0  0  0  0  0  0  0  0
   42.3820   34.0162   39.6026 H   0  0  0  0  0  0  0  0  0  0  0  0
   43.2152   35.5270   39.2094 H   0  0  0  0  0  0  0  0  0  0  0  0
  1  7  1  0
  1  6  2  0
  2  1  1  0
  3  2  2  0
  3  4  1  0
  4  5  2  0
  5  6  1  0
  5  8  1  0
  8 16  1  0
  9  8  1  0
  9 10  2  0
 10 11  1  0
 11 12  2  0
 12 13  1  0
 14 13  2  0
 15 14  1  0
 16 11  1  0
 16 15  2  0
 17 18  1  0
 17  2  1  0
 19 18  1  0
 20 21  1  0
 20 19  1  0
 21 17  1  0
  3 22  1  0
  7 23  1  0
  7 24  1  0
  9 25  1  0
 12 26  1  0
 14 27  1  0
 17 28  1  0
 18 29  1  0
 18 30  1  0
 19 31  1  0
 19 32  1  0
 20 33  1  0
 20 34  1  0
 21 35  1  0
 21 36  1  0
M  ISO  8  22  14  25  14  26  14  27  14  28  13  29  13  30  13  31  13
M  ISO  5  32  13  33  13  34  13  35  13  36  13
M  END
>  <minimizedAffinity>  (1) 
-5.34881496

>  <minimizedRMSD>  (1) 
2.60599065

$$$$
