
     RDKit          3D

 32 34  0  0  0  0  0  0  0  0999 V2000
   44.9280   34.9180   44.4590 C   0  0  0  0  0  0  0  0  0  0  0  0
   44.9080   34.0500   43.3780 C   0  0  0  0  0  0  0  0  0  0  0  0
   45.3000   32.6630   43.5160 C   0  0  0  0  0  0  0  0  0  0  0  0
   45.6900   32.2590   44.7570 N   0  0  0  0  0  0  0  0  0  0  0  0
   45.7060   33.1370   45.8250 C   0  0  0  0  0  0  0  0  0  0  0  0
   45.3330   34.4380   45.6830 N   0  0  0  0  0  0  0  0  0  0  0  0
   44.5120   36.2570   44.3080 N   0  0  0  0  0  0  0  0  0  0  0  0
   44.5760   34.6140   42.0720 C   0  0  0  0  0  0  0  0  0  0  0  0
   43.0120   34.4500   41.7970 C   0  0  0  0  0  0  0  0  0  0  0  0
   43.0500   35.1150   40.3910 C   0  0  0  0  0  0  0  0  0  0  0  0
   44.2090   34.4080   39.7660 C   0  0  0  0  0  0  0  0  0  0  0  0
   45.1680   34.0830   40.9130 C   0  0  0  0  0  0  0  0  0  0  0  0
   46.1340   32.6320   47.1180 C   0  0  0  0  0  0  0  0  0  0  0  0
   47.3910   32.1590   47.4140 C   0  0  0  0  0  0  0  0  0  0  0  0
   47.3340   31.7930   48.7370 C   0  0  0  0  0  0  0  0  0  0  0  0
   46.1120   32.0250   49.2300 N   0  0  0  0  0  0  0  0  0  0  0  0
   45.3880   32.5400   48.2260 N   0  0  0  0  0  0  0  0  0  0  0  0
   45.2837   31.9704   42.6616 H   0  0  0  0  0  0  0  0  0  0  0  0
   44.2115   36.6020   43.3852 H   0  0  0  0  0  0  0  0  0  0  0  0
   44.5087   36.8900   45.1205 H   0  0  0  0  0  0  0  0  0  0  0  0
   44.9664   35.6353   42.1931 H   0  0  0  0  0  0  0  0  0  0  0  0
   42.6900   33.3987   41.7656 H   0  0  0  0  0  0  0  0  0  0  0  0
   42.3162   34.8663   42.5404 H   0  0  0  0  0  0  0  0  0  0  0  0
   42.1191   34.9333   39.8339 H   0  0  0  0  0  0  0  0  0  0  0  0
   43.1479   36.2104   40.4125 H   0  0  0  0  0  0  0  0  0  0  0  0
   43.8733   33.4833   39.2739 H   0  0  0  0  0  0  0  0  0  0  0  0
   44.6936   35.0273   38.9968 H   0  0  0  0  0  0  0  0  0  0  0  0
   45.2923   32.9945   41.0111 H   0  0  0  0  0  0  0  0  0  0  0  0
   46.1667   34.5096   40.7377 H   0  0  0  0  0  0  0  0  0  0  0  0
   48.2555   32.0889   46.7375 H   0  0  0  0  0  0  0  0  0  0  0  0
   48.1729   31.3698   49.3090 H   0  0  0  0  0  0  0  0  0  0  0  0
   45.7907   31.8436   50.1917 H   0  0  0  0  0  0  0  0  0  0  0  0
  1  6  2  0
  2  3  2  0
  2  1  1  0
  3  4  1  0
  4  5  2  0
  5 13  1  0
  6  5  1  0
  7  1  1  0
  8  2  1  0
  9  8  1  0
 10  9  1  0
 11 10  1  0
 11 12  1  0
 12  8  1  0
 13 14  1  0
 13 17  2  0
 14 15  2  0
 15 16  1  0
 17 16  1  0
  3 18  1  0
  7 19  1  0
  7 20  1  0
  8 21  1  0
  9 22  1  0
  9 23  1  0
 10 24  1  0
 10 25  1  0
 11 26  1  0
 11 27  1  0
 12 28  1  0
 12 29  1  0
 14 30  1  0
 15 31  1  0
 16 32  1  0
M  ISO  8  18  14  21  13  22  13  23  13  24  13  25  13  26  13  27  13
M  ISO  5  28  13  29  13  30  14  31  14  32   9
M  END
>  <minimizedAffinity>  (1) 
-5.03867531

>  <minimizedRMSD>  (1) 
0.787133455

$$$$
