
     RDKit          3D

 28 29  0  0  0  0  0  0  0  0999 V2000
   43.0070   35.3380   41.2910 C   0  0  0  0  0  0  0  0  0  0  0  0
   41.4970   35.2670   41.7690 C   0  0  0  0  0  0  0  0  0  0  0  0
   40.9240   36.0560   40.5500 C   0  0  0  0  0  0  0  0  0  0  0  0
   41.6130   35.3830   39.4160 C   0  0  0  0  0  0  0  0  0  0  0  0
   42.9540   34.8850   39.9590 C   0  0  0  0  0  0  0  0  0  0  0  0
   44.7170   35.4660   43.0100 C   0  0  0  0  0  0  0  0  0  0  0  0
   43.8790   34.6620   42.2510 C   0  0  0  0  0  0  0  0  0  0  0  0
   43.9380   33.2180   42.3090 C   0  0  0  0  0  0  0  0  0  0  0  0
   44.8710   32.6950   43.1540 N   0  0  0  0  0  0  0  0  0  0  0  0
   45.6960   33.4880   43.8970 C   0  0  0  0  0  0  0  0  0  0  0  0
   45.6300   34.8680   43.8370 N   0  0  0  0  0  0  0  0  0  0  0  0
   44.6240   36.8670   42.9560 N   0  0  0  0  0  0  0  0  0  0  0  0
   46.7060   32.8740   44.8080 C   0  0  0  0  0  0  0  0  0  0  0  0
   46.7320   33.5090   46.0510 F   0  0  0  0  0  0  0  0  0  0  0  0
   47.9350   32.9410   44.1880 F   0  0  0  0  0  0  0  0  0  0  0  0
   46.3900   31.5580   45.0960 F   0  0  0  0  0  0  0  0  0  0  0  0
   43.4791   36.3314   41.2768 H   0  0  0  0  0  0  0  0  0  0  0  0
   41.1153   34.2371   41.8300 H   0  0  0  0  0  0  0  0  0  0  0  0
   41.2635   35.6452   42.7752 H   0  0  0  0  0  0  0  0  0  0  0  0
   39.8316   35.9483   40.4783 H   0  0  0  0  0  0  0  0  0  0  0  0
   41.0916   37.1421   40.5978 H   0  0  0  0  0  0  0  0  0  0  0  0
   41.7764   36.0951   38.5937 H   0  0  0  0  0  0  0  0  0  0  0  0
   41.0103   34.5526   39.0197 H   0  0  0  0  0  0  0  0  0  0  0  0
   43.0000   33.7865   39.9235 H   0  0  0  0  0  0  0  0  0  0  0  0
   43.8011   35.2585   39.3649 H   0  0  0  0  0  0  0  0  0  0  0  0
   43.2714   32.5815   41.7086 H   0  0  0  0  0  0  0  0  0  0  0  0
   43.9362   37.3138   42.3329 H   0  0  0  0  0  0  0  0  0  0  0  0
   45.2436   37.4471   43.5395 H   0  0  0  0  0  0  0  0  0  0  0  0
  1  2  1  0
  1  7  1  0
  3  2  1  0
  4  5  1  0
  4  3  1  0
  5  1  1  0
  6 11  2  0
  7  8  2  0
  7  6  1  0
  8  9  1  0
  9 10  2  0
 10 13  1  0
 11 10  1  0
 12  6  1  0
 13 16  1  0
 13 14  1  0
 15 13  1  0
  1 17  1  0
  2 18  1  0
  2 19  1  0
  3 20  1  0
  3 21  1  0
  4 22  1  0
  4 23  1  0
  5 24  1  0
  5 25  1  0
  8 26  1  0
 12 27  1  0
 12 28  1  0
M  ISO  8  17  13  18  13  19  13  20  13  21  13  22  13  23  13  24  13
M  ISO  2  25  13  26  14
M  END
>  <minimizedAffinity>  (1) 
-4.69651794

>  <minimizedRMSD>  (1) 
1.65257418

$$$$
