
     RDKit          3D

 26 27  0  0  0  0  0  0  0  0999 V2000
   42.8690   35.4040   41.1980 C   0  0  0  0  0  0  0  0  0  0  0  0
   41.3980   35.3080   41.7820 C   0  0  0  0  0  0  0  0  0  0  0  0
   40.7080   36.0870   40.6350 C   0  0  0  0  0  0  0  0  0  0  0  0
   41.3450   35.4970   39.4250 C   0  0  0  0  0  0  0  0  0  0  0  0
   42.7280   35.0020   39.8580 C   0  0  0  0  0  0  0  0  0  0  0  0
   44.6930   35.4600   42.8020 C   0  0  0  0  0  0  0  0  0  0  0  0
   43.7980   34.6900   42.0760 C   0  0  0  0  0  0  0  0  0  0  0  0
   43.8500   33.2440   42.0820 C   0  0  0  0  0  0  0  0  0  0  0  0
   44.8350   32.6860   42.8400 N   0  0  0  0  0  0  0  0  0  0  0  0
   45.7170   33.4440   43.5530 C   0  0  0  0  0  0  0  0  0  0  0  0
   45.6550   34.8140   43.5410 N   0  0  0  0  0  0  0  0  0  0  0  0
   44.5970   36.8650   42.8080 N   0  0  0  0  0  0  0  0  0  0  0  0
   46.9930   32.6460   44.5320 S   0  0  0  0  0  0  0  0  0  0  0  0
   43.3383   36.3987   41.1801 H   0  0  0  0  0  0  0  0  0  0  0  0
   41.0416   34.2706   41.8638 H   0  0  0  0  0  0  0  0  0  0  0  0
   41.2417   35.6831   42.8042 H   0  0  0  0  0  0  0  0  0  0  0  0
   39.6211   35.9181   40.6358 H   0  0  0  0  0  0  0  0  0  0  0  0
   40.8271   37.1781   40.7087 H   0  0  0  0  0  0  0  0  0  0  0  0
   41.4436   36.2590   38.6378 H   0  0  0  0  0  0  0  0  0  0  0  0
   40.7384   34.6749   39.0174 H   0  0  0  0  0  0  0  0  0  0  0  0
   42.7868   33.9065   39.7772 H   0  0  0  0  0  0  0  0  0  0  0  0
   43.5259   35.4138   39.2226 H   0  0  0  0  0  0  0  0  0  0  0  0
   43.1374   32.6323   41.5093 H   0  0  0  0  0  0  0  0  0  0  0  0
   43.8703   37.3339   42.2486 H   0  0  0  0  0  0  0  0  0  0  0  0
   45.2535   37.4237   43.3718 H   0  0  0  0  0  0  0  0  0  0  0  0
   46.7204   32.8165   45.8637 H   0  0  0  0  0  0  0  0  0  0  0  0
  1  2  1  0
  1  7  1  0
  3  2  1  0
  4  5  1  0
  4  3  1  0
  5  1  1  0
  6 12  1  0
  6 11  2  0
  7  8  2  0
  7  6  1  0
  8  9  1  0
  9 10  2  0
 10 13  1  0
 11 10  1  0
  1 14  1  0
  2 15  1  0
  2 16  1  0
  3 17  1  0
  3 18  1  0
  4 19  1  0
  4 20  1  0
  5 21  1  0
  5 22  1  0
  8 23  1  0
 12 24  1  0
 12 25  1  0
 13 26  1  0
M  ISO  8  14  13  15  13  16  13  17  13  18  13  19  13  20  13  21  13
M  ISO  3  22  13  23  14  26  11
M  END
>  <minimizedAffinity>  (1) 
-4.21810722

>  <minimizedRMSD>  (1) 
1.7101469

$$$$
