
     RDKit          3D

 38 40  0  0  0  0  0  0  0  0999 V2000
   44.5530   35.2790   42.9500 C   0  0  0  0  0  0  0  0  0  0  0  0
   43.6960   34.6050   42.1130 C   0  0  0  0  0  0  0  0  0  0  0  0
   43.7030   33.1710   42.1080 C   0  0  0  0  0  0  0  0  0  0  0  0
   44.5680   32.5320   42.9390 N   0  0  0  0  0  0  0  0  0  0  0  0
   45.4050   33.2290   43.7530 C   0  0  0  0  0  0  0  0  0  0  0  0
   45.4050   34.6220   43.7660 N   0  0  0  0  0  0  0  0  0  0  0  0
   44.5200   36.7090   42.9490 N   0  0  0  0  0  0  0  0  0  0  0  0
   42.8270   35.3420   41.2160 C   0  0  0  0  0  0  0  0  0  0  0  0
   41.3310   35.3200   41.6960 C   0  0  0  0  0  0  0  0  0  0  0  0
   40.7680   36.1200   40.4930 C   0  0  0  0  0  0  0  0  0  0  0  0
   41.4060   35.4080   39.3400 C   0  0  0  0  0  0  0  0  0  0  0  0
   42.7830   34.9600   39.8500 C   0  0  0  0  0  0  0  0  0  0  0  0
   46.3690   32.5550   44.6590 C   0  0  0  0  0  0  0  0  0  0  0  0
   46.4480   33.2110   46.0090 C   0  0  0  0  0  0  0  0  0  0  0  0
   45.8770   32.2020   46.9730 C   0  0  0  0  0  0  0  0  0  0  0  0
   45.5230   32.4670   48.2980 C   0  0  0  0  0  0  0  0  0  0  0  0
   45.0410   31.2860   48.8460 C   0  0  0  0  0  0  0  0  0  0  0  0
   45.1300   30.3620   47.8110 C   0  0  0  0  0  0  0  0  0  0  0  0
   45.6200   30.9440   46.7470 O   0  0  0  0  0  0  0  0  0  0  0  0
   43.0275   32.6043   41.4503 H   0  0  0  0  0  0  0  0  0  0  0  0
   43.8696   37.2087   42.3260 H   0  0  0  0  0  0  0  0  0  0  0  0
   45.1467   37.2390   43.5713 H   0  0  0  0  0  0  0  0  0  0  0  0
   43.3066   36.3308   41.2642 H   0  0  0  0  0  0  0  0  0  0  0  0
   40.9195   34.3019   41.7602 H   0  0  0  0  0  0  0  0  0  0  0  0
   41.1195   35.7093   42.7028 H   0  0  0  0  0  0  0  0  0  0  0  0
   39.6707   36.0580   40.4467 H   0  0  0  0  0  0  0  0  0  0  0  0
   40.9826   37.1982   40.5300 H   0  0  0  0  0  0  0  0  0  0  0  0
   41.5156   36.0868   38.4814 H   0  0  0  0  0  0  0  0  0  0  0  0
   40.7992   34.5566   38.9982 H   0  0  0  0  0  0  0  0  0  0  0  0
   42.8925   33.8698   39.7525 H   0  0  0  0  0  0  0  0  0  0  0  0
   43.5996   35.4183   39.2728 H   0  0  0  0  0  0  0  0  0  0  0  0
   46.0547   31.5094   44.7931 H   0  0  0  0  0  0  0  0  0  0  0  0
   47.3647   32.6229   44.1965 H   0  0  0  0  0  0  0  0  0  0  0  0
   47.4926   33.4412   46.2654 H   0  0  0  0  0  0  0  0  0  0  0  0
   45.8975   34.1629   46.0363 H   0  0  0  0  0  0  0  0  0  0  0  0
   45.6102   33.4349   48.8133 H   0  0  0  0  0  0  0  0  0  0  0  0
   44.6719   31.1190   49.8687 H   0  0  0  0  0  0  0  0  0  0  0  0
   44.8340   29.3046   47.8768 H   0  0  0  0  0  0  0  0  0  0  0  0
  1  6  2  0
  2  1  1  0
  3  2  2  0
  3  4  1  0
  4  5  2  0
  5  6  1  0
  5 13  1  0
  7  1  1  0
  8  9  1  0
  8  2  1  0
 10  9  1  0
 11 12  1  0
 11 10  1  0
 12  8  1  0
 13 14  1  0
 14 15  1  0
 15 16  2  0
 16 17  1  0
 18 17  2  0
 19 15  1  0
 19 18  1  0
  3 20  1  0
  7 21  1  0
  7 22  1  0
  8 23  1  0
  9 24  1  0
  9 25  1  0
 10 26  1  0
 10 27  1  0
 11 28  1  0
 11 29  1  0
 12 30  1  0
 12 31  1  0
 13 32  1  0
 13 33  1  0
 14 34  1  0
 14 35  1  0
 16 36  1  0
 17 37  1  0
 18 38  1  0
M  ISO  8  20  14  23  13  24  13  25  13  26  13  27  13  28  13  29  13
M  ISO  8  30  13  31  13  32   8  33   8  34   8  35   8  36  14  37  14
M  ISO  1  38  14
M  END
>  <minimizedAffinity>  (1) 
-5.53549147

>  <minimizedRMSD>  (1) 
1.03812289

$$$$
