
     RDKit          3D

 45 48  0  0  0  0  0  0  0  0999 V2000
   44.8490   35.3870   43.4510 C   0  0  0  0  0  0  0  0  0  0  0  0
   44.3860   34.4590   42.5440 C   0  0  0  0  0  0  0  0  0  0  0  0
   44.5770   33.0590   42.8060 C   0  0  0  0  0  0  0  0  0  0  0  0
   45.2220   32.7040   43.9570 N   0  0  0  0  0  0  0  0  0  0  0  0
   45.6650   33.6480   44.8220 C   0  0  0  0  0  0  0  0  0  0  0  0
   45.4850   34.9890   44.5820 N   0  0  0  0  0  0  0  0  0  0  0  0
   44.6290   36.7690   43.1670 N   0  0  0  0  0  0  0  0  0  0  0  0
   43.7570   34.8940   41.3130 C   0  0  0  0  0  0  0  0  0  0  0  0
   42.1910   34.9220   41.4320 C   0  0  0  0  0  0  0  0  0  0  0  0
   41.9160   35.3400   39.9670 C   0  0  0  0  0  0  0  0  0  0  0  0
   42.8160   34.4480   39.2070 C   0  0  0  0  0  0  0  0  0  0  0  0
   44.0150   34.1580   40.1270 C   0  0  0  0  0  0  0  0  0  0  0  0
   46.3820   33.2740   46.0680 C   0  0  0  0  0  0  0  0  0  0  0  0
   45.6270   32.2790   46.9040 C   0  0  0  0  0  0  0  0  0  0  0  0
   46.6110   31.5180   47.7170 C   0  0  0  0  0  0  0  0  0  0  0  0
   46.7970   31.5550   49.0910 C   0  0  0  0  0  0  0  0  0  0  0  0
   47.7840   30.7310   49.4880 N   0  0  0  0  0  0  0  0  0  0  0  0
   48.2390   30.1550   48.3650 C   0  0  0  0  0  0  0  0  0  0  0  0
   49.2560   29.2320   48.2850 C   0  0  0  0  0  0  0  0  0  0  0  0
   49.5840   28.7500   47.0200 C   0  0  0  0  0  0  0  0  0  0  0  0
   48.8970   29.1970   45.8880 C   0  0  0  0  0  0  0  0  0  0  0  0
   47.8830   30.1260   46.0250 C   0  0  0  0  0  0  0  0  0  0  0  0
   47.5490   30.6100   47.2580 C   0  0  0  0  0  0  0  0  0  0  0  0
   44.2148   32.2961   42.1011 H   0  0  0  0  0  0  0  0  0  0  0  0
   44.1437   37.0461   42.3018 H   0  0  0  0  0  0  0  0  0  0  0  0
   44.9556   37.4888   43.8274 H   0  0  0  0  0  0  0  0  0  0  0  0
   44.2274   35.8822   41.2024 H   0  0  0  0  0  0  0  0  0  0  0  0
   41.7672   33.9372   41.6782 H   0  0  0  0  0  0  0  0  0  0  0  0
   41.7621   35.5574   42.2208 H   0  0  0  0  0  0  0  0  0  0  0  0
   40.8639   35.1688   39.6953 H   0  0  0  0  0  0  0  0  0  0  0  0
   42.0922   36.4087   39.7749 H   0  0  0  0  0  0  0  0  0  0  0  0
   42.2975   33.5123   38.9508 H   0  0  0  0  0  0  0  0  0  0  0  0
   43.1389   34.9146   38.2647 H   0  0  0  0  0  0  0  0  0  0  0  0
   44.0819   33.0823   40.3468 H   0  0  0  0  0  0  0  0  0  0  0  0
   44.9699   34.4455   39.6628 H   0  0  0  0  0  0  0  0  0  0  0  0
   47.3539   32.8369   45.7954 H   0  0  0  0  0  0  0  0  0  0  0  0
   46.4969   34.1884   46.6686 H   0  0  0  0  0  0  0  0  0  0  0  0
   44.9241   32.8056   47.5662 H   0  0  0  0  0  0  0  0  0  0  0  0
   45.0555   31.5952   46.2591 H   0  0  0  0  0  0  0  0  0  0  0  0
   46.2076   32.1834   49.7750 H   0  0  0  0  0  0  0  0  0  0  0  0
   48.1189   30.5756   50.4495 H   0  0  0  0  0  0  0  0  0  0  0  0
   49.7888   28.8884   49.1840 H   0  0  0  0  0  0  0  0  0  0  0  0
   50.3912   28.0107   46.9110 H   0  0  0  0  0  0  0  0  0  0  0  0
   49.1621   28.8112   44.8926 H   0  0  0  0  0  0  0  0  0  0  0  0
   47.3411   30.4782   45.1349 H   0  0  0  0  0  0  0  0  0  0  0  0
  1  6  2  0
  2  3  2  0
  2  1  1  0
  3  4  1  0
  4  5  2  0
  5 13  1  0
  6  5  1  0
  7  1  1  0
  8  9  1  0
  8  2  1  0
 10  9  1  0
 11 10  1  0
 11 12  1  0
 12  8  1  0
 13 14  1  0
 14 15  1  0
 15 16  2  0
 16 17  1  0
 18 17  1  0
 19 18  2  0
 20 19  1  0
 21 22  1  0
 21 20  2  0
 22 23  2  0
 23 15  1  0
 23 18  1  0
  3 24  1  0
  7 25  1  0
  7 26  1  0
  8 27  1  0
  9 28  1  0
  9 29  1  0
 10 30  1  0
 10 31  1  0
 11 32  1  0
 11 33  1  0
 12 34  1  0
 12 35  1  0
 13 36  1  0
 13 37  1  0
 14 38  1  0
 14 39  1  0
 16 40  1  0
 17 41  1  0
 19 42  1  0
 20 43  1  0
 21 44  1  0
 22 45  1  0
M  ISO  8  24  14  27  13  28  13  29  13  30  13  31  13  32  13  33  13
M  ISO  8  34  13  35  13  36   8  37   8  38   8  39   8  40  14  41   9
M  ISO  4  42  14  43  14  44  14  45  14
M  END
>  <minimizedAffinity>  (1) 
-5.87135077

>  <minimizedRMSD>  (1) 
1.44628274

$$$$
