
     RDKit          3D

 37 39  0  0  0  0  0  0  0  0999 V2000
   44.4280   35.1570   42.8640 C   0  0  0  0  0  0  0  0  0  0  0  0
   43.5750   34.5120   42.0010 C   0  0  0  0  0  0  0  0  0  0  0  0
   43.5500   33.0820   41.9870 C   0  0  0  0  0  0  0  0  0  0  0  0
   44.3830   32.4120   42.8380 N   0  0  0  0  0  0  0  0  0  0  0  0
   45.2090   33.0880   43.6710 C   0  0  0  0  0  0  0  0  0  0  0  0
   45.2430   34.4720   43.6970 N   0  0  0  0  0  0  0  0  0  0  0  0
   44.4210   36.5950   42.8720 N   0  0  0  0  0  0  0  0  0  0  0  0
   42.7470   35.2720   41.0880 C   0  0  0  0  0  0  0  0  0  0  0  0
   41.2360   35.2780   41.5220 C   0  0  0  0  0  0  0  0  0  0  0  0
   40.7150   36.0910   40.3120 C   0  0  0  0  0  0  0  0  0  0  0  0
   41.4020   35.4140   39.1670 C   0  0  0  0  0  0  0  0  0  0  0  0
   42.7320   34.9060   39.7160 C   0  0  0  0  0  0  0  0  0  0  0  0
   46.1340   32.3800   44.5960 C   0  0  0  0  0  0  0  0  0  0  0  0
   46.6520   33.2600   45.6960 C   0  0  0  0  0  0  0  0  0  0  0  0
   46.5090   32.5350   46.9840 C   0  0  0  0  0  0  0  0  0  0  0  0
   45.2500   32.5850   47.7150 C   0  0  0  0  0  0  0  0  0  0  0  0
   45.5950   31.5370   49.2260 S   0  0  0  0  0  0  0  0  0  0  0  0
   47.3550   31.2370   48.5830 C   0  0  0  0  0  0  0  0  0  0  0  0
   47.4100   31.8010   47.6140 N   0  0  0  0  0  0  0  0  0  0  0  0
   42.8778   32.5359   41.3089 H   0  0  0  0  0  0  0  0  0  0  0  0
   43.7974   37.1105   42.2346 H   0  0  0  0  0  0  0  0  0  0  0  0
   45.0395   37.1094   43.5152 H   0  0  0  0  0  0  0  0  0  0  0  0
   43.2483   36.2483   41.1627 H   0  0  0  0  0  0  0  0  0  0  0  0
   40.8050   34.2671   41.5705 H   0  0  0  0  0  0  0  0  0  0  0  0
   41.0060   35.6708   42.5234 H   0  0  0  0  0  0  0  0  0  0  0  0
   39.6211   36.0181   40.2220 H   0  0  0  0  0  0  0  0  0  0  0  0
   40.9207   37.1695   40.3792 H   0  0  0  0  0  0  0  0  0  0  0  0
   41.5742   36.1281   38.3482 H   0  0  0  0  0  0  0  0  0  0  0  0
   40.7936   34.5926   38.7606 H   0  0  0  0  0  0  0  0  0  0  0  0
   42.7982   33.8131   39.6100 H   0  0  0  0  0  0  0  0  0  0  0  0
   43.5861   35.3357   39.1721 H   0  0  0  0  0  0  0  0  0  0  0  0
   45.5970   31.5332   45.0483 H   0  0  0  0  0  0  0  0  0  0  0  0
   47.0003   32.0488   44.0046 H   0  0  0  0  0  0  0  0  0  0  0  0
   47.7119   33.4933   45.5169 H   0  0  0  0  0  0  0  0  0  0  0  0
   46.0825   34.2006   45.7269 H   0  0  0  0  0  0  0  0  0  0  0  0
   44.3224   33.1108   47.4445 H   0  0  0  0  0  0  0  0  0  0  0  0
   48.1485   30.6404   49.0567 H   0  0  0  0  0  0  0  0  0  0  0  0
  1  7  1  0
  1  6  2  0
  2  1  1  0
  3  2  2  0
  3  4  1  0
  4  5  2  0
  5  6  1  0
  5 13  1  0
  8  9  1  0
  8  2  1  0
 10  9  1  0
 11 12  1  0
 11 10  1  0
 12  8  1  0
 13 14  1  0
 14 15  1  0
 15 19  1  0
 15 16  2  0
 16 17  1  0
 18 17  1  0
 19 18  2  0
  3 20  1  0
  7 21  1  0
  7 22  1  0
  8 23  1  0
  9 24  1  0
  9 25  1  0
 10 26  1  0
 10 27  1  0
 11 28  1  0
 11 29  1  0
 12 30  1  0
 12 31  1  0
 13 32  1  0
 13 33  1  0
 14 34  1  0
 14 35  1  0
 16 36  1  0
 18 37  1  0
M  ISO  8  20  14  23  13  24  13  25  13  26  13  27  13  28  13  29  13
M  ISO  8  30  13  31  13  32   8  33   8  34   8  35   8  36  14  37  14
M  END
>  <minimizedAffinity>  (1) 
-5.34247398

>  <minimizedRMSD>  (1) 
1.32821417

$$$$
