
     RDKit          3D

 38 39  0  0  0  0  0  0  0  0999 V2000
   44.6830   35.4460   42.7950 C   0  0  0  0  0  0  0  0  0  0  0  0
   43.7640   34.7470   42.0550 C   0  0  0  0  0  0  0  0  0  0  0  0
   43.8110   33.3100   42.0470 C   0  0  0  0  0  0  0  0  0  0  0  0
   44.7720   32.6980   42.7760 N   0  0  0  0  0  0  0  0  0  0  0  0
   45.6740   33.4370   43.5010 C   0  0  0  0  0  0  0  0  0  0  0  0
   45.6380   34.8230   43.5180 N   0  0  0  0  0  0  0  0  0  0  0  0
   44.5960   36.8720   42.8020 N   0  0  0  0  0  0  0  0  0  0  0  0
   42.7890   35.4480   41.2500 C   0  0  0  0  0  0  0  0  0  0  0  0
   41.3430   35.3550   41.8490 C   0  0  0  0  0  0  0  0  0  0  0  0
   40.6110   36.0980   40.7180 C   0  0  0  0  0  0  0  0  0  0  0  0
   41.2200   35.4880   39.4950 C   0  0  0  0  0  0  0  0  0  0  0  0
   42.6420   35.0920   39.8840 C   0  0  0  0  0  0  0  0  0  0  0  0
   46.7500   32.7980   44.3000 C   0  0  0  0  0  0  0  0  0  0  0  0
   46.6210   33.0310   45.7740 C   0  0  0  0  0  0  0  0  0  0  0  0
   45.6760   32.1210   46.4000 N   0  0  0  0  0  0  0  0  0  0  0  0
   45.5210   32.1020   47.8110 C   0  0  0  0  0  0  0  0  0  0  0  0
   46.6020   32.1310   48.5370 N   0  0  0  0  0  0  0  0  0  0  0  0
   44.2480   32.0490   48.4350 N   0  0  0  0  0  0  0  0  0  0  0  0
   46.6400   32.1210   49.5550 H   0  0  0  0  0  0  0  0  0  0  0  0
   43.0852   32.7242   41.4639 H   0  0  0  0  0  0  0  0  0  0  0  0
   43.8670   37.3462   42.2501 H   0  0  0  0  0  0  0  0  0  0  0  0
   45.2622   37.4259   43.3590 H   0  0  0  0  0  0  0  0  0  0  0  0
   43.2335   36.4537   41.2799 H   0  0  0  0  0  0  0  0  0  0  0  0
   41.0005   34.3153   41.9577 H   0  0  0  0  0  0  0  0  0  0  0  0
   41.2083   35.7566   42.8642 H   0  0  0  0  0  0  0  0  0  0  0  0
   39.5269   35.9159   40.7572 H   0  0  0  0  0  0  0  0  0  0  0  0
   40.7174   37.1918   40.7663 H   0  0  0  0  0  0  0  0  0  0  0  0
   41.2383   36.2183   38.6726 H   0  0  0  0  0  0  0  0  0  0  0  0
   40.6412   34.6194   39.1479 H   0  0  0  0  0  0  0  0  0  0  0  0
   42.7861   34.0093   39.7538 H   0  0  0  0  0  0  0  0  0  0  0  0
   43.3874   35.5990   39.2537 H   0  0  0  0  0  0  0  0  0  0  0  0
   46.7230   31.7139   44.1156 H   0  0  0  0  0  0  0  0  0  0  0  0
   47.7003   33.2526   43.9834 H   0  0  0  0  0  0  0  0  0  0  0  0
   47.6072   32.8918   46.2409 H   0  0  0  0  0  0  0  0  0  0  0  0
   46.2460   34.0549   45.9194 H   0  0  0  0  0  0  0  0  0  0  0  0
   45.1147   31.4853   45.8155 H   0  0  0  0  0  0  0  0  0  0  0  0
   44.1783   32.0368   49.4626 H   0  0  0  0  0  0  0  0  0  0  0  0
   43.3935   32.0228   47.8605 H   0  0  0  0  0  0  0  0  0  0  0  0
  1  7  1  0
  1  6  2  0
  2  1  1  0
  3  2  2  0
  3  4  1  0
  4  5  2  0
  5  6  1  0
  5 13  1  0
  8  9  1  0
  8  2  1  0
 10  9  1  0
 11 12  1  0
 11 10  1  0
 12  8  1  0
 13 14  1  0
 14 15  1  0
 15 16  1  0
 16 18  1  0
 16 17  2  0
 17 19  1  0
  3 20  1  0
  7 21  1  0
  7 22  1  0
  8 23  1  0
  9 24  1  0
  9 25  1  0
 10 26  1  0
 10 27  1  0
 11 28  1  0
 11 29  1  0
 12 30  1  0
 12 31  1  0
 13 32  1  0
 13 33  1  0
 14 34  1  0
 14 35  1  0
 15 36  1  0
 18 37  1  0
 18 38  1  0
M  ISO  8  20  14  23  13  24  13  25  13  26  13  27  13  28  13  29  13
M  ISO  6  30  13  31  13  32   8  33   8  34   8  35   8
M  END
>  <minimizedAffinity>  (1) 
-5.5001812

>  <minimizedRMSD>  (1) 
0.668801308

$$$$
