
     RDKit          3D

 38 40  0  0  0  0  0  0  0  0999 V2000
   44.7500   35.4480   43.0770 C   0  0  0  0  0  0  0  0  0  0  0  0
   43.9350   34.6930   42.2680 C   0  0  0  0  0  0  0  0  0  0  0  0
   44.0080   33.2660   42.3350 C   0  0  0  0  0  0  0  0  0  0  0  0
   44.9040   32.7220   43.2120 N   0  0  0  0  0  0  0  0  0  0  0  0
   45.6910   33.5010   43.9890 C   0  0  0  0  0  0  0  0  0  0  0  0
   45.6260   34.8700   43.9340 N   0  0  0  0  0  0  0  0  0  0  0  0
   44.6450   36.8770   43.0100 N   0  0  0  0  0  0  0  0  0  0  0  0
   43.0480   35.3390   41.3250 C   0  0  0  0  0  0  0  0  0  0  0  0
   41.5500   35.2940   41.7860 C   0  0  0  0  0  0  0  0  0  0  0  0
   40.9770   36.0070   40.5250 C   0  0  0  0  0  0  0  0  0  0  0  0
   41.6550   35.2690   39.4270 C   0  0  0  0  0  0  0  0  0  0  0  0
   43.0380   34.8840   39.9790 C   0  0  0  0  0  0  0  0  0  0  0  0
   46.6790   32.8990   44.9250 C   0  0  0  0  0  0  0  0  0  0  0  0
   46.3740   33.2090   46.3660 C   0  0  0  0  0  0  0  0  0  0  0  0
   46.7650   31.9850   47.1730 C   0  0  0  0  0  0  0  0  0  0  0  0
   47.7260   32.0880   48.2880 C   0  0  0  0  0  0  0  0  0  0  0  0
   46.2790   32.0400   48.6100 C   0  0  0  0  0  0  0  0  0  0  0  0
   43.3677   32.6310   41.7050 H   0  0  0  0  0  0  0  0  0  0  0  0
   43.9785   37.3144   42.3578 H   0  0  0  0  0  0  0  0  0  0  0  0
   45.2361   37.4657   43.6140 H   0  0  0  0  0  0  0  0  0  0  0  0
   43.4903   36.3461   41.3269 H   0  0  0  0  0  0  0  0  0  0  0  0
   41.1713   34.2680   41.9042 H   0  0  0  0  0  0  0  0  0  0  0  0
   41.3107   35.7330   42.7658 H   0  0  0  0  0  0  0  0  0  0  0  0
   39.8839   35.8991   40.4654 H   0  0  0  0  0  0  0  0  0  0  0  0
   41.1522   37.0928   40.5078 H   0  0  0  0  0  0  0  0  0  0  0  0
   41.7608   35.9117   38.5406 H   0  0  0  0  0  0  0  0  0  0  0  0
   41.0803   34.3841   39.1162 H   0  0  0  0  0  0  0  0  0  0  0  0
   43.1777   33.7936   39.9405 H   0  0  0  0  0  0  0  0  0  0  0  0
   43.8522   35.3317   39.3902 H   0  0  0  0  0  0  0  0  0  0  0  0
   46.6722   31.8073   44.7903 H   0  0  0  0  0  0  0  0  0  0  0  0
   47.6640   33.3301   44.6926 H   0  0  0  0  0  0  0  0  0  0  0  0
   46.9563   34.0817   46.6965 H   0  0  0  0  0  0  0  0  0  0  0  0
   45.3081   33.4451   46.5006 H   0  0  0  0  0  0  0  0  0  0  0  0
   46.7107   31.3094   46.3066 H   0  0  0  0  0  0  0  0  0  0  0  0
   48.3682   31.2298   48.5352 H   0  0  0  0  0  0  0  0  0  0  0  0
   48.5445   32.7804   48.5343 H   0  0  0  0  0  0  0  0  0  0  0  0
   45.7661   32.9374   48.9864 H   0  0  0  0  0  0  0  0  0  0  0  0
   45.6374   31.4120   49.2455 H   0  0  0  0  0  0  0  0  0  0  0  0
  1  6  2  0
  2  3  2  0
  2  1  1  0
  3  4  1  0
  4  5  2  0
  5 13  1  0
  6  5  1  0
  7  1  1  0
  8  9  1  0
  8  2  1  0
 10  9  1  0
 11 12  1  0
 11 10  1  0
 12  8  1  0
 13 14  1  0
 14 15  1  0
 15 16  1  0
 15 17  1  0
 16 17  1  0
  3 18  1  0
  7 19  1  0
  7 20  1  0
  8 21  1  0
  9 22  1  0
  9 23  1  0
 10 24  1  0
 10 25  1  0
 11 26  1  0
 11 27  1  0
 12 28  1  0
 12 29  1  0
 13 30  1  0
 13 31  1  0
 14 32  1  0
 14 33  1  0
 15 34  1  0
 16 35  1  0
 16 36  1  0
 17 37  1  0
 17 38  1  0
M  ISO  8  18  14  21  13  22  13  23  13  24  13  25  13  26  13  27  13
M  ISO  8  28  13  29  13  30   8  31   8  32   8  33   8  34  13  35  13
M  ISO  3  36  13  37  13  38  13
M  END
>  <minimizedAffinity>  (1) 
-4.96281528

>  <minimizedRMSD>  (1) 
1.22783065

$$$$
