
     RDKit          3D

 45 47  0  0  0  0  0  0  0  0999 V2000
   44.8910   35.5800   42.7200 C   0  0  0  0  0  0  0  0  0  0  0  0
   44.0290   34.8530   41.9490 C   0  0  0  0  0  0  0  0  0  0  0  0
   44.2250   33.4540   41.8390 C   0  0  0  0  0  0  0  0  0  0  0  0
   45.2710   32.8880   42.5110 N   0  0  0  0  0  0  0  0  0  0  0  0
   46.0990   33.6540   43.2610 C   0  0  0  0  0  0  0  0  0  0  0  0
   45.9250   35.0140   43.3820 N   0  0  0  0  0  0  0  0  0  0  0  0
   44.6630   37.0020   42.8260 N   0  0  0  0  0  0  0  0  0  0  0  0
   42.9550   35.4970   41.2300 C   0  0  0  0  0  0  0  0  0  0  0  0
   41.5520   35.2920   41.9260 C   0  0  0  0  0  0  0  0  0  0  0  0
   40.7260   36.0540   40.8600 C   0  0  0  0  0  0  0  0  0  0  0  0
   41.2600   35.4590   39.5950 C   0  0  0  0  0  0  0  0  0  0  0  0
   42.7320   35.1490   39.8800 C   0  0  0  0  0  0  0  0  0  0  0  0
   47.2470   33.0580   43.9920 C   0  0  0  0  0  0  0  0  0  0  0  0
   46.9180   32.5860   45.3640 C   0  0  0  0  0  0  0  0  0  0  0  0
   46.5760   31.1960   45.4280 N   0  0  0  0  0  0  0  0  0  0  0  0
   46.8980   30.1700   44.6260 C   0  0  0  0  0  0  0  0  0  0  0  0
   46.3160   29.0050   45.1150 C   0  0  0  0  0  0  0  0  0  0  0  0
   45.6460   29.3900   46.2260 N   0  0  0  0  0  0  0  0  0  0  0  0
   45.7930   30.7160   46.4310 C   0  0  0  0  0  0  0  0  0  0  0  0
   45.1830   31.3800   47.5430 N   0  0  0  0  0  0  0  0  0  0  0  0
   45.9070   31.8110   48.6930 C   0  0  0  0  0  0  0  0  0  0  0  0
   47.1610   32.1230   48.4830 N   0  0  0  0  0  0  0  0  0  0  0  0
   45.2590   31.8810   49.9800 N   0  0  0  0  0  0  0  0  0  0  0  0
   47.7690   32.4500   49.2740 H   0  0  0  0  0  0  0  0  0  0  0  0
   43.5503   32.8378   41.2265 H   0  0  0  0  0  0  0  0  0  0  0  0
   43.8761   37.4363   42.3229 H   0  0  0  0  0  0  0  0  0  0  0  0
   45.2872   37.5819   43.4047 H   0  0  0  0  0  0  0  0  0  0  0  0
   43.3347   36.5292   41.2521 H   0  0  0  0  0  0  0  0  0  0  0  0
   41.2682   34.2322   42.0051 H   0  0  0  0  0  0  0  0  0  0  0  0
   41.4563   35.6291   42.9687 H   0  0  0  0  0  0  0  0  0  0  0  0
   39.6488   35.8617   40.9721 H   0  0  0  0  0  0  0  0  0  0  0  0
   40.8178   37.1487   40.9168 H   0  0  0  0  0  0  0  0  0  0  0  0
   41.1715   36.1759   38.7654 H   0  0  0  0  0  0  0  0  0  0  0  0
   40.7023   34.5579   39.3000 H   0  0  0  0  0  0  0  0  0  0  0  0
   42.9332   34.0788   39.7241 H   0  0  0  0  0  0  0  0  0  0  0  0
   43.3968   35.7102   39.2069 H   0  0  0  0  0  0  0  0  0  0  0  0
   47.6175   32.2001   43.4117 H   0  0  0  0  0  0  0  0  0  0  0  0
   47.9982   33.8538   44.1033 H   0  0  0  0  0  0  0  0  0  0  0  0
   47.7917   32.7588   46.0096 H   0  0  0  0  0  0  0  0  0  0  0  0
   46.0337   33.1504   45.6949 H   0  0  0  0  0  0  0  0  0  0  0  0
   47.5236   30.2390   43.7239 H   0  0  0  0  0  0  0  0  0  0  0  0
   46.3852   27.9922   44.6913 H   0  0  0  0  0  0  0  0  0  0  0  0
   44.1686   31.5554   47.5105 H   0  0  0  0  0  0  0  0  0  0  0  0
   45.7881   32.1933   50.8067 H   0  0  0  0  0  0  0  0  0  0  0  0
   44.2672   31.6187   50.0722 H   0  0  0  0  0  0  0  0  0  0  0  0
  1  7  1  0
  1  6  2  0
  2  1  1  0
  3  2  2  0
  3  4  1  0
  4  5  2  0
  5  6  1  0
  5 13  1  0
  8  9  1  0
  8  2  1  0
 10  9  1  0
 11 12  1  0
 11 10  1  0
 12  8  1  0
 13 14  1  0
 14 15  1  0
 15 19  1  0
 16 17  2  0
 16 15  1  0
 17 18  1  0
 18 19  2  0
 19 20  1  0
 20 21  1  0
 21 23  1  0
 22 21  2  0
 22 24  1  0
  3 25  1  0
  7 26  1  0
  7 27  1  0
  8 28  1  0
  9 29  1  0
  9 30  1  0
 10 31  1  0
 10 32  1  0
 11 33  1  0
 11 34  1  0
 12 35  1  0
 12 36  1  0
 13 37  1  0
 13 38  1  0
 14 39  1  0
 14 40  1  0
 16 41  1  0
 17 42  1  0
 20 43  1  0
 23 44  1  0
 23 45  1  0
M  ISO  8  25  14  28  13  29  13  30  13  31  13  32  13  33  13  34  13
M  ISO  8  35  13  36  13  37   8  38   8  39   8  40   8  41  14  42  14
M  END
>  <minimizedAffinity>  (1) 
-6.04925251

>  <minimizedRMSD>  (1) 
1.79349828

$$$$
