
     RDKit          3D

 45 48  0  0  0  0  0  0  0  0999 V2000
   44.5520   35.1740   42.3490 C   0  0  0  0  0  0  0  0  0  0  0  0
   43.6480   34.6290   41.4850 C   0  0  0  0  0  0  0  0  0  0  0  0
   43.7850   33.2590   41.1350 C   0  0  0  0  0  0  0  0  0  0  0  0
   44.8150   32.5500   41.6790 N   0  0  0  0  0  0  0  0  0  0  0  0
   45.6810   33.1360   42.5270 C   0  0  0  0  0  0  0  0  0  0  0  0
   45.5680   34.4600   42.8800 N   0  0  0  0  0  0  0  0  0  0  0  0
   44.3890   36.5630   42.7040 N   0  0  0  0  0  0  0  0  0  0  0  0
   42.5910   35.4290   40.9110 C   0  0  0  0  0  0  0  0  0  0  0  0
   41.2330   35.2970   41.7070 C   0  0  0  0  0  0  0  0  0  0  0  0
   40.3940   36.1940   40.7650 C   0  0  0  0  0  0  0  0  0  0  0  0
   40.7850   35.6880   39.4230 C   0  0  0  0  0  0  0  0  0  0  0  0
   42.2390   35.2310   39.5590 C   0  0  0  0  0  0  0  0  0  0  0  0
   46.8090   32.3670   43.1110 C   0  0  0  0  0  0  0  0  0  0  0  0
   46.6140   31.9890   44.5330 C   0  0  0  0  0  0  0  0  0  0  0  0
   45.9440   30.7270   44.7050 N   0  0  0  0  0  0  0  0  0  0  0  0
   45.6300   29.7450   43.8300 C   0  0  0  0  0  0  0  0  0  0  0  0
   44.9790   28.7290   44.5050 C   0  0  0  0  0  0  0  0  0  0  0  0
   44.9190   29.1360   45.7910 N   0  0  0  0  0  0  0  0  0  0  0  0
   45.4960   30.3390   45.9340 C   0  0  0  0  0  0  0  0  0  0  0  0
   45.5610   30.9850   47.2020 N   0  0  0  0  0  0  0  0  0  0  0  0
   45.6670   32.2620   47.5960 N   0  0  0  0  0  0  0  0  0  0  0  0
   45.6850   32.3130   48.9380 C   0  0  0  0  0  0  0  0  0  0  0  0
   45.5860   31.0070   49.4230 C   0  0  0  0  0  0  0  0  0  0  0  0
   45.5090   30.1920   48.2880 C   0  0  0  0  0  0  0  0  0  0  0  0
   43.0770   32.7815   40.4416 H   0  0  0  0  0  0  0  0  0  0  0  0
   43.6152   37.1102   42.3007 H   0  0  0  0  0  0  0  0  0  0  0  0
   45.0465   37.0073   43.3607 H   0  0  0  0  0  0  0  0  0  0  0  0
   43.0703   36.4165   40.9832 H   0  0  0  0  0  0  0  0  0  0  0  0
   40.8638   34.2615   41.7457 H   0  0  0  0  0  0  0  0  0  0  0  0
   41.2508   35.5720   42.7719 H   0  0  0  0  0  0  0  0  0  0  0  0
   39.3165   36.0622   40.9431 H   0  0  0  0  0  0  0  0  0  0  0  0
   40.5746   37.2704   40.9020 H   0  0  0  0  0  0  0  0  0  0  0  0
   40.7033   36.4883   38.6728 H   0  0  0  0  0  0  0  0  0  0  0  0
   40.1312   34.8674   39.0927 H   0  0  0  0  0  0  0  0  0  0  0  0
   42.3305   34.1675   39.2933 H   0  0  0  0  0  0  0  0  0  0  0  0
   42.9007   35.7965   38.8864 H   0  0  0  0  0  0  0  0  0  0  0  0
   46.9397   31.4461   42.5238 H   0  0  0  0  0  0  0  0  0  0  0  0
   47.6914   33.0228   43.0757 H   0  0  0  0  0  0  0  0  0  0  0  0
   47.6007   31.9279   45.0155 H   0  0  0  0  0  0  0  0  0  0  0  0
   45.9741   32.7596   44.9877 H   0  0  0  0  0  0  0  0  0  0  0  0
   45.8563   29.7532   42.7536 H   0  0  0  0  0  0  0  0  0  0  0  0
   44.5923   27.7892   44.0840 H   0  0  0  0  0  0  0  0  0  0  0  0
   45.7640   33.2245   49.5487 H   0  0  0  0  0  0  0  0  0  0  0  0
   45.5716   30.6866   50.4752 H   0  0  0  0  0  0  0  0  0  0  0  0
   45.4213   29.0955   48.2842 H   0  0  0  0  0  0  0  0  0  0  0  0
  1  7  1  0
  1  6  2  0
  2  1  1  0
  3  2  2  0
  3  4  1  0
  4  5  2  0
  5  6  1  0
  5 13  1  0
  8  2  1  0
  8  9  1  0
 10  9  1  0
 11 12  1  0
 11 10  1  0
 12  8  1  0
 13 14  1  0
 14 15  1  0
 15 19  1  0
 16 17  2  0
 16 15  1  0
 17 18  1  0
 18 19  2  0
 19 20  1  0
 20 21  1  0
 20 24  1  0
 21 22  2  0
 22 23  1  0
 24 23  2  0
  3 25  1  0
  7 26  1  0
  7 27  1  0
  8 28  1  0
  9 29  1  0
  9 30  1  0
 10 31  1  0
 10 32  1  0
 11 33  1  0
 11 34  1  0
 12 35  1  0
 12 36  1  0
 13 37  1  0
 13 38  1  0
 14 39  1  0
 14 40  1  0
 16 41  1  0
 17 42  1  0
 22 43  1  0
 23 44  1  0
 24 45  1  0
M  ISO  8  25  14  28  13  29  13  30  13  31  13  32  13  33  13  34  13
M  ISO  8  35  13  36  13  37   8  38   8  39   8  40   8  41  14  42  14
M  ISO  3  43  14  44  14  45  14
M  END
>  <minimizedAffinity>  (1) 
-5.70905972

>  <minimizedRMSD>  (1) 
2.33703208

$$$$
