
     RDKit          3D

 24 26  0  0  0  0  0  0  0  0999 V2000
   46.8980   32.5540   44.4780 C   0  0  0  0  0  0  0  0  0  0  0  0
   47.6820   31.9980   43.4930 C   0  0  0  0  0  0  0  0  0  0  0  0
   48.2520   30.8380   43.9160 N   0  0  0  0  0  0  0  0  0  0  0  0
   47.8110   30.6810   45.1790 C   0  0  0  0  0  0  0  0  0  0  0  0
   47.0030   31.7110   45.5080 N   0  0  0  0  0  0  0  0  0  0  0  0
   44.6560   35.2910   45.4250 C   0  0  0  0  0  0  0  0  0  0  0  0
   44.6720   36.1220   44.2860 C   0  0  0  0  0  0  0  0  0  0  0  0
   45.4560   35.7200   43.2170 C   0  0  0  0  0  0  0  0  0  0  0  0
   46.1580   34.5570   43.3280 N   0  0  0  0  0  0  0  0  0  0  0  0
   46.1200   33.7760   44.4430 C   0  0  0  0  0  0  0  0  0  0  0  0
   45.3710   34.1540   45.4730 N   0  0  0  0  0  0  0  0  0  0  0  0
   46.4090   31.7780   46.7920 C   0  0  0  0  0  0  0  0  0  0  0  0
   46.9840   32.1840   47.9750 C   0  0  0  0  0  0  0  0  0  0  0  0
   46.0980   32.1060   48.9710 N   0  0  0  0  0  0  0  0  0  0  0  0
   44.9450   31.6490   48.4400 C   0  0  0  0  0  0  0  0  0  0  0  0
   45.1290   31.4490   47.1190 N   0  0  0  0  0  0  0  0  0  0  0  0
   47.8284   32.4348   42.4941 H   0  0  0  0  0  0  0  0  0  0  0  0
   48.0698   29.8416   45.8412 H   0  0  0  0  0  0  0  0  0  0  0  0
   44.0451   35.5795   46.2931 H   0  0  0  0  0  0  0  0  0  0  0  0
   44.0856   37.0519   44.2478 H   0  0  0  0  0  0  0  0  0  0  0  0
   45.5107   36.3252   42.3001 H   0  0  0  0  0  0  0  0  0  0  0  0
   48.0244   32.5240   48.0842 H   0  0  0  0  0  0  0  0  0  0  0  0
   44.0108   31.4695   48.9923 H   0  0  0  0  0  0  0  0  0  0  0  0
   44.4151   31.1026   46.4623 H   0  0  0  0  0  0  0  0  0  0  0  0
  1  5  1  0
  2  3  1  0
  2  1  2  0
  3  4  2  0
  4  5  1  0
  5 12  1  0
  6 11  2  0
  7  6  1  0
  8  9  1  0
  8  7  2  0
  9 10  2  0
 10  1  1  0
 10 11  1  0
 12 16  1  0
 12 13  2  0
 13 14  1  0
 15 14  2  0
 16 15  1  0
  2 17  1  0
  4 18  1  0
  6 19  1  0
  7 20  1  0
  8 21  1  0
 13 22  1  0
 15 23  1  0
 16 24  1  0
M  ISO  8  17  14  18  14  19  14  20  14  21  14  22  14  23  14  24   9
M  END
>  <minimizedAffinity>  (1) 
-4.75377846

>  <minimizedRMSD>  (1) 
3.2414968

$$$$
