
     RDKit          3D

 25 26  0  0  0  0  0  0  0  0999 V2000
   44.5190   35.8640   44.6840 C   0  0  0  0  0  0  0  0  0  0  0  0
   45.1360   35.7960   43.4200 C   0  0  0  0  0  0  0  0  0  0  0  0
   46.0480   34.7770   43.2000 C   0  0  0  0  0  0  0  0  0  0  0  0
   46.3050   33.8880   44.2170 N   0  0  0  0  0  0  0  0  0  0  0  0
   45.6860   33.9940   45.4210 C   0  0  0  0  0  0  0  0  0  0  0  0
   44.7970   34.9820   45.6470 N   0  0  0  0  0  0  0  0  0  0  0  0
   45.9900   33.0250   46.4750 C   0  0  0  0  0  0  0  0  0  0  0  0
   45.2060   32.9580   47.5950 C   0  0  0  0  0  0  0  0  0  0  0  0
   45.5120   32.0320   48.5840 C   0  0  0  0  0  0  0  0  0  0  0  0
   46.5900   31.2280   48.3880 C   0  0  0  0  0  0  0  0  0  0  0  0
   47.3830   31.2830   47.2740 C   0  0  0  0  0  0  0  0  0  0  0  0
   47.0460   32.2020   46.3370 N   0  0  0  0  0  0  0  0  0  0  0  0
   46.7740   34.5860   41.9100 C   0  0  0  0  0  0  0  0  0  0  0  0
   48.1240   35.3240   41.9680 C   0  0  0  0  0  0  0  0  0  0  0  0
   43.7901   36.6634   44.8828 H   0  0  0  0  0  0  0  0  0  0  0  0
   44.9014   36.5281   42.6332 H   0  0  0  0  0  0  0  0  0  0  0  0
   44.3430   33.6302   47.7106 H   0  0  0  0  0  0  0  0  0  0  0  0
   44.9019   31.9521   49.4958 H   0  0  0  0  0  0  0  0  0  0  0  0
   46.8388   30.4928   49.1675 H   0  0  0  0  0  0  0  0  0  0  0  0
   48.2485   30.6162   47.1460 H   0  0  0  0  0  0  0  0  0  0  0  0
   46.1694   34.9914   41.0853 H   0  0  0  0  0  0  0  0  0  0  0  0
   46.9491   33.5130   41.7426 H   0  0  0  0  0  0  0  0  0  0  0  0
   48.4112   35.4810   43.0182 H   0  0  0  0  0  0  0  0  0  0  0  0
   48.8935   34.7211   41.4636 H   0  0  0  0  0  0  0  0  0  0  0  0
   48.0318   36.2972   41.4636 H   0  0  0  0  0  0  0  0  0  0  0  0
  1  6  2  0
  2  1  1  0
  3  2  2  0
  3  4  1  0
  4  5  2  0
  5  6  1  0
  5  7  1  0
  7  8  2  0
  8  9  1  0
 10  9  2  0
 11 10  1  0
 12  7  1  0
 12 11  2  0
 13 14  1  0
 13  3  1  0
  1 15  1  0
  2 16  1  0
  8 17  1  0
  9 18  1  0
 10 19  1  0
 11 20  1  0
 13 21  1  0
 13 22  1  0
 14 23  1  0
 14 24  1  0
 14 25  1  0
M  ISO  8  15  14  16  14  17  14  18  14  19  14  20  14  21   8  22   8
M  ISO  3  23   8  24   8  25   8
M  END
>  <minimizedAffinity>  (1) 
-5.01105213

>  <minimizedRMSD>  (1) 
0.358450085

$$$$
