
     RDKit          3D

 24 25  0  0  0  0  0  0  0  0999 V2000
   44.5130   35.9740   44.5230 C   0  0  0  0  0  0  0  0  0  0  0  0
   45.1330   35.9260   43.2740 C   0  0  0  0  0  0  0  0  0  0  0  0
   46.0510   34.9120   43.0370 C   0  0  0  0  0  0  0  0  0  0  0  0
   46.3110   34.0040   44.0340 N   0  0  0  0  0  0  0  0  0  0  0  0
   45.6800   34.0920   45.2350 C   0  0  0  0  0  0  0  0  0  0  0  0
   44.7900   35.0670   45.4770 N   0  0  0  0  0  0  0  0  0  0  0  0
   45.9530   33.1290   46.2950 C   0  0  0  0  0  0  0  0  0  0  0  0
   46.9790   32.2160   46.2250 C   0  0  0  0  0  0  0  0  0  0  0  0
   47.2490   31.2890   47.2350 C   0  0  0  0  0  0  0  0  0  0  0  0
   46.4460   31.3150   48.3200 N   0  0  0  0  0  0  0  0  0  0  0  0
   45.4330   32.2010   48.4130 C   0  0  0  0  0  0  0  0  0  0  0  0
   45.2350   33.0580   47.4070 N   0  0  0  0  0  0  0  0  0  0  0  0
   46.7840   34.7510   41.7430 C   0  0  0  0  0  0  0  0  0  0  0  0
   48.1950   35.3220   41.8620 C   0  0  0  0  0  0  0  0  0  0  0  0
   43.7828   36.7697   44.7318 H   0  0  0  0  0  0  0  0  0  0  0  0
   44.9008   36.6709   42.4986 H   0  0  0  0  0  0  0  0  0  0  0  0
   47.6185   32.2155   45.3300 H   0  0  0  0  0  0  0  0  0  0  0  0
   48.0779   30.5709   47.1500 H   0  0  0  0  0  0  0  0  0  0  0  0
   44.7825   32.2177   49.2999 H   0  0  0  0  0  0  0  0  0  0  0  0
   46.2415   35.2853   40.9491 H   0  0  0  0  0  0  0  0  0  0  0  0
   46.8493   33.6806   41.4981 H   0  0  0  0  0  0  0  0  0  0  0  0
   48.4589   35.4288   42.9245 H   0  0  0  0  0  0  0  0  0  0  0  0
   48.9082   34.6417   41.3736 H   0  0  0  0  0  0  0  0  0  0  0  0
   48.2344   36.3068   41.3736 H   0  0  0  0  0  0  0  0  0  0  0  0
  1  6  2  0
  2  1  1  0
  3  2  2  0
  3  4  1  0
  4  5  2  0
  5  6  1  0
  5  7  1  0
  7 12  1  0
  8  7  2  0
  8  9  1  0
  9 10  2  0
 10 11  1  0
 12 11  2  0
 13 14  1  0
 13  3  1  0
  1 15  1  0
  2 16  1  0
  8 17  1  0
  9 18  1  0
 11 19  1  0
 13 20  1  0
 13 21  1  0
 14 22  1  0
 14 23  1  0
 14 24  1  0
M  ISO  8  15  14  16  14  17  14  18  14  19  14  20   8  21   8  22   8
M  ISO  2  23   8  24   8
M  END
>  <minimizedAffinity>  (1) 
-4.93144798

>  <minimizedRMSD>  (1) 
0.214058176

$$$$
