
     RDKit          3D

 32 33  0  0  0  0  0  0  0  0999 V2000
   44.5900   35.9220   44.8110 C   0  0  0  0  0  0  0  0  0  0  0  0
   45.1770   35.9540   43.5490 C   0  0  0  0  0  0  0  0  0  0  0  0
   45.9850   34.8600   43.1990 C   0  0  0  0  0  0  0  0  0  0  0  0
   46.1570   33.8350   44.0890 N   0  0  0  0  0  0  0  0  0  0  0  0
   45.5530   33.8680   45.3090 C   0  0  0  0  0  0  0  0  0  0  0  0
   44.7830   34.9020   45.6500 N   0  0  0  0  0  0  0  0  0  0  0  0
   45.7150   32.7720   46.3040 C   0  0  0  0  0  0  0  0  0  0  0  0
   45.0680   33.1230   47.6250 C   0  0  0  0  0  0  0  0  0  0  0  0
   45.1440   31.8640   48.4880 C   0  0  0  0  0  0  0  0  0  0  0  0
   46.5860   31.5940   48.8500 C   0  0  0  0  0  0  0  0  0  0  0  0
   47.5480   32.3600   47.9920 C   0  0  0  0  0  0  0  0  0  0  0  0
   47.1460   32.4190   46.5390 C   0  0  0  0  0  0  0  0  0  0  0  0
   46.6840   34.7630   41.8600 C   0  0  0  0  0  0  0  0  0  0  0  0
   48.1230   35.2770   42.0070 C   0  0  0  0  0  0  0  0  0  0  0  0
   43.9500   36.7597   45.1251 H   0  0  0  0  0  0  0  0  0  0  0  0
   45.0157   36.7956   42.8593 H   0  0  0  0  0  0  0  0  0  0  0  0
   45.2099   31.8966   45.8699 H   0  0  0  0  0  0  0  0  0  0  0  0
   45.6112   33.9489   48.1076 H   0  0  0  0  0  0  0  0  0  0  0  0
   44.0270   33.4500   47.4858 H   0  0  0  0  0  0  0  0  0  0  0  0
   44.5560   32.0114   49.4059 H   0  0  0  0  0  0  0  0  0  0  0  0
   44.7377   31.0084   47.9287 H   0  0  0  0  0  0  0  0  0  0  0  0
   46.7453   31.8801   49.9001 H   0  0  0  0  0  0  0  0  0  0  0  0
   46.7754   30.5225   48.6888 H   0  0  0  0  0  0  0  0  0  0  0  0
   47.6143   33.3884   48.3766 H   0  0  0  0  0  0  0  0  0  0  0  0
   48.5124   31.8331   48.0389 H   0  0  0  0  0  0  0  0  0  0  0  0
   47.3340   31.4323   46.0907 H   0  0  0  0  0  0  0  0  0  0  0  0
   47.7440   33.2215   46.0825 H   0  0  0  0  0  0  0  0  0  0  0  0
   46.1481   35.3748   41.1194 H   0  0  0  0  0  0  0  0  0  0  0  0
   46.6968   33.7159   41.5233 H   0  0  0  0  0  0  0  0  0  0  0  0
   48.3732   35.3664   43.0744 H   0  0  0  0  0  0  0  0  0  0  0  0
   48.8156   34.5707   41.5259 H   0  0  0  0  0  0  0  0  0  0  0  0
   48.2114   36.2623   41.5259 H   0  0  0  0  0  0  0  0  0  0  0  0
  1  6  2  0
  2  1  1  0
  3  2  2  0
  3  4  1  0
  4  5  2  0
  5  6  1  0
  5  7  1  0
  7 12  1  0
  7  8  1  0
  8  9  1  0
  9 10  1  0
 11 10  1  0
 12 11  1  0
 13 14  1  0
 13  3  1  0
  1 15  1  0
  2 16  1  0
  7 17  1  0
  8 18  1  0
  8 19  1  0
  9 20  1  0
  9 21  1  0
 10 22  1  0
 10 23  1  0
 11 24  1  0
 11 25  1  0
 12 26  1  0
 12 27  1  0
 13 28  1  0
 13 29  1  0
 14 30  1  0
 14 31  1  0
 14 32  1  0
M  ISO  8  15  14  16  14  17  13  18  13  19  13  20  13  21  13  22  13
M  ISO  8  23  13  24  13  25  13  26  13  27  13  28   8  29   8  30   8
M  ISO  2  31   8  32   8
M  END
>  <minimizedAffinity>  (1) 
-5.07503939

>  <minimizedRMSD>  (1) 
0.717863798

$$$$
