
     RDKit          3D

 26 27  0  0  0  0  0  0  0  0999 V2000
   44.5300   35.9130   44.6000 C   0  0  0  0  0  0  0  0  0  0  0  0
   45.1550   35.8590   43.3500 C   0  0  0  0  0  0  0  0  0  0  0  0
   46.0730   34.8380   43.1300 C   0  0  0  0  0  0  0  0  0  0  0  0
   46.3260   33.9330   44.1410 N   0  0  0  0  0  0  0  0  0  0  0  0
   45.7000   34.0260   45.3260 C   0  0  0  0  0  0  0  0  0  0  0  0
   44.8100   35.0040   45.5610 N   0  0  0  0  0  0  0  0  0  0  0  0
   45.9900   33.0530   46.3720 C   0  0  0  0  0  0  0  0  0  0  0  0
   45.2220   33.0040   47.5170 C   0  0  0  0  0  0  0  0  0  0  0  0
   45.4510   32.1150   48.5260 C   0  0  0  0  0  0  0  0  0  0  0  0
   46.4830   31.2100   48.4340 C   0  0  0  0  0  0  0  0  0  0  0  0
   47.2590   31.2600   47.2750 C   0  0  0  0  0  0  0  0  0  0  0  0
   47.0280   32.1610   46.2530 C   0  0  0  0  0  0  0  0  0  0  0  0
   46.8300   34.6450   41.8350 C   0  0  0  0  0  0  0  0  0  0  0  0
   48.1870   35.3350   41.9290 C   0  0  0  0  0  0  0  0  0  0  0  0
   43.7983   36.7084   44.8048 H   0  0  0  0  0  0  0  0  0  0  0  0
   44.9282   36.5986   42.5680 H   0  0  0  0  0  0  0  0  0  0  0  0
   44.3878   33.7134   47.6210 H   0  0  0  0  0  0  0  0  0  0  0  0
   44.8071   32.1218   49.4178 H   0  0  0  0  0  0  0  0  0  0  0  0
   46.6865   30.4831   49.2341 H   0  0  0  0  0  0  0  0  0  0  0  0
   48.0925   30.5498   47.1703 H   0  0  0  0  0  0  0  0  0  0  0  0
   47.6661   32.1639   45.3570 H   0  0  0  0  0  0  0  0  0  0  0  0
   46.2540   35.0812   41.0056 H   0  0  0  0  0  0  0  0  0  0  0  0
   46.9780   33.5700   41.6546 H   0  0  0  0  0  0  0  0  0  0  0  0
   48.4562   35.4719   42.9867 H   0  0  0  0  0  0  0  0  0  0  0  0
   48.9488   34.7148   41.4340 H   0  0  0  0  0  0  0  0  0  0  0  0
   48.1346   36.3160   41.4340 H   0  0  0  0  0  0  0  0  0  0  0  0
  1  6  2  0
  2  1  1  0
  3  2  2  0
  3  4  1  0
  4  5  2  0
  5  6  1  0
  5  7  1  0
  7  8  2  0
  8  9  1  0
 10  9  2  0
 11 10  1  0
 12  7  1  0
 12 11  2  0
 13 14  1  0
 13  3  1  0
  1 15  1  0
  2 16  1  0
  8 17  1  0
  9 18  1  0
 10 19  1  0
 11 20  1  0
 12 21  1  0
 13 22  1  0
 13 23  1  0
 14 24  1  0
 14 25  1  0
 14 26  1  0
M  ISO  8  15  14  16  14  17  14  18  14  19  14  20  14  21  14  22   8
M  ISO  4  23   8  24   8  25   8  26   8
M  END
>  <minimizedAffinity>  (1) 
-5.13299561

>  <minimizedRMSD>  (1) 
0.271484166

$$$$
