
     RDKit          3D

 28 29  0  0  0  0  0  0  0  0999 V2000
   44.5350   35.9800   44.5680 C   0  0  0  0  0  0  0  0  0  0  0  0
   45.1670   35.8840   43.3180 C   0  0  0  0  0  0  0  0  0  0  0  0
   46.0570   34.8380   43.1300 C   0  0  0  0  0  0  0  0  0  0  0  0
   46.2790   33.9580   44.1570 N   0  0  0  0  0  0  0  0  0  0  0  0
   45.6400   34.0960   45.3500 C   0  0  0  0  0  0  0  0  0  0  0  0
   44.7840   35.0940   45.5430 N   0  0  0  0  0  0  0  0  0  0  0  0
   45.9040   33.1560   46.3850 N   0  0  0  0  0  0  0  0  0  0  0  0
   45.1070   32.9690   47.5810 C   0  0  0  0  0  0  0  0  0  0  0  0
   45.9850   32.2270   48.5640 C   0  0  0  0  0  0  0  0  0  0  0  0
   47.3580   32.3790   47.9430 C   0  0  0  0  0  0  0  0  0  0  0  0
   47.0000   32.2090   46.4610 C   0  0  0  0  0  0  0  0  0  0  0  0
   46.7990   34.6210   41.8410 C   0  0  0  0  0  0  0  0  0  0  0  0
   48.1560   35.3110   41.8950 C   0  0  0  0  0  0  0  0  0  0  0  0
   43.8221   36.7975   44.7509 H   0  0  0  0  0  0  0  0  0  0  0  0
   44.9636   36.6112   42.5182 H   0  0  0  0  0  0  0  0  0  0  0  0
   44.8089   33.9430   47.9963 H   0  0  0  0  0  0  0  0  0  0  0  0
   44.1862   32.4076   47.3643 H   0  0  0  0  0  0  0  0  0  0  0  0
   45.9451   32.6883   49.5618 H   0  0  0  0  0  0  0  0  0  0  0  0
   45.6849   31.1806   48.7223 H   0  0  0  0  0  0  0  0  0  0  0  0
   47.7912   33.3692   48.1474 H   0  0  0  0  0  0  0  0  0  0  0  0
   48.1172   31.6778   48.3197 H   0  0  0  0  0  0  0  0  0  0  0  0
   46.6764   31.1835   46.2294 H   0  0  0  0  0  0  0  0  0  0  0  0
   47.8235   32.3790   45.7518 H   0  0  0  0  0  0  0  0  0  0  0  0
   46.2121   35.0373   41.0090 H   0  0  0  0  0  0  0  0  0  0  0  0
   46.9498   33.5419   41.6899 H   0  0  0  0  0  0  0  0  0  0  0  0
   48.4499   35.4604   42.9444 H   0  0  0  0  0  0  0  0  0  0  0  0
   48.9061   34.6848   41.3898 H   0  0  0  0  0  0  0  0  0  0  0  0
   48.0919   36.2860   41.3898 H   0  0  0  0  0  0  0  0  0  0  0  0
  1  6  2  0
  2  1  1  0
  3  2  2  0
  3  4  1  0
  4  5  2  0
  5  6  1  0
  5  7  1  0
  7 11  1  0
  7  8  1  0
  8  9  1  0
 10  9  1  0
 11 10  1  0
 12 13  1  0
 12  3  1  0
  1 14  1  0
  2 15  1  0
  8 16  1  0
  8 17  1  0
  9 18  1  0
  9 19  1  0
 10 20  1  0
 10 21  1  0
 11 22  1  0
 11 23  1  0
 12 24  1  0
 12 25  1  0
 13 26  1  0
 13 27  1  0
 13 28  1  0
M  ISO  8  14  14  15  14  16  13  17  13  18  13  19  13  20  13  21  13
M  ISO  7  22  13  23  13  24   8  25   8  26   8  27   8  28   8
M  END
>  <minimizedAffinity>  (1) 
-5.1071229

>  <minimizedRMSD>  (1) 
0.228686109

$$$$
