
     RDKit          3D

 25 27  0  0  0  0  0  0  0  0999 V2000
   46.9400   32.5070   44.2890 C   0  0  0  0  0  0  0  0  0  0  0  0
   47.6550   32.0400   43.1980 C   0  0  0  0  0  0  0  0  0  0  0  0
   48.2880   30.8740   43.4960 N   0  0  0  0  0  0  0  0  0  0  0  0
   47.9530   30.6270   44.7930 C   0  0  0  0  0  0  0  0  0  0  0  0
   47.1540   31.6060   45.2500 N   0  0  0  0  0  0  0  0  0  0  0  0
   44.6990   35.0880   45.5950 C   0  0  0  0  0  0  0  0  0  0  0  0
   44.6090   36.0070   44.5260 C   0  0  0  0  0  0  0  0  0  0  0  0
   45.3270   35.7120   43.3780 C   0  0  0  0  0  0  0  0  0  0  0  0
   46.0730   34.5740   43.3260 N   0  0  0  0  0  0  0  0  0  0  0  0
   46.1400   33.7070   44.3750 C   0  0  0  0  0  0  0  0  0  0  0  0
   45.4550   33.9670   45.5000 N   0  0  0  0  0  0  0  0  0  0  0  0
   46.6540   31.5950   46.5830 C   0  0  0  0  0  0  0  0  0  0  0  0
   47.0900   32.3060   47.6850 C   0  0  0  0  0  0  0  0  0  0  0  0
   46.4520   32.1390   48.8940 C   0  0  0  0  0  0  0  0  0  0  0  0
   45.4040   31.2870   49.0080 N   0  0  0  0  0  0  0  0  0  0  0  0
   44.9780   30.5900   47.9260 C   0  0  0  0  0  0  0  0  0  0  0  0
   45.5980   30.7480   46.7360 N   0  0  0  0  0  0  0  0  0  0  0  0
   47.7040   32.5447   42.2218 H   0  0  0  0  0  0  0  0  0  0  0  0
   48.2863   29.7572   45.3781 H   0  0  0  0  0  0  0  0  0  0  0  0
   44.1440   35.2862   46.5238 H   0  0  0  0  0  0  0  0  0  0  0  0
   43.9958   36.9171   44.6015 H   0  0  0  0  0  0  0  0  0  0  0  0
   45.2945   36.3926   42.5145 H   0  0  0  0  0  0  0  0  0  0  0  0
   47.9394   32.9994   47.5972 H   0  0  0  0  0  0  0  0  0  0  0  0
   46.7958   32.7017   49.7744 H   0  0  0  0  0  0  0  0  0  0  0  0
   44.1288   29.8968   48.0168 H   0  0  0  0  0  0  0  0  0  0  0  0
  1 10  1  0
  1  5  1  0
  2  3  1  0
  2  1  2  0
  3  4  2  0
  4  5  1  0
  5 12  1  0
  7  6  2  0
  8  7  1  0
  9  8  2  0
  9 10  1  0
 10 11  2  0
 11  6  1  0
 12 17  1  0
 12 13  2  0
 13 14  1  0
 14 15  2  0
 16 15  1  0
 17 16  2  0
  2 18  1  0
  4 19  1  0
  6 20  1  0
  7 21  1  0
  8 22  1  0
 13 23  1  0
 14 24  1  0
 16 25  1  0
M  ISO  8  18  14  19  14  20  14  21  14  22  14  23  14  24  14  25  14
M  END
>  <minimizedAffinity>  (1) 
-4.72730684

>  <minimizedRMSD>  (1) 
3.65772343

$$$$
