
     RDKit          3D

 29 30  0  0  0  0  0  0  0  0999 V2000
   44.6130   35.9260   44.7970 C   0  0  0  0  0  0  0  0  0  0  0  0
   45.2220   35.9500   43.5240 C   0  0  0  0  0  0  0  0  0  0  0  0
   46.0010   34.8470   43.1770 C   0  0  0  0  0  0  0  0  0  0  0  0
   46.1450   33.8100   44.0570 N   0  0  0  0  0  0  0  0  0  0  0  0
   45.5320   33.8450   45.2730 C   0  0  0  0  0  0  0  0  0  0  0  0
   44.7840   34.8890   45.6200 N   0  0  0  0  0  0  0  0  0  0  0  0
   45.6880   32.7150   46.2300 C   0  0  0  0  0  0  0  0  0  0  0  0
   45.1730   33.1580   47.6050 C   0  0  0  0  0  0  0  0  0  0  0  0
   45.9670   32.2270   48.5090 C   0  0  0  0  0  0  0  0  0  0  0  0
   47.3760   32.4600   47.9570 C   0  0  0  0  0  0  0  0  0  0  0  0
   47.1090   32.3180   46.4680 C   0  0  0  0  0  0  0  0  0  0  0  0
   46.7060   34.7510   41.8440 C   0  0  0  0  0  0  0  0  0  0  0  0
   48.1220   35.2970   41.9690 C   0  0  0  0  0  0  0  0  0  0  0  0
   43.9886   36.7738   45.1155 H   0  0  0  0  0  0  0  0  0  0  0  0
   45.0883   36.7992   42.8377 H   0  0  0  0  0  0  0  0  0  0  0  0
   45.1383   31.8725   45.7850 H   0  0  0  0  0  0  0  0  0  0  0  0
   45.4052   34.2144   47.8050 H   0  0  0  0  0  0  0  0  0  0  0  0
   44.0816   33.0972   47.7281 H   0  0  0  0  0  0  0  0  0  0  0  0
   45.8890   32.5199   49.5664 H   0  0  0  0  0  0  0  0  0  0  0  0
   45.6339   31.1787   48.5023 H   0  0  0  0  0  0  0  0  0  0  0  0
   47.7518   33.4625   48.2096 H   0  0  0  0  0  0  0  0  0  0  0  0
   48.1451   31.7813   48.3544 H   0  0  0  0  0  0  0  0  0  0  0  0
   47.2656   31.2750   46.1555 H   0  0  0  0  0  0  0  0  0  0  0  0
   47.7930   32.9548   45.8878 H   0  0  0  0  0  0  0  0  0  0  0  0
   46.1532   35.3375   41.0954 H   0  0  0  0  0  0  0  0  0  0  0  0
   46.7493   33.6974   41.5310 H   0  0  0  0  0  0  0  0  0  0  0  0
   48.3835   35.3978   43.0327 H   0  0  0  0  0  0  0  0  0  0  0  0
   48.8258   34.6058   41.4823 H   0  0  0  0  0  0  0  0  0  0  0  0
   48.1795   36.2818   41.4823 H   0  0  0  0  0  0  0  0  0  0  0  0
  1  6  2  0
  2  1  1  0
  3  2  2  0
  3  4  1  0
  4  5  2  0
  5  6  1  0
  5  7  1  0
  7 11  1  0
  7  8  1  0
  8  9  1  0
 10  9  1  0
 11 10  1  0
 12 13  1  0
 12  3  1  0
  1 14  1  0
  2 15  1  0
  7 16  1  0
  8 17  1  0
  8 18  1  0
  9 19  1  0
  9 20  1  0
 10 21  1  0
 10 22  1  0
 11 23  1  0
 11 24  1  0
 12 25  1  0
 12 26  1  0
 13 27  1  0
 13 28  1  0
 13 29  1  0
M  ISO  8  14  14  15  14  16  13  17  13  18  13  19  13  20  13  21  13
M  ISO  8  22  13  23  13  24  13  25   8  26   8  27   8  28   8  29   8
M  END
>  <minimizedAffinity>  (1) 
-4.65680361

>  <minimizedRMSD>  (1) 
0.38765192

$$$$
