
     RDKit          3D

 22 23  0  0  0  0  0  0  0  0999 V2000
   44.5280   36.0320   44.4920 C   0  0  0  0  0  0  0  0  0  0  0  0
   45.1790   35.9450   43.2600 C   0  0  0  0  0  0  0  0  0  0  0  0
   46.0690   34.9000   43.0610 C   0  0  0  0  0  0  0  0  0  0  0  0
   46.2750   33.9970   44.0720 N   0  0  0  0  0  0  0  0  0  0  0  0
   45.6140   34.1280   45.2550 C   0  0  0  0  0  0  0  0  0  0  0  0
   44.7560   35.1260   45.4630 N   0  0  0  0  0  0  0  0  0  0  0  0
   45.8860   33.1170   46.3000 C   0  0  0  0  0  0  0  0  0  0  0  0
   46.9570   32.1490   46.1450 C   0  0  0  0  0  0  0  0  0  0  0  0
   46.8380   31.2040   47.6540 S   0  0  0  0  0  0  0  0  0  0  0  0
   45.3550   32.2520   48.2860 C   0  0  0  0  0  0  0  0  0  0  0  0
   45.2030   33.0090   47.4270 N   0  0  0  0  0  0  0  0  0  0  0  0
   46.8290   34.7050   41.7740 C   0  0  0  0  0  0  0  0  0  0  0  0
   48.2140   35.3590   41.8980 C   0  0  0  0  0  0  0  0  0  0  0  0
   43.8182   36.8526   44.6728 H   0  0  0  0  0  0  0  0  0  0  0  0
   44.9911   36.6853   42.4684 H   0  0  0  0  0  0  0  0  0  0  0  0
   47.6625   32.0287   45.3096 H   0  0  0  0  0  0  0  0  0  0  0  0
   44.7937   32.1552   49.2270 H   0  0  0  0  0  0  0  0  0  0  0  0
   46.2752   35.1715   40.9459 H   0  0  0  0  0  0  0  0  0  0  0  0
   46.9458   33.6296   41.5744 H   0  0  0  0  0  0  0  0  0  0  0  0
   48.4688   35.4793   42.9613 H   0  0  0  0  0  0  0  0  0  0  0  0
   48.9658   34.7208   41.4107 H   0  0  0  0  0  0  0  0  0  0  0  0
   48.1988   36.3451   41.4107 H   0  0  0  0  0  0  0  0  0  0  0  0
  1  6  2  0
  2  1  1  0
  3  2  2  0
  3  4  1  0
  4  5  2  0
  5  6  1  0
  5  7  1  0
  7 11  1  0
  8  7  2  0
  8  9  1  0
  9 10  1  0
 11 10  2  0
 12 13  1  0
 12  3  1  0
  1 14  1  0
  2 15  1  0
  8 16  1  0
 10 17  1  0
 12 18  1  0
 12 19  1  0
 13 20  1  0
 13 21  1  0
 13 22  1  0
M  ISO  8  14  14  15  14  16  14  17  14  18   8  19   8  20   8  21   8
M  ISO  1  22   8
M  END
>  <minimizedAffinity>  (1) 
-4.65166807

>  <minimizedRMSD>  (1) 
0.465641767

$$$$
