
     RDKit          3D

 34 35  0  0  0  0  0  0  0  0999 V2000
   44.7010   35.7840   44.3700 C   0  0  0  0  0  0  0  0  0  0  0  0
   45.3250   35.9280   43.1300 C   0  0  0  0  0  0  0  0  0  0  0  0
   46.2780   34.9810   42.7500 C   0  0  0  0  0  0  0  0  0  0  0  0
   46.5590   33.9480   43.6130 N   0  0  0  0  0  0  0  0  0  0  0  0
   45.9190   33.8620   44.8050 C   0  0  0  0  0  0  0  0  0  0  0  0
   45.0160   34.7490   45.1800 N   0  0  0  0  0  0  0  0  0  0  0  0
   47.0130   35.0440   41.4300 C   0  0  0  0  0  0  0  0  0  0  0  0
   48.4700   35.4370   41.7080 C   0  0  0  0  0  0  0  0  0  0  0  0
   46.3140   32.7170   45.6250 C   0  0  0  0  0  0  0  0  0  0  0  0
   45.9240   31.5740   45.3230 O   0  0  0  0  0  0  0  0  0  0  0  0
   47.1160   32.9130   46.7280 O   0  0  0  0  0  0  0  0  0  0  0  0
   45.5430   30.0260   49.3030 N   0  0  0  0  0  0  0  0  0  0  0  0
   45.0640   31.3850   49.4100 C   0  0  0  0  0  0  0  0  0  0  0  0
   45.2690   32.1550   48.1190 C   0  0  0  0  0  0  0  0  0  0  0  0
   46.7550   32.3490   47.9670 C   0  0  0  0  0  0  0  0  0  0  0  0
   47.4050   31.0070   48.0950 C   0  0  0  0  0  0  0  0  0  0  0  0
   46.3890   29.8610   48.1600 C   0  0  0  0  0  0  0  0  0  0  0  0
   43.9473   36.5183   44.6904 H   0  0  0  0  0  0  0  0  0  0  0  0
   45.0718   36.7685   42.4671 H   0  0  0  0  0  0  0  0  0  0  0  0
   46.5431   35.7951   40.7781 H   0  0  0  0  0  0  0  0  0  0  0  0
   46.9735   34.0664   40.9272 H   0  0  0  0  0  0  0  0  0  0  0  0
   48.6367   35.4820   42.7944 H   0  0  0  0  0  0  0  0  0  0  0  0
   49.1428   34.6882   41.2645 H   0  0  0  0  0  0  0  0  0  0  0  0
   48.6750   36.4225   41.2645 H   0  0  0  0  0  0  0  0  0  0  0  0
   46.0765   29.7905   50.1520 H   0  0  0  0  0  0  0  0  0  0  0  0
   43.9901   31.3669   49.6477 H   0  0  0  0  0  0  0  0  0  0  0  0
   45.6348   31.8885   50.2041 H   0  0  0  0  0  0  0  0  0  0  0  0
   44.8717   31.5824   47.2680 H   0  0  0  0  0  0  0  0  0  0  0  0
   44.7427   33.1206   48.1443 H   0  0  0  0  0  0  0  0  0  0  0  0
   47.0874   33.0511   48.7458 H   0  0  0  0  0  0  0  0  0  0  0  0
   48.0591   30.8484   47.2249 H   0  0  0  0  0  0  0  0  0  0  0  0
   47.9726   31.0014   49.0372 H   0  0  0  0  0  0  0  0  0  0  0  0
   45.7747   29.8656   47.2475 H   0  0  0  0  0  0  0  0  0  0  0  0
   46.9259   28.9044   48.2411 H   0  0  0  0  0  0  0  0  0  0  0  0
  1  6  2  0
  2  1  1  0
  3  2  2  0
  3  4  1  0
  4  5  2  0
  5  6  1  0
  5  9  1  0
  7  8  1  0
  7  3  1  0
  9 11  1  0
 10  9  2  0
 11 15  1  0
 12 13  1  0
 14 13  1  0
 15 16  1  0
 15 14  1  0
 16 17  1  0
 17 12  1  0
  1 18  1  0
  2 19  1  0
  7 20  1  0
  7 21  1  0
  8 22  1  0
  8 23  1  0
  8 24  1  0
 12 25  1  0
 13 26  1  0
 13 27  1  0
 14 28  1  0
 14 29  1  0
 15 30  1  0
 16 31  1  0
 16 32  1  0
 17 33  1  0
 17 34  1  0
M  ISO  8  18  14  19  14  20   8  21   8  22   8  23   8  24   8  25   5
M  ISO  8  26  13  27  13  28  13  29  13  30  13  31  13  32  13  33  13
M  ISO  1  34  13
M  END
>  <minimizedAffinity>  (1) 
-5.27816772

>  <minimizedRMSD>  (1) 
1.43355727

$$$$
