
     RDKit          3D

 24 25  0  0  0  0  0  0  0  0999 V2000
   44.7600   35.8230   44.1390 C   0  0  0  0  0  0  0  0  0  0  0  0
   45.4670   35.9060   42.9350 C   0  0  0  0  0  0  0  0  0  0  0  0
   46.4080   34.9350   42.6530 C   0  0  0  0  0  0  0  0  0  0  0  0
   46.6170   33.9290   43.5600 N   0  0  0  0  0  0  0  0  0  0  0  0
   45.9110   33.8830   44.7200 C   0  0  0  0  0  0  0  0  0  0  0  0
   44.9980   34.8190   44.9990 N   0  0  0  0  0  0  0  0  0  0  0  0
   47.2390   34.9160   41.3790 C   0  0  0  0  0  0  0  0  0  0  0  0
   48.6220   35.5360   41.6920 C   0  0  0  0  0  0  0  0  0  0  0  0
   46.2230   32.7720   45.5930 C   0  0  0  0  0  0  0  0  0  0  0  0
   45.9250   31.6140   45.2760 O   0  0  0  0  0  0  0  0  0  0  0  0
   46.8700   33.0420   46.8050 O   0  0  0  0  0  0  0  0  0  0  0  0
   46.6280   32.1500   47.8680 C   0  0  0  0  0  0  0  0  0  0  0  0
   47.2020   31.1390   48.5410 N   0  0  0  0  0  0  0  0  0  0  0  0
   46.3610   30.7610   49.4540 O   0  0  0  0  0  0  0  0  0  0  0  0
   45.2560   31.4630   49.4290 C   0  0  0  0  0  0  0  0  0  0  0  0
   45.3970   32.3660   48.4180 N   0  0  0  0  0  0  0  0  0  0  0  0
   44.0046   36.5844   44.3831 H   0  0  0  0  0  0  0  0  0  0  0  0
   45.2777   36.7270   42.2278 H   0  0  0  0  0  0  0  0  0  0  0  0
   46.7357   35.5045   40.5978 H   0  0  0  0  0  0  0  0  0  0  0  0
   47.3590   33.8832   41.0200 H   0  0  0  0  0  0  0  0  0  0  0  0
   48.7583   35.5971   42.7818 H   0  0  0  0  0  0  0  0  0  0  0  0
   49.4128   34.9062   41.2583 H   0  0  0  0  0  0  0  0  0  0  0  0
   48.6780   36.5454   41.2583 H   0  0  0  0  0  0  0  0  0  0  0  0
   44.3863   31.3469   50.0925 H   0  0  0  0  0  0  0  0  0  0  0  0
  1  6  2  0
  2  1  1  0
  3  2  2  0
  3  4  1  0
  4  5  2  0
  5  6  1  0
  5  9  1  0
  7  8  1  0
  7  3  1  0
  9 11  1  0
 10  9  2  0
 11 12  1  0
 12 16  1  0
 12 13  2  0
 13 14  1  0
 15 14  1  0
 16 15  2  0
  1 17  1  0
  2 18  1  0
  7 19  1  0
  7 20  1  0
  8 21  1  0
  8 22  1  0
  8 23  1  0
 15 24  1  0
M  ISO  8  17  14  18  14  19   8  20   8  21   8  22   8  23   8  24  14
M  END
>  <minimizedAffinity>  (1) 
-4.92409039

>  <minimizedRMSD>  (1) 
1.05188787

$$$$
