
     RDKit          3D

 29 30  0  0  0  0  0  0  0  0999 V2000
   44.9970   35.2550   43.1400 C   0  0  0  0  0  0  0  0  0  0  0  0
   45.8830   35.5130   42.0790 C   0  0  0  0  0  0  0  0  0  0  0  0
   47.0980   34.8590   42.0590 C   0  0  0  0  0  0  0  0  0  0  0  0
   47.3840   33.9830   43.0860 N   0  0  0  0  0  0  0  0  0  0  0  0
   46.5100   33.7670   44.0790 C   0  0  0  0  0  0  0  0  0  0  0  0
   45.3360   34.3880   44.1130 N   0  0  0  0  0  0  0  0  0  0  0  0
   48.1210   35.0620   40.9700 C   0  0  0  0  0  0  0  0  0  0  0  0
   49.1860   36.0620   41.4860 C   0  0  0  0  0  0  0  0  0  0  0  0
   46.9400   32.8160   45.0990 C   0  0  0  0  0  0  0  0  0  0  0  0
   47.2110   31.6380   44.7810 O   0  0  0  0  0  0  0  0  0  0  0  0
   47.0400   33.2470   46.4230 O   0  0  0  0  0  0  0  0  0  0  0  0
   46.5940   32.4080   47.4630 C   0  0  0  0  0  0  0  0  0  0  0  0
   45.2330   32.3450   47.6790 C   0  0  0  0  0  0  0  0  0  0  0  0
   44.7630   31.5200   48.7060 C   0  0  0  0  0  0  0  0  0  0  0  0
   45.6540   30.7800   49.4900 C   0  0  0  0  0  0  0  0  0  0  0  0
   47.0120   30.8620   49.2520 C   0  0  0  0  0  0  0  0  0  0  0  0
   47.4690   31.6770   48.2400 C   0  0  0  0  0  0  0  0  0  0  0  0
   44.0224   35.7638   43.1753 H   0  0  0  0  0  0  0  0  0  0  0  0
   45.6133   36.2212   41.2817 H   0  0  0  0  0  0  0  0  0  0  0  0
   47.6330   35.4684   40.0718 H   0  0  0  0  0  0  0  0  0  0  0  0
   48.5943   34.1036   40.7101 H   0  0  0  0  0  0  0  0  0  0  0  0
   49.1862   36.0622   42.5860 H   0  0  0  0  0  0  0  0  0  0  0  0
   50.1787   35.7621   41.1192 H   0  0  0  0  0  0  0  0  0  0  0  0
   48.9492   37.0716   41.1192 H   0  0  0  0  0  0  0  0  0  0  0  0
   44.5356   32.9283   47.0598 H   0  0  0  0  0  0  0  0  0  0  0  0
   43.6822   31.4525   48.8990 H   0  0  0  0  0  0  0  0  0  0  0  0
   45.2738   30.1337   50.2949 H   0  0  0  0  0  0  0  0  0  0  0  0
   47.7201   30.2834   49.8633 H   0  0  0  0  0  0  0  0  0  0  0  0
   48.5499   31.7463   48.0480 H   0  0  0  0  0  0  0  0  0  0  0  0
  1  6  2  0
  2  1  1  0
  3  2  2  0
  3  4  1  0
  4  5  2  0
  5  6  1  0
  5  9  1  0
  7  8  1  0
  7  3  1  0
  9 11  1  0
 10  9  2  0
 11 12  1  0
 12 13  2  0
 12 17  1  0
 13 14  1  0
 14 15  2  0
 16 15  1  0
 17 16  2  0
  1 18  1  0
  2 19  1  0
  7 20  1  0
  7 21  1  0
  8 22  1  0
  8 23  1  0
  8 24  1  0
 13 25  1  0
 14 26  1  0
 15 27  1  0
 16 28  1  0
 17 29  1  0
M  ISO  8  18  14  19  14  20   8  21   8  22   8  23   8  24   8  25  14
M  ISO  4  26  14  27  14  28  14  29  14
M  END
>  <minimizedAffinity>  (1) 
-4.94126225

>  <minimizedRMSD>  (1) 
1.65590739

$$$$
