
     RDKit          3D

 25 25  0  0  0  0  0  0  0  0999 V2000
   44.6400   35.7350   44.7400 C   0  0  0  0  0  0  0  0  0  0  0  0
   45.1960   35.8220   43.4580 C   0  0  0  0  0  0  0  0  0  0  0  0
   46.0950   34.8320   43.0560 C   0  0  0  0  0  0  0  0  0  0  0  0
   46.3900   33.8190   43.9400 N   0  0  0  0  0  0  0  0  0  0  0  0
   45.8340   33.7760   45.1590 C   0  0  0  0  0  0  0  0  0  0  0  0
   44.9700   34.7200   45.5540 N   0  0  0  0  0  0  0  0  0  0  0  0
   46.7410   34.8400   41.7020 C   0  0  0  0  0  0  0  0  0  0  0  0
   48.2120   35.2970   41.8700 C   0  0  0  0  0  0  0  0  0  0  0  0
   46.2270   32.6510   46.0040 C   0  0  0  0  0  0  0  0  0  0  0  0
   45.9340   31.4980   45.6770 O   0  0  0  0  0  0  0  0  0  0  0  0
   46.9290   32.9160   47.1640 O   0  0  0  0  0  0  0  0  0  0  0  0
   46.9740   32.0290   48.2390 C   0  0  0  0  0  0  0  0  0  0  0  0
   45.7480   32.0390   49.1090 C   0  0  0  0  0  0  0  0  0  0  0  0
   43.9294   36.5020   45.0817 H   0  0  0  0  0  0  0  0  0  0  0  0
   44.9311   36.6500   42.7839 H   0  0  0  0  0  0  0  0  0  0  0  0
   46.2078   35.5374   41.0392 H   0  0  0  0  0  0  0  0  0  0  0  0
   46.7039   33.8345   41.2574 H   0  0  0  0  0  0  0  0  0  0  0  0
   48.4527   35.3718   42.9407 H   0  0  0  0  0  0  0  0  0  0  0  0
   48.8803   34.5641   41.3943 H   0  0  0  0  0  0  0  0  0  0  0  0
   48.3473   36.2795   41.3943 H   0  0  0  0  0  0  0  0  0  0  0  0
   47.1035   31.0122   47.8399 H   0  0  0  0  0  0  0  0  0  0  0  0
   47.8111   32.3519   48.8754 H   0  0  0  0  0  0  0  0  0  0  0  0
   46.0491   32.0365   50.1670 H   0  0  0  0  0  0  0  0  0  0  0  0
   45.1562   32.9420   48.8983 H   0  0  0  0  0  0  0  0  0  0  0  0
   45.1416   31.1458   48.8983 H   0  0  0  0  0  0  0  0  0  0  0  0
  1  6  2  0
  2  1  1  0
  3  2  2  0
  3  4  1  0
  4  5  2  0
  5  6  1  0
  5  9  1  0
  7  8  1  0
  7  3  1  0
  9 11  1  0
 10  9  2  0
 11 12  1  0
 12 13  1  0
  1 14  1  0
  2 15  1  0
  7 16  1  0
  7 17  1  0
  8 18  1  0
  8 19  1  0
  8 20  1  0
 12 21  1  0
 12 22  1  0
 13 23  1  0
 13 24  1  0
 13 25  1  0
M  ISO  8  14  14  15  14  16   8  17   8  18   8  19   8  20   8  21   8
M  ISO  4  22   8  23   8  24   8  25   8
M  END
>  <minimizedAffinity>  (1) 
-4.23845863

>  <minimizedRMSD>  (1) 
0.554372072

$$$$
