
     RDKit          3D

 28 28  0  0  0  0  0  0  0  0999 V2000
   44.6420   35.9170   44.5700 C   0  0  0  0  0  0  0  0  0  0  0  0
   45.2490   35.9750   43.3150 C   0  0  0  0  0  0  0  0  0  0  0  0
   46.0720   34.9290   42.9460 C   0  0  0  0  0  0  0  0  0  0  0  0
   46.2650   33.8800   43.8130 N   0  0  0  0  0  0  0  0  0  0  0  0
   45.6640   33.8620   45.0110 C   0  0  0  0  0  0  0  0  0  0  0  0
   44.8660   34.8620   45.3840 N   0  0  0  0  0  0  0  0  0  0  0  0
   46.7810   34.8910   41.6020 C   0  0  0  0  0  0  0  0  0  0  0  0
   48.2520   35.3260   41.8290 C   0  0  0  0  0  0  0  0  0  0  0  0
   45.9370   32.7040   45.8500 C   0  0  0  0  0  0  0  0  0  0  0  0
   46.2220   31.6140   45.3220 O   0  0  0  0  0  0  0  0  0  0  0  0
   45.8690   32.8560   47.2290 O   0  0  0  0  0  0  0  0  0  0  0  0
   46.3390   31.7890   48.0360 C   0  0  0  0  0  0  0  0  0  0  0  0
   47.7880   32.0650   48.4440 C   0  0  0  0  0  0  0  0  0  0  0  0
   45.4660   31.6630   49.2900 C   0  0  0  0  0  0  0  0  0  0  0  0
   43.9797   36.7319   44.8975 H   0  0  0  0  0  0  0  0  0  0  0  0
   45.0775   36.8270   42.6407 H   0  0  0  0  0  0  0  0  0  0  0  0
   46.2905   35.5820   40.9006 H   0  0  0  0  0  0  0  0  0  0  0  0
   46.7416   33.8778   41.1756 H   0  0  0  0  0  0  0  0  0  0  0  0
   48.4542   35.3858   42.9086 H   0  0  0  0  0  0  0  0  0  0  0  0
   48.9273   34.5891   41.3697 H   0  0  0  0  0  0  0  0  0  0  0  0
   48.4179   36.3117   41.3697 H   0  0  0  0  0  0  0  0  0  0  0  0
   46.2883   30.8492   47.4666 H   0  0  0  0  0  0  0  0  0  0  0  0
   47.8636   32.0794   49.5413 H   0  0  0  0  0  0  0  0  0  0  0  0
   48.4390   31.2747   48.0420 H   0  0  0  0  0  0  0  0  0  0  0  0
   48.1029   33.0393   48.0420 H   0  0  0  0  0  0  0  0  0  0  0  0
   46.0968   31.7540   50.1866 H   0  0  0  0  0  0  0  0  0  0  0  0
   44.7091   32.4612   49.2916 H   0  0  0  0  0  0  0  0  0  0  0  0
   44.9657   30.6833   49.2916 H   0  0  0  0  0  0  0  0  0  0  0  0
  1  6  2  0
  2  1  1  0
  3  2  2  0
  3  4  1  0
  4  5  2  0
  5  6  1  0
  5  9  1  0
  7  8  1  0
  7  3  1  0
  9 11  1  0
 10  9  2  0
 11 12  1  0
 12 13  1  0
 12 14  1  0
  1 15  1  0
  2 16  1  0
  7 17  1  0
  7 18  1  0
  8 19  1  0
  8 20  1  0
  8 21  1  0
 12 22  1  0
 13 23  1  0
 13 24  1  0
 13 25  1  0
 14 26  1  0
 14 27  1  0
 14 28  1  0
M  ISO  8  15  14  16  14  17   8  18   8  19   8  20   8  21   8  22   8
M  ISO  6  23   8  24   8  25   8  26   8  27   8  28   8
M  END
>  <minimizedAffinity>  (1) 
-4.53905439

>  <minimizedRMSD>  (1) 
1.15574396

$$$$
