
     RDKit          3D

 27 28  0  0  0  0  0  0  0  0999 V2000
   44.9730   33.7740   41.8160 C   0  0  0  0  0  0  0  0  0  0  0  0
   46.1320   34.3270   41.2720 C   0  0  0  0  0  0  0  0  0  0  0  0
   47.1490   34.7210   42.1270 C   0  0  0  0  0  0  0  0  0  0  0  0
   46.9670   34.5500   43.4860 N   0  0  0  0  0  0  0  0  0  0  0  0
   45.8230   34.0090   43.9650 C   0  0  0  0  0  0  0  0  0  0  0  0
   44.8390   33.6250   43.1550 N   0  0  0  0  0  0  0  0  0  0  0  0
   48.4410   35.3280   41.6490 C   0  0  0  0  0  0  0  0  0  0  0  0
   49.5790   34.8460   42.5790 C   0  0  0  0  0  0  0  0  0  0  0  0
   45.7520   33.8790   45.4160 C   0  0  0  0  0  0  0  0  0  0  0  0
   44.8870   34.4920   46.0600 O   0  0  0  0  0  0  0  0  0  0  0  0
   46.6700   33.0590   46.0630 O   0  0  0  0  0  0  0  0  0  0  0  0
   46.1650   32.1930   47.0270 C   0  0  0  0  0  0  0  0  0  0  0  0
   45.7230   30.9540   46.5470 C   0  0  0  0  0  0  0  0  0  0  0  0
   45.2170   30.0820   47.5040 C   0  0  0  0  0  0  0  0  0  0  0  0
   45.1330   30.3600   48.8350 N   0  0  0  0  0  0  0  0  0  0  0  0
   45.5830   31.5870   49.2310 C   0  0  0  0  0  0  0  0  0  0  0  0
   46.0840   32.4740   48.3500 N   0  0  0  0  0  0  0  0  0  0  0  0
   44.1582   33.4551   41.1494 H   0  0  0  0  0  0  0  0  0  0  0  0
   46.2370   34.4483   40.1838 H   0  0  0  0  0  0  0  0  0  0  0  0
   48.6432   35.0064   40.6167 H   0  0  0  0  0  0  0  0  0  0  0  0
   48.3741   36.4258   41.6704 H   0  0  0  0  0  0  0  0  0  0  0  0
   49.2746   34.9749   43.6281 H   0  0  0  0  0  0  0  0  0  0  0  0
   49.7856   33.7831   42.3851 H   0  0  0  0  0  0  0  0  0  0  0  0
   50.4862   35.4372   42.3851 H   0  0  0  0  0  0  0  0  0  0  0  0
   45.7730   30.6878   45.4809 H   0  0  0  0  0  0  0  0  0  0  0  0
   44.8596   29.0992   47.1629 H   0  0  0  0  0  0  0  0  0  0  0  0
   45.5351   31.8577   50.2961 H   0  0  0  0  0  0  0  0  0  0  0  0
  1  6  2  0
  2  1  1  0
  2  3  2  0
  3  4  1  0
  4  5  2  0
  5  9  1  0
  6  5  1  0
  7  3  1  0
  7  8  1  0
  9 10  2  0
  9 11  1  0
 11 12  1  0
 12 17  1  0
 13 12  2  0
 13 14  1  0
 14 15  2  0
 15 16  1  0
 17 16  2  0
  1 18  1  0
  2 19  1  0
  7 20  1  0
  7 21  1  0
  8 22  1  0
  8 23  1  0
  8 24  1  0
 13 25  1  0
 14 26  1  0
 16 27  1  0
M  ISO  8  18  14  19  14  20   8  21   8  22   8  23   8  24   8  25  14
M  ISO  2  26  14  27  14
M  END
>  <minimizedAffinity>  (1) 
-4.9807086

>  <minimizedRMSD>  (1) 
2.21955609

$$$$
