
     RDKit          3D

 37 39  0  0  0  0  0  0  0  0999 V2000
   46.4020   35.3650   42.4090 O   0  0  0  0  0  0  0  0  0  0  0  0
   46.8620   34.2170   43.0400 C   0  0  0  0  0  0  0  0  0  0  0  0
   47.9080   33.5450   42.3760 C   0  0  0  0  0  0  0  0  0  0  0  0
   48.3640   32.4000   43.0060 C   0  0  0  0  0  0  0  0  0  0  0  0
   47.8850   31.9040   44.1800 N   0  0  0  0  0  0  0  0  0  0  0  0
   46.8770   32.5970   44.7670 C   0  0  0  0  0  0  0  0  0  0  0  0
   46.3790   33.7270   44.2090 N   0  0  0  0  0  0  0  0  0  0  0  0
   46.2850   32.1890   45.9960 N   0  0  0  0  0  0  0  0  0  0  0  0
   46.5000   30.9370   46.4670 C   0  0  0  0  0  0  0  0  0  0  0  0
   45.9310   30.5070   47.6710 C   0  0  0  0  0  0  0  0  0  0  0  0
   45.1600   31.4760   48.2870 C   0  0  0  0  0  0  0  0  0  0  0  0
   44.6260   31.1130   49.3890 O   0  0  0  0  0  0  0  0  0  0  0  0
   44.9180   32.7140   47.8670 N   0  0  0  0  0  0  0  0  0  0  0  0
   45.5090   33.0320   46.7000 C   0  0  0  0  0  0  0  0  0  0  0  0
   45.3310   34.2000   46.2250 O   0  0  0  0  0  0  0  0  0  0  0  0
   45.0760   35.7190   42.6590 C   0  0  0  0  0  0  0  0  0  0  0  0
   44.7800   36.4450   43.6200 O   0  0  0  0  0  0  0  0  0  0  0  0
   41.8280   34.9320   41.1150 C   0  0  0  0  0  0  0  0  0  0  0  0
   42.2340   34.2070   39.9950 C   0  0  0  0  0  0  0  0  0  0  0  0
   43.5930   33.9960   39.7780 C   0  0  0  0  0  0  0  0  0  0  0  0
   44.4630   34.5250   40.6980 N   0  0  0  0  0  0  0  0  0  0  0  0
   44.0380   35.2170   41.7680 C   0  0  0  0  0  0  0  0  0  0  0  0
   42.7480   35.4210   41.9770 N   0  0  0  0  0  0  0  0  0  0  0  0
   44.1420   33.2310   38.6050 C   0  0  0  0  0  0  0  0  0  0  0  0
   45.6440   33.0040   38.8380 C   0  0  0  0  0  0  0  0  0  0  0  0
   48.3311   33.9043   41.4263 H   0  0  0  0  0  0  0  0  0  0  0  0
   49.1796   31.8458   42.5186 H   0  0  0  0  0  0  0  0  0  0  0  0
   47.1337   30.2456   45.8922 H   0  0  0  0  0  0  0  0  0  0  0  0
   46.0818   29.4994   48.0858 H   0  0  0  0  0  0  0  0  0  0  0  0
   44.3272   33.3751   48.3912 H   0  0  0  0  0  0  0  0  0  0  0  0
   40.7574   35.1064   41.2976 H   0  0  0  0  0  0  0  0  0  0  0  0
   41.4893   33.8066   39.2913 H   0  0  0  0  0  0  0  0  0  0  0  0
   43.9920   33.8086   37.6810 H   0  0  0  0  0  0  0  0  0  0  0  0
   43.6236   32.2660   38.5054 H   0  0  0  0  0  0  0  0  0  0  0  0
   45.8469   32.9733   39.9187 H   0  0  0  0  0  0  0  0  0  0  0  0
   45.9459   32.0500   38.3810 H   0  0  0  0  0  0  0  0  0  0  0  0
   46.2143   33.8262   38.3810 H   0  0  0  0  0  0  0  0  0  0  0  0
  1 16  1  0
  1  2  1  0
  2  7  2  0
  3  4  2  0
  3  2  1  0
  4  5  1  0
  5  6  2  0
  6  8  1  0
  7  6  1  0
  8  9  1  0
  8 14  1  0
  9 10  2  0
 10 11  1  0
 11 12  2  0
 13 11  1  0
 14 13  1  0
 15 14  2  0
 16 17  2  0
 18 23  2  0
 19 18  1  0
 20 19  2  0
 20 21  1  0
 21 22  2  0
 22 23  1  0
 22 16  1  0
 24 25  1  0
 24 20  1  0
  3 26  1  0
  4 27  1  0
  9 28  1  0
 10 29  1  0
 13 30  1  0
 18 31  1  0
 19 32  1  0
 24 33  1  0
 24 34  1  0
 25 35  1  0
 25 36  1  0
 25 37  1  0
M  ISO  8  26  14  27  14  28  14  29  14  30   9  31  14  32  14  33   8
M  ISO  4  34   8  35   8  36   8  37   8
M  END
>  <minimizedAffinity>  (1) 
-5.95034361

>  <minimizedRMSD>  (1) 
4.62869835

$$$$
