
     RDKit          3D

 36 37  0  0  0  0  0  0  0  0999 V2000
   44.9700   33.7710   41.8240 C   0  0  0  0  0  0  0  0  0  0  0  0
   46.1330   34.3120   41.2780 C   0  0  0  0  0  0  0  0  0  0  0  0
   47.1530   34.7270   42.1170 C   0  0  0  0  0  0  0  0  0  0  0  0
   46.9740   34.5860   43.4790 N   0  0  0  0  0  0  0  0  0  0  0  0
   45.8310   34.0570   43.9630 C   0  0  0  0  0  0  0  0  0  0  0  0
   44.8500   33.6570   43.1650 N   0  0  0  0  0  0  0  0  0  0  0  0
   48.4440   35.3230   41.6220 C   0  0  0  0  0  0  0  0  0  0  0  0
   49.5820   34.8640   42.5700 C   0  0  0  0  0  0  0  0  0  0  0  0
   45.7480   33.9550   45.4220 C   0  0  0  0  0  0  0  0  0  0  0  0
   44.8550   34.5460   46.0500 O   0  0  0  0  0  0  0  0  0  0  0  0
   46.7040   33.1710   46.0790 O   0  0  0  0  0  0  0  0  0  0  0  0
   46.2110   32.1680   46.9050 C   0  0  0  0  0  0  0  0  0  0  0  0
   46.3330   32.4210   48.2670 C   0  0  0  0  0  0  0  0  0  0  0  0
   45.8480   31.4360   49.1320 C   0  0  0  0  0  0  0  0  0  0  0  0
   45.2810   30.2760   48.7070 N   0  0  0  0  0  0  0  0  0  0  0  0
   45.1940   30.0930   47.3490 C   0  0  0  0  0  0  0  0  0  0  0  0
   45.6450   31.0100   46.4840 N   0  0  0  0  0  0  0  0  0  0  0  0
   44.5810   28.8360   46.7910 C   0  0  0  0  0  0  0  0  0  0  0  0
   44.9640   27.7300   47.7730 C   0  0  0  0  0  0  0  0  0  0  0  0
   45.2430   28.5360   45.4630 C   0  0  0  0  0  0  0  0  0  0  0  0
   44.1536   33.4384   41.1660 H   0  0  0  0  0  0  0  0  0  0  0  0
   46.2395   34.4085   40.1874 H   0  0  0  0  0  0  0  0  0  0  0  0
   48.6476   34.9739   40.5989 H   0  0  0  0  0  0  0  0  0  0  0  0
   48.3771   36.4209   41.6111 H   0  0  0  0  0  0  0  0  0  0  0  0
   49.2631   34.9926   43.6149 H   0  0  0  0  0  0  0  0  0  0  0  0
   49.8091   33.8039   42.3838 H   0  0  0  0  0  0  0  0  0  0  0  0
   50.4811   35.4698   42.3838 H   0  0  0  0  0  0  0  0  0  0  0  0
   46.7879   33.3488   48.6443 H   0  0  0  0  0  0  0  0  0  0  0  0
   45.9296   31.6089   50.2153 H   0  0  0  0  0  0  0  0  0  0  0  0
   43.4928   28.9227   46.6557 H   0  0  0  0  0  0  0  0  0  0  0  0
   44.8378   28.0945   48.8032 H   0  0  0  0  0  0  0  0  0  0  0  0
   44.3163   26.8557   47.6114 H   0  0  0  0  0  0  0  0  0  0  0  0
   46.0137   27.4435   47.6114 H   0  0  0  0  0  0  0  0  0  0  0  0
   46.2320   28.0878   45.6393 H   0  0  0  0  0  0  0  0  0  0  0  0
   44.6183   27.8330   44.8924 H   0  0  0  0  0  0  0  0  0  0  0  0
   45.3597   29.4692   44.8924 H   0  0  0  0  0  0  0  0  0  0  0  0
  1  6  2  0
  2  1  1  0
  2  3  2  0
  3  4  1  0
  4  5  2  0
  5  9  1  0
  6  5  1  0
  7  3  1  0
  7  8  1  0
  9 10  2  0
  9 11  1  0
 11 12  1  0
 12 13  2  0
 13 14  1  0
 15 14  2  0
 16 15  1  0
 17 12  1  0
 17 16  2  0
 18 16  1  0
 18 19  1  0
 20 18  1  0
  1 21  1  0
  2 22  1  0
  7 23  1  0
  7 24  1  0
  8 25  1  0
  8 26  1  0
  8 27  1  0
 13 28  1  0
 14 29  1  0
 18 30  1  0
 19 31  1  0
 19 32  1  0
 19 33  1  0
 20 34  1  0
 20 35  1  0
 20 36  1  0
M  ISO  8  21  14  22  14  23   8  24   8  25   8  26   8  27   8  28  14
M  ISO  8  29  14  30   8  31   8  32   8  33   8  34   8  35   8  36   8
M  END
>  <minimizedAffinity>  (1) 
-5.27580357

>  <minimizedRMSD>  (1) 
2.57748151

$$$$
