
     RDKit          3D

 34 36  0  0  0  0  0  0  0  0999 V2000
   44.5780   34.1460   41.4950 C   0  0  0  0  0  0  0  0  0  0  0  0
   43.7400   35.0310   41.2660 O   0  0  0  0  0  0  0  0  0  0  0  0
   47.3190   33.5390   39.1110 C   0  0  0  0  0  0  0  0  0  0  0  0
   48.3440   34.2920   39.6810 C   0  0  0  0  0  0  0  0  0  0  0  0
   48.0870   34.9870   40.8540 C   0  0  0  0  0  0  0  0  0  0  0  0
   46.8300   34.8960   41.3970 N   0  0  0  0  0  0  0  0  0  0  0  0
   45.8700   34.1560   40.8130 C   0  0  0  0  0  0  0  0  0  0  0  0
   46.0960   33.4830   39.6880 N   0  0  0  0  0  0  0  0  0  0  0  0
   49.1250   35.8340   41.5570 C   0  0  0  0  0  0  0  0  0  0  0  0
   49.8860   34.9320   42.5490 C   0  0  0  0  0  0  0  0  0  0  0  0
   44.3020   33.1270   42.4020 O   0  0  0  0  0  0  0  0  0  0  0  0
   44.9880   33.1600   43.6100 C   0  0  0  0  0  0  0  0  0  0  0  0
   44.8400   34.3290   44.3470 C   0  0  0  0  0  0  0  0  0  0  0  0
   45.5160   34.3820   45.5560 C   0  0  0  0  0  0  0  0  0  0  0  0
   46.2910   33.3850   46.0440 N   0  0  0  0  0  0  0  0  0  0  0  0
   46.3940   32.2580   45.2650 C   0  0  0  0  0  0  0  0  0  0  0  0
   45.7570   32.1670   44.0920 N   0  0  0  0  0  0  0  0  0  0  0  0
   47.2080   31.1670   45.7410 N   0  0  0  0  0  0  0  0  0  0  0  0
   47.3990   30.8600   47.0140 N   0  0  0  0  0  0  0  0  0  0  0  0
   48.2210   29.7770   47.0990 C   0  0  0  0  0  0  0  0  0  0  0  0
   48.5220   29.4380   45.7940 C   0  0  0  0  0  0  0  0  0  0  0  0
   47.8780   30.3240   44.9360 C   0  0  0  0  0  0  0  0  0  0  0  0
   47.5064   32.9832   38.1804 H   0  0  0  0  0  0  0  0  0  0  0  0
   49.3372   34.3345   39.2101 H   0  0  0  0  0  0  0  0  0  0  0  0
   49.8262   36.2526   40.8201 H   0  0  0  0  0  0  0  0  0  0  0  0
   48.6412   36.6651   42.0910 H   0  0  0  0  0  0  0  0  0  0  0  0
   49.6367   35.2275   43.5788 H   0  0  0  0  0  0  0  0  0  0  0  0
   49.5957   33.8833   42.3880 H   0  0  0  0  0  0  0  0  0  0  0  0
   50.9686   35.0416   42.3880 H   0  0  0  0  0  0  0  0  0  0  0  0
   44.2209   35.1656   43.9908 H   0  0  0  0  0  0  0  0  0  0  0  0
   45.4160   35.2960   46.1598 H   0  0  0  0  0  0  0  0  0  0  0  0
   48.5714   29.2775   48.0143 H   0  0  0  0  0  0  0  0  0  0  0  0
   49.1667   28.6026   45.4834 H   0  0  0  0  0  0  0  0  0  0  0  0
   47.9101   30.3328   43.8365 H   0  0  0  0  0  0  0  0  0  0  0  0
  1 11  1  0
  2  1  2  0
  3  4  2  0
  3  8  1  0
  4  5  1  0
  5  6  2  0
  5  9  1  0
  7  6  1  0
  7  1  1  0
  8  7  2  0
  9 10  1  0
 11 12  1  0
 12 17  1  0
 12 13  2  0
 13 14  1  0
 14 15  2  0
 16 18  1  0
 16 15  1  0
 17 16  2  0
 18 19  1  0
 19 20  2  0
 21 20  1  0
 22 18  1  0
 22 21  2  0
  3 23  1  0
  4 24  1  0
  9 25  1  0
  9 26  1  0
 10 27  1  0
 10 28  1  0
 10 29  1  0
 13 30  1  0
 14 31  1  0
 20 32  1  0
 21 33  1  0
 22 34  1  0
M  ISO  8  23  14  24  14  25   8  26   8  27   8  28   8  29   8  30  14
M  ISO  4  31  14  32  14  33  14  34  14
M  END
>  <minimizedAffinity>  (1) 
-5.13372707

>  <minimizedRMSD>  (1) 
4.45012951

$$$$
