
     RDKit          3D

 32 34  0  0  0  0  0  0  0  0999 V2000
   45.5030   34.7170   43.6560 C   0  0  0  0  0  0  0  0  0  0  0  0
   44.7760   35.3550   44.4310 O   0  0  0  0  0  0  0  0  0  0  0  0
   43.3600   33.8650   40.7850 C   0  0  0  0  0  0  0  0  0  0  0  0
   44.3090   33.6160   39.8050 C   0  0  0  0  0  0  0  0  0  0  0  0
   45.6550   33.7370   40.1230 C   0  0  0  0  0  0  0  0  0  0  0  0
   45.9980   34.1030   41.4070 N   0  0  0  0  0  0  0  0  0  0  0  0
   45.0180   34.3350   42.3250 C   0  0  0  0  0  0  0  0  0  0  0  0
   43.7340   34.2230   42.0380 N   0  0  0  0  0  0  0  0  0  0  0  0
   46.7690   33.4930   39.1420 C   0  0  0  0  0  0  0  0  0  0  0  0
   48.0110   34.2770   39.6030 C   0  0  0  0  0  0  0  0  0  0  0  0
   46.7840   34.3610   44.0460 O   0  0  0  0  0  0  0  0  0  0  0  0
   46.9570   33.0680   44.5540 C   0  0  0  0  0  0  0  0  0  0  0  0
   47.6760   32.1790   43.7610 C   0  0  0  0  0  0  0  0  0  0  0  0
   47.8290   30.9060   44.2920 C   0  0  0  0  0  0  0  0  0  0  0  0
   47.3430   30.4910   45.4830 N   0  0  0  0  0  0  0  0  0  0  0  0
   46.6460   31.4150   46.2090 C   0  0  0  0  0  0  0  0  0  0  0  0
   46.4530   32.6770   45.7610 N   0  0  0  0  0  0  0  0  0  0  0  0
   46.0210   31.2250   47.5170 C   0  0  0  0  0  0  0  0  0  0  0  0
   45.3830   30.1000   47.8770 N   0  0  0  0  0  0  0  0  0  0  0  0
   44.9440   30.2430   49.0870 O   0  0  0  0  0  0  0  0  0  0  0  0
   45.2600   31.4230   49.5580 C   0  0  0  0  0  0  0  0  0  0  0  0
   45.9460   32.0680   48.5790 N   0  0  0  0  0  0  0  0  0  0  0  0
   42.2911   33.7709   40.5429 H   0  0  0  0  0  0  0  0  0  0  0  0
   43.9996   33.3266   38.7898 H   0  0  0  0  0  0  0  0  0  0  0  0
   46.4642   33.8363   38.1424 H   0  0  0  0  0  0  0  0  0  0  0  0
   46.9994   32.4184   39.0952 H   0  0  0  0  0  0  0  0  0  0  0  0
   48.0442   34.2980   40.7023 H   0  0  0  0  0  0  0  0  0  0  0  0
   48.9176   33.7871   39.2181 H   0  0  0  0  0  0  0  0  0  0  0  0
   47.9587   35.3061   39.2181 H   0  0  0  0  0  0  0  0  0  0  0  0
   48.0929   32.4646   42.7840 H   0  0  0  0  0  0  0  0  0  0  0  0
   48.3923   30.1743   43.6943 H   0  0  0  0  0  0  0  0  0  0  0  0
   45.0165   31.8168   50.5558 H   0  0  0  0  0  0  0  0  0  0  0  0
  1 11  1  0
  1  2  2  0
  3  8  2  0
  4  5  2  0
  4  3  1  0
  5  6  1  0
  6  7  2  0
  7  1  1  0
  8  7  1  0
  9 10  1  0
  9  5  1  0
 11 12  1  0
 12 17  2  0
 13 14  2  0
 13 12  1  0
 14 15  1  0
 15 16  2  0
 16 18  1  0
 17 16  1  0
 18 19  2  0
 18 22  1  0
 19 20  1  0
 20 21  1  0
 22 21  2  0
  3 23  1  0
  4 24  1  0
  9 25  1  0
  9 26  1  0
 10 27  1  0
 10 28  1  0
 10 29  1  0
 13 30  1  0
 14 31  1  0
 21 32  1  0
M  ISO  8  23  14  24  14  25   8  26   8  27   8  28   8  29   8  30  14
M  ISO  2  31  14  32  14
M  END
>  <minimizedAffinity>  (1) 
-4.71107817

>  <minimizedRMSD>  (1) 
3.02974653

$$$$
