
     RDKit          3D

 35 37  0  0  0  0  0  0  0  0999 V2000
   44.4930   35.5480   42.5730 C   0  0  0  0  0  0  0  0  0  0  0  0
   43.7250   35.8610   43.5000 O   0  0  0  0  0  0  0  0  0  0  0  0
   44.0420   33.6610   39.4440 C   0  0  0  0  0  0  0  0  0  0  0  0
   42.8000   34.1340   39.0280 C   0  0  0  0  0  0  0  0  0  0  0  0
   42.1390   35.0770   39.8070 C   0  0  0  0  0  0  0  0  0  0  0  0
   42.7480   35.5080   40.9700 N   0  0  0  0  0  0  0  0  0  0  0  0
   43.9590   35.0210   41.3370 C   0  0  0  0  0  0  0  0  0  0  0  0
   44.6060   34.1090   40.5930 N   0  0  0  0  0  0  0  0  0  0  0  0
   40.8020   35.6470   39.4480 C   0  0  0  0  0  0  0  0  0  0  0  0
   40.2240   36.3520   40.7010 C   0  0  0  0  0  0  0  0  0  0  0  0
   45.8830   35.7000   42.7040 O   0  0  0  0  0  0  0  0  0  0  0  0
   46.5910   34.5660   43.1030 C   0  0  0  0  0  0  0  0  0  0  0  0
   47.8690   34.4440   42.5400 C   0  0  0  0  0  0  0  0  0  0  0  0
   48.5820   33.3220   42.9290 C   0  0  0  0  0  0  0  0  0  0  0  0
   48.1360   32.3670   43.7910 N   0  0  0  0  0  0  0  0  0  0  0  0
   46.8800   32.5600   44.2950 C   0  0  0  0  0  0  0  0  0  0  0  0
   46.1450   33.6270   43.9540 N   0  0  0  0  0  0  0  0  0  0  0  0
   46.2190   31.3450   45.4390 S   0  0  0  0  0  0  0  0  0  0  0  0
   47.2070   31.4310   46.9240 C   0  0  0  0  0  0  0  0  0  0  0  0
   47.8700   30.2960   47.3430 C   0  0  0  0  0  0  0  0  0  0  0  0
   48.5670   30.6090   48.5150 C   0  0  0  0  0  0  0  0  0  0  0  0
   48.2950   31.9220   48.7540 N   0  0  0  0  0  0  0  0  0  0  0  0
   47.4840   32.4280   47.8150 N   0  0  0  0  0  0  0  0  0  0  0  0
   44.5718   32.9151   38.8333 H   0  0  0  0  0  0  0  0  0  0  0  0
   42.3478   33.7663   38.0951 H   0  0  0  0  0  0  0  0  0  0  0  0
   40.9146   36.3741   38.6303 H   0  0  0  0  0  0  0  0  0  0  0  0
   40.1245   34.8466   39.1159 H   0  0  0  0  0  0  0  0  0  0  0  0
   40.6189   35.8703   41.6076 H   0  0  0  0  0  0  0  0  0  0  0  0
   40.5159   37.4125   40.6924 H   0  0  0  0  0  0  0  0  0  0  0  0
   39.1268   36.2736   40.6924 H   0  0  0  0  0  0  0  0  0  0  0  0
   48.2768   35.1869   41.8388 H   0  0  0  0  0  0  0  0  0  0  0  0
   49.5897   33.1920   42.5076 H   0  0  0  0  0  0  0  0  0  0  0  0
   47.8535   29.3163   46.8431 H   0  0  0  0  0  0  0  0  0  0  0  0
   49.1994   29.9382   49.1151 H   0  0  0  0  0  0  0  0  0  0  0  0
   48.6648   32.4567   49.5529 H   0  0  0  0  0  0  0  0  0  0  0  0
  1 11  1  0
  1  2  2  0
  3  8  2  0
  4  3  1  0
  4  5  2  0
  5  6  1  0
  6  7  2  0
  7  1  1  0
  8  7  1  0
  9  5  1  0
  9 10  1  0
 11 12  1  0
 12 17  2  0
 13 14  2  0
 13 12  1  0
 14 15  1  0
 15 16  2  0
 16 18  1  0
 17 16  1  0
 18 19  1  0
 19 20  1  0
 19 23  2  0
 20 21  2  0
 21 22  1  0
 23 22  1  0
  3 24  1  0
  4 25  1  0
  9 26  1  0
  9 27  1  0
 10 28  1  0
 10 29  1  0
 10 30  1  0
 13 31  1  0
 14 32  1  0
 20 33  1  0
 21 34  1  0
 22 35  1  0
M  ISO  8  24  14  25  14  26   8  27   8  28   8  29   8  30   8  31  14
M  ISO  4  32  14  33  14  34  14  35   9
M  END
>  <minimizedAffinity>  (1) 
-5.09825659

>  <minimizedRMSD>  (1) 
4.55938339

$$$$
