
     RDKit          3D

 36 38  0  0  0  0  0  0  0  0999 V2000
   45.8450   33.7540   45.8620 C   0  0  0  0  0  0  0  0  0  0  0  0
   44.8270   34.2190   46.4090 O   0  0  0  0  0  0  0  0  0  0  0  0
   45.7920   35.2670   42.4930 C   0  0  0  0  0  0  0  0  0  0  0  0
   46.9830   34.7820   41.9650 C   0  0  0  0  0  0  0  0  0  0  0  0
   47.7620   33.9680   42.7510 C   0  0  0  0  0  0  0  0  0  0  0  0
   47.3510   33.6500   44.0350 N   0  0  0  0  0  0  0  0  0  0  0  0
   46.1770   34.1500   44.5090 C   0  0  0  0  0  0  0  0  0  0  0  0
   45.4000   34.9460   43.7580 N   0  0  0  0  0  0  0  0  0  0  0  0
   49.0740   33.3850   42.2780 C   0  0  0  0  0  0  0  0  0  0  0  0
   49.0760   31.8670   42.5910 C   0  0  0  0  0  0  0  0  0  0  0  0
   46.6850   32.8490   46.5310 O   0  0  0  0  0  0  0  0  0  0  0  0
   46.0960   31.6580   46.9360 C   0  0  0  0  0  0  0  0  0  0  0  0
   45.9140   31.5310   48.3190 C   0  0  0  0  0  0  0  0  0  0  0  0
   45.3230   30.3430   48.7450 C   0  0  0  0  0  0  0  0  0  0  0  0
   44.9280   29.3310   47.9060 N   0  0  0  0  0  0  0  0  0  0  0  0
   45.1450   29.5400   46.5670 C   0  0  0  0  0  0  0  0  0  0  0  0
   45.7050   30.6630   46.1330 N   0  0  0  0  0  0  0  0  0  0  0  0
   44.6340   28.2320   45.4610 S   0  0  0  0  0  0  0  0  0  0  0  0
   43.1520   28.7770   44.6240 C   0  0  0  0  0  0  0  0  0  0  0  0
   42.0070   28.4590   45.3590 C   0  0  0  0  0  0  0  0  0  0  0  0
   40.7410   28.7940   44.8880 C   0  0  0  0  0  0  0  0  0  0  0  0
   40.6460   29.4340   43.7040 N   0  0  0  0  0  0  0  0  0  0  0  0
   41.7860   29.7250   43.0210 C   0  0  0  0  0  0  0  0  0  0  0  0
   43.0200   29.4190   43.4410 N   0  0  0  0  0  0  0  0  0  0  0  0
   45.1552   35.9210   41.8792 H   0  0  0  0  0  0  0  0  0  0  0  0
   47.2941   35.0436   40.9428 H   0  0  0  0  0  0  0  0  0  0  0  0
   49.9083   33.8736   42.8027 H   0  0  0  0  0  0  0  0  0  0  0  0
   49.1920   33.5481   41.1966 H   0  0  0  0  0  0  0  0  0  0  0  0
   49.0762   31.7173   43.6808 H   0  0  0  0  0  0  0  0  0  0  0  0
   48.1785   31.4020   42.1572 H   0  0  0  0  0  0  0  0  0  0  0  0
   49.9748   31.4044   42.1572 H   0  0  0  0  0  0  0  0  0  0  0  0
   46.2182   32.3188   49.0239 H   0  0  0  0  0  0  0  0  0  0  0  0
   45.1625   30.2073   49.8247 H   0  0  0  0  0  0  0  0  0  0  0  0
   42.1075   27.9372   46.3222 H   0  0  0  0  0  0  0  0  0  0  0  0
   39.8399   28.5432   45.4668 H   0  0  0  0  0  0  0  0  0  0  0  0
   41.6872   30.2473   42.0580 H   0  0  0  0  0  0  0  0  0  0  0  0
  1  2  2  0
  1 11  1  0
  3  8  2  0
  4  3  1  0
  4  5  2  0
  5  6  1  0
  6  7  2  0
  7  1  1  0
  8  7  1  0
  9 10  1  0
  9  5  1  0
 11 12  1  0
 12 13  2  0
 13 14  1  0
 15 14  2  0
 16 15  1  0
 17 16  2  0
 17 12  1  0
 18 16  1  0
 19 20  2  0
 19 18  1  0
 21 20  1  0
 22 21  2  0
 23 24  2  0
 23 22  1  0
 24 19  1  0
  3 25  1  0
  4 26  1  0
  9 27  1  0
  9 28  1  0
 10 29  1  0
 10 30  1  0
 10 31  1  0
 13 32  1  0
 14 33  1  0
 20 34  1  0
 21 35  1  0
 23 36  1  0
M  ISO  8  25  14  26  14  27   8  28   8  29   8  30   8  31   8  32  14
M  ISO  4  33  14  34  14  35  14  36  14
M  END
>  <minimizedAffinity>  (1) 
-4.83037233

>  <minimizedRMSD>  (1) 
5.06612301

$$$$
