
     RDKit          3D

 35 37  0  0  0  0  0  0  0  0999 V2000
   45.7430   34.3720   41.2440 C   0  0  0  0  0  0  0  0  0  0  0  0
   44.5910   34.5520   40.8320 O   0  0  0  0  0  0  0  0  0  0  0  0
   47.4030   31.1400   40.6560 C   0  0  0  0  0  0  0  0  0  0  0  0
   48.1380   31.4260   39.5080 C   0  0  0  0  0  0  0  0  0  0  0  0
   48.0610   32.6860   38.9640 C   0  0  0  0  0  0  0  0  0  0  0  0
   47.2620   33.6330   39.5610 N   0  0  0  0  0  0  0  0  0  0  0  0
   46.5580   33.3100   40.6850 C   0  0  0  0  0  0  0  0  0  0  0  0
   46.6180   32.0850   41.2340 N   0  0  0  0  0  0  0  0  0  0  0  0
   48.8160   33.0890   37.7300 C   0  0  0  0  0  0  0  0  0  0  0  0
   48.4660   34.5770   37.4020 C   0  0  0  0  0  0  0  0  0  0  0  0
   46.2710   35.1760   42.2440 O   0  0  0  0  0  0  0  0  0  0  0  0
   45.9140   34.8650   43.5540 C   0  0  0  0  0  0  0  0  0  0  0  0
   44.8920   35.6410   44.0990 C   0  0  0  0  0  0  0  0  0  0  0  0
   44.5310   35.3330   45.4060 C   0  0  0  0  0  0  0  0  0  0  0  0
   45.1090   34.3490   46.1460 N   0  0  0  0  0  0  0  0  0  0  0  0
   46.0990   33.6330   45.5460 C   0  0  0  0  0  0  0  0  0  0  0  0
   46.4800   33.8910   44.2940 N   0  0  0  0  0  0  0  0  0  0  0  0
   46.8860   32.3240   46.4920 S   0  0  0  0  0  0  0  0  0  0  0  0
   44.6730   29.4670   45.2110 N   0  0  0  0  0  0  0  0  0  0  0  0
   45.4720   30.5400   45.1750 N   0  0  0  0  0  0  0  0  0  0  0  0
   45.8150   30.8940   46.4370 C   0  0  0  0  0  0  0  0  0  0  0  0
   45.1960   29.9940   47.3110 C   0  0  0  0  0  0  0  0  0  0  0  0
   44.4840   29.1080   46.4960 C   0  0  0  0  0  0  0  0  0  0  0  0
   47.4593   30.1353   41.1002 H   0  0  0  0  0  0  0  0  0  0  0  0
   48.7706   30.6551   39.0437 H   0  0  0  0  0  0  0  0  0  0  0  0
   49.8972   32.9920   37.9076 H   0  0  0  0  0  0  0  0  0  0  0  0
   48.5366   32.4401   36.8869 H   0  0  0  0  0  0  0  0  0  0  0  0
   48.3341   35.1378   38.3391 H   0  0  0  0  0  0  0  0  0  0  0  0
   49.2831   35.0257   36.8181 H   0  0  0  0  0  0  0  0  0  0  0  0
   47.5345   34.6144   36.8181 H   0  0  0  0  0  0  0  0  0  0  0  0
   44.4023   36.4458   43.5311 H   0  0  0  0  0  0  0  0  0  0  0  0
   43.7270   35.9225   45.8709 H   0  0  0  0  0  0  0  0  0  0  0  0
   44.2687   28.9931   44.3907 H   0  0  0  0  0  0  0  0  0  0  0  0
   45.2566   29.9850   48.4093 H   0  0  0  0  0  0  0  0  0  0  0  0
   43.8735   28.2620   46.8447 H   0  0  0  0  0  0  0  0  0  0  0  0
  1 11  1  0
  2  1  2  0
  3  8  2  0
  4  3  1  0
  5  4  2  0
  5  6  1  0
  6  7  2  0
  7  8  1  0
  7  1  1  0
  9  5  1  0
 10  9  1  0
 11 12  1  0
 12 13  2  0
 12 17  1  0
 13 14  1  0
 14 15  2  0
 16 15  1  0
 16 18  1  0
 17 16  2  0
 19 23  1  0
 20 19  1  0
 20 21  2  0
 21 18  1  0
 21 22  1  0
 23 22  2  0
  3 24  1  0
  4 25  1  0
  9 26  1  0
  9 27  1  0
 10 28  1  0
 10 29  1  0
 10 30  1  0
 13 31  1  0
 14 32  1  0
 19 33  1  0
 22 34  1  0
 23 35  1  0
M  ISO  8  24  14  25  14  26   8  27   8  28   8  29   8  30   8  31  14
M  ISO  4  32  14  33   9  34  14  35  14
M  END
>  <minimizedAffinity>  (1) 
-4.82896948

>  <minimizedRMSD>  (1) 
3.94933319

$$$$
