
     RDKit          3D

 31 32  0  0  0  0  0  0  0  0999 V2000
   44.5420   33.8910   41.1920 C   0  0  0  0  0  0  0  0  0  0  0  0
   45.7000   34.1560   40.4790 C   0  0  0  0  0  0  0  0  0  0  0  0
   46.8460   34.4510   41.1760 C   0  0  0  0  0  0  0  0  0  0  0  0
   46.8230   34.4770   42.5570 N   0  0  0  0  0  0  0  0  0  0  0  0
   45.6650   34.2100   43.2110 C   0  0  0  0  0  0  0  0  0  0  0  0
   44.5300   33.9190   42.5490 N   0  0  0  0  0  0  0  0  0  0  0  0
   48.1660   34.7570   40.4970 C   0  0  0  0  0  0  0  0  0  0  0  0
   48.9630   35.7360   41.3980 C   0  0  0  0  0  0  0  0  0  0  0  0
   45.7330   34.2590   44.6570 C   0  0  0  0  0  0  0  0  0  0  0  0
   44.8180   34.8130   45.3060 O   0  0  0  0  0  0  0  0  0  0  0  0
   46.8320   33.6800   45.3050 O   0  0  0  0  0  0  0  0  0  0  0  0
   46.7190   32.3220   45.5990 C   0  0  0  0  0  0  0  0  0  0  0  0
   47.3190   31.4520   44.6700 C   0  0  0  0  0  0  0  0  0  0  0  0
   47.2000   30.1040   44.9730 C   0  0  0  0  0  0  0  0  0  0  0  0
   46.5620   29.5990   46.0710 N   0  0  0  0  0  0  0  0  0  0  0  0
   46.0080   30.5030   46.9190 C   0  0  0  0  0  0  0  0  0  0  0  0
   46.0960   31.8110   46.6730 N   0  0  0  0  0  0  0  0  0  0  0  0
   45.1690   29.8750   48.3620 S   0  0  0  0  0  0  0  0  0  0  0  0
   45.0630   31.1910   49.5910 C   0  0  0  0  0  0  0  0  0  0  0  0
   43.6156   33.6536   40.6485 H   0  0  0  0  0  0  0  0  0  0  0  0
   45.7015   34.1307   39.3793 H   0  0  0  0  0  0  0  0  0  0  0  0
   48.7383   33.8275   40.3608 H   0  0  0  0  0  0  0  0  0  0  0  0
   47.9882   35.2100   39.5105 H   0  0  0  0  0  0  0  0  0  0  0  0
   48.7711   35.5002   42.4551 H   0  0  0  0  0  0  0  0  0  0  0  0
   50.0381   35.6340   41.1889 H   0  0  0  0  0  0  0  0  0  0  0  0
   48.6451   36.7681   41.1889 H   0  0  0  0  0  0  0  0  0  0  0  0
   47.8422   31.8134   43.7724 H   0  0  0  0  0  0  0  0  0  0  0  0
   47.6545   29.3853   44.2753 H   0  0  0  0  0  0  0  0  0  0  0  0
   45.0982   30.7542   50.5999 H   0  0  0  0  0  0  0  0  0  0  0  0
   45.9083   31.8828   49.4613 H   0  0  0  0  0  0  0  0  0  0  0  0
   44.1178   31.7386   49.4613 H   0  0  0  0  0  0  0  0  0  0  0  0
  1  6  2  0
  2  3  2  0
  2  1  1  0
  3  4  1  0
  4  5  2  0
  5  9  1  0
  6  5  1  0
  7  3  1  0
  7  8  1  0
  9 11  1  0
  9 10  2  0
 11 12  1  0
 12 17  2  0
 13 14  2  0
 13 12  1  0
 14 15  1  0
 15 16  2  0
 16 18  1  0
 17 16  1  0
 18 19  1  0
  1 20  1  0
  2 21  1  0
  7 22  1  0
  7 23  1  0
  8 24  1  0
  8 25  1  0
  8 26  1  0
 13 27  1  0
 14 28  1  0
 19 29  1  0
 19 30  1  0
 19 31  1  0
M  ISO  8  20  14  21  14  22   8  23   8  24   8  25   8  26   8  27  14
M  ISO  4  28  14  29   8  30   8  31   8
M  END
>  <minimizedAffinity>  (1) 
-4.45976114

>  <minimizedRMSD>  (1) 
0.962433815

$$$$
