
     RDKit          3D

 44 47  0  0  1  0  0  0  0  0999 V2000
   46.9210   31.7020   45.5600 C   0  0  0  0  0  0  0  0  0  0  0  0
   47.6080   31.0180   44.5370 C   0  0  0  0  0  0  0  0  0  0  0  0
   47.4660   29.6330   44.5490 C   0  0  0  0  0  0  0  0  0  0  0  0
   46.7270   28.9310   45.4580 N   0  0  0  0  0  0  0  0  0  0  0  0
   46.0960   29.6700   46.4130 C   0  0  0  0  0  0  0  0  0  0  0  0
   46.2030   31.0010   46.4420 N   0  0  0  0  0  0  0  0  0  0  0  0
   47.0670   33.0880   45.5440 O   0  0  0  0  0  0  0  0  0  0  0  0
   45.9660   33.8180   45.0540 C   0  0  0  0  0  0  0  0  0  0  0  0
   45.1430   34.3150   45.8390 O   0  0  0  0  0  0  0  0  0  0  0  0
   44.5550   34.0280   41.6590 C   0  0  0  0  0  0  0  0  0  0  0  0
   45.7080   34.3200   40.9080 C   0  0  0  0  0  0  0  0  0  0  0  0
   46.9040   34.4350   41.5570 C   0  0  0  0  0  0  0  0  0  0  0  0
   46.9620   34.2620   42.9400 N   0  0  0  0  0  0  0  0  0  0  0  0
   45.8110   33.9800   43.6270 C   0  0  0  0  0  0  0  0  0  0  0  0
   44.6350   33.8640   43.0090 N   0  0  0  0  0  0  0  0  0  0  0  0
   48.2060   34.7440   40.8590 C   0  0  0  0  0  0  0  0  0  0  0  0
   48.9550   35.8400   41.6730 C   0  0  0  0  0  0  0  0  0  0  0  0
   45.1220   28.7980   47.6190 S   0  0  0  0  0  0  0  0  0  0  0  0
   44.6150   27.2010   46.8680 C   0  0  1  0  0  0  0  0  0  0  0  0
   44.8830   26.0280   47.8100 C   0  0  0  0  0  0  0  0  0  0  0  0
   43.4900   26.4670   47.4810 C   0  0  2  0  0  0  0  0  0  0  0  0
   42.6000   25.5710   46.7340 C   0  0  0  0  0  0  0  0  0  0  0  0
   41.2530   25.8550   46.6460 C   0  0  0  0  0  0  0  0  0  0  0  0
   40.3120   25.0750   45.9640 C   0  0  0  0  0  0  0  0  0  0  0  0
   40.8590   23.9560   45.3590 C   0  0  0  0  0  0  0  0  0  0  0  0
   42.1980   23.6280   45.4180 C   0  0  0  0  0  0  0  0  0  0  0  0
   43.0270   24.4410   46.0990 N   0  0  0  0  0  0  0  0  0  0  0  0
   48.2136   31.5414   43.7824 H   0  0  0  0  0  0  0  0  0  0  0  0
   47.9882   29.0613   43.7677 H   0  0  0  0  0  0  0  0  0  0  0  0
   43.5830   33.9315   41.1532 H   0  0  0  0  0  0  0  0  0  0  0  0
   45.6474   34.4533   39.8178 H   0  0  0  0  0  0  0  0  0  0  0  0
   48.8231   33.8350   40.8053 H   0  0  0  0  0  0  0  0  0  0  0  0
   48.0103   35.1011   39.8372 H   0  0  0  0  0  0  0  0  0  0  0  0
   48.8255   35.6505   42.7488 H   0  0  0  0  0  0  0  0  0  0  0  0
   50.0258   35.8151   41.4226 H   0  0  0  0  0  0  0  0  0  0  0  0
   48.5428   36.8286   41.4226 H   0  0  0  0  0  0  0  0  0  0  0  0
   44.8388   27.4858   45.8293 H   0  0  0  0  0  0  0  0  0  0  0  0
   45.2726   25.0780   47.4154 H   0  0  0  0  0  0  0  0  0  0  0  0
   45.4631   25.8758   48.7321 H   0  0  0  0  0  0  0  0  0  0  0  0
   42.6097   26.7968   48.0522 H   0  0  0  0  0  0  0  0  0  0  0  0
   40.8910   26.7633   47.1500 H   0  0  0  0  0  0  0  0  0  0  0  0
   39.2423   25.3264   45.9135 H   0  0  0  0  0  0  0  0  0  0  0  0
   40.1868   23.2896   44.7986 H   0  0  0  0  0  0  0  0  0  0  0  0
   42.5788   22.7239   44.9205 H   0  0  0  0  0  0  0  0  0  0  0  0
  1  6  2  0
  2  3  2  0
  2  1  1  0
  3  4  1  0
  4  5  2  0
  5  6  1  0
  5 18  1  0
  7  1  1  0
  8  7  1  0
  8  9  2  0
 10 15  2  0
 11 12  2  0
 11 10  1  0
 12 13  1  0
 13 14  2  0
 14  8  1  0
 15 14  1  0
 16 12  1  0
 16 17  1  0
 19 21  1  0
 19 18  1  0
 19 20  1  0
 21 20  1  0
 22 21  1  0
 23 22  2  0
 24 23  1  0
 25 26  1  0
 25 24  2  0
 26 27  2  0
 27 22  1  0
  2 28  1  0
  3 29  1  0
 10 30  1  0
 11 31  1  0
 16 32  1  0
 16 33  1  0
 17 34  1  0
 17 35  1  0
 17 36  1  0
 19 37  1  6
 20 38  1  0
 20 39  1  0
 21 40  1  1
 23 41  1  0
 24 42  1  0
 25 43  1  0
 26 44  1  0
M  ISO  8  28  14  29  14  30  14  31  14  32   8  33   8  34   8  35   8
M  ISO  8  36   8  37  13  38  13  39  13  40  13  41  14  42  14  43  14
M  ISO  1  44  14
M  END
>  <minimizedAffinity>  (1) 
-5.31176472

>  <minimizedRMSD>  (1) 
1.30235517

$$$$
