
     RDKit          3D

 42 45  0  0  1  0  0  0  0  0999 V2000
   46.7370   31.9770   45.5870 C   0  0  0  0  0  0  0  0  0  0  0  0
   47.4420   31.2740   44.6090 C   0  0  0  0  0  0  0  0  0  0  0  0
   47.3140   29.8880   44.6520 C   0  0  0  0  0  0  0  0  0  0  0  0
   46.5680   29.1980   45.5630 N   0  0  0  0  0  0  0  0  0  0  0  0
   45.9050   29.9610   46.4930 C   0  0  0  0  0  0  0  0  0  0  0  0
   46.0070   31.2810   46.4770 N   0  0  0  0  0  0  0  0  0  0  0  0
   46.8670   33.3540   45.5400 O   0  0  0  0  0  0  0  0  0  0  0  0
   45.8140   34.0610   44.9600 C   0  0  0  0  0  0  0  0  0  0  0  0
   44.9720   34.6410   45.6810 O   0  0  0  0  0  0  0  0  0  0  0  0
   44.5250   33.9670   41.5190 C   0  0  0  0  0  0  0  0  0  0  0  0
   45.6820   34.2600   40.7920 C   0  0  0  0  0  0  0  0  0  0  0  0
   46.8590   34.4800   41.4750 C   0  0  0  0  0  0  0  0  0  0  0  0
   46.8720   34.4080   42.8590 N   0  0  0  0  0  0  0  0  0  0  0  0
   45.7080   34.1160   43.5270 C   0  0  0  0  0  0  0  0  0  0  0  0
   44.5680   33.9020   42.8800 N   0  0  0  0  0  0  0  0  0  0  0  0
   48.1460   34.7990   40.7800 C   0  0  0  0  0  0  0  0  0  0  0  0
   48.9390   35.8130   41.6570 C   0  0  0  0  0  0  0  0  0  0  0  0
   44.9160   29.1180   47.7050 S   0  0  0  0  0  0  0  0  0  0  0  0
   45.3740   27.3540   47.6640 C   0  0  1  0  0  0  0  0  0  0  0  0
   44.5130   26.4900   48.5760 C   0  0  0  0  0  0  0  0  0  0  0  0
   44.4830   26.3410   47.1000 C   0  0  1  0  0  0  0  0  0  0  0  0
   43.2040   26.6510   46.4520 C   0  0  0  0  0  0  0  0  0  0  0  0
   42.0290   26.0290   46.7310 C   0  0  0  0  0  0  0  0  0  0  0  0
   41.0420   26.5900   45.9190 C   0  0  0  0  0  0  0  0  0  0  0  0
   41.6890   27.5460   45.1730 C   0  0  0  0  0  0  0  0  0  0  0  0
   42.9390   27.5540   45.5070 O   0  0  0  0  0  0  0  0  0  0  0  0
   48.0589   31.7819   43.8530 H   0  0  0  0  0  0  0  0  0  0  0  0
   47.8559   29.3044   43.8932 H   0  0  0  0  0  0  0  0  0  0  0  0
   43.5765   33.7882   40.9913 H   0  0  0  0  0  0  0  0  0  0  0  0
   45.6540   34.3141   39.6937 H   0  0  0  0  0  0  0  0  0  0  0  0
   48.7358   33.8797   40.6496 H   0  0  0  0  0  0  0  0  0  0  0  0
   47.9437   35.2327   39.7895 H   0  0  0  0  0  0  0  0  0  0  0  0
   48.7660   35.5917   42.7205 H   0  0  0  0  0  0  0  0  0  0  0  0
   50.0130   35.7284   41.4349 H   0  0  0  0  0  0  0  0  0  0  0  0
   48.5980   36.8350   41.4349 H   0  0  0  0  0  0  0  0  0  0  0  0
   46.4377   27.5721   47.4882 H   0  0  0  0  0  0  0  0  0  0  0  0
   44.9750   25.7131   49.2029 H   0  0  0  0  0  0  0  0  0  0  0  0
   43.7691   26.6745   49.3650 H   0  0  0  0  0  0  0  0  0  0  0  0
   44.6739   25.5495   46.3604 H   0  0  0  0  0  0  0  0  0  0  0  0
   41.8814   25.2250   47.4671 H   0  0  0  0  0  0  0  0  0  0  0  0
   39.9752   26.3241   45.8837 H   0  0  0  0  0  0  0  0  0  0  0  0
   41.2221   28.1958   44.4181 H   0  0  0  0  0  0  0  0  0  0  0  0
  1  6  2  0
  2  3  2  0
  2  1  1  0
  3  4  1  0
  4  5  2  0
  5 18  1  0
  6  5  1  0
  7  1  1  0
  8  7  1  0
  8  9  2  0
 10 15  2  0
 11 12  2  0
 11 10  1  0
 12 13  1  0
 13 14  2  0
 14  8  1  0
 15 14  1  0
 16 12  1  0
 16 17  1  0
 19 18  1  0
 19 20  1  0
 21 19  1  0
 21 20  1  0
 22 23  2  0
 22 21  1  0
 24 23  1  0
 25 26  1  0
 25 24  2  0
 26 22  1  0
  2 27  1  0
  3 28  1  0
 10 29  1  0
 11 30  1  0
 16 31  1  0
 16 32  1  0
 17 33  1  0
 17 34  1  0
 17 35  1  0
 19 36  1  1
 20 37  1  0
 20 38  1  0
 21 39  1  1
 23 40  1  0
 24 41  1  0
 25 42  1  0
M  ISO  8  27  14  28  14  29  14  30  14  31   8  32   8  33   8  34   8
M  ISO  8  35   8  36  13  37  13  38  13  39  13  40  14  41  14  42  14
M  END
>  <minimizedAffinity>  (1) 
-5.27313137

>  <minimizedRMSD>  (1) 
0.586975634

$$$$
