
     RDKit          3D

 38 40  0  0  1  0  0  0  0  0999 V2000
   46.7030   32.3920   45.5910 C   0  0  0  0  0  0  0  0  0  0  0  0
   47.4300   31.6910   44.6250 C   0  0  0  0  0  0  0  0  0  0  0  0
   47.4250   30.3010   44.7570 C   0  0  0  0  0  0  0  0  0  0  0  0
   46.7770   29.6120   45.7380 N   0  0  0  0  0  0  0  0  0  0  0  0
   46.0880   30.3810   46.6440 C   0  0  0  0  0  0  0  0  0  0  0  0
   46.0720   31.7040   46.5480 N   0  0  0  0  0  0  0  0  0  0  0  0
   46.7110   33.7740   45.4570 O   0  0  0  0  0  0  0  0  0  0  0  0
   45.6460   34.3390   44.7660 C   0  0  0  0  0  0  0  0  0  0  0  0
   44.7380   34.9090   45.3990 O   0  0  0  0  0  0  0  0  0  0  0  0
   44.5340   33.8790   41.3000 C   0  0  0  0  0  0  0  0  0  0  0  0
   45.7150   34.1640   40.5940 C   0  0  0  0  0  0  0  0  0  0  0  0
   46.8450   34.5010   41.3110 C   0  0  0  0  0  0  0  0  0  0  0  0
   46.7880   34.5500   42.6960 N   0  0  0  0  0  0  0  0  0  0  0  0
   45.6030   34.2610   43.3300 C   0  0  0  0  0  0  0  0  0  0  0  0
   44.5080   33.9350   42.6550 N   0  0  0  0  0  0  0  0  0  0  0  0
   48.1580   34.8230   40.6480 C   0  0  0  0  0  0  0  0  0  0  0  0
   48.9520   35.7890   41.5930 C   0  0  0  0  0  0  0  0  0  0  0  0
   45.2240   29.5280   47.9450 S   0  0  0  0  0  0  0  0  0  0  0  0
   44.7750   27.8650   47.3180 C   0  0  1  0  0  0  0  0  0  0  0  0
   45.7850   26.7980   47.7340 C   0  0  0  0  0  0  0  0  0  0  0  0
   44.4050   26.8080   48.2750 C   0  0  2  0  0  0  0  0  0  0  0  0
   43.3950   25.7890   47.7820 C   0  0  0  0  0  0  0  0  0  0  0  0
   43.9550   24.5500   47.5440 F   0  0  0  0  0  0  0  0  0  0  0  0
   42.8000   26.2040   46.6060 F   0  0  0  0  0  0  0  0  0  0  0  0
   42.3870   25.5990   48.7310 F   0  0  0  0  0  0  0  0  0  0  0  0
   47.9706   32.2008   43.8140 H   0  0  0  0  0  0  0  0  0  0  0  0
   47.9868   29.7178   44.0125 H   0  0  0  0  0  0  0  0  0  0  0  0
   43.6217   33.6078   40.7485 H   0  0  0  0  0  0  0  0  0  0  0  0
   45.7383   34.1195   39.4951 H   0  0  0  0  0  0  0  0  0  0  0  0
   48.7332   33.8988   40.4899 H   0  0  0  0  0  0  0  0  0  0  0  0
   47.9869   35.2985   39.6709 H   0  0  0  0  0  0  0  0  0  0  0  0
   48.7407   35.5319   42.6415 H   0  0  0  0  0  0  0  0  0  0  0  0
   50.0301   35.6862   41.4004 H   0  0  0  0  0  0  0  0  0  0  0  0
   48.6424   36.8268   41.4004 H   0  0  0  0  0  0  0  0  0  0  0  0
   44.2984   28.2354   46.3984 H   0  0  0  0  0  0  0  0  0  0  0  0
   46.0945   26.0202   47.0204 H   0  0  0  0  0  0  0  0  0  0  0  0
   46.7977   26.7992   48.1636 H   0  0  0  0  0  0  0  0  0  0  0  0
   44.0095   26.7781   49.3010 H   0  0  0  0  0  0  0  0  0  0  0  0
  1  6  2  0
  2  3  2  0
  2  1  1  0
  3  4  1  0
  4  5  2  0
  5 18  1  0
  6  5  1  0
  7  1  1  0
  8  9  2  0
  8  7  1  0
 10 15  2  0
 11 10  1  0
 11 12  2  0
 12 13  1  0
 13 14  2  0
 14  8  1  0
 15 14  1  0
 16 12  1  0
 16 17  1  0
 19 20  1  0
 19 18  1  0
 19 21  1  0
 20 21  1  0
 22 21  1  0
 22 25  1  0
 23 22  1  0
 24 22  1  0
  2 26  1  0
  3 27  1  0
 10 28  1  0
 11 29  1  0
 16 30  1  0
 16 31  1  0
 17 32  1  0
 17 33  1  0
 17 34  1  0
 19 35  1  6
 20 36  1  0
 20 37  1  0
 21 38  1  1
M  ISO  8  26  14  27  14  28  14  29  14  30   8  31   8  32   8  33   8
M  ISO  5  34   8  35  13  36  13  37  13  38  13
M  END
>  <minimizedAffinity>  (1) 
-5.16743708

>  <minimizedRMSD>  (1) 
1.02270508

$$$$
