
     RDKit          3D

 50 53  0  0  1  0  0  0  0  0999 V2000
   46.8030   32.0060   45.5510 C   0  0  0  0  0  0  0  0  0  0  0  0
   47.5030   31.3480   44.5310 C   0  0  0  0  0  0  0  0  0  0  0  0
   47.4210   29.9710   44.5570 C   0  0  0  0  0  0  0  0  0  0  0  0
   46.7310   29.2310   45.4690 N   0  0  0  0  0  0  0  0  0  0  0  0
   46.0740   29.9510   46.4320 C   0  0  0  0  0  0  0  0  0  0  0  0
   46.1180   31.2840   46.4580 N   0  0  0  0  0  0  0  0  0  0  0  0
   46.8830   33.3950   45.5300 O   0  0  0  0  0  0  0  0  0  0  0  0
   45.7970   34.0750   44.9550 C   0  0  0  0  0  0  0  0  0  0  0  0
   44.9380   34.6220   45.6540 O   0  0  0  0  0  0  0  0  0  0  0  0
   44.5130   33.9540   41.5020 C   0  0  0  0  0  0  0  0  0  0  0  0
   45.6670   34.2540   40.7750 C   0  0  0  0  0  0  0  0  0  0  0  0
   46.8400   34.4880   41.4590 C   0  0  0  0  0  0  0  0  0  0  0  0
   46.8510   34.4210   42.8380 N   0  0  0  0  0  0  0  0  0  0  0  0
   45.6970   34.1230   43.5150 C   0  0  0  0  0  0  0  0  0  0  0  0
   44.5560   33.8960   42.8610 N   0  0  0  0  0  0  0  0  0  0  0  0
   48.1300   34.8180   40.7620 C   0  0  0  0  0  0  0  0  0  0  0  0
   48.9290   35.7950   41.6700 C   0  0  0  0  0  0  0  0  0  0  0  0
   45.1520   29.0450   47.6580 S   0  0  0  0  0  0  0  0  0  0  0  0
   44.9210   27.3470   47.0360 C   0  0  1  0  0  0  0  0  0  0  0  0
   44.2500   26.4290   48.0620 C   0  0  0  0  0  0  0  0  0  0  0  0
   43.5660   26.8150   46.8060 C   0  0  2  0  0  0  0  0  0  0  0  0
   43.2660   25.8410   45.8150 N   0  0  0  0  0  0  0  0  0  0  0  0
   43.1530   26.2960   44.4740 C   0  0  0  0  0  0  0  0  0  0  0  0
   42.1970   25.4530   43.6440 C   0  0  0  0  0  0  0  0  0  0  0  0
   40.8480   25.3350   44.3220 C   0  0  0  0  0  0  0  0  0  0  0  0
   40.9300   25.0320   45.7830 C   0  0  0  0  0  0  0  0  0  0  0  0
   42.3470   24.8330   46.2270 C   0  0  0  0  0  0  0  0  0  0  0  0
   48.0765   31.8902   43.7648 H   0  0  0  0  0  0  0  0  0  0  0  0
   47.9608   29.4219   43.7714 H   0  0  0  0  0  0  0  0  0  0  0  0
   43.5665   33.7640   40.9747 H   0  0  0  0  0  0  0  0  0  0  0  0
   45.6400   34.3026   39.6764 H   0  0  0  0  0  0  0  0  0  0  0  0
   48.7122   33.8990   40.5990 H   0  0  0  0  0  0  0  0  0  0  0  0
   47.9292   35.2815   39.7848 H   0  0  0  0  0  0  0  0  0  0  0  0
   48.7340   35.5566   42.7260 H   0  0  0  0  0  0  0  0  0  0  0  0
   50.0044   35.6912   41.4632 H   0  0  0  0  0  0  0  0  0  0  0  0
   48.6139   36.8284   41.4632 H   0  0  0  0  0  0  0  0  0  0  0  0
   45.8242   27.3683   46.4085 H   0  0  0  0  0  0  0  0  0  0  0  0
   44.6099   25.3991   48.2029 H   0  0  0  0  0  0  0  0  0  0  0  0
   44.0156   26.4879   49.1351 H   0  0  0  0  0  0  0  0  0  0  0  0
   42.6080   27.2937   46.5548 H   0  0  0  0  0  0  0  0  0  0  0  0
   42.7880   27.3336   44.4845 H   0  0  0  0  0  0  0  0  0  0  0  0
   44.1487   26.2183   44.0129 H   0  0  0  0  0  0  0  0  0  0  0  0
   42.6237   24.4474   43.5148 H   0  0  0  0  0  0  0  0  0  0  0  0
   42.0570   25.9408   42.6681 H   0  0  0  0  0  0  0  0  0  0  0  0
   40.3120   26.2871   44.1951 H   0  0  0  0  0  0  0  0  0  0  0  0
   40.3254   24.4904   43.8492 H   0  0  0  0  0  0  0  0  0  0  0  0
   40.4939   25.8702   46.3463 H   0  0  0  0  0  0  0  0  0  0  0  0
   40.3764   24.1006   45.9725 H   0  0  0  0  0  0  0  0  0  0  0  0
   42.6964   23.8708   45.8244 H   0  0  0  0  0  0  0  0  0  0  0  0
   42.3276   24.8729   47.3261 H   0  0  0  0  0  0  0  0  0  0  0  0
  1  6  2  0
  2  3  2  0
  2  1  1  0
  3  4  1  0
  4  5  2  0
  5  6  1  0
  5 18  1  0
  7  1  1  0
  8  7  1  0
  8  9  2  0
 10 15  2  0
 11 12  2  0
 11 10  1  0
 12 13  1  0
 13 14  2  0
 14  8  1  0
 15 14  1  0
 16 12  1  0
 16 17  1  0
 19 18  1  0
 19 20  1  0
 21 19  1  0
 21 20  1  0
 22 27  1  0
 22 21  1  0
 23 22  1  0
 24 25  1  0
 24 23  1  0
 25 26  1  0
 26 27  1  0
  2 28  1  0
  3 29  1  0
 10 30  1  0
 11 31  1  0
 16 32  1  0
 16 33  1  0
 17 34  1  0
 17 35  1  0
 17 36  1  0
 19 37  1  6
 20 38  1  0
 20 39  1  0
 21 40  1  1
 23 41  1  0
 23 42  1  0
 24 43  1  0
 24 44  1  0
 25 45  1  0
 25 46  1  0
 26 47  1  0
 26 48  1  0
 27 49  1  0
 27 50  1  0
M  ISO  8  28  14  29  14  30  14  31  14  32   8  33   8  34   8  35   8
M  ISO  8  36   8  37  13  38  13  39  13  40  13  41  13  42  13  43  13
M  ISO  7  44  13  45  13  46  13  47  13  48  13  49  13  50  13
M  END
>  <minimizedAffinity>  (1) 
-4.92765188

>  <minimizedRMSD>  (1) 
1.20690715

$$$$
