
     RDKit          3D

 41 43  0  0  1  0  0  0  0  0999 V2000
   46.7880   32.0410   45.5610 C   0  0  0  0  0  0  0  0  0  0  0  0
   47.4800   31.3540   44.5670 C   0  0  0  0  0  0  0  0  0  0  0  0
   47.3870   29.9740   44.6330 C   0  0  0  0  0  0  0  0  0  0  0  0
   46.6840   29.2800   45.5780 N   0  0  0  0  0  0  0  0  0  0  0  0
   46.0400   30.0280   46.5090 C   0  0  0  0  0  0  0  0  0  0  0  0
   46.0990   31.3530   46.4870 N   0  0  0  0  0  0  0  0  0  0  0  0
   46.8670   33.4360   45.5140 O   0  0  0  0  0  0  0  0  0  0  0  0
   45.7960   34.1040   44.9250 C   0  0  0  0  0  0  0  0  0  0  0  0
   44.9510   34.6590   45.6340 O   0  0  0  0  0  0  0  0  0  0  0  0
   44.5070   33.9600   41.4820 C   0  0  0  0  0  0  0  0  0  0  0  0
   45.6650   34.2540   40.7480 C   0  0  0  0  0  0  0  0  0  0  0  0
   46.8280   34.4890   41.4280 C   0  0  0  0  0  0  0  0  0  0  0  0
   46.8490   34.4340   42.8200 N   0  0  0  0  0  0  0  0  0  0  0  0
   45.6830   34.1400   43.4800 C   0  0  0  0  0  0  0  0  0  0  0  0
   44.5470   33.9100   42.8420 N   0  0  0  0  0  0  0  0  0  0  0  0
   48.1180   34.8120   40.7290 C   0  0  0  0  0  0  0  0  0  0  0  0
   48.9350   35.7880   41.6400 C   0  0  0  0  0  0  0  0  0  0  0  0
   45.1150   29.1520   47.7530 S   0  0  0  0  0  0  0  0  0  0  0  0
   44.7630   27.4720   47.1280 C   0  0  1  0  0  0  0  0  0  0  0  0
   45.5990   26.4110   47.8580 C   0  0  0  0  0  0  0  0  0  0  0  0
   44.1280   26.4890   48.0100 C   0  0  2  0  0  0  0  0  0  0  0  0
   43.3140   25.3480   47.5060 C   0  0  0  0  0  0  0  0  0  0  0  0
   41.9930   25.7740   46.9090 C   0  0  0  0  0  0  0  0  0  0  0  0
   48.0583   31.8699   43.7863 H   0  0  0  0  0  0  0  0  0  0  0  0
   47.9194   29.3917   43.8665 H   0  0  0  0  0  0  0  0  0  0  0  0
   43.5602   33.7685   40.9557 H   0  0  0  0  0  0  0  0  0  0  0  0
   45.6385   34.2947   39.6491 H   0  0  0  0  0  0  0  0  0  0  0  0
   48.6927   33.8890   40.5622 H   0  0  0  0  0  0  0  0  0  0  0  0
   47.9159   35.2804   39.7545 H   0  0  0  0  0  0  0  0  0  0  0  0
   48.7389   35.5538   42.6967 H   0  0  0  0  0  0  0  0  0  0  0  0
   50.0088   35.6716   41.4317 H   0  0  0  0  0  0  0  0  0  0  0  0
   48.6314   36.8246   41.4317 H   0  0  0  0  0  0  0  0  0  0  0  0
   44.5427   27.7925   46.0990 H   0  0  0  0  0  0  0  0  0  0  0  0
   46.0561   25.5821   47.2976 H   0  0  0  0  0  0  0  0  0  0  0  0
   46.4638   26.4186   48.5378 H   0  0  0  0  0  0  0  0  0  0  0  0
   43.4227   26.6075   48.8457 H   0  0  0  0  0  0  0  0  0  0  0  0
   43.8926   24.8208   46.7332 H   0  0  0  0  0  0  0  0  0  0  0  0
   43.0890   24.7025   48.3678 H   0  0  0  0  0  0  0  0  0  0  0  0
   41.2824   26.0031   47.7168 H   0  0  0  0  0  0  0  0  0  0  0  0
   42.1431   26.6693   46.2878 H   0  0  0  0  0  0  0  0  0  0  0  0
   41.5918   24.9597   46.2878 H   0  0  0  0  0  0  0  0  0  0  0  0
  1  6  2  0
  2  3  2  0
  2  1  1  0
  3  4  1  0
  4  5  2  0
  5 18  1  0
  6  5  1  0
  7  1  1  0
  8  7  1  0
  8  9  2  0
 10 15  2  0
 11 12  2  0
 11 10  1  0
 12 13  1  0
 13 14  2  0
 14  8  1  0
 15 14  1  0
 16 12  1  0
 16 17  1  0
 19 18  1  0
 19 20  1  0
 19 21  1  0
 20 21  1  0
 22 21  1  0
 23 22  1  0
  2 24  1  0
  3 25  1  0
 10 26  1  0
 11 27  1  0
 16 28  1  0
 16 29  1  0
 17 30  1  0
 17 31  1  0
 17 32  1  0
 19 33  1  6
 20 34  1  0
 20 35  1  0
 21 36  1  1
 22 37  1  0
 22 38  1  0
 23 39  1  0
 23 40  1  0
 23 41  1  0
M  ISO  8  24  14  25  14  26  14  27  14  28   8  29   8  30   8  31   8
M  ISO  8  32   8  33  13  34  13  35  13  36  13  37   8  38   8  39   8
M  ISO  2  40   8  41   8
M  END
>  <minimizedAffinity>  (1) 
-4.88614035

>  <minimizedRMSD>  (1) 
0.594298959

$$$$
