
     RDKit          3D

 42 45  0  0  1  0  0  0  0  0999 V2000
   46.8810   31.5740   45.6320 C   0  0  0  0  0  0  0  0  0  0  0  0
   47.5090   30.7660   44.6680 C   0  0  0  0  0  0  0  0  0  0  0  0
   47.2840   29.4010   44.7850 C   0  0  0  0  0  0  0  0  0  0  0  0
   46.5160   28.8190   45.7470 N   0  0  0  0  0  0  0  0  0  0  0  0
   45.9400   29.6670   46.6480 C   0  0  0  0  0  0  0  0  0  0  0  0
   46.1320   30.9790   46.5670 N   0  0  0  0  0  0  0  0  0  0  0  0
   47.1080   32.9330   45.5110 O   0  0  0  0  0  0  0  0  0  0  0  0
   46.0350   33.7020   45.0610 C   0  0  0  0  0  0  0  0  0  0  0  0
   45.2330   34.2110   45.8680 O   0  0  0  0  0  0  0  0  0  0  0  0
   44.5610   34.0140   41.7010 C   0  0  0  0  0  0  0  0  0  0  0  0
   45.6930   34.3260   40.9360 C   0  0  0  0  0  0  0  0  0  0  0  0
   46.9130   34.4220   41.5730 C   0  0  0  0  0  0  0  0  0  0  0  0
   46.9960   34.2090   42.9450 N   0  0  0  0  0  0  0  0  0  0  0  0
   45.8590   33.9090   43.6350 C   0  0  0  0  0  0  0  0  0  0  0  0
   44.6770   33.8120   43.0470 N   0  0  0  0  0  0  0  0  0  0  0  0
   48.1900   34.7520   40.8380 C   0  0  0  0  0  0  0  0  0  0  0  0
   48.9640   35.8270   41.6620 C   0  0  0  0  0  0  0  0  0  0  0  0
   44.9200   28.9520   47.9320 S   0  0  0  0  0  0  0  0  0  0  0  0
   44.9970   27.1360   47.7440 C   0  0  1  0  0  0  0  0  0  0  0  0
   44.6530   26.4030   49.0460 C   0  0  0  0  0  0  0  0  0  0  0  0
   43.7700   26.3320   47.8440 C   0  0  2  0  0  0  0  0  0  0  0  0
   43.7380   25.1010   47.0230 C   0  0  0  0  0  0  0  0  0  0  0  0
   42.8310   24.6210   46.1710 C   0  0  0  0  0  0  0  0  0  0  0  0
   43.0520   23.4310   45.5280 C   0  0  0  0  0  0  0  0  0  0  0  0
   44.2900   22.7890   45.8470 C   0  0  0  0  0  0  0  0  0  0  0  0
   45.0490   23.9660   47.0640 S   0  0  0  0  0  0  0  0  0  0  0  0
   48.1389   31.1886   43.8713 H   0  0  0  0  0  0  0  0  0  0  0  0
   47.7615   28.7409   44.0459 H   0  0  0  0  0  0  0  0  0  0  0  0
   43.5769   33.9316   41.2165 H   0  0  0  0  0  0  0  0  0  0  0  0
   45.6106   34.4907   39.8515 H   0  0  0  0  0  0  0  0  0  0  0  0
   48.8058   33.8462   40.7366 H   0  0  0  0  0  0  0  0  0  0  0  0
   47.9611   35.1363   39.8331 H   0  0  0  0  0  0  0  0  0  0  0  0
   48.8258   35.6351   42.7363 H   0  0  0  0  0  0  0  0  0  0  0  0
   50.0348   35.7772   41.4154 H   0  0  0  0  0  0  0  0  0  0  0  0
   48.5771   36.8267   41.4154 H   0  0  0  0  0  0  0  0  0  0  0  0
   45.8037   27.1588   46.9966 H   0  0  0  0  0  0  0  0  0  0  0  0
   45.2361   25.5244   49.3592 H   0  0  0  0  0  0  0  0  0  0  0  0
   44.5273   26.6867   50.1013 H   0  0  0  0  0  0  0  0  0  0  0  0
   42.6942   26.5139   47.7044 H   0  0  0  0  0  0  0  0  0  0  0  0
   41.9033   25.1816   45.9839 H   0  0  0  0  0  0  0  0  0  0  0  0
   42.3300   23.0009   44.8183 H   0  0  0  0  0  0  0  0  0  0  0  0
   44.6907   21.8378   45.4668 H   0  0  0  0  0  0  0  0  0  0  0  0
  1  6  2  0
  2  3  2  0
  2  1  1  0
  3  4  1  0
  4  5  2  0
  5 18  1  0
  6  5  1  0
  7  1  1  0
  8  7  1  0
  8  9  2  0
 10 15  2  0
 11 12  2  0
 11 10  1  0
 12 13  1  0
 13 14  2  0
 14  8  1  0
 15 14  1  0
 16 12  1  0
 16 17  1  0
 19 21  1  0
 19 18  1  0
 19 20  1  0
 21 20  1  0
 22 26  1  0
 22 21  1  0
 23 22  2  0
 24 25  2  0
 24 23  1  0
 25 26  1  0
  2 27  1  0
  3 28  1  0
 10 29  1  0
 11 30  1  0
 16 31  1  0
 16 32  1  0
 17 33  1  0
 17 34  1  0
 17 35  1  0
 19 36  1  6
 20 37  1  0
 20 38  1  0
 21 39  1  1
 23 40  1  0
 24 41  1  0
 25 42  1  0
M  ISO  8  27  14  28  14  29  14  30  14  31   8  32   8  33   8  34   8
M  ISO  8  35   8  36  13  37  13  38  13  39  13  40  14  41  14  42  14
M  END
>  <minimizedAffinity>  (1) 
-4.85173988

>  <minimizedRMSD>  (1) 
0.576388836

$$$$
