
     RDKit          3D

 38 40  0  0  1  0  0  0  0  0999 V2000
   46.9610   33.3100   45.5510 O   0  0  0  0  0  0  0  0  0  0  0  0
   46.8130   31.9290   45.6670 C   0  0  0  0  0  0  0  0  0  0  0  0
   47.4760   31.1890   44.6790 C   0  0  0  0  0  0  0  0  0  0  0  0
   47.3370   29.8160   44.7810 C   0  0  0  0  0  0  0  0  0  0  0  0
   46.6210   29.1720   45.7500 N   0  0  0  0  0  0  0  0  0  0  0  0
   46.0110   29.9600   46.6670 C   0  0  0  0  0  0  0  0  0  0  0  0
   46.1120   31.2830   46.6150 N   0  0  0  0  0  0  0  0  0  0  0  0
   45.0640   29.1580   47.9520 S   0  0  0  0  0  0  0  0  0  0  0  0
   45.1850   27.3570   47.6880 C   0  0  1  0  0  0  0  0  0  0  0  0
   44.4350   26.5710   48.7560 C   0  0  0  0  0  0  0  0  0  0  0  0
   43.9770   26.5800   47.3380 C   0  0  2  0  0  0  0  0  0  0  0  0
   44.2660   25.3670   46.4550 C   0  0  0  0  0  0  0  0  0  0  0  0
   45.8770   34.0030   44.9990 C   0  0  0  0  0  0  0  0  0  0  0  0
   45.0250   34.5390   45.7340 O   0  0  0  0  0  0  0  0  0  0  0  0
   44.5450   34.0100   41.5800 C   0  0  0  0  0  0  0  0  0  0  0  0
   45.7060   34.2950   40.8330 C   0  0  0  0  0  0  0  0  0  0  0  0
   46.8890   34.4730   41.5150 C   0  0  0  0  0  0  0  0  0  0  0  0
   46.9250   34.3720   42.8890 N   0  0  0  0  0  0  0  0  0  0  0  0
   45.7560   34.0910   43.5650 C   0  0  0  0  0  0  0  0  0  0  0  0
   44.6010   33.9160   42.9290 N   0  0  0  0  0  0  0  0  0  0  0  0
   48.1840   34.7810   40.8060 C   0  0  0  0  0  0  0  0  0  0  0  0
   48.9670   35.8360   41.6580 C   0  0  0  0  0  0  0  0  0  0  0  0
   48.0641   31.6648   43.8805 H   0  0  0  0  0  0  0  0  0  0  0  0
   47.8411   29.1963   44.0248 H   0  0  0  0  0  0  0  0  0  0  0  0
   46.1902   27.3967   47.2430 H   0  0  0  0  0  0  0  0  0  0  0  0
   44.8790   25.6622   49.1884 H   0  0  0  0  0  0  0  0  0  0  0  0
   43.9801   26.8061   49.7295 H   0  0  0  0  0  0  0  0  0  0  0  0
   42.9969   26.7847   46.8825 H   0  0  0  0  0  0  0  0  0  0  0  0
   44.4743   24.4929   47.0895 H   0  0  0  0  0  0  0  0  0  0  0  0
   43.3922   25.1593   45.8199 H   0  0  0  0  0  0  0  0  0  0  0  0
   45.1396   25.5756   45.8199 H   0  0  0  0  0  0  0  0  0  0  0  0
   43.5857   33.8628   41.0623 H   0  0  0  0  0  0  0  0  0  0  0  0
   45.6681   34.3730   39.7364 H   0  0  0  0  0  0  0  0  0  0  0  0
   48.7824   33.8633   40.7075 H   0  0  0  0  0  0  0  0  0  0  0  0
   47.9823   35.1779   39.8001 H   0  0  0  0  0  0  0  0  0  0  0  0
   48.8140   35.6299   42.7276 H   0  0  0  0  0  0  0  0  0  0  0  0
   50.0397   35.7743   41.4224 H   0  0  0  0  0  0  0  0  0  0  0  0
   48.5973   36.8449   41.4224 H   0  0  0  0  0  0  0  0  0  0  0  0
  1  2  1  0
  2  7  2  0
  3  4  2  0
  3  2  1  0
  4  5  1  0
  5  6  2  0
  6  8  1  0
  7  6  1  0
  9  8  1  0
  9 10  1  0
 11  9  1  0
 11 10  1  0
 12 11  1  0
 13  1  1  0
 13 14  2  0
 15 20  2  0
 16 17  2  0
 16 15  1  0
 17 18  1  0
 18 19  2  0
 19 13  1  0
 20 19  1  0
 21 17  1  0
 21 22  1  0
  3 23  1  0
  4 24  1  0
  9 25  1  6
 10 26  1  0
 10 27  1  0
 11 28  1  1
 12 29  1  0
 12 30  1  0
 12 31  1  0
 15 32  1  0
 16 33  1  0
 21 34  1  0
 21 35  1  0
 22 36  1  0
 22 37  1  0
 22 38  1  0
M  ISO  8  23  14  24  14  25  13  26  13  27  13  28  13  29   8  30   8
M  ISO  8  31   8  32  14  33  14  34   8  35   8  36   8  37   8  38   8
M  END
>  <minimizedAffinity>  (1) 
-4.6926012

>  <minimizedRMSD>  (1) 
0.0650618598

$$$$
