
     RDKit          3D

 31 34  0  0  0  0  0  0  0  0999 V2000
   44.7200   35.7170   44.9030 C   0  0  0  0  0  0  0  0  0  0  0  0
   44.2750   35.5970   43.5740 C   0  0  0  0  0  0  0  0  0  0  0  0
   44.5200   34.3920   42.9300 C   0  0  0  0  0  0  0  0  0  0  0  0
   45.1670   33.3740   43.5700 N   0  0  0  0  0  0  0  0  0  0  0  0
   45.5810   33.5310   44.8540 C   0  0  0  0  0  0  0  0  0  0  0  0
   45.3510   34.6910   45.4910 N   0  0  0  0  0  0  0  0  0  0  0  0
   44.0630   34.2880   41.5880 N   0  0  0  0  0  0  0  0  0  0  0  0
   44.6200   33.7640   40.4810 C   0  0  0  0  0  0  0  0  0  0  0  0
   43.8010   33.8970   39.4240 N   0  0  0  0  0  0  0  0  0  0  0  0
   42.6970   34.5120   39.8280 C   0  0  0  0  0  0  0  0  0  0  0  0
   41.5540   34.8920   39.1660 C   0  0  0  0  0  0  0  0  0  0  0  0
   40.5960   35.5110   39.8770 N   0  0  0  0  0  0  0  0  0  0  0  0
   40.7560   35.7480   41.1980 C   0  0  0  0  0  0  0  0  0  0  0  0
   41.8620   35.3890   41.8740 N   0  0  0  0  0  0  0  0  0  0  0  0
   42.8540   34.7600   41.1820 C   0  0  0  0  0  0  0  0  0  0  0  0
   46.2670   32.4460   45.5300 C   0  0  0  0  0  0  0  0  0  0  0  0
   47.2370   31.5980   45.0050 C   0  0  0  0  0  0  0  0  0  0  0  0
   47.6320   30.7180   45.9510 N   0  0  0  0  0  0  0  0  0  0  0  0
   46.9200   31.0070   47.0570 C   0  0  0  0  0  0  0  0  0  0  0  0
   46.0900   32.0530   46.8120 N   0  0  0  0  0  0  0  0  0  0  0  0
   45.1590   32.6700   47.7440 C   0  0  0  0  0  0  0  0  0  0  0  0
   44.1340   31.7880   48.1200 F   0  0  0  0  0  0  0  0  0  0  0  0
   44.5930   33.8310   47.2270 F   0  0  0  0  0  0  0  0  0  0  0  0
   45.8040   32.9860   48.9320 F   0  0  0  0  0  0  0  0  0  0  0  0
   44.5505   36.6511   45.4587 H   0  0  0  0  0  0  0  0  0  0  0  0
   43.7550   36.4229   43.0666 H   0  0  0  0  0  0  0  0  0  0  0  0
   45.6122   33.2905   40.4459 H   0  0  0  0  0  0  0  0  0  0  0  0
   41.4276   34.6962   38.0910 H   0  0  0  0  0  0  0  0  0  0  0  0
   39.9472   36.2562   41.7435 H   0  0  0  0  0  0  0  0  0  0  0  0
   47.6236   31.6379   43.9760 H   0  0  0  0  0  0  0  0  0  0  0  0
   46.9992   30.4746   48.0163 H   0  0  0  0  0  0  0  0  0  0  0  0
  1  6  2  0
  2  1  1  0
  3  4  1  0
  3  2  2  0
  4  5  2  0
  5  6  1  0
  5 16  1  0
  7  3  1  0
  8  7  1  0
  9 10  1  0
  9  8  2  0
 10 15  2  0
 11 10  1  0
 11 12  2  0
 12 13  1  0
 13 14  2  0
 15  7  1  0
 15 14  1  0
 16 20  1  0
 17 16  2  0
 17 18  1  0
 18 19  2  0
 20 19  1  0
 20 21  1  0
 21 22  1  0
 21 24  1  0
 23 21  1  0
  1 25  1  0
  2 26  1  0
  8 27  1  0
 11 28  1  0
 13 29  1  0
 17 30  1  0
 19 31  1  0
M  ISO  7  25  14  26  14  27  14  28  14  29  14  30  14  31  14
M  END
>  <minimizedAffinity>  (1) 
-6.22526884

>  <minimizedRMSD>  (1) 
0.740715325

$$$$
