
     RDKit          3D

 33 34  0  0  1  0  0  0  0  0999 V2000
   45.3530   33.0010   47.2480 C   0  0  0  0  0  0  0  0  0  0  0  0
   45.7120   33.1520   45.8890 C   0  0  0  0  0  0  0  0  0  0  0  0
   46.8560   32.4420   45.4720 C   0  0  0  0  0  0  0  0  0  0  0  0
   47.5380   31.6710   46.3620 N   0  0  0  0  0  0  0  0  0  0  0  0
   47.1360   31.5700   47.6600 C   0  0  0  0  0  0  0  0  0  0  0  0
   46.0590   32.2290   48.0880 N   0  0  0  0  0  0  0  0  0  0  0  0
   44.9500   33.9720   45.0190 N   0  0  0  0  0  0  0  0  0  0  0  0
   44.6340   35.3290   45.2470 C   0  0  0  0  0  0  0  0  0  0  0  0
   44.3380   35.6370   46.4760 N   0  0  0  0  0  0  0  0  0  0  0  0
   44.6770   36.1930   44.1070 N   0  0  0  0  0  0  0  0  0  0  0  0
   43.9740   36.5500   46.7670 H   0  0  0  0  0  0  0  0  0  0  0  0
   47.9070   30.7100   48.6120 C   0  0  1  0  0  0  0  0  0  0  0  0
   48.3830   29.4440   47.9910 C   0  0  0  0  0  0  0  0  0  0  0  0
   49.0440   31.5030   49.2100 C   0  0  0  0  0  0  0  0  0  0  0  0
   50.0120   30.5420   50.3510 S   0  0  0  0  0  0  0  0  0  0  0  0
   51.0240   31.5640   51.4090 C   0  0  0  0  0  0  0  0  0  0  0  0
   51.6910   30.9790   52.5510 C   0  0  0  0  0  0  0  0  0  0  0  0
   52.5760   32.4900   53.2620 S   0  0  0  0  0  0  0  0  0  0  0  0
   51.9030   33.5560   51.9440 C   0  0  0  0  0  0  0  0  0  0  0  0
   51.2240   32.8680   51.2330 N   0  0  0  0  0  0  0  0  0  0  0  0
   44.4681   33.5325   47.6282 H   0  0  0  0  0  0  0  0  0  0  0  0
   47.1970   32.5111   44.4285 H   0  0  0  0  0  0  0  0  0  0  0  0
   44.5987   33.5433   44.1508 H   0  0  0  0  0  0  0  0  0  0  0  0
   44.4562   37.1937   44.2106 H   0  0  0  0  0  0  0  0  0  0  0  0
   44.9287   35.8141   43.1829 H   0  0  0  0  0  0  0  0  0  0  0  0
   47.2231   30.4045   49.4176 H   0  0  0  0  0  0  0  0  0  0  0  0
   48.6526   28.7270   48.7805 H   0  0  0  0  0  0  0  0  0  0  0  0
   47.5834   29.0185   47.3668 H   0  0  0  0  0  0  0  0  0  0  0  0
   49.2648   29.6507   47.3668 H   0  0  0  0  0  0  0  0  0  0  0  0
   49.6982   31.8510   48.3971 H   0  0  0  0  0  0  0  0  0  0  0  0
   48.6093   32.3469   49.7658 H   0  0  0  0  0  0  0  0  0  0  0  0
   51.6849   29.9387   52.9083 H   0  0  0  0  0  0  0  0  0  0  0  0
   52.0863   34.6338   51.8229 H   0  0  0  0  0  0  0  0  0  0  0  0
  1  6  2  0
  2  1  1  0
  3  2  2  0
  3  4  1  0
  4  5  2  0
  5  6  1  0
  5 12  1  0
  7  8  1  0
  7  2  1  0
  8  9  2  0
  9 11  1  0
 10  8  1  0
 12 14  1  0
 13 12  1  0
 14 15  1  0
 15 16  1  0
 16 17  2  0
 17 18  1  0
 19 18  1  0
 20 16  1  0
 20 19  2  0
  1 21  1  0
  3 22  1  0
  7 23  1  0
 10 24  1  0
 10 25  1  0
 12 26  1  1
 13 27  1  0
 13 28  1  0
 13 29  1  0
 14 30  1  0
 14 31  1  0
 17 32  1  0
 19 33  1  0
M  ISO  8  21  14  22  14  26   8  27   8  28   8  29   8  30   8  31   8
M  ISO  2  32  14  33  14
M  END
>  <minimizedAffinity>  (1) 
-5.32922888

>  <minimizedRMSD>  (1) 
1.42452955

$$$$
