
     RDKit          3D

 34 35  0  0  1  0  0  0  0  0999 V2000
   45.6620   33.1390   46.7110 C   0  0  0  0  0  0  0  0  0  0  0  0
   45.5020   33.0830   45.2930 C   0  0  0  0  0  0  0  0  0  0  0  0
   46.0030   31.9380   44.6560 C   0  0  0  0  0  0  0  0  0  0  0  0
   46.6030   30.9590   45.3980 N   0  0  0  0  0  0  0  0  0  0  0  0
   46.7200   31.0820   46.7520 C   0  0  0  0  0  0  0  0  0  0  0  0
   46.2590   32.1430   47.3650 N   0  0  0  0  0  0  0  0  0  0  0  0
   44.8600   34.1410   44.5870 N   0  0  0  0  0  0  0  0  0  0  0  0
   44.6620   35.4600   45.0920 C   0  0  0  0  0  0  0  0  0  0  0  0
   44.3360   35.5170   46.3520 N   0  0  0  0  0  0  0  0  0  0  0  0
   44.8430   36.5260   44.1620 N   0  0  0  0  0  0  0  0  0  0  0  0
   43.9940   36.3710   46.8040 H   0  0  0  0  0  0  0  0  0  0  0  0
   47.3750   29.9970   47.5210 C   0  0  1  0  0  0  0  0  0  0  0  0
   46.6570   28.6840   47.4260 C   0  0  0  0  0  0  0  0  0  0  0  0
   48.8250   29.8370   47.1100 C   0  0  0  0  0  0  0  0  0  0  0  0
   49.9430   29.7960   48.5130 S   0  0  0  0  0  0  0  0  0  0  0  0
   49.6160   31.0410   49.7610 C   0  0  0  0  0  0  0  0  0  0  0  0
   50.5490   31.1680   50.9400 C   0  0  0  0  0  0  0  0  0  0  0  0
   50.5020   32.2120   49.8440 C   0  0  0  0  0  0  0  0  0  0  0  0
   45.2894   34.0113   47.2680 H   0  0  0  0  0  0  0  0  0  0  0  0
   45.9136   31.8284   43.5651 H   0  0  0  0  0  0  0  0  0  0  0  0
   44.5122   33.9376   43.6391 H   0  0  0  0  0  0  0  0  0  0  0  0
   44.7143   37.5018   44.4657 H   0  0  0  0  0  0  0  0  0  0  0  0
   45.1024   36.3201   43.1867 H   0  0  0  0  0  0  0  0  0  0  0  0
   47.3304   30.3052   48.5760 H   0  0  0  0  0  0  0  0  0  0  0  0
   46.4499   28.3053   48.4378 H   0  0  0  0  0  0  0  0  0  0  0  0
   45.7092   28.8227   46.8853 H   0  0  0  0  0  0  0  0  0  0  0  0
   47.2852   27.9608   46.8853 H   0  0  0  0  0  0  0  0  0  0  0  0
   48.9299   28.8966   46.5490 H   0  0  0  0  0  0  0  0  0  0  0  0
   49.0943   30.7094   46.4964 H   0  0  0  0  0  0  0  0  0  0  0  0
   48.5310   30.8972   49.6514 H   0  0  0  0  0  0  0  0  0  0  0  0
   50.1515   31.3952   51.9402 H   0  0  0  0  0  0  0  0  0  0  0  0
   51.3283   30.5421   51.3994 H   0  0  0  0  0  0  0  0  0  0  0  0
   51.3458   32.3115   49.1453 H   0  0  0  0  0  0  0  0  0  0  0  0
   50.3493   33.3011   49.8189 H   0  0  0  0  0  0  0  0  0  0  0  0
  1  6  2  0
  2  1  1  0
  3  2  2  0
  3  4  1  0
  4  5  2  0
  5  6  1  0
  5 12  1  0
  7  8  1  0
  7  2  1  0
  8  9  2  0
  9 11  1  0
 10  8  1  0
 13 12  1  0
 14 12  1  0
 14 15  1  0
 15 16  1  0
 16 18  1  0
 16 17  1  0
 18 17  1  0
  1 19  1  0
  3 20  1  0
  7 21  1  0
 10 22  1  0
 10 23  1  0
 12 24  1  1
 13 25  1  0
 13 26  1  0
 13 27  1  0
 14 28  1  0
 14 29  1  0
 16 30  1  0
 17 31  1  0
 17 32  1  0
 18 33  1  0
 18 34  1  0
M  ISO  8  19  14  20  14  24   8  25   8  26   8  27   8  28   8  29   8
M  ISO  5  30  13  31  13  32  13  33  13  34  13
M  END
>  <minimizedAffinity>  (1) 
-4.62919092

>  <minimizedRMSD>  (1) 
1.56698906

$$$$
