
     RDKit          3D

 30 30  0  0  1  0  0  0  0  0999 V2000
   45.8300   33.0420   46.7160 C   0  0  0  0  0  0  0  0  0  0  0  0
   45.5480   33.0220   45.3300 C   0  0  0  0  0  0  0  0  0  0  0  0
   45.9140   31.8600   44.6460 C   0  0  0  0  0  0  0  0  0  0  0  0
   46.5050   30.8370   45.3250 N   0  0  0  0  0  0  0  0  0  0  0  0
   46.7560   30.9050   46.6590 C   0  0  0  0  0  0  0  0  0  0  0  0
   46.4160   32.0020   47.3270 N   0  0  0  0  0  0  0  0  0  0  0  0
   44.9280   34.1250   44.6860 N   0  0  0  0  0  0  0  0  0  0  0  0
   44.6880   35.3860   45.2740 C   0  0  0  0  0  0  0  0  0  0  0  0
   44.3300   35.3680   46.5240 N   0  0  0  0  0  0  0  0  0  0  0  0
   44.8640   36.5270   44.4320 N   0  0  0  0  0  0  0  0  0  0  0  0
   44.0370   36.2040   47.0400 H   0  0  0  0  0  0  0  0  0  0  0  0
   47.4020   29.7720   47.3620 C   0  0  1  0  0  0  0  0  0  0  0  0
   46.7160   28.4740   47.1310 C   0  0  0  0  0  0  0  0  0  0  0  0
   48.8640   29.6860   46.9850 C   0  0  0  0  0  0  0  0  0  0  0  0
   49.9720   29.7960   48.3830 S   0  0  0  0  0  0  0  0  0  0  0  0
   49.2190   30.5430   49.8460 C   0  0  0  0  0  0  0  0  0  0  0  0
   45.5625   33.9309   47.3061 H   0  0  0  0  0  0  0  0  0  0  0  0
   45.7262   31.7715   43.5658 H   0  0  0  0  0  0  0  0  0  0  0  0
   44.6286   33.9945   43.7092 H   0  0  0  0  0  0  0  0  0  0  0  0
   44.7031   37.4730   44.8063 H   0  0  0  0  0  0  0  0  0  0  0  0
   45.1518   36.4035   43.4508 H   0  0  0  0  0  0  0  0  0  0  0  0
   47.3172   29.9749   48.4398 H   0  0  0  0  0  0  0  0  0  0  0  0
   46.4714   28.0112   48.0985 H   0  0  0  0  0  0  0  0  0  0  0  0
   45.7903   28.6447   46.5618 H   0  0  0  0  0  0  0  0  0  0  0  0
   47.3785   27.8054   46.5618 H   0  0  0  0  0  0  0  0  0  0  0  0
   49.0366   28.7244   46.4795 H   0  0  0  0  0  0  0  0  0  0  0  0
   49.0801   30.5461   46.3341 H   0  0  0  0  0  0  0  0  0  0  0  0
   49.6623   30.1032   50.7516 H   0  0  0  0  0  0  0  0  0  0  0  0
   49.4007   31.6279   49.8385 H   0  0  0  0  0  0  0  0  0  0  0  0
   48.1356   30.3526   49.8385 H   0  0  0  0  0  0  0  0  0  0  0  0
  1  6  2  0
  2  1  1  0
  3  4  1  0
  3  2  2  0
  4  5  2  0
  5  6  1  0
  5 12  1  0
  7  8  1  0
  7  2  1  0
  8  9  2  0
  9 11  1  0
 10  8  1  0
 13 12  1  0
 14 12  1  0
 14 15  1  0
 15 16  1  0
  1 17  1  0
  3 18  1  0
  7 19  1  0
 10 20  1  0
 10 21  1  0
 12 22  1  1
 13 23  1  0
 13 24  1  0
 13 25  1  0
 14 26  1  0
 14 27  1  0
 16 28  1  0
 16 29  1  0
 16 30  1  0
M  ISO  8  17  14  18  14  22   8  23   8  24   8  25   8  26   8  27   8
M  ISO  3  28   8  29   8  30   8
M  END
>  <minimizedAffinity>  (1) 
-4.15778112

>  <minimizedRMSD>  (1) 
0.952199757

$$$$
