
     RDKit          3D

 33 35  0  0  0  0  0  0  0  0999 V2000
   47.7390   33.2470   43.5520 C   0  0  0  0  0  0  0  0  0  0  0  0
   46.7120   33.7900   42.7670 C   0  0  0  0  0  0  0  0  0  0  0  0
   45.4200   33.3640   43.0000 C   0  0  0  0  0  0  0  0  0  0  0  0
   45.1700   32.4480   43.9630 N   0  0  0  0  0  0  0  0  0  0  0  0
   46.1850   31.9310   44.7190 C   0  0  0  0  0  0  0  0  0  0  0  0
   47.4420   32.3370   44.5000 N   0  0  0  0  0  0  0  0  0  0  0  0
   45.8970   30.9470   45.7490 C   0  0  0  0  0  0  0  0  0  0  0  0
   45.7110   29.5750   45.5850 C   0  0  0  0  0  0  0  0  0  0  0  0
   45.4630   28.9940   46.7780 N   0  0  0  0  0  0  0  0  0  0  0  0
   45.4920   30.0000   47.6830 C   0  0  0  0  0  0  0  0  0  0  0  0
   45.7560   31.1860   47.0610 N   0  0  0  0  0  0  0  0  0  0  0  0
   45.8700   32.4910   47.6840 C   0  0  0  0  0  0  0  0  0  0  0  0
   45.6360   32.4310   49.0570 F   0  0  0  0  0  0  0  0  0  0  0  0
   45.0170   33.4180   47.1050 F   0  0  0  0  0  0  0  0  0  0  0  0
   47.1740   32.9600   47.5700 F   0  0  0  0  0  0  0  0  0  0  0  0
   42.0470   34.6830   40.7690 C   0  0  0  0  0  0  0  0  0  0  0  0
   42.2470   33.3300   41.0270 C   0  0  0  0  0  0  0  0  0  0  0  0
   43.3660   32.9590   41.7600 C   0  0  0  0  0  0  0  0  0  0  0  0
   44.2850   33.8620   42.2450 C   0  0  0  0  0  0  0  0  0  0  0  0
   44.0480   35.1800   41.9670 C   0  0  0  0  0  0  0  0  0  0  0  0
   42.9510   35.6200   41.2400 C   0  0  0  0  0  0  0  0  0  0  0  0
   40.6880   35.3340   39.8590 S   0  0  0  0  0  0  0  0  0  0  0  0
   41.1790   35.8440   38.5320 O   0  0  0  0  0  0  0  0  0  0  0  0
   40.1130   36.5360   40.5890 O   0  0  0  0  0  0  0  0  0  0  0  0
   48.7811   33.5621   43.3948 H   0  0  0  0  0  0  0  0  0  0  0  0
   46.9299   34.5347   41.9873 H   0  0  0  0  0  0  0  0  0  0  0  0
   45.7593   29.0433   44.6233 H   0  0  0  0  0  0  0  0  0  0  0  0
   45.3267   29.8793   48.7638 H   0  0  0  0  0  0  0  0  0  0  0  0
   41.5369   32.5744   40.6597 H   0  0  0  0  0  0  0  0  0  0  0  0
   43.5264   31.8900   41.9635 H   0  0  0  0  0  0  0  0  0  0  0  0
   44.7630   35.9289   42.3384 H   0  0  0  0  0  0  0  0  0  0  0  0
   42.8026   36.6918   41.0419 H   0  0  0  0  0  0  0  0  0  0  0  0
   39.7517   34.3452   39.7093 H   0  0  0  0  0  0  0  0  0  0  0  0
  1  6  2  0
  2  3  2  0
  2  1  1  0
  3  4  1  0
  4  5  2  0
  5  7  1  0
  6  5  1  0
  7 11  1  0
  8  7  2  0
  8  9  1  0
  9 10  2  0
 11 10  1  0
 11 12  1  0
 12 13  1  0
 14 12  1  0
 15 12  1  0
 16 17  2  0
 16 21  1  0
 17 18  1  0
 18 19  2  0
 19  3  1  0
 20 19  1  0
 21 20  2  0
 22 24  2  0
 22 16  1  0
 23 22  2  0
  1 25  1  0
  2 26  1  0
  8 27  1  0
 10 28  1  0
 17 29  1  0
 18 30  1  0
 20 31  1  0
 21 32  1  0
 22 33  1  0
M  ISO  8  25  14  26  14  27  14  28  14  29  14  30  14  31  14  32  14
M  ISO  1  33  11
M  END
>  <minimizedAffinity>  (1) 
-5.67095613

>  <minimizedRMSD>  (1) 
2.56707716

$$$$
