
     RDKit          3D

 52 53  0  0  1  0  0  0  0  0999 V2000
   47.7970   30.2400   48.2090 C   0  0  1  0  0  0  0  0  0  0  0  0
   45.4550   32.8810   47.1230 C   0  0  0  0  0  0  0  0  0  0  0  0
   45.7110   33.0390   45.7520 C   0  0  0  0  0  0  0  0  0  0  0  0
   46.7120   32.2110   45.2160 C   0  0  0  0  0  0  0  0  0  0  0  0
   47.3570   31.3300   46.0270 N   0  0  0  0  0  0  0  0  0  0  0  0
   47.0670   31.2210   47.3480 C   0  0  0  0  0  0  0  0  0  0  0  0
   46.1180   31.9950   47.8930 N   0  0  0  0  0  0  0  0  0  0  0  0
   44.9840   33.9820   44.9810 N   0  0  0  0  0  0  0  0  0  0  0  0
   44.6540   35.2950   45.3740 C   0  0  0  0  0  0  0  0  0  0  0  0
   44.3160   35.4340   46.6110 N   0  0  0  0  0  0  0  0  0  0  0  0
   44.7420   36.2840   44.3580 N   0  0  0  0  0  0  0  0  0  0  0  0
   43.9190   36.2860   47.0150 H   0  0  0  0  0  0  0  0  0  0  0  0
   47.9200   28.9170   47.5880 C   0  0  0  0  0  0  0  0  0  0  0  0
   49.1660   30.8310   48.5700 C   0  0  0  0  0  0  0  0  0  0  0  0
   49.6160   30.5560   50.2560 S   0  0  0  0  0  0  0  0  0  0  0  0
   50.7590   29.2180   50.5940 C   0  0  1  0  0  0  0  0  0  0  0  0
   50.6950   29.0060   52.0940 C   0  0  0  0  0  0  0  0  0  0  0  0
   50.4580   27.9520   49.8800 C   0  0  0  0  0  0  0  0  0  0  0  0
   50.9690   26.6740   50.4400 C   0  0  0  0  0  0  0  0  0  0  0  0
   50.2520   25.4210   50.0000 C   0  0  0  0  0  0  0  0  0  0  0  0
   50.5250   24.3730   51.0650 C   0  0  0  0  0  0  0  0  0  0  0  0
   52.0170   24.0470   50.9110 C   0  0  0  0  0  0  0  0  0  0  0  0
   52.7620   25.2680   51.3440 C   0  0  0  0  0  0  0  0  0  0  0  0
   52.4380   26.4150   50.3800 C   0  0  0  0  0  0  0  0  0  0  0  0
   47.2116   30.0731   49.1252 H   0  0  0  0  0  0  0  0  0  0  0  0
   44.6800   33.5071   47.5893 H   0  0  0  0  0  0  0  0  0  0  0  0
   46.9718   32.2749   44.1490 H   0  0  0  0  0  0  0  0  0  0  0  0
   44.6682   33.6796   44.0484 H   0  0  0  0  0  0  0  0  0  0  0  0
   44.5154   37.2654   44.5736 H   0  0  0  0  0  0  0  0  0  0  0  0
   45.0324   36.0197   43.4058 H   0  0  0  0  0  0  0  0  0  0  0  0
   47.9914   28.1490   48.3723 H   0  0  0  0  0  0  0  0  0  0  0  0
   47.0361   28.7217   46.9630 H   0  0  0  0  0  0  0  0  0  0  0  0
   48.8247   28.8880   46.9630 H   0  0  0  0  0  0  0  0  0  0  0  0
   49.9279   30.3696   47.9245 H   0  0  0  0  0  0  0  0  0  0  0  0
   49.1037   31.9190   48.4202 H   0  0  0  0  0  0  0  0  0  0  0  0
   51.7595   29.4968   50.2318 H   0  0  0  0  0  0  0  0  0  0  0  0
   50.9760   29.9369   52.6082 H   0  0  0  0  0  0  0  0  0  0  0  0
   49.6714   28.7232   52.3810 H   0  0  0  0  0  0  0  0  0  0  0  0
   51.3911   28.2041   52.3810 H   0  0  0  0  0  0  0  0  0  0  0  0
   50.8706   28.0477   48.8648 H   0  0  0  0  0  0  0  0  0  0  0  0
   49.3648   27.8573   49.9571 H   0  0  0  0  0  0  0  0  0  0  0  0
   50.7242   26.8871   51.4910 H   0  0  0  0  0  0  0  0  0  0  0  0
   49.1712   25.6095   49.9202 H   0  0  0  0  0  0  0  0  0  0  0  0
   50.6036   25.0867   49.0128 H   0  0  0  0  0  0  0  0  0  0  0  0
   50.3163   24.7743   52.0677 H   0  0  0  0  0  0  0  0  0  0  0  0
   49.8886   23.4833   50.9488 H   0  0  0  0  0  0  0  0  0  0  0  0
   52.2871   23.1910   51.5468 H   0  0  0  0  0  0  0  0  0  0  0  0
   52.2615   23.7776   49.8729 H   0  0  0  0  0  0  0  0  0  0  0  0
   52.4561   25.5450   52.3637 H   0  0  0  0  0  0  0  0  0  0  0  0
   53.8436   25.0676   51.3348 H   0  0  0  0  0  0  0  0  0  0  0  0
   52.7249   26.1332   49.3562 H   0  0  0  0  0  0  0  0  0  0  0  0
   52.9952   27.3196   50.6649 H   0  0  0  0  0  0  0  0  0  0  0  0
  1 14  1  0
  2  7  2  0
  3  2  1  0
  4  3  2  0
  4  5  1  0
  5  6  2  0
  6  7  1  0
  6  1  1  0
  8  9  1  0
  8  3  1  0
  9 10  2  0
 10 12  1  0
 11  9  1  0
 13  1  1  0
 14 15  1  0
 15 16  1  0
 16 17  1  0
 18 19  1  0
 18 16  1  0
 20 19  1  0
 20 21  1  0
 22 21  1  0
 22 23  1  0
 24 19  1  0
 24 23  1  0
  1 25  1  1
  2 26  1  0
  4 27  1  0
  8 28  1  0
 11 29  1  0
 11 30  1  0
 13 31  1  0
 13 32  1  0
 13 33  1  0
 14 34  1  0
 14 35  1  0
 16 36  1  1
 17 37  1  0
 17 38  1  0
 17 39  1  0
 18 40  1  0
 18 41  1  0
 19 42  1  0
 20 43  1  0
 20 44  1  0
 21 45  1  0
 21 46  1  0
 22 47  1  0
 22 48  1  0
 23 49  1  0
 23 50  1  0
 24 51  1  0
 24 52  1  0
M  ISO  8  25   8  26  14  27  14  31   8  32   8  33   8  34   8  35   8
M  ISO  8  36   8  37   8  38   8  39   8  40   8  41   8  42  13  43  13
M  ISO  8  44  13  45  13  46  13  47  13  48  13  49  13  50  13  51  13
M  ISO  1  52  13
M  END
>  <minimizedAffinity>  (1) 
-5.05810452

>  <minimizedRMSD>  (1) 
0.631156445

$$$$
