
     RDKit          3D

 28 30  0  0  0  0  0  0  0  0999 V2000
   45.5940   35.3250   42.8750 C   0  0  0  0  0  0  0  0  0  0  0  0
   46.7460   35.0730   42.1050 C   0  0  0  0  0  0  0  0  0  0  0  0
   47.6540   34.1250   42.5860 C   0  0  0  0  0  0  0  0  0  0  0  0
   47.3680   33.5030   43.7670 N   0  0  0  0  0  0  0  0  0  0  0  0
   46.2570   33.7640   44.4810 C   0  0  0  0  0  0  0  0  0  0  0  0
   45.3690   34.6760   44.0340 N   0  0  0  0  0  0  0  0  0  0  0  0
   45.9740   33.1070   45.7110 N   0  0  0  0  0  0  0  0  0  0  0  0
   45.4070   33.6080   46.8040 C   0  0  0  0  0  0  0  0  0  0  0  0
   45.3140   32.6640   47.7570 N   0  0  0  0  0  0  0  0  0  0  0  0
   45.8370   31.5380   47.2460 C   0  0  0  0  0  0  0  0  0  0  0  0
   46.0210   30.2450   47.7430 C   0  0  0  0  0  0  0  0  0  0  0  0
   46.5960   29.3590   46.9200 N   0  0  0  0  0  0  0  0  0  0  0  0
   46.9990   29.6330   45.6670 C   0  0  0  0  0  0  0  0  0  0  0  0
   46.8220   30.8770   45.1910 N   0  0  0  0  0  0  0  0  0  0  0  0
   46.2590   31.8140   45.9440 C   0  0  0  0  0  0  0  0  0  0  0  0
   48.8570   33.7880   41.8910 N   0  0  0  0  0  0  0  0  0  0  0  0
   50.1300   34.1260   42.4040 C   0  0  0  0  0  0  0  0  0  0  0  0
   50.2290   35.2310   43.0810 N   0  0  0  0  0  0  0  0  0  0  0  0
   51.2020   33.2070   42.1250 N   0  0  0  0  0  0  0  0  0  0  0  0
   51.1720   35.4490   43.4730 H   0  0  0  0  0  0  0  0  0  0  0  0
   44.8626   36.0673   42.5227 H   0  0  0  0  0  0  0  0  0  0  0  0
   46.9251   35.6036   41.1582 H   0  0  0  0  0  0  0  0  0  0  0  0
   45.0628   34.6470   46.9133 H   0  0  0  0  0  0  0  0  0  0  0  0
   45.7087   29.9685   48.7608 H   0  0  0  0  0  0  0  0  0  0  0  0
   47.4641   28.8547   45.0442 H   0  0  0  0  0  0  0  0  0  0  0  0
   48.7945   33.2862   40.9937 H   0  0  0  0  0  0  0  0  0  0  0  0
   52.1513   33.4019   42.4738 H   0  0  0  0  0  0  0  0  0  0  0  0
   51.0198   32.3544   41.5765 H   0  0  0  0  0  0  0  0  0  0  0  0
  1  6  2  0
  2  3  2  0
  2  1  1  0
  3  4  1  0
  4  5  2  0
  5  7  1  0
  6  5  1  0
  7 15  1  0
  7  8  1  0
  8  9  2  0
 10 11  2  0
 10  9  1  0
 12 11  1  0
 13 12  2  0
 14 13  1  0
 14 15  2  0
 15 10  1  0
 16 17  1  0
 16  3  1  0
 17 18  2  0
 18 20  1  0
 19 17  1  0
  1 21  1  0
  2 22  1  0
  8 23  1  0
 11 24  1  0
 13 25  1  0
 16 26  1  0
 19 27  1  0
 19 28  1  0
M  ISO  5  21  14  22  14  23  14  24  14  25  14
M  END
>  <minimizedAffinity>  (1) 
-6.1526041

>  <minimizedRMSD>  (1) 
0.429081291

$$$$
