
     RDKit          3D

 29 30  0  0  0  0  0  0  0  0999 V2000
   45.3770   35.2620   43.6280 C   0  0  0  0  0  0  0  0  0  0  0  0
   46.3930   35.0850   42.6770 C   0  0  0  0  0  0  0  0  0  0  0  0
   47.3840   34.1330   42.9520 C   0  0  0  0  0  0  0  0  0  0  0  0
   47.3150   33.4290   44.1210 N   0  0  0  0  0  0  0  0  0  0  0  0
   46.3240   33.6310   45.0010 C   0  0  0  0  0  0  0  0  0  0  0  0
   45.3660   34.5300   44.7720 N   0  0  0  0  0  0  0  0  0  0  0  0
   46.3110   32.8660   46.1970 N   0  0  0  0  0  0  0  0  0  0  0  0
   47.2610   31.8530   46.6160 C   0  0  0  0  0  0  0  0  0  0  0  0
   47.4160   32.2430   48.0920 C   0  0  0  0  0  0  0  0  0  0  0  0
   45.9600   32.3470   48.4830 C   0  0  0  0  0  0  0  0  0  0  0  0
   45.3260   32.9470   47.2580 C   0  0  0  0  0  0  0  0  0  0  0  0
   48.4680   33.8700   42.0520 N   0  0  0  0  0  0  0  0  0  0  0  0
   49.8100   34.1080   42.4060 C   0  0  0  0  0  0  0  0  0  0  0  0
   50.0410   35.1050   43.1850 N   0  0  0  0  0  0  0  0  0  0  0  0
   50.8020   33.2150   41.8630 N   0  0  0  0  0  0  0  0  0  0  0  0
   51.0380   35.2760   43.4390 H   0  0  0  0  0  0  0  0  0  0  0  0
   44.5822   36.0002   43.4455 H   0  0  0  0  0  0  0  0  0  0  0  0
   46.4112   35.6731   41.7476 H   0  0  0  0  0  0  0  0  0  0  0  0
   46.8548   30.8373   46.5008 H   0  0  0  0  0  0  0  0  0  0  0  0
   48.1974   31.8235   46.0396 H   0  0  0  0  0  0  0  0  0  0  0  0
   47.9400   31.4660   48.6679 H   0  0  0  0  0  0  0  0  0  0  0  0
   48.0132   33.1486   48.2744 H   0  0  0  0  0  0  0  0  0  0  0  0
   45.5372   31.3555   48.7023 H   0  0  0  0  0  0  0  0  0  0  0  0
   45.7958   32.9422   49.3933 H   0  0  0  0  0  0  0  0  0  0  0  0
   45.0568   33.9968   47.4460 H   0  0  0  0  0  0  0  0  0  0  0  0
   44.4056   32.4098   46.9853 H   0  0  0  0  0  0  0  0  0  0  0  0
   48.2586   33.4947   41.1159 H   0  0  0  0  0  0  0  0  0  0  0  0
   51.7969   33.3490   42.0935 H   0  0  0  0  0  0  0  0  0  0  0  0
   50.5162   32.4427   41.2444 H   0  0  0  0  0  0  0  0  0  0  0  0
  1  6  2  0
  2  3  2  0
  2  1  1  0
  3  4  1  0
  4  5  2  0
  5  7  1  0
  6  5  1  0
  7  8  1  0
  7 11  1  0
  8  9  1  0
  9 10  1  0
 11 10  1  0
 12 13  1  0
 12  3  1  0
 13 14  2  0
 14 16  1  0
 15 13  1  0
  1 17  1  0
  2 18  1  0
  8 19  1  0
  8 20  1  0
  9 21  1  0
  9 22  1  0
 10 23  1  0
 10 24  1  0
 11 25  1  0
 11 26  1  0
 12 27  1  0
 15 28  1  0
 15 29  1  0
M  ISO  8  17  14  18  14  19  13  20  13  21  13  22  13  23  13  24  13
M  ISO  2  25  13  26  13
M  END
>  <minimizedAffinity>  (1) 
-5.66346693

>  <minimizedRMSD>  (1) 
0.208602428

$$$$
