
     RDKit          3D

 23 24  0  0  0  0  0  0  0  0999 V2000
   45.5390   35.2110   43.0990 C   0  0  0  0  0  0  0  0  0  0  0  0
   46.6530   34.9630   42.2800 C   0  0  0  0  0  0  0  0  0  0  0  0
   47.6410   34.0920   42.7200 C   0  0  0  0  0  0  0  0  0  0  0  0
   47.4670   33.5220   43.9360 N   0  0  0  0  0  0  0  0  0  0  0  0
   46.3910   33.7620   44.7240 C   0  0  0  0  0  0  0  0  0  0  0  0
   45.4350   34.6080   44.2960 N   0  0  0  0  0  0  0  0  0  0  0  0
   48.8140   33.7670   41.9720 N   0  0  0  0  0  0  0  0  0  0  0  0
   50.1040   34.1220   42.4140 C   0  0  0  0  0  0  0  0  0  0  0  0
   50.2240   35.2170   43.0760 N   0  0  0  0  0  0  0  0  0  0  0  0
   51.1780   33.2210   42.0810 N   0  0  0  0  0  0  0  0  0  0  0  0
   51.1850   35.4960   43.3770 H   0  0  0  0  0  0  0  0  0  0  0  0
   46.3070   33.0820   46.0370 C   0  0  0  0  0  0  0  0  0  0  0  0
   45.3300   33.3830   46.9530 C   0  0  0  0  0  0  0  0  0  0  0  0
   45.7230   32.2490   48.3530 S   0  0  0  0  0  0  0  0  0  0  0  0
   47.2040   31.5490   47.3930 C   0  0  0  0  0  0  0  0  0  0  0  0
   47.1430   32.1520   46.4290 N   0  0  0  0  0  0  0  0  0  0  0  0
   44.7507   35.8995   42.7605 H   0  0  0  0  0  0  0  0  0  0  0  0
   46.7419   35.4540   41.2997 H   0  0  0  0  0  0  0  0  0  0  0  0
   48.7137   33.2576   41.0824 H   0  0  0  0  0  0  0  0  0  0  0  0
   52.1403   33.4339   42.3803 H   0  0  0  0  0  0  0  0  0  0  0  0
   50.9834   32.3641   41.5437 H   0  0  0  0  0  0  0  0  0  0  0  0
   44.5154   34.1178   46.8721 H   0  0  0  0  0  0  0  0  0  0  0  0
   47.9249   30.7722   47.6879 H   0  0  0  0  0  0  0  0  0  0  0  0
  1  6  2  0
  2  3  2  0
  2  1  1  0
  3  4  1  0
  4  5  2  0
  5 12  1  0
  6  5  1  0
  7  8  1  0
  7  3  1  0
  8  9  2  0
  9 11  1  0
 10  8  1  0
 12 16  1  0
 12 13  2  0
 13 14  1  0
 15 14  1  0
 16 15  2  0
  1 17  1  0
  2 18  1  0
  7 19  1  0
 10 20  1  0
 10 21  1  0
 13 22  1  0
 15 23  1  0
M  ISO  4  17  14  18  14  22  14  23  14
M  END
>  <minimizedAffinity>  (1) 
-5.31409931

>  <minimizedRMSD>  (1) 
0.597756624

$$$$
