
     RDKit          3D

 24 25  0  0  0  0  0  0  0  0999 V2000
   45.5930   34.9340   43.6730 C   0  0  0  0  0  0  0  0  0  0  0  0
   46.6620   34.8210   42.7480 C   0  0  0  0  0  0  0  0  0  0  0  0
   47.6290   33.8400   42.9690 C   0  0  0  0  0  0  0  0  0  0  0  0
   47.4830   33.0570   44.0590 N   0  0  0  0  0  0  0  0  0  0  0  0
   46.4720   33.1680   44.9280 C   0  0  0  0  0  0  0  0  0  0  0  0
   45.5310   34.0960   44.7460 N   0  0  0  0  0  0  0  0  0  0  0  0
   48.7510   33.6290   42.1090 N   0  0  0  0  0  0  0  0  0  0  0  0
   50.0560   34.0590   42.4650 C   0  0  0  0  0  0  0  0  0  0  0  0
   50.1420   35.1530   43.1630 N   0  0  0  0  0  0  0  0  0  0  0  0
   51.1510   33.2390   42.0150 N   0  0  0  0  0  0  0  0  0  0  0  0
   51.1170   35.4310   43.4180 H   0  0  0  0  0  0  0  0  0  0  0  0
   46.4170   32.2430   46.0980 C   0  0  0  0  0  0  0  0  0  0  0  0
   45.6370   32.6540   47.2940 C   0  0  0  0  0  0  0  0  0  0  0  0
   47.1230   32.5910   47.3580 C   0  0  0  0  0  0  0  0  0  0  0  0
   44.8148   35.6971   43.5246 H   0  0  0  0  0  0  0  0  0  0  0  0
   46.7271   35.4904   41.8776 H   0  0  0  0  0  0  0  0  0  0  0  0
   48.6088   33.1523   41.2071 H   0  0  0  0  0  0  0  0  0  0  0  0
   52.1200   33.5027   42.2441 H   0  0  0  0  0  0  0  0  0  0  0  0
   50.9652   32.3888   41.4640 H   0  0  0  0  0  0  0  0  0  0  0  0
   46.4269   31.3709   45.4276 H   0  0  0  0  0  0  0  0  0  0  0  0
   45.1264   33.6282   47.3098 H   0  0  0  0  0  0  0  0  0  0  0  0
   44.8136   32.2134   47.8753 H   0  0  0  0  0  0  0  0  0  0  0  0
   47.6154   31.8041   47.9481 H   0  0  0  0  0  0  0  0  0  0  0  0
   47.9206   33.2965   47.6337 H   0  0  0  0  0  0  0  0  0  0  0  0
  1  6  2  0
  2  3  2  0
  2  1  1  0
  3  4  1  0
  4  5  2  0
  5 12  1  0
  6  5  1  0
  7  8  1  0
  7  3  1  0
  8  9  2  0
  9 11  1  0
 10  8  1  0
 12 13  1  0
 12 14  1  0
 13 14  1  0
  1 15  1  0
  2 16  1  0
  7 17  1  0
 10 18  1  0
 10 19  1  0
 12 20  1  0
 13 21  1  0
 13 22  1  0
 14 23  1  0
 14 24  1  0
M  ISO  7  15  14  16  14  20  13  21  13  22  13  23  13  24  13
M  END
>  <minimizedAffinity>  (1) 
-4.9028039

>  <minimizedRMSD>  (1) 
0.574629903

$$$$
