
     RDKit          3D

 31 32  0  0  1  0  0  0  0  0999 V2000
   46.3960   34.6430   41.9530 N   0  0  0  0  0  0  0  0  0  0  0  0
   47.7440   35.1020   41.7120 C   0  0  0  0  0  0  0  0  0  0  0  0
   48.3720   34.3390   40.5980 C   0  0  0  0  0  0  0  0  0  0  0  0
   47.4700   34.3720   39.4660 N   0  0  0  0  0  0  0  0  0  0  0  0
   46.3940   33.4510   39.7910 C   0  0  0  0  0  0  0  0  0  0  0  0
   45.6110   33.9210   40.9890 C   0  0  2  0  0  0  0  0  0  0  0  0
   44.5400   36.2330   44.7870 C   0  0  0  0  0  0  0  0  0  0  0  0
   45.1030   36.0880   43.5050 C   0  0  0  0  0  0  0  0  0  0  0  0
   45.7880   34.9050   43.2080 C   0  0  0  0  0  0  0  0  0  0  0  0
   45.8600   33.9560   44.2130 N   0  0  0  0  0  0  0  0  0  0  0  0
   45.3050   34.1450   45.4190 C   0  0  0  0  0  0  0  0  0  0  0  0
   44.6480   35.2710   45.7110 N   0  0  0  0  0  0  0  0  0  0  0  0
   44.4240   34.6310   40.5440 N   0  0  0  0  0  0  0  0  0  0  0  0
   43.1910   34.2550   41.1920 C   0  0  0  0  0  0  0  0  0  0  0  0
   42.9760   33.1490   41.7680 N   0  0  0  0  0  0  0  0  0  0  0  0
   42.1240   35.2240   41.1780 N   0  0  0  0  0  0  0  0  0  0  0  0
   42.0710   32.9080   42.2280 H   0  0  0  0  0  0  0  0  0  0  0  0
   47.7196   36.1698   41.4488 H   0  0  0  0  0  0  0  0  0  0  0  0
   48.3378   34.9457   42.6247 H   0  0  0  0  0  0  0  0  0  0  0  0
   49.3316   34.8015   40.3237 H   0  0  0  0  0  0  0  0  0  0  0  0
   48.5594   33.2997   40.9059 H   0  0  0  0  0  0  0  0  0  0  0  0
   47.9565   34.0678   38.6106 H   0  0  0  0  0  0  0  0  0  0  0  0
   45.7161   33.3739   38.9282 H   0  0  0  0  0  0  0  0  0  0  0  0
   46.8362   32.4723   40.0288 H   0  0  0  0  0  0  0  0  0  0  0  0
   45.2858   33.0339   41.5522 H   0  0  0  0  0  0  0  0  0  0  0  0
   43.9990   37.1581   45.0349 H   0  0  0  0  0  0  0  0  0  0  0  0
   45.0066   36.8862   42.7543 H   0  0  0  0  0  0  0  0  0  0  0  0
   45.3924   33.3579   46.1824 H   0  0  0  0  0  0  0  0  0  0  0  0
   44.4604   35.3559   39.8132 H   0  0  0  0  0  0  0  0  0  0  0  0
   41.2232   35.0047   41.6268 H   0  0  0  0  0  0  0  0  0  0  0  0
   42.2623   36.1357   40.7192 H   0  0  0  0  0  0  0  0  0  0  0  0
  1  9  1  0
  2  1  1  0
  3  2  1  0
  4  5  1  0
  4  3  1  0
  5  6  1  0
  6  1  1  0
  7 12  2  0
  8  7  1  0
  9  8  2  0
  9 10  1  0
 10 11  2  0
 11 12  1  0
 13  6  1  0
 13 14  1  0
 14 15  2  0
 15 17  1  0
 16 14  1  0
  2 18  1  0
  2 19  1  0
  3 20  1  0
  3 21  1  0
  4 22  1  0
  5 23  1  0
  5 24  1  0
  6 25  1  1
  7 26  1  0
  8 27  1  0
 11 28  1  0
 13 29  1  0
 16 30  1  0
 16 31  1  0
M  ISO  8  18  13  19  13  20  13  21  13  22   5  23  13  24  13  25  13
M  ISO  3  26  14  27  14  28  14
M  END
>  <minimizedAffinity>  (1) 
-5.09675217

>  <minimizedRMSD>  (1) 
0.973689973

$$$$
