
     RDKit          3D

 29 31  0  0  0  0  0  0  0  0999 V2000
   44.7220   35.7120   45.0970 C   0  0  0  0  0  0  0  0  0  0  0  0
   44.2450   35.6260   43.7750 C   0  0  0  0  0  0  0  0  0  0  0  0
   44.4600   34.4490   43.0650 C   0  0  0  0  0  0  0  0  0  0  0  0
   45.1180   33.4190   43.6590 N   0  0  0  0  0  0  0  0  0  0  0  0
   45.5710   33.5220   44.9400 C   0  0  0  0  0  0  0  0  0  0  0  0
   45.3730   34.6590   45.6460 N   0  0  0  0  0  0  0  0  0  0  0  0
   46.2730   32.4160   45.5650 C   0  0  0  0  0  0  0  0  0  0  0  0
   47.2340   31.5960   44.9840 C   0  0  0  0  0  0  0  0  0  0  0  0
   47.6570   30.6790   45.8800 N   0  0  0  0  0  0  0  0  0  0  0  0
   46.9710   30.9200   47.0130 C   0  0  0  0  0  0  0  0  0  0  0  0
   46.1250   31.9760   46.8300 N   0  0  0  0  0  0  0  0  0  0  0  0
   45.2110   32.5550   47.8030 C   0  0  0  0  0  0  0  0  0  0  0  0
   44.2290   31.6480   48.1970 F   0  0  0  0  0  0  0  0  0  0  0  0
   44.6030   33.7070   47.3200 F   0  0  0  0  0  0  0  0  0  0  0  0
   45.9010   32.8570   48.9750 F   0  0  0  0  0  0  0  0  0  0  0  0
   43.9720   34.3410   41.6940 C   0  0  0  0  0  0  0  0  0  0  0  0
   43.0670   35.2390   41.2030 C   0  0  0  0  0  0  0  0  0  0  0  0
   42.6750   35.0400   39.8910 C   0  0  0  0  0  0  0  0  0  0  0  0
   43.1800   33.9980   39.1470 C   0  0  0  0  0  0  0  0  0  0  0  0
   44.0990   33.1050   39.6780 C   0  0  0  0  0  0  0  0  0  0  0  0
   44.4530   33.3280   40.9490 N   0  0  0  0  0  0  0  0  0  0  0  0
   44.5665   36.6308   45.6815 H   0  0  0  0  0  0  0  0  0  0  0  0
   43.7137   36.4714   43.3134 H   0  0  0  0  0  0  0  0  0  0  0  0
   47.5957   31.6817   43.9487 H   0  0  0  0  0  0  0  0  0  0  0  0
   47.0765   30.3503   47.9481 H   0  0  0  0  0  0  0  0  0  0  0  0
   42.6751   36.0672   41.8117 H   0  0  0  0  0  0  0  0  0  0  0  0
   41.9469   35.7267   39.4346 H   0  0  0  0  0  0  0  0  0  0  0  0
   42.8469   33.8704   38.1065 H   0  0  0  0  0  0  0  0  0  0  0  0
   44.5096   32.2688   39.0930 H   0  0  0  0  0  0  0  0  0  0  0  0
  1  6  2  0
  2  1  1  0
  3  4  1  0
  3  2  2  0
  4  5  2  0
  5  7  1  0
  5  6  1  0
  7 11  1  0
  8  7  2  0
  8  9  1  0
  9 10  2  0
 11 10  1  0
 11 12  1  0
 12 13  1  0
 12 15  1  0
 14 12  1  0
 16  3  1  0
 17 16  2  0
 18 17  1  0
 19 20  1  0
 19 18  2  0
 20 21  2  0
 21 16  1  0
  1 22  1  0
  2 23  1  0
  8 24  1  0
 10 25  1  0
 17 26  1  0
 18 27  1  0
 19 28  1  0
 20 29  1  0
M  ISO  8  22  14  23  14  24  14  25  14  26  14  27  14  28  14  29  14
M  END
>  <minimizedAffinity>  (1) 
-5.42534685

>  <minimizedRMSD>  (1) 
0.460143119

$$$$
