
     RDKit          3D

 37 39  0  0  1  0  0  0  0  0999 V2000
   46.9600   34.5510   42.2930 N   0  0  0  0  0  0  0  0  0  0  0  0
   48.3630   34.3670   42.4700 C   0  0  0  0  0  0  0  0  0  0  0  0
   48.9420   33.6020   41.3360 C   0  0  0  0  0  0  0  0  0  0  0  0
   48.5120   34.2350   40.0910 N   0  0  0  0  0  0  0  0  0  0  0  0
   47.1290   33.9080   39.9170 C   0  0  0  0  0  0  0  0  0  0  0  0
   46.2800   34.4710   41.0050 C   0  0  1  0  0  0  0  0  0  0  0  0
   44.9790   33.8950   41.1100 N   0  0  0  0  0  0  0  0  0  0  0  0
   43.8360   34.5850   40.8740 C   0  0  0  0  0  0  0  0  0  0  0  0
   42.5510   34.0810   40.9610 C   0  0  0  0  0  0  0  0  0  0  0  0
   41.3870   34.9350   40.6800 C   0  0  0  0  0  0  0  0  0  0  0  0
   42.4560   32.7630   41.3170 C   0  0  0  0  0  0  0  0  0  0  0  0
   41.3220   32.2340   41.4160 O   0  0  0  0  0  0  0  0  0  0  0  0
   43.5540   32.0250   41.5640 N   0  0  0  0  0  0  0  0  0  0  0  0
   44.7720   32.6120   41.4520 C   0  0  0  0  0  0  0  0  0  0  0  0
   45.7430   31.8500   41.7000 O   0  0  0  0  0  0  0  0  0  0  0  0
   44.5410   36.1800   44.6550 C   0  0  0  0  0  0  0  0  0  0  0  0
   45.3210   35.9880   43.5120 C   0  0  0  0  0  0  0  0  0  0  0  0
   46.1260   34.8350   43.4250 C   0  0  0  0  0  0  0  0  0  0  0  0
   46.0930   33.9690   44.4760 N   0  0  0  0  0  0  0  0  0  0  0  0
   45.3240   34.1870   45.5690 C   0  0  0  0  0  0  0  0  0  0  0  0
   44.5590   35.2820   45.6510 N   0  0  0  0  0  0  0  0  0  0  0  0
   48.8513   35.3510   42.5279 H   0  0  0  0  0  0  0  0  0  0  0  0
   48.5300   33.8014   43.3986 H   0  0  0  0  0  0  0  0  0  0  0  0
   50.0400   33.6148   41.4003 H   0  0  0  0  0  0  0  0  0  0  0  0
   48.5999   32.5570   41.3687 H   0  0  0  0  0  0  0  0  0  0  0  0
   48.6298   35.2563   40.1534 H   0  0  0  0  0  0  0  0  0  0  0  0
   46.7868   34.3139   38.9536 H   0  0  0  0  0  0  0  0  0  0  0  0
   47.0333   32.8125   39.9443 H   0  0  0  0  0  0  0  0  0  0  0  0
   46.1033   35.5075   40.6817 H   0  0  0  0  0  0  0  0  0  0  0  0
   43.9402   35.6418   40.5872 H   0  0  0  0  0  0  0  0  0  0  0  0
   40.9371   35.2651   41.6279 H   0  0  0  0  0  0  0  0  0  0  0  0
   41.7080   35.8135   40.1010 H   0  0  0  0  0  0  0  0  0  0  0  0
   40.6454   34.3652   40.1010 H   0  0  0  0  0  0  0  0  0  0  0  0
   43.4713   31.0341   41.8328 H   0  0  0  0  0  0  0  0  0  0  0  0
   43.9069   37.0750   44.7388 H   0  0  0  0  0  0  0  0  0  0  0  0
   45.3069   36.7239   42.6945 H   0  0  0  0  0  0  0  0  0  0  0  0
   45.3281   33.4598   46.3943 H   0  0  0  0  0  0  0  0  0  0  0  0
  1  2  1  0
  1 18  1  0
  3  2  1  0
  4  3  1  0
  5  4  1  0
  5  6  1  0
  6  7  1  0
  6  1  1  0
  7 14  1  0
  8  9  2  0
  8  7  1  0
  9 11  1  0
 10  9  1  0
 11 12  2  0
 11 13  1  0
 14 13  1  0
 14 15  2  0
 16 21  2  0
 17 16  1  0
 18 17  2  0
 18 19  1  0
 19 20  2  0
 20 21  1  0
  2 22  1  0
  2 23  1  0
  3 24  1  0
  3 25  1  0
  4 26  1  0
  5 27  1  0
  5 28  1  0
  6 29  1  6
  8 30  1  0
 10 31  1  0
 10 32  1  0
 10 33  1  0
 13 34  1  0
 16 35  1  0
 17 36  1  0
 20 37  1  0
M  ISO  8  22  13  23  13  24  13  25  13  26   5  27  13  28  13  29  13
M  ISO  8  30  14  31   8  32   8  33   8  34   9  35  14  36  14  37  14
M  END
>  <minimizedAffinity>  (1) 
-5.50150394

>  <minimizedRMSD>  (1) 
1.48925221

$$$$
