
     RDKit          3D

 40 43  0  0  1  0  0  0  0  0999 V2000
   46.6530   34.6350   42.1490 N   0  0  0  0  0  0  0  0  0  0  0  0
   48.0840   34.8370   42.1170 C   0  0  0  0  0  0  0  0  0  0  0  0
   48.7030   34.0750   41.0000 C   0  0  0  0  0  0  0  0  0  0  0  0
   47.9690   34.4060   39.7790 N   0  0  0  0  0  0  0  0  0  0  0  0
   46.7220   33.7000   39.8790 C   0  0  0  0  0  0  0  0  0  0  0  0
   45.8940   34.1940   41.0160 C   0  0  1  0  0  0  0  0  0  0  0  0
   44.7100   33.3830   41.2860 C   0  0  0  0  0  0  0  0  0  0  0  0
   44.7600   32.0920   41.8370 C   0  0  0  0  0  0  0  0  0  0  0  0
   43.7180   31.2590   42.1160 C   0  0  0  0  0  0  0  0  0  0  0  0
   42.4630   31.7390   41.8260 C   0  0  0  0  0  0  0  0  0  0  0  0
   42.2830   32.9940   41.2810 C   0  0  0  0  0  0  0  0  0  0  0  0
   41.0140   33.4500   41.0060 C   0  0  0  0  0  0  0  0  0  0  0  0
   40.8220   34.7130   40.4680 C   0  0  0  0  0  0  0  0  0  0  0  0
   41.9130   35.5120   40.2060 C   0  0  0  0  0  0  0  0  0  0  0  0
   43.1560   35.0010   40.5010 C   0  0  0  0  0  0  0  0  0  0  0  0
   43.3970   33.7700   41.0300 C   0  0  0  0  0  0  0  0  0  0  0  0
   44.4360   36.1320   44.7570 C   0  0  0  0  0  0  0  0  0  0  0  0
   45.0940   35.9890   43.5380 C   0  0  0  0  0  0  0  0  0  0  0  0
   45.9320   34.8870   43.3440 C   0  0  0  0  0  0  0  0  0  0  0  0
   46.0260   34.0380   44.3990 N   0  0  0  0  0  0  0  0  0  0  0  0
   45.3950   34.1760   45.5670 C   0  0  0  0  0  0  0  0  0  0  0  0
   44.6000   35.2250   45.7470 N   0  0  0  0  0  0  0  0  0  0  0  0
   48.2935   35.9083   41.9816 H   0  0  0  0  0  0  0  0  0  0  0  0
   48.5106   34.4788   43.0655 H   0  0  0  0  0  0  0  0  0  0  0  0
   49.7598   34.3604   40.8915 H   0  0  0  0  0  0  0  0  0  0  0  0
   48.6569   32.9939   41.1975 H   0  0  0  0  0  0  0  0  0  0  0  0
   48.4930   34.0956   38.9484 H   0  0  0  0  0  0  0  0  0  0  0  0
   46.1597   33.8369   38.9436 H   0  0  0  0  0  0  0  0  0  0  0  0
   46.9447   32.6373   40.0555 H   0  0  0  0  0  0  0  0  0  0  0  0
   45.4472   35.1375   40.6694 H   0  0  0  0  0  0  0  0  0  0  0  0
   45.7629   31.7060   42.0721 H   0  0  0  0  0  0  0  0  0  0  0  0
   43.8725   30.2595   42.5486 H   0  0  0  0  0  0  0  0  0  0  0  0
   41.5845   31.1101   42.0325 H   0  0  0  0  0  0  0  0  0  0  0  0
   40.1458   32.8076   41.2146 H   0  0  0  0  0  0  0  0  0  0  0  0
   39.8058   35.0745   40.2519 H   0  0  0  0  0  0  0  0  0  0  0  0
   41.7952   36.5185   39.7780 H   0  0  0  0  0  0  0  0  0  0  0  0
   44.0268   35.6398   40.2922 H   0  0  0  0  0  0  0  0  0  0  0  0
   43.7732   36.9952   44.9171 H   0  0  0  0  0  0  0  0  0  0  0  0
   44.9563   36.7326   42.7392 H   0  0  0  0  0  0  0  0  0  0  0  0
   45.5310   33.4336   46.3672 H   0  0  0  0  0  0  0  0  0  0  0  0
  1 19  1  0
  2  1  1  0
  3  2  1  0
  4  5  1  0
  4  3  1  0
  5  6  1  0
  6  7  1  0
  6  1  1  0
  7  8  2  0
  8  9  1  0
 10  9  2  0
 11 10  1  0
 12 11  2  0
 13 12  1  0
 14 13  2  0
 14 15  1  0
 15 16  2  0
 16 11  1  0
 16  7  1  0
 17 22  2  0
 18 17  1  0
 19 18  2  0
 19 20  1  0
 20 21  2  0
 21 22  1  0
  2 23  1  0
  2 24  1  0
  3 25  1  0
  3 26  1  0
  4 27  1  0
  5 28  1  0
  5 29  1  0
  6 30  1  6
  8 31  1  0
  9 32  1  0
 10 33  1  0
 12 34  1  0
 13 35  1  0
 14 36  1  0
 15 37  1  0
 17 38  1  0
 18 39  1  0
 21 40  1  0
M  ISO  8  23  13  24  13  25  13  26  13  27   5  28  13  29  13  30  13
M  ISO  8  31  14  32  14  33  14  34  14  35  14  36  14  37  14  38  14
M  ISO  2  39  14  40  14
M  END
>  <minimizedAffinity>  (1) 
-6.00154972

>  <minimizedRMSD>  (1) 
1.2881223

$$$$
