
     RDKit          3D

 27 28  0  0  1  0  0  0  0  0999 V2000
   46.7200   34.0030   41.9990 N   0  0  0  0  0  0  0  0  0  0  0  0
   46.3910   32.7220   41.4090 C   0  0  0  0  0  0  0  0  0  0  0  0
   46.7420   32.7090   39.9590 C   0  0  0  0  0  0  0  0  0  0  0  0
   48.1460   33.1110   39.8540 N   0  0  0  0  0  0  0  0  0  0  0  0
   48.1450   34.5370   40.0760 C   0  0  0  0  0  0  0  0  0  0  0  0
   47.6800   34.9220   41.4580 C   0  0  2  0  0  0  0  0  0  0  0  0
   45.4050   34.1550   45.5000 C   0  0  0  0  0  0  0  0  0  0  0  0
   46.0970   33.6560   44.3830 C   0  0  0  0  0  0  0  0  0  0  0  0
   46.0530   34.4070   43.2040 C   0  0  0  0  0  0  0  0  0  0  0  0
   45.3330   35.5880   43.2120 N   0  0  0  0  0  0  0  0  0  0  0  0
   44.6910   36.0100   44.3170 C   0  0  0  0  0  0  0  0  0  0  0  0
   44.7270   35.3000   45.4500 N   0  0  0  0  0  0  0  0  0  0  0  0
   48.8400   35.0290   42.3690 C   0  0  0  0  0  0  0  0  0  0  0  0
   49.5930   35.9840   41.9920 O   0  0  0  0  0  0  0  0  0  0  0  0
   49.9290   35.1290   43.2250 O   0  0  0  0  0  0  0  0  0  0  0  0
   46.9543   31.9305   41.9249 H   0  0  0  0  0  0  0  0  0  0  0  0
   45.3099   32.5487   41.5149 H   0  0  0  0  0  0  0  0  0  0  0  0
   46.6068   31.6982   39.5468 H   0  0  0  0  0  0  0  0  0  0  0  0
   46.0944   33.3943   39.3925 H   0  0  0  0  0  0  0  0  0  0  0  0
   48.7134   32.6339   40.5691 H   0  0  0  0  0  0  0  0  0  0  0  0
   49.1686   34.9138   39.9338 H   0  0  0  0  0  0  0  0  0  0  0  0
   47.4388   34.9794   39.3580 H   0  0  0  0  0  0  0  0  0  0  0  0
   47.1784   35.8968   41.3672 H   0  0  0  0  0  0  0  0  0  0  0  0
   45.4240   33.5846   46.4404 H   0  0  0  0  0  0  0  0  0  0  0  0
   46.6534   32.7085   44.4343 H   0  0  0  0  0  0  0  0  0  0  0  0
   44.1275   36.9542   44.2879 H   0  0  0  0  0  0  0  0  0  0  0  0
   50.6984   35.7028   42.9822 H   0  0  0  0  0  0  0  0  0  0  0  0
  1  9  1  0
  2  1  1  0
  3  2  1  0
  4  3  1  0
  4  5  1  0
  5  6  1  0
  6  1  1  0
  6 13  1  0
  8  7  2  0
  9 10  2  0
  9  8  1  0
 10 11  1  0
 11 12  2  0
 12  7  1  0
 13 15  1  0
 14 13  2  0
  2 16  1  0
  2 17  1  0
  3 18  1  0
  3 19  1  0
  4 20  1  0
  5 21  1  0
  5 22  1  0
  6 23  1  6
  7 24  1  0
  8 25  1  0
 11 26  1  0
 15 27  1  0
M  ISO  8  16  13  17  13  18  13  19  13  20   5  21  13  22  13  23  13
M  ISO  4  24  14  25  14  26  14  27   3
M  END
>  <minimizedAffinity>  (1) 
-5.02461243

>  <minimizedRMSD>  (1) 
3.03474569

$$$$
