
     RDKit          3D

 38 40  0  0  1  0  0  0  0  0999 V2000
   45.6610   34.2130   41.7050 N   0  0  0  0  0  0  0  0  0  0  0  0
   46.9410   34.5800   41.1430 C   0  0  0  0  0  0  0  0  0  0  0  0
   47.2550   33.6790   39.9910 C   0  0  0  0  0  0  0  0  0  0  0  0
   46.1350   33.8280   39.0560 N   0  0  0  0  0  0  0  0  0  0  0  0
   45.0630   33.0640   39.6190 C   0  0  0  0  0  0  0  0  0  0  0  0
   44.6450   33.5020   40.9860 C   0  0  2  0  0  0  0  0  0  0  0  0
   44.5330   36.0160   44.7910 C   0  0  0  0  0  0  0  0  0  0  0  0
   44.8040   35.7530   43.4520 C   0  0  0  0  0  0  0  0  0  0  0  0
   45.3660   34.5440   43.0540 C   0  0  0  0  0  0  0  0  0  0  0  0
   45.6220   33.6620   44.0580 N   0  0  0  0  0  0  0  0  0  0  0  0
   45.3570   33.9250   45.3460 C   0  0  0  0  0  0  0  0  0  0  0  0
   44.8190   35.0880   45.7090 N   0  0  0  0  0  0  0  0  0  0  0  0
   43.3230   34.0330   41.0410 N   0  0  0  0  0  0  0  0  0  0  0  0
   43.0170   35.1460   40.2200 C   0  0  0  0  0  0  0  0  0  0  0  0
   42.0390   34.9050   39.1070 C   0  0  0  0  0  0  0  0  0  0  0  0
   40.9790   33.9960   39.4640 N   0  0  0  0  0  0  0  0  0  0  0  0
   40.9900   33.6460   40.8680 C   0  0  0  0  0  0  0  0  0  0  0  0
   42.3350   33.0060   41.1240 C   0  0  0  0  0  0  0  0  0  0  0  0
   46.9031   35.6224   40.7938 H   0  0  0  0  0  0  0  0  0  0  0  0
   47.7218   34.4795   41.9113 H   0  0  0  0  0  0  0  0  0  0  0  0
   48.1977   33.9825   39.5122 H   0  0  0  0  0  0  0  0  0  0  0  0
   47.3793   32.6347   40.3136 H   0  0  0  0  0  0  0  0  0  0  0  0
   46.3897   33.4613   38.1278 H   0  0  0  0  0  0  0  0  0  0  0  0
   44.1935   33.1463   38.9503 H   0  0  0  0  0  0  0  0  0  0  0  0
   45.4308   32.0321   39.7184 H   0  0  0  0  0  0  0  0  0  0  0  0
   44.5474   32.5834   41.5832 H   0  0  0  0  0  0  0  0  0  0  0  0
   44.0885   36.9766   45.0905 H   0  0  0  0  0  0  0  0  0  0  0  0
   44.5696   36.5149   42.6940 H   0  0  0  0  0  0  0  0  0  0  0  0
   45.5870   33.1704   46.1126 H   0  0  0  0  0  0  0  0  0  0  0  0
   42.6020   35.9341   40.8655 H   0  0  0  0  0  0  0  0  0  0  0  0
   43.9626   35.4134   39.7256 H   0  0  0  0  0  0  0  0  0  0  0  0
   42.5840   34.4854   38.2486 H   0  0  0  0  0  0  0  0  0  0  0  0
   41.5717   35.8722   38.8699 H   0  0  0  0  0  0  0  0  0  0  0  0
   40.0763   34.4398   39.2425 H   0  0  0  0  0  0  0  0  0  0  0  0
   40.8705   34.5468   41.4880 H   0  0  0  0  0  0  0  0  0  0  0  0
   40.1638   32.9655   41.1214 H   0  0  0  0  0  0  0  0  0  0  0  0
   42.5329   32.2327   40.3671 H   0  0  0  0  0  0  0  0  0  0  0  0
   42.3544   32.5297   42.1153 H   0  0  0  0  0  0  0  0  0  0  0  0
  1  9  1  0
  2  1  1  0
  3  2  1  0
  4  5  1  0
  4  3  1  0
  5  6  1  0
  6 13  1  0
  6  1  1  0
  7 12  2  0
  8  7  1  0
  9  8  2  0
  9 10  1  0
 10 11  2  0
 11 12  1  0
 13 18  1  0
 14 13  1  0
 15 16  1  0
 15 14  1  0
 16 17  1  0
 17 18  1  0
  2 19  1  0
  2 20  1  0
  3 21  1  0
  3 22  1  0
  4 23  1  0
  5 24  1  0
  5 25  1  0
  6 26  1  1
  7 27  1  0
  8 28  1  0
 11 29  1  0
 14 30  1  0
 14 31  1  0
 15 32  1  0
 15 33  1  0
 16 34  1  0
 17 35  1  0
 17 36  1  0
 18 37  1  0
 18 38  1  0
M  ISO  8  19  13  20  13  21  13  22  13  23   5  24  13  25  13  26  13
M  ISO  8  27  14  28  14  29  14  30  13  31  13  32  13  33  13  34   5
M  ISO  4  35  13  36  13  37  13  38  13
M  END
>  <minimizedAffinity>  (1) 
-4.93795443

>  <minimizedRMSD>  (1) 
1.62097239

$$$$
