
     RDKit          3D

 34 36  0  0  1  0  0  0  0  0999 V2000
   47.0380   34.5140   42.3510 N   0  0  0  0  0  0  0  0  0  0  0  0
   48.4380   34.2620   42.5780 C   0  0  0  0  0  0  0  0  0  0  0  0
   49.0340   33.5460   41.4230 C   0  0  0  0  0  0  0  0  0  0  0  0
   48.6710   34.2570   40.1990 N   0  0  0  0  0  0  0  0  0  0  0  0
   47.2880   33.9410   39.9880 C   0  0  0  0  0  0  0  0  0  0  0  0
   46.3980   34.5260   41.0570 C   0  0  1  0  0  0  0  0  0  0  0  0
   44.5490   36.0650   44.6870 C   0  0  0  0  0  0  0  0  0  0  0  0
   45.3440   35.8870   43.5570 C   0  0  0  0  0  0  0  0  0  0  0  0
   46.1890   34.7760   43.4710 C   0  0  0  0  0  0  0  0  0  0  0  0
   46.1610   33.9300   44.5390 N   0  0  0  0  0  0  0  0  0  0  0  0
   45.3870   34.1170   45.6190 C   0  0  0  0  0  0  0  0  0  0  0  0
   44.5880   35.1750   45.6950 N   0  0  0  0  0  0  0  0  0  0  0  0
   45.0700   33.8670   41.0380 C   0  0  0  0  0  0  0  0  0  0  0  0
   44.8150   32.5620   41.4060 C   0  0  0  0  0  0  0  0  0  0  0  0
   43.5500   32.0260   41.3590 C   0  0  0  0  0  0  0  0  0  0  0  0
   42.4630   32.7630   40.9410 C   0  0  0  0  0  0  0  0  0  0  0  0
   42.6570   34.0750   40.5600 C   0  0  0  0  0  0  0  0  0  0  0  0
   43.9300   34.5670   40.6230 C   0  0  0  0  0  0  0  0  0  0  0  0
   48.9598   35.2203   42.7176 H   0  0  0  0  0  0  0  0  0  0  0  0
   48.5445   33.6362   43.4764 H   0  0  0  0  0  0  0  0  0  0  0  0
   50.1288   33.5210   41.5268 H   0  0  0  0  0  0  0  0  0  0  0  0
   48.6573   32.5132   41.3847 H   0  0  0  0  0  0  0  0  0  0  0  0
   48.7971   35.2723   40.3182 H   0  0  0  0  0  0  0  0  0  0  0  0
   46.9784   34.3417   39.0115 H   0  0  0  0  0  0  0  0  0  0  0  0
   47.1832   32.8466   40.0243 H   0  0  0  0  0  0  0  0  0  0  0  0
   46.2242   35.5893   40.8355 H   0  0  0  0  0  0  0  0  0  0  0  0
   43.8849   36.9392   44.7555 H   0  0  0  0  0  0  0  0  0  0  0  0
   45.3072   36.6176   42.7355 H   0  0  0  0  0  0  0  0  0  0  0  0
   45.4144   33.3909   46.4449 H   0  0  0  0  0  0  0  0  0  0  0  0
   45.6491   31.9314   41.7473 H   0  0  0  0  0  0  0  0  0  0  0  0
   43.4012   30.9795   41.6636 H   0  0  0  0  0  0  0  0  0  0  0  0
   41.4594   32.3137   40.9116 H   0  0  0  0  0  0  0  0  0  0  0  0
   41.8190   34.7006   40.2187 H   0  0  0  0  0  0  0  0  0  0  0  0
   44.0735   35.6142   40.3183 H   0  0  0  0  0  0  0  0  0  0  0  0
  1  2  1  0
  1  9  1  0
  3  2  1  0
  4  3  1  0
  5  4  1  0
  5  6  1  0
  6  1  1  0
  7 12  2  0
  8  7  1  0
  9  8  2  0
  9 10  1  0
 10 11  2  0
 11 12  1  0
 13  6  1  0
 13 14  2  0
 15 14  1  0
 16 15  2  0
 17 18  2  0
 17 16  1  0
 18 13  1  0
  2 19  1  0
  2 20  1  0
  3 21  1  0
  3 22  1  0
  4 23  1  0
  5 24  1  0
  5 25  1  0
  6 26  1  6
  7 27  1  0
  8 28  1  0
 11 29  1  0
 14 30  1  0
 15 31  1  0
 16 32  1  0
 17 33  1  0
 18 34  1  0
M  ISO  8  19  13  20  13  21  13  22  13  23   5  24  13  25  13  26  13
M  ISO  8  27  14  28  14  29  14  30  14  31  14  32  14  33  14  34  14
M  END
>  <minimizedAffinity>  (1) 
-5.02359772

>  <minimizedRMSD>  (1) 
1.01158476

$$$$
