
     RDKit          3D

 33 35  0  0  1  0  0  0  0  0999 V2000
   46.1320   34.3390   42.0140 N   0  0  0  0  0  0  0  0  0  0  0  0
   47.3140   35.0410   41.5590 C   0  0  0  0  0  0  0  0  0  0  0  0
   47.9420   34.2670   40.4370 C   0  0  0  0  0  0  0  0  0  0  0  0
   46.9130   34.0310   39.4360 N   0  0  0  0  0  0  0  0  0  0  0  0
   46.1090   32.9600   39.9830 C   0  0  0  0  0  0  0  0  0  0  0  0
   45.4010   33.3710   41.2510 C   0  0  2  0  0  0  0  0  0  0  0  0
   44.4860   35.9280   44.9850 C   0  0  0  0  0  0  0  0  0  0  0  0
   44.9360   35.7360   43.6870 C   0  0  0  0  0  0  0  0  0  0  0  0
   45.6490   34.6020   43.3240 C   0  0  0  0  0  0  0  0  0  0  0  0
   45.8580   33.7230   44.3410 N   0  0  0  0  0  0  0  0  0  0  0  0
   45.4260   33.9060   45.5900 C   0  0  0  0  0  0  0  0  0  0  0  0
   44.7440   35.0000   45.9150 N   0  0  0  0  0  0  0  0  0  0  0  0
   43.9940   33.7900   40.9190 C   0  0  0  0  0  0  0  0  0  0  0  0
   42.8890   33.0620   41.3800 C   0  0  0  0  0  0  0  0  0  0  0  0
   41.5890   33.3370   41.1150 C   0  0  0  0  0  0  0  0  0  0  0  0
   41.3190   34.4230   40.3250 C   0  0  0  0  0  0  0  0  0  0  0  0
   42.4030   35.1430   39.8680 C   0  0  0  0  0  0  0  0  0  0  0  0
   43.6890   34.8660   40.1350 N   0  0  0  0  0  0  0  0  0  0  0  0
   47.0333   36.0434   41.2034 H   0  0  0  0  0  0  0  0  0  0  0  0
   48.0298   35.1388   42.3885 H   0  0  0  0  0  0  0  0  0  0  0  0
   48.7672   34.8464   39.9974 H   0  0  0  0  0  0  0  0  0  0  0  0
   48.3487   33.3136   40.8054 H   0  0  0  0  0  0  0  0  0  0  0  0
   47.3354   33.7474   38.5404 H   0  0  0  0  0  0  0  0  0  0  0  0
   45.3568   32.6647   39.2367 H   0  0  0  0  0  0  0  0  0  0  0  0
   46.7804   32.1233   40.2263 H   0  0  0  0  0  0  0  0  0  0  0  0
   45.3444   32.5027   41.9240 H   0  0  0  0  0  0  0  0  0  0  0  0
   43.9220   36.8350   45.2480 H   0  0  0  0  0  0  0  0  0  0  0  0
   44.7224   36.5016   42.9265 H   0  0  0  0  0  0  0  0  0  0  0  0
   45.6357   33.1458   46.3569 H   0  0  0  0  0  0  0  0  0  0  0  0
   43.0958   32.1877   42.0148 H   0  0  0  0  0  0  0  0  0  0  0  0
   40.7800   32.7110   41.5195 H   0  0  0  0  0  0  0  0  0  0  0  0
   40.2879   34.7070   40.0676 H   0  0  0  0  0  0  0  0  0  0  0  0
   42.1966   36.0165   39.2321 H   0  0  0  0  0  0  0  0  0  0  0  0
  1  9  1  0
  2  1  1  0
  3  2  1  0
  4  5  1  0
  4  3  1  0
  5  6  1  0
  6  1  1  0
  7 12  2  0
  8  7  1  0
  9  8  2  0
  9 10  1  0
 10 11  2  0
 11 12  1  0
 13  6  1  0
 13 14  2  0
 15 14  1  0
 16 15  2  0
 17 18  2  0
 17 16  1  0
 18 13  1  0
  2 19  1  0
  2 20  1  0
  3 21  1  0
  3 22  1  0
  4 23  1  0
  5 24  1  0
  5 25  1  0
  6 26  1  1
  7 27  1  0
  8 28  1  0
 11 29  1  0
 14 30  1  0
 15 31  1  0
 16 32  1  0
 17 33  1  0
M  ISO  8  19  13  20  13  21  13  22  13  23   5  24  13  25  13  26  13
M  ISO  7  27  14  28  14  29  14  30  14  31  14  32  14  33  14
M  END
>  <minimizedAffinity>  (1) 
-4.88499832

>  <minimizedRMSD>  (1) 
1.87833285

$$$$
