
     RDKit          3D

 39 41  0  0  1  0  0  0  0  0999 V2000
   46.8570   34.7030   42.1550 N   0  0  0  0  0  0  0  0  0  0  0  0
   48.2890   34.8610   42.2210 C   0  0  0  0  0  0  0  0  0  0  0  0
   48.9560   34.1290   41.1130 C   0  0  0  0  0  0  0  0  0  0  0  0
   48.3130   34.5650   39.8690 N   0  0  0  0  0  0  0  0  0  0  0  0
   47.0380   33.8660   39.8530 C   0  0  0  0  0  0  0  0  0  0  0  0
   46.1580   34.3810   40.9410 C   0  0  1  0  0  0  0  0  0  0  0  0
   44.5100   36.0970   44.7090 C   0  0  0  0  0  0  0  0  0  0  0  0
   45.2410   35.9770   43.5300 C   0  0  0  0  0  0  0  0  0  0  0  0
   46.0890   34.8750   43.3390 C   0  0  0  0  0  0  0  0  0  0  0  0
   46.1370   33.9690   44.3560 N   0  0  0  0  0  0  0  0  0  0  0  0
   45.4180   34.1130   45.4830 C   0  0  0  0  0  0  0  0  0  0  0  0
   44.6130   35.1590   45.6650 N   0  0  0  0  0  0  0  0  0  0  0  0
   44.9320   33.6880   41.1080 N   0  0  0  0  0  0  0  0  0  0  0  0
   43.7800   34.3580   40.6200 C   0  0  0  0  0  0  0  0  0  0  0  0
   43.3060   33.9800   39.2600 C   0  0  0  0  0  0  0  0  0  0  0  0
   43.7270   32.6270   38.7850 C   0  0  0  0  0  0  0  0  0  0  0  0
   43.8820   31.7400   39.9960 C   0  0  0  0  0  0  0  0  0  0  0  0
   44.9300   32.2720   40.9520 C   0  0  0  0  0  0  0  0  0  0  0  0
   48.5370   35.9301   42.1467 H   0  0  0  0  0  0  0  0  0  0  0  0
   48.6438   34.4493   43.1773 H   0  0  0  0  0  0  0  0  0  0  0  0
   50.0285   34.3722   41.0902 H   0  0  0  0  0  0  0  0  0  0  0  0
   48.8615   33.0411   41.2457 H   0  0  0  0  0  0  0  0  0  0  0  0
   48.1689   35.5849   39.8718 H   0  0  0  0  0  0  0  0  0  0  0  0
   46.5473   34.0262   38.8816 H   0  0  0  0  0  0  0  0  0  0  0  0
   47.2142   32.7917   40.0104 H   0  0  0  0  0  0  0  0  0  0  0  0
   45.8183   35.3585   40.5681 H   0  0  0  0  0  0  0  0  0  0  0  0
   43.8467   36.9618   44.8579 H   0  0  0  0  0  0  0  0  0  0  0  0
   45.1539   36.7459   42.7482 H   0  0  0  0  0  0  0  0  0  0  0  0
   45.4961   33.3506   46.2720 H   0  0  0  0  0  0  0  0  0  0  0  0
   42.9583   34.1621   41.3246 H   0  0  0  0  0  0  0  0  0  0  0  0
   44.0763   35.4141   40.5370 H   0  0  0  0  0  0  0  0  0  0  0  0
   42.2064   34.0110   39.2636 H   0  0  0  0  0  0  0  0  0  0  0  0
   43.7676   34.7001   38.5683 H   0  0  0  0  0  0  0  0  0  0  0  0
   42.9619   32.2118   38.1126 H   0  0  0  0  0  0  0  0  0  0  0  0
   44.6760   32.6920   38.2326 H   0  0  0  0  0  0  0  0  0  0  0  0
   42.9172   31.6825   40.5212 H   0  0  0  0  0  0  0  0  0  0  0  0
   44.2049   30.7460   39.6530 H   0  0  0  0  0  0  0  0  0  0  0  0
   44.7543   31.8192   41.9390 H   0  0  0  0  0  0  0  0  0  0  0  0
   45.9063   32.0065   40.5204 H   0  0  0  0  0  0  0  0  0  0  0  0
  1  2  1  0
  1  9  1  0
  3  2  1  0
  4  3  1  0
  5  4  1  0
  5  6  1  0
  6 13  1  0
  6  1  1  0
  7 12  2  0
  8  7  1  0
  9  8  2  0
  9 10  1  0
 10 11  2  0
 11 12  1  0
 14 13  1  0
 15 14  1  0
 16 15  1  0
 16 17  1  0
 17 18  1  0
 18 13  1  0
  2 19  1  0
  2 20  1  0
  3 21  1  0
  3 22  1  0
  4 23  1  0
  5 24  1  0
  5 25  1  0
  6 26  1  6
  7 27  1  0
  8 28  1  0
 11 29  1  0
 14 30  1  0
 14 31  1  0
 15 32  1  0
 15 33  1  0
 16 34  1  0
 16 35  1  0
 17 36  1  0
 17 37  1  0
 18 38  1  0
 18 39  1  0
M  ISO  8  19  13  20  13  21  13  22  13  23   5  24  13  25  13  26  13
M  ISO  8  27  14  28  14  29  14  30  13  31  13  32  13  33  13  34  13
M  ISO  5  35  13  36  13  37  13  38  13  39  13
M  END
>  <minimizedAffinity>  (1) 
-4.82735443

>  <minimizedRMSD>  (1) 
1.92285454

$$$$
