
     RDKit          3D

 31 33  0  0  1  0  0  0  0  0999 V2000
   46.3770   34.4120   42.2130 N   0  0  0  0  0  0  0  0  0  0  0  0
   47.5240   35.2200   41.8640 C   0  0  0  0  0  0  0  0  0  0  0  0
   48.2750   34.5680   40.7340 C   0  0  0  0  0  0  0  0  0  0  0  0
   47.3180   34.3150   39.6710 N   0  0  0  0  0  0  0  0  0  0  0  0
   46.5760   33.1490   40.1170 C   0  0  0  0  0  0  0  0  0  0  0  0
   45.7390   33.4720   41.3330 C   0  0  2  0  0  0  0  0  0  0  0  0
   44.4950   35.6920   45.1940 C   0  0  0  0  0  0  0  0  0  0  0  0
   45.0090   35.6040   43.9070 C   0  0  0  0  0  0  0  0  0  0  0  0
   45.8310   34.5430   43.5210 C   0  0  0  0  0  0  0  0  0  0  0  0
   46.0740   33.6300   44.5010 N   0  0  0  0  0  0  0  0  0  0  0  0
   45.5740   33.7200   45.7450 C   0  0  0  0  0  0  0  0  0  0  0  0
   44.7940   34.7410   46.0850 N   0  0  0  0  0  0  0  0  0  0  0  0
   44.4090   33.9540   40.8230 C   0  0  0  0  0  0  0  0  0  0  0  0
   43.3450   33.1620   40.3950 C   0  0  0  0  0  0  0  0  0  0  0  0
   42.2900   33.9300   39.9940 C   0  0  0  0  0  0  0  0  0  0  0  0
   42.7590   35.2100   40.1980 C   0  0  0  0  0  0  0  0  0  0  0  0
   43.9600   35.1890   40.6670 O   0  0  0  0  0  0  0  0  0  0  0  0
   47.1866   36.2191   41.5511 H   0  0  0  0  0  0  0  0  0  0  0  0
   48.1858   35.3121   42.7378 H   0  0  0  0  0  0  0  0  0  0  0  0
   49.0698   35.2378   40.3739 H   0  0  0  0  0  0  0  0  0  0  0  0
   48.7449   33.6309   41.0672 H   0  0  0  0  0  0  0  0  0  0  0  0
   47.8032   34.1199   38.7836 H   0  0  0  0  0  0  0  0  0  0  0  0
   45.9153   32.8109   39.3051 H   0  0  0  0  0  0  0  0  0  0  0  0
   47.2929   32.3589   40.3849 H   0  0  0  0  0  0  0  0  0  0  0  0
   45.6056   32.5768   41.9582 H   0  0  0  0  0  0  0  0  0  0  0  0
   43.8484   36.5355   45.4776 H   0  0  0  0  0  0  0  0  0  0  0  0
   44.7632   36.3876   43.1751 H   0  0  0  0  0  0  0  0  0  0  0  0
   45.8118   32.9435   46.4869 H   0  0  0  0  0  0  0  0  0  0  0  0
   43.3541   32.0621   40.3820 H   0  0  0  0  0  0  0  0  0  0  0  0
   41.3122   33.6084   39.6060 H   0  0  0  0  0  0  0  0  0  0  0  0
   42.1862   36.1256   39.9890 H   0  0  0  0  0  0  0  0  0  0  0  0
  1  9  1  0
  2  1  1  0
  3  2  1  0
  4  5  1  0
  4  3  1  0
  5  6  1  0
  6  1  1  0
  7 12  2  0
  8  7  1  0
  9  8  2  0
  9 10  1  0
 10 11  2  0
 11 12  1  0
 13  6  1  0
 14 13  2  0
 15 16  2  0
 15 14  1  0
 16 17  1  0
 17 13  1  0
  2 18  1  0
  2 19  1  0
  3 20  1  0
  3 21  1  0
  4 22  1  0
  5 23  1  0
  5 24  1  0
  6 25  1  1
  7 26  1  0
  8 27  1  0
 11 28  1  0
 14 29  1  0
 15 30  1  0
 16 31  1  0
M  ISO  8  18  13  19  13  20  13  21  13  22   5  23  13  24  13  25  13
M  ISO  6  26  14  27  14  28  14  29  14  30  14  31  14
M  END
>  <minimizedAffinity>  (1) 
-4.74875069

>  <minimizedRMSD>  (1) 
1.51008129

$$$$
