
     RDKit          3D

 30 31  0  0  1  0  0  0  0  0999 V2000
   46.9480   34.6330   42.2600 N   0  0  0  0  0  0  0  0  0  0  0  0
   48.3870   34.6410   42.4000 C   0  0  0  0  0  0  0  0  0  0  0  0
   49.0300   33.9220   41.2600 C   0  0  0  0  0  0  0  0  0  0  0  0
   48.4850   34.4750   40.0200 N   0  0  0  0  0  0  0  0  0  0  0  0
   47.1590   33.9100   39.9210 C   0  0  0  0  0  0  0  0  0  0  0  0
   46.2710   34.4240   41.0040 C   0  0  1  0  0  0  0  0  0  0  0  0
   44.5010   36.0250   44.7190 C   0  0  0  0  0  0  0  0  0  0  0  0
   45.2570   35.9280   43.5340 C   0  0  0  0  0  0  0  0  0  0  0  0
   46.1290   34.8410   43.4130 C   0  0  0  0  0  0  0  0  0  0  0  0
   46.1900   33.9400   44.4610 N   0  0  0  0  0  0  0  0  0  0  0  0
   45.4550   34.0700   45.5670 C   0  0  0  0  0  0  0  0  0  0  0  0
   44.6080   35.1100   45.7030 N   0  0  0  0  0  0  0  0  0  0  0  0
   45.0090   33.6310   41.1540 C   0  0  0  0  0  0  0  0  0  0  0  0
   43.8060   34.2700   40.4980 C   0  0  0  0  0  0  0  0  0  0  0  0
   48.7427   35.6817   42.4178 H   0  0  0  0  0  0  0  0  0  0  0  0
   48.6550   34.1312   43.3372 H   0  0  0  0  0  0  0  0  0  0  0  0
   50.1194   34.0714   41.2897 H   0  0  0  0  0  0  0  0  0  0  0  0
   48.8269   32.8427   41.3220 H   0  0  0  0  0  0  0  0  0  0  0  0
   48.4396   35.5028   40.0693 H   0  0  0  0  0  0  0  0  0  0  0  0
   46.7269   34.1777   38.9455 H   0  0  0  0  0  0  0  0  0  0  0  0
   47.2374   32.8176   40.0241 H   0  0  0  0  0  0  0  0  0  0  0  0
   45.9656   35.4256   40.6671 H   0  0  0  0  0  0  0  0  0  0  0  0
   43.8061   36.8685   44.8443 H   0  0  0  0  0  0  0  0  0  0  0  0
   45.1650   36.6782   42.7348 H   0  0  0  0  0  0  0  0  0  0  0  0
   45.5406   33.3250   46.3717 H   0  0  0  0  0  0  0  0  0  0  0  0
   45.1657   32.6407   40.7016 H   0  0  0  0  0  0  0  0  0  0  0  0
   44.7934   33.5721   42.2311 H   0  0  0  0  0  0  0  0  0  0  0  0
   43.1169   34.6361   41.2733 H   0  0  0  0  0  0  0  0  0  0  0  0
   44.1343   35.1126   39.8717 H   0  0  0  0  0  0  0  0  0  0  0  0
   43.2916   33.5262   39.8717 H   0  0  0  0  0  0  0  0  0  0  0  0
  1  2  1  0
  1  9  1  0
  3  2  1  0
  4  3  1  0
  5  4  1  0
  5  6  1  0
  6 13  1  0
  6  1  1  0
  7 12  2  0
  8  7  1  0
  9  8  2  0
  9 10  1  0
 10 11  2  0
 11 12  1  0
 14 13  1  0
  2 15  1  0
  2 16  1  0
  3 17  1  0
  3 18  1  0
  4 19  1  0
  5 20  1  0
  5 21  1  0
  6 22  1  6
  7 23  1  0
  8 24  1  0
 11 25  1  0
 13 26  1  0
 13 27  1  0
 14 28  1  0
 14 29  1  0
 14 30  1  0
M  ISO  8  15  13  16  13  17  13  18  13  19   5  20  13  21  13  22  13
M  ISO  8  23  14  24  14  25  14  26   8  27   8  28   8  29   8  30   8
M  END
>  <minimizedAffinity>  (1) 
-4.41644716

>  <minimizedRMSD>  (1) 
0.330997318

$$$$
