
     RDKit          3D

 27 28  0  0  1  0  0  0  0  0999 V2000
   46.9020   34.6700   42.1860 N   0  0  0  0  0  0  0  0  0  0  0  0
   48.3110   34.8840   42.2420 C   0  0  0  0  0  0  0  0  0  0  0  0
   48.9730   34.1080   41.1290 C   0  0  0  0  0  0  0  0  0  0  0  0
   48.3440   34.5450   39.8920 N   0  0  0  0  0  0  0  0  0  0  0  0
   47.0500   33.8930   39.8590 C   0  0  0  0  0  0  0  0  0  0  0  0
   46.1590   34.2750   40.9980 C   0  0  1  0  0  0  0  0  0  0  0  0
   44.4700   35.9640   44.7370 C   0  0  0  0  0  0  0  0  0  0  0  0
   45.1940   35.8840   43.5510 C   0  0  0  0  0  0  0  0  0  0  0  0
   46.1120   34.8440   43.3680 C   0  0  0  0  0  0  0  0  0  0  0  0
   46.2340   33.9500   44.4100 N   0  0  0  0  0  0  0  0  0  0  0  0
   45.5260   34.0450   45.5450 C   0  0  0  0  0  0  0  0  0  0  0  0
   44.6460   35.0500   45.7080 N   0  0  0  0  0  0  0  0  0  0  0  0
   45.1720   33.1900   41.3000 C   0  0  0  0  0  0  0  0  0  0  0  0
   48.5258   35.9561   42.1219 H   0  0  0  0  0  0  0  0  0  0  0  0
   48.6993   34.5434   43.2132 H   0  0  0  0  0  0  0  0  0  0  0  0
   50.0514   34.3237   41.1042 H   0  0  0  0  0  0  0  0  0  0  0  0
   48.8555   33.0240   41.2744 H   0  0  0  0  0  0  0  0  0  0  0  0
   48.2306   35.5687   39.8888 H   0  0  0  0  0  0  0  0  0  0  0  0
   46.5479   34.1637   38.9185 H   0  0  0  0  0  0  0  0  0  0  0  0
   47.2313   32.8110   39.9395 H   0  0  0  0  0  0  0  0  0  0  0  0
   45.5978   35.1647   40.6763 H   0  0  0  0  0  0  0  0  0  0  0  0
   43.7481   36.7813   44.8814 H   0  0  0  0  0  0  0  0  0  0  0  0
   45.0452   36.6350   42.7611 H   0  0  0  0  0  0  0  0  0  0  0  0
   45.6647   33.3010   46.3432 H   0  0  0  0  0  0  0  0  0  0  0  0
   45.0711   33.0791   42.3897 H   0  0  0  0  0  0  0  0  0  0  0  0
   44.1956   33.4514   40.8661 H   0  0  0  0  0  0  0  0  0  0  0  0
   45.5243   32.2426   40.8661 H   0  0  0  0  0  0  0  0  0  0  0  0
  1  2  1  0
  1  9  1  0
  3  2  1  0
  4  3  1  0
  5  4  1  0
  5  6  1  0
  6 13  1  0
  6  1  1  0
  7 12  2  0
  8  7  1  0
  9  8  2  0
  9 10  1  0
 10 11  2  0
 11 12  1  0
  2 14  1  0
  2 15  1  0
  3 16  1  0
  3 17  1  0
  4 18  1  0
  5 19  1  0
  5 20  1  0
  6 21  1  6
  7 22  1  0
  8 23  1  0
 11 24  1  0
 13 25  1  0
 13 26  1  0
 13 27  1  0
M  ISO  8  14  13  15  13  16  13  17  13  18   5  19  13  20  13  21  13
M  ISO  6  22  14  23  14  24  14  25   8  26   8  27   8
M  END
>  <minimizedAffinity>  (1) 
-4.33949041

>  <minimizedRMSD>  (1) 
0.0214596204

$$$$
