
     RDKit          3D

 32 33  0  0  0  0  0  0  0  0999 V2000
   44.6590   35.6770   45.2080 C   0  0  0  0  0  0  0  0  0  0  0  0
   44.2600   35.6540   43.8640 C   0  0  0  0  0  0  0  0  0  0  0  0
   44.5570   34.5120   43.1140 C   0  0  0  0  0  0  0  0  0  0  0  0
   45.2170   33.4700   43.7030 N   0  0  0  0  0  0  0  0  0  0  0  0
   45.5870   33.5290   45.0100 C   0  0  0  0  0  0  0  0  0  0  0  0
   45.3070   34.6270   45.7500 N   0  0  0  0  0  0  0  0  0  0  0  0
   46.2930   32.4030   45.6200 C   0  0  0  0  0  0  0  0  0  0  0  0
   47.2450   31.5970   45.0250 C   0  0  0  0  0  0  0  0  0  0  0  0
   47.6610   30.6590   45.9260 N   0  0  0  0  0  0  0  0  0  0  0  0
   46.9650   30.8970   47.0580 C   0  0  0  0  0  0  0  0  0  0  0  0
   46.1250   31.9580   46.8870 N   0  0  0  0  0  0  0  0  0  0  0  0
   45.2100   32.5290   47.8580 C   0  0  0  0  0  0  0  0  0  0  0  0
   44.2420   31.5940   48.2550 F   0  0  0  0  0  0  0  0  0  0  0  0
   44.5950   33.6780   47.3760 F   0  0  0  0  0  0  0  0  0  0  0  0
   45.8890   32.8330   49.0220 F   0  0  0  0  0  0  0  0  0  0  0  0
   44.2130   34.3100   41.6800 C   0  0  0  0  0  0  0  0  0  0  0  0
   45.4960   34.1560   40.8990 C   0  0  0  0  0  0  0  0  0  0  0  0
   43.3840   35.4160   41.0990 C   0  0  0  0  0  0  0  0  0  0  0  0
   43.3780   33.0300   41.5420 C   0  0  0  0  0  0  0  0  0  0  0  0
   44.4410   36.5606   45.8259 H   0  0  0  0  0  0  0  0  0  0  0  0
   43.7305   36.5068   43.4142 H   0  0  0  0  0  0  0  0  0  0  0  0
   47.6091   31.6953   43.9917 H   0  0  0  0  0  0  0  0  0  0  0  0
   47.0617   30.3169   47.9876 H   0  0  0  0  0  0  0  0  0  0  0  0
   46.3402   34.0547   41.5969 H   0  0  0  0  0  0  0  0  0  0  0  0
   45.4342   33.2588   40.2656 H   0  0  0  0  0  0  0  0  0  0  0  0
   45.6483   35.0423   40.2656 H   0  0  0  0  0  0  0  0  0  0  0  0
   42.9402   36.0080   41.9130 H   0  0  0  0  0  0  0  0  0  0  0  0
   44.0205   36.0644   40.4789 H   0  0  0  0  0  0  0  0  0  0  0  0
   42.5831   34.9870   40.4789 H   0  0  0  0  0  0  0  0  0  0  0  0
   43.1275   32.6460   42.5419 H   0  0  0  0  0  0  0  0  0  0  0  0
   42.4517   33.2539   40.9926 H   0  0  0  0  0  0  0  0  0  0  0  0
   43.9562   32.2725   40.9926 H   0  0  0  0  0  0  0  0  0  0  0  0
  1  6  2  0
  2  1  1  0
  3  4  1  0
  3  2  2  0
  4  5  2  0
  5  7  1  0
  5  6  1  0
  7 11  1  0
  8  7  2  0
  8  9  1  0
  9 10  2  0
 11 10  1  0
 11 12  1  0
 12 13  1  0
 12 15  1  0
 14 12  1  0
 16  3  1  0
 17 16  1  0
 18 16  1  0
 19 16  1  0
  1 20  1  0
  2 21  1  0
  8 22  1  0
 10 23  1  0
 17 24  1  0
 17 25  1  0
 17 26  1  0
 18 27  1  0
 18 28  1  0
 18 29  1  0
 19 30  1  0
 19 31  1  0
 19 32  1  0
M  ISO  8  20  14  21  14  22  14  23  14  24   8  25   8  26   8  27   8
M  ISO  5  28   8  29   8  30   8  31   8  32   8
M  END
>  <minimizedAffinity>  (1) 
-5.27737522

>  <minimizedRMSD>  (1) 
0.589331627

$$$$
