
     RDKit          3D

 41 45  0  0  1  0  0  0  0  0999 V2000
   46.9650   34.5350   42.3720 N   0  0  0  0  0  0  0  0  0  0  0  0
   48.4080   34.5860   42.4450 C   0  0  0  0  0  0  0  0  0  0  0  0
   49.0120   33.9650   41.2220 C   0  0  0  0  0  0  0  0  0  0  0  0
   48.4150   34.6030   40.0570 N   0  0  0  0  0  0  0  0  0  0  0  0
   47.0960   34.0410   39.9600 C   0  0  0  0  0  0  0  0  0  0  0  0
   46.2260   34.4040   41.1400 C   0  0  1  0  0  0  0  0  0  0  0  0
   45.0860   33.5370   41.2190 N   0  0  0  0  0  0  0  0  0  0  0  0
   45.0310   32.2340   41.4590 C   0  0  0  0  0  0  0  0  0  0  0  0
   43.7520   31.7570   41.4560 N   0  0  0  0  0  0  0  0  0  0  0  0
   42.9380   32.8090   41.1980 C   0  0  0  0  0  0  0  0  0  0  0  0
   41.5820   33.0110   41.0610 C   0  0  0  0  0  0  0  0  0  0  0  0
   41.0880   34.2480   40.7920 N   0  0  0  0  0  0  0  0  0  0  0  0
   41.9410   35.2840   40.6600 C   0  0  0  0  0  0  0  0  0  0  0  0
   43.2770   35.1310   40.7870 N   0  0  0  0  0  0  0  0  0  0  0  0
   43.7820   33.9000   41.0550 C   0  0  0  0  0  0  0  0  0  0  0  0
   44.5540   35.6120   45.0090 C   0  0  0  0  0  0  0  0  0  0  0  0
   45.2460   35.6050   43.8020 C   0  0  0  0  0  0  0  0  0  0  0  0
   46.2140   34.6170   43.5690 C   0  0  0  0  0  0  0  0  0  0  0  0
   46.3950   33.7260   44.5760 N   0  0  0  0  0  0  0  0  0  0  0  0
   45.7260   33.7410   45.7310 C   0  0  0  0  0  0  0  0  0  0  0  0
   44.8040   34.6870   45.9460 N   0  0  0  0  0  0  0  0  0  0  0  0
   45.9860   32.7340   46.7740 C   0  0  0  0  0  0  0  0  0  0  0  0
   47.0630   31.7760   46.7070 C   0  0  0  0  0  0  0  0  0  0  0  0
   46.7560   30.8750   48.3270 S   0  0  0  0  0  0  0  0  0  0  0  0
   45.2570   31.9680   48.7430 C   0  0  0  0  0  0  0  0  0  0  0  0
   45.1500   32.7640   47.7950 N   0  0  0  0  0  0  0  0  0  0  0  0
   48.7310   35.6350   42.5168 H   0  0  0  0  0  0  0  0  0  0  0  0
   48.7417   34.0279   43.3322 H   0  0  0  0  0  0  0  0  0  0  0  0
   50.1003   34.1252   41.2197 H   0  0  0  0  0  0  0  0  0  0  0  0
   48.8206   32.8819   41.2069 H   0  0  0  0  0  0  0  0  0  0  0  0
   48.3649   35.6233   40.1889 H   0  0  0  0  0  0  0  0  0  0  0  0
   46.6195   34.4150   39.0418 H   0  0  0  0  0  0  0  0  0  0  0  0
   47.1989   32.9459   39.9441 H   0  0  0  0  0  0  0  0  0  0  0  0
   45.8318   35.4165   40.9684 H   0  0  0  0  0  0  0  0  0  0  0  0
   45.9169   31.6076   41.6402 H   0  0  0  0  0  0  0  0  0  0  0  0
   40.8917   32.1616   41.1706 H   0  0  0  0  0  0  0  0  0  0  0  0
   41.5367   36.2836   40.4424 H   0  0  0  0  0  0  0  0  0  0  0  0
   43.7938   36.3847   45.1961 H   0  0  0  0  0  0  0  0  0  0  0  0
   45.0359   36.3674   43.0374 H   0  0  0  0  0  0  0  0  0  0  0  0
   47.8334   31.6199   45.9375 H   0  0  0  0  0  0  0  0  0  0  0  0
   44.6180   31.9082   49.6363 H   0  0  0  0  0  0  0  0  0  0  0  0
  1  2  1  0
  1 18  1  0
  3  2  1  0
  4  3  1  0
  5  4  1  0
  5  6  1  0
  6  7  1  0
  6  1  1  0
  7  8  1  0
  9  8  2  0
 10  9  1  0
 11 10  2  0
 12 11  1  0
 13 14  1  0
 13 12  2  0
 14 15  2  0
 15 10  1  0
 15  7  1  0
 16 21  2  0
 17 16  1  0
 18 17  2  0
 18 19  1  0
 19 20  2  0
 20 21  1  0
 20 22  1  0
 22 26  1  0
 23 22  2  0
 23 24  1  0
 24 25  1  0
 26 25  2  0
  2 27  1  0
  2 28  1  0
  3 29  1  0
  3 30  1  0
  4 31  1  0
  5 32  1  0
  5 33  1  0
  6 34  1  6
  8 35  1  0
 11 36  1  0
 13 37  1  0
 16 38  1  0
 17 39  1  0
 23 40  1  0
 25 41  1  0
M  ISO  8  27  13  28  13  29  13  30  13  31   5  32  13  33  13  34  13
M  ISO  7  35  14  36  14  37  14  38  14  39  14  40  14  41  14
M  END
>  <minimizedAffinity>  (1) 
-6.65875769

>  <minimizedRMSD>  (1) 
0.425246239

$$$$
