
     RDKit          3D

 42 46  0  0  1  0  0  0  0  0999 V2000
   46.9430   34.6140   42.2640 N   0  0  0  0  0  0  0  0  0  0  0  0
   48.3790   34.6520   42.3980 C   0  0  0  0  0  0  0  0  0  0  0  0
   49.0270   33.9080   41.2810 C   0  0  0  0  0  0  0  0  0  0  0  0
   48.4840   34.4480   40.0240 N   0  0  0  0  0  0  0  0  0  0  0  0
   47.1540   33.8750   39.9310 C   0  0  0  0  0  0  0  0  0  0  0  0
   46.2530   34.3780   41.0250 C   0  0  1  0  0  0  0  0  0  0  0  0
   45.0950   33.5300   41.1360 N   0  0  0  0  0  0  0  0  0  0  0  0
   45.0130   32.2400   41.4800 C   0  0  0  0  0  0  0  0  0  0  0  0
   43.7340   31.7760   41.4760 N   0  0  0  0  0  0  0  0  0  0  0  0
   42.9460   32.8070   41.1140 C   0  0  0  0  0  0  0  0  0  0  0  0
   41.5930   33.0180   40.9180 C   0  0  0  0  0  0  0  0  0  0  0  0
   41.1230   34.2260   40.5410 N   0  0  0  0  0  0  0  0  0  0  0  0
   41.9940   35.2520   40.3510 C   0  0  0  0  0  0  0  0  0  0  0  0
   43.3140   35.0840   40.5320 N   0  0  0  0  0  0  0  0  0  0  0  0
   43.7970   33.8680   40.9120 C   0  0  0  0  0  0  0  0  0  0  0  0
   44.4670   35.9830   44.7090 C   0  0  0  0  0  0  0  0  0  0  0  0
   45.2120   35.8540   43.5420 C   0  0  0  0  0  0  0  0  0  0  0  0
   46.1360   34.8220   43.4220 C   0  0  0  0  0  0  0  0  0  0  0  0
   46.2400   33.9930   44.4930 N   0  0  0  0  0  0  0  0  0  0  0  0
   45.5210   34.1190   45.6160 C   0  0  0  0  0  0  0  0  0  0  0  0
   44.6420   35.1050   45.7220 N   0  0  0  0  0  0  0  0  0  0  0  0
   45.6920   33.1830   46.7260 C   0  0  0  0  0  0  0  0  0  0  0  0
   46.8650   32.4240   46.7700 C   0  0  0  0  0  0  0  0  0  0  0  0
   46.7870   31.6230   47.9070 C   0  0  0  0  0  0  0  0  0  0  0  0
   45.5570   31.9510   48.4860 C   0  0  0  0  0  0  0  0  0  0  0  0
   44.9470   32.8640   47.7700 O   0  0  0  0  0  0  0  0  0  0  0  0
   48.7168   35.6987   42.3798 H   0  0  0  0  0  0  0  0  0  0  0  0
   48.6602   34.1795   43.3507 H   0  0  0  0  0  0  0  0  0  0  0  0
   50.1168   34.0535   41.3138 H   0  0  0  0  0  0  0  0  0  0  0  0
   48.8250   32.8297   41.3617 H   0  0  0  0  0  0  0  0  0  0  0  0
   48.4364   35.4763   40.0593 H   0  0  0  0  0  0  0  0  0  0  0  0
   46.7174   34.1440   38.9579 H   0  0  0  0  0  0  0  0  0  0  0  0
   47.2432   32.7836   40.0354 H   0  0  0  0  0  0  0  0  0  0  0  0
   45.8911   35.3787   40.7463 H   0  0  0  0  0  0  0  0  0  0  0  0
   45.8851   31.6213   41.7382 H   0  0  0  0  0  0  0  0  0  0  0  0
   40.8883   32.1875   41.0719 H   0  0  0  0  0  0  0  0  0  0  0  0
   41.6112   36.2365   40.0438 H   0  0  0  0  0  0  0  0  0  0  0  0
   43.7358   36.7988   44.8079 H   0  0  0  0  0  0  0  0  0  0  0  0
   45.0707   36.5665   42.7160 H   0  0  0  0  0  0  0  0  0  0  0  0
   47.6919   32.4536   46.0451 H   0  0  0  0  0  0  0  0  0  0  0  0
   47.5278   30.8948   48.2688 H   0  0  0  0  0  0  0  0  0  0  0  0
   45.1585   31.5065   49.4099 H   0  0  0  0  0  0  0  0  0  0  0  0
  1  2  1  0
  1 18  1  0
  3  2  1  0
  4  3  1  0
  5  4  1  0
  5  6  1  0
  6  7  1  0
  6  1  1  0
  7  8  1  0
  9  8  2  0
 10  9  1  0
 11 10  2  0
 12 11  1  0
 13 14  1  0
 13 12  2  0
 14 15  2  0
 15 10  1  0
 15  7  1  0
 16 21  2  0
 17 16  1  0
 18 17  2  0
 18 19  1  0
 19 20  2  0
 20 21  1  0
 20 22  1  0
 22 23  2  0
 22 26  1  0
 23 24  1  0
 24 25  2  0
 26 25  1  0
  2 27  1  0
  2 28  1  0
  3 29  1  0
  3 30  1  0
  4 31  1  0
  5 32  1  0
  5 33  1  0
  6 34  1  6
  8 35  1  0
 11 36  1  0
 13 37  1  0
 16 38  1  0
 17 39  1  0
 23 40  1  0
 24 41  1  0
 25 42  1  0
M  ISO  8  27  13  28  13  29  13  30  13  31   5  32  13  33  13  34  13
M  ISO  8  35  14  36  14  37  14  38  14  39  14  40  14  41  14  42  14
M  END
>  <minimizedAffinity>  (1) 
-6.84851742

>  <minimizedRMSD>  (1) 
0.458819956

$$$$
