
     RDKit          3D

 51 55  0  0  1  0  0  0  0  0999 V2000
   47.3080   34.2950   42.6920 N   0  0  0  0  0  0  0  0  0  0  0  0
   48.7530   34.3410   42.7280 C   0  0  0  0  0  0  0  0  0  0  0  0
   49.3190   33.9960   41.3880 C   0  0  0  0  0  0  0  0  0  0  0  0
   48.6670   34.8800   40.4070 N   0  0  0  0  0  0  0  0  0  0  0  0
   47.3490   34.3240   40.2340 C   0  0  0  0  0  0  0  0  0  0  0  0
   46.5200   34.4290   41.5010 C   0  0  1  0  0  0  0  0  0  0  0  0
   45.3990   33.5380   41.4310 N   0  0  0  0  0  0  0  0  0  0  0  0
   45.3520   32.2150   41.4160 C   0  0  0  0  0  0  0  0  0  0  0  0
   44.0760   31.7340   41.3410 N   0  0  0  0  0  0  0  0  0  0  0  0
   43.2530   32.8160   41.3060 C   0  0  0  0  0  0  0  0  0  0  0  0
   41.8980   33.0100   41.2330 C   0  0  0  0  0  0  0  0  0  0  0  0
   41.3850   34.2770   41.2170 N   0  0  0  0  0  0  0  0  0  0  0  0
   42.2280   35.3210   41.2730 C   0  0  0  0  0  0  0  0  0  0  0  0
   43.5620   35.1600   41.3460 N   0  0  0  0  0  0  0  0  0  0  0  0
   44.0860   33.9000   41.3630 C   0  0  0  0  0  0  0  0  0  0  0  0
   44.9580   34.7050   45.5670 C   0  0  0  0  0  0  0  0  0  0  0  0
   45.5980   34.9580   44.3570 C   0  0  0  0  0  0  0  0  0  0  0  0
   46.6090   34.1050   43.9140 C   0  0  0  0  0  0  0  0  0  0  0  0
   46.8930   33.0510   44.7410 N   0  0  0  0  0  0  0  0  0  0  0  0
   46.2670   32.8230   45.9020 C   0  0  0  0  0  0  0  0  0  0  0  0
   45.3120   33.6350   46.3160 N   0  0  0  0  0  0  0  0  0  0  0  0
   46.6540   31.6410   46.7340 C   0  0  0  0  0  0  0  0  0  0  0  0
   47.0930   32.1090   48.1110 C   0  0  0  0  0  0  0  0  0  0  0  0
   45.9540   32.3190   49.0610 C   0  0  0  0  0  0  0  0  0  0  0  0
   44.9180   31.2240   49.0170 C   0  0  0  0  0  0  0  0  0  0  0  0
   45.4950   30.0700   48.2010 C   0  0  0  0  0  0  0  0  0  0  0  0
   45.6060   30.5770   46.7680 C   0  0  0  0  0  0  0  0  0  0  0  0
   49.0765   35.3544   43.0081 H   0  0  0  0  0  0  0  0  0  0  0  0
   49.1149   33.6109   43.4669 H   0  0  0  0  0  0  0  0  0  0  0  0
   50.4064   34.1621   41.3826 H   0  0  0  0  0  0  0  0  0  0  0  0
   49.1389   32.9383   41.1453 H   0  0  0  0  0  0  0  0  0  0  0  0
   48.6106   35.8433   40.7671 H   0  0  0  0  0  0  0  0  0  0  0  0
   46.8363   34.8685   39.4274 H   0  0  0  0  0  0  0  0  0  0  0  0
   47.4585   33.2581   39.9854 H   0  0  0  0  0  0  0  0  0  0  0  0
   46.1122   35.4483   41.5703 H   0  0  0  0  0  0  0  0  0  0  0  0
   46.2440   31.5728   41.4593 H   0  0  0  0  0  0  0  0  0  0  0  0
   41.2216   32.1438   41.1872 H   0  0  0  0  0  0  0  0  0  0  0  0
   41.8148   36.3403   41.2587 H   0  0  0  0  0  0  0  0  0  0  0  0
   44.1609   35.3779   45.9159 H   0  0  0  0  0  0  0  0  0  0  0  0
   45.3071   35.8289   43.7513 H   0  0  0  0  0  0  0  0  0  0  0  0
   47.5131   31.1473   46.2564 H   0  0  0  0  0  0  0  0  0  0  0  0
   47.7674   31.3519   48.5376 H   0  0  0  0  0  0  0  0  0  0  0  0
   47.5888   33.0821   47.9796 H   0  0  0  0  0  0  0  0  0  0  0  0
   46.3591   32.3730   50.0823 H   0  0  0  0  0  0  0  0  0  0  0  0
   45.4511   33.2496   48.7592 H   0  0  0  0  0  0  0  0  0  0  0  0
   44.6896   30.8834   50.0377 H   0  0  0  0  0  0  0  0  0  0  0  0
   43.9882   31.5922   48.5587 H   0  0  0  0  0  0  0  0  0  0  0  0
   46.4873   29.7904   48.5846 H   0  0  0  0  0  0  0  0  0  0  0  0
   44.8559   29.1768   48.2620 H   0  0  0  0  0  0  0  0  0  0  0  0
   44.6409   30.9933   46.4436 H   0  0  0  0  0  0  0  0  0  0  0  0
   45.8763   29.7530   46.0913 H   0  0  0  0  0  0  0  0  0  0  0  0
  1  2  1  0
  1 18  1  0
  3  2  1  0
  4  3  1  0
  5  4  1  0
  5  6  1  0
  6  1  1  0
  7  6  1  0
  8  7  1  0
  9  8  2  0
 10  9  1  0
 10 15  2  0
 11 10  1  0
 12 11  2  0
 12 13  1  0
 13 14  2  0
 14 15  1  0
 15  7  1  0
 16 21  2  0
 17 16  1  0
 18 17  2  0
 18 19  1  0
 19 20  2  0
 20 21  1  0
 20 22  1  0
 22 27  1  0
 22 23  1  0
 23 24  1  0
 25 24  1  0
 26 25  1  0
 27 26  1  0
  2 28  1  0
  2 29  1  0
  3 30  1  0
  3 31  1  0
  4 32  1  0
  5 33  1  0
  5 34  1  0
  6 35  1  1
  8 36  1  0
 11 37  1  0
 13 38  1  0
 16 39  1  0
 17 40  1  0
 22 41  1  0
 23 42  1  0
 23 43  1  0
 24 44  1  0
 24 45  1  0
 25 46  1  0
 25 47  1  0
 26 48  1  0
 26 49  1  0
 27 50  1  0
 27 51  1  0
M  ISO  8  28  13  29  13  30  13  31  13  32   5  33  13  34  13  35  13
M  ISO  8  36  14  37  14  38  14  39  14  40  14  41  13  42  13  43  13
M  ISO  8  44  13  45  13  46  13  47  13  48  13  49  13  50  13  51  13
M  END
>  <minimizedAffinity>  (1) 
-6.91652012

>  <minimizedRMSD>  (1) 
1.44793022

$$$$
