
     RDKit          3D

 37 40  0  0  1  0  0  0  0  0999 V2000
   46.9540   34.6230   42.2620 N   0  0  0  0  0  0  0  0  0  0  0  0
   48.3950   34.6840   42.3790 C   0  0  0  0  0  0  0  0  0  0  0  0
   49.0400   33.9550   41.2400 C   0  0  0  0  0  0  0  0  0  0  0  0
   48.4880   34.5210   40.0060 N   0  0  0  0  0  0  0  0  0  0  0  0
   47.1690   33.9430   39.9030 C   0  0  0  0  0  0  0  0  0  0  0  0
   46.2580   34.4050   41.0170 C   0  0  1  0  0  0  0  0  0  0  0  0
   45.1160   33.5500   41.1150 N   0  0  0  0  0  0  0  0  0  0  0  0
   45.0440   32.2580   41.4280 C   0  0  0  0  0  0  0  0  0  0  0  0
   43.7620   31.7850   41.4170 N   0  0  0  0  0  0  0  0  0  0  0  0
   42.9660   32.8230   41.0800 C   0  0  0  0  0  0  0  0  0  0  0  0
   41.6170   33.0290   40.8960 C   0  0  0  0  0  0  0  0  0  0  0  0
   41.1320   34.2490   40.5450 N   0  0  0  0  0  0  0  0  0  0  0  0
   41.9950   35.2750   40.3780 C   0  0  0  0  0  0  0  0  0  0  0  0
   43.3160   35.1130   40.5490 N   0  0  0  0  0  0  0  0  0  0  0  0
   43.8130   33.8920   40.9010 C   0  0  0  0  0  0  0  0  0  0  0  0
   44.5140   35.9270   44.7760 C   0  0  0  0  0  0  0  0  0  0  0  0
   45.2530   35.8390   43.5940 C   0  0  0  0  0  0  0  0  0  0  0  0
   46.1690   34.7840   43.4220 C   0  0  0  0  0  0  0  0  0  0  0  0
   46.2500   33.9090   44.4730 N   0  0  0  0  0  0  0  0  0  0  0  0
   45.5350   34.0140   45.5870 C   0  0  0  0  0  0  0  0  0  0  0  0
   44.6700   35.0100   45.7490 N   0  0  0  0  0  0  0  0  0  0  0  0
   45.6860   33.0330   46.6560 C   0  0  0  0  0  0  0  0  0  0  0  0
   44.9960   33.0500   47.7070 O   0  0  0  0  0  0  0  0  0  0  0  0
   48.7161   35.7360   42.3650 H   0  0  0  0  0  0  0  0  0  0  0  0
   48.6978   34.2104   43.3245 H   0  0  0  0  0  0  0  0  0  0  0  0
   50.1302   34.0988   41.2676 H   0  0  0  0  0  0  0  0  0  0  0  0
   48.8420   32.8747   41.3010 H   0  0  0  0  0  0  0  0  0  0  0  0
   48.4319   35.5475   40.0693 H   0  0  0  0  0  0  0  0  0  0  0  0
   46.7275   34.2360   38.9390 H   0  0  0  0  0  0  0  0  0  0  0  0
   47.2707   32.8504   39.9793 H   0  0  0  0  0  0  0  0  0  0  0  0
   45.8775   35.4043   40.7589 H   0  0  0  0  0  0  0  0  0  0  0  0
   45.9207   31.6389   41.6691 H   0  0  0  0  0  0  0  0  0  0  0  0
   40.9189   32.1904   41.0357 H   0  0  0  0  0  0  0  0  0  0  0  0
   41.6063   36.2646   40.0957 H   0  0  0  0  0  0  0  0  0  0  0  0
   43.7992   36.7518   44.9128 H   0  0  0  0  0  0  0  0  0  0  0  0
   45.1199   36.5902   42.8016 H   0  0  0  0  0  0  0  0  0  0  0  0
   46.4395   32.2405   46.5370 H   0  0  0  0  0  0  0  0  0  0  0  0
  1  2  1  0
  1 18  1  0
  3  2  1  0
  4  3  1  0
  5  4  1  0
  5  6  1  0
  6  7  1  0
  6  1  1  0
  7  8  1  0
  9  8  2  0
 10  9  1  0
 11 10  2  0
 12 11  1  0
 13 12  2  0
 13 14  1  0
 14 15  2  0
 15 10  1  0
 15  7  1  0
 16 21  2  0
 17 16  1  0
 18 17  2  0
 18 19  1  0
 19 20  2  0
 20 21  1  0
 20 22  1  0
 22 23  2  0
  2 24  1  0
  2 25  1  0
  3 26  1  0
  3 27  1  0
  4 28  1  0
  5 29  1  0
  5 30  1  0
  6 31  1  6
  8 32  1  0
 11 33  1  0
 13 34  1  0
 16 35  1  0
 17 36  1  0
 22 37  1  0
M  ISO  8  24  13  25  13  26  13  27  13  28   5  29  13  30  13  31  13
M  ISO  6  32  14  33  14  34  14  35  14  36  14  37   6
M  END
>  <minimizedAffinity>  (1) 
-5.98096895

>  <minimizedRMSD>  (1) 
0.0873725861

$$$$
