
     RDKit          3D

 42 46  0  0  1  0  0  0  0  0999 V2000
   46.9490   34.6110   42.2840 N   0  0  0  0  0  0  0  0  0  0  0  0
   48.3830   34.6440   42.4210 C   0  0  0  0  0  0  0  0  0  0  0  0
   49.0380   33.9290   41.3020 C   0  0  0  0  0  0  0  0  0  0  0  0
   48.4960   34.4850   40.0520 N   0  0  0  0  0  0  0  0  0  0  0  0
   47.1780   33.8990   39.9500 C   0  0  0  0  0  0  0  0  0  0  0  0
   46.2650   34.4000   41.0470 C   0  0  1  0  0  0  0  0  0  0  0  0
   45.1120   33.5350   41.1490 N   0  0  0  0  0  0  0  0  0  0  0  0
   45.0320   32.2460   41.4770 C   0  0  0  0  0  0  0  0  0  0  0  0
   43.7510   31.7870   41.4600 N   0  0  0  0  0  0  0  0  0  0  0  0
   42.9620   32.8190   41.1070 C   0  0  0  0  0  0  0  0  0  0  0  0
   41.6160   33.0180   40.9140 C   0  0  0  0  0  0  0  0  0  0  0  0
   41.1470   34.2420   40.5450 N   0  0  0  0  0  0  0  0  0  0  0  0
   42.0140   35.2570   40.3730 C   0  0  0  0  0  0  0  0  0  0  0  0
   43.3330   35.0950   40.5560 N   0  0  0  0  0  0  0  0  0  0  0  0
   43.8180   33.8830   40.9220 C   0  0  0  0  0  0  0  0  0  0  0  0
   44.4860   35.9590   44.7520 C   0  0  0  0  0  0  0  0  0  0  0  0
   45.2390   35.8470   43.5800 C   0  0  0  0  0  0  0  0  0  0  0  0
   46.1410   34.7990   43.4480 C   0  0  0  0  0  0  0  0  0  0  0  0
   46.2200   33.9460   44.5010 N   0  0  0  0  0  0  0  0  0  0  0  0
   45.4950   34.0610   45.6230 C   0  0  0  0  0  0  0  0  0  0  0  0
   44.6360   35.0550   45.7510 N   0  0  0  0  0  0  0  0  0  0  0  0
   45.7040   33.0280   46.6940 C   0  0  0  0  0  0  0  0  0  0  0  0
   47.0230   32.4150   46.9020 C   0  0  0  0  0  0  0  0  0  0  0  0
   46.0060   31.5940   46.1720 C   0  0  0  0  0  0  0  0  0  0  0  0
   48.7202   35.6910   42.4257 H   0  0  0  0  0  0  0  0  0  0  0  0
   48.6572   34.1474   43.3634 H   0  0  0  0  0  0  0  0  0  0  0  0
   50.1264   34.0833   41.3421 H   0  0  0  0  0  0  0  0  0  0  0  0
   48.8449   32.8478   41.3638 H   0  0  0  0  0  0  0  0  0  0  0  0
   48.4369   35.5120   40.1036 H   0  0  0  0  0  0  0  0  0  0  0  0
   46.7436   34.1628   38.9745 H   0  0  0  0  0  0  0  0  0  0  0  0
   47.2753   32.8080   40.0518 H   0  0  0  0  0  0  0  0  0  0  0  0
   45.9008   35.4022   40.7768 H   0  0  0  0  0  0  0  0  0  0  0  0
   45.9024   31.6237   41.7324 H   0  0  0  0  0  0  0  0  0  0  0  0
   40.9136   32.1839   41.0584 H   0  0  0  0  0  0  0  0  0  0  0  0
   41.6314   36.2443   40.0749 H   0  0  0  0  0  0  0  0  0  0  0  0
   43.7680   36.7848   44.8644 H   0  0  0  0  0  0  0  0  0  0  0  0
   45.1185   36.5815   42.7701 H   0  0  0  0  0  0  0  0  0  0  0  0
   44.9900   33.5163   47.3735 H   0  0  0  0  0  0  0  0  0  0  0  0
   47.8938   32.8075   46.3564 H   0  0  0  0  0  0  0  0  0  0  0  0
   47.6443   32.2365   47.7920 H   0  0  0  0  0  0  0  0  0  0  0  0
   45.5476   30.7180   46.6541 H   0  0  0  0  0  0  0  0  0  0  0  0
   45.9534   31.0763   45.2029 H   0  0  0  0  0  0  0  0  0  0  0  0
  1  2  1  0
  1 18  1  0
  3  2  1  0
  4  3  1  0
  5  4  1  0
  5  6  1  0
  6  7  1  0
  6  1  1  0
  7  8  1  0
  9  8  2  0
 10  9  1  0
 11 10  2  0
 12 11  1  0
 13 12  2  0
 13 14  1  0
 14 15  2  0
 15 10  1  0
 15  7  1  0
 16 21  2  0
 17 16  1  0
 18 17  2  0
 18 19  1  0
 19 20  2  0
 20 21  1  0
 20 22  1  0
 22 23  1  0
 24 22  1  0
 24 23  1  0
  2 25  1  0
  2 26  1  0
  3 27  1  0
  3 28  1  0
  4 29  1  0
  5 30  1  0
  5 31  1  0
  6 32  1  6
  8 33  1  0
 11 34  1  0
 13 35  1  0
 16 36  1  0
 17 37  1  0
 22 38  1  0
 23 39  1  0
 23 40  1  0
 24 41  1  0
 24 42  1  0
M  ISO  8  25  13  26  13  27  13  28  13  29   5  30  13  31  13  32  13
M  ISO  8  33  14  34  14  35  14  36  14  37  14  38  13  39  13  40  13
M  ISO  2  41  13  42  13
M  END
>  <minimizedAffinity>  (1) 
-6.22784328

>  <minimizedRMSD>  (1) 
0.269610971

$$$$
