
     RDKit          3D

 27 29  0  0  0  0  0  0  0  0999 V2000
   45.8530   34.4840   41.3040 N   0  0  0  0  0  0  0  0  0  0  0  0
   46.3410   33.7260   40.2830 C   0  0  0  0  0  0  0  0  0  0  0  0
   45.3010   33.3400   39.5100 N   0  0  0  0  0  0  0  0  0  0  0  0
   44.1670   33.8390   40.0240 C   0  0  0  0  0  0  0  0  0  0  0  0
   42.8350   33.7360   39.6090 C   0  0  0  0  0  0  0  0  0  0  0  0
   42.5670   33.0740   38.5820 O   0  0  0  0  0  0  0  0  0  0  0  0
   41.9350   34.3710   40.3700 N   0  0  0  0  0  0  0  0  0  0  0  0
   42.2570   35.0750   41.4710 C   0  0  0  0  0  0  0  0  0  0  0  0
   41.2240   35.7140   42.2100 N   0  0  0  0  0  0  0  0  0  0  0  0
   43.5310   35.1880   41.8860 N   0  0  0  0  0  0  0  0  0  0  0  0
   44.5010   34.5710   41.1670 C   0  0  0  0  0  0  0  0  0  0  0  0
   46.6520   35.0930   42.3600 C   0  0  0  0  0  0  0  0  0  0  0  0
   47.0460   32.4880   45.0930 C   0  0  0  0  0  0  0  0  0  0  0  0
   47.2680   33.1660   43.8710 C   0  0  0  0  0  0  0  0  0  0  0  0
   46.4920   34.3140   43.6140 C   0  0  0  0  0  0  0  0  0  0  0  0
   45.5790   34.6970   44.5610 N   0  0  0  0  0  0  0  0  0  0  0  0
   45.4010   34.0120   45.7210 C   0  0  0  0  0  0  0  0  0  0  0  0
   46.1400   32.9160   45.9680 N   0  0  0  0  0  0  0  0  0  0  0  0
   47.3982   33.4719   40.1162 H   0  0  0  0  0  0  0  0  0  0  0  0
   40.9429   34.3179   40.0983 H   0  0  0  0  0  0  0  0  0  0  0  0
   41.4549   36.2563   43.0547 H   0  0  0  0  0  0  0  0  0  0  0  0
   40.2448   35.6346   41.9006 H   0  0  0  0  0  0  0  0  0  0  0  0
   47.7111   35.0960   42.0629 H   0  0  0  0  0  0  0  0  0  0  0  0
   46.3144   36.1268   42.5251 H   0  0  0  0  0  0  0  0  0  0  0  0
   47.6349   31.5882   45.3243 H   0  0  0  0  0  0  0  0  0  0  0  0
   48.0179   32.8105   43.1490 H   0  0  0  0  0  0  0  0  0  0  0  0
   44.6556   34.3525   46.4548 H   0  0  0  0  0  0  0  0  0  0  0  0
  1 12  1  0
  2  1  1  0
  3  4  1  0
  3  2  2  0
  4 11  2  0
  5  4  1  0
  5  7  1  0
  6  5  2  0
  7  8  1  0
  8 10  2  0
  8  9  1  0
 11  1  1  0
 11 10  1  0
 12 15  1  0
 13 18  2  0
 14 13  1  0
 15 14  2  0
 15 16  1  0
 16 17  2  0
 17 18  1  0
  2 19  1  0
  7 20  1  0
  9 21  1  0
  9 22  1  0
 12 23  1  0
 12 24  1  0
 13 25  1  0
 14 26  1  0
 17 27  1  0
M  ISO  7  19  14  20   9  23   8  24   8  25  14  26  14  27  14
M  END
>  <minimizedAffinity>  (1) 
-4.8430028

>  <minimizedRMSD>  (1) 
6.50007868

$$$$
