
     RDKit          3D

 34 37  0  0  0  0  0  0  0  0999 V2000
   48.5430   34.8750   42.2050 C   0  0  0  0  0  0  0  0  0  0  0  0
   48.9060   33.6950   41.4340 N   0  0  0  0  0  0  0  0  0  0  0  0
   49.5180   32.5940   41.9360 C   0  0  0  0  0  0  0  0  0  0  0  0
   49.6920   31.7110   40.9330 N   0  0  0  0  0  0  0  0  0  0  0  0
   49.1980   32.2370   39.7940 C   0  0  0  0  0  0  0  0  0  0  0  0
   49.1300   31.7370   38.4840 C   0  0  0  0  0  0  0  0  0  0  0  0
   49.5920   30.6070   38.2590 O   0  0  0  0  0  0  0  0  0  0  0  0
   48.5610   32.5450   37.5850 N   0  0  0  0  0  0  0  0  0  0  0  0
   48.0770   33.7620   37.8840 C   0  0  0  0  0  0  0  0  0  0  0  0
   47.4870   34.5550   36.8600 N   0  0  0  0  0  0  0  0  0  0  0  0
   48.1270   34.2710   39.1310 N   0  0  0  0  0  0  0  0  0  0  0  0
   48.6940   33.5040   40.1070 C   0  0  0  0  0  0  0  0  0  0  0  0
   44.8220   34.7790   42.9850 C   0  0  0  0  0  0  0  0  0  0  0  0
   46.0230   35.0410   42.2740 C   0  0  0  0  0  0  0  0  0  0  0  0
   47.2380   34.6420   42.8760 C   0  0  0  0  0  0  0  0  0  0  0  0
   47.1690   34.0290   44.1080 N   0  0  0  0  0  0  0  0  0  0  0  0
   45.9940   33.8050   44.7410 C   0  0  0  0  0  0  0  0  0  0  0  0
   44.8390   34.1800   44.1770 N   0  0  0  0  0  0  0  0  0  0  0  0
   46.0060   33.1500   46.0440 C   0  0  0  0  0  0  0  0  0  0  0  0
   46.8990   32.1940   46.4530 C   0  0  0  0  0  0  0  0  0  0  0  0
   46.5740   31.8480   47.7080 N   0  0  0  0  0  0  0  0  0  0  0  0
   45.4860   32.5790   48.0800 C   0  0  0  0  0  0  0  0  0  0  0  0
   45.1420   33.3790   47.0500 N   0  0  0  0  0  0  0  0  0  0  0  0
   48.4608   35.7419   41.5329 H   0  0  0  0  0  0  0  0  0  0  0  0
   49.3162   35.0722   42.9622 H   0  0  0  0  0  0  0  0  0  0  0  0
   49.8208   32.4468   42.9832 H   0  0  0  0  0  0  0  0  0  0  0  0
   48.4896   32.2175   36.6111 H   0  0  0  0  0  0  0  0  0  0  0  0
   47.1140   35.4890   37.0824 H   0  0  0  0  0  0  0  0  0  0  0  0
   47.4330   34.1949   35.8965 H   0  0  0  0  0  0  0  0  0  0  0  0
   43.8588   35.0757   42.5443 H   0  0  0  0  0  0  0  0  0  0  0  0
   46.0083   35.5359   41.2917 H   0  0  0  0  0  0  0  0  0  0  0  0
   47.7306   31.7850   45.8604 H   0  0  0  0  0  0  0  0  0  0  0  0
   44.9759   32.5258   49.0531 H   0  0  0  0  0  0  0  0  0  0  0  0
   44.3576   34.0464   47.0359 H   0  0  0  0  0  0  0  0  0  0  0  0
  1 15  1  0
  2  3  1  0
  2  1  1  0
  4  3  2  0
  5 12  2  0
  5  4  1  0
  6  5  1  0
  7  6  2  0
  8  9  1  0
  8  6  1  0
  9 11  2  0
 10  9  1  0
 11 12  1  0
 12  2  1  0
 13 18  2  0
 14 15  2  0
 14 13  1  0
 15 16  1  0
 16 17  2  0
 17 19  1  0
 18 17  1  0
 19 20  2  0
 19 23  1  0
 20 21  1  0
 21 22  2  0
 23 22  1  0
  1 24  1  0
  1 25  1  0
  3 26  1  0
  8 27  1  0
 10 28  1  0
 10 29  1  0
 13 30  1  0
 14 31  1  0
 20 32  1  0
 22 33  1  0
 23 34  1  0
M  ISO  8  24   8  25   8  26  14  27   9  30  14  31  14  32  14  33  14
M  ISO  1  34   9
M  END
>  <minimizedAffinity>  (1) 
-5.89312124

>  <minimizedRMSD>  (1) 
4.67917347

$$$$
