
     RDKit          3D

 40 43  0  0  0  0  0  0  0  0999 V2000
   48.2740   33.4630   42.2460 C   0  0  0  0  0  0  0  0  0  0  0  0
   46.9920   33.7460   41.6120 N   0  0  0  0  0  0  0  0  0  0  0  0
   46.5270   33.1650   40.4710 C   0  0  0  0  0  0  0  0  0  0  0  0
   45.3070   33.6850   40.2000 N   0  0  0  0  0  0  0  0  0  0  0  0
   44.9960   34.5780   41.1460 C   0  0  0  0  0  0  0  0  0  0  0  0
   43.8720   35.3830   41.3320 C   0  0  0  0  0  0  0  0  0  0  0  0
   42.9320   35.3170   40.5030 O   0  0  0  0  0  0  0  0  0  0  0  0
   43.8840   36.1850   42.4110 N   0  0  0  0  0  0  0  0  0  0  0  0
   44.9010   36.2320   43.2770 C   0  0  0  0  0  0  0  0  0  0  0  0
   44.8150   37.1160   44.3890 N   0  0  0  0  0  0  0  0  0  0  0  0
   45.9950   35.4640   43.1160 N   0  0  0  0  0  0  0  0  0  0  0  0
   46.0570   34.6300   42.0530 C   0  0  0  0  0  0  0  0  0  0  0  0
   48.4470   30.1500   44.1020 C   0  0  0  0  0  0  0  0  0  0  0  0
   48.6710   31.1090   43.0850 C   0  0  0  0  0  0  0  0  0  0  0  0
   48.0970   32.3890   43.2560 C   0  0  0  0  0  0  0  0  0  0  0  0
   47.3660   32.6190   44.3850 N   0  0  0  0  0  0  0  0  0  0  0  0
   47.1850   31.6580   45.3310 C   0  0  0  0  0  0  0  0  0  0  0  0
   47.7180   30.4430   45.1870 N   0  0  0  0  0  0  0  0  0  0  0  0
   46.3800   31.9380   46.5600 C   0  0  0  0  0  0  0  0  0  0  0  0
   45.5970   30.7400   46.9960 C   0  0  0  0  0  0  0  0  0  0  0  0
   45.9920   30.4260   48.4160 C   0  0  0  0  0  0  0  0  0  0  0  0
   46.6590   31.6640   48.9610 C   0  0  0  0  0  0  0  0  0  0  0  0
   47.2220   32.3220   47.7370 C   0  0  0  0  0  0  0  0  0  0  0  0
   48.6487   34.3723   42.7387 H   0  0  0  0  0  0  0  0  0  0  0  0
   48.9970   33.1361   41.4842 H   0  0  0  0  0  0  0  0  0  0  0  0
   47.0519   32.4051   39.8735 H   0  0  0  0  0  0  0  0  0  0  0  0
   43.0696   36.7930   42.5785 H   0  0  0  0  0  0  0  0  0  0  0  0
   45.5882   37.1668   45.0675 H   0  0  0  0  0  0  0  0  0  0  0  0
   43.9795   37.7050   44.5153 H   0  0  0  0  0  0  0  0  0  0  0  0
   48.8802   29.1441   43.9992 H   0  0  0  0  0  0  0  0  0  0  0  0
   49.2697   30.8668   42.1946 H   0  0  0  0  0  0  0  0  0  0  0  0
   45.7229   32.7707   46.2688 H   0  0  0  0  0  0  0  0  0  0  0  0
   44.5200   30.9580   46.9463 H   0  0  0  0  0  0  0  0  0  0  0  0
   45.8070   29.8828   46.3393 H   0  0  0  0  0  0  0  0  0  0  0  0
   45.1009   30.1810   49.0126 H   0  0  0  0  0  0  0  0  0  0  0  0
   46.6686   29.5597   48.4574 H   0  0  0  0  0  0  0  0  0  0  0  0
   45.9282   32.3182   49.4589 H   0  0  0  0  0  0  0  0  0  0  0  0
   47.4239   31.4414   49.7196 H   0  0  0  0  0  0  0  0  0  0  0  0
   48.2572   31.9856   47.5780 H   0  0  0  0  0  0  0  0  0  0  0  0
   47.2185   33.4149   47.8618 H   0  0  0  0  0  0  0  0  0  0  0  0
  1 15  1  0
  2 12  1  0
  2  1  1  0
  3  2  1  0
  4  3  2  0
  4  5  1  0
  5  6  1  0
  5 12  2  0
  6  8  1  0
  7  6  2  0
  8  9  1  0
  9 10  1  0
 11  9  2  0
 12 11  1  0
 13 18  2  0
 14 15  2  0
 14 13  1  0
 15 16  1  0
 16 17  2  0
 17 19  1  0
 18 17  1  0
 19 20  1  0
 19 23  1  0
 20 21  1  0
 21 22  1  0
 23 22  1  0
  1 24  1  0
  1 25  1  0
  3 26  1  0
  8 27  1  0
 10 28  1  0
 10 29  1  0
 13 30  1  0
 14 31  1  0
 19 32  1  0
 20 33  1  0
 20 34  1  0
 21 35  1  0
 21 36  1  0
 22 37  1  0
 22 38  1  0
 23 39  1  0
 23 40  1  0
M  ISO  8  24   8  25   8  26  14  27   9  30  14  31  14  32  13  33  13
M  ISO  7  34  13  35  13  36  13  37  13  38  13  39  13  40  13
M  END
>  <minimizedAffinity>  (1) 
-5.83251333

>  <minimizedRMSD>  (1) 
2.85780954

$$$$
