
     RDKit          3D

 41 44  0  0  0  0  0  0  0  0999 V2000
   48.7040   34.8030   42.3180 C   0  0  0  0  0  0  0  0  0  0  0  0
   49.0740   33.6490   41.5130 N   0  0  0  0  0  0  0  0  0  0  0  0
   49.8070   32.5830   41.9540 C   0  0  0  0  0  0  0  0  0  0  0  0
   49.9480   31.7150   40.9300 N   0  0  0  0  0  0  0  0  0  0  0  0
   49.3260   32.1990   39.8510 C   0  0  0  0  0  0  0  0  0  0  0  0
   49.1650   31.7100   38.5440 C   0  0  0  0  0  0  0  0  0  0  0  0
   49.6800   30.6100   38.2690 O   0  0  0  0  0  0  0  0  0  0  0  0
   48.4660   32.4770   37.7020 N   0  0  0  0  0  0  0  0  0  0  0  0
   47.9250   33.6680   38.0530 C   0  0  0  0  0  0  0  0  0  0  0  0
   47.2030   34.3940   37.0750 N   0  0  0  0  0  0  0  0  0  0  0  0
   48.0650   34.1560   39.2920 N   0  0  0  0  0  0  0  0  0  0  0  0
   48.7610   33.4390   40.2080 C   0  0  0  0  0  0  0  0  0  0  0  0
   45.0330   34.8480   43.2690 C   0  0  0  0  0  0  0  0  0  0  0  0
   46.2240   35.1630   42.5660 C   0  0  0  0  0  0  0  0  0  0  0  0
   47.4160   34.5390   42.9860 C   0  0  0  0  0  0  0  0  0  0  0  0
   47.3290   33.6700   44.0470 N   0  0  0  0  0  0  0  0  0  0  0  0
   46.1700   33.4020   44.6830 C   0  0  0  0  0  0  0  0  0  0  0  0
   45.0370   33.9910   44.2910 N   0  0  0  0  0  0  0  0  0  0  0  0
   46.1870   32.5010   45.7540 N   0  0  0  0  0  0  0  0  0  0  0  0
   45.7770   32.8820   47.0900 C   0  0  0  0  0  0  0  0  0  0  0  0
   45.3870   31.6040   47.8110 C   0  0  0  0  0  0  0  0  0  0  0  0
   46.5770   30.8050   48.0230 N   0  0  0  0  0  0  0  0  0  0  0  0
   47.3740   30.6800   46.8280 C   0  0  0  0  0  0  0  0  0  0  0  0
   46.6230   31.1170   45.5900 C   0  0  0  0  0  0  0  0  0  0  0  0
   48.6076   35.6870   41.6705 H   0  0  0  0  0  0  0  0  0  0  0  0
   49.4803   34.9882   43.0750 H   0  0  0  0  0  0  0  0  0  0  0  0
   50.2122   32.4546   42.9686 H   0  0  0  0  0  0  0  0  0  0  0  0
   48.3317   32.1453   36.7362 H   0  0  0  0  0  0  0  0  0  0  0  0
   46.7812   35.3025   37.3152 H   0  0  0  0  0  0  0  0  0  0  0  0
   47.0995   34.0136   36.1234 H   0  0  0  0  0  0  0  0  0  0  0  0
   44.0870   35.3200   42.9652 H   0  0  0  0  0  0  0  0  0  0  0  0
   46.2176   35.8694   41.7228 H   0  0  0  0  0  0  0  0  0  0  0  0
   46.6087   33.3743   47.6153 H   0  0  0  0  0  0  0  0  0  0  0  0
   44.9351   33.5893   47.0576 H   0  0  0  0  0  0  0  0  0  0  0  0
   44.9303   31.8513   48.7807 H   0  0  0  0  0  0  0  0  0  0  0  0
   44.6616   31.0403   47.2060 H   0  0  0  0  0  0  0  0  0  0  0  0
   47.1476   31.2493   48.7564 H   0  0  0  0  0  0  0  0  0  0  0  0
   48.2732   31.3045   46.9354 H   0  0  0  0  0  0  0  0  0  0  0  0
   47.6350   29.6183   46.7066 H   0  0  0  0  0  0  0  0  0  0  0  0
   45.7454   30.4699   45.4449 H   0  0  0  0  0  0  0  0  0  0  0  0
   47.2818   31.0395   44.7125 H   0  0  0  0  0  0  0  0  0  0  0  0
  1 15  1  0
  2  3  1  0
  2  1  1  0
  4  3  2  0
  5 12  2  0
  5  4  1  0
  6  5  1  0
  7  6  2  0
  8  9  1  0
  8  6  1  0
  9 11  2  0
 10  9  1  0
 11 12  1  0
 12  2  1  0
 13 18  2  0
 14 15  2  0
 14 13  1  0
 15 16  1  0
 16 17  2  0
 17 19  1  0
 18 17  1  0
 19 20  1  0
 20 21  1  0
 21 22  1  0
 23 22  1  0
 24 19  1  0
 24 23  1  0
  1 25  1  0
  1 26  1  0
  3 27  1  0
  8 28  1  0
 10 29  1  0
 10 30  1  0
 13 31  1  0
 14 32  1  0
 20 33  1  0
 20 34  1  0
 21 35  1  0
 21 36  1  0
 22 37  1  0
 23 38  1  0
 23 39  1  0
 24 40  1  0
 24 41  1  0
M  ISO  8  25   8  26   8  27  14  28   9  31  14  32  14  33  13  34  13
M  ISO  7  35  13  36  13  37   5  38  13  39  13  40  13  41  13
M  END
>  <minimizedAffinity>  (1) 
-5.82749939

>  <minimizedRMSD>  (1) 
4.92175102

$$$$
