
     RDKit          3D

 35 38  0  0  0  0  0  0  0  0999 V2000
   46.9550   34.4840   41.7500 C   0  0  0  0  0  0  0  0  0  0  0  0
   45.9130   34.0950   40.8090 N   0  0  0  0  0  0  0  0  0  0  0  0
   46.1070   33.4250   39.6410 C   0  0  0  0  0  0  0  0  0  0  0  0
   44.9060   33.2490   39.0500 N   0  0  0  0  0  0  0  0  0  0  0  0
   43.9550   33.7960   39.8230 C   0  0  0  0  0  0  0  0  0  0  0  0
   42.5680   33.8860   39.6700 C   0  0  0  0  0  0  0  0  0  0  0  0
   42.0290   33.3920   38.6530 O   0  0  0  0  0  0  0  0  0  0  0  0
   41.9050   34.5140   40.6560 N   0  0  0  0  0  0  0  0  0  0  0  0
   42.5140   35.0370   41.7420 C   0  0  0  0  0  0  0  0  0  0  0  0
   41.7100   35.6780   42.7170 N   0  0  0  0  0  0  0  0  0  0  0  0
   43.8420   34.9600   41.9030 N   0  0  0  0  0  0  0  0  0  0  0  0
   44.5780   34.3390   40.9480 C   0  0  0  0  0  0  0  0  0  0  0  0
   48.5890   31.3420   43.1110 C   0  0  0  0  0  0  0  0  0  0  0  0
   48.3140   32.4160   42.2350 C   0  0  0  0  0  0  0  0  0  0  0  0
   47.3080   33.3290   42.6090 C   0  0  0  0  0  0  0  0  0  0  0  0
   46.6590   33.1180   43.8020 N   0  0  0  0  0  0  0  0  0  0  0  0
   46.9600   32.0730   44.6040 C   0  0  0  0  0  0  0  0  0  0  0  0
   47.9190   31.2050   44.2470 N   0  0  0  0  0  0  0  0  0  0  0  0
   46.2550   31.8740   45.8660 C   0  0  0  0  0  0  0  0  0  0  0  0
   45.9370   32.9310   46.6880 C   0  0  0  0  0  0  0  0  0  0  0  0
   45.2610   32.6450   47.8750 C   0  0  0  0  0  0  0  0  0  0  0  0
   44.9160   31.3820   48.2340 N   0  0  0  0  0  0  0  0  0  0  0  0
   45.2440   30.3650   47.4040 C   0  0  0  0  0  0  0  0  0  0  0  0
   45.8930   30.6610   46.2700 N   0  0  0  0  0  0  0  0  0  0  0  0
   46.5903   35.3096   42.3788 H   0  0  0  0  0  0  0  0  0  0  0  0
   47.8459   34.8099   41.1932 H   0  0  0  0  0  0  0  0  0  0  0  0
   47.0758   33.0851   39.2461 H   0  0  0  0  0  0  0  0  0  0  0  0
   40.8815   34.6007   40.5796 H   0  0  0  0  0  0  0  0  0  0  0  0
   42.1457   36.0865   43.5561 H   0  0  0  0  0  0  0  0  0  0  0  0
   40.6899   35.7354   42.5866 H   0  0  0  0  0  0  0  0  0  0  0  0
   49.3678   30.6112   42.8476 H   0  0  0  0  0  0  0  0  0  0  0  0
   48.8672   32.5355   41.2918 H   0  0  0  0  0  0  0  0  0  0  0  0
   46.2058   33.9633   46.4193 H   0  0  0  0  0  0  0  0  0  0  0  0
   44.9973   33.4757   48.5462 H   0  0  0  0  0  0  0  0  0  0  0  0
   44.9853   29.3253   47.6531 H   0  0  0  0  0  0  0  0  0  0  0  0
  1 15  1  0
  2 12  1  0
  2  1  1  0
  3  2  1  0
  4  3  2  0
  4  5  1  0
  5 12  2  0
  6  5  1  0
  6  8  1  0
  7  6  2  0
  8  9  1  0
  9 11  2  0
  9 10  1  0
 12 11  1  0
 13 18  2  0
 14 15  2  0
 14 13  1  0
 15 16  1  0
 16 17  2  0
 17 19  1  0
 18 17  1  0
 19 24  1  0
 19 20  2  0
 20 21  1  0
 21 22  2  0
 23 22  1  0
 24 23  2  0
  1 25  1  0
  1 26  1  0
  3 27  1  0
  8 28  1  0
 10 29  1  0
 10 30  1  0
 13 31  1  0
 14 32  1  0
 20 33  1  0
 21 34  1  0
 23 35  1  0
M  ISO  8  25   8  26   8  27  14  28   9  31  14  32  14  33  14  34  14
M  ISO  1  35  14
M  END
>  <minimizedAffinity>  (1) 
-5.50965786

>  <minimizedRMSD>  (1) 
2.33993173

$$$$
