
     RDKit          3D

 35 38  0  0  0  0  0  0  0  0999 V2000
   47.0140   34.4440   41.8810 C   0  0  0  0  0  0  0  0  0  0  0  0
   45.9880   34.0830   40.8950 N   0  0  0  0  0  0  0  0  0  0  0  0
   46.2170   33.4360   39.7240 C   0  0  0  0  0  0  0  0  0  0  0  0
   45.0330   33.2820   39.0890 N   0  0  0  0  0  0  0  0  0  0  0  0
   44.0690   33.8250   39.8500 C   0  0  0  0  0  0  0  0  0  0  0  0
   42.6820   33.9250   39.6410 C   0  0  0  0  0  0  0  0  0  0  0  0
   42.1870   33.4560   38.6030 O   0  0  0  0  0  0  0  0  0  0  0  0
   41.9960   34.5410   40.6220 N   0  0  0  0  0  0  0  0  0  0  0  0
   42.5670   35.0310   41.7250 C   0  0  0  0  0  0  0  0  0  0  0  0
   41.7610   35.6680   42.7110 N   0  0  0  0  0  0  0  0  0  0  0  0
   43.8860   34.9460   41.9410 N   0  0  0  0  0  0  0  0  0  0  0  0
   44.6570   34.3380   40.9990 C   0  0  0  0  0  0  0  0  0  0  0  0
   48.5430   31.2420   43.2030 C   0  0  0  0  0  0  0  0  0  0  0  0
   48.3070   32.3280   42.3430 C   0  0  0  0  0  0  0  0  0  0  0  0
   47.3250   33.2710   42.7270 C   0  0  0  0  0  0  0  0  0  0  0  0
   46.6780   33.0570   43.9030 N   0  0  0  0  0  0  0  0  0  0  0  0
   46.9370   31.9960   44.7010 C   0  0  0  0  0  0  0  0  0  0  0  0
   47.8690   31.1020   44.3370 N   0  0  0  0  0  0  0  0  0  0  0  0
   46.2190   31.8080   45.9530 C   0  0  0  0  0  0  0  0  0  0  0  0
   45.8890   32.8800   46.7570 C   0  0  0  0  0  0  0  0  0  0  0  0
   45.2150   32.6430   47.9220 C   0  0  0  0  0  0  0  0  0  0  0  0
   44.8580   31.4000   48.3120 N   0  0  0  0  0  0  0  0  0  0  0  0
   45.1830   30.3630   47.5200 C   0  0  0  0  0  0  0  0  0  0  0  0
   45.8540   30.5880   46.3620 N   0  0  0  0  0  0  0  0  0  0  0  0
   46.6413   35.2630   42.5137 H   0  0  0  0  0  0  0  0  0  0  0  0
   47.9254   34.7681   41.3573 H   0  0  0  0  0  0  0  0  0  0  0  0
   47.1960   33.0959   39.3554 H   0  0  0  0  0  0  0  0  0  0  0  0
   40.9762   34.6396   40.5160 H   0  0  0  0  0  0  0  0  0  0  0  0
   42.1952   36.0481   43.5641 H   0  0  0  0  0  0  0  0  0  0  0  0
   40.7437   35.7487   42.5711 H   0  0  0  0  0  0  0  0  0  0  0  0
   49.3015   30.4933   42.9306 H   0  0  0  0  0  0  0  0  0  0  0  0
   48.8670   32.4410   41.4030 H   0  0  0  0  0  0  0  0  0  0  0  0
   46.1630   33.9048   46.4659 H   0  0  0  0  0  0  0  0  0  0  0  0
   44.9536   33.4958   48.5658 H   0  0  0  0  0  0  0  0  0  0  0  0
   44.9066   29.3383   47.8090 H   0  0  0  0  0  0  0  0  0  0  0  0
  1 15  1  0
  2 12  1  0
  2  1  1  0
  3  2  1  0
  4  3  2  0
  4  5  1  0
  5 12  2  0
  6  5  1  0
  6  8  1  0
  7  6  2  0
  8  9  1  0
  9 11  2  0
  9 10  1  0
 12 11  1  0
 13 18  2  0
 14 15  2  0
 14 13  1  0
 15 16  1  0
 16 17  2  0
 17 19  1  0
 18 17  1  0
 19 24  1  0
 19 20  2  0
 20 21  1  0
 21 22  2  0
 23 22  1  0
 24 23  2  0
  1 25  1  0
  1 26  1  0
  3 27  1  0
  8 28  1  0
 10 29  1  0
 10 30  1  0
 13 31  1  0
 14 32  1  0
 20 33  1  0
 21 34  1  0
 23 35  1  0
M  ISO  8  25   8  26   8  27  14  28   9  31  14  32  14  33  14  34  14
M  ISO  1  35  14
M  END
>  <minimizedAffinity>  (1) 
-5.50947285

>  <minimizedRMSD>  (1) 
2.33659148

$$$$
