
     RDKit          3D

 36 38  0  0  0  0  0  0  0  0999 V2000
   46.9450   34.1050   42.3570 N   0  0  0  0  0  0  0  0  0  0  0  0
   46.5720   34.0620   41.0470 C   0  0  0  0  0  0  0  0  0  0  0  0
   45.3120   34.5430   40.9500 N   0  0  0  0  0  0  0  0  0  0  0  0
   44.8810   34.8870   42.1750 C   0  0  0  0  0  0  0  0  0  0  0  0
   43.6740   35.4250   42.6230 C   0  0  0  0  0  0  0  0  0  0  0  0
   42.7720   35.6580   41.7850 O   0  0  0  0  0  0  0  0  0  0  0  0
   43.5690   35.6530   43.9300 N   0  0  0  0  0  0  0  0  0  0  0  0
   44.5640   35.3910   44.8090 C   0  0  0  0  0  0  0  0  0  0  0  0
   44.3680   35.6640   46.1810 N   0  0  0  0  0  0  0  0  0  0  0  0
   45.7410   34.8700   44.3940 N   0  0  0  0  0  0  0  0  0  0  0  0
   45.9080   34.6150   43.0820 C   0  0  0  0  0  0  0  0  0  0  0  0
   48.2330   33.6760   42.8800 C   0  0  0  0  0  0  0  0  0  0  0  0
   48.3350   29.8990   43.3120 C   0  0  0  0  0  0  0  0  0  0  0  0
   48.4870   31.1630   42.7040 C   0  0  0  0  0  0  0  0  0  0  0  0
   48.1090   32.2970   43.4400 C   0  0  0  0  0  0  0  0  0  0  0  0
   47.6160   32.1210   44.6970 N   0  0  0  0  0  0  0  0  0  0  0  0
   47.4840   30.8820   45.2510 C   0  0  0  0  0  0  0  0  0  0  0  0
   47.8440   29.7940   44.5540 N   0  0  0  0  0  0  0  0  0  0  0  0
   46.9380   30.7210   46.6380 C   0  0  0  0  0  0  0  0  0  0  0  0
   47.7850   29.8280   47.4940 C   0  0  0  0  0  0  0  0  0  0  0  0
   46.8850   32.0880   47.3250 C   0  0  0  0  0  0  0  0  0  0  0  0
   47.1895   33.6986   40.2123 H   0  0  0  0  0  0  0  0  0  0  0  0
   42.6883   36.0478   44.2897 H   0  0  0  0  0  0  0  0  0  0  0  0
   45.1195   35.4680   46.8576 H   0  0  0  0  0  0  0  0  0  0  0  0
   43.4736   36.0591   46.5048 H   0  0  0  0  0  0  0  0  0  0  0  0
   48.9766   33.6770   42.0694 H   0  0  0  0  0  0  0  0  0  0  0  0
   48.5546   34.3664   43.6737 H   0  0  0  0  0  0  0  0  0  0  0  0
   48.6223   28.9913   42.7611 H   0  0  0  0  0  0  0  0  0  0  0  0
   48.8893   31.2570   41.6846 H   0  0  0  0  0  0  0  0  0  0  0  0
   45.9404   30.2697   46.5325 H   0  0  0  0  0  0  0  0  0  0  0  0
   47.5847   30.0392   48.5548 H   0  0  0  0  0  0  0  0  0  0  0  0
   47.5443   28.7767   47.2776 H   0  0  0  0  0  0  0  0  0  0  0  0
   48.8476   30.0129   47.2776 H   0  0  0  0  0  0  0  0  0  0  0  0
   46.8903   31.9504   48.4163 H   0  0  0  0  0  0  0  0  0  0  0  0
   47.7608   32.6828   47.0262 H   0  0  0  0  0  0  0  0  0  0  0  0
   45.9658   32.6132   47.0262 H   0  0  0  0  0  0  0  0  0  0  0  0
  1 12  1  0
  1 11  1  0
  2  1  1  0
  3  2  2  0
  3  4  1  0
  4  5  1  0
  4 11  2  0
  5  7  1  0
  6  5  2  0
  7  8  1  0
  8  9  1  0
 10  8  2  0
 11 10  1  0
 12 15  1  0
 13 18  2  0
 14 13  1  0
 14 15  2  0
 15 16  1  0
 16 17  2  0
 17 19  1  0
 18 17  1  0
 19 21  1  0
 19 20  1  0
  2 22  1  0
  7 23  1  0
  9 24  1  0
  9 25  1  0
 12 26  1  0
 12 27  1  0
 13 28  1  0
 14 29  1  0
 19 30  1  0
 20 31  1  0
 20 32  1  0
 20 33  1  0
 21 34  1  0
 21 35  1  0
 21 36  1  0
M  ISO  8  22  14  23   9  26   8  27   8  28  14  29  14  30   8  31   8
M  ISO  5  32   8  33   8  34   8  35   8  36   8
M  END
>  <minimizedAffinity>  (1) 
-5.43660069

>  <minimizedRMSD>  (1) 
3.61128783

$$$$
