
     RDKit          3D

 43 46  0  0  1  0  0  0  0  0999 V2000
   48.9970   30.0330   42.6270 C   0  0  0  0  0  0  0  0  0  0  0  0
   49.0510   31.4210   42.3380 C   0  0  0  0  0  0  0  0  0  0  0  0
   48.3770   32.3100   43.2030 C   0  0  0  0  0  0  0  0  0  0  0  0
   47.7160   31.7820   44.2630 N   0  0  0  0  0  0  0  0  0  0  0  0
   47.6870   30.4300   44.5100 C   0  0  0  0  0  0  0  0  0  0  0  0
   48.3200   29.5870   43.6970 N   0  0  0  0  0  0  0  0  0  0  0  0
   48.3730   33.7810   42.9670 C   0  0  0  0  0  0  0  0  0  0  0  0
   47.0770   34.1770   42.4310 N   0  0  0  0  0  0  0  0  0  0  0  0
   46.7330   34.1370   41.1120 C   0  0  0  0  0  0  0  0  0  0  0  0
   45.4610   34.5770   40.9960 N   0  0  0  0  0  0  0  0  0  0  0  0
   44.9930   34.8950   42.2120 C   0  0  0  0  0  0  0  0  0  0  0  0
   43.7560   35.3900   42.6410 C   0  0  0  0  0  0  0  0  0  0  0  0
   42.8630   35.6030   41.7940 O   0  0  0  0  0  0  0  0  0  0  0  0
   43.6190   35.6000   43.9440 N   0  0  0  0  0  0  0  0  0  0  0  0
   44.6030   35.3600   44.8390 C   0  0  0  0  0  0  0  0  0  0  0  0
   44.3760   35.6110   46.2070 N   0  0  0  0  0  0  0  0  0  0  0  0
   45.8130   34.8790   44.4500 N   0  0  0  0  0  0  0  0  0  0  0  0
   46.0110   34.6450   43.1340 C   0  0  0  0  0  0  0  0  0  0  0  0
   46.9390   29.9050   45.7140 C   0  0  1  0  0  0  0  0  0  0  0  0
   46.9630   28.3960   45.7570 C   0  0  0  0  0  0  0  0  0  0  0  0
   47.5710   30.4160   46.9790 C   0  0  0  0  0  0  0  0  0  0  0  0
   46.5770   30.8170   47.9730 C   0  0  0  0  0  0  0  0  0  0  0  0
   45.4060   30.2650   48.4420 C   0  0  0  0  0  0  0  0  0  0  0  0
   44.9020   31.1410   49.4030 C   0  0  0  0  0  0  0  0  0  0  0  0
   45.7770   32.1820   49.4820 N   0  0  0  0  0  0  0  0  0  0  0  0
   46.7780   31.9960   48.6320 N   0  0  0  0  0  0  0  0  0  0  0  0
   49.5133   29.3176   41.9700 H   0  0  0  0  0  0  0  0  0  0  0  0
   49.6034   31.7945   41.4631 H   0  0  0  0  0  0  0  0  0  0  0  0
   48.5546   34.3064   43.9162 H   0  0  0  0  0  0  0  0  0  0  0  0
   49.1650   34.0423   42.2497 H   0  0  0  0  0  0  0  0  0  0  0  0
   47.3789   33.8043   40.2861 H   0  0  0  0  0  0  0  0  0  0  0  0
   42.7195   35.9634   44.2901 H   0  0  0  0  0  0  0  0  0  0  0  0
   45.1215   35.4303   46.8944 H   0  0  0  0  0  0  0  0  0  0  0  0
   43.4646   35.9751   46.5195 H   0  0  0  0  0  0  0  0  0  0  0  0
   45.8990   30.2538   45.6322 H   0  0  0  0  0  0  0  0  0  0  0  0
   46.9684   28.0591   46.8041 H   0  0  0  0  0  0  0  0  0  0  0  0
   46.0710   28.0005   45.2491 H   0  0  0  0  0  0  0  0  0  0  0  0
   47.8671   28.0290   45.2491 H   0  0  0  0  0  0  0  0  0  0  0  0
   48.1986   29.6205   47.4073 H   0  0  0  0  0  0  0  0  0  0  0  0
   48.1674   31.3039   46.7223 H   0  0  0  0  0  0  0  0  0  0  0  0
   44.9545   29.3149   48.1203 H   0  0  0  0  0  0  0  0  0  0  0  0
   43.9768   31.0156   49.9847 H   0  0  0  0  0  0  0  0  0  0  0  0
   45.6762   32.9931   50.1088 H   0  0  0  0  0  0  0  0  0  0  0  0
  1  6  2  0
  2  1  1  0
  2  3  2  0
  3  4  1  0
  4  5  2  0
  5 19  1  0
  6  5  1  0
  7  3  1  0
  8  7  1  0
  8 18  1  0
  9  8  1  0
 10  9  2  0
 10 11  1  0
 11 12  1  0
 11 18  2  0
 12 14  1  0
 13 12  2  0
 14 15  1  0
 15 16  1  0
 17 15  2  0
 18 17  1  0
 19 20  1  0
 19 21  1  0
 21 22  1  0
 22 23  1  0
 22 26  2  0
 23 24  2  0
 24 25  1  0
 26 25  1  0
  1 27  1  0
  2 28  1  0
  7 29  1  0
  7 30  1  0
  9 31  1  0
 14 32  1  0
 16 33  1  0
 16 34  1  0
 19 35  1  6
 20 36  1  0
 20 37  1  0
 20 38  1  0
 21 39  1  0
 21 40  1  0
 23 41  1  0
 24 42  1  0
 25 43  1  0
M  ISO  8  27  14  28  14  29   8  30   8  31  14  32   9  35   8  36   8
M  ISO  7  37   8  38   8  39   8  40   8  41  14  42  14  43   9
M  END
>  <minimizedAffinity>  (1) 
-6.37777948

>  <minimizedRMSD>  (1) 
1.01194656

$$$$
