
     RDKit          3D

 50 54  0  0  1  0  0  0  0  0999 V2000
   49.9900   31.1050   40.6330 C   0  0  0  0  0  0  0  0  0  0  0  0
   49.5230   32.3890   40.3050 C   0  0  0  0  0  0  0  0  0  0  0  0
   48.5630   32.9820   41.1490 C   0  0  0  0  0  0  0  0  0  0  0  0
   48.1430   32.2760   42.2320 N   0  0  0  0  0  0  0  0  0  0  0  0
   48.6250   31.0230   42.5160 C   0  0  0  0  0  0  0  0  0  0  0  0
   49.5320   30.4690   41.7130 N   0  0  0  0  0  0  0  0  0  0  0  0
   47.9950   34.3420   40.8830 C   0  0  0  0  0  0  0  0  0  0  0  0
   46.5370   34.2420   40.7910 N   0  0  0  0  0  0  0  0  0  0  0  0
   45.8580   33.5870   39.8070 C   0  0  0  0  0  0  0  0  0  0  0  0
   44.5300   33.7180   40.0640 N   0  0  0  0  0  0  0  0  0  0  0  0
   44.3670   34.4380   41.1830 C   0  0  0  0  0  0  0  0  0  0  0  0
   43.2210   34.8510   41.8630 C   0  0  0  0  0  0  0  0  0  0  0  0
   42.0990   34.5330   41.4170 O   0  0  0  0  0  0  0  0  0  0  0  0
   43.4190   35.5720   42.9650 N   0  0  0  0  0  0  0  0  0  0  0  0
   44.6470   35.9010   43.4250 C   0  0  0  0  0  0  0  0  0  0  0  0
   44.7560   36.6690   44.6040 N   0  0  0  0  0  0  0  0  0  0  0  0
   45.7720   35.5130   42.7830 N   0  0  0  0  0  0  0  0  0  0  0  0
   45.6400   34.7790   41.6570 C   0  0  0  0  0  0  0  0  0  0  0  0
   48.1200   30.2890   43.7320 C   0  0  1  0  0  0  0  0  0  0  0  0
   49.2650   29.6600   44.5020 C   0  0  0  0  0  0  0  0  0  0  0  0
   47.4430   31.2530   44.6710 C   0  0  0  0  0  0  0  0  0  0  0  0
   46.4190   30.5130   45.4470 C   0  0  0  0  0  0  0  0  0  0  0  0
   45.6680   29.4920   44.9970 N   0  0  0  0  0  0  0  0  0  0  0  0
   44.7330   28.8460   45.6800 C   0  0  0  0  0  0  0  0  0  0  0  0
   44.4670   29.2070   46.9620 N   0  0  0  0  0  0  0  0  0  0  0  0
   45.1590   30.2270   47.5370 C   0  0  0  0  0  0  0  0  0  0  0  0
   44.8970   30.5920   48.8580 C   0  0  0  0  0  0  0  0  0  0  0  0
   45.6170   31.6200   49.4280 C   0  0  0  0  0  0  0  0  0  0  0  0
   46.6010   32.2920   48.6930 C   0  0  0  0  0  0  0  0  0  0  0  0
   46.8000   31.8700   47.3940 C   0  0  0  0  0  0  0  0  0  0  0  0
   46.1320   30.8690   46.7660 C   0  0  0  0  0  0  0  0  0  0  0  0
   50.7410   30.6190   39.9928 H   0  0  0  0  0  0  0  0  0  0  0  0
   49.8962   32.9163   39.4147 H   0  0  0  0  0  0  0  0  0  0  0  0
   48.2666   35.0218   41.7040 H   0  0  0  0  0  0  0  0  0  0  0  0
   48.4001   34.7349   39.9388 H   0  0  0  0  0  0  0  0  0  0  0  0
   46.3047   33.0492   38.9577 H   0  0  0  0  0  0  0  0  0  0  0  0
   42.5958   35.8950   43.4931 H   0  0  0  0  0  0  0  0  0  0  0  0
   45.6849   36.9272   44.9664 H   0  0  0  0  0  0  0  0  0  0  0  0
   43.9066   36.9713   45.1021 H   0  0  0  0  0  0  0  0  0  0  0  0
   47.4231   29.5145   43.3791 H   0  0  0  0  0  0  0  0  0  0  0  0
   49.0803   29.7615   45.5816 H   0  0  0  0  0  0  0  0  0  0  0  0
   49.3402   28.5939   44.2415 H   0  0  0  0  0  0  0  0  0  0  0  0
   50.2051   30.1683   44.2415 H   0  0  0  0  0  0  0  0  0  0  0  0
   48.1859   31.6871   45.3563 H   0  0  0  0  0  0  0  0  0  0  0  0
   46.9693   32.0653   44.1002 H   0  0  0  0  0  0  0  0  0  0  0  0
   44.1756   28.0219   45.2107 H   0  0  0  0  0  0  0  0  0  0  0  0
   44.1247   30.0654   49.4379 H   0  0  0  0  0  0  0  0  0  0  0  0
   45.4168   31.9147   50.4687 H   0  0  0  0  0  0  0  0  0  0  0  0
   47.1862   33.1151   49.1289 H   0  0  0  0  0  0  0  0  0  0  0  0
   47.5728   32.3943   46.8128 H   0  0  0  0  0  0  0  0  0  0  0  0
  1  6  2  0
  2  1  1  0
  2  3  2  0
  3  4  1  0
  4  5  2  0
  5 19  1  0
  6  5  1  0
  7  3  1  0
  8  7  1  0
  8 18  1  0
  9 10  2  0
  9  8  1  0
 10 11  1  0
 11 18  2  0
 11 12  1  0
 12 14  1  0
 13 12  2  0
 14 15  1  0
 15 16  1  0
 17 15  2  0
 18 17  1  0
 19 20  1  0
 19 21  1  0
 21 22  1  0
 22 31  1  0
 23 22  2  0
 23 24  1  0
 24 25  2  0
 25 26  1  0
 26 27  2  0
 27 28  1  0
 29 28  2  0
 30 29  1  0
 31 30  2  0
 31 26  1  0
  1 32  1  0
  2 33  1  0
  7 34  1  0
  7 35  1  0
  9 36  1  0
 14 37  1  0
 16 38  1  0
 16 39  1  0
 19 40  1  6
 20 41  1  0
 20 42  1  0
 20 43  1  0
 21 44  1  0
 21 45  1  0
 24 46  1  0
 27 47  1  0
 28 48  1  0
 29 49  1  0
 30 50  1  0
M  ISO  8  32  14  33  14  34   8  35   8  36  14  37   9  40   8  41   8
M  ISO  8  42   8  43   8  44   8  45   8  46  14  47  14  48  14  49  14
M  ISO  1  50  14
M  END
>  <minimizedAffinity>  (1) 
-6.65741491

>  <minimizedRMSD>  (1) 
3.00020003

$$$$
