
     RDKit          3D

 27 29  0  0  0  0  0  0  0  0999 V2000
   44.7880   35.7420   44.8800 C   0  0  0  0  0  0  0  0  0  0  0  0
   44.1940   35.5810   43.5990 C   0  0  0  0  0  0  0  0  0  0  0  0
   44.3270   34.3470   42.9930 C   0  0  0  0  0  0  0  0  0  0  0  0
   44.9980   33.3340   43.6050 N   0  0  0  0  0  0  0  0  0  0  0  0
   45.5570   33.5280   44.8430 C   0  0  0  0  0  0  0  0  0  0  0  0
   45.4500   34.7190   45.4700 N   0  0  0  0  0  0  0  0  0  0  0  0
   46.2660   32.4420   45.4810 C   0  0  0  0  0  0  0  0  0  0  0  0
   47.2290   31.6140   44.9340 C   0  0  0  0  0  0  0  0  0  0  0  0
   47.6550   30.7160   45.8540 N   0  0  0  0  0  0  0  0  0  0  0  0
   46.9570   30.9860   46.9740 C   0  0  0  0  0  0  0  0  0  0  0  0
   46.1160   32.0260   46.7600 N   0  0  0  0  0  0  0  0  0  0  0  0
   45.1920   32.6240   47.7170 C   0  0  0  0  0  0  0  0  0  0  0  0
   44.2070   31.7230   48.1100 F   0  0  0  0  0  0  0  0  0  0  0  0
   44.6180   33.7880   47.2250 F   0  0  0  0  0  0  0  0  0  0  0  0
   45.8630   32.9350   48.8980 F   0  0  0  0  0  0  0  0  0  0  0  0
   43.7480   34.1200   41.6930 C   0  0  0  0  0  0  0  0  0  0  0  0
   42.7170   33.2540   41.3750 C   0  0  0  0  0  0  0  0  0  0  0  0
   42.4690   33.3350   40.0440 N   0  0  0  0  0  0  0  0  0  0  0  0
   43.3190   34.2380   39.4900 C   0  0  0  0  0  0  0  0  0  0  0  0
   44.0570   34.6740   40.5090 N   0  0  0  0  0  0  0  0  0  0  0  0
   44.7090   36.7091   45.3982 H   0  0  0  0  0  0  0  0  0  0  0  0
   43.6515   36.4041   43.1109 H   0  0  0  0  0  0  0  0  0  0  0  0
   47.5967   31.6759   43.8991 H   0  0  0  0  0  0  0  0  0  0  0  0
   47.0557   30.4410   47.9244 H   0  0  0  0  0  0  0  0  0  0  0  0
   42.1848   32.6051   42.0861 H   0  0  0  0  0  0  0  0  0  0  0  0
   43.3834   34.5415   38.4347 H   0  0  0  0  0  0  0  0  0  0  0  0
   44.8019   35.3767   40.3986 H   0  0  0  0  0  0  0  0  0  0  0  0
  1  6  2  0
  2  1  1  0
  3  2  2  0
  3  4  1  0
  4  5  2  0
  5  6  1  0
  5  7  1  0
  7 11  1  0
  8  7  2  0
  8  9  1  0
  9 10  2  0
 11 10  1  0
 11 12  1  0
 12 13  1  0
 12 15  1  0
 14 12  1  0
 16  3  1  0
 17 16  2  0
 18 17  1  0
 19 18  2  0
 19 20  1  0
 20 16  1  0
  1 21  1  0
  2 22  1  0
  8 23  1  0
 10 24  1  0
 17 25  1  0
 19 26  1  0
 20 27  1  0
M  ISO  7  21  14  22  14  23  14  24  14  25  14  26  14  27   9
M  END
>  <minimizedAffinity>  (1) 
-5.02236271

>  <minimizedRMSD>  (1) 
0.310605139

$$$$
