
     RDKit          3D

 43 46  0  0  1  0  0  0  0  0999 V2000
   49.2410   30.2010   42.5820 C   0  0  0  0  0  0  0  0  0  0  0  0
   49.2520   31.5920   42.3160 C   0  0  0  0  0  0  0  0  0  0  0  0
   48.4520   32.4320   43.1180 C   0  0  0  0  0  0  0  0  0  0  0  0
   47.7130   31.8600   44.1060 N   0  0  0  0  0  0  0  0  0  0  0  0
   47.7300   30.5060   44.3300 C   0  0  0  0  0  0  0  0  0  0  0  0
   48.4800   29.7050   43.5790 N   0  0  0  0  0  0  0  0  0  0  0  0
   48.3960   33.9060   42.9030 C   0  0  0  0  0  0  0  0  0  0  0  0
   47.0880   34.2600   42.3630 N   0  0  0  0  0  0  0  0  0  0  0  0
   46.7320   34.2060   41.0520 C   0  0  0  0  0  0  0  0  0  0  0  0
   45.4390   34.6100   40.9430 N   0  0  0  0  0  0  0  0  0  0  0  0
   44.9790   34.9160   42.1570 C   0  0  0  0  0  0  0  0  0  0  0  0
   43.7330   35.3750   42.5990 C   0  0  0  0  0  0  0  0  0  0  0  0
   42.8360   35.5570   41.7590 O   0  0  0  0  0  0  0  0  0  0  0  0
   43.6090   35.5840   43.9070 N   0  0  0  0  0  0  0  0  0  0  0  0
   44.6050   35.3770   44.7950 C   0  0  0  0  0  0  0  0  0  0  0  0
   44.3840   35.6250   46.1680 N   0  0  0  0  0  0  0  0  0  0  0  0
   45.8210   34.9310   44.3890 N   0  0  0  0  0  0  0  0  0  0  0  0
   46.0120   34.7010   43.0860 C   0  0  0  0  0  0  0  0  0  0  0  0
   46.9020   29.9150   45.4370 C   0  0  1  0  0  0  0  0  0  0  0  0
   46.5570   28.4680   45.1830 C   0  0  0  0  0  0  0  0  0  0  0  0
   47.6550   29.9660   46.7480 C   0  0  0  0  0  0  0  0  0  0  0  0
   46.7860   30.6820   47.7280 C   0  0  0  0  0  0  0  0  0  0  0  0
   46.7010   32.0620   47.8900 C   0  0  0  0  0  0  0  0  0  0  0  0
   45.8000   32.3870   48.8850 C   0  0  0  0  0  0  0  0  0  0  0  0
   45.3620   31.1450   49.2980 C   0  0  0  0  0  0  0  0  0  0  0  0
   45.9490   30.2110   48.6130 O   0  0  0  0  0  0  0  0  0  0  0  0
   49.8558   29.5221   41.9728 H   0  0  0  0  0  0  0  0  0  0  0  0
   49.8686   32.0065   41.5048 H   0  0  0  0  0  0  0  0  0  0  0  0
   48.5517   34.4242   43.8607 H   0  0  0  0  0  0  0  0  0  0  0  0
   49.1829   34.2077   42.1960 H   0  0  0  0  0  0  0  0  0  0  0  0
   47.3799   33.8894   40.2213 H   0  0  0  0  0  0  0  0  0  0  0  0
   42.7032   35.9224   44.2619 H   0  0  0  0  0  0  0  0  0  0  0  0
   45.1415   35.4682   46.8481 H   0  0  0  0  0  0  0  0  0  0  0  0
   43.4654   35.9626   46.4890 H   0  0  0  0  0  0  0  0  0  0  0  0
   45.9799   30.5133   45.4797 H   0  0  0  0  0  0  0  0  0  0  0  0
   46.4327   27.9466   46.1436 H   0  0  0  0  0  0  0  0  0  0  0  0
   45.6198   28.4096   44.6101 H   0  0  0  0  0  0  0  0  0  0  0  0
   47.3671   27.9930   44.6101 H   0  0  0  0  0  0  0  0  0  0  0  0
   47.8628   28.9459   47.1033 H   0  0  0  0  0  0  0  0  0  0  0  0
   48.6168   30.4856   46.6261 H   0  0  0  0  0  0  0  0  0  0  0  0
   47.2746   32.7953   47.3041 H   0  0  0  0  0  0  0  0  0  0  0  0
   45.5067   33.3809   49.2538 H   0  0  0  0  0  0  0  0  0  0  0  0
   44.6220   30.9713   50.0931 H   0  0  0  0  0  0  0  0  0  0  0  0
  1  6  2  0
  2  1  1  0
  2  3  2  0
  3  4  1  0
  4  5  2  0
  5 19  1  0
  6  5  1  0
  7  3  1  0
  8  7  1  0
  8 18  1  0
  9  8  1  0
 10  9  2  0
 10 11  1  0
 11 12  1  0
 11 18  2  0
 12 14  1  0
 13 12  2  0
 14 15  1  0
 15 16  1  0
 17 15  2  0
 18 17  1  0
 19 21  1  0
 20 19  1  0
 21 22  1  0
 22 23  2  0
 22 26  1  0
 23 24  1  0
 24 25  2  0
 26 25  1  0
  1 27  1  0
  2 28  1  0
  7 29  1  0
  7 30  1  0
  9 31  1  0
 14 32  1  0
 16 33  1  0
 16 34  1  0
 19 35  1  1
 20 36  1  0
 20 37  1  0
 20 38  1  0
 21 39  1  0
 21 40  1  0
 23 41  1  0
 24 42  1  0
 25 43  1  0
M  ISO  8  27  14  28  14  29   8  30   8  31  14  32   9  35   8  36   8
M  ISO  7  37   8  38   8  39   8  40   8  41  14  42  14  43  14
M  END
>  <minimizedAffinity>  (1) 
-6.15192842

>  <minimizedRMSD>  (1) 
1.1842649

$$$$
