
     RDKit          3D

 43 46  0  0  1  0  0  0  0  0999 V2000
   49.2320   30.1920   42.3430 C   0  0  0  0  0  0  0  0  0  0  0  0
   49.2190   31.5950   42.1290 C   0  0  0  0  0  0  0  0  0  0  0  0
   48.4840   32.3950   43.0280 C   0  0  0  0  0  0  0  0  0  0  0  0
   47.8320   31.7800   44.0470 N   0  0  0  0  0  0  0  0  0  0  0  0
   47.8720   30.4170   44.2160 C   0  0  0  0  0  0  0  0  0  0  0  0
   48.5610   29.6510   43.3740 N   0  0  0  0  0  0  0  0  0  0  0  0
   48.4060   33.8770   42.8810 C   0  0  0  0  0  0  0  0  0  0  0  0
   47.0960   34.2350   42.3380 N   0  0  0  0  0  0  0  0  0  0  0  0
   46.7390   34.1810   41.0170 C   0  0  0  0  0  0  0  0  0  0  0  0
   45.4560   34.5880   40.9140 N   0  0  0  0  0  0  0  0  0  0  0  0
   44.9880   34.8980   42.1450 C   0  0  0  0  0  0  0  0  0  0  0  0
   43.7470   35.3600   42.5740 C   0  0  0  0  0  0  0  0  0  0  0  0
   42.8420   35.5470   41.7320 O   0  0  0  0  0  0  0  0  0  0  0  0
   43.6210   35.5690   43.8800 N   0  0  0  0  0  0  0  0  0  0  0  0
   44.6250   35.3560   44.7690 C   0  0  0  0  0  0  0  0  0  0  0  0
   44.4020   35.6050   46.1460 N   0  0  0  0  0  0  0  0  0  0  0  0
   45.8360   34.9080   44.3650 N   0  0  0  0  0  0  0  0  0  0  0  0
   46.0250   34.6760   43.0450 C   0  0  0  0  0  0  0  0  0  0  0  0
   47.1460   29.7890   45.3590 C   0  0  1  0  0  0  0  0  0  0  0  0
   47.2840   28.2780   45.3570 C   0  0  0  0  0  0  0  0  0  0  0  0
   47.7060   30.2650   46.6820 C   0  0  0  0  0  0  0  0  0  0  0  0
   46.6810   30.7410   47.5580 N   0  0  0  0  0  0  0  0  0  0  0  0
   45.4430   31.0670   47.3120 N   0  0  0  0  0  0  0  0  0  0  0  0
   44.7800   31.4720   48.3920 C   0  0  0  0  0  0  0  0  0  0  0  0
   45.6680   31.4040   49.4460 C   0  0  0  0  0  0  0  0  0  0  0  0
   46.8360   30.9460   48.8880 C   0  0  0  0  0  0  0  0  0  0  0  0
   49.7965   29.5415   41.6587 H   0  0  0  0  0  0  0  0  0  0  0  0
   49.7658   32.0448   41.2872 H   0  0  0  0  0  0  0  0  0  0  0  0
   48.5399   34.3523   43.8639 H   0  0  0  0  0  0  0  0  0  0  0  0
   49.1972   34.2244   42.2003 H   0  0  0  0  0  0  0  0  0  0  0  0
   47.3846   33.8619   40.1855 H   0  0  0  0  0  0  0  0  0  0  0  0
   42.7165   35.9096   44.2359 H   0  0  0  0  0  0  0  0  0  0  0  0
   45.1581   35.4461   46.8271 H   0  0  0  0  0  0  0  0  0  0  0  0
   43.4838   35.9449   46.4658 H   0  0  0  0  0  0  0  0  0  0  0  0
   46.0916   30.0790   45.2398 H   0  0  0  0  0  0  0  0  0  0  0  0
   47.3175   27.9115   46.3936 H   0  0  0  0  0  0  0  0  0  0  0  0
   46.4229   27.8318   44.8380 H   0  0  0  0  0  0  0  0  0  0  0  0
   48.2117   27.9952   44.8380 H   0  0  0  0  0  0  0  0  0  0  0  0
   48.2281   29.4278   47.1683 H   0  0  0  0  0  0  0  0  0  0  0  0
   48.3937   31.0992   46.4791 H   0  0  0  0  0  0  0  0  0  0  0  0
   43.7301   31.7972   48.4361 H   0  0  0  0  0  0  0  0  0  0  0  0
   45.4816   31.6599   50.4994 H   0  0  0  0  0  0  0  0  0  0  0  0
   47.7686   30.7699   49.4441 H   0  0  0  0  0  0  0  0  0  0  0  0
  1  6  2  0
  2  1  1  0
  2  3  2  0
  3  4  1  0
  4  5  2  0
  5 19  1  0
  6  5  1  0
  7  3  1  0
  8  7  1  0
  8 18  1  0
  9  8  1  0
 10  9  2  0
 10 11  1  0
 11 12  1  0
 11 18  2  0
 12 14  1  0
 13 12  2  0
 14 15  1  0
 15 16  1  0
 17 15  2  0
 18 17  1  0
 19 21  1  0
 20 19  1  0
 21 22  1  0
 22 26  1  0
 23 22  1  0
 23 24  2  0
 24 25  1  0
 26 25  2  0
  1 27  1  0
  2 28  1  0
  7 29  1  0
  7 30  1  0
  9 31  1  0
 14 32  1  0
 16 33  1  0
 16 34  1  0
 19 35  1  1
 20 36  1  0
 20 37  1  0
 20 38  1  0
 21 39  1  0
 21 40  1  0
 24 41  1  0
 25 42  1  0
 26 43  1  0
M  ISO  8  27  14  28  14  29   8  30   8  31  14  32   9  35   8  36   8
M  ISO  7  37   8  38   8  39   8  40   8  41  14  42  14  43  14
M  END
>  <minimizedAffinity>  (1) 
-6.07303381

>  <minimizedRMSD>  (1) 
1.31166959

$$$$
