
     RDKit          3D

 43 46  0  0  1  0  0  0  0  0999 V2000
   47.8600   29.4390   43.2560 C   0  0  0  0  0  0  0  0  0  0  0  0
   48.1770   30.7230   42.7610 C   0  0  0  0  0  0  0  0  0  0  0  0
   47.9860   31.8240   43.6130 C   0  0  0  0  0  0  0  0  0  0  0  0
   47.5070   31.5930   44.8610 N   0  0  0  0  0  0  0  0  0  0  0  0
   47.2070   30.3290   45.3080 C   0  0  0  0  0  0  0  0  0  0  0  0
   47.3910   29.2830   44.4980 N   0  0  0  0  0  0  0  0  0  0  0  0
   48.2830   33.2220   43.1750 C   0  0  0  0  0  0  0  0  0  0  0  0
   47.0980   33.7920   42.5520 N   0  0  0  0  0  0  0  0  0  0  0  0
   46.8300   33.8100   41.2110 C   0  0  0  0  0  0  0  0  0  0  0  0
   45.6370   34.4240   41.0200 N   0  0  0  0  0  0  0  0  0  0  0  0
   45.1460   34.7960   42.2140 C   0  0  0  0  0  0  0  0  0  0  0  0
   43.9690   35.4540   42.5800 C   0  0  0  0  0  0  0  0  0  0  0  0
   43.1650   35.7950   41.6790 O   0  0  0  0  0  0  0  0  0  0  0  0
   43.7880   35.6720   43.8860 N   0  0  0  0  0  0  0  0  0  0  0  0
   44.6750   35.2900   44.8310 C   0  0  0  0  0  0  0  0  0  0  0  0
   44.3970   35.5660   46.1940 N   0  0  0  0  0  0  0  0  0  0  0  0
   45.8160   34.6530   44.5020 N   0  0  0  0  0  0  0  0  0  0  0  0
   46.0640   34.4010   43.2000 C   0  0  0  0  0  0  0  0  0  0  0  0
   46.6430   30.1320   46.7030 C   0  0  1  0  0  0  0  0  0  0  0  0
   46.8430   28.6830   47.1250 C   0  0  0  0  0  0  0  0  0  0  0  0
   47.3880   31.0110   47.6650 C   0  0  0  0  0  0  0  0  0  0  0  0
   46.5380   31.9120   48.4810 C   0  0  0  0  0  0  0  0  0  0  0  0
   45.3850   31.5700   49.3000 C   0  0  0  0  0  0  0  0  0  0  0  0
   45.2480   32.4820   48.0560 C   0  0  0  0  0  0  0  0  0  0  0  0
   48.0005   28.5578   42.6127 H   0  0  0  0  0  0  0  0  0  0  0  0
   48.5618   30.8573   41.7393 H   0  0  0  0  0  0  0  0  0  0  0  0
   48.5670   33.8282   44.0479 H   0  0  0  0  0  0  0  0  0  0  0  0
   49.1120   33.2137   42.4520 H   0  0  0  0  0  0  0  0  0  0  0  0
   47.4739   33.3961   40.4210 H   0  0  0  0  0  0  0  0  0  0  0  0
   42.9297   36.1552   44.1872 H   0  0  0  0  0  0  0  0  0  0  0  0
   45.0650   35.2800   46.9240 H   0  0  0  0  0  0  0  0  0  0  0  0
   43.5271   36.0524   46.4539 H   0  0  0  0  0  0  0  0  0  0  0  0
   45.5725   30.3852   46.7042 H   0  0  0  0  0  0  0  0  0  0  0  0
   46.8519   28.6188   48.2231 H   0  0  0  0  0  0  0  0  0  0  0  0
   46.0211   28.0688   46.7284 H   0  0  0  0  0  0  0  0  0  0  0  0
   47.8005   28.3144   46.7284 H   0  0  0  0  0  0  0  0  0  0  0  0
   47.9541   30.3631   48.3504 H   0  0  0  0  0  0  0  0  0  0  0  0
   48.0267   31.6640   47.0521 H   0  0  0  0  0  0  0  0  0  0  0  0
   47.5273   32.3235   48.7301 H   0  0  0  0  0  0  0  0  0  0  0  0
   44.9786   30.5480   49.2848 H   0  0  0  0  0  0  0  0  0  0  0  0
   45.1266   31.6512   50.3661 H   0  0  0  0  0  0  0  0  0  0  0  0
   45.0488   33.5574   48.1733 H   0  0  0  0  0  0  0  0  0  0  0  0
   44.6463   32.4806   47.1352 H   0  0  0  0  0  0  0  0  0  0  0  0
  1  6  2  0
  2  1  1  0
  2  3  2  0
  3  4  1  0
  4  5  2  0
  5 19  1  0
  6  5  1  0
  7  3  1  0
  8  7  1  0
  8 18  1  0
  9  8  1  0
 10  9  2  0
 10 11  1  0
 11 12  1  0
 11 18  2  0
 12 14  1  0
 13 12  2  0
 14 15  1  0
 15 16  1  0
 17 15  2  0
 18 17  1  0
 19 20  1  0
 19 21  1  0
 21 22  1  0
 22 23  1  0
 24 22  1  0
 24 23  1  0
  1 25  1  0
  2 26  1  0
  7 27  1  0
  7 28  1  0
  9 29  1  0
 14 30  1  0
 16 31  1  0
 16 32  1  0
 19 33  1  6
 20 34  1  0
 20 35  1  0
 20 36  1  0
 21 37  1  0
 21 38  1  0
 22 39  1  0
 23 40  1  0
 23 41  1  0
 24 42  1  0
 24 43  1  0
M  ISO  8  25  14  26  14  27   8  28   8  29  14  30   9  33   8  34   8
M  ISO  8  35   8  36   8  37   8  38   8  39  13  40  13  41  13  42  13
M  ISO  1  43  13
M  END
>  <minimizedAffinity>  (1) 
-5.98853445

>  <minimizedRMSD>  (1) 
0.630187452

$$$$
