
     RDKit          3D

 37 39  0  0  1  0  0  0  0  0999 V2000
   48.3480   29.9080   43.3500 C   0  0  0  0  0  0  0  0  0  0  0  0
   48.5200   31.1770   42.7370 C   0  0  0  0  0  0  0  0  0  0  0  0
   48.1110   32.3200   43.4550 C   0  0  0  0  0  0  0  0  0  0  0  0
   47.5760   32.1420   44.6930 N   0  0  0  0  0  0  0  0  0  0  0  0
   47.4280   30.8940   45.2470 C   0  0  0  0  0  0  0  0  0  0  0  0
   47.8100   29.8100   44.5790 N   0  0  0  0  0  0  0  0  0  0  0  0
   48.2460   33.6880   42.8850 C   0  0  0  0  0  0  0  0  0  0  0  0
   46.9510   34.1160   42.3560 N   0  0  0  0  0  0  0  0  0  0  0  0
   46.5700   34.0750   41.0410 C   0  0  0  0  0  0  0  0  0  0  0  0
   45.3090   34.5520   40.9560 N   0  0  0  0  0  0  0  0  0  0  0  0
   44.8810   34.8910   42.1760 C   0  0  0  0  0  0  0  0  0  0  0  0
   43.6710   35.4250   42.6240 C   0  0  0  0  0  0  0  0  0  0  0  0
   42.7730   35.6540   41.7930 O   0  0  0  0  0  0  0  0  0  0  0  0
   43.5640   35.6520   43.9260 N   0  0  0  0  0  0  0  0  0  0  0  0
   44.5620   35.3930   44.8090 C   0  0  0  0  0  0  0  0  0  0  0  0
   44.3720   35.6620   46.1800 N   0  0  0  0  0  0  0  0  0  0  0  0
   45.7440   34.8760   44.3990 N   0  0  0  0  0  0  0  0  0  0  0  0
   45.9080   34.6240   43.0810 C   0  0  0  0  0  0  0  0  0  0  0  0
   46.8440   30.7580   46.6100 C   0  0  1  0  0  0  0  0  0  0  0  0
   47.7340   29.9750   47.5480 C   0  0  0  0  0  0  0  0  0  0  0  0
   46.6200   32.1120   47.2510 C   0  0  0  0  0  0  0  0  0  0  0  0
   45.8350   31.9570   48.8740 S   0  0  0  0  0  0  0  0  0  0  0  0
   48.6572   28.9976   42.8156 H   0  0  0  0  0  0  0  0  0  0  0  0
   48.9590   31.2661   41.7323 H   0  0  0  0  0  0  0  0  0  0  0  0
   48.5709   34.3845   43.6719 H   0  0  0  0  0  0  0  0  0  0  0  0
   48.9924   33.6808   42.0770 H   0  0  0  0  0  0  0  0  0  0  0  0
   47.1834   33.7165   40.2012 H   0  0  0  0  0  0  0  0  0  0  0  0
   42.6814   36.0436   44.2846 H   0  0  0  0  0  0  0  0  0  0  0  0
   45.1272   35.4667   46.8526 H   0  0  0  0  0  0  0  0  0  0  0  0
   43.4780   36.0538   46.5089 H   0  0  0  0  0  0  0  0  0  0  0  0
   45.8931   30.2247   46.4635 H   0  0  0  0  0  0  0  0  0  0  0  0
   47.4667   30.2102   48.5888 H   0  0  0  0  0  0  0  0  0  0  0  0
   47.5982   28.8982   47.3689 H   0  0  0  0  0  0  0  0  0  0  0  0
   48.7847   30.2469   47.3689 H   0  0  0  0  0  0  0  0  0  0  0  0
   47.5906   32.6158   47.3702 H   0  0  0  0  0  0  0  0  0  0  0  0
   45.9527   32.6956   46.5997 H   0  0  0  0  0  0  0  0  0  0  0  0
   46.7735   32.1423   49.8547 H   0  0  0  0  0  0  0  0  0  0  0  0
  1  6  2  0
  2  1  1  0
  2  3  2  0
  3  4  1  0
  4  5  2  0
  5 19  1  0
  6  5  1  0
  7  3  1  0
  8  7  1  0
  8 18  1  0
  9  8  1  0
 10  9  2  0
 10 11  1  0
 11 12  1  0
 11 18  2  0
 12 14  1  0
 13 12  2  0
 14 15  1  0
 15 16  1  0
 17 15  2  0
 18 17  1  0
 19 21  1  0
 19 20  1  0
 21 22  1  0
  1 23  1  0
  2 24  1  0
  7 25  1  0
  7 26  1  0
  9 27  1  0
 14 28  1  0
 16 29  1  0
 16 30  1  0
 19 31  1  6
 20 32  1  0
 20 33  1  0
 20 34  1  0
 21 35  1  0
 21 36  1  0
 22 37  1  0
M  ISO  8  23  14  24  14  25   8  26   8  27  14  28   9  31   8  32   8
M  ISO  5  33   8  34   8  35   8  36   8  37  11
M  END
>  <minimizedAffinity>  (1) 
-5.51158094

>  <minimizedRMSD>  (1) 
0.107470371

$$$$
