
     RDKit          3D

 19 20  0  0  0  0  0  0  0  0999 V2000
   44.7150   35.9370   44.4400 C   0  0  0  0  0  0  0  0  0  0  0  0
   45.4770   35.2920   43.4580 C   0  0  0  0  0  0  0  0  0  0  0  0
   46.0400   34.0690   43.7880 C   0  0  0  0  0  0  0  0  0  0  0  0
   45.8250   33.5630   45.0410 N   0  0  0  0  0  0  0  0  0  0  0  0
   45.0860   34.2200   45.9470 C   0  0  0  0  0  0  0  0  0  0  0  0
   44.5310   35.4010   45.6530 N   0  0  0  0  0  0  0  0  0  0  0  0
   44.8530   33.7230   47.2280 O   0  0  0  0  0  0  0  0  0  0  0  0
   45.7310   32.7520   47.6920 C   0  0  0  0  0  0  0  0  0  0  0  0
   45.0140   31.6890   48.2550 C   0  0  0  0  0  0  0  0  0  0  0  0
   45.6960   30.5900   48.7910 C   0  0  0  0  0  0  0  0  0  0  0  0
   47.0430   30.6350   48.7230 N   0  0  0  0  0  0  0  0  0  0  0  0
   47.7170   31.6560   48.1830 C   0  0  0  0  0  0  0  0  0  0  0  0
   47.0750   32.7060   47.6710 N   0  0  0  0  0  0  0  0  0  0  0  0
   44.2556   36.9094   44.2087 H   0  0  0  0  0  0  0  0  0  0  0  0
   45.6231   35.7385   42.4634 H   0  0  0  0  0  0  0  0  0  0  0  0
   46.6478   33.5160   43.0567 H   0  0  0  0  0  0  0  0  0  0  0  0
   43.9146   31.7175   48.2761 H   0  0  0  0  0  0  0  0  0  0  0  0
   45.1644   29.7389   49.2416 H   0  0  0  0  0  0  0  0  0  0  0  0
   48.8164   31.6290   48.1610 H   0  0  0  0  0  0  0  0  0  0  0  0
  1  6  2  0
  2  3  2  0
  2  1  1  0
  3  4  1  0
  4  5  2  0
  5  7  1  0
  6  5  1  0
  7  8  1  0
  8  9  2  0
  9 10  1  0
 11 10  2  0
 12 11  1  0
 13  8  1  0
 13 12  2  0
  1 14  1  0
  2 15  1  0
  3 16  1  0
  9 17  1  0
 10 18  1  0
 12 19  1  0
M  ISO  6  14  14  15  14  16  14  17  14  18  14  19  14
M  END
>  <minimizedAffinity>  (1) 
-4.28002167

>  <minimizedRMSD>  (1) 
0.698195577

$$$$
