
     RDKit          3D

 25 27  0  0  0  0  0  0  0  0999 V2000
   46.1390   31.6970   46.5720 C   0  0  0  0  0  0  0  0  0  0  0  0
   45.5710   30.7840   45.7490 N   0  0  0  0  0  0  0  0  0  0  0  0
   45.9930   29.5110   45.7340 C   0  0  0  0  0  0  0  0  0  0  0  0
   46.9970   29.0820   46.5310 N   0  0  0  0  0  0  0  0  0  0  0  0
   47.5730   29.9740   47.3530 C   0  0  0  0  0  0  0  0  0  0  0  0
   48.5940   29.4880   48.1470 C   0  0  0  0  0  0  0  0  0  0  0  0
   49.2360   30.3440   49.0200 C   0  0  0  0  0  0  0  0  0  0  0  0
   48.8470   31.6860   49.0890 C   0  0  0  0  0  0  0  0  0  0  0  0
   47.8200   32.1310   48.2770 C   0  0  0  0  0  0  0  0  0  0  0  0
   47.1690   31.3100   47.4060 C   0  0  0  0  0  0  0  0  0  0  0  0
   45.8040   33.0390   46.6920 O   0  0  0  0  0  0  0  0  0  0  0  0
   44.5740   35.7350   44.7270 C   0  0  0  0  0  0  0  0  0  0  0  0
   45.2850   35.6370   43.5270 C   0  0  0  0  0  0  0  0  0  0  0  0
   46.2070   34.6040   43.4200 C   0  0  0  0  0  0  0  0  0  0  0  0
   46.3690   33.7570   44.4650 N   0  0  0  0  0  0  0  0  0  0  0  0
   45.6700   33.8780   45.6050 C   0  0  0  0  0  0  0  0  0  0  0  0
   44.7680   34.8700   45.7410 N   0  0  0  0  0  0  0  0  0  0  0  0
   45.5082   28.7955   45.0536 H   0  0  0  0  0  0  0  0  0  0  0  0
   48.8921   28.4310   48.0844 H   0  0  0  0  0  0  0  0  0  0  0  0
   50.0504   29.9719   49.6589 H   0  0  0  0  0  0  0  0  0  0  0  0
   49.3512   32.3778   49.7798 H   0  0  0  0  0  0  0  0  0  0  0  0
   47.5174   33.1869   48.3364 H   0  0  0  0  0  0  0  0  0  0  0  0
   43.8353   36.5413   44.8463 H   0  0  0  0  0  0  0  0  0  0  0  0
   45.1211   36.3474   42.7033 H   0  0  0  0  0  0  0  0  0  0  0  0
   46.7970   34.4754   42.5005 H   0  0  0  0  0  0  0  0  0  0  0  0
  1 11  1  0
  1 10  1  0
  2  1  2  0
  3  2  1  0
  3  4  2  0
  4  5  1  0
  5 10  2  0
  5  6  1  0
  6  7  2  0
  7  8  1  0
  9  8  2  0
 10  9  1  0
 12 17  2  0
 13 12  1  0
 14 13  2  0
 14 15  1  0
 15 16  2  0
 16 17  1  0
 16 11  1  0
  3 18  1  0
  6 19  1  0
  7 20  1  0
  8 21  1  0
  9 22  1  0
 12 23  1  0
 13 24  1  0
 14 25  1  0
M  ISO  8  18  14  19  14  20  14  21  14  22  14  23  14  24  14  25  14
M  END
>  <minimizedAffinity>  (1) 
-4.88258219

>  <minimizedRMSD>  (1) 
1.61742723

$$$$
