
     RDKit          3D

 15 15  0  0  0  0  0  0  0  0999 V2000
   44.6100   36.0140   44.6340 C   0  0  0  0  0  0  0  0  0  0  0  0
   45.1690   36.2420   43.3720 C   0  0  0  0  0  0  0  0  0  0  0  0
   45.9580   35.2250   42.8490 C   0  0  0  0  0  0  0  0  0  0  0  0
   46.1390   34.0970   43.5730 N   0  0  0  0  0  0  0  0  0  0  0  0
   45.5900   33.9080   44.7800 C   0  0  0  0  0  0  0  0  0  0  0  0
   44.8210   34.8750   45.3130 N   0  0  0  0  0  0  0  0  0  0  0  0
   45.7660   32.7630   45.5300 O   0  0  0  0  0  0  0  0  0  0  0  0
   45.9240   32.9470   46.9030 C   0  0  0  0  0  0  0  0  0  0  0  0
   44.8440   33.2930   47.7650 N   0  0  0  0  0  0  0  0  0  0  0  0
   47.1180   32.7730   47.2750 O   0  0  0  0  0  0  0  0  0  0  0  0
   43.9773   36.7929   45.0845 H   0  0  0  0  0  0  0  0  0  0  0  0
   44.9929   37.1783   42.8221 H   0  0  0  0  0  0  0  0  0  0  0  0
   46.4284   35.3356   41.8608 H   0  0  0  0  0  0  0  0  0  0  0  0
   45.0101   33.4184   48.7738 H   0  0  0  0  0  0  0  0  0  0  0  0
   43.8970   33.4178   47.3795 H   0  0  0  0  0  0  0  0  0  0  0  0
  1  6  2  0
  2  1  1  0
  3  2  2  0
  3  4  1  0
  4  5  2  0
  5  6  1  0
  5  7  1  0
  7  8  1  0
  8 10  2  0
  8  9  1  0
  1 11  1  0
  2 12  1  0
  3 13  1  0
  9 14  1  0
  9 15  1  0
M  ISO  3  11  14  12  14  13  14
M  END
>  <minimizedAffinity>  (1) 
-3.97392869

>  <minimizedRMSD>  (1) 
1.30513108

$$$$
