
     RDKit          3D

 18 19  0  0  0  0  0  0  0  0999 V2000
   45.1590   35.2900   44.1320 C   0  0  0  0  0  0  0  0  0  0  0  0
   46.1700   34.5810   43.4730 C   0  0  0  0  0  0  0  0  0  0  0  0
   46.7720   33.5260   44.1820 C   0  0  0  0  0  0  0  0  0  0  0  0
   46.3340   33.2700   45.4420 N   0  0  0  0  0  0  0  0  0  0  0  0
   45.3480   33.9870   46.0350 C   0  0  0  0  0  0  0  0  0  0  0  0
   44.7590   34.9990   45.3810 N   0  0  0  0  0  0  0  0  0  0  0  0
   44.9160   33.7120   47.3170 O   0  0  0  0  0  0  0  0  0  0  0  0
   45.4260   32.5800   47.9550 C   0  0  0  0  0  0  0  0  0  0  0  0
   44.7850   31.4000   48.2660 C   0  0  0  0  0  0  0  0  0  0  0  0
   45.7410   30.6100   48.8940 C   0  0  0  0  0  0  0  0  0  0  0  0
   46.9140   31.3380   48.9360 C   0  0  0  0  0  0  0  0  0  0  0  0
   46.6910   32.5080   48.3690 O   0  0  0  0  0  0  0  0  0  0  0  0
   44.6705   36.1221   43.6039 H   0  0  0  0  0  0  0  0  0  0  0  0
   46.4792   34.8369   42.4488 H   0  0  0  0  0  0  0  0  0  0  0  0
   47.5746   32.9254   43.7291 H   0  0  0  0  0  0  0  0  0  0  0  0
   43.7366   31.1383   48.0603 H   0  0  0  0  0  0  0  0  0  0  0  0
   45.5910   29.5929   49.2852 H   0  0  0  0  0  0  0  0  0  0  0  0
   47.8681   31.0008   49.3672 H   0  0  0  0  0  0  0  0  0  0  0  0
  1  6  2  0
  2  1  1  0
  2  3  2  0
  3  4  1  0
  4  5  2  0
  5  7  1  0
  6  5  1  0
  7  8  1  0
  8  9  2  0
  8 12  1  0
  9 10  1  0
 10 11  2  0
 12 11  1  0
  1 13  1  0
  2 14  1  0
  3 15  1  0
  9 16  1  0
 10 17  1  0
 11 18  1  0
M  ISO  6  13  14  14  14  15  14  16  14  17  14  18  14
M  END
>  <minimizedAffinity>  (1) 
-4.03679466

>  <minimizedRMSD>  (1) 
1.26442385

$$$$
