
     RDKit          3D

 17 18  0  0  0  0  0  0  0  0999 V2000
   44.6740   35.8210   44.5940 C   0  0  0  0  0  0  0  0  0  0  0  0
   45.4230   35.2020   43.5850 C   0  0  0  0  0  0  0  0  0  0  0  0
   46.0220   33.9840   43.9250 C   0  0  0  0  0  0  0  0  0  0  0  0
   45.8420   33.4940   45.1770 N   0  0  0  0  0  0  0  0  0  0  0  0
   45.1130   34.1270   46.1110 C   0  0  0  0  0  0  0  0  0  0  0  0
   44.5360   35.2860   45.8050 N   0  0  0  0  0  0  0  0  0  0  0  0
   44.9160   33.6500   47.3900 O   0  0  0  0  0  0  0  0  0  0  0  0
   45.5640   32.5030   47.8930 C   0  0  0  0  0  0  0  0  0  0  0  0
   46.9810   32.5320   47.9800 C   0  0  0  0  0  0  0  0  0  0  0  0
   47.2440   30.8310   48.6790 S   0  0  0  0  0  0  0  0  0  0  0  0
   45.4250   30.4250   48.7170 C   0  0  0  0  0  0  0  0  0  0  0  0
   44.7770   31.4820   48.2490 N   0  0  0  0  0  0  0  0  0  0  0  0
   44.1833   36.7816   44.3783 H   0  0  0  0  0  0  0  0  0  0  0  0
   45.5337   35.6469   42.5851 H   0  0  0  0  0  0  0  0  0  0  0  0
   46.6280   33.4337   43.1902 H   0  0  0  0  0  0  0  0  0  0  0  0
   47.7016   33.3197   47.7149 H   0  0  0  0  0  0  0  0  0  0  0  0
   44.9737   29.4835   49.0633 H   0  0  0  0  0  0  0  0  0  0  0  0
  1  6  2  0
  2  3  2  0
  2  1  1  0
  3  4  1  0
  4  5  2  0
  5  7  1  0
  6  5  1  0
  7  8  1  0
  8  9  2  0
  8 12  1  0
  9 10  1  0
 10 11  1  0
 12 11  2  0
  1 13  1  0
  2 14  1  0
  3 15  1  0
  9 16  1  0
 11 17  1  0
M  ISO  5  13  14  14  14  15  14  16  14  17  14
M  END
>  <minimizedAffinity>  (1) 
-3.97343659

>  <minimizedRMSD>  (1) 
0.586661518

$$$$
