
     RDKit          3D

 20 20  0  0  0  0  0  0  0  0999 V2000
   44.6390   35.9310   44.4820 C   0  0  0  0  0  0  0  0  0  0  0  0
   44.8880   34.9020   45.3950 C   0  0  0  0  0  0  0  0  0  0  0  0
   45.8160   33.9250   44.9920 C   0  0  0  0  0  0  0  0  0  0  0  0
   46.3990   34.0350   43.7770 N   0  0  0  0  0  0  0  0  0  0  0  0
   46.1170   35.0600   42.9300 C   0  0  0  0  0  0  0  0  0  0  0  0
   45.2420   35.9920   43.2970 N   0  0  0  0  0  0  0  0  0  0  0  0
   46.7160   35.1650   41.6900 O   0  0  0  0  0  0  0  0  0  0  0  0
   48.0150   34.7210   41.4010 C   0  0  0  0  0  0  0  0  0  0  0  0
   48.0520   34.3700   39.9150 C   0  0  0  0  0  0  0  0  0  0  0  0
   48.9980   35.8500   41.6150 C   0  0  0  0  0  0  0  0  0  0  0  0
   43.9195   36.7179   44.7525 H   0  0  0  0  0  0  0  0  0  0  0  0
   44.3866   34.8589   46.3731 H   0  0  0  0  0  0  0  0  0  0  0  0
   46.0639   33.0835   45.6557 H   0  0  0  0  0  0  0  0  0  0  0  0
   48.2733   33.8658   42.0428 H   0  0  0  0  0  0  0  0  0  0  0  0
   48.1667   33.2823   39.7979 H   0  0  0  0  0  0  0  0  0  0  0  0
   47.1148   34.6933   39.4384 H   0  0  0  0  0  0  0  0  0  0  0  0
   48.9012   34.8816   39.4384 H   0  0  0  0  0  0  0  0  0  0  0  0
   49.1400   36.0131   42.6935 H   0  0  0  0  0  0  0  0  0  0  0  0
   49.9619   35.5893   41.1536 H   0  0  0  0  0  0  0  0  0  0  0  0
   48.6072   36.7689   41.1536 H   0  0  0  0  0  0  0  0  0  0  0  0
  1  2  2  0
  3  2  1  0
  4  3  2  0
  5  6  2  0
  5  4  1  0
  6  1  1  0
  7  5  1  0
  8 10  1  0
  8  7  1  0
  9  8  1  0
  1 11  1  0
  2 12  1  0
  3 13  1  0
  8 14  1  0
  9 15  1  0
  9 16  1  0
  9 17  1  0
 10 18  1  0
 10 19  1  0
 10 20  1  0
M  ISO  8  11  14  12  14  13  14  14   8  15   8  16   8  17   8  18   8
M  ISO  2  19   8  20   8
M  END
>  <minimizedAffinity>  (1) 
-3.92633772

>  <minimizedRMSD>  (1) 
5.18905306

$$$$
