
     RDKit          3D

 23 23  0  0  0  0  0  0  0  0999 V2000
   44.9430   35.8100   42.9670 C   0  0  0  0  0  0  0  0  0  0  0  0
   46.0950   35.2930   42.3290 C   0  0  0  0  0  0  0  0  0  0  0  0
   45.8700   34.3140   41.3530 C   0  0  0  0  0  0  0  0  0  0  0  0
   44.6070   33.9190   41.0740 N   0  0  0  0  0  0  0  0  0  0  0  0
   43.5470   34.4380   41.7050 C   0  0  0  0  0  0  0  0  0  0  0  0
   43.7030   35.3820   42.6510 N   0  0  0  0  0  0  0  0  0  0  0  0
   42.2470   34.0600   41.4470 O   0  0  0  0  0  0  0  0  0  0  0  0
   41.5190   34.7820   40.4800 C   0  0  0  0  0  0  0  0  0  0  0  0
   40.3920   33.9010   39.9660 C   0  0  0  0  0  0  0  0  0  0  0  0
   42.4700   35.1800   39.3820 C   0  0  0  0  0  0  0  0  0  0  0  0
   40.8410   36.0020   41.0810 C   0  0  0  0  0  0  0  0  0  0  0  0
   45.0614   36.5819   43.7417 H   0  0  0  0  0  0  0  0  0  0  0  0
   47.1074   35.6393   42.5843 H   0  0  0  0  0  0  0  0  0  0  0  0
   46.7188   33.8673   40.8145 H   0  0  0  0  0  0  0  0  0  0  0  0
   39.8439   33.4725   40.8180 H   0  0  0  0  0  0  0  0  0  0  0  0
   39.7051   34.5041   39.3540 H   0  0  0  0  0  0  0  0  0  0  0  0
   40.8114   33.0889   39.3540 H   0  0  0  0  0  0  0  0  0  0  0  0
   43.3990   35.5688   39.8246 H   0  0  0  0  0  0  0  0  0  0  0  0
   42.6995   34.3024   38.7598 H   0  0  0  0  0  0  0  0  0  0  0  0
   42.0061   35.9595   38.7598 H   0  0  0  0  0  0  0  0  0  0  0  0
   40.8767   35.9378   42.1785 H   0  0  0  0  0  0  0  0  0  0  0  0
   41.3628   36.9119   40.7497 H   0  0  0  0  0  0  0  0  0  0  0  0
   39.7927   36.0393   40.7497 H   0  0  0  0  0  0  0  0  0  0  0  0
  2  1  2  0
  3  2  1  0
  4  3  2  0
  4  5  1  0
  5  6  2  0
  6  1  1  0
  7  5  1  0
  8 11  1  0
  8  7  1  0
  9  8  1  0
 10  8  1  0
  1 12  1  0
  2 13  1  0
  3 14  1  0
  9 15  1  0
  9 16  1  0
  9 17  1  0
 10 18  1  0
 10 19  1  0
 10 20  1  0
 11 21  1  0
 11 22  1  0
 11 23  1  0
M  ISO  8  12  14  13  14  14  14  15   8  16   8  17   8  18   8  19   8
M  ISO  4  20   8  21   8  22   8  23   8
M  END
>  <minimizedAffinity>  (1) 
-3.18540978

>  <minimizedRMSD>  (1) 
6.42670441

$$$$
