
     RDKit          3D

 13 13  0  0  0  0  0  0  0  0999 V2000
   44.6560   35.2490   45.6500 C   0  0  0  0  0  0  0  0  0  0  0  0
   45.3900   34.0410   45.7200 C   0  0  0  0  0  0  0  0  0  0  0  0
   45.7910   33.4800   44.5070 C   0  0  0  0  0  0  0  0  0  0  0  0
   45.4610   34.1160   43.3620 N   0  0  0  0  0  0  0  0  0  0  0  0
   44.7660   35.2600   43.3310 C   0  0  0  0  0  0  0  0  0  0  0  0
   44.3660   35.8230   44.4810 N   0  0  0  0  0  0  0  0  0  0  0  0
   44.4270   35.9120   42.1550 O   0  0  0  0  0  0  0  0  0  0  0  0
   43.2750   35.4950   41.4660 C   0  0  0  0  0  0  0  0  0  0  0  0
   42.0430   35.2060   41.6280 O   0  0  0  0  0  0  0  0  0  0  0  0
   44.3166   35.7259   46.5813 H   0  0  0  0  0  0  0  0  0  0  0  0
   45.6324   33.5678   46.6830 H   0  0  0  0  0  0  0  0  0  0  0  0
   46.3631   32.5408   44.4837 H   0  0  0  0  0  0  0  0  0  0  0  0
   43.5269   35.3741   40.4021 H   0  0  0  0  0  0  0  0  0  0  0  0
  1  2  2  0
  3  2  1  0
  4  3  2  0
  5  4  1  0
  5  6  2  0
  6  1  1  0
  7  5  1  0
  8  9  2  0
  8  7  1  0
  1 10  1  0
  2 11  1  0
  3 12  1  0
  8 13  1  0
M  ISO  4  10  14  11  14  12  14  13   6
M  END
>  <minimizedAffinity>  (1) 
-2.94895816

>  <minimizedRMSD>  (1) 
4.43155861

$$$$
