
     RDKit          3D

 25 26  0  0  0  0  0  0  0  0999 V2000
   44.5090   36.0360   44.7450 C   0  0  0  0  0  0  0  0  0  0  0  0
   45.2530   35.9970   43.5530 C   0  0  0  0  0  0  0  0  0  0  0  0
   46.0980   34.9190   43.3860 C   0  0  0  0  0  0  0  0  0  0  0  0
   46.1690   33.9720   44.3530 N   0  0  0  0  0  0  0  0  0  0  0  0
   45.4430   34.0350   45.4870 C   0  0  0  0  0  0  0  0  0  0  0  0
   44.6170   35.0700   45.6730 N   0  0  0  0  0  0  0  0  0  0  0  0
   46.8700   34.8410   42.1940 N   0  0  0  0  0  0  0  0  0  0  0  0
   48.0830   35.3560   41.9580 C   0  0  0  0  0  0  0  0  0  0  0  0
   48.6690   35.1630   40.7090 C   0  0  0  0  0  0  0  0  0  0  0  0
   48.0060   34.4570   39.7440 C   0  0  0  0  0  0  0  0  0  0  0  0
   48.5960   34.2530   38.4610 N   0  0  0  0  0  0  0  0  0  0  0  0
   46.7820   33.9420   39.9910 N   0  0  0  0  0  0  0  0  0  0  0  0
   46.2400   34.1460   41.2140 C   0  0  0  0  0  0  0  0  0  0  0  0
   45.0820   33.6140   41.3330 O   0  0  0  0  0  0  0  0  0  0  0  0
   45.4920   33.0890   46.4880 O   0  0  0  0  0  0  0  0  0  0  0  0
   46.6290   32.3300   46.8170 C   0  0  0  0  0  0  0  0  0  0  0  0
   47.5840   33.1010   47.4780 F   0  0  0  0  0  0  0  0  0  0  0  0
   47.1390   31.7100   45.7000 F   0  0  0  0  0  0  0  0  0  0  0  0
   46.2340   31.3570   47.7440 F   0  0  0  0  0  0  0  0  0  0  0  0
   43.8223   36.8769   44.9223 H   0  0  0  0  0  0  0  0  0  0  0  0
   45.1660   36.7861   42.7916 H   0  0  0  0  0  0  0  0  0  0  0  0
   48.6096   35.9236   42.7394 H   0  0  0  0  0  0  0  0  0  0  0  0
   49.6655   35.5788   40.4991 H   0  0  0  0  0  0  0  0  0  0  0  0
   49.5287   34.6388   38.2558 H   0  0  0  0  0  0  0  0  0  0  0  0
   48.0892   33.7199   37.7400 H   0  0  0  0  0  0  0  0  0  0  0  0
  1  6  2  0
  2  1  1  0
  3  2  2  0
  3  4  1  0
  4  5  2  0
  5  6  1  0
  5 15  1  0
  7  3  1  0
  8  7  1  0
  9  8  2  0
 10 12  2  0
 10  9  1  0
 11 10  1  0
 12 13  1  0
 13 14  2  0
 13  7  1  0
 15 16  1  0
 16 17  1  0
 16 19  1  0
 18 16  1  0
  1 20  1  0
  2 21  1  0
  8 22  1  0
  9 23  1  0
 11 24  1  0
 11 25  1  0
M  ISO  4  20  14  21  14  22  14  23  14
M  END
>  <minimizedAffinity>  (1) 
-5.78132725

>  <minimizedRMSD>  (1) 
1.44901347

$$$$
