
     RDKit          3D

 25 27  0  0  0  0  0  0  0  0999 V2000
   44.4850   36.1550   44.3880 C   0  0  0  0  0  0  0  0  0  0  0  0
   45.2770   36.0800   43.2490 C   0  0  0  0  0  0  0  0  0  0  0  0
   46.1850   35.0460   43.1740 C   0  0  0  0  0  0  0  0  0  0  0  0
   46.2650   34.1550   44.2050 N   0  0  0  0  0  0  0  0  0  0  0  0
   45.4790   34.2540   45.3040 C   0  0  0  0  0  0  0  0  0  0  0  0
   44.5820   35.2640   45.3930 N   0  0  0  0  0  0  0  0  0  0  0  0
   47.0340   34.9090   42.0280 N   0  0  0  0  0  0  0  0  0  0  0  0
   48.2680   35.3090   41.7030 C   0  0  0  0  0  0  0  0  0  0  0  0
   48.5590   34.8810   40.4590 N   0  0  0  0  0  0  0  0  0  0  0  0
   47.5170   34.2050   39.9770 C   0  0  0  0  0  0  0  0  0  0  0  0
   47.3550   33.5870   38.7560 C   0  0  0  0  0  0  0  0  0  0  0  0
   46.1900   32.9590   38.5020 N   0  0  0  0  0  0  0  0  0  0  0  0
   45.2410   32.9680   39.4600 C   0  0  0  0  0  0  0  0  0  0  0  0
   45.3890   33.5650   40.6510 N   0  0  0  0  0  0  0  0  0  0  0  0
   46.5450   34.2150   40.9600 C   0  0  0  0  0  0  0  0  0  0  0  0
   45.5250   33.3820   46.3650 O   0  0  0  0  0  0  0  0  0  0  0  0
   46.0830   32.0840   46.3000 C   0  0  0  0  0  0  0  0  0  0  0  0
   47.4740   32.1090   46.3230 F   0  0  0  0  0  0  0  0  0  0  0  0
   45.5830   31.4030   45.2120 F   0  0  0  0  0  0  0  0  0  0  0  0
   45.7050   31.4050   47.4690 F   0  0  0  0  0  0  0  0  0  0  0  0
   43.7525   36.9714   44.4718 H   0  0  0  0  0  0  0  0  0  0  0  0
   45.1829   36.8175   42.4383 H   0  0  0  0  0  0  0  0  0  0  0  0
   48.9389   35.8945   42.3488 H   0  0  0  0  0  0  0  0  0  0  0  0
   48.1588   33.6059   38.0053 H   0  0  0  0  0  0  0  0  0  0  0  0
   44.2901   32.4556   39.2520 H   0  0  0  0  0  0  0  0  0  0  0  0
  1  6  2  0
  2  1  1  0
  3  2  2  0
  3  4  1  0
  4  5  2  0
  5  6  1  0
  5 16  1  0
  7  3  1  0
  8  7  1  0
  9  8  2  0
 10  9  1  0
 10 15  2  0
 11 10  1  0
 12 11  2  0
 12 13  1  0
 13 14  2  0
 14 15  1  0
 15  7  1  0
 17 18  1  0
 17 16  1  0
 17 20  1  0
 19 17  1  0
  1 21  1  0
  2 22  1  0
  8 23  1  0
 11 24  1  0
 13 25  1  0
M  ISO  5  21  14  22  14  23  14  24  14  25  14
M  END
>  <minimizedAffinity>  (1) 
-5.36149979

>  <minimizedRMSD>  (1) 
1.1323427

$$$$
