
     RDKit          3D

 30 31  0  0  0  0  0  0  0  0999 V2000
   44.5500   36.0830   44.6630 C   0  0  0  0  0  0  0  0  0  0  0  0
   45.2850   35.7850   43.5130 C   0  0  0  0  0  0  0  0  0  0  0  0
   46.0200   34.6220   43.5290 C   0  0  0  0  0  0  0  0  0  0  0  0
   45.9910   33.8390   44.6430 N   0  0  0  0  0  0  0  0  0  0  0  0
   45.2700   34.1520   45.7420 C   0  0  0  0  0  0  0  0  0  0  0  0
   44.5470   35.2870   45.7420 N   0  0  0  0  0  0  0  0  0  0  0  0
   46.8600   34.1490   42.3920 C   0  0  0  0  0  0  0  0  0  0  0  0
   46.0620   34.4310   41.1380 C   0  0  0  0  0  0  0  0  0  0  0  0
   46.8560   33.7920   40.0150 C   0  0  0  0  0  0  0  0  0  0  0  0
   48.2350   34.3750   39.8990 C   0  0  0  0  0  0  0  0  0  0  0  0
   48.5510   35.3630   40.9910 C   0  0  0  0  0  0  0  0  0  0  0  0
   48.1410   34.9040   42.3660 C   0  0  0  0  0  0  0  0  0  0  0  0
   45.2220   33.3860   46.8760 O   0  0  0  0  0  0  0  0  0  0  0  0
   46.2010   32.4320   47.2370 C   0  0  0  0  0  0  0  0  0  0  0  0
   47.4780   32.9830   47.2460 F   0  0  0  0  0  0  0  0  0  0  0  0
   46.1020   31.3120   46.4400 F   0  0  0  0  0  0  0  0  0  0  0  0
   45.9550   32.0450   48.5550 F   0  0  0  0  0  0  0  0  0  0  0  0
   43.9511   37.0054   44.6841 H   0  0  0  0  0  0  0  0  0  0  0  0
   45.2765   36.4489   42.6360 H   0  0  0  0  0  0  0  0  0  0  0  0
   47.1027   33.0798   42.4804 H   0  0  0  0  0  0  0  0  0  0  0  0
   45.0605   33.9813   41.2078 H   0  0  0  0  0  0  0  0  0  0  0  0
   45.9129   35.5089   40.9770 H   0  0  0  0  0  0  0  0  0  0  0  0
   46.9419   32.7128   40.2101 H   0  0  0  0  0  0  0  0  0  0  0  0
   46.3251   33.9845   39.0710 H   0  0  0  0  0  0  0  0  0  0  0  0
   48.9670   33.5552   39.9456 H   0  0  0  0  0  0  0  0  0  0  0  0
   48.2838   34.9158   38.9424 H   0  0  0  0  0  0  0  0  0  0  0  0
   49.6366   35.5403   40.9943 H   0  0  0  0  0  0  0  0  0  0  0  0
   47.9752   36.2747   40.7735 H   0  0  0  0  0  0  0  0  0  0  0  0
   48.9340   34.2545   42.7651 H   0  0  0  0  0  0  0  0  0  0  0  0
   47.9908   35.8089   42.9732 H   0  0  0  0  0  0  0  0  0  0  0  0
  1  6  2  0
  2  3  2  0
  2  1  1  0
  3  4  1  0
  4  5  2  0
  5 13  1  0
  6  5  1  0
  7  3  1  0
  8  7  1  0
  9  8  1  0
 10  9  1  0
 10 11  1  0
 11 12  1  0
 12  7  1  0
 13 14  1  0
 14 15  1  0
 14 17  1  0
 16 14  1  0
  1 18  1  0
  2 19  1  0
  7 20  1  0
  8 21  1  0
  8 22  1  0
  9 23  1  0
  9 24  1  0
 10 25  1  0
 10 26  1  0
 11 27  1  0
 11 28  1  0
 12 29  1  0
 12 30  1  0
M  ISO  8  18  14  19  14  20  13  21  13  22  13  23  13  24  13  25  13
M  ISO  5  26  13  27  13  28  13  29  13  30  13
M  END
>  <minimizedAffinity>  (1) 
-5.69636106

>  <minimizedRMSD>  (1) 
0.639932513

$$$$
