
     RDKit          3D

 22 23  0  0  0  0  0  0  0  0999 V2000
   44.6410   36.0970   44.2700 C   0  0  0  0  0  0  0  0  0  0  0  0
   45.5070   35.7290   43.2440 C   0  0  0  0  0  0  0  0  0  0  0  0
   46.2770   34.6010   43.4390 C   0  0  0  0  0  0  0  0  0  0  0  0
   46.1250   33.9390   44.6240 N   0  0  0  0  0  0  0  0  0  0  0  0
   45.2870   34.3060   45.5970 C   0  0  0  0  0  0  0  0  0  0  0  0
   44.5280   35.4030   45.4240 N   0  0  0  0  0  0  0  0  0  0  0  0
   47.2420   34.0550   42.4890 C   0  0  0  0  0  0  0  0  0  0  0  0
   47.2740   34.4560   41.1800 C   0  0  0  0  0  0  0  0  0  0  0  0
   48.1720   33.9650   40.2410 C   0  0  0  0  0  0  0  0  0  0  0  0
   49.0680   33.0350   40.6470 N   0  0  0  0  0  0  0  0  0  0  0  0
   49.0300   32.6400   41.9520 C   0  0  0  0  0  0  0  0  0  0  0  0
   48.1520   33.1280   42.8450 N   0  0  0  0  0  0  0  0  0  0  0  0
   45.1380   33.6370   46.7840 O   0  0  0  0  0  0  0  0  0  0  0  0
   45.9730   32.5860   47.2230 C   0  0  0  0  0  0  0  0  0  0  0  0
   47.3140   32.9230   47.1980 F   0  0  0  0  0  0  0  0  0  0  0  0
   45.7120   31.4490   46.4990 F   0  0  0  0  0  0  0  0  0  0  0  0
   45.6690   32.3320   48.5660 F   0  0  0  0  0  0  0  0  0  0  0  0
   44.0197   36.9946   44.1350 H   0  0  0  0  0  0  0  0  0  0  0  0
   45.5746   36.3142   42.3150 H   0  0  0  0  0  0  0  0  0  0  0  0
   46.5451   35.2120   40.8527 H   0  0  0  0  0  0  0  0  0  0  0  0
   48.1556   34.3206   39.2002 H   0  0  0  0  0  0  0  0  0  0  0  0
   49.7541   31.8843   42.2905 H   0  0  0  0  0  0  0  0  0  0  0  0
  1  6  2  0
  2  3  2  0
  2  1  1  0
  3  4  1  0
  4  5  2  0
  5 13  1  0
  6  5  1  0
  7 12  1  0
  7  3  1  0
  8  7  2  0
  9 10  2  0
  9  8  1  0
 10 11  1  0
 11 12  2  0
 13 14  1  0
 14 17  1  0
 15 14  1  0
 16 14  1  0
  1 18  1  0
  2 19  1  0
  8 20  1  0
  9 21  1  0
 11 22  1  0
M  ISO  5  18  14  19  14  20  14  21  14  22  14
M  END
>  <minimizedAffinity>  (1) 
-4.94588327

>  <minimizedRMSD>  (1) 
0.580255628

$$$$
