
     RDKit          3D

 23 24  0  0  0  0  0  0  0  0999 V2000
   46.3150   32.3580   45.5910 C   0  0  0  0  0  0  0  0  0  0  0  0
   47.3060   31.5370   45.0630 C   0  0  0  0  0  0  0  0  0  0  0  0
   47.7260   30.6660   46.0260 N   0  0  0  0  0  0  0  0  0  0  0  0
   46.9940   30.9600   47.1240 C   0  0  0  0  0  0  0  0  0  0  0  0
   46.1410   31.9810   46.8650 N   0  0  0  0  0  0  0  0  0  0  0  0
   44.8430   35.6370   44.8390 C   0  0  0  0  0  0  0  0  0  0  0  0
   44.2450   35.4250   43.5800 C   0  0  0  0  0  0  0  0  0  0  0  0
   44.3620   34.1640   43.0250 C   0  0  0  0  0  0  0  0  0  0  0  0
   45.0310   33.1880   43.6840 N   0  0  0  0  0  0  0  0  0  0  0  0
   45.5990   33.4250   44.8990 C   0  0  0  0  0  0  0  0  0  0  0  0
   45.4950   34.6380   45.4510 N   0  0  0  0  0  0  0  0  0  0  0  0
   43.7830   33.7730   41.6920 C   0  0  0  0  0  0  0  0  0  0  0  0
   45.1880   32.5850   47.7950 C   0  0  0  0  0  0  0  0  0  0  0  0
   44.1860   31.6930   48.1660 F   0  0  0  0  0  0  0  0  0  0  0  0
   44.6370   33.7510   47.2760 F   0  0  0  0  0  0  0  0  0  0  0  0
   45.8450   32.9110   48.9870 F   0  0  0  0  0  0  0  0  0  0  0  0
   47.6900   31.5826   44.0332 H   0  0  0  0  0  0  0  0  0  0  0  0
   47.0788   30.4433   48.0914 H   0  0  0  0  0  0  0  0  0  0  0  0
   44.7745   36.6238   45.3201 H   0  0  0  0  0  0  0  0  0  0  0  0
   43.7066   36.2309   43.0598 H   0  0  0  0  0  0  0  0  0  0  0  0
   42.8807   33.1637   41.8487 H   0  0  0  0  0  0  0  0  0  0  0  0
   43.5199   34.6791   41.1265 H   0  0  0  0  0  0  0  0  0  0  0  0
   44.5252   33.1905   41.1265 H   0  0  0  0  0  0  0  0  0  0  0  0
  1  5  1  0
  2  1  2  0
  2  3  1  0
  3  4  2  0
  5  4  1  0
  5 13  1  0
  6 11  2  0
  7  6  1  0
  8  7  2  0
  8  9  1  0
  9 10  2  0
 10 11  1  0
 10  1  1  0
 12  8  1  0
 13 14  1  0
 13 16  1  0
 15 13  1  0
  2 17  1  0
  4 18  1  0
  6 19  1  0
  7 20  1  0
 12 21  1  0
 12 22  1  0
 12 23  1  0
M  ISO  7  17  14  18  14  19  14  20  14  21   8  22   8  23   8
M  END
>  <minimizedAffinity>  (1) 
-4.321805

>  <minimizedRMSD>  (1) 
0.0916703194

$$$$
