
     RDKit          3D

 15 15  0  0  0  0  0  0  0  0999 V2000
   44.6740   36.0270   44.3520 C   0  0  0  0  0  0  0  0  0  0  0  0
   45.4800   35.5420   43.3200 C   0  0  0  0  0  0  0  0  0  0  0  0
   46.1670   34.3610   43.5460 C   0  0  0  0  0  0  0  0  0  0  0  0
   46.0230   33.7400   44.7530 N   0  0  0  0  0  0  0  0  0  0  0  0
   45.2390   34.2310   45.7290 C   0  0  0  0  0  0  0  0  0  0  0  0
   44.5630   35.3810   45.5240 N   0  0  0  0  0  0  0  0  0  0  0  0
   47.2410   33.6010   42.3320 S   0  0  0  0  0  0  0  0  0  0  0  0
   45.0680   33.6320   46.9640 O   0  0  0  0  0  0  0  0  0  0  0  0
   45.8660   32.5950   47.4440 C   0  0  0  0  0  0  0  0  0  0  0  0
   47.2180   32.8860   47.3840 F   0  0  0  0  0  0  0  0  0  0  0  0
   45.5530   31.3990   46.8080 F   0  0  0  0  0  0  0  0  0  0  0  0
   45.5730   32.4440   48.8080 F   0  0  0  0  0  0  0  0  0  0  0  0
   44.1155   36.9625   44.2010 H   0  0  0  0  0  0  0  0  0  0  0  0
   45.5660   36.0780   42.3633 H   0  0  0  0  0  0  0  0  0  0  0  0
   48.2300   32.9012   42.9716 H   0  0  0  0  0  0  0  0  0  0  0  0
  1  6  2  0
  2  3  2  0
  2  1  1  0
  3  4  1  0
  4  5  2  0
  5  8  1  0
  6  5  1  0
  7  3  1  0
  8  9  1  0
  9 12  1  0
 10  9  1  0
 11  9  1  0
  1 13  1  0
  2 14  1  0
  7 15  1  0
M  ISO  3  13  14  14  14  15  11
M  END
>  <minimizedAffinity>  (1) 
-4.05192709

>  <minimizedRMSD>  (1) 
0.012146052

$$$$
