
     RDKit          3D

 16 16  0  0  0  0  0  0  0  0999 V2000
   44.6830   36.0250   44.3450 C   0  0  0  0  0  0  0  0  0  0  0  0
   45.4790   35.5560   43.3090 C   0  0  0  0  0  0  0  0  0  0  0  0
   46.1610   34.3750   43.5420 C   0  0  0  0  0  0  0  0  0  0  0  0
   46.0100   33.7630   44.7460 N   0  0  0  0  0  0  0  0  0  0  0  0
   45.2350   34.2390   45.7250 C   0  0  0  0  0  0  0  0  0  0  0  0
   44.5510   35.3920   45.5390 N   0  0  0  0  0  0  0  0  0  0  0  0
   46.9890   33.8610   42.5060 N   0  0  0  0  0  0  0  0  0  0  0  0
   45.0730   33.6310   46.9480 O   0  0  0  0  0  0  0  0  0  0  0  0
   45.8670   32.5950   47.4390 C   0  0  0  0  0  0  0  0  0  0  0  0
   47.2230   32.8860   47.3730 F   0  0  0  0  0  0  0  0  0  0  0  0
   45.5690   31.4080   46.7850 F   0  0  0  0  0  0  0  0  0  0  0  0
   45.5810   32.4300   48.7970 F   0  0  0  0  0  0  0  0  0  0  0  0
   44.1280   36.9620   44.1900 H   0  0  0  0  0  0  0  0  0  0  0  0
   45.5631   36.0947   42.3536 H   0  0  0  0  0  0  0  0  0  0  0  0
   47.5092   32.9837   42.6499 H   0  0  0  0  0  0  0  0  0  0  0  0
   47.0684   34.3660   41.6118 H   0  0  0  0  0  0  0  0  0  0  0  0
  1  6  2  0
  2  3  2  0
  2  1  1  0
  3  4  1  0
  4  5  2  0
  5  8  1  0
  6  5  1  0
  7  3  1  0
  8  9  1  0
  9 12  1  0
 10  9  1  0
 11  9  1  0
  1 13  1  0
  2 14  1  0
  7 15  1  0
  7 16  1  0
M  ISO  2  13  14  14  14
M  END
>  <minimizedAffinity>  (1) 
-4.0685091

>  <minimizedRMSD>  (1) 
0.0125635229

$$$$
