
     RDKit          3D

 38 40  0  0  1  0  0  0  0  0999 V2000
   47.2220   34.4370   42.3820 N   0  0  0  0  0  0  0  0  0  0  0  0
   46.9000   34.0590   41.0050 C   0  0  0  0  0  0  0  0  0  0  0  0
   48.1630   34.4390   40.2250 C   0  0  0  0  0  0  0  0  0  0  0  0
   48.6960   35.6130   40.7130 O   0  0  0  0  0  0  0  0  0  0  0  0
   49.3230   35.4510   41.9500 C   0  0  0  0  0  0  0  0  0  0  0  0
   48.6470   34.3800   42.7230 C   0  0  2  0  0  0  0  0  0  0  0  0
   49.1650   33.0670   42.6780 N   0  0  0  0  0  0  0  0  0  0  0  0
   48.2590   32.0840   42.9730 C   0  0  0  0  0  0  0  0  0  0  0  0
   48.5870   30.7460   42.9810 C   0  0  0  0  0  0  0  0  0  0  0  0
   49.8820   30.3220   42.6800 C   0  0  0  0  0  0  0  0  0  0  0  0
   50.3420   28.9790   42.6540 N   0  0  0  0  0  0  0  0  0  0  0  0
   50.7810   31.3080   42.3870 N   0  0  0  0  0  0  0  0  0  0  0  0
   50.3760   32.5870   42.4040 C   0  0  0  0  0  0  0  0  0  0  0  0
   51.2390   33.4470   42.1300 O   0  0  0  0  0  0  0  0  0  0  0  0
   44.4850   36.1710   44.1920 C   0  0  0  0  0  0  0  0  0  0  0  0
   45.3820   35.9020   43.1700 C   0  0  0  0  0  0  0  0  0  0  0  0
   46.2400   34.8430   43.3300 C   0  0  0  0  0  0  0  0  0  0  0  0
   46.1490   34.1410   44.4690 N   0  0  0  0  0  0  0  0  0  0  0  0
   45.2850   34.3990   45.4540 C   0  0  0  0  0  0  0  0  0  0  0  0
   44.4490   35.4280   45.3040 N   0  0  0  0  0  0  0  0  0  0  0  0
   45.1890   33.6800   46.6250 O   0  0  0  0  0  0  0  0  0  0  0  0
   45.9800   32.5520   46.9280 C   0  0  0  0  0  0  0  0  0  0  0  0
   47.2980   32.9050   47.1200 F   0  0  0  0  0  0  0  0  0  0  0  0
   45.8390   31.5570   45.9900 F   0  0  0  0  0  0  0  0  0  0  0  0
   45.5610   32.0600   48.1720 F   0  0  0  0  0  0  0  0  0  0  0  0
   46.7013   32.9797   40.9298 H   0  0  0  0  0  0  0  0  0  0  0  0
   45.9956   34.5564   40.6245 H   0  0  0  0  0  0  0  0  0  0  0  0
   47.9070   34.5713   39.1634 H   0  0  0  0  0  0  0  0  0  0  0  0
   48.9065   33.6362   40.3382 H   0  0  0  0  0  0  0  0  0  0  0  0
   50.3765   35.1770   41.7917 H   0  0  0  0  0  0  0  0  0  0  0  0
   49.2644   36.3949   42.5118 H   0  0  0  0  0  0  0  0  0  0  0  0
   48.8481   34.6076   43.7802 H   0  0  0  0  0  0  0  0  0  0  0  0
   47.2258   32.3747   43.2137 H   0  0  0  0  0  0  0  0  0  0  0  0
   47.8166   30.0008   43.2283 H   0  0  0  0  0  0  0  0  0  0  0  0
   51.3237   28.7753   42.4178 H   0  0  0  0  0  0  0  0  0  0  0  0
   49.6940   28.2084   42.8713 H   0  0  0  0  0  0  0  0  0  0  0  0
   43.7869   37.0145   44.0863 H   0  0  0  0  0  0  0  0  0  0  0  0
   45.4053   36.5182   42.2591 H   0  0  0  0  0  0  0  0  0  0  0  0
  1  6  1  0
  1 17  1  0
  2  1  1  0
  3  4  1  0
  3  2  1  0
  4  5  1  0
  5  6  1  0
  7  6  1  0
  7  8  1  0
  8  9  2  0
 10  9  1  0
 11 10  1  0
 12 13  1  0
 12 10  2  0
 13  7  1  0
 14 13  2  0
 15 20  2  0
 16 17  2  0
 16 15  1  0
 17 18  1  0
 18 19  2  0
 19 21  1  0
 20 19  1  0
 21 22  1  0
 22 23  1  0
 22 25  1  0
 24 22  1  0
  2 26  1  0
  2 27  1  0
  3 28  1  0
  3 29  1  0
  5 30  1  0
  5 31  1  0
  6 32  1  1
  8 33  1  0
  9 34  1  0
 11 35  1  0
 11 36  1  0
 15 37  1  0
 16 38  1  0
M  ISO  8  26  13  27  13  28  13  29  13  30  13  31  13  32  13  33  14
M  ISO  3  34  14  37  14  38  14
M  END
>  <minimizedAffinity>  (1) 
-6.18415785

>  <minimizedRMSD>  (1) 
1.03078043

$$$$
