
     RDKit          3D

 40 42  0  0  1  0  0  0  0  0999 V2000
   47.3120   34.4880   42.2980 N   0  0  0  0  0  0  0  0  0  0  0  0
   46.9970   34.1310   40.9140 C   0  0  0  0  0  0  0  0  0  0  0  0
   48.2260   34.6200   40.1290 C   0  0  0  0  0  0  0  0  0  0  0  0
   48.7370   35.7910   40.6770 O   0  0  0  0  0  0  0  0  0  0  0  0
   49.3670   35.5980   41.8780 C   0  0  0  0  0  0  0  0  0  0  0  0
   48.7330   34.4470   42.6150 C   0  0  2  0  0  0  0  0  0  0  0  0
   44.5240   36.1000   44.1660 C   0  0  0  0  0  0  0  0  0  0  0  0
   45.4280   35.8870   43.1330 C   0  0  0  0  0  0  0  0  0  0  0  0
   46.3260   34.8450   43.2560 C   0  0  0  0  0  0  0  0  0  0  0  0
   46.2550   34.1110   44.3800 N   0  0  0  0  0  0  0  0  0  0  0  0
   45.3880   34.3110   45.3760 C   0  0  0  0  0  0  0  0  0  0  0  0
   44.5200   35.3160   45.2600 N   0  0  0  0  0  0  0  0  0  0  0  0
   45.3320   33.5480   46.5180 O   0  0  0  0  0  0  0  0  0  0  0  0
   46.0420   32.3530   46.7220 C   0  0  0  0  0  0  0  0  0  0  0  0
   47.3880   32.5980   46.9070 F   0  0  0  0  0  0  0  0  0  0  0  0
   45.8050   31.4470   45.7170 F   0  0  0  0  0  0  0  0  0  0  0  0
   45.6200   31.7980   47.9370 F   0  0  0  0  0  0  0  0  0  0  0  0
   49.2310   33.1560   42.2730 N   0  0  0  0  0  0  0  0  0  0  0  0
   50.6840   33.2080   42.2460 C   0  0  0  0  0  0  0  0  0  0  0  0
   51.2150   32.0430   41.4240 C   0  0  0  0  0  0  0  0  0  0  0  0
   50.3780   30.9320   41.4720 O   0  0  0  0  0  0  0  0  0  0  0  0
   49.1300   31.1760   40.9520 C   0  0  0  0  0  0  0  0  0  0  0  0
   48.8690   32.6850   40.9800 C   0  0  0  0  0  0  0  0  0  0  0  0
   46.8695   33.0436   40.8076 H   0  0  0  0  0  0  0  0  0  0  0  0
   46.0564   34.5778   40.5595 H   0  0  0  0  0  0  0  0  0  0  0  0
   47.9337   34.8094   39.0856 H   0  0  0  0  0  0  0  0  0  0  0  0
   49.0034   33.8433   40.1780 H   0  0  0  0  0  0  0  0  0  0  0  0
   50.4294   35.3753   41.7001 H   0  0  0  0  0  0  0  0  0  0  0  0
   49.2729   36.5104   42.4851 H   0  0  0  0  0  0  0  0  0  0  0  0
   48.9647   34.5751   43.6827 H   0  0  0  0  0  0  0  0  0  0  0  0
   43.7989   36.9236   44.0886 H   0  0  0  0  0  0  0  0  0  0  0  0
   45.4286   36.5309   42.2411 H   0  0  0  0  0  0  0  0  0  0  0  0
   51.0092   34.1559   41.7923 H   0  0  0  0  0  0  0  0  0  0  0  0
   51.0737   33.1418   43.2725 H   0  0  0  0  0  0  0  0  0  0  0  0
   52.2031   31.7574   41.8140 H   0  0  0  0  0  0  0  0  0  0  0  0
   51.2737   32.3724   40.3761 H   0  0  0  0  0  0  0  0  0  0  0  0
   48.3703   30.6583   41.5560 H   0  0  0  0  0  0  0  0  0  0  0  0
   49.0782   30.8073   39.9169 H   0  0  0  0  0  0  0  0  0  0  0  0
   49.4781   33.1861   40.2133 H   0  0  0  0  0  0  0  0  0  0  0  0
   47.8107   32.8998   40.7709 H   0  0  0  0  0  0  0  0  0  0  0  0
  1  6  1  0
  1  9  1  0
  2  1  1  0
  3  4  1  0
  3  2  1  0
  4  5  1  0
  5  6  1  0
  7 12  2  0
  8  9  2  0
  8  7  1  0
  9 10  1  0
 10 11  2  0
 11 13  1  0
 12 11  1  0
 13 14  1  0
 14 15  1  0
 14 17  1  0
 16 14  1  0
 18  6  1  0
 19 18  1  0
 20 21  1  0
 20 19  1  0
 22 23  1  0
 22 21  1  0
 23 18  1  0
  2 24  1  0
  2 25  1  0
  3 26  1  0
  3 27  1  0
  5 28  1  0
  5 29  1  0
  6 30  1  1
  7 31  1  0
  8 32  1  0
 19 33  1  0
 19 34  1  0
 20 35  1  0
 20 36  1  0
 22 37  1  0
 22 38  1  0
 23 39  1  0
 23 40  1  0
M  ISO  8  24  13  25  13  26  13  27  13  28  13  29  13  30  13  31  14
M  ISO  8  32  14  33  13  34  13  35  13  36  13  37  13  38  13  39  13
M  ISO  1  40  13
M  END
>  <minimizedAffinity>  (1) 
-6.05540276

>  <minimizedRMSD>  (1) 
0.581570923

$$$$
