
     RDKit          3D

 40 43  0  0  1  0  0  0  0  0999 V2000
   47.1510   34.3620   42.4810 N   0  0  0  0  0  0  0  0  0  0  0  0
   46.8580   34.3320   41.0590 C   0  0  0  0  0  0  0  0  0  0  0  0
   48.2010   34.6780   40.4020 C   0  0  0  0  0  0  0  0  0  0  0  0
   48.9360   35.5590   41.1720 O   0  0  0  0  0  0  0  0  0  0  0  0
   49.4470   34.9620   42.3230 C   0  0  0  0  0  0  0  0  0  0  0  0
   48.5020   33.9310   42.8170 C   0  0  2  0  0  0  0  0  0  0  0  0
   48.7460   32.5860   42.4120 N   0  0  0  0  0  0  0  0  0  0  0  0
   47.8320   31.6160   42.6010 C   0  0  0  0  0  0  0  0  0  0  0  0
   48.3130   30.4580   42.1340 N   0  0  0  0  0  0  0  0  0  0  0  0
   49.5600   30.6310   41.6230 C   0  0  0  0  0  0  0  0  0  0  0  0
   50.5310   29.8520   41.0250 C   0  0  0  0  0  0  0  0  0  0  0  0
   51.7030   30.3860   40.6270 N   0  0  0  0  0  0  0  0  0  0  0  0
   51.9020   31.7190   40.8330 C   0  0  0  0  0  0  0  0  0  0  0  0
   50.9540   32.4980   41.4210 N   0  0  0  0  0  0  0  0  0  0  0  0
   49.7800   31.9780   41.8240 C   0  0  0  0  0  0  0  0  0  0  0  0
   50.2480   28.4690   40.8450 N   0  0  0  0  0  0  0  0  0  0  0  0
   44.5160   36.0950   44.4550 C   0  0  0  0  0  0  0  0  0  0  0  0
   45.3700   35.8540   43.3850 C   0  0  0  0  0  0  0  0  0  0  0  0
   46.2030   34.7770   43.4720 C   0  0  0  0  0  0  0  0  0  0  0  0
   46.1460   34.0110   44.5950 N   0  0  0  0  0  0  0  0  0  0  0  0
   45.3260   34.2430   45.6230 C   0  0  0  0  0  0  0  0  0  0  0  0
   44.5050   35.3000   45.5440 N   0  0  0  0  0  0  0  0  0  0  0  0
   45.2520   33.4860   46.7630 O   0  0  0  0  0  0  0  0  0  0  0  0
   46.1410   32.4520   47.0800 C   0  0  0  0  0  0  0  0  0  0  0  0
   47.4250   32.9150   47.2360 F   0  0  0  0  0  0  0  0  0  0  0  0
   46.0700   31.4160   46.1560 F   0  0  0  0  0  0  0  0  0  0  0  0
   45.7800   31.9460   48.3380 F   0  0  0  0  0  0  0  0  0  0  0  0
   46.5163   33.3331   40.7501 H   0  0  0  0  0  0  0  0  0  0  0  0
   46.0538   35.0268   40.7753 H   0  0  0  0  0  0  0  0  0  0  0  0
   48.7808   33.7529   40.2678 H   0  0  0  0  0  0  0  0  0  0  0  0
   47.9949   35.1587   39.4343 H   0  0  0  0  0  0  0  0  0  0  0  0
   50.4134   34.4904   42.0914 H   0  0  0  0  0  0  0  0  0  0  0  0
   49.5852   35.7293   43.0990 H   0  0  0  0  0  0  0  0  0  0  0  0
   48.6544   33.8701   43.9047 H   0  0  0  0  0  0  0  0  0  0  0  0
   46.8448   31.7537   43.0663 H   0  0  0  0  0  0  0  0  0  0  0  0
   52.8514   32.1755   40.5163 H   0  0  0  0  0  0  0  0  0  0  0  0
   50.9459   27.8538   40.4030 H   0  0  0  0  0  0  0  0  0  0  0  0
   49.3453   28.0832   41.1567 H   0  0  0  0  0  0  0  0  0  0  0  0
   43.8322   36.9556   44.4122 H   0  0  0  0  0  0  0  0  0  0  0  0
   45.3740   36.5078   42.5004 H   0  0  0  0  0  0  0  0  0  0  0  0
  1  6  1  0
  1 19  1  0
  2  1  1  0
  3  2  1  0
  3  4  1  0
  4  5  1  0
  5  6  1  0
  7  8  1  0
  7  6  1  0
  9  8  2  0
 10 15  2  0
 10  9  1  0
 11 10  1  0
 12 13  1  0
 12 11  2  0
 13 14  2  0
 14 15  1  0
 15  7  1  0
 16 11  1  0
 17 22  2  0
 18 19  2  0
 18 17  1  0
 19 20  1  0
 20 21  2  0
 21 23  1  0
 22 21  1  0
 23 24  1  0
 24 25  1  0
 24 27  1  0
 26 24  1  0
  2 28  1  0
  2 29  1  0
  3 30  1  0
  3 31  1  0
  5 32  1  0
  5 33  1  0
  6 34  1  1
  8 35  1  0
 13 36  1  0
 16 37  1  0
 16 38  1  0
 17 39  1  0
 18 40  1  0
M  ISO  8  28  13  29  13  30  13  31  13  32  13  33  13  34  13  35  14
M  ISO  3  36  14  39  14  40  14
M  END
>  <minimizedAffinity>  (1) 
-6.18995285

>  <minimizedRMSD>  (1) 
0.951585054

$$$$
