
     RDKit          3D

 29 30  0  0  1  0  0  0  0  0999 V2000
   47.2510   34.4420   42.3580 N   0  0  0  0  0  0  0  0  0  0  0  0
   46.9350   34.0410   40.9870 C   0  0  0  0  0  0  0  0  0  0  0  0
   48.1430   34.5120   40.1820 C   0  0  0  0  0  0  0  0  0  0  0  0
   48.6820   35.6780   40.6910 O   0  0  0  0  0  0  0  0  0  0  0  0
   49.3410   35.4830   41.8900 C   0  0  0  0  0  0  0  0  0  0  0  0
   48.6700   34.3990   42.6680 C   0  0  2  0  0  0  0  0  0  0  0  0
   44.5190   36.1220   44.2350 C   0  0  0  0  0  0  0  0  0  0  0  0
   45.4060   35.8900   43.1900 C   0  0  0  0  0  0  0  0  0  0  0  0
   46.2670   34.8400   43.3190 C   0  0  0  0  0  0  0  0  0  0  0  0
   46.2050   34.0920   44.4510 N   0  0  0  0  0  0  0  0  0  0  0  0
   45.3490   34.3210   45.4510 C   0  0  0  0  0  0  0  0  0  0  0  0
   44.5070   35.3400   45.3350 N   0  0  0  0  0  0  0  0  0  0  0  0
   45.2810   33.5650   46.6010 O   0  0  0  0  0  0  0  0  0  0  0  0
   46.0300   32.4170   46.8460 C   0  0  0  0  0  0  0  0  0  0  0  0
   47.3800   32.6990   46.9650 F   0  0  0  0  0  0  0  0  0  0  0  0
   45.7830   31.4440   45.9000 F   0  0  0  0  0  0  0  0  0  0  0  0
   45.6720   31.9380   48.1180 F   0  0  0  0  0  0  0  0  0  0  0  0
   49.2690   33.0540   42.5120 C   0  0  0  0  0  0  0  0  0  0  0  0
   50.4970   32.9930   42.3890 O   0  0  0  0  0  0  0  0  0  0  0  0
   46.8176   32.9496   40.9152 H   0  0  0  0  0  0  0  0  0  0  0  0
   45.9892   34.4709   40.6255 H   0  0  0  0  0  0  0  0  0  0  0  0
   47.8296   34.6898   39.1427 H   0  0  0  0  0  0  0  0  0  0  0  0
   48.9139   33.7292   40.2370 H   0  0  0  0  0  0  0  0  0  0  0  0
   50.3842   35.1967   41.6905 H   0  0  0  0  0  0  0  0  0  0  0  0
   49.3165   36.4156   42.4728 H   0  0  0  0  0  0  0  0  0  0  0  0
   48.8265   34.5942   43.7392 H   0  0  0  0  0  0  0  0  0  0  0  0
   43.8115   36.9612   44.1638 H   0  0  0  0  0  0  0  0  0  0  0  0
   45.4132   36.5283   42.2941 H   0  0  0  0  0  0  0  0  0  0  0  0
   48.6468   32.1469   42.5059 H   0  0  0  0  0  0  0  0  0  0  0  0
  1  6  1  0
  1  9  1  0
  2  1  1  0
  3  4  1  0
  3  2  1  0
  4  5  1  0
  5  6  1  0
  7 12  2  0
  8  9  2  0
  8  7  1  0
  9 10  1  0
 10 11  2  0
 11 13  1  0
 12 11  1  0
 13 14  1  0
 14 15  1  0
 14 17  1  0
 16 14  1  0
 18  6  1  0
 19 18  2  0
  2 20  1  0
  2 21  1  0
  3 22  1  0
  3 23  1  0
  5 24  1  0
  5 25  1  0
  6 26  1  1
  7 27  1  0
  8 28  1  0
 18 29  1  0
M  ISO  8  20  13  21  13  22  13  23  13  24  13  25  13  26  13  27  14
M  ISO  2  28  14  29   6
M  END
>  <minimizedAffinity>  (1) 
-5.39100599

>  <minimizedRMSD>  (1) 
0.274411768

$$$$
