
     RDKit          3D

 28 29  0  0  1  0  0  0  0  0999 V2000
   46.7310   33.9810   42.2720 N   0  0  0  0  0  0  0  0  0  0  0  0
   46.1690   33.4700   41.0280 C   0  0  0  0  0  0  0  0  0  0  0  0
   47.2710   33.6860   39.9910 C   0  0  0  0  0  0  0  0  0  0  0  0
   47.9860   34.8460   40.2580 O   0  0  0  0  0  0  0  0  0  0  0  0
   48.8150   34.7430   41.3740 C   0  0  0  0  0  0  0  0  0  0  0  0
   48.1790   33.7940   42.3490 C   0  0  1  0  0  0  0  0  0  0  0  0
   44.6550   36.2420   44.3380 C   0  0  0  0  0  0  0  0  0  0  0  0
   45.3480   35.8110   43.2240 C   0  0  0  0  0  0  0  0  0  0  0  0
   45.9720   34.5950   43.3080 C   0  0  0  0  0  0  0  0  0  0  0  0
   45.8720   33.8980   44.4610 N   0  0  0  0  0  0  0  0  0  0  0  0
   45.1920   34.3360   45.5380 C   0  0  0  0  0  0  0  0  0  0  0  0
   44.5850   35.5160   45.4630 N   0  0  0  0  0  0  0  0  0  0  0  0
   45.0760   33.6420   46.7260 O   0  0  0  0  0  0  0  0  0  0  0  0
   45.9510   32.6290   47.1360 C   0  0  0  0  0  0  0  0  0  0  0  0
   47.2630   33.0130   47.0460 F   0  0  0  0  0  0  0  0  0  0  0  0
   45.7110   31.4420   46.4500 F   0  0  0  0  0  0  0  0  0  0  0  0
   45.7380   32.3980   48.5060 F   0  0  0  0  0  0  0  0  0  0  0  0
   48.5480   34.1990   43.6420 O   0  0  0  0  0  0  0  0  0  0  0  0
   45.9273   32.4009   41.1211 H   0  0  0  0  0  0  0  0  0  0  0  0
   45.2322   33.9771   40.7536 H   0  0  0  0  0  0  0  0  0  0  0  0
   46.8151   33.7663   38.9932 H   0  0  0  0  0  0  0  0  0  0  0  0
   47.9624   32.8314   40.0316 H   0  0  0  0  0  0  0  0  0  0  0  0
   49.8005   34.3596   41.0710 H   0  0  0  0  0  0  0  0  0  0  0  0
   48.9482   35.7309   41.8392 H   0  0  0  0  0  0  0  0  0  0  0  0
   48.4796   32.7582   42.1327 H   0  0  0  0  0  0  0  0  0  0  0  0
   44.1426   37.2147   44.3011 H   0  0  0  0  0  0  0  0  0  0  0  0
   45.3967   36.4185   42.3083 H   0  0  0  0  0  0  0  0  0  0  0  0
   48.0559   33.6589   44.3100 H   0  0  0  0  0  0  0  0  0  0  0  0
  1  6  1  0
  1  9  1  0
  2  1  1  0
  3  4  1  0
  3  2  1  0
  4  5  1  0
  5  6  1  0
  6 18  1  0
  7 12  2  0
  8  9  2  0
  8  7  1  0
  9 10  1  0
 10 11  2  0
 11 13  1  0
 12 11  1  0
 13 14  1  0
 14 17  1  0
 15 14  1  0
 16 14  1  0
  2 19  1  0
  2 20  1  0
  3 21  1  0
  3 22  1  0
  5 23  1  0
  5 24  1  0
  6 25  1  6
  7 26  1  0
  8 27  1  0
 18 28  1  0
M  ISO  8  19  13  20  13  21  13  22  13  23  13  24  13  25  13  26  14
M  ISO  2  27  14  28   3
M  END
>  <minimizedAffinity>  (1) 
-5.33590889

>  <minimizedRMSD>  (1) 
0.675841391

$$$$
