
     RDKit          3D

 30 31  0  0  1  0  0  0  0  0999 V2000
   46.5990   33.5080   42.0080 N   0  0  0  0  0  0  0  0  0  0  0  0
   45.9860   32.2670   41.4850 C   0  0  0  0  0  0  0  0  0  0  0  0
   46.4740   32.2270   40.0280 C   0  0  0  0  0  0  0  0  0  0  0  0
   46.5890   33.4920   39.4830 O   0  0  0  0  0  0  0  0  0  0  0  0
   47.6290   34.2340   40.0010 C   0  0  0  0  0  0  0  0  0  0  0  0
   47.8730   33.7880   41.4330 C   0  0  1  0  0  0  0  0  0  0  0  0
   44.8240   36.1830   43.8860 C   0  0  0  0  0  0  0  0  0  0  0  0
   45.4290   35.5730   42.8010 C   0  0  0  0  0  0  0  0  0  0  0  0
   45.9390   34.3080   42.9890 C   0  0  0  0  0  0  0  0  0  0  0  0
   45.8170   33.7490   44.2110 N   0  0  0  0  0  0  0  0  0  0  0  0
   45.2260   34.3530   45.2580 C   0  0  0  0  0  0  0  0  0  0  0  0
   44.7300   35.5760   45.0840 N   0  0  0  0  0  0  0  0  0  0  0  0
   45.0960   33.7960   46.5000 O   0  0  0  0  0  0  0  0  0  0  0  0
   45.9200   32.7790   47.0060 C   0  0  0  0  0  0  0  0  0  0  0  0
   47.2600   33.0790   46.8870 F   0  0  0  0  0  0  0  0  0  0  0  0
   45.6020   31.5660   46.4450 F   0  0  0  0  0  0  0  0  0  0  0  0
   45.6950   32.6980   48.3940 F   0  0  0  0  0  0  0  0  0  0  0  0
   48.7760   34.7040   42.1780 C   0  0  0  0  0  0  0  0  0  0  0  0
   50.1060   34.5040   42.0450 F   0  0  0  0  0  0  0  0  0  0  0  0
   48.4810   34.5220   43.5200 F   0  0  0  0  0  0  0  0  0  0  0  0
   48.3480   35.9840   41.8920 F   0  0  0  0  0  0  0  0  0  0  0  0
   46.3370   31.3869   42.0437 H   0  0  0  0  0  0  0  0  0  0  0  0
   44.8898   32.2539   41.5753 H   0  0  0  0  0  0  0  0  0  0  0  0
   47.4582   31.7367   39.9970 H   0  0  0  0  0  0  0  0  0  0  0  0
   45.7317   31.6701   39.4374 H   0  0  0  0  0  0  0  0  0  0  0  0
   48.5366   34.0699   39.4015 H   0  0  0  0  0  0  0  0  0  0  0  0
   47.3767   35.3044   39.9774 H   0  0  0  0  0  0  0  0  0  0  0  0
   48.4563   32.8567   41.4824 H   0  0  0  0  0  0  0  0  0  0  0  0
   44.4075   37.1940   43.7660 H   0  0  0  0  0  0  0  0  0  0  0  0
   45.4996   36.0789   41.8268 H   0  0  0  0  0  0  0  0  0  0  0  0
  1  9  1  0
  2  1  1  0
  3  2  1  0
  4  5  1  0
  4  3  1  0
  5  6  1  0
  6  1  1  0
  6 18  1  0
  7 12  2  0
  8  9  2  0
  8  7  1  0
  9 10  1  0
 10 11  2  0
 11 13  1  0
 12 11  1  0
 13 14  1  0
 14 17  1  0
 15 14  1  0
 16 14  1  0
 18 20  1  0
 19 18  1  0
 21 18  1  0
  2 22  1  0
  2 23  1  0
  3 24  1  0
  3 25  1  0
  5 26  1  0
  5 27  1  0
  6 28  1  6
  7 29  1  0
  8 30  1  0
M  ISO  8  22  13  23  13  24  13  25  13  26  13  27  13  28  13  29  14
M  ISO  1  30  14
M  END
>  <minimizedAffinity>  (1) 
-5.50428915

>  <minimizedRMSD>  (1) 
1.80216229

$$$$
