
     RDKit          3D

 28 29  0  0  1  0  0  0  0  0999 V2000
   47.2000   34.4300   42.3720 N   0  0  0  0  0  0  0  0  0  0  0  0
   46.8740   34.2340   40.9490 C   0  0  0  0  0  0  0  0  0  0  0  0
   48.1600   34.6420   40.2290 C   0  0  0  0  0  0  0  0  0  0  0  0
   48.8220   35.6600   40.8900 O   0  0  0  0  0  0  0  0  0  0  0  0
   49.4050   35.2740   42.0770 C   0  0  0  0  0  0  0  0  0  0  0  0
   48.5890   34.1720   42.6770 C   0  0  2  0  0  0  0  0  0  0  0  0
   44.5240   36.1270   44.2930 C   0  0  0  0  0  0  0  0  0  0  0  0
   45.3840   35.9020   43.2380 C   0  0  0  0  0  0  0  0  0  0  0  0
   46.2350   34.8380   43.3460 C   0  0  0  0  0  0  0  0  0  0  0  0
   46.1920   34.0680   44.4660 N   0  0  0  0  0  0  0  0  0  0  0  0
   45.3430   34.3050   45.4870 C   0  0  0  0  0  0  0  0  0  0  0  0
   44.5050   35.3420   45.3970 N   0  0  0  0  0  0  0  0  0  0  0  0
   45.2750   33.5480   46.6300 O   0  0  0  0  0  0  0  0  0  0  0  0
   46.0340   32.3970   46.8720 C   0  0  0  0  0  0  0  0  0  0  0  0
   47.3820   32.6930   46.9870 F   0  0  0  0  0  0  0  0  0  0  0  0
   45.7880   31.4340   45.9200 F   0  0  0  0  0  0  0  0  0  0  0  0
   45.6690   31.8910   48.1260 F   0  0  0  0  0  0  0  0  0  0  0  0
   49.1390   32.5320   42.1470 S   0  0  0  0  0  0  0  0  0  0  0  0
   46.6252   33.1823   40.7438 H   0  0  0  0  0  0  0  0  0  0  0  0
   45.9986   34.8164   40.6257 H   0  0  0  0  0  0  0  0  0  0  0  0
   47.9063   34.9832   39.2145 H   0  0  0  0  0  0  0  0  0  0  0  0
   48.8255   33.7667   40.1991 H   0  0  0  0  0  0  0  0  0  0  0  0
   50.4278   34.9162   41.8878 H   0  0  0  0  0  0  0  0  0  0  0  0
   49.4471   36.1282   42.7688 H   0  0  0  0  0  0  0  0  0  0  0  0
   48.7239   34.1620   43.7686 H   0  0  0  0  0  0  0  0  0  0  0  0
   43.8271   36.9762   44.2356 H   0  0  0  0  0  0  0  0  0  0  0  0
   45.3848   36.5502   42.3493 H   0  0  0  0  0  0  0  0  0  0  0  0
   49.3981   31.7593   43.2482 H   0  0  0  0  0  0  0  0  0  0  0  0
  1  6  1  0
  1  9  1  0
  2  1  1  0
  3  4  1  0
  3  2  1  0
  4  5  1  0
  5  6  1  0
  7 12  2  0
  8  9  2  0
  8  7  1  0
  9 10  1  0
 10 11  2  0
 11 13  1  0
 12 11  1  0
 13 14  1  0
 14 15  1  0
 14 17  1  0
 16 14  1  0
 18  6  1  0
  2 19  1  0
  2 20  1  0
  3 21  1  0
  3 22  1  0
  5 23  1  0
  5 24  1  0
  6 25  1  1
  7 26  1  0
  8 27  1  0
 18 28  1  0
M  ISO  8  19  13  20  13  21  13  22  13  23  13  24  13  25  13  26  14
M  ISO  2  27  14  28  11
M  END
>  <minimizedAffinity>  (1) 
-5.44227362

>  <minimizedRMSD>  (1) 
0.123725496

$$$$
