
     RDKit          3D

 43 45  0  0  1  0  0  0  0  0999 V2000
   47.2340   34.4620   42.3790 N   0  0  0  0  0  0  0  0  0  0  0  0
   46.9170   34.2290   40.9790 C   0  0  0  0  0  0  0  0  0  0  0  0
   48.1980   34.6710   40.2620 C   0  0  0  0  0  0  0  0  0  0  0  0
   48.8470   35.7060   40.9080 O   0  0  0  0  0  0  0  0  0  0  0  0
   49.4330   35.3360   42.1100 C   0  0  0  0  0  0  0  0  0  0  0  0
   48.6560   34.2650   42.7470 C   0  0  2  0  0  0  0  0  0  0  0  0
   44.5080   36.1200   44.2760 C   0  0  0  0  0  0  0  0  0  0  0  0
   45.3870   35.9020   43.2250 C   0  0  0  0  0  0  0  0  0  0  0  0
   46.2420   34.8580   43.3490 C   0  0  0  0  0  0  0  0  0  0  0  0
   46.2060   34.0820   44.4710 N   0  0  0  0  0  0  0  0  0  0  0  0
   45.3400   34.3180   45.4780 C   0  0  0  0  0  0  0  0  0  0  0  0
   44.4870   35.3470   45.3710 N   0  0  0  0  0  0  0  0  0  0  0  0
   45.2600   33.5680   46.6310 O   0  0  0  0  0  0  0  0  0  0  0  0
   46.0350   32.4150   46.8760 C   0  0  0  0  0  0  0  0  0  0  0  0
   47.3770   32.6980   46.9720 F   0  0  0  0  0  0  0  0  0  0  0  0
   45.7970   31.4470   45.9410 F   0  0  0  0  0  0  0  0  0  0  0  0
   45.6810   31.9380   48.1470 F   0  0  0  0  0  0  0  0  0  0  0  0
   49.0960   32.8910   42.4870 C   0  0  0  0  0  0  0  0  0  0  0  0
   48.3430   31.8900   42.4800 O   0  0  0  0  0  0  0  0  0  0  0  0
   50.4250   32.5820   42.2160 O   0  0  0  0  0  0  0  0  0  0  0  0
   51.5830   30.9050   38.5780 C   0  0  0  0  0  0  0  0  0  0  0  0
   50.2660   31.2340   38.8230 C   0  0  0  0  0  0  0  0  0  0  0  0
   49.8260   31.7890   40.0030 C   0  0  0  0  0  0  0  0  0  0  0  0
   50.7440   32.0280   40.9860 C   0  0  0  0  0  0  0  0  0  0  0  0
   52.0810   31.7010   40.7560 C   0  0  0  0  0  0  0  0  0  0  0  0
   52.5350   31.1420   39.5740 C   0  0  0  0  0  0  0  0  0  0  0  0
   52.0930   30.1920   37.0440 S   0  0  0  0  0  0  0  0  0  0  0  0
   51.3330   30.9320   35.9820 O   0  0  0  0  0  0  0  0  0  0  0  0
   53.5500   30.4860   36.8280 O   0  0  0  0  0  0  0  0  0  0  0  0
   46.7053   33.1658   40.7924 H   0  0  0  0  0  0  0  0  0  0  0  0
   46.0203   34.7685   40.6401 H   0  0  0  0  0  0  0  0  0  0  0  0
   47.9353   35.0013   39.2462 H   0  0  0  0  0  0  0  0  0  0  0  0
   48.8823   33.8099   40.2488 H   0  0  0  0  0  0  0  0  0  0  0  0
   50.4559   34.9787   41.9203 H   0  0  0  0  0  0  0  0  0  0  0  0
   49.4568   36.2081   42.7800 H   0  0  0  0  0  0  0  0  0  0  0  0
   48.8202   34.3596   43.8305 H   0  0  0  0  0  0  0  0  0  0  0  0
   43.8008   36.9598   44.2081 H   0  0  0  0  0  0  0  0  0  0  0  0
   45.3898   36.5461   42.3333 H   0  0  0  0  0  0  0  0  0  0  0  0
   49.5266   31.0422   38.0315 H   0  0  0  0  0  0  0  0  0  0  0  0
   48.7637   32.0336   40.1506 H   0  0  0  0  0  0  0  0  0  0  0  0
   52.8113   31.8975   41.5548 H   0  0  0  0  0  0  0  0  0  0  0  0
   53.5966   30.8954   39.4251 H   0  0  0  0  0  0  0  0  0  0  0  0
   51.8762   28.8394   37.0231 H   0  0  0  0  0  0  0  0  0  0  0  0
  1  6  1  0
  1  9  1  0
  2  1  1  0
  3  4  1  0
  3  2  1  0
  4  5  1  0
  5  6  1  0
  7 12  2  0
  8  9  2  0
  8  7  1  0
  9 10  1  0
 10 11  2  0
 11 13  1  0
 12 11  1  0
 13 14  1  0
 14 15  1  0
 14 17  1  0
 16 14  1  0
 18  6  1  0
 19 18  2  0
 20 18  1  0
 21 22  2  0
 21 26  1  0
 22 23  1  0
 23 24  2  0
 24 20  1  0
 25 24  1  0
 26 25  2  0
 27 21  1  0
 28 27  2  0
 29 27  2  0
  2 30  1  0
  2 31  1  0
  3 32  1  0
  3 33  1  0
  5 34  1  0
  5 35  1  0
  6 36  1  1
  7 37  1  0
  8 38  1  0
 22 39  1  0
 23 40  1  0
 25 41  1  0
 26 42  1  0
 27 43  1  0
M  ISO  8  30  13  31  13  32  13  33  13  34  13  35  13  36  13  37  14
M  ISO  6  38  14  39  14  40  14  41  14  42  14  43  11
M  END
>  <minimizedAffinity>  (1) 
-6.076159

>  <minimizedRMSD>  (1) 
2.09844923

$$$$
