
     RDKit          3D

 46 49  0  0  1  0  0  0  0  0999 V2000
   47.1730   34.4460   42.4100 N   0  0  0  0  0  0  0  0  0  0  0  0
   46.8530   34.4390   40.9900 C   0  0  0  0  0  0  0  0  0  0  0  0
   48.1820   34.8330   40.3370 C   0  0  0  0  0  0  0  0  0  0  0  0
   48.9230   35.7010   41.1120 O   0  0  0  0  0  0  0  0  0  0  0  0
   49.4520   35.1170   42.2570 C   0  0  0  0  0  0  0  0  0  0  0  0
   48.5610   34.0530   42.7410 C   0  0  2  0  0  0  0  0  0  0  0  0
   44.5180   36.0360   44.4530 C   0  0  0  0  0  0  0  0  0  0  0  0
   45.3580   35.8550   43.3660 C   0  0  0  0  0  0  0  0  0  0  0  0
   46.2170   34.8080   43.4250 C   0  0  0  0  0  0  0  0  0  0  0  0
   46.2260   33.9920   44.5260 N   0  0  0  0  0  0  0  0  0  0  0  0
   45.3970   34.1930   45.5710 C   0  0  0  0  0  0  0  0  0  0  0  0
   44.5400   35.2220   45.5280 N   0  0  0  0  0  0  0  0  0  0  0  0
   45.3630   33.4060   46.7000 O   0  0  0  0  0  0  0  0  0  0  0  0
   46.1060   32.2260   46.8580 C   0  0  0  0  0  0  0  0  0  0  0  0
   47.4640   32.4670   46.9280 F   0  0  0  0  0  0  0  0  0  0  0  0
   45.8010   31.3120   45.8700 F   0  0  0  0  0  0  0  0  0  0  0  0
   45.7800   31.6880   48.1130 F   0  0  0  0  0  0  0  0  0  0  0  0
   48.8730   32.6900   42.3030 C   0  0  0  0  0  0  0  0  0  0  0  0
   48.1570   31.6870   42.5420 O   0  0  0  0  0  0  0  0  0  0  0  0
   50.0070   32.4140   41.5730 O   0  0  0  0  0  0  0  0  0  0  0  0
   50.0390   31.8060   40.3400 C   0  0  0  0  0  0  0  0  0  0  0  0
   48.8420   31.6120   39.6410 C   0  0  0  0  0  0  0  0  0  0  0  0
   48.7510   31.0180   38.4050 C   0  0  0  0  0  0  0  0  0  0  0  0
   49.8960   30.5760   37.7940 C   0  0  0  0  0  0  0  0  0  0  0  0
   51.0900   30.7470   38.4440 C   0  0  0  0  0  0  0  0  0  0  0  0
   52.2240   30.2900   37.7980 C   0  0  0  0  0  0  0  0  0  0  0  0
   53.4500   30.4570   38.4490 C   0  0  0  0  0  0  0  0  0  0  0  0
   53.5100   31.0580   39.6910 C   0  0  0  0  0  0  0  0  0  0  0  0
   52.3700   31.5100   40.3250 C   0  0  0  0  0  0  0  0  0  0  0  0
   51.1610   31.3450   39.6830 C   0  0  0  0  0  0  0  0  0  0  0  0
   46.5319   33.4394   40.6617 H   0  0  0  0  0  0  0  0  0  0  0  0
   46.0241   35.1131   40.7284 H   0  0  0  0  0  0  0  0  0  0  0  0
   48.7737   33.9214   40.1670 H   0  0  0  0  0  0  0  0  0  0  0  0
   47.9471   35.3494   39.3946 H   0  0  0  0  0  0  0  0  0  0  0  0
   50.4376   34.6878   42.0240 H   0  0  0  0  0  0  0  0  0  0  0  0
   49.5524   35.8847   43.0384 H   0  0  0  0  0  0  0  0  0  0  0  0
   48.7124   33.9774   43.8279 H   0  0  0  0  0  0  0  0  0  0  0  0
   43.8067   36.8749   44.4386 H   0  0  0  0  0  0  0  0  0  0  0  0
   45.3292   36.5286   42.4969 H   0  0  0  0  0  0  0  0  0  0  0  0
   47.9108   31.9585   40.1130 H   0  0  0  0  0  0  0  0  0  0  0  0
   47.7742   30.8990   37.9133 H   0  0  0  0  0  0  0  0  0  0  0  0
   49.8570   30.0954   36.8053 H   0  0  0  0  0  0  0  0  0  0  0  0
   52.1638   29.8128   36.8087 H   0  0  0  0  0  0  0  0  0  0  0  0
   54.3750   30.1066   37.9677 H   0  0  0  0  0  0  0  0  0  0  0  0
   54.4854   31.1789   40.1848 H   0  0  0  0  0  0  0  0  0  0  0  0
   52.4246   31.9881   41.3141 H   0  0  0  0  0  0  0  0  0  0  0  0
  1  6  1  0
  1  9  1  0
  2  1  1  0
  3  2  1  0
  3  4  1  0
  4  5  1  0
  5  6  1  0
  7 12  2  0
  8  9  2  0
  8  7  1  0
  9 10  1  0
 10 11  2  0
 11 13  1  0
 12 11  1  0
 13 14  1  0
 14 15  1  0
 14 17  1  0
 16 14  1  0
 18 19  2  0
 18  6  1  0
 20 18  1  0
 21 20  1  0
 22 21  2  0
 23 22  1  0
 24 23  2  0
 24 25  1  0
 25 30  2  0
 26 25  1  0
 26 27  2  0
 27 28  1  0
 28 29  2  0
 30 29  1  0
 30 21  1  0
  2 31  1  0
  2 32  1  0
  3 33  1  0
  3 34  1  0
  5 35  1  0
  5 36  1  0
  6 37  1  1
  7 38  1  0
  8 39  1  0
 22 40  1  0
 23 41  1  0
 24 42  1  0
 26 43  1  0
 27 44  1  0
 28 45  1  0
 29 46  1  0
M  ISO  8  31  13  32  13  33  13  34  13  35  13  36  13  37  13  38  14
M  ISO  8  39  14  40  14  41  14  42  14  43  14  44  14  45  14  46  14
M  END
>  <minimizedAffinity>  (1) 
-6.24546528

>  <minimizedRMSD>  (1) 
1.88819838

$$$$
