
     RDKit          3D

 38 40  0  0  1  0  0  0  0  0999 V2000
   47.2240   34.4620   42.3860 N   0  0  0  0  0  0  0  0  0  0  0  0
   46.9110   34.2620   40.9790 C   0  0  0  0  0  0  0  0  0  0  0  0
   48.2010   34.6960   40.2760 C   0  0  0  0  0  0  0  0  0  0  0  0
   48.8650   35.7080   40.9440 O   0  0  0  0  0  0  0  0  0  0  0  0
   49.4420   35.2990   42.1380 C   0  0  0  0  0  0  0  0  0  0  0  0
   48.6400   34.2340   42.7520 C   0  0  2  0  0  0  0  0  0  0  0  0
   44.5130   36.1220   44.3000 C   0  0  0  0  0  0  0  0  0  0  0  0
   45.3880   35.9030   43.2490 C   0  0  0  0  0  0  0  0  0  0  0  0
   46.2380   34.8560   43.3610 C   0  0  0  0  0  0  0  0  0  0  0  0
   46.2060   34.0690   44.4800 N   0  0  0  0  0  0  0  0  0  0  0  0
   45.3450   34.3010   45.4940 C   0  0  0  0  0  0  0  0  0  0  0  0
   44.4980   35.3300   45.4000 N   0  0  0  0  0  0  0  0  0  0  0  0
   45.2710   33.5410   46.6410 O   0  0  0  0  0  0  0  0  0  0  0  0
   46.0410   32.3930   46.8740 C   0  0  0  0  0  0  0  0  0  0  0  0
   47.3890   32.6750   46.9800 F   0  0  0  0  0  0  0  0  0  0  0  0
   45.7960   31.4280   45.9180 F   0  0  0  0  0  0  0  0  0  0  0  0
   45.6840   31.8940   48.1370 F   0  0  0  0  0  0  0  0  0  0  0  0
   49.0640   32.8580   42.4670 C   0  0  0  0  0  0  0  0  0  0  0  0
   48.3060   31.8590   42.4970 O   0  0  0  0  0  0  0  0  0  0  0  0
   50.3710   32.5430   42.1270 O   0  0  0  0  0  0  0  0  0  0  0  0
   50.6920   32.0340   40.8730 C   0  0  0  0  0  0  0  0  0  0  0  0
   52.0430   31.7140   40.7150 C   0  0  0  0  0  0  0  0  0  0  0  0
   52.4890   31.2010   39.5190 C   0  0  0  0  0  0  0  0  0  0  0  0
   51.5940   31.0270   38.5360 N   0  0  0  0  0  0  0  0  0  0  0  0
   50.2940   31.3440   38.7140 C   0  0  0  0  0  0  0  0  0  0  0  0
   49.8130   31.8490   39.8720 N   0  0  0  0  0  0  0  0  0  0  0  0
   46.6827   33.2063   40.7706 H   0  0  0  0  0  0  0  0  0  0  0  0
   46.0254   34.8237   40.6470 H   0  0  0  0  0  0  0  0  0  0  0  0
   47.9478   35.0499   39.2657 H   0  0  0  0  0  0  0  0  0  0  0  0
   48.8710   33.8240   40.2492 H   0  0  0  0  0  0  0  0  0  0  0  0
   50.4562   34.9217   41.9405 H   0  0  0  0  0  0  0  0  0  0  0  0
   49.4865   36.1559   42.8263 H   0  0  0  0  0  0  0  0  0  0  0  0
   48.7934   34.3071   43.8388 H   0  0  0  0  0  0  0  0  0  0  0  0
   43.8085   36.9647   44.2403 H   0  0  0  0  0  0  0  0  0  0  0  0
   45.3919   36.5524   42.3612 H   0  0  0  0  0  0  0  0  0  0  0  0
   52.7479   31.8718   41.5446 H   0  0  0  0  0  0  0  0  0  0  0  0
   53.5480   30.9414   39.3736 H   0  0  0  0  0  0  0  0  0  0  0  0
   49.5951   31.1843   37.8798 H   0  0  0  0  0  0  0  0  0  0  0  0
  1  6  1  0
  1  9  1  0
  2  1  1  0
  3  4  1  0
  3  2  1  0
  4  5  1  0
  5  6  1  0
  7 12  2  0
  8  9  2  0
  8  7  1  0
  9 10  1  0
 10 11  2  0
 11 13  1  0
 12 11  1  0
 13 14  1  0
 14 15  1  0
 14 17  1  0
 16 14  1  0
 18 19  2  0
 18  6  1  0
 20 18  1  0
 21 20  1  0
 22 21  2  0
 23 22  1  0
 24 25  1  0
 24 23  2  0
 25 26  2  0
 26 21  1  0
  2 27  1  0
  2 28  1  0
  3 29  1  0
  3 30  1  0
  5 31  1  0
  5 32  1  0
  6 33  1  1
  7 34  1  0
  8 35  1  0
 22 36  1  0
 23 37  1  0
 25 38  1  0
M  ISO  8  27  13  28  13  29  13  30  13  31  13  32  13  33  13  34  14
M  ISO  4  35  14  36  14  37  14  38  14
M  END
>  <minimizedAffinity>  (1) 
-5.99204397

>  <minimizedRMSD>  (1) 
1.23174775

$$$$
