
     RDKit          3D

 37 39  0  0  1  0  0  0  0  0999 V2000
   47.2520   34.4470   42.3790 N   0  0  0  0  0  0  0  0  0  0  0  0
   46.9280   34.1180   40.9990 C   0  0  0  0  0  0  0  0  0  0  0  0
   48.1720   34.5900   40.2340 C   0  0  0  0  0  0  0  0  0  0  0  0
   48.7700   35.6890   40.8070 O   0  0  0  0  0  0  0  0  0  0  0  0
   49.3980   35.4170   42.0180 C   0  0  0  0  0  0  0  0  0  0  0  0
   48.6870   34.3480   42.7280 C   0  0  2  0  0  0  0  0  0  0  0  0
   44.5200   36.1110   44.2600 C   0  0  0  0  0  0  0  0  0  0  0  0
   45.4040   35.8870   43.2170 C   0  0  0  0  0  0  0  0  0  0  0  0
   46.2590   34.8440   43.3440 C   0  0  0  0  0  0  0  0  0  0  0  0
   46.2230   34.0650   44.4700 N   0  0  0  0  0  0  0  0  0  0  0  0
   45.3520   34.3010   45.4760 C   0  0  0  0  0  0  0  0  0  0  0  0
   44.5000   35.3300   45.3650 N   0  0  0  0  0  0  0  0  0  0  0  0
   45.2720   33.5530   46.6270 O   0  0  0  0  0  0  0  0  0  0  0  0
   46.0370   32.4010   46.8690 C   0  0  0  0  0  0  0  0  0  0  0  0
   47.3830   32.6830   46.9750 F   0  0  0  0  0  0  0  0  0  0  0  0
   45.8080   31.4330   45.9310 F   0  0  0  0  0  0  0  0  0  0  0  0
   45.6790   31.9150   48.1360 F   0  0  0  0  0  0  0  0  0  0  0  0
   49.2010   32.9870   42.5350 C   0  0  0  0  0  0  0  0  0  0  0  0
   48.5280   31.9420   42.6830 O   0  0  0  0  0  0  0  0  0  0  0  0
   50.5170   32.7420   42.1570 O   0  0  0  0  0  0  0  0  0  0  0  0
   50.7820   32.1090   40.9480 C   0  0  0  0  0  0  0  0  0  0  0  0
   50.0800   31.6240   39.8490 C   0  0  0  0  0  0  0  0  0  0  0  0
   51.0510   31.1030   38.9960 C   0  0  0  0  0  0  0  0  0  0  0  0
   52.2680   31.2970   39.6140 C   0  0  0  0  0  0  0  0  0  0  0  0
   52.0620   31.8850   40.7460 O   0  0  0  0  0  0  0  0  0  0  0  0
   46.7742   33.0358   40.8756 H   0  0  0  0  0  0  0  0  0  0  0  0
   45.9973   34.5870   40.6472 H   0  0  0  0  0  0  0  0  0  0  0  0
   47.8750   34.8481   39.2068 H   0  0  0  0  0  0  0  0  0  0  0  0
   48.9032   33.7685   40.2555 H   0  0  0  0  0  0  0  0  0  0  0  0
   50.4339   35.1000   41.8271 H   0  0  0  0  0  0  0  0  0  0  0  0
   49.3918   36.3257   42.6378 H   0  0  0  0  0  0  0  0  0  0  0  0
   48.8569   34.5144   43.8020 H   0  0  0  0  0  0  0  0  0  0  0  0
   43.8122   36.9499   44.1877 H   0  0  0  0  0  0  0  0  0  0  0  0
   45.4113   36.5288   42.3237 H   0  0  0  0  0  0  0  0  0  0  0  0
   48.9921   31.6469   39.6880 H   0  0  0  0  0  0  0  0  0  0  0  0
   50.8796   30.6286   38.0185 H   0  0  0  0  0  0  0  0  0  0  0  0
   53.2482   31.0014   39.2117 H   0  0  0  0  0  0  0  0  0  0  0  0
  1  6  1  0
  1  9  1  0
  2  1  1  0
  3  4  1  0
  3  2  1  0
  4  5  1  0
  5  6  1  0
  7 12  2  0
  8  9  2  0
  8  7  1  0
  9 10  1  0
 10 11  2  0
 11 13  1  0
 12 11  1  0
 13 14  1  0
 14 15  1  0
 14 17  1  0
 16 14  1  0
 18 19  2  0
 18  6  1  0
 20 18  1  0
 21 20  1  0
 22 21  2  0
 23 24  2  0
 23 22  1  0
 24 25  1  0
 25 21  1  0
  2 26  1  0
  2 27  1  0
  3 28  1  0
  3 29  1  0
  5 30  1  0
  5 31  1  0
  6 32  1  1
  7 33  1  0
  8 34  1  0
 22 35  1  0
 23 36  1  0
 24 37  1  0
M  ISO  8  26  13  27  13  28  13  29  13  30  13  31  13  32  13  33  14
M  ISO  4  34  14  35  14  36  14  37  14
M  END
>  <minimizedAffinity>  (1) 
-5.90130424

>  <minimizedRMSD>  (1) 
0.945028007

$$$$
