
     RDKit          3D

 39 40  0  0  1  0  0  0  0  0999 V2000
   47.3390   34.5050   42.3090 N   0  0  0  0  0  0  0  0  0  0  0  0
   47.0480   34.0300   40.9650 C   0  0  0  0  0  0  0  0  0  0  0  0
   48.2310   34.5620   40.1500 C   0  0  0  0  0  0  0  0  0  0  0  0
   48.7120   35.7690   40.6220 O   0  0  0  0  0  0  0  0  0  0  0  0
   49.3670   35.6660   41.8430 C   0  0  0  0  0  0  0  0  0  0  0  0
   48.7780   34.5820   42.6420 C   0  0  2  0  0  0  0  0  0  0  0  0
   44.5230   36.1020   44.1230 C   0  0  0  0  0  0  0  0  0  0  0  0
   45.4320   35.8930   43.1020 C   0  0  0  0  0  0  0  0  0  0  0  0
   46.3160   34.8770   43.2530 C   0  0  0  0  0  0  0  0  0  0  0  0
   46.2760   34.1160   44.3790 N   0  0  0  0  0  0  0  0  0  0  0  0
   45.3810   34.3320   45.3660 C   0  0  0  0  0  0  0  0  0  0  0  0
   44.5030   35.3350   45.2280 N   0  0  0  0  0  0  0  0  0  0  0  0
   45.2940   33.5970   46.5240 O   0  0  0  0  0  0  0  0  0  0  0  0
   46.0250   32.4030   46.7500 C   0  0  0  0  0  0  0  0  0  0  0  0
   47.3590   32.6640   46.9520 F   0  0  0  0  0  0  0  0  0  0  0  0
   45.8390   31.4850   45.7510 F   0  0  0  0  0  0  0  0  0  0  0  0
   45.5790   31.8650   47.9670 F   0  0  0  0  0  0  0  0  0  0  0  0
   49.4410   33.2680   42.5600 C   0  0  0  0  0  0  0  0  0  0  0  0
   48.8850   32.1910   42.8760 O   0  0  0  0  0  0  0  0  0  0  0  0
   50.7380   33.1360   42.1230 O   0  0  0  0  0  0  0  0  0  0  0  0
   51.1350   32.0390   41.3370 C   0  0  0  0  0  0  0  0  0  0  0  0
   51.4530   30.8200   42.1710 C   0  0  0  0  0  0  0  0  0  0  0  0
   50.1060   31.7070   40.2660 C   0  0  0  0  0  0  0  0  0  0  0  0
   47.0082   32.9312   40.9336 H   0  0  0  0  0  0  0  0  0  0  0  0
   46.0724   34.3689   40.5864 H   0  0  0  0  0  0  0  0  0  0  0  0
   47.9062   34.6974   39.1078 H   0  0  0  0  0  0  0  0  0  0  0  0
   49.0455   33.8275   40.2338 H   0  0  0  0  0  0  0  0  0  0  0  0
   50.4316   35.4518   41.6679 H   0  0  0  0  0  0  0  0  0  0  0  0
   49.2612   36.6147   42.3896 H   0  0  0  0  0  0  0  0  0  0  0  0
   48.9349   34.8459   43.6983 H   0  0  0  0  0  0  0  0  0  0  0  0
   43.7941   36.9204   44.0287 H   0  0  0  0  0  0  0  0  0  0  0  0
   45.4373   36.5265   42.2027 H   0  0  0  0  0  0  0  0  0  0  0  0
   52.0635   32.3433   40.8317 H   0  0  0  0  0  0  0  0  0  0  0  0
   51.3857   31.0781   43.2382 H   0  0  0  0  0  0  0  0  0  0  0  0
   50.7334   30.0205   41.9410 H   0  0  0  0  0  0  0  0  0  0  0  0
   52.4715   30.4739   41.9410 H   0  0  0  0  0  0  0  0  0  0  0  0
   49.1635   31.4029   40.7448 H   0  0  0  0  0  0  0  0  0  0  0  0
   49.9296   32.5938   39.6396 H   0  0  0  0  0  0  0  0  0  0  0  0
   50.4812   30.8843   39.6396 H   0  0  0  0  0  0  0  0  0  0  0  0
  1  6  1  0
  1  9  1  0
  2  1  1  0
  3  4  1  0
  3  2  1  0
  4  5  1  0
  5  6  1  0
  7 12  2  0
  8  9  2  0
  8  7  1  0
  9 10  1  0
 10 11  2  0
 11 13  1  0
 12 11  1  0
 13 14  1  0
 14 15  1  0
 14 17  1  0
 16 14  1  0
 18  6  1  0
 18 19  2  0
 20 18  1  0
 21 20  1  0
 21 22  1  0
 23 21  1  0
  2 24  1  0
  2 25  1  0
  3 26  1  0
  3 27  1  0
  5 28  1  0
  5 29  1  0
  6 30  1  1
  7 31  1  0
  8 32  1  0
 21 33  1  0
 22 34  1  0
 22 35  1  0
 22 36  1  0
 23 37  1  0
 23 38  1  0
 23 39  1  0
M  ISO  8  24  13  25  13  26  13  27  13  28  13  29  13  30  13  31  14
M  ISO  8  32  14  33   8  34   8  35   8  36   8  37   8  38   8  39   8
M  END
>  <minimizedAffinity>  (1) 
-5.58096695

>  <minimizedRMSD>  (1) 
0.425698638

$$$$
