
     RDKit          3D

 43 45  0  0  1  0  0  0  0  0999 V2000
   47.2230   34.4430   42.3200 N   0  0  0  0  0  0  0  0  0  0  0  0
   46.8740   34.0670   40.9570 C   0  0  0  0  0  0  0  0  0  0  0  0
   48.0910   34.5360   40.1500 C   0  0  0  0  0  0  0  0  0  0  0  0
   48.6760   35.6720   40.6790 O   0  0  0  0  0  0  0  0  0  0  0  0
   49.3360   35.4510   41.8790 C   0  0  0  0  0  0  0  0  0  0  0  0
   48.6680   34.3840   42.6370 C   0  0  2  0  0  0  0  0  0  0  0  0
   44.5310   36.1200   44.2460 C   0  0  0  0  0  0  0  0  0  0  0  0
   45.3960   35.8980   43.1860 C   0  0  0  0  0  0  0  0  0  0  0  0
   46.2450   34.8460   43.2980 C   0  0  0  0  0  0  0  0  0  0  0  0
   46.2150   34.0680   44.4210 N   0  0  0  0  0  0  0  0  0  0  0  0
   45.3620   34.3090   45.4370 C   0  0  0  0  0  0  0  0  0  0  0  0
   44.5190   35.3410   45.3430 N   0  0  0  0  0  0  0  0  0  0  0  0
   45.2890   33.5600   46.5900 O   0  0  0  0  0  0  0  0  0  0  0  0
   46.0430   32.3930   46.8190 C   0  0  0  0  0  0  0  0  0  0  0  0
   47.3900   32.6450   46.9070 F   0  0  0  0  0  0  0  0  0  0  0  0
   45.7780   31.4360   45.8730 F   0  0  0  0  0  0  0  0  0  0  0  0
   45.6870   31.9020   48.0840 F   0  0  0  0  0  0  0  0  0  0  0  0
   49.2050   33.0300   42.4710 C   0  0  0  0  0  0  0  0  0  0  0  0
   48.7810   32.0130   43.0710 O   0  0  0  0  0  0  0  0  0  0  0  0
   50.2570   32.7580   41.6100 O   0  0  0  0  0  0  0  0  0  0  0  0
   50.6460   31.4690   41.2370 C   0  0  0  0  0  0  0  0  0  0  0  0
   49.7190   31.0770   40.0770 C   0  0  0  0  0  0  0  0  0  0  0  0
   50.4310   31.7650   38.9350 C   0  0  0  0  0  0  0  0  0  0  0  0
   51.8520   31.3310   39.1240 C   0  0  0  0  0  0  0  0  0  0  0  0
   52.0220   31.4020   40.6280 C   0  0  0  0  0  0  0  0  0  0  0  0
   46.7364   32.9792   40.8695 H   0  0  0  0  0  0  0  0  0  0  0  0
   45.9277   34.5099   40.6129 H   0  0  0  0  0  0  0  0  0  0  0  0
   47.7687   34.7527   39.1209 H   0  0  0  0  0  0  0  0  0  0  0  0
   48.8403   33.7312   40.1804 H   0  0  0  0  0  0  0  0  0  0  0  0
   50.3750   35.1544   41.6729 H   0  0  0  0  0  0  0  0  0  0  0  0
   49.3203   36.3768   42.4729 H   0  0  0  0  0  0  0  0  0  0  0  0
   48.8637   34.5829   43.7010 H   0  0  0  0  0  0  0  0  0  0  0  0
   43.8283   36.9643   44.1883 H   0  0  0  0  0  0  0  0  0  0  0  0
   45.3941   36.5444   42.2960 H   0  0  0  0  0  0  0  0  0  0  0  0
   50.6142   30.8398   42.1387 H   0  0  0  0  0  0  0  0  0  0  0  0
   49.6784   29.9868   39.9363 H   0  0  0  0  0  0  0  0  0  0  0  0
   48.6646   31.3622   40.2072 H   0  0  0  0  0  0  0  0  0  0  0  0
   50.3368   32.8584   39.0100 H   0  0  0  0  0  0  0  0  0  0  0  0
   50.0231   31.5059   37.9468 H   0  0  0  0  0  0  0  0  0  0  0  0
   52.0067   30.3064   38.7548 H   0  0  0  0  0  0  0  0  0  0  0  0
   52.5754   31.9493   38.5723 H   0  0  0  0  0  0  0  0  0  0  0  0
   52.5492   30.5066   40.9890 H   0  0  0  0  0  0  0  0  0  0  0  0
   52.6135   32.2857   40.9095 H   0  0  0  0  0  0  0  0  0  0  0  0
  1  6  1  0
  1  9  1  0
  2  1  1  0
  3  4  1  0
  3  2  1  0
  4  5  1  0
  5  6  1  0
  7 12  2  0
  8  9  2  0
  8  7  1  0
  9 10  1  0
 10 11  2  0
 11 13  1  0
 12 11  1  0
 13 14  1  0
 14 15  1  0
 14 17  1  0
 16 14  1  0
 18  6  1  0
 18 19  2  0
 20 18  1  0
 21 20  1  0
 22 21  1  0
 23 24  1  0
 23 22  1  0
 24 25  1  0
 25 21  1  0
  2 26  1  0
  2 27  1  0
  3 28  1  0
  3 29  1  0
  5 30  1  0
  5 31  1  0
  6 32  1  1
  7 33  1  0
  8 34  1  0
 21 35  1  0
 22 36  1  0
 22 37  1  0
 23 38  1  0
 23 39  1  0
 24 40  1  0
 24 41  1  0
 25 42  1  0
 25 43  1  0
M  ISO  8  26  13  27  13  28  13  29  13  30  13  31  13  32  13  33  14
M  ISO  8  34  14  35  13  36  13  37  13  38  13  39  13  40  13  41  13
M  ISO  2  42  13  43  13
M  END
>  <minimizedAffinity>  (1) 
-5.73062897

>  <minimizedRMSD>  (1) 
0.320232034

$$$$
