
     RDKit          3D

 33 34  0  0  1  0  0  0  0  0999 V2000
   47.2650   34.4590   42.3440 N   0  0  0  0  0  0  0  0  0  0  0  0
   46.9390   34.0350   40.9910 C   0  0  0  0  0  0  0  0  0  0  0  0
   48.1410   34.5220   40.1760 C   0  0  0  0  0  0  0  0  0  0  0  0
   48.6870   35.6890   40.6750 O   0  0  0  0  0  0  0  0  0  0  0  0
   49.3460   35.5250   41.8840 C   0  0  0  0  0  0  0  0  0  0  0  0
   48.7110   34.4590   42.6690 C   0  0  2  0  0  0  0  0  0  0  0  0
   44.5180   36.1200   44.2040 C   0  0  0  0  0  0  0  0  0  0  0  0
   45.4060   35.8940   43.1650 C   0  0  0  0  0  0  0  0  0  0  0  0
   46.2670   34.8550   43.3040 C   0  0  0  0  0  0  0  0  0  0  0  0
   46.2290   34.0860   44.4330 N   0  0  0  0  0  0  0  0  0  0  0  0
   45.3550   34.3250   45.4310 C   0  0  0  0  0  0  0  0  0  0  0  0
   44.4970   35.3490   45.3110 N   0  0  0  0  0  0  0  0  0  0  0  0
   45.2750   33.5830   46.5910 O   0  0  0  0  0  0  0  0  0  0  0  0
   46.0290   32.4190   46.8320 C   0  0  0  0  0  0  0  0  0  0  0  0
   47.3790   32.6920   46.9480 F   0  0  0  0  0  0  0  0  0  0  0  0
   45.7790   31.4600   45.8800 F   0  0  0  0  0  0  0  0  0  0  0  0
   45.6590   31.9420   48.1000 F   0  0  0  0  0  0  0  0  0  0  0  0
   49.2950   33.1190   42.5480 C   0  0  0  0  0  0  0  0  0  0  0  0
   48.7290   32.0580   42.9030 O   0  0  0  0  0  0  0  0  0  0  0  0
   50.5590   32.9130   42.0100 O   0  0  0  0  0  0  0  0  0  0  0  0
   50.7720   31.9470   40.9950 C   0  0  0  0  0  0  0  0  0  0  0  0
   46.8396   32.9410   40.9330 H   0  0  0  0  0  0  0  0  0  0  0  0
   45.9805   34.4369   40.6307 H   0  0  0  0  0  0  0  0  0  0  0  0
   47.8149   34.7008   39.1408 H   0  0  0  0  0  0  0  0  0  0  0  0
   48.9161   33.7433   40.2301 H   0  0  0  0  0  0  0  0  0  0  0  0
   50.3958   35.2583   41.6920 H   0  0  0  0  0  0  0  0  0  0  0  0
   49.2944   36.4664   42.4507 H   0  0  0  0  0  0  0  0  0  0  0  0
   48.8945   34.6963   43.7273 H   0  0  0  0  0  0  0  0  0  0  0  0
   43.8068   36.9553   44.1238 H   0  0  0  0  0  0  0  0  0  0  0  0
   45.4126   36.5291   42.2669 H   0  0  0  0  0  0  0  0  0  0  0  0
   50.9870   30.9718   41.4563 H   0  0  0  0  0  0  0  0  0  0  0  0
   49.8701   31.8663   40.3705 H   0  0  0  0  0  0  0  0  0  0  0  0
   51.6242   32.2531   40.3705 H   0  0  0  0  0  0  0  0  0  0  0  0
  1  6  1  0
  1  9  1  0
  2  1  1  0
  3  4  1  0
  3  2  1  0
  4  5  1  0
  5  6  1  0
  7 12  2  0
  8  9  2  0
  8  7  1  0
  9 10  1  0
 10 11  2  0
 11 13  1  0
 12 11  1  0
 13 14  1  0
 14 15  1  0
 14 17  1  0
 16 14  1  0
 18  6  1  0
 18 19  2  0
 20 18  1  0
 21 20  1  0
  2 22  1  0
  2 23  1  0
  3 24  1  0
  3 25  1  0
  5 26  1  0
  5 27  1  0
  6 28  1  1
  7 29  1  0
  8 30  1  0
 21 31  1  0
 21 32  1  0
 21 33  1  0
M  ISO  8  22  13  23  13  24  13  25  13  26  13  27  13  28  13  29  14
M  ISO  4  30  14  31   8  32   8  33   8
M  END
>  <minimizedAffinity>  (1) 
-5.49322176

>  <minimizedRMSD>  (1) 
0.205873415

$$$$
