
     RDKit          3D

 27 28  0  0  0  0  0  0  0  0999 V2000
   44.9630   36.4250   43.3220 C   0  0  0  0  0  0  0  0  0  0  0  0
   43.7980   36.3890   42.5340 C   0  0  0  0  0  0  0  0  0  0  0  0
   43.7570   35.4600   41.4840 C   0  0  0  0  0  0  0  0  0  0  0  0
   44.8130   34.6570   41.2770 N   0  0  0  0  0  0  0  0  0  0  0  0
   45.9270   34.7170   42.0610 C   0  0  0  0  0  0  0  0  0  0  0  0
   45.9920   35.5980   43.0730 N   0  0  0  0  0  0  0  0  0  0  0  0
   45.0390   37.3580   44.3990 N   0  0  0  0  0  0  0  0  0  0  0  0
   45.2560   38.7310   44.1280 C   0  0  0  0  0  0  0  0  0  0  0  0
   44.9270   39.1790   42.9540 N   0  0  0  0  0  0  0  0  0  0  0  0
   45.8240   39.5290   45.1690 N   0  0  0  0  0  0  0  0  0  0  0  0
   45.1150   40.2100   42.8180 H   0  0  0  0  0  0  0  0  0  0  0  0
   42.5990   35.3260   40.5970 C   0  0  0  0  0  0  0  0  0  0  0  0
   42.8020   34.7680   39.3620 C   0  0  0  0  0  0  0  0  0  0  0  0
   41.7350   34.6110   38.4650 C   0  0  0  0  0  0  0  0  0  0  0  0
   40.4500   35.0300   38.8430 C   0  0  0  0  0  0  0  0  0  0  0  0
   40.2600   35.5900   40.0910 C   0  0  0  0  0  0  0  0  0  0  0  0
   41.3270   35.7380   40.9670 C   0  0  0  0  0  0  0  0  0  0  0  0
   42.9521   37.0633   42.7336 H   0  0  0  0  0  0  0  0  0  0  0  0
   46.7738   34.0429   41.8645 H   0  0  0  0  0  0  0  0  0  0  0  0
   44.9363   37.0337   45.3712 H   0  0  0  0  0  0  0  0  0  0  0  0
   45.9978   40.5321   45.0124 H   0  0  0  0  0  0  0  0  0  0  0  0
   46.0595   39.1010   46.0758 H   0  0  0  0  0  0  0  0  0  0  0  0
   43.8110   34.4402   39.0713 H   0  0  0  0  0  0  0  0  0  0  0  0
   41.9039   34.1636   37.4744 H   0  0  0  0  0  0  0  0  0  0  0  0
   39.6023   34.9135   38.1518 H   0  0  0  0  0  0  0  0  0  0  0  0
   39.2556   35.9213   40.3934 H   0  0  0  0  0  0  0  0  0  0  0  0
   41.1630   36.1840   41.9591 H   0  0  0  0  0  0  0  0  0  0  0  0
  1  7  1  0
  2  1  2  0
  3  2  1  0
  4  3  2  0
  4  5  1  0
  5  6  2  0
  6  1  1  0
  8  7  1  0
  8 10  1  0
  9  8  2  0
 11  9  1  0
 12 17  1  0
 12  3  1  0
 13 12  2  0
 14 15  2  0
 14 13  1  0
 15 16  1  0
 16 17  2  0
  2 18  1  0
  5 19  1  0
  7 20  1  0
 10 21  1  0
 10 22  1  0
 13 23  1  0
 14 24  1  0
 15 25  1  0
 16 26  1  0
 17 27  1  0
M  ISO  7  18  14  19  14  23  14  24  14  25  14  26  14  27  14
M  END
>  <minimizedAffinity>  (1) 
-5.03795815

>  <minimizedRMSD>  (1) 
4.35257816

$$$$
