
     RDKit          3D

 38 40  0  0  1  0  0  0  0  0999 V2000
   46.7670   33.8770   43.2890 C   0  0  0  0  0  0  0  0  0  0  0  0
   46.4540   33.7570   41.9300 C   0  0  0  0  0  0  0  0  0  0  0  0
   47.4990   33.8110   41.0100 C   0  0  0  0  0  0  0  0  0  0  0  0
   48.7520   33.9720   41.4510 N   0  0  0  0  0  0  0  0  0  0  0  0
   49.0490   34.0880   42.7790 C   0  0  0  0  0  0  0  0  0  0  0  0
   48.0470   34.0390   43.6860 N   0  0  0  0  0  0  0  0  0  0  0  0
   47.2840   33.7090   39.5750 C   0  0  0  0  0  0  0  0  0  0  0  0
   48.2400   34.3180   38.7550 C   0  0  0  0  0  0  0  0  0  0  0  0
   48.1310   34.2850   37.3580 C   0  0  0  0  0  0  0  0  0  0  0  0
   47.0600   33.6380   36.7790 C   0  0  0  0  0  0  0  0  0  0  0  0
   46.1230   33.0400   37.5930 C   0  0  0  0  0  0  0  0  0  0  0  0
   46.2440   33.0800   38.9770 C   0  0  0  0  0  0  0  0  0  0  0  0
   45.7180   33.8110   44.3250 C   0  0  2  0  0  0  0  0  0  0  0  0
   44.7940   35.0520   44.1980 C   0  0  0  0  0  0  0  0  0  0  0  0
   46.2390   33.7520   45.7240 C   0  0  0  0  0  0  0  0  0  0  0  0
   45.8750   32.4530   46.3420 C   0  0  0  0  0  0  0  0  0  0  0  0
   45.3700   32.6010   47.6290 C   0  0  0  0  0  0  0  0  0  0  0  0
   44.9630   31.5370   48.4060 C   0  0  0  0  0  0  0  0  0  0  0  0
   45.0490   30.2370   47.9050 C   0  0  0  0  0  0  0  0  0  0  0  0
   45.5600   30.1570   46.6210 C   0  0  0  0  0  0  0  0  0  0  0  0
   45.9500   31.2020   45.8820 N   0  0  0  0  0  0  0  0  0  0  0  0
   45.4137   33.6240   41.5981 H   0  0  0  0  0  0  0  0  0  0  0  0
   50.0907   34.2197   43.1070 H   0  0  0  0  0  0  0  0  0  0  0  0
   49.0952   34.8336   39.2163 H   0  0  0  0  0  0  0  0  0  0  0  0
   48.8924   34.7705   36.7298 H   0  0  0  0  0  0  0  0  0  0  0  0
   46.9553   33.5999   35.6847 H   0  0  0  0  0  0  0  0  0  0  0  0
   45.2647   32.5222   37.1399 H   0  0  0  0  0  0  0  0  0  0  0  0
   45.4799   32.5911   39.5992 H   0  0  0  0  0  0  0  0  0  0  0  0
   45.1755   32.8708   44.1467 H   0  0  0  0  0  0  0  0  0  0  0  0
   44.5251   35.4132   45.2016 H   0  0  0  0  0  0  0  0  0  0  0  0
   45.3215   35.8475   43.6512 H   0  0  0  0  0  0  0  0  0  0  0  0
   43.8807   34.7747   43.6512 H   0  0  0  0  0  0  0  0  0  0  0  0
   47.3340   33.8558   45.7105 H   0  0  0  0  0  0  0  0  0  0  0  0
   45.7962   34.5701   46.3111 H   0  0  0  0  0  0  0  0  0  0  0  0
   45.2914   33.6153   48.0473 H   0  0  0  0  0  0  0  0  0  0  0  0
   44.5713   31.7124   49.4188 H   0  0  0  0  0  0  0  0  0  0  0  0
   44.7377   29.3528   48.4806 H   0  0  0  0  0  0  0  0  0  0  0  0
   45.6526   29.1565   46.1734 H   0  0  0  0  0  0  0  0  0  0  0  0
  1  6  1  0
  1 13  1  0
  2  1  2  0
  3  4  2  0
  3  2  1  0
  4  5  1  0
  5  6  2  0
  7  3  1  0
  8  7  2  0
  9  8  1  0
 10  9  2  0
 10 11  1  0
 11 12  2  0
 12  7  1  0
 13 15  1  0
 14 13  1  0
 15 16  1  0
 16 17  2  0
 17 18  1  0
 19 18  2  0
 20 19  1  0
 21 16  1  0
 21 20  2  0
  2 22  1  0
  5 23  1  0
  8 24  1  0
  9 25  1  0
 10 26  1  0
 11 27  1  0
 12 28  1  0
 13 29  1  6
 14 30  1  0
 14 31  1  0
 14 32  1  0
 15 33  1  0
 15 34  1  0
 17 35  1  0
 18 36  1  0
 19 37  1  0
 20 38  1  0
M  ISO  8  22  14  23  14  24  14  25  14  26  14  27  14  28  14  29   8
M  ISO  8  30   8  31   8  32   8  33   8  34   8  35  14  36  14  37  14
M  ISO  1  38  14
M  END
>  <minimizedAffinity>  (1) 
-5.16663742

>  <minimizedRMSD>  (1) 
1.45278037

$$$$
