
     RDKit          3D

 43 45  0  0  1  0  0  0  0  0999 V2000
   47.3560   34.4810   42.7610 C   0  0  0  0  0  0  0  0  0  0  0  0
   46.3330   34.7460   41.8380 C   0  0  0  0  0  0  0  0  0  0  0  0
   45.0280   34.4570   42.2050 C   0  0  0  0  0  0  0  0  0  0  0  0
   44.8090   33.9340   43.4320 N   0  0  0  0  0  0  0  0  0  0  0  0
   45.8150   33.6800   44.3180 C   0  0  0  0  0  0  0  0  0  0  0  0
   47.0870   33.9630   43.9580 N   0  0  0  0  0  0  0  0  0  0  0  0
   43.8840   34.6700   41.3370 C   0  0  0  0  0  0  0  0  0  0  0  0
   43.9800   34.1110   40.0510 C   0  0  0  0  0  0  0  0  0  0  0  0
   42.8940   34.2880   39.1600 C   0  0  0  0  0  0  0  0  0  0  0  0
   41.7690   34.9840   39.5340 C   0  0  0  0  0  0  0  0  0  0  0  0
   41.6990   35.5250   40.8060 C   0  0  0  0  0  0  0  0  0  0  0  0
   42.7610   35.3480   41.6680 C   0  0  0  0  0  0  0  0  0  0  0  0
   48.7860   34.7920   42.4350 C   0  0  2  0  0  0  0  0  0  0  0  0
   48.8470   35.6400   41.1760 C   0  0  0  0  0  0  0  0  0  0  0  0
   49.6360   33.5760   42.3520 C   0  0  0  0  0  0  0  0  0  0  0  0
   49.1050   32.4290   41.7400 N   0  0  0  0  0  0  0  0  0  0  0  0
   49.8870   32.1080   40.5130 C   0  0  0  0  0  0  0  0  0  0  0  0
   51.3270   31.8350   40.8150 C   0  0  0  0  0  0  0  0  0  0  0  0
   51.5020   30.7070   41.7140 N   0  0  0  0  0  0  0  0  0  0  0  0
   50.6070   30.7920   42.8500 C   0  0  0  0  0  0  0  0  0  0  0  0
   49.2030   31.1940   42.5020 C   0  0  0  0  0  0  0  0  0  0  0  0
   46.5606   35.1717   40.8496 H   0  0  0  0  0  0  0  0  0  0  0  0
   45.5950   33.2526   45.3074 H   0  0  0  0  0  0  0  0  0  0  0  0
   44.8756   33.5506   39.7447 H   0  0  0  0  0  0  0  0  0  0  0  0
   42.9516   33.8601   38.1483 H   0  0  0  0  0  0  0  0  0  0  0  0
   40.9333   35.1096   38.8298 H   0  0  0  0  0  0  0  0  0  0  0  0
   40.8093   36.0879   41.1248 H   0  0  0  0  0  0  0  0  0  0  0  0
   42.6913   35.7805   42.6770 H   0  0  0  0  0  0  0  0  0  0  0  0
   49.2114   35.3742   43.2657 H   0  0  0  0  0  0  0  0  0  0  0  0
   48.9234   36.7019   41.4525 H   0  0  0  0  0  0  0  0  0  0  0  0
   49.7267   35.3516   40.5819 H   0  0  0  0  0  0  0  0  0  0  0  0
   47.9351   35.4805   40.5819 H   0  0  0  0  0  0  0  0  0  0  0  0
   50.5434   33.8513   41.7944 H   0  0  0  0  0  0  0  0  0  0  0  0
   49.7841   33.2783   43.4005 H   0  0  0  0  0  0  0  0  0  0  0  0
   49.8258   32.9608   39.8209 H   0  0  0  0  0  0  0  0  0  0  0  0
   49.4574   31.1987   40.0674 H   0  0  0  0  0  0  0  0  0  0  0  0
   51.8506   31.6193   39.8720 H   0  0  0  0  0  0  0  0  0  0  0  0
   51.7395   32.7257   41.3115 H   0  0  0  0  0  0  0  0  0  0  0  0
   51.3089   29.8357   41.1998 H   0  0  0  0  0  0  0  0  0  0  0  0
   50.5725   29.8057   43.3359 H   0  0  0  0  0  0  0  0  0  0  0  0
   51.0061   31.5787   43.5071 H   0  0  0  0  0  0  0  0  0  0  0  0
   48.6391   31.3211   43.4379 H   0  0  0  0  0  0  0  0  0  0  0  0
   48.7965   30.3965   41.8626 H   0  0  0  0  0  0  0  0  0  0  0  0
  1  6  2  0
  2  3  2  0
  2  1  1  0
  3  4  1  0
  4  5  2  0
  6  5  1  0
  7 12  1  0
  7  3  1  0
  8  7  2  0
  9 10  2  0
  9  8  1  0
 10 11  1  0
 11 12  2  0
 13  1  1  0
 14 13  1  0
 15 13  1  0
 16 15  1  0
 16 21  1  0
 17 18  1  0
 17 16  1  0
 18 19  1  0
 19 20  1  0
 21 20  1  0
  2 22  1  0
  5 23  1  0
  8 24  1  0
  9 25  1  0
 10 26  1  0
 11 27  1  0
 12 28  1  0
 13 29  1  1
 14 30  1  0
 14 31  1  0
 14 32  1  0
 15 33  1  0
 15 34  1  0
 17 35  1  0
 17 36  1  0
 18 37  1  0
 18 38  1  0
 19 39  1  0
 20 40  1  0
 20 41  1  0
 21 42  1  0
 21 43  1  0
M  ISO  8  22  14  23  14  24  14  25  14  26  14  27  14  28  14  29   8
M  ISO  8  30   8  31   8  32   8  33   8  34   8  35  13  36  13  37  13
M  ISO  6  38  13  39   5  40  13  41  13  42  13  43  13
M  END
>  <minimizedAffinity>  (1) 
-5.15674496

>  <minimizedRMSD>  (1) 
6.3385663

$$$$
