
     RDKit          3D

 44 46  0  0  1  0  0  0  0  0999 V2000
   46.8290   33.7420   43.3870 C   0  0  0  0  0  0  0  0  0  0  0  0
   46.4680   33.5860   42.0440 C   0  0  0  0  0  0  0  0  0  0  0  0
   47.4450   33.7820   41.0700 C   0  0  0  0  0  0  0  0  0  0  0  0
   48.6930   34.1120   41.4640 N   0  0  0  0  0  0  0  0  0  0  0  0
   49.0280   34.2570   42.7680 C   0  0  0  0  0  0  0  0  0  0  0  0
   48.0990   34.0730   43.7130 N   0  0  0  0  0  0  0  0  0  0  0  0
   47.1780   33.6630   39.6460 C   0  0  0  0  0  0  0  0  0  0  0  0
   48.1180   34.1970   38.7800 C   0  0  0  0  0  0  0  0  0  0  0  0
   47.9620   34.1410   37.3870 C   0  0  0  0  0  0  0  0  0  0  0  0
   46.8250   33.5290   36.8740 C   0  0  0  0  0  0  0  0  0  0  0  0
   45.8910   33.0000   37.7350 C   0  0  0  0  0  0  0  0  0  0  0  0
   46.0800   33.0730   39.1090 C   0  0  0  0  0  0  0  0  0  0  0  0
   45.8270   33.5430   44.4810 C   0  0  2  0  0  0  0  0  0  0  0  0
   45.0330   34.8660   44.6630 C   0  0  0  0  0  0  0  0  0  0  0  0
   46.4580   33.1770   45.7770 C   0  0  0  0  0  0  0  0  0  0  0  0
   45.6390   32.2590   46.4820 N   0  0  0  0  0  0  0  0  0  0  0  0
   45.1220   32.7330   47.7350 C   0  0  0  0  0  0  0  0  0  0  0  0
   46.0200   32.3390   48.8970 C   0  0  0  0  0  0  0  0  0  0  0  0
   46.3480   30.8760   48.8750 C   0  0  0  0  0  0  0  0  0  0  0  0
   45.6050   30.2150   47.7410 C   0  0  0  0  0  0  0  0  0  0  0  0
   45.9670   30.8830   46.4140 C   0  0  0  0  0  0  0  0  0  0  0  0
   45.4391   33.3155   41.7643 H   0  0  0  0  0  0  0  0  0  0  0  0
   50.0575   34.5244   43.0485 H   0  0  0  0  0  0  0  0  0  0  0  0
   49.0141   34.6797   39.1973 H   0  0  0  0  0  0  0  0  0  0  0  0
   48.7212   34.5711   36.7172 H   0  0  0  0  0  0  0  0  0  0  0  0
   46.6724   33.4677   35.7864 H   0  0  0  0  0  0  0  0  0  0  0  0
   44.9889   32.5162   37.3324 H   0  0  0  0  0  0  0  0  0  0  0  0
   45.3211   32.6420   39.7785 H   0  0  0  0  0  0  0  0  0  0  0  0
   45.1698   32.7102   44.1903 H   0  0  0  0  0  0  0  0  0  0  0  0
   44.9081   35.0741   45.7359 H   0  0  0  0  0  0  0  0  0  0  0  0
   45.5845   35.6925   44.1910 H   0  0  0  0  0  0  0  0  0  0  0  0
   44.0443   34.7681   44.1910 H   0  0  0  0  0  0  0  0  0  0  0  0
   47.4382   32.7159   45.5858 H   0  0  0  0  0  0  0  0  0  0  0  0
   46.5807   34.0860   46.3842 H   0  0  0  0  0  0  0  0  0  0  0  0
   45.0469   33.8298   47.6980 H   0  0  0  0  0  0  0  0  0  0  0  0
   44.1340   32.2763   47.8940 H   0  0  0  0  0  0  0  0  0  0  0  0
   46.9553   32.9147   48.8355 H   0  0  0  0  0  0  0  0  0  0  0  0
   45.4838   32.5555   49.8327 H   0  0  0  0  0  0  0  0  0  0  0  0
   47.4306   30.7444   48.7310 H   0  0  0  0  0  0  0  0  0  0  0  0
   46.0483   30.4170   49.8287 H   0  0  0  0  0  0  0  0  0  0  0  0
   45.8785   29.1504   47.6987 H   0  0  0  0  0  0  0  0  0  0  0  0
   44.5232   30.3176   47.9118 H   0  0  0  0  0  0  0  0  0  0  0  0
   45.4020   30.4098   45.5974 H   0  0  0  0  0  0  0  0  0  0  0  0
   47.0443   30.7683   46.2237 H   0  0  0  0  0  0  0  0  0  0  0  0
  1  6  1  0
  1 13  1  0
  2  1  2  0
  3  4  2  0
  3  2  1  0
  4  5  1  0
  5  6  2  0
  7  3  1  0
  8  7  2  0
  9  8  1  0
 10  9  2  0
 10 11  1  0
 11 12  2  0
 12  7  1  0
 13 14  1  0
 13 15  1  0
 15 16  1  0
 16 17  1  0
 17 18  1  0
 19 18  1  0
 20 19  1  0
 21 16  1  0
 21 20  1  0
  2 22  1  0
  5 23  1  0
  8 24  1  0
  9 25  1  0
 10 26  1  0
 11 27  1  0
 12 28  1  0
 13 29  1  6
 14 30  1  0
 14 31  1  0
 14 32  1  0
 15 33  1  0
 15 34  1  0
 17 35  1  0
 17 36  1  0
 18 37  1  0
 18 38  1  0
 19 39  1  0
 19 40  1  0
 20 41  1  0
 20 42  1  0
 21 43  1  0
 21 44  1  0
M  ISO  8  22  14  23  14  24  14  25  14  26  14  27  14  28  14  29   8
M  ISO  8  30   8  31   8  32   8  33   8  34   8  35  13  36  13  37  13
M  ISO  7  38  13  39  13  40  13  41  13  42  13  43  13  44  13
M  END
>  <minimizedAffinity>  (1) 
-5.06980133

>  <minimizedRMSD>  (1) 
1.70461082

$$$$
