
     RDKit          3D

 31 32  0  0  1  0  0  0  0  0999 V2000
   46.1400   34.3730   43.1870 C   0  0  0  0  0  0  0  0  0  0  0  0
   46.0810   34.3340   41.8010 C   0  0  0  0  0  0  0  0  0  0  0  0
   47.1730   33.8750   41.0940 C   0  0  0  0  0  0  0  0  0  0  0  0
   48.2660   33.4760   41.7760 N   0  0  0  0  0  0  0  0  0  0  0  0
   48.3270   33.5130   43.1370 C   0  0  0  0  0  0  0  0  0  0  0  0
   47.2580   33.9640   43.8230 N   0  0  0  0  0  0  0  0  0  0  0  0
   47.2140   33.8150   39.6420 C   0  0  0  0  0  0  0  0  0  0  0  0
   48.2730   34.4830   39.0200 C   0  0  0  0  0  0  0  0  0  0  0  0
   48.4080   34.4870   37.6230 C   0  0  0  0  0  0  0  0  0  0  0  0
   47.4790   33.8190   36.8520 C   0  0  0  0  0  0  0  0  0  0  0  0
   46.4380   33.1630   37.4710 C   0  0  0  0  0  0  0  0  0  0  0  0
   46.3150   33.1680   38.8620 C   0  0  0  0  0  0  0  0  0  0  0  0
   44.9980   34.8300   44.0160 C   0  0  2  0  0  0  0  0  0  0  0  0
   44.8690   36.3710   43.8780 C   0  0  0  0  0  0  0  0  0  0  0  0
   45.1260   34.5040   45.4660 C   0  0  0  0  0  0  0  0  0  0  0  0
   44.4290   35.4170   46.3200 N   0  0  0  0  0  0  0  0  0  0  0  0
   45.1747   34.6650   41.2727 H   0  0  0  0  0  0  0  0  0  0  0  0
   49.2324   33.1808   43.6661 H   0  0  0  0  0  0  0  0  0  0  0  0
   49.0132   35.0146   39.6361 H   0  0  0  0  0  0  0  0  0  0  0  0
   49.2462   35.0174   37.1475 H   0  0  0  0  0  0  0  0  0  0  0  0
   47.5687   33.8104   35.7557 H   0  0  0  0  0  0  0  0  0  0  0  0
   45.6942   32.6284   36.8620 H   0  0  0  0  0  0  0  0  0  0  0  0
   45.4739   32.6376   39.3323 H   0  0  0  0  0  0  0  0  0  0  0  0
   44.1116   34.2954   43.6439 H   0  0  0  0  0  0  0  0  0  0  0  0
   44.8308   36.8268   44.8784 H   0  0  0  0  0  0  0  0  0  0  0  0
   45.7374   36.7639   43.3289 H   0  0  0  0  0  0  0  0  0  0  0  0
   43.9474   36.6141   43.3289 H   0  0  0  0  0  0  0  0  0  0  0  0
   44.7228   33.4943   45.6328 H   0  0  0  0  0  0  0  0  0  0  0  0
   46.1939   34.5740   45.7204 H   0  0  0  0  0  0  0  0  0  0  0  0
   44.6134   35.1755   47.3042 H   0  0  0  0  0  0  0  0  0  0  0  0
   44.7545   36.3766   46.1352 H   0  0  0  0  0  0  0  0  0  0  0  0
  1  6  2  0
  1 13  1  0
  2  1  1  0
  3  4  1  0
  3  2  2  0
  4  5  2  0
  5  6  1  0
  7  3  1  0
  8  7  2  0
  9  8  1  0
 10 11  1  0
 10  9  2  0
 11 12  2  0
 12  7  1  0
 13 15  1  0
 14 13  1  0
 15 16  1  0
  2 17  1  0
  5 18  1  0
  8 19  1  0
  9 20  1  0
 10 21  1  0
 11 22  1  0
 12 23  1  0
 13 24  1  6
 14 25  1  0
 14 26  1  0
 14 27  1  0
 15 28  1  0
 15 29  1  0
 16 30  1  0
 16 31  1  0
M  ISO  8  17  14  18  14  19  14  20  14  21  14  22  14  23  14  24   8
M  ISO  7  25   8  26   8  27   8  28   8  29   8  30   5  31   5
M  END
>  <minimizedAffinity>  (1) 
-5.13280201

>  <minimizedRMSD>  (1) 
0.582836151

$$$$
