
     RDKit          3D

 21 22  0  0  0  0  0  0  0  0999 V2000
   45.0090   34.9240   44.8670 C   0  0  0  0  0  0  0  0  0  0  0  0
   45.9320   34.7800   43.8250 C   0  0  0  0  0  0  0  0  0  0  0  0
   46.9170   33.7990   43.9290 C   0  0  0  0  0  0  0  0  0  0  0  0
   46.9320   33.0280   45.0440 N   0  0  0  0  0  0  0  0  0  0  0  0
   46.0510   33.1740   46.0270 C   0  0  0  0  0  0  0  0  0  0  0  0
   45.1040   34.1060   45.9410 N   0  0  0  0  0  0  0  0  0  0  0  0
   46.1750   32.3110   47.1290 N   0  0  0  0  0  0  0  0  0  0  0  0
   47.3840   31.9140   47.5870 C   0  0  0  0  0  0  0  0  0  0  0  0
   47.2290   31.0970   48.6430 N   0  0  0  0  0  0  0  0  0  0  0  0
   45.8800   31.0150   48.8080 C   0  0  0  0  0  0  0  0  0  0  0  0
   45.2380   31.7590   47.8790 N   0  0  0  0  0  0  0  0  0  0  0  0
   45.1670   30.2600   49.8080 N   0  0  0  0  0  0  0  0  0  0  0  0
   45.7970   35.6920   42.6670 C   0  0  0  0  0  0  0  0  0  0  0  0
   47.0150   35.8250   42.0070 F   0  0  0  0  0  0  0  0  0  0  0  0
   45.3890   36.9670   43.0220 F   0  0  0  0  0  0  0  0  0  0  0  0
   44.9070   35.2120   41.7310 F   0  0  0  0  0  0  0  0  0  0  0  0
   44.2201   35.6887   44.8140 H   0  0  0  0  0  0  0  0  0  0  0  0
   47.6597   33.6549   43.1304 H   0  0  0  0  0  0  0  0  0  0  0  0
   48.3513   32.2152   47.1586 H   0  0  0  0  0  0  0  0  0  0  0  0
   44.1374   30.2783   49.8302 H   0  0  0  0  0  0  0  0  0  0  0  0
   45.6872   29.7023   50.5003 H   0  0  0  0  0  0  0  0  0  0  0  0
  1  6  2  0
  2  3  2  0
  2  1  1  0
  3  4  1  0
  4  5  2  0
  5  7  1  0
  6  5  1  0
  7  8  1  0
  7 11  1  0
  8  9  2  0
  9 10  1  0
 10 12  1  0
 11 10  2  0
 13 15  1  0
 13  2  1  0
 14 13  1  0
 16 13  1  0
  1 17  1  0
  3 18  1  0
  8 19  1  0
 12 20  1  0
 12 21  1  0
M  ISO  3  17  14  18  14  19  14
M  END
>  <minimizedAffinity>  (1) 
-5.0676899

>  <minimizedRMSD>  (1) 
0.436511278

$$$$
