
     RDKit          3D

 22 23  0  0  0  0  0  0  0  0999 V2000
   44.5760   35.6360   44.4330 C   0  0  0  0  0  0  0  0  0  0  0  0
   44.5810   34.9680   43.2110 C   0  0  0  0  0  0  0  0  0  0  0  0
   44.9390   33.6300   43.1820 C   0  0  0  0  0  0  0  0  0  0  0  0
   45.2700   33.0360   44.3520 N   0  0  0  0  0  0  0  0  0  0  0  0
   45.2630   33.6830   45.5200 C   0  0  0  0  0  0  0  0  0  0  0  0
   44.9210   34.9590   45.5500 N   0  0  0  0  0  0  0  0  0  0  0  0
   45.6310   32.9250   46.6460 N   0  0  0  0  0  0  0  0  0  0  0  0
   46.5740   31.9720   46.5970 C   0  0  0  0  0  0  0  0  0  0  0  0
   46.7200   31.4110   47.8080 N   0  0  0  0  0  0  0  0  0  0  0  0
   45.8250   32.0660   48.5930 C   0  0  0  0  0  0  0  0  0  0  0  0
   45.1450   33.0050   47.8810 N   0  0  0  0  0  0  0  0  0  0  0  0
   45.5650   31.8580   49.9900 N   0  0  0  0  0  0  0  0  0  0  0  0
   44.1950   35.7450   42.0020 C   0  0  0  0  0  0  0  0  0  0  0  0
   44.7900   35.1970   40.8650 F   0  0  0  0  0  0  0  0  0  0  0  0
   44.5660   37.0670   42.0670 F   0  0  0  0  0  0  0  0  0  0  0  0
   42.8270   35.6840   41.7750 F   0  0  0  0  0  0  0  0  0  0  0  0
   47.5350   31.4730   45.1490 S   0  0  0  0  0  0  0  0  0  0  0  0
   44.2955   36.6982   44.4878 H   0  0  0  0  0  0  0  0  0  0  0  0
   44.9538   33.0676   42.2368 H   0  0  0  0  0  0  0  0  0  0  0  0
   44.8540   32.4266   50.4718 H   0  0  0  0  0  0  0  0  0  0  0  0
   46.0895   31.1402   50.5102 H   0  0  0  0  0  0  0  0  0  0  0  0
   48.6957   30.8703   45.5568 H   0  0  0  0  0  0  0  0  0  0  0  0
  1  6  2  0
  2  1  1  0
  3  2  2  0
  3  4  1  0
  4  5  2  0
  5  6  1  0
  5  7  1  0
  7 11  1  0
  8  7  1  0
  8  9  2  0
  9 10  1  0
 10 12  1  0
 11 10  2  0
 13 15  1  0
 13  2  1  0
 14 13  1  0
 16 13  1  0
 17  8  1  0
  1 18  1  0
  3 19  1  0
 12 20  1  0
 12 21  1  0
 17 22  1  0
M  ISO  3  18  14  19  14  22  11
M  END
>  <minimizedAffinity>  (1) 
-5.08233213

>  <minimizedRMSD>  (1) 
1.60625196

$$$$
