
     RDKit          3D

 28 30  0  0  0  0  0  0  0  0999 V2000
   44.8960   35.2010   44.6230 C   0  0  0  0  0  0  0  0  0  0  0  0
   44.7520   34.6570   43.3410 C   0  0  0  0  0  0  0  0  0  0  0  0
   45.0650   33.3230   43.1390 C   0  0  0  0  0  0  0  0  0  0  0  0
   45.4940   32.6110   44.2070 N   0  0  0  0  0  0  0  0  0  0  0  0
   45.6310   33.1150   45.4160 C   0  0  0  0  0  0  0  0  0  0  0  0
   45.3340   34.3980   45.6230 N   0  0  0  0  0  0  0  0  0  0  0  0
   46.0890   32.2560   46.4300 N   0  0  0  0  0  0  0  0  0  0  0  0
   47.0200   31.3070   46.1930 C   0  0  0  0  0  0  0  0  0  0  0  0
   47.2560   30.6430   47.3490 N   0  0  0  0  0  0  0  0  0  0  0  0
   46.4470   31.2210   48.2600 C   0  0  0  0  0  0  0  0  0  0  0  0
   45.7250   32.2130   47.7080 N   0  0  0  0  0  0  0  0  0  0  0  0
   46.3600   30.8360   49.6410 N   0  0  0  0  0  0  0  0  0  0  0  0
   44.2710   35.5680   42.2780 C   0  0  0  0  0  0  0  0  0  0  0  0
   44.7750   35.1810   41.0450 F   0  0  0  0  0  0  0  0  0  0  0  0
   44.6730   36.8890   42.4640 F   0  0  0  0  0  0  0  0  0  0  0  0
   42.9090   35.5580   42.1530 F   0  0  0  0  0  0  0  0  0  0  0  0
   47.7770   30.8930   44.9790 C   0  0  0  0  0  0  0  0  0  0  0  0
   47.3640   29.6660   44.2380 C   0  0  0  0  0  0  0  0  0  0  0  0
   48.6130   29.6690   45.0290 C   0  0  0  0  0  0  0  0  0  0  0  0
   44.6586   36.2579   44.8145 H   0  0  0  0  0  0  0  0  0  0  0  0
   44.9684   32.8590   42.1463 H   0  0  0  0  0  0  0  0  0  0  0  0
   45.7145   31.3300   50.2737 H   0  0  0  0  0  0  0  0  0  0  0  0
   46.9431   30.0659   49.9987 H   0  0  0  0  0  0  0  0  0  0  0  0
   47.9471   31.9456   44.7085 H   0  0  0  0  0  0  0  0  0  0  0  0
   46.4971   29.0819   44.5806 H   0  0  0  0  0  0  0  0  0  0  0  0
   47.1046   29.4377   43.1937 H   0  0  0  0  0  0  0  0  0  0  0  0
   49.5865   29.6482   44.5173 H   0  0  0  0  0  0  0  0  0  0  0  0
   49.0212   29.0418   45.8352 H   0  0  0  0  0  0  0  0  0  0  0  0
  1  6  2  0
  2  1  1  0
  3  2  2  0
  3  4  1  0
  4  5  2  0
  5  6  1  0
  5  7  1  0
  7 11  1  0
  8  7  1  0
  8  9  2  0
  9 10  1  0
 10 12  1  0
 11 10  2  0
 13 15  1  0
 13  2  1  0
 14 13  1  0
 16 13  1  0
 17 19  1  0
 17  8  1  0
 18 17  1  0
 18 19  1  0
  1 20  1  0
  3 21  1  0
 12 22  1  0
 12 23  1  0
 17 24  1  0
 18 25  1  0
 18 26  1  0
 19 27  1  0
 19 28  1  0
M  ISO  7  20  14  21  14  24  13  25  13  26  13  27  13  28  13
M  END
>  <minimizedAffinity>  (1) 
-5.05319977

>  <minimizedRMSD>  (1) 
1.78341103

$$$$
