
     RDKit          3D

 33 34  0  0  0  0  0  0  0  0999 V2000
   45.0870   35.0850   44.4360 C   0  0  0  0  0  0  0  0  0  0  0  0
   44.7100   34.5060   43.2300 C   0  0  0  0  0  0  0  0  0  0  0  0
   44.8830   33.1350   43.0670 C   0  0  0  0  0  0  0  0  0  0  0  0
   45.4130   32.4530   44.1040 N   0  0  0  0  0  0  0  0  0  0  0  0
   45.7720   32.9900   45.2480 C   0  0  0  0  0  0  0  0  0  0  0  0
   45.6110   34.3090   45.4210 N   0  0  0  0  0  0  0  0  0  0  0  0
   46.3080   32.1340   46.2120 N   0  0  0  0  0  0  0  0  0  0  0  0
   47.1250   31.0950   45.8720 C   0  0  0  0  0  0  0  0  0  0  0  0
   47.4770   30.4650   46.9990 N   0  0  0  0  0  0  0  0  0  0  0  0
   46.8700   31.1300   48.0100 C   0  0  0  0  0  0  0  0  0  0  0  0
   46.1490   32.1610   47.5230 N   0  0  0  0  0  0  0  0  0  0  0  0
   46.9440   30.8320   49.4160 N   0  0  0  0  0  0  0  0  0  0  0  0
   44.1470   35.4090   42.2000 C   0  0  0  0  0  0  0  0  0  0  0  0
   44.5780   35.0100   40.9280 F   0  0  0  0  0  0  0  0  0  0  0  0
   44.5410   36.7360   42.3570 F   0  0  0  0  0  0  0  0  0  0  0  0
   42.7810   35.3620   42.1660 F   0  0  0  0  0  0  0  0  0  0  0  0
   47.6450   30.5590   44.5610 C   0  0  0  0  0  0  0  0  0  0  0  0
   48.1860   31.6880   43.6680 C   0  0  0  0  0  0  0  0  0  0  0  0
   48.8480   29.6450   44.7630 C   0  0  0  0  0  0  0  0  0  0  0  0
   46.5610   29.8700   43.7640 C   0  0  0  0  0  0  0  0  0  0  0  0
   44.9618   36.1666   44.5925 H   0  0  0  0  0  0  0  0  0  0  0  0
   44.5998   32.6285   42.1325 H   0  0  0  0  0  0  0  0  0  0  0  0
   46.4334   31.4158   50.0938 H   0  0  0  0  0  0  0  0  0  0  0  0
   47.5075   30.0349   49.7445 H   0  0  0  0  0  0  0  0  0  0  0  0
   48.5752   32.5003   44.2994 H   0  0  0  0  0  0  0  0  0  0  0  0
   48.9948   31.2975   43.0329 H   0  0  0  0  0  0  0  0  0  0  0  0
   47.3749   32.0738   43.0329 H   0  0  0  0  0  0  0  0  0  0  0  0
   49.0279   29.5083   45.8395 H   0  0  0  0  0  0  0  0  0  0  0  0
   48.6488   28.6684   44.2976 H   0  0  0  0  0  0  0  0  0  0  0  0
   49.7354   30.0987   44.2976 H   0  0  0  0  0  0  0  0  0  0  0  0
   45.8366   29.4096   44.4519 H   0  0  0  0  0  0  0  0  0  0  0  0
   46.0470   30.6075   43.1301 H   0  0  0  0  0  0  0  0  0  0  0  0
   47.0106   29.0915   43.1301 H   0  0  0  0  0  0  0  0  0  0  0  0
  1  6  2  0
  2  1  1  0
  3  2  2  0
  3  4  1  0
  4  5  2  0
  5  6  1  0
  5  7  1  0
  7 11  1  0
  8  7  1  0
  8  9  2  0
  9 10  1  0
 10 12  1  0
 11 10  2  0
 13 15  1  0
 13  2  1  0
 14 13  1  0
 16 13  1  0
 17 19  1  0
 17  8  1  0
 18 17  1  0
 20 17  1  0
  1 21  1  0
  3 22  1  0
 12 23  1  0
 12 24  1  0
 18 25  1  0
 18 26  1  0
 18 27  1  0
 19 28  1  0
 19 29  1  0
 19 30  1  0
 20 31  1  0
 20 32  1  0
 20 33  1  0
M  ISO  8  21  14  22  14  25   8  26   8  27   8  28   8  29   8  30   8
M  ISO  3  31   8  32   8  33   8
M  END
>  <minimizedAffinity>  (1) 
-5.03568268

>  <minimizedRMSD>  (1) 
2.26351762

$$$$
