
     RDKit          3D

 44 46  0  0  0  0  0  0  0  0999 V2000
   47.6210   30.5090   44.6060 C   0  0  0  0  0  0  0  0  0  0  0  0
   45.1240   35.0550   44.4460 C   0  0  0  0  0  0  0  0  0  0  0  0
   44.7300   34.4590   43.2410 C   0  0  0  0  0  0  0  0  0  0  0  0
   44.8890   33.0850   43.0980 C   0  0  0  0  0  0  0  0  0  0  0  0
   45.4200   32.4510   44.1630 N   0  0  0  0  0  0  0  0  0  0  0  0
   45.7960   32.9630   45.2870 C   0  0  0  0  0  0  0  0  0  0  0  0
   45.6480   34.2880   45.4390 N   0  0  0  0  0  0  0  0  0  0  0  0
   46.3240   32.1160   46.2470 N   0  0  0  0  0  0  0  0  0  0  0  0
   47.1150   31.0660   45.9060 C   0  0  0  0  0  0  0  0  0  0  0  0
   47.4760   30.4440   47.0460 N   0  0  0  0  0  0  0  0  0  0  0  0
   46.8940   31.1330   48.0540 C   0  0  0  0  0  0  0  0  0  0  0  0
   46.1830   32.1640   47.5560 N   0  0  0  0  0  0  0  0  0  0  0  0
   46.9960   30.8690   49.4580 N   0  0  0  0  0  0  0  0  0  0  0  0
   44.1720   35.3570   42.2070 C   0  0  0  0  0  0  0  0  0  0  0  0
   44.6410   34.9750   40.9440 F   0  0  0  0  0  0  0  0  0  0  0  0
   44.5450   36.6980   42.3820 F   0  0  0  0  0  0  0  0  0  0  0  0
   42.8150   35.2830   42.1360 F   0  0  0  0  0  0  0  0  0  0  0  0
   48.1170   31.6240   43.6770 C   0  0  0  0  0  0  0  0  0  0  0  0
   48.8810   29.6530   44.8440 C   0  0  0  0  0  0  0  0  0  0  0  0
   46.5920   29.7420   43.8600 C   0  0  0  0  0  0  0  0  0  0  0  0
   45.8820   28.7580   44.6780 N   0  0  0  0  0  0  0  0  0  0  0  0
   44.7390   29.2880   45.2130 C   0  0  0  0  0  0  0  0  0  0  0  0
   43.9180   28.5290   46.0210 C   0  0  0  0  0  0  0  0  0  0  0  0
   44.2560   27.2180   46.2890 C   0  0  0  0  0  0  0  0  0  0  0  0
   43.5160   26.3080   47.1020 N   0  0  0  0  0  0  0  0  0  0  0  0
   45.3790   26.7470   45.7450 N   0  0  0  0  0  0  0  0  0  0  0  0
   46.1850   27.4780   44.9580 C   0  0  0  0  0  0  0  0  0  0  0  0
   47.2560   27.1290   44.4000 O   0  0  0  0  0  0  0  0  0  0  0  0
   45.0099   36.1398   44.5884 H   0  0  0  0  0  0  0  0  0  0  0  0
   44.6015   32.5522   42.1796 H   0  0  0  0  0  0  0  0  0  0  0  0
   46.5018   31.4705   50.1324 H   0  0  0  0  0  0  0  0  0  0  0  0
   47.5636   30.0776   49.7933 H   0  0  0  0  0  0  0  0  0  0  0  0
   48.4909   32.4645   44.2801 H   0  0  0  0  0  0  0  0  0  0  0  0
   48.9285   31.2385   43.0423 H   0  0  0  0  0  0  0  0  0  0  0  0
   47.2873   31.9686   43.0423 H   0  0  0  0  0  0  0  0  0  0  0  0
   49.0482   29.5394   45.9253 H   0  0  0  0  0  0  0  0  0  0  0  0
   48.7422   28.6615   44.3883 H   0  0  0  0  0  0  0  0  0  0  0  0
   49.7516   30.1474   44.3883 H   0  0  0  0  0  0  0  0  0  0  0  0
   45.8561   30.4520   43.4545 H   0  0  0  0  0  0  0  0  0  0  0  0
   47.1171   29.1841   43.0707 H   0  0  0  0  0  0  0  0  0  0  0  0
   44.4716   30.3327   44.9958 H   0  0  0  0  0  0  0  0  0  0  0  0
   43.0025   28.9646   46.4477 H   0  0  0  0  0  0  0  0  0  0  0  0
   43.8568   25.3457   47.2391 H   0  0  0  0  0  0  0  0  0  0  0  0
   42.6412   26.6135   47.5517 H   0  0  0  0  0  0  0  0  0  0  0  0
  1 19  1  0
  1  9  1  0
  2  7  2  0
  3  2  1  0
  4  3  2  0
  4  5  1  0
  5  6  2  0
  6  7  1  0
  6  8  1  0
  8 12  1  0
  9  8  1  0
  9 10  2  0
 10 11  1  0
 11 13  1  0
 12 11  2  0
 14 16  1  0
 14  3  1  0
 15 14  1  0
 17 14  1  0
 18  1  1  0
 20  1  1  0
 20 21  1  0
 21 27  1  0
 21 22  1  0
 22 23  2  0
 23 24  1  0
 24 25  1  0
 26 24  2  0
 27 26  1  0
 28 27  2  0
  2 29  1  0
  4 30  1  0
 13 31  1  0
 13 32  1  0
 18 33  1  0
 18 34  1  0
 18 35  1  0
 19 36  1  0
 19 37  1  0
 19 38  1  0
 20 39  1  0
 20 40  1  0
 22 41  1  0
 23 42  1  0
 25 43  1  0
 25 44  1  0
M  ISO  8  29  14  30  14  33   8  34   8  35   8  36   8  37   8  38   8
M  ISO  4  39   8  40   8  41  14  42  14
M  END
>  <minimizedAffinity>  (1) 
-5.41680002

>  <minimizedRMSD>  (1) 
0.875411153

$$$$
