
     RDKit          3D

 42 44  0  0  0  0  0  0  0  0999 V2000
   45.1850   35.0400   44.4100 C   0  0  0  0  0  0  0  0  0  0  0  0
   44.7470   34.4260   43.2430 C   0  0  0  0  0  0  0  0  0  0  0  0
   44.8780   33.0540   43.1420 C   0  0  0  0  0  0  0  0  0  0  0  0
   45.4320   32.4360   44.2080 N   0  0  0  0  0  0  0  0  0  0  0  0
   45.8510   32.9690   45.3050 C   0  0  0  0  0  0  0  0  0  0  0  0
   45.7240   34.2930   45.4080 N   0  0  0  0  0  0  0  0  0  0  0  0
   46.3850   32.1300   46.2700 N   0  0  0  0  0  0  0  0  0  0  0  0
   47.1360   31.0320   45.9370 C   0  0  0  0  0  0  0  0  0  0  0  0
   47.4950   30.4470   47.0930 N   0  0  0  0  0  0  0  0  0  0  0  0
   46.9710   31.1800   48.0910 C   0  0  0  0  0  0  0  0  0  0  0  0
   46.2860   32.2190   47.5870 N   0  0  0  0  0  0  0  0  0  0  0  0
   47.0960   30.9280   49.4970 N   0  0  0  0  0  0  0  0  0  0  0  0
   44.1740   35.3040   42.2030 C   0  0  0  0  0  0  0  0  0  0  0  0
   44.6650   34.9250   40.9470 F   0  0  0  0  0  0  0  0  0  0  0  0
   44.5320   36.6530   42.3580 F   0  0  0  0  0  0  0  0  0  0  0  0
   42.8210   35.2050   42.1300 F   0  0  0  0  0  0  0  0  0  0  0  0
   47.5730   30.4410   44.6300 C   0  0  0  0  0  0  0  0  0  0  0  0
   48.1920   31.4880   43.7090 C   0  0  0  0  0  0  0  0  0  0  0  0
   48.7110   29.4270   44.8700 C   0  0  0  0  0  0  0  0  0  0  0  0
   46.4490   29.7940   43.8980 C   0  0  0  0  0  0  0  0  0  0  0  0
   45.8200   28.8440   44.9350 C   0  0  0  0  0  0  0  0  0  0  0  0
   44.6560   29.0990   45.6040 C   0  0  0  0  0  0  0  0  0  0  0  0
   44.1900   28.1720   46.5130 C   0  0  0  0  0  0  0  0  0  0  0  0
   44.8560   26.9930   46.7720 C   0  0  0  0  0  0  0  0  0  0  0  0
   46.0260   26.7670   46.0800 C   0  0  0  0  0  0  0  0  0  0  0  0
   46.4650   27.6710   45.2070 N   0  0  0  0  0  0  0  0  0  0  0  0
   45.0953   36.1302   44.5254 H   0  0  0  0  0  0  0  0  0  0  0  0
   44.5517   32.4998   42.2496 H   0  0  0  0  0  0  0  0  0  0  0  0
   46.6491   31.5612   50.1754 H   0  0  0  0  0  0  0  0  0  0  0  0
   47.6327   30.1138   49.8286 H   0  0  0  0  0  0  0  0  0  0  0  0
   48.6594   32.2786   44.3145 H   0  0  0  0  0  0  0  0  0  0  0  0
   48.9546   31.0131   43.0743 H   0  0  0  0  0  0  0  0  0  0  0  0
   47.4083   31.9273   43.0743 H   0  0  0  0  0  0  0  0  0  0  0  0
   48.8610   29.2934   45.9515 H   0  0  0  0  0  0  0  0  0  0  0  0
   48.4441   28.4618   44.4148 H   0  0  0  0  0  0  0  0  0  0  0  0
   49.6391   29.8029   44.4148 H   0  0  0  0  0  0  0  0  0  0  0  0
   45.7182   30.5447   43.5628 H   0  0  0  0  0  0  0  0  0  0  0  0
   46.7838   29.2671   42.9923 H   0  0  0  0  0  0  0  0  0  0  0  0
   44.0990   30.0296   45.4204 H   0  0  0  0  0  0  0  0  0  0  0  0
   43.2533   28.3810   47.0506 H   0  0  0  0  0  0  0  0  0  0  0  0
   44.4700   26.2640   47.4998 H   0  0  0  0  0  0  0  0  0  0  0  0
   46.5961   25.8415   46.2486 H   0  0  0  0  0  0  0  0  0  0  0  0
  1  6  2  0
  2  1  1  0
  3  2  2  0
  3  4  1  0
  4  5  2  0
  5  6  1  0
  5  7  1  0
  7 11  1  0
  8  7  1  0
  8  9  2  0
  9 10  1  0
 10 12  1  0
 11 10  2  0
 13 15  1  0
 13  2  1  0
 14 13  1  0
 16 13  1  0
 17 19  1  0
 17  8  1  0
 18 17  1  0
 20 17  1  0
 20 21  1  0
 21 26  1  0
 21 22  2  0
 22 23  1  0
 23 24  2  0
 25 24  1  0
 26 25  2  0
  1 27  1  0
  3 28  1  0
 12 29  1  0
 12 30  1  0
 18 31  1  0
 18 32  1  0
 18 33  1  0
 19 34  1  0
 19 35  1  0
 19 36  1  0
 20 37  1  0
 20 38  1  0
 22 39  1  0
 23 40  1  0
 24 41  1  0
 25 42  1  0
M  ISO  8  27  14  28  14  31   8  32   8  33   8  34   8  35   8  36   8
M  ISO  6  37   8  38   8  39  14  40  14  41  14  42  14
M  END
>  <minimizedAffinity>  (1) 
-5.2615943

>  <minimizedRMSD>  (1) 
0.673911393

$$$$
