
     RDKit          3D

 43 45  0  0  0  0  0  0  0  0999 V2000
   45.1910   35.0390   44.4140 C   0  0  0  0  0  0  0  0  0  0  0  0
   44.7430   34.4200   43.2410 C   0  0  0  0  0  0  0  0  0  0  0  0
   44.8590   33.0370   43.1380 C   0  0  0  0  0  0  0  0  0  0  0  0
   45.4030   32.4200   44.2060 N   0  0  0  0  0  0  0  0  0  0  0  0
   45.8270   32.9530   45.3020 C   0  0  0  0  0  0  0  0  0  0  0  0
   45.7220   34.2850   45.4160 N   0  0  0  0  0  0  0  0  0  0  0  0
   46.3570   32.1160   46.2690 N   0  0  0  0  0  0  0  0  0  0  0  0
   47.1030   31.0350   45.9430 C   0  0  0  0  0  0  0  0  0  0  0  0
   47.4740   30.4300   47.0880 N   0  0  0  0  0  0  0  0  0  0  0  0
   46.9370   31.1660   48.0890 C   0  0  0  0  0  0  0  0  0  0  0  0
   46.2480   32.2050   47.5800 N   0  0  0  0  0  0  0  0  0  0  0  0
   47.0560   30.9240   49.5040 N   0  0  0  0  0  0  0  0  0  0  0  0
   44.1800   35.3040   42.1990 C   0  0  0  0  0  0  0  0  0  0  0  0
   44.6750   34.9250   40.9410 F   0  0  0  0  0  0  0  0  0  0  0  0
   44.5390   36.6500   42.3620 F   0  0  0  0  0  0  0  0  0  0  0  0
   42.8280   35.2090   42.1160 F   0  0  0  0  0  0  0  0  0  0  0  0
   47.5590   30.4220   44.6360 C   0  0  0  0  0  0  0  0  0  0  0  0
   48.0860   31.4960   43.6750 C   0  0  0  0  0  0  0  0  0  0  0  0
   48.7910   29.5260   44.8750 C   0  0  0  0  0  0  0  0  0  0  0  0
   46.4880   29.6980   43.9220 C   0  0  0  0  0  0  0  0  0  0  0  0
   45.7010   28.7340   44.7360 C   0  0  0  0  0  0  0  0  0  0  0  0
   44.3690   29.1620   44.8230 C   0  0  0  0  0  0  0  0  0  0  0  0
   43.4420   28.4020   45.5470 C   0  0  0  0  0  0  0  0  0  0  0  0
   43.8220   27.2380   46.1760 C   0  0  0  0  0  0  0  0  0  0  0  0
   45.1390   26.8400   46.0740 C   0  0  0  0  0  0  0  0  0  0  0  0
   46.0650   27.5760   45.3660 C   0  0  0  0  0  0  0  0  0  0  0  0
   45.1144   36.1306   44.5259 H   0  0  0  0  0  0  0  0  0  0  0  0
   44.5292   32.4848   42.2457 H   0  0  0  0  0  0  0  0  0  0  0  0
   46.5996   31.5582   50.1751 H   0  0  0  0  0  0  0  0  0  0  0  0
   47.5975   30.1168   49.8447 H   0  0  0  0  0  0  0  0  0  0  0  0
   48.4980   32.3357   44.2539 H   0  0  0  0  0  0  0  0  0  0  0  0
   48.8752   31.0654   43.0411 H   0  0  0  0  0  0  0  0  0  0  0  0
   47.2626   31.8567   43.0411 H   0  0  0  0  0  0  0  0  0  0  0  0
   48.9540   29.4075   45.9564 H   0  0  0  0  0  0  0  0  0  0  0  0
   48.6207   28.5393   44.4196 H   0  0  0  0  0  0  0  0  0  0  0  0
   49.6772   29.9920   44.4196 H   0  0  0  0  0  0  0  0  0  0  0  0
   45.7898   30.4445   43.5154 H   0  0  0  0  0  0  0  0  0  0  0  0
   46.9965   29.0946   43.1556 H   0  0  0  0  0  0  0  0  0  0  0  0
   44.0534   30.0906   44.3249 H   0  0  0  0  0  0  0  0  0  0  0  0
   42.3972   28.7394   45.6139 H   0  0  0  0  0  0  0  0  0  0  0  0
   43.0945   26.6407   46.7452 H   0  0  0  0  0  0  0  0  0  0  0  0
   45.4583   25.9117   46.5703 H   0  0  0  0  0  0  0  0  0  0  0  0
   47.1070   27.2284   45.3072 H   0  0  0  0  0  0  0  0  0  0  0  0
  1  6  2  0
  2  1  1  0
  3  2  2  0
  3  4  1  0
  4  5  2  0
  5  6  1  0
  5  7  1  0
  7 11  1  0
  8  7  1  0
  8  9  2  0
  9 10  1  0
 10 12  1  0
 11 10  2  0
 13 15  1  0
 13  2  1  0
 14 13  1  0
 16 13  1  0
 17 19  1  0
 17  8  1  0
 18 17  1  0
 20 17  1  0
 20 21  1  0
 21 22  2  0
 21 26  1  0
 22 23  1  0
 23 24  2  0
 25 24  1  0
 26 25  2  0
  1 27  1  0
  3 28  1  0
 12 29  1  0
 12 30  1  0
 18 31  1  0
 18 32  1  0
 18 33  1  0
 19 34  1  0
 19 35  1  0
 19 36  1  0
 20 37  1  0
 20 38  1  0
 22 39  1  0
 23 40  1  0
 24 41  1  0
 25 42  1  0
 26 43  1  0
M  ISO  8  27  14  28  14  31   8  32   8  33   8  34   8  35   8  36   8
M  ISO  7  37   8  38   8  39  14  40  14  41  14  42  14  43  14
M  END
>  <minimizedAffinity>  (1) 
-5.28646421

>  <minimizedRMSD>  (1) 
0.834514737

$$$$
