
     RDKit          3D

 40 42  0  0  0  0  0  0  0  0999 V2000
   45.1560   35.0590   44.4260 C   0  0  0  0  0  0  0  0  0  0  0  0
   44.7340   34.4510   43.2580 C   0  0  0  0  0  0  0  0  0  0  0  0
   44.8650   33.0780   43.1480 C   0  0  0  0  0  0  0  0  0  0  0  0
   45.4060   32.4590   44.2230 N   0  0  0  0  0  0  0  0  0  0  0  0
   45.8090   32.9910   45.3220 C   0  0  0  0  0  0  0  0  0  0  0  0
   45.6830   34.3120   45.4290 N   0  0  0  0  0  0  0  0  0  0  0  0
   46.3370   32.1450   46.2910 N   0  0  0  0  0  0  0  0  0  0  0  0
   47.1050   31.0560   45.9760 C   0  0  0  0  0  0  0  0  0  0  0  0
   47.4480   30.4840   47.1260 N   0  0  0  0  0  0  0  0  0  0  0  0
   46.9030   31.1990   48.1200 C   0  0  0  0  0  0  0  0  0  0  0  0
   46.2160   32.2280   47.6090 N   0  0  0  0  0  0  0  0  0  0  0  0
   46.9900   30.9410   49.5210 N   0  0  0  0  0  0  0  0  0  0  0  0
   44.1710   35.3290   42.2070 C   0  0  0  0  0  0  0  0  0  0  0  0
   44.6590   34.9390   40.9540 F   0  0  0  0  0  0  0  0  0  0  0  0
   44.5350   36.6760   42.3610 F   0  0  0  0  0  0  0  0  0  0  0  0
   42.8160   35.2410   42.1300 F   0  0  0  0  0  0  0  0  0  0  0  0
   47.5500   30.4700   44.6730 C   0  0  0  0  0  0  0  0  0  0  0  0
   48.1010   31.5430   43.7100 C   0  0  0  0  0  0  0  0  0  0  0  0
   48.7550   29.5320   44.9010 C   0  0  0  0  0  0  0  0  0  0  0  0
   46.4770   29.7520   43.9400 C   0  0  0  0  0  0  0  0  0  0  0  0
   45.5940   28.9690   44.8430 C   0  0  0  0  0  0  0  0  0  0  0  0
   44.4940   29.0100   45.6630 C   0  0  0  0  0  0  0  0  0  0  0  0
   44.2040   27.8250   46.2930 C   0  0  0  0  0  0  0  0  0  0  0  0
   45.1750   27.0230   45.8340 N   0  0  0  0  0  0  0  0  0  0  0  0
   45.9590   27.6560   45.0200 N   0  0  0  0  0  0  0  0  0  0  0  0
   45.0645   36.1490   44.5423 H   0  0  0  0  0  0  0  0  0  0  0  0
   44.5511   32.5276   42.2488 H   0  0  0  0  0  0  0  0  0  0  0  0
   46.5235   31.5697   50.1904 H   0  0  0  0  0  0  0  0  0  0  0  0
   47.5192   30.1261   49.8627 H   0  0  0  0  0  0  0  0  0  0  0  0
   48.5275   32.3735   44.2917 H   0  0  0  0  0  0  0  0  0  0  0  0
   48.8831   31.0998   43.0760 H   0  0  0  0  0  0  0  0  0  0  0  0
   47.2851   31.9204   43.0760 H   0  0  0  0  0  0  0  0  0  0  0  0
   48.9203   29.4033   45.9809 H   0  0  0  0  0  0  0  0  0  0  0  0
   48.5499   28.5535   44.4423 H   0  0  0  0  0  0  0  0  0  0  0  0
   49.6533   29.9709   44.4423 H   0  0  0  0  0  0  0  0  0  0  0  0
   45.8645   30.4894   43.4006 H   0  0  0  0  0  0  0  0  0  0  0  0
   46.9604   29.0443   43.2504 H   0  0  0  0  0  0  0  0  0  0  0  0
   43.8925   29.9201   45.8042 H   0  0  0  0  0  0  0  0  0  0  0  0
   43.3872   27.5939   46.9925 H   0  0  0  0  0  0  0  0  0  0  0  0
   45.2836   26.0324   46.0946 H   0  0  0  0  0  0  0  0  0  0  0  0
  1  6  2  0
  2  1  1  0
  3  2  2  0
  3  4  1  0
  4  5  2  0
  5  6  1  0
  5  7  1  0
  7 11  1  0
  8  7  1  0
  8  9  2  0
  9 10  1  0
 10 12  1  0
 11 10  2  0
 13 15  1  0
 13  2  1  0
 14 13  1  0
 16 13  1  0
 17 19  1  0
 17  8  1  0
 18 17  1  0
 20 17  1  0
 20 21  1  0
 21 25  2  0
 21 22  1  0
 22 23  2  0
 24 23  1  0
 25 24  1  0
  1 26  1  0
  3 27  1  0
 12 28  1  0
 12 29  1  0
 18 30  1  0
 18 31  1  0
 18 32  1  0
 19 33  1  0
 19 34  1  0
 19 35  1  0
 20 36  1  0
 20 37  1  0
 22 38  1  0
 23 39  1  0
 24 40  1  0
M  ISO  8  26  14  27  14  30   8  31   8  32   8  33   8  34   8  35   8
M  ISO  5  36   8  37   8  38  14  39  14  40   9
M  END
>  <minimizedAffinity>  (1) 
-5.08479929

>  <minimizedRMSD>  (1) 
0.573342085

$$$$
