
     RDKit          3D

 40 42  0  0  0  0  0  0  0  0999 V2000
   45.1630   35.0690   44.4140 C   0  0  0  0  0  0  0  0  0  0  0  0
   44.7280   34.4470   43.2380 C   0  0  0  0  0  0  0  0  0  0  0  0
   44.8560   33.0650   43.1340 C   0  0  0  0  0  0  0  0  0  0  0  0
   45.4000   32.4470   44.2030 N   0  0  0  0  0  0  0  0  0  0  0  0
   45.8120   32.9860   45.3020 C   0  0  0  0  0  0  0  0  0  0  0  0
   45.6950   34.3170   45.4180 N   0  0  0  0  0  0  0  0  0  0  0  0
   46.3460   32.1530   46.2710 N   0  0  0  0  0  0  0  0  0  0  0  0
   47.1080   31.0820   45.9450 C   0  0  0  0  0  0  0  0  0  0  0  0
   47.4760   30.4830   47.0920 N   0  0  0  0  0  0  0  0  0  0  0  0
   46.9310   31.2000   48.0940 C   0  0  0  0  0  0  0  0  0  0  0  0
   46.2290   32.2360   47.5840 N   0  0  0  0  0  0  0  0  0  0  0  0
   47.0470   30.9500   49.5050 N   0  0  0  0  0  0  0  0  0  0  0  0
   44.1650   35.3290   42.1950 C   0  0  0  0  0  0  0  0  0  0  0  0
   44.6490   34.9360   40.9330 F   0  0  0  0  0  0  0  0  0  0  0  0
   44.5300   36.6750   42.3480 F   0  0  0  0  0  0  0  0  0  0  0  0
   42.8140   35.2400   42.1190 F   0  0  0  0  0  0  0  0  0  0  0  0
   47.5790   30.4790   44.6500 C   0  0  0  0  0  0  0  0  0  0  0  0
   48.0880   31.5690   43.6870 C   0  0  0  0  0  0  0  0  0  0  0  0
   48.8140   29.5910   44.8930 C   0  0  0  0  0  0  0  0  0  0  0  0
   46.5240   29.7350   43.9170 C   0  0  0  0  0  0  0  0  0  0  0  0
   45.7400   28.8370   44.7500 N   0  0  0  0  0  0  0  0  0  0  0  0
   44.4730   29.2520   44.9160 N   0  0  0  0  0  0  0  0  0  0  0  0
   43.8530   28.3330   45.7070 C   0  0  0  0  0  0  0  0  0  0  0  0
   44.7680   27.3510   46.0170 C   0  0  0  0  0  0  0  0  0  0  0  0
   45.9590   27.6640   45.4170 C   0  0  0  0  0  0  0  0  0  0  0  0
   45.0758   36.1597   44.5271 H   0  0  0  0  0  0  0  0  0  0  0  0
   44.5346   32.5126   42.2387 H   0  0  0  0  0  0  0  0  0  0  0  0
   46.5808   31.5743   50.1787 H   0  0  0  0  0  0  0  0  0  0  0  0
   47.5963   30.1466   49.8422 H   0  0  0  0  0  0  0  0  0  0  0  0
   48.4833   32.4156   44.2675 H   0  0  0  0  0  0  0  0  0  0  0  0
   48.8858   31.1547   43.0530 H   0  0  0  0  0  0  0  0  0  0  0  0
   47.2582   31.9148   43.0530 H   0  0  0  0  0  0  0  0  0  0  0  0
   48.9751   29.4751   45.9749 H   0  0  0  0  0  0  0  0  0  0  0  0
   48.6501   28.6027   44.4388 H   0  0  0  0  0  0  0  0  0  0  0  0
   49.6987   30.0611   44.4388 H   0  0  0  0  0  0  0  0  0  0  0  0
   45.8409   30.4659   43.4596 H   0  0  0  0  0  0  0  0  0  0  0  0
   47.0378   29.1084   43.1731 H   0  0  0  0  0  0  0  0  0  0  0  0
   42.8052   28.3686   46.0400 H   0  0  0  0  0  0  0  0  0  0  0  0
   44.5750   26.4656   46.6406 H   0  0  0  0  0  0  0  0  0  0  0  0
   46.8967   27.0907   45.4625 H   0  0  0  0  0  0  0  0  0  0  0  0
  1  6  2  0
  2  1  1  0
  3  2  2  0
  3  4  1  0
  4  5  2  0
  5  6  1  0
  5  7  1  0
  7 11  1  0
  8  7  1  0
  8  9  2  0
  9 10  1  0
 10 12  1  0
 11 10  2  0
 13 15  1  0
 13  2  1  0
 14 13  1  0
 16 13  1  0
 17 19  1  0
 17  8  1  0
 18 17  1  0
 20 17  1  0
 20 21  1  0
 21 22  1  0
 21 25  1  0
 22 23  2  0
 23 24  1  0
 25 24  2  0
  1 26  1  0
  3 27  1  0
 12 28  1  0
 12 29  1  0
 18 30  1  0
 18 31  1  0
 18 32  1  0
 19 33  1  0
 19 34  1  0
 19 35  1  0
 20 36  1  0
 20 37  1  0
 23 38  1  0
 24 39  1  0
 25 40  1  0
M  ISO  8  26  14  27  14  30   8  31   8  32   8  33   8  34   8  35   8
M  ISO  5  36   8  37   8  38  14  39  14  40  14
M  END
>  <minimizedAffinity>  (1) 
-5.05478716

>  <minimizedRMSD>  (1) 
0.534330666

$$$$
