
     RDKit          3D

 40 42  0  0  0  0  0  0  0  0999 V2000
   45.1240   35.0970   44.4270 C   0  0  0  0  0  0  0  0  0  0  0  0
   44.7130   34.4850   43.2370 C   0  0  0  0  0  0  0  0  0  0  0  0
   44.8590   33.1110   43.1160 C   0  0  0  0  0  0  0  0  0  0  0  0
   45.3940   32.4860   44.1830 N   0  0  0  0  0  0  0  0  0  0  0  0
   45.7860   33.0080   45.2960 C   0  0  0  0  0  0  0  0  0  0  0  0
   45.6510   34.3360   45.4280 N   0  0  0  0  0  0  0  0  0  0  0  0
   46.3130   32.1670   46.2590 N   0  0  0  0  0  0  0  0  0  0  0  0
   47.0860   31.1050   45.9280 C   0  0  0  0  0  0  0  0  0  0  0  0
   47.4450   30.4950   47.0760 N   0  0  0  0  0  0  0  0  0  0  0  0
   46.8820   31.2030   48.0770 C   0  0  0  0  0  0  0  0  0  0  0  0
   46.1810   32.2380   47.5690 N   0  0  0  0  0  0  0  0  0  0  0  0
   46.9820   30.9440   49.4890 N   0  0  0  0  0  0  0  0  0  0  0  0
   44.1550   35.3760   42.1980 C   0  0  0  0  0  0  0  0  0  0  0  0
   44.6340   34.9880   40.9360 F   0  0  0  0  0  0  0  0  0  0  0  0
   44.5340   36.7180   42.3520 F   0  0  0  0  0  0  0  0  0  0  0  0
   42.8000   35.3040   42.1280 F   0  0  0  0  0  0  0  0  0  0  0  0
   47.5720   30.5190   44.6310 C   0  0  0  0  0  0  0  0  0  0  0  0
   48.1290   31.6130   43.7060 C   0  0  0  0  0  0  0  0  0  0  0  0
   48.7830   29.5990   44.8820 C   0  0  0  0  0  0  0  0  0  0  0  0
   46.5110   29.8090   43.8710 C   0  0  0  0  0  0  0  0  0  0  0  0
   45.7850   28.8310   44.6750 N   0  0  0  0  0  0  0  0  0  0  0  0
   45.9490   27.7060   45.3980 C   0  0  0  0  0  0  0  0  0  0  0  0
   44.7120   27.3310   45.8990 C   0  0  0  0  0  0  0  0  0  0  0  0
   43.7900   28.2430   45.4710 N   0  0  0  0  0  0  0  0  0  0  0  0
   44.4610   29.1620   44.7180 C   0  0  0  0  0  0  0  0  0  0  0  0
   45.0224   36.1849   44.5537 H   0  0  0  0  0  0  0  0  0  0  0  0
   44.5578   32.5673   42.2085 H   0  0  0  0  0  0  0  0  0  0  0  0
   46.5034   31.5608   50.1609 H   0  0  0  0  0  0  0  0  0  0  0  0
   47.5321   30.1418   49.8278 H   0  0  0  0  0  0  0  0  0  0  0  0
   48.5450   32.4301   44.3136 H   0  0  0  0  0  0  0  0  0  0  0  0
   48.9207   31.1884   43.0712 H   0  0  0  0  0  0  0  0  0  0  0  0
   47.3199   32.0034   43.0712 H   0  0  0  0  0  0  0  0  0  0  0  0
   48.9366   29.4823   45.9650 H   0  0  0  0  0  0  0  0  0  0  0  0
   48.5950   28.6139   44.4301 H   0  0  0  0  0  0  0  0  0  0  0  0
   49.6816   30.0442   44.4301 H   0  0  0  0  0  0  0  0  0  0  0  0
   45.7939   30.5529   43.4936 H   0  0  0  0  0  0  0  0  0  0  0  0
   47.0045   29.2602   43.0554 H   0  0  0  0  0  0  0  0  0  0  0  0
   46.8993   27.1770   45.5622 H   0  0  0  0  0  0  0  0  0  0  0  0
   44.5089   26.4533   46.5302 H   0  0  0  0  0  0  0  0  0  0  0  0
   44.0066   30.0330   44.2232 H   0  0  0  0  0  0  0  0  0  0  0  0
  1  6  2  0
  2  1  1  0
  3  2  2  0
  3  4  1  0
  4  5  2  0
  5  6  1  0
  5  7  1  0
  7 11  1  0
  8  7  1  0
  8  9  2  0
  9 10  1  0
 10 12  1  0
 11 10  2  0
 13 15  1  0
 13  2  1  0
 14 13  1  0
 16 13  1  0
 17 19  1  0
 17  8  1  0
 18 17  1  0
 20 17  1  0
 20 21  1  0
 21 25  1  0
 21 22  1  0
 22 23  2  0
 24 23  1  0
 25 24  2  0
  1 26  1  0
  3 27  1  0
 12 28  1  0
 12 29  1  0
 18 30  1  0
 18 31  1  0
 18 32  1  0
 19 33  1  0
 19 34  1  0
 19 35  1  0
 20 36  1  0
 20 37  1  0
 22 38  1  0
 23 39  1  0
 25 40  1  0
M  ISO  8  26  14  27  14  30   8  31   8  32   8  33   8  34   8  35   8
M  ISO  5  36   8  37   8  38  14  39  14  40  14
M  END
>  <minimizedAffinity>  (1) 
-5.00326109

>  <minimizedRMSD>  (1) 
0.261422962

$$$$
