
     RDKit          3D

 45 47  0  0  0  0  0  0  0  0999 V2000
   45.3770   34.9040   44.2700 C   0  0  0  0  0  0  0  0  0  0  0  0
   44.8390   34.2550   43.1630 C   0  0  0  0  0  0  0  0  0  0  0  0
   44.8540   32.8610   43.1300 C   0  0  0  0  0  0  0  0  0  0  0  0
   45.4060   32.2670   44.2080 N   0  0  0  0  0  0  0  0  0  0  0  0
   45.9140   32.8370   45.2520 C   0  0  0  0  0  0  0  0  0  0  0  0
   45.9030   34.1770   45.2920 N   0  0  0  0  0  0  0  0  0  0  0  0
   46.4300   32.0190   46.2410 N   0  0  0  0  0  0  0  0  0  0  0  0
   47.0950   30.8710   45.9440 C   0  0  0  0  0  0  0  0  0  0  0  0
   47.4730   30.3080   47.1090 N   0  0  0  0  0  0  0  0  0  0  0  0
   47.0300   31.1270   48.0880 C   0  0  0  0  0  0  0  0  0  0  0  0
   46.3860   32.1840   47.5540 N   0  0  0  0  0  0  0  0  0  0  0  0
   47.1900   30.9610   49.5130 N   0  0  0  0  0  0  0  0  0  0  0  0
   44.2860   35.1070   42.0780 C   0  0  0  0  0  0  0  0  0  0  0  0
   44.9140   34.8200   40.8680 F   0  0  0  0  0  0  0  0  0  0  0  0
   44.4750   36.4750   42.3140 F   0  0  0  0  0  0  0  0  0  0  0  0
   42.9600   34.8860   41.8790 F   0  0  0  0  0  0  0  0  0  0  0  0
   47.4560   30.1490   44.6750 C   0  0  0  0  0  0  0  0  0  0  0  0
   48.3000   31.0710   43.7570 C   0  0  0  0  0  0  0  0  0  0  0  0
   48.4250   28.9990   44.9630 C   0  0  0  0  0  0  0  0  0  0  0  0
   46.2730   29.7490   43.8680 C   0  0  0  0  0  0  0  0  0  0  0  0
   45.4710   28.6720   44.2940 N   0  0  0  0  0  0  0  0  0  0  0  0
   44.2470   28.8990   44.9670 C   0  0  0  0  0  0  0  0  0  0  0  0
   44.4130   28.5110   46.4340 C   0  0  0  0  0  0  0  0  0  0  0  0
   45.6620   27.7080   46.4430 C   0  0  0  0  0  0  0  0  0  0  0  0
   46.2550   27.7590   45.0730 C   0  0  0  0  0  0  0  0  0  0  0  0
   45.3769   36.0029   44.3184 H   0  0  0  0  0  0  0  0  0  0  0  0
   44.4450   32.2869   42.2855 H   0  0  0  0  0  0  0  0  0  0  0  0
   46.8023   31.6625   50.1599 H   0  0  0  0  0  0  0  0  0  0  0  0
   47.6919   30.1411   49.8828 H   0  0  0  0  0  0  0  0  0  0  0  0
   48.9141   31.7418   44.3758 H   0  0  0  0  0  0  0  0  0  0  0  0
   48.9548   30.4561   43.1220 H   0  0  0  0  0  0  0  0  0  0  0  0
   47.6298   31.6690   43.1220 H   0  0  0  0  0  0  0  0  0  0  0  0
   48.5313   28.8728   46.0505 H   0  0  0  0  0  0  0  0  0  0  0  0
   48.0331   28.0703   44.5227 H   0  0  0  0  0  0  0  0  0  0  0  0
   49.4067   29.2277   44.5227 H   0  0  0  0  0  0  0  0  0  0  0  0
   46.6429   29.4941   42.8639 H   0  0  0  0  0  0  0  0  0  0  0  0
   45.6018   30.6167   43.9487 H   0  0  0  0  0  0  0  0  0  0  0  0
   43.9768   29.9628   44.8942 H   0  0  0  0  0  0  0  0  0  0  0  0
   43.4506   28.2946   44.5083 H   0  0  0  0  0  0  0  0  0  0  0  0
   44.5158   29.4044   47.0674 H   0  0  0  0  0  0  0  0  0  0  0  0
   43.5476   27.9603   46.8313 H   0  0  0  0  0  0  0  0  0  0  0  0
   46.3704   28.1283   47.1720 H   0  0  0  0  0  0  0  0  0  0  0  0
   45.4447   26.6675   46.7262 H   0  0  0  0  0  0  0  0  0  0  0  0
   46.2297   26.7587   44.6160 H   0  0  0  0  0  0  0  0  0  0  0  0
   47.3027   28.0912   45.1181 H   0  0  0  0  0  0  0  0  0  0  0  0
  1  6  2  0
  2  1  1  0
  3  2  2  0
  3  4  1  0
  4  5  2  0
  5  6  1  0
  5  7  1  0
  7 11  1  0
  8  7  1  0
  8  9  2  0
  9 10  1  0
 10 12  1  0
 11 10  2  0
 13 15  1  0
 13  2  1  0
 14 13  1  0
 16 13  1  0
 17 19  1  0
 17  8  1  0
 18 17  1  0
 20 21  1  0
 20 17  1  0
 21 22  1  0
 21 25  1  0
 22 23  1  0
 23 24  1  0
 25 24  1  0
  1 26  1  0
  3 27  1  0
 12 28  1  0
 12 29  1  0
 18 30  1  0
 18 31  1  0
 18 32  1  0
 19 33  1  0
 19 34  1  0
 19 35  1  0
 20 36  1  0
 20 37  1  0
 22 38  1  0
 22 39  1  0
 23 40  1  0
 23 41  1  0
 24 42  1  0
 24 43  1  0
 25 44  1  0
 25 45  1  0
M  ISO  8  26  14  27  14  30   8  31   8  32   8  33   8  34   8  35   8
M  ISO  8  36   8  37   8  38  13  39  13  40  13  41  13  42  13  43  13
M  ISO  2  44  13  45  13
M  END
>  <minimizedAffinity>  (1) 
-4.94536829

>  <minimizedRMSD>  (1) 
0.512025476

$$$$
