
     RDKit          3D

 40 42  0  0  0  0  0  0  0  0999 V2000
   44.7290   35.9080   45.0410 C   0  0  0  0  0  0  0  0  0  0  0  0
   44.0120   35.9090   43.8180 C   0  0  0  0  0  0  0  0  0  0  0  0
   44.0920   34.7810   43.0220 C   0  0  0  0  0  0  0  0  0  0  0  0
   44.8330   33.7140   43.4010 N   0  0  0  0  0  0  0  0  0  0  0  0
   45.5200   33.7390   44.5930 C   0  0  0  0  0  0  0  0  0  0  0  0
   45.4570   34.8260   45.3860 N   0  0  0  0  0  0  0  0  0  0  0  0
   46.3140   32.5870   44.9900 C   0  0  0  0  0  0  0  0  0  0  0  0
   47.1370   31.8110   44.1880 C   0  0  0  0  0  0  0  0  0  0  0  0
   47.7010   30.8280   44.9410 N   0  0  0  0  0  0  0  0  0  0  0  0
   47.2240   31.0000   46.1980 C   0  0  0  0  0  0  0  0  0  0  0  0
   46.3900   32.0550   46.2330 N   0  0  0  0  0  0  0  0  0  0  0  0
   47.5640   30.1770   47.3070 N   0  0  0  0  0  0  0  0  0  0  0  0
   47.5860   30.6950   48.6250 C   0  0  0  0  0  0  0  0  0  0  0  0
   46.8860   31.7410   48.9090 N   0  0  0  0  0  0  0  0  0  0  0  0
   48.3870   30.0320   49.5720 N   0  0  0  0  0  0  0  0  0  0  0  0
   46.9290   32.0910   49.8870 H   0  0  0  0  0  0  0  0  0  0  0  0
   45.6700   32.5740   47.3900 C   0  0  0  0  0  0  0  0  0  0  0  0
   44.9870   31.5670   48.0860 F   0  0  0  0  0  0  0  0  0  0  0  0
   44.7670   33.5720   47.0580 F   0  0  0  0  0  0  0  0  0  0  0  0
   46.5780   33.0880   48.3220 F   0  0  0  0  0  0  0  0  0  0  0  0
   43.3660   34.8090   41.8050 N   0  0  0  0  0  0  0  0  0  0  0  0
   42.0480   35.0010   41.6480 C   0  0  0  0  0  0  0  0  0  0  0  0
   41.5020   34.9970   40.3850 C   0  0  0  0  0  0  0  0  0  0  0  0
   42.2620   34.8030   39.2560 C   0  0  0  0  0  0  0  0  0  0  0  0
   41.7600   34.8000   38.1140 O   0  0  0  0  0  0  0  0  0  0  0  0
   43.5800   34.6130   39.4500 N   0  0  0  0  0  0  0  0  0  0  0  0
   44.1120   34.6180   40.7020 C   0  0  0  0  0  0  0  0  0  0  0  0
   45.3760   34.4250   40.7130 O   0  0  0  0  0  0  0  0  0  0  0  0
   40.0480   35.2100   40.2320 C   0  0  0  0  0  0  0  0  0  0  0  0
   44.6919   36.7844   45.7047 H   0  0  0  0  0  0  0  0  0  0  0  0
   43.4117   36.7786   43.5122 H   0  0  0  0  0  0  0  0  0  0  0  0
   47.3072   31.9657   43.1123 H   0  0  0  0  0  0  0  0  0  0  0  0
   47.7984   29.1866   47.1488 H   0  0  0  0  0  0  0  0  0  0  0  0
   48.4305   30.3770   50.5415 H   0  0  0  0  0  0  0  0  0  0  0  0
   48.9301   29.2015   49.2960 H   0  0  0  0  0  0  0  0  0  0  0  0
   41.4054   35.1612   42.5263 H   0  0  0  0  0  0  0  0  0  0  0  0
   44.1954   34.4615   38.6381 H   0  0  0  0  0  0  0  0  0  0  0  0
   39.5809   35.2784   41.2255 H   0  0  0  0  0  0  0  0  0  0  0  0
   39.8705   36.1437   39.6783 H   0  0  0  0  0  0  0  0  0  0  0  0
   39.6101   34.3664   39.6783 H   0  0  0  0  0  0  0  0  0  0  0  0
  1  6  2  0
  2  1  1  0
  3  4  1  0
  3  2  2  0
  4  5  2  0
  5  7  1  0
  5  6  1  0
  7 11  1  0
  8  9  1  0
  8  7  2  0
  9 10  2  0
 10 11  1  0
 10 12  1  0
 11 17  1  0
 12 13  1  0
 13 14  2  0
 13 15  1  0
 14 16  1  0
 17 18  1  0
 17 20  1  0
 19 17  1  0
 21  3  1  0
 22 21  1  0
 23 22  2  0
 24 26  1  0
 24 23  1  0
 25 24  2  0
 26 27  1  0
 27 28  2  0
 27 21  1  0
 29 23  1  0
  1 30  1  0
  2 31  1  0
  8 32  1  0
 12 33  1  0
 15 34  1  0
 15 35  1  0
 22 36  1  0
 26 37  1  0
 29 38  1  0
 29 39  1  0
 29 40  1  0
M  ISO  8  30  14  31  14  32  14  36  14  37   9  38   8  39   8  40   8
M  END
>  <minimizedAffinity>  (1) 
-6.9673028

>  <minimizedRMSD>  (1) 
0.292596281

$$$$
