
     RDKit          3D

 34 35  0  0  0  0  0  0  0  0999 V2000
   45.0750   35.0770   44.4400 C   0  0  0  0  0  0  0  0  0  0  0  0
   44.7050   34.5020   43.2250 C   0  0  0  0  0  0  0  0  0  0  0  0
   44.8920   33.1410   43.0670 C   0  0  0  0  0  0  0  0  0  0  0  0
   45.4250   32.4950   44.1270 N   0  0  0  0  0  0  0  0  0  0  0  0
   45.7780   32.9930   45.2620 C   0  0  0  0  0  0  0  0  0  0  0  0
   45.6030   34.3060   45.4300 N   0  0  0  0  0  0  0  0  0  0  0  0
   46.3090   32.1330   46.2090 N   0  0  0  0  0  0  0  0  0  0  0  0
   47.1080   31.0950   45.8670 C   0  0  0  0  0  0  0  0  0  0  0  0
   47.4600   30.4580   46.9970 N   0  0  0  0  0  0  0  0  0  0  0  0
   46.8650   31.1270   48.0080 C   0  0  0  0  0  0  0  0  0  0  0  0
   46.1570   32.1570   47.5260 N   0  0  0  0  0  0  0  0  0  0  0  0
   46.9470   30.8330   49.4140 N   0  0  0  0  0  0  0  0  0  0  0  0
   44.1430   35.4100   42.2040 C   0  0  0  0  0  0  0  0  0  0  0  0
   44.5820   35.0180   40.9350 F   0  0  0  0  0  0  0  0  0  0  0  0
   44.5450   36.7450   42.3640 F   0  0  0  0  0  0  0  0  0  0  0  0
   42.7830   35.3620   42.1660 F   0  0  0  0  0  0  0  0  0  0  0  0
   47.6290   30.5690   44.5570 C   0  0  0  0  0  0  0  0  0  0  0  0
   48.2100   31.6990   43.6930 C   0  0  0  0  0  0  0  0  0  0  0  0
   48.8290   29.6290   44.7920 C   0  0  0  0  0  0  0  0  0  0  0  0
   46.5920   29.8730   43.7500 C   0  0  0  0  0  0  0  0  0  0  0  0
   47.2080   29.9850   41.9800 S   0  0  0  0  0  0  0  0  0  0  0  0
   44.9399   36.1570   44.5992 H   0  0  0  0  0  0  0  0  0  0  0  0
   44.6238   32.6177   42.1374 H   0  0  0  0  0  0  0  0  0  0  0  0
   46.4440   31.4215   50.0934 H   0  0  0  0  0  0  0  0  0  0  0  0
   47.5087   30.0340   49.7412 H   0  0  0  0  0  0  0  0  0  0  0  0
   48.6153   32.4873   44.3444 H   0  0  0  0  0  0  0  0  0  0  0  0
   49.0141   31.2987   43.0580 H   0  0  0  0  0  0  0  0  0  0  0  0
   47.4166   32.1200   43.0580 H   0  0  0  0  0  0  0  0  0  0  0  0
   48.9899   29.5030   45.8728 H   0  0  0  0  0  0  0  0  0  0  0  0
   48.6226   28.6498   44.3354 H   0  0  0  0  0  0  0  0  0  0  0  0
   49.7303   30.0639   44.3354 H   0  0  0  0  0  0  0  0  0  0  0  0
   46.4984   28.8224   44.0621 H   0  0  0  0  0  0  0  0  0  0  0  0
   45.5969   30.3253   43.8731 H   0  0  0  0  0  0  0  0  0  0  0  0
   48.5559   30.2301   41.9802 H   0  0  0  0  0  0  0  0  0  0  0  0
  1  6  2  0
  2  1  1  0
  3  2  2  0
  3  4  1  0
  4  5  2  0
  5  6  1  0
  5  7  1  0
  7 11  1  0
  8  7  1  0
  8  9  2  0
  9 10  1  0
 10 12  1  0
 11 10  2  0
 13 15  1  0
 13  2  1  0
 14 13  1  0
 16 13  1  0
 17 19  1  0
 17  8  1  0
 18 17  1  0
 20 17  1  0
 21 20  1  0
  1 22  1  0
  3 23  1  0
 12 24  1  0
 12 25  1  0
 18 26  1  0
 18 27  1  0
 18 28  1  0
 19 29  1  0
 19 30  1  0
 19 31  1  0
 20 32  1  0
 20 33  1  0
 21 34  1  0
M  ISO  8  22  14  23  14  26   8  27   8  28   8  29   8  30   8  31   8
M  ISO  3  32   8  33   8  34  11
M  END
>  <minimizedAffinity>  (1) 
-4.82981157

>  <minimizedRMSD>  (1) 
0.171150625

$$$$
