
     RDKit          3D

 35 36  0  0  0  0  0  0  0  0999 V2000
   45.0850   35.0780   44.4330 C   0  0  0  0  0  0  0  0  0  0  0  0
   44.7060   34.4970   43.2210 C   0  0  0  0  0  0  0  0  0  0  0  0
   44.8840   33.1330   43.0670 C   0  0  0  0  0  0  0  0  0  0  0  0
   45.4160   32.4900   44.1250 N   0  0  0  0  0  0  0  0  0  0  0  0
   45.7790   32.9890   45.2580 C   0  0  0  0  0  0  0  0  0  0  0  0
   45.6130   34.3050   45.4230 N   0  0  0  0  0  0  0  0  0  0  0  0
   46.3080   32.1320   46.2100 N   0  0  0  0  0  0  0  0  0  0  0  0
   47.1080   31.0950   45.8620 C   0  0  0  0  0  0  0  0  0  0  0  0
   47.4620   30.4560   46.9940 N   0  0  0  0  0  0  0  0  0  0  0  0
   46.8640   31.1240   48.0070 C   0  0  0  0  0  0  0  0  0  0  0  0
   46.1540   32.1550   47.5220 N   0  0  0  0  0  0  0  0  0  0  0  0
   46.9480   30.8350   49.4100 N   0  0  0  0  0  0  0  0  0  0  0  0
   44.1440   35.4060   42.1990 C   0  0  0  0  0  0  0  0  0  0  0  0
   44.5780   35.0080   40.9290 F   0  0  0  0  0  0  0  0  0  0  0  0
   44.5450   36.7410   42.3600 F   0  0  0  0  0  0  0  0  0  0  0  0
   42.7840   35.3530   42.1580 F   0  0  0  0  0  0  0  0  0  0  0  0
   47.6310   30.5650   44.5430 C   0  0  0  0  0  0  0  0  0  0  0  0
   48.2020   31.7020   43.6860 C   0  0  0  0  0  0  0  0  0  0  0  0
   48.8330   29.6340   44.7890 C   0  0  0  0  0  0  0  0  0  0  0  0
   46.5820   29.8610   43.7570 C   0  0  0  0  0  0  0  0  0  0  0  0
   46.8540   30.2130   42.3280 N   0  0  0  0  0  0  0  0  0  0  0  0
   44.9573   36.1595   44.5884 H   0  0  0  0  0  0  0  0  0  0  0  0
   44.6089   32.6077   42.1405 H   0  0  0  0  0  0  0  0  0  0  0  0
   46.4422   31.4226   50.0880 H   0  0  0  0  0  0  0  0  0  0  0  0
   47.5141   30.0399   49.7390 H   0  0  0  0  0  0  0  0  0  0  0  0
   48.5985   32.4915   44.3413 H   0  0  0  0  0  0  0  0  0  0  0  0
   49.0111   31.3118   43.0511 H   0  0  0  0  0  0  0  0  0  0  0  0
   47.4059   32.1180   43.0511 H   0  0  0  0  0  0  0  0  0  0  0  0
   48.9882   29.5138   45.8713 H   0  0  0  0  0  0  0  0  0  0  0  0
   48.6347   28.6516   44.3357 H   0  0  0  0  0  0  0  0  0  0  0  0
   49.7346   30.0717   44.3357 H   0  0  0  0  0  0  0  0  0  0  0  0
   46.6540   28.7735   43.9061 H   0  0  0  0  0  0  0  0  0  0  0  0
   45.5694   30.1590   44.0665 H   0  0  0  0  0  0  0  0  0  0  0  0
   47.4833   31.0274   42.2888 H   0  0  0  0  0  0  0  0  0  0  0  0
   47.2984   29.4127   41.8559 H   0  0  0  0  0  0  0  0  0  0  0  0
  1  6  2  0
  2  1  1  0
  3  2  2  0
  3  4  1  0
  4  5  2  0
  5  6  1  0
  5  7  1  0
  7 11  1  0
  8  7  1  0
  8  9  2  0
  9 10  1  0
 10 12  1  0
 11 10  2  0
 13 15  1  0
 13  2  1  0
 14 13  1  0
 16 13  1  0
 17 19  1  0
 17  8  1  0
 18 17  1  0
 20 17  1  0
 21 20  1  0
  1 22  1  0
  3 23  1  0
 12 24  1  0
 12 25  1  0
 18 26  1  0
 18 27  1  0
 18 28  1  0
 19 29  1  0
 19 30  1  0
 19 31  1  0
 20 32  1  0
 20 33  1  0
 21 34  1  0
 21 35  1  0
M  ISO  8  22  14  23  14  26   8  27   8  28   8  29   8  30   8  31   8
M  ISO  4  32   8  33   8  34   5  35   5
M  END
>  <minimizedAffinity>  (1) 
-4.82654905

>  <minimizedRMSD>  (1) 
0.208836377

$$$$
