
     RDKit          3D

 46 48  0  0  0  0  0  0  0  0999 V2000
   45.0730   35.0970   44.4280 C   0  0  0  0  0  0  0  0  0  0  0  0
   44.6950   34.5230   43.2190 C   0  0  0  0  0  0  0  0  0  0  0  0
   44.8740   33.1550   43.0580 C   0  0  0  0  0  0  0  0  0  0  0  0
   45.4090   32.5190   44.1200 N   0  0  0  0  0  0  0  0  0  0  0  0
   45.7700   33.0100   45.2510 C   0  0  0  0  0  0  0  0  0  0  0  0
   45.6020   34.3200   45.4150 N   0  0  0  0  0  0  0  0  0  0  0  0
   46.3010   32.1440   46.2010 N   0  0  0  0  0  0  0  0  0  0  0  0
   47.1000   31.1020   45.8400 C   0  0  0  0  0  0  0  0  0  0  0  0
   47.4470   30.4650   46.9780 N   0  0  0  0  0  0  0  0  0  0  0  0
   46.8590   31.1230   47.9900 C   0  0  0  0  0  0  0  0  0  0  0  0
   46.1480   32.1640   47.5110 N   0  0  0  0  0  0  0  0  0  0  0  0
   46.9420   30.8180   49.3900 N   0  0  0  0  0  0  0  0  0  0  0  0
   44.1320   35.4290   42.1920 C   0  0  0  0  0  0  0  0  0  0  0  0
   44.5690   35.0340   40.9240 F   0  0  0  0  0  0  0  0  0  0  0  0
   44.5420   36.7620   42.3510 F   0  0  0  0  0  0  0  0  0  0  0  0
   42.7720   35.3830   42.1580 F   0  0  0  0  0  0  0  0  0  0  0  0
   47.6220   30.5780   44.5070 C   0  0  0  0  0  0  0  0  0  0  0  0
   48.2020   31.7150   43.6810 C   0  0  0  0  0  0  0  0  0  0  0  0
   48.8140   29.6410   44.7710 C   0  0  0  0  0  0  0  0  0  0  0  0
   46.5520   29.8810   43.7460 C   0  0  0  0  0  0  0  0  0  0  0  0
   46.7940   29.5960   42.2930 C   0  0  0  0  0  0  0  0  0  0  0  0
   45.8380   30.0690   41.2730 C   0  0  0  0  0  0  0  0  0  0  0  0
   46.1350   29.1330   40.0620 C   0  0  0  0  0  0  0  0  0  0  0  0
   46.4940   27.8210   40.6750 C   0  0  0  0  0  0  0  0  0  0  0  0
   46.7100   28.0680   42.1240 C   0  0  0  0  0  0  0  0  0  0  0  0
   44.9451   36.1778   44.5877 H   0  0  0  0  0  0  0  0  0  0  0  0
   44.5994   32.6288   42.1318 H   0  0  0  0  0  0  0  0  0  0  0  0
   46.4416   31.4023   50.0749 H   0  0  0  0  0  0  0  0  0  0  0  0
   47.5020   30.0149   49.7098 H   0  0  0  0  0  0  0  0  0  0  0  0
   48.5979   32.4911   44.3525 H   0  0  0  0  0  0  0  0  0  0  0  0
   49.0139   31.3301   43.0464 H   0  0  0  0  0  0  0  0  0  0  0  0
   47.4138   32.1464   43.0464 H   0  0  0  0  0  0  0  0  0  0  0  0
   48.9581   29.5277   45.8556 H   0  0  0  0  0  0  0  0  0  0  0  0
   48.6129   28.6567   44.3230 H   0  0  0  0  0  0  0  0  0  0  0  0
   49.7230   30.0689   44.3230 H   0  0  0  0  0  0  0  0  0  0  0  0
   46.3720   28.9164   44.2432 H   0  0  0  0  0  0  0  0  0  0  0  0
   45.7070   30.5853   43.7513 H   0  0  0  0  0  0  0  0  0  0  0  0
   47.7410   30.1246   42.1093 H   0  0  0  0  0  0  0  0  0  0  0  0
   44.8001   29.9529   41.6185 H   0  0  0  0  0  0  0  0  0  0  0  0
   45.9476   31.1374   41.0352 H   0  0  0  0  0  0  0  0  0  0  0  0
   46.9724   29.5244   39.4657 H   0  0  0  0  0  0  0  0  0  0  0  0
   45.2765   29.0517   39.3791 H   0  0  0  0  0  0  0  0  0  0  0  0
   45.6759   27.0998   40.5318 H   0  0  0  0  0  0  0  0  0  0  0  0
   47.3970   27.4013   40.2076 H   0  0  0  0  0  0  0  0  0  0  0  0
   45.8696   27.6656   42.7086 H   0  0  0  0  0  0  0  0  0  0  0  0
   47.6258   27.5748   42.4819 H   0  0  0  0  0  0  0  0  0  0  0  0
  1  6  2  0
  2  1  1  0
  3  2  2  0
  3  4  1  0
  4  5  2  0
  5  6  1  0
  5  7  1  0
  7 11  1  0
  8  7  1  0
  8  9  2  0
  9 10  1  0
 10 12  1  0
 11 10  2  0
 13 15  1  0
 13  2  1  0
 14 13  1  0
 16 13  1  0
 17 19  1  0
 17  8  1  0
 18 17  1  0
 20 17  1  0
 21 20  1  0
 22 21  1  0
 23 24  1  0
 23 22  1  0
 24 25  1  0
 25 21  1  0
  1 26  1  0
  3 27  1  0
 12 28  1  0
 12 29  1  0
 18 30  1  0
 18 31  1  0
 18 32  1  0
 19 33  1  0
 19 34  1  0
 19 35  1  0
 20 36  1  0
 20 37  1  0
 21 38  1  0
 22 39  1  0
 22 40  1  0
 23 41  1  0
 23 42  1  0
 24 43  1  0
 24 44  1  0
 25 45  1  0
 25 46  1  0
M  ISO  8  26  14  27  14  30   8  31   8  32   8  33   8  34   8  35   8
M  ISO  8  36   8  37   8  38  13  39  13  40  13  41  13  42  13  43  13
M  ISO  3  44  13  45  13  46  13
M  END
>  <minimizedAffinity>  (1) 
-4.63293219

>  <minimizedRMSD>  (1) 
0.861376703

$$$$
