
     RDKit          3D

 39 41  0  0  0  0  0  0  0  0999 V2000
   45.0570   35.0840   44.4480 C   0  0  0  0  0  0  0  0  0  0  0  0
   44.7020   34.5140   43.2310 C   0  0  0  0  0  0  0  0  0  0  0  0
   44.9000   33.1510   43.0620 C   0  0  0  0  0  0  0  0  0  0  0  0
   45.4320   32.5060   44.1210 N   0  0  0  0  0  0  0  0  0  0  0  0
   45.7740   32.9980   45.2630 C   0  0  0  0  0  0  0  0  0  0  0  0
   45.5860   34.3080   45.4350 N   0  0  0  0  0  0  0  0  0  0  0  0
   46.3060   32.1370   46.2080 N   0  0  0  0  0  0  0  0  0  0  0  0
   47.1210   31.1140   45.8620 C   0  0  0  0  0  0  0  0  0  0  0  0
   47.4720   30.4670   46.9910 N   0  0  0  0  0  0  0  0  0  0  0  0
   46.8570   31.1180   48.0030 C   0  0  0  0  0  0  0  0  0  0  0  0
   46.1370   32.1470   47.5240 N   0  0  0  0  0  0  0  0  0  0  0  0
   46.9150   30.8080   49.4040 N   0  0  0  0  0  0  0  0  0  0  0  0
   44.1380   35.4220   42.2090 C   0  0  0  0  0  0  0  0  0  0  0  0
   44.5840   35.0340   40.9380 F   0  0  0  0  0  0  0  0  0  0  0  0
   44.5490   36.7540   42.3670 F   0  0  0  0  0  0  0  0  0  0  0  0
   42.7790   35.3750   42.1700 F   0  0  0  0  0  0  0  0  0  0  0  0
   47.6600   30.6030   44.5360 C   0  0  0  0  0  0  0  0  0  0  0  0
   48.2460   31.7470   43.7080 C   0  0  0  0  0  0  0  0  0  0  0  0
   48.8470   29.6550   44.7790 C   0  0  0  0  0  0  0  0  0  0  0  0
   46.6190   29.9080   43.7330 C   0  0  0  0  0  0  0  0  0  0  0  0
   47.1580   29.8050   42.3250 N   0  0  0  0  0  0  0  0  0  0  0  0
   47.8790   28.7420   41.8410 C   0  0  0  0  0  0  0  0  0  0  0  0
   48.1780   28.9940   40.5590 N   0  0  0  0  0  0  0  0  0  0  0  0
   47.6400   30.1940   40.2820 C   0  0  0  0  0  0  0  0  0  0  0  0
   47.0150   30.6970   41.3560 N   0  0  0  0  0  0  0  0  0  0  0  0
   44.9108   36.1615   44.6142 H   0  0  0  0  0  0  0  0  0  0  0  0
   44.6407   32.6314   42.1277 H   0  0  0  0  0  0  0  0  0  0  0  0
   46.3968   31.3857   50.0812 H   0  0  0  0  0  0  0  0  0  0  0  0
   47.4748   30.0079   49.7317 H   0  0  0  0  0  0  0  0  0  0  0  0
   48.6426   32.5212   44.3813 H   0  0  0  0  0  0  0  0  0  0  0  0
   49.0579   31.3619   43.0735 H   0  0  0  0  0  0  0  0  0  0  0  0
   47.4591   32.1809   43.0735 H   0  0  0  0  0  0  0  0  0  0  0  0
   49.0019   29.5313   45.8610 H   0  0  0  0  0  0  0  0  0  0  0  0
   48.6334   28.6761   44.3249 H   0  0  0  0  0  0  0  0  0  0  0  0
   49.7544   30.0797   44.3249 H   0  0  0  0  0  0  0  0  0  0  0  0
   46.4313   28.9043   44.1420 H   0  0  0  0  0  0  0  0  0  0  0  0
   45.6674   30.4593   43.7544 H   0  0  0  0  0  0  0  0  0  0  0  0
   48.1617   27.8415   42.4060 H   0  0  0  0  0  0  0  0  0  0  0  0
   47.7039   30.6960   39.3053 H   0  0  0  0  0  0  0  0  0  0  0  0
  1  6  2  0
  2  1  1  0
  3  2  2  0
  3  4  1  0
  4  5  2  0
  5  6  1  0
  5  7  1  0
  7 11  1  0
  8  7  1  0
  8  9  2  0
  9 10  1  0
 10 12  1  0
 11 10  2  0
 13 15  1  0
 13  2  1  0
 14 13  1  0
 16 13  1  0
 17 19  1  0
 17  8  1  0
 18 17  1  0
 20 17  1  0
 21 20  1  0
 22 21  1  0
 23 22  2  0
 24 23  1  0
 24 25  2  0
 25 21  1  0
  1 26  1  0
  3 27  1  0
 12 28  1  0
 12 29  1  0
 18 30  1  0
 18 31  1  0
 18 32  1  0
 19 33  1  0
 19 34  1  0
 19 35  1  0
 20 36  1  0
 20 37  1  0
 22 38  1  0
 24 39  1  0
M  ISO  8  26  14  27  14  30   8  31   8  32   8  33   8  34   8  35   8
M  ISO  4  36   8  37   8  38  14  39  14
M  END
>  <minimizedAffinity>  (1) 
-4.71289587

>  <minimizedRMSD>  (1) 
0.435894489

$$$$
