
     RDKit          3D

 47 50  0  0  0  0  0  0  0  0999 V2000
   47.6230   30.3370   44.6670 C   0  0  0  0  0  0  0  0  0  0  0  0
   45.1390   34.8750   44.4190 C   0  0  0  0  0  0  0  0  0  0  0  0
   44.7570   34.2480   43.2400 C   0  0  0  0  0  0  0  0  0  0  0  0
   44.9450   32.8780   43.1290 C   0  0  0  0  0  0  0  0  0  0  0  0
   45.4960   32.3210   44.2290 N   0  0  0  0  0  0  0  0  0  0  0  0
   45.8620   32.8260   45.3240 C   0  0  0  0  0  0  0  0  0  0  0  0
   45.6820   34.1430   45.4280 N   0  0  0  0  0  0  0  0  0  0  0  0
   46.3790   31.9890   46.2940 N   0  0  0  0  0  0  0  0  0  0  0  0
   47.1420   30.9320   45.9840 C   0  0  0  0  0  0  0  0  0  0  0  0
   47.4830   30.3490   47.1470 N   0  0  0  0  0  0  0  0  0  0  0  0
   46.9150   31.0700   48.1310 C   0  0  0  0  0  0  0  0  0  0  0  0
   46.2340   32.0810   47.6050 N   0  0  0  0  0  0  0  0  0  0  0  0
   47.0020   30.8400   49.5500 N   0  0  0  0  0  0  0  0  0  0  0  0
   44.1650   35.0900   42.1760 C   0  0  0  0  0  0  0  0  0  0  0  0
   44.6710   34.7030   40.9200 F   0  0  0  0  0  0  0  0  0  0  0  0
   44.4750   36.4450   42.3300 F   0  0  0  0  0  0  0  0  0  0  0  0
   42.8070   34.9750   42.1040 F   0  0  0  0  0  0  0  0  0  0  0  0
   48.0630   31.4110   43.7080 C   0  0  0  0  0  0  0  0  0  0  0  0
   48.9270   29.5520   44.9740 C   0  0  0  0  0  0  0  0  0  0  0  0
   46.6100   29.4650   44.0210 C   0  0  0  0  0  0  0  0  0  0  0  0
   46.3050   28.2030   44.7600 C   0  0  0  0  0  0  0  0  0  0  0  0
   47.0430   27.0500   45.0790 C   0  0  0  0  0  0  0  0  0  0  0  0
   46.2520   26.3040   45.8460 N   0  0  0  0  0  0  0  0  0  0  0  0
   45.0790   26.9760   45.9840 C   0  0  0  0  0  0  0  0  0  0  0  0
   45.0910   28.1600   45.3080 N   0  0  0  0  0  0  0  0  0  0  0  0
   43.7270   28.6020   45.5760 C   0  0  0  0  0  0  0  0  0  0  0  0
   42.8320   28.9940   44.4620 C   0  0  0  0  0  0  0  0  0  0  0  0
   42.4990   27.8160   45.2370 C   0  0  0  0  0  0  0  0  0  0  0  0
   45.0027   35.9602   44.5361 H   0  0  0  0  0  0  0  0  0  0  0  0
   44.6720   32.3017   42.2327 H   0  0  0  0  0  0  0  0  0  0  0  0
   46.5168   31.4701   50.2046 H   0  0  0  0  0  0  0  0  0  0  0  0
   47.5494   30.0454   49.9103 H   0  0  0  0  0  0  0  0  0  0  0  0
   48.4206   32.2838   44.2739 H   0  0  0  0  0  0  0  0  0  0  0  0
   48.8760   31.0264   43.0747 H   0  0  0  0  0  0  0  0  0  0  0  0
   47.2138   31.7074   43.0747 H   0  0  0  0  0  0  0  0  0  0  0  0
   49.0593   29.4724   46.0631 H   0  0  0  0  0  0  0  0  0  0  0  0
   48.8596   28.5443   44.5382 H   0  0  0  0  0  0  0  0  0  0  0  0
   49.7860   30.0832   44.5382 H   0  0  0  0  0  0  0  0  0  0  0  0
   45.6765   30.0388   43.9244 H   0  0  0  0  0  0  0  0  0  0  0  0
   47.0357   29.1613   43.0533 H   0  0  0  0  0  0  0  0  0  0  0  0
   48.0682   26.8122   44.7589 H   0  0  0  0  0  0  0  0  0  0  0  0
   44.2235   26.6092   46.5701 H   0  0  0  0  0  0  0  0  0  0  0  0
   44.1167   29.0509   46.5015 H   0  0  0  0  0  0  0  0  0  0  0  0
   43.1743   28.8848   43.4223 H   0  0  0  0  0  0  0  0  0  0  0  0
   42.2951   29.9160   44.1944 H   0  0  0  0  0  0  0  0  0  0  0  0
   41.6328   27.8316   45.9148 H   0  0  0  0  0  0  0  0  0  0  0  0
   42.2943   26.7622   44.9972 H   0  0  0  0  0  0  0  0  0  0  0  0
  1 19  1  0
  1  9  1  0
  2  7  2  0
  3  2  1  0
  4  3  2  0
  4  5  1  0
  5  6  2  0
  6  7  1  0
  6  8  1  0
  8 12  1  0
  9  8  1  0
  9 10  2  0
 10 11  1  0
 11 13  1  0
 12 11  2  0
 14 16  1  0
 14  3  1  0
 15 14  1  0
 17 14  1  0
 18  1  1  0
 20  1  1  0
 20 21  1  0
 21 22  2  0
 21 25  1  0
 22 23  1  0
 23 24  2  0
 25 26  1  0
 25 24  1  0
 27 28  1  0
 27 26  1  0
 28 26  1  0
  2 29  1  0
  4 30  1  0
 13 31  1  0
 13 32  1  0
 18 33  1  0
 18 34  1  0
 18 35  1  0
 19 36  1  0
 19 37  1  0
 19 38  1  0
 20 39  1  0
 20 40  1  0
 22 41  1  0
 24 42  1  0
 26 43  1  0
 27 44  1  0
 27 45  1  0
 28 46  1  0
 28 47  1  0
M  ISO  8  29  14  30  14  33   8  34   8  35   8  36   8  37   8  38   8
M  ISO  8  39   8  40   8  41  14  42  14  43  13  44  13  45  13  46  13
M  ISO  1  47  13
M  END
>  <minimizedAffinity>  (1) 
-5.03159666

>  <minimizedRMSD>  (1) 
1.03948843

$$$$
