
     RDKit          3D

 48 51  0  0  0  0  0  0  0  0999 V2000
   44.7630   35.8950   44.9550 C   0  0  0  0  0  0  0  0  0  0  0  0
   44.0000   35.9180   43.7600 C   0  0  0  0  0  0  0  0  0  0  0  0
   44.0670   34.8140   42.9320 C   0  0  0  0  0  0  0  0  0  0  0  0
   44.8340   33.7460   43.2520 N   0  0  0  0  0  0  0  0  0  0  0  0
   45.5640   33.7550   44.4230 C   0  0  0  0  0  0  0  0  0  0  0  0
   45.5190   34.8190   45.2500 N   0  0  0  0  0  0  0  0  0  0  0  0
   46.3860   32.5960   44.7520 C   0  0  0  0  0  0  0  0  0  0  0  0
   47.2180   31.8710   43.9090 C   0  0  0  0  0  0  0  0  0  0  0  0
   47.8090   30.8610   44.6030 N   0  0  0  0  0  0  0  0  0  0  0  0
   47.3310   30.9740   45.8750 C   0  0  0  0  0  0  0  0  0  0  0  0
   46.4750   32.0150   45.9670 N   0  0  0  0  0  0  0  0  0  0  0  0
   47.7450   30.0630   46.8860 N   0  0  0  0  0  0  0  0  0  0  0  0
   48.3910   28.8150   46.5210 C   0  0  0  0  0  0  0  0  0  0  0  0
   48.7890   28.1460   47.8380 C   0  0  0  0  0  0  0  0  0  0  0  0
   49.6420   29.1190   48.5840 C   0  0  0  0  0  0  0  0  0  0  0  0
   48.7630   30.2150   49.1350 C   0  0  0  0  0  0  0  0  0  0  0  0
   47.5410   30.3360   48.2850 C   0  0  0  0  0  0  0  0  0  0  0  0
   45.7740   32.4390   47.1530 C   0  0  0  0  0  0  0  0  0  0  0  0
   45.0170   31.3990   47.7430 F   0  0  0  0  0  0  0  0  0  0  0  0
   44.8840   33.4880   46.8890 F   0  0  0  0  0  0  0  0  0  0  0  0
   46.6520   32.8450   48.1400 F   0  0  0  0  0  0  0  0  0  0  0  0
   43.2900   34.8630   41.7370 N   0  0  0  0  0  0  0  0  0  0  0  0
   41.9800   35.1400   41.6330 C   0  0  0  0  0  0  0  0  0  0  0  0
   41.3760   35.1470   40.4020 C   0  0  0  0  0  0  0  0  0  0  0  0
   42.0860   34.8740   39.2460 C   0  0  0  0  0  0  0  0  0  0  0  0
   41.5340   34.8800   38.1130 O   0  0  0  0  0  0  0  0  0  0  0  0
   43.3860   34.6050   39.3940 N   0  0  0  0  0  0  0  0  0  0  0  0
   43.9710   34.6000   40.6170 C   0  0  0  0  0  0  0  0  0  0  0  0
   45.2220   34.3240   40.5890 O   0  0  0  0  0  0  0  0  0  0  0  0
   39.9410   35.4490   40.2890 C   0  0  0  0  0  0  0  0  0  0  0  0
   44.7379   36.7547   45.6407 H   0  0  0  0  0  0  0  0  0  0  0  0
   43.3757   36.7858   43.5009 H   0  0  0  0  0  0  0  0  0  0  0  0
   47.3755   32.0816   42.8409 H   0  0  0  0  0  0  0  0  0  0  0  0
   47.6945   28.1733   45.9614 H   0  0  0  0  0  0  0  0  0  0  0  0
   49.2652   28.9871   45.8759 H   0  0  0  0  0  0  0  0  0  0  0  0
   47.8907   27.9041   48.4250 H   0  0  0  0  0  0  0  0  0  0  0  0
   49.3344   27.2090   47.6522 H   0  0  0  0  0  0  0  0  0  0  0  0
   50.1530   28.6042   49.4110 H   0  0  0  0  0  0  0  0  0  0  0  0
   50.3959   29.5492   47.9084 H   0  0  0  0  0  0  0  0  0  0  0  0
   48.4711   29.9692   50.1667 H   0  0  0  0  0  0  0  0  0  0  0  0
   49.3127   31.1678   49.1310 H   0  0  0  0  0  0  0  0  0  0  0  0
   47.1590   31.3631   48.3804 H   0  0  0  0  0  0  0  0  0  0  0  0
   46.8364   29.5733   48.6481 H   0  0  0  0  0  0  0  0  0  0  0  0
   41.3914   35.3613   42.5355 H   0  0  0  0  0  0  0  0  0  0  0  0
   43.9559   34.3970   38.5616 H   0  0  0  0  0  0  0  0  0  0  0  0
   39.5053   35.5407   41.2949 H   0  0  0  0  0  0  0  0  0  0  0  0
   39.8072   36.3950   39.7438 H   0  0  0  0  0  0  0  0  0  0  0  0
   39.4373   34.6372   39.7438 H   0  0  0  0  0  0  0  0  0  0  0  0
  1  6  2  0
  2  1  1  0
  3  4  1  0
  3  2  2  0
  4  5  2  0
  5  7  1  0
  5  6  1  0
  7 11  1  0
  8  9  1  0
  8  7  2  0
  9 10  2  0
 10 11  1  0
 10 12  1  0
 11 18  1  0
 12 17  1  0
 13 12  1  0
 13 14  1  0
 14 15  1  0
 15 16  1  0
 17 16  1  0
 18 19  1  0
 18 21  1  0
 20 18  1  0
 22  3  1  0
 23 22  1  0
 24 23  2  0
 25 27  1  0
 25 24  1  0
 26 25  2  0
 27 28  1  0
 28 22  1  0
 29 28  2  0
 30 24  1  0
  1 31  1  0
  2 32  1  0
  8 33  1  0
 13 34  1  0
 13 35  1  0
 14 36  1  0
 14 37  1  0
 15 38  1  0
 15 39  1  0
 16 40  1  0
 16 41  1  0
 17 42  1  0
 17 43  1  0
 23 44  1  0
 27 45  1  0
 30 46  1  0
 30 47  1  0
 30 48  1  0
M  ISO  8  31  14  32  14  33  14  34  13  35  13  36  13  37  13  38  13
M  ISO  8  39  13  40  13  41  13  42  13  43  13  44  14  45   9  46   8
M  ISO  2  47   8  48   8
M  END
>  <minimizedAffinity>  (1) 
-6.90215969

>  <minimizedRMSD>  (1) 
0.532594204

$$$$
