
     RDKit          3D

 35 39  0  0  0  0  0  0  0  0999 V2000
   44.4660   36.0830   44.5240 C   0  0  0  0  0  0  0  0  0  0  0  0
   45.1820   36.0120   43.3260 C   0  0  0  0  0  0  0  0  0  0  0  0
   46.0900   34.9520   43.1560 C   0  0  0  0  0  0  0  0  0  0  0  0
   46.2160   34.0560   44.1730 N   0  0  0  0  0  0  0  0  0  0  0  0
   45.5080   34.1590   45.3120 C   0  0  0  0  0  0  0  0  0  0  0  0
   44.6320   35.1610   45.5050 N   0  0  0  0  0  0  0  0  0  0  0  0
   45.7490   33.1290   46.3080 N   0  0  0  0  0  0  0  0  0  0  0  0
   45.2830   33.0300   47.5630 C   0  0  0  0  0  0  0  0  0  0  0  0
   45.7770   31.9000   48.1110 N   0  0  0  0  0  0  0  0  0  0  0  0
   46.5620   31.2710   47.2050 C   0  0  0  0  0  0  0  0  0  0  0  0
   47.3020   30.0800   47.2590 C   0  0  0  0  0  0  0  0  0  0  0  0
   47.9770   29.7560   46.1470 N   0  0  0  0  0  0  0  0  0  0  0  0
   47.9420   30.5280   45.0540 C   0  0  0  0  0  0  0  0  0  0  0  0
   47.2340   31.6900   44.9690 N   0  0  0  0  0  0  0  0  0  0  0  0
   46.5290   32.0620   46.0770 C   0  0  0  0  0  0  0  0  0  0  0  0
   48.6980   30.0840   43.9330 N   0  0  0  0  0  0  0  0  0  0  0  0
   49.1030   28.8060   43.7580 C   0  0  0  0  0  0  0  0  0  0  0  0
   49.7900   28.7870   42.5820 N   0  0  0  0  0  0  0  0  0  0  0  0
   49.8240   30.0020   42.0270 C   0  0  0  0  0  0  0  0  0  0  0  0
   50.3740   30.4870   40.8830 C   0  0  0  0  0  0  0  0  0  0  0  0
   51.0050   29.6940   40.1180 O   0  0  0  0  0  0  0  0  0  0  0  0
   50.2360   31.7930   40.5850 N   0  0  0  0  0  0  0  0  0  0  0  0
   49.5570   32.6130   41.4200 C   0  0  0  0  0  0  0  0  0  0  0  0
   49.4780   33.9710   41.0020 N   0  0  0  0  0  0  0  0  0  0  0  0
   49.0020   32.1370   42.5710 N   0  0  0  0  0  0  0  0  0  0  0  0
   49.1280   30.8210   42.8920 C   0  0  0  0  0  0  0  0  0  0  0  0
   43.7513   36.9055   44.6749 H   0  0  0  0  0  0  0  0  0  0  0  0
   45.0391   36.7652   42.5372 H   0  0  0  0  0  0  0  0  0  0  0  0
   46.6787   34.8502   42.2324 H   0  0  0  0  0  0  0  0  0  0  0  0
   44.6131   33.7472   48.0598 H   0  0  0  0  0  0  0  0  0  0  0  0
   47.3268   29.4497   48.1602 H   0  0  0  0  0  0  0  0  0  0  0  0
   48.9158   27.9546   44.4289 H   0  0  0  0  0  0  0  0  0  0  0  0
   50.6484   32.1687   39.7192 H   0  0  0  0  0  0  0  0  0  0  0  0
   48.9781   34.6601   41.5818 H   0  0  0  0  0  0  0  0  0  0  0  0
   49.9207   34.2648   40.1196 H   0  0  0  0  0  0  0  0  0  0  0  0
  1  6  2  0
  2  1  1  0
  3  2  2  0
  3  4  1  0
  4  5  2  0
  5  6  1  0
  5  7  1  0
  7  8  1  0
  8  9  2  0
 10 11  2  0
 10  9  1  0
 12 11  1  0
 13 12  2  0
 14 13  1  0
 14 15  2  0
 15  7  1  0
 15 10  1  0
 16 13  1  0
 17 16  1  0
 18 17  2  0
 19 18  1  0
 19 26  2  0
 20 19  1  0
 21 20  2  0
 22 20  1  0
 22 23  1  0
 23 25  2  0
 24 23  1  0
 25 26  1  0
 26 16  1  0
  1 27  1  0
  2 28  1  0
  3 29  1  0
  8 30  1  0
 11 31  1  0
 17 32  1  0
 22 33  1  0
 24 34  1  0
 24 35  1  0
M  ISO  7  27  14  28  14  29  14  30  14  31  14  32  14  33   9
M  END
>  <minimizedAffinity>  (1) 
-6.41458082

>  <minimizedRMSD>  (1) 
0.469297111

$$$$
