
     RDKit          3D

 32 35  0  0  0  0  0  0  0  0999 V2000
   44.5360   35.9900   44.4520 C   0  0  0  0  0  0  0  0  0  0  0  0
   45.3330   35.8500   43.3000 C   0  0  0  0  0  0  0  0  0  0  0  0
   46.2270   34.7880   43.2630 C   0  0  0  0  0  0  0  0  0  0  0  0
   46.2990   33.9360   44.3290 N   0  0  0  0  0  0  0  0  0  0  0  0
   45.5190   34.1030   45.4160 C   0  0  0  0  0  0  0  0  0  0  0  0
   44.6500   35.1200   45.4720 N   0  0  0  0  0  0  0  0  0  0  0  0
   45.6920   33.1380   46.4670 N   0  0  0  0  0  0  0  0  0  0  0  0
   45.1710   33.1490   47.7240 C   0  0  0  0  0  0  0  0  0  0  0  0
   45.6090   32.0340   48.3560 N   0  0  0  0  0  0  0  0  0  0  0  0
   46.3940   31.3200   47.5280 C   0  0  0  0  0  0  0  0  0  0  0  0
   47.0810   30.1130   47.6900 C   0  0  0  0  0  0  0  0  0  0  0  0
   47.7860   29.6900   46.6120 N   0  0  0  0  0  0  0  0  0  0  0  0
   47.8120   30.3920   45.4770 C   0  0  0  0  0  0  0  0  0  0  0  0
   47.1570   31.5670   45.2860 N   0  0  0  0  0  0  0  0  0  0  0  0
   46.4400   32.0240   46.3400 C   0  0  0  0  0  0  0  0  0  0  0  0
   48.6180   29.7500   44.4860 N   0  0  0  0  0  0  0  0  0  0  0  0
   49.1010   28.5050   44.7230 C   0  0  0  0  0  0  0  0  0  0  0  0
   49.8940   27.8210   43.7970 C   0  0  0  0  0  0  0  0  0  0  0  0
   50.1830   28.4670   42.5990 C   0  0  0  0  0  0  0  0  0  0  0  0
   50.9930   27.8280   41.5980 N   0  0  0  0  0  0  0  0  0  0  0  0
   49.6920   29.7170   42.3750 N   0  0  0  0  0  0  0  0  0  0  0  0
   48.9250   30.3330   43.3130 C   0  0  0  0  0  0  0  0  0  0  0  0
   48.4980   31.4880   43.0520 O   0  0  0  0  0  0  0  0  0  0  0  0
   43.8142   36.8174   44.5188 H   0  0  0  0  0  0  0  0  0  0  0  0
   45.2506   36.5557   42.4603 H   0  0  0  0  0  0  0  0  0  0  0  0
   46.8707   34.6341   42.3844 H   0  0  0  0  0  0  0  0  0  0  0  0
   44.5141   33.9222   48.1492 H   0  0  0  0  0  0  0  0  0  0  0  0
   47.0514   29.5438   48.6308 H   0  0  0  0  0  0  0  0  0  0  0  0
   48.8600   28.0158   45.6783 H   0  0  0  0  0  0  0  0  0  0  0  0
   50.2749   26.8107   44.0074 H   0  0  0  0  0  0  0  0  0  0  0  0
   51.2004   28.3158   40.7149 H   0  0  0  0  0  0  0  0  0  0  0  0
   51.3659   26.8823   41.7639 H   0  0  0  0  0  0  0  0  0  0  0  0
  1  6  2  0
  2  1  1  0
  3  2  2  0
  3  4  1  0
  4  5  2  0
  5  6  1  0
  5  7  1  0
  7  8  1  0
  8  9  2  0
 10 11  2  0
 10  9  1  0
 12 11  1  0
 13 12  2  0
 14 13  1  0
 14 15  2  0
 15  7  1  0
 15 10  1  0
 16 17  1  0
 16 13  1  0
 18 17  2  0
 19 18  1  0
 20 19  1  0
 21 19  2  0
 21 22  1  0
 22 16  1  0
 23 22  2  0
  1 24  1  0
  2 25  1  0
  3 26  1  0
  8 27  1  0
 11 28  1  0
 17 29  1  0
 18 30  1  0
 20 31  1  0
 20 32  1  0
M  ISO  7  24  14  25  14  26  14  27  14  28  14  29  14  30  14
M  END
>  <minimizedAffinity>  (1) 
-5.45016384

>  <minimizedRMSD>  (1) 
0.11700163

$$$$
