
     RDKit          3D

 35 39  0  0  0  0  0  0  0  0999 V2000
   44.4560   36.0130   44.7430 C   0  0  0  0  0  0  0  0  0  0  0  0
   45.0530   36.1160   43.4750 C   0  0  0  0  0  0  0  0  0  0  0  0
   45.9750   35.1310   43.1030 C   0  0  0  0  0  0  0  0  0  0  0  0
   46.2510   34.1250   43.9770 N   0  0  0  0  0  0  0  0  0  0  0  0
   45.6470   34.0700   45.1910 C   0  0  0  0  0  0  0  0  0  0  0  0
   44.7540   34.9970   45.5900 N   0  0  0  0  0  0  0  0  0  0  0  0
   46.0210   32.9560   46.0310 N   0  0  0  0  0  0  0  0  0  0  0  0
   45.7090   32.6920   47.3140 C   0  0  0  0  0  0  0  0  0  0  0  0
   46.2970   31.5190   47.6700 N   0  0  0  0  0  0  0  0  0  0  0  0
   46.9840   31.0340   46.6160 C   0  0  0  0  0  0  0  0  0  0  0  0
   47.7490   29.8910   46.4430 C   0  0  0  0  0  0  0  0  0  0  0  0
   48.2970   29.7210   45.2440 N   0  0  0  0  0  0  0  0  0  0  0  0
   48.1270   30.5940   44.2520 C   0  0  0  0  0  0  0  0  0  0  0  0
   47.3810   31.7130   44.4140 N   0  0  0  0  0  0  0  0  0  0  0  0
   46.8020   31.9390   45.6080 C   0  0  0  0  0  0  0  0  0  0  0  0
   48.6410   30.5970   42.8540 C   0  0  0  0  0  0  0  0  0  0  0  0
   47.9160   30.8500   41.7550 N   0  0  0  0  0  0  0  0  0  0  0  0
   48.4140   30.8410   40.5260 C   0  0  0  0  0  0  0  0  0  0  0  0
   49.6930   30.5800   40.2550 N   0  0  0  0  0  0  0  0  0  0  0  0
   50.5050   30.3130   41.2980 C   0  0  0  0  0  0  0  0  0  0  0  0
   51.8230   30.0440   41.0220 C   0  0  0  0  0  0  0  0  0  0  0  0
   52.6960   29.7650   42.0460 C   0  0  0  0  0  0  0  0  0  0  0  0
   52.2070   29.7640   43.3590 C   0  0  0  0  0  0  0  0  0  0  0  0
   50.8780   30.0430   43.5400 C   0  0  0  0  0  0  0  0  0  0  0  0
   49.9580   30.3290   42.5610 C   0  0  0  0  0  0  0  0  0  0  0  0
   43.7284   36.7761   45.0564 H   0  0  0  0  0  0  0  0  0  0  0  0
   44.8035   36.9448   42.7962 H   0  0  0  0  0  0  0  0  0  0  0  0
   46.4683   35.1693   42.1206 H   0  0  0  0  0  0  0  0  0  0  0  0
   45.0832   33.3202   47.9650 H   0  0  0  0  0  0  0  0  0  0  0  0
   47.8948   29.1633   47.2549 H   0  0  0  0  0  0  0  0  0  0  0  0
   47.7371   31.0601   39.6871 H   0  0  0  0  0  0  0  0  0  0  0  0
   52.1799   30.0518   39.9815 H   0  0  0  0  0  0  0  0  0  0  0  0
   53.7543   29.5475   41.8396 H   0  0  0  0  0  0  0  0  0  0  0  0
   52.8658   29.5472   44.2128 H   0  0  0  0  0  0  0  0  0  0  0  0
   50.5096   30.0374   44.5765 H   0  0  0  0  0  0  0  0  0  0  0  0
  1  6  2  0
  2  1  1  0
  3  2  2  0
  3  4  1  0
  4  5  2  0
  5  6  1  0
  5  7  1  0
  7  8  1  0
  8  9  2  0
 10  9  1  0
 11 10  2  0
 12 11  1  0
 13 14  1  0
 13 12  2  0
 14 15  2  0
 15  7  1  0
 15 10  1  0
 16 13  1  0
 17 16  2  0
 18 17  1  0
 19 18  2  0
 19 20  1  0
 20 25  2  0
 21 20  1  0
 21 22  2  0
 22 23  1  0
 23 24  2  0
 25 16  1  0
 25 24  1  0
  1 26  1  0
  2 27  1  0
  3 28  1  0
  8 29  1  0
 11 30  1  0
 18 31  1  0
 21 32  1  0
 22 33  1  0
 23 34  1  0
 24 35  1  0
M  ISO  8  26  14  27  14  28  14  29  14  30  14  31  14  32  14  33  14
M  ISO  2  34  14  35  14
M  END
>  <minimizedAffinity>  (1) 
-5.47147226

>  <minimizedRMSD>  (1) 
1.26354468

$$$$
