
     RDKit          3D

 31 34  0  0  0  0  0  0  0  0999 V2000
   44.5700   35.9800   44.4790 C   0  0  0  0  0  0  0  0  0  0  0  0
   45.3600   35.8000   43.3420 C   0  0  0  0  0  0  0  0  0  0  0  0
   46.2300   34.7170   43.3200 C   0  0  0  0  0  0  0  0  0  0  0  0
   46.2710   33.8850   44.4020 N   0  0  0  0  0  0  0  0  0  0  0  0
   45.4840   34.0950   45.4910 C   0  0  0  0  0  0  0  0  0  0  0  0
   44.6390   35.1340   45.5310 N   0  0  0  0  0  0  0  0  0  0  0  0
   45.6190   33.1510   46.5610 N   0  0  0  0  0  0  0  0  0  0  0  0
   45.0750   33.1520   47.7910 C   0  0  0  0  0  0  0  0  0  0  0  0
   45.4890   32.0560   48.4560 N   0  0  0  0  0  0  0  0  0  0  0  0
   46.3090   31.3380   47.6530 C   0  0  0  0  0  0  0  0  0  0  0  0
   46.9920   30.1450   47.8500 C   0  0  0  0  0  0  0  0  0  0  0  0
   47.7310   29.7060   46.8210 N   0  0  0  0  0  0  0  0  0  0  0  0
   47.7960   30.3950   45.6690 C   0  0  0  0  0  0  0  0  0  0  0  0
   47.1380   31.5600   45.4530 N   0  0  0  0  0  0  0  0  0  0  0  0
   46.3860   32.0310   46.4700 C   0  0  0  0  0  0  0  0  0  0  0  0
   48.6240   29.8520   44.5890 C   0  0  0  0  0  0  0  0  0  0  0  0
   49.4430   28.7560   44.8050 C   0  0  0  0  0  0  0  0  0  0  0  0
   50.2180   28.2660   43.7540 C   0  0  0  0  0  0  0  0  0  0  0  0
   50.2040   28.8360   42.4860 C   0  0  0  0  0  0  0  0  0  0  0  0
   49.3620   29.9200   42.3680 C   0  0  0  0  0  0  0  0  0  0  0  0
   48.5600   30.4770   43.3410 C   0  0  0  0  0  0  0  0  0  0  0  0
   43.8744   36.8311   44.5197 H   0  0  0  0  0  0  0  0  0  0  0  0
   45.2957   36.4936   42.4907 H   0  0  0  0  0  0  0  0  0  0  0  0
   46.8738   34.5332   42.4472 H   0  0  0  0  0  0  0  0  0  0  0  0
   44.4004   33.9238   48.1899 H   0  0  0  0  0  0  0  0  0  0  0  0
   46.9301   29.5907   48.7981 H   0  0  0  0  0  0  0  0  0  0  0  0
   49.4818   28.2773   45.7946 H   0  0  0  0  0  0  0  0  0  0  0  0
   50.8651   27.3952   43.9353 H   0  0  0  0  0  0  0  0  0  0  0  0
   50.8111   28.4554   41.6514 H   0  0  0  0  0  0  0  0  0  0  0  0
   49.3253   30.3986   41.3783 H   0  0  0  0  0  0  0  0  0  0  0  0
   47.9173   31.3489   43.1491 H   0  0  0  0  0  0  0  0  0  0  0  0
  1  6  2  0
  2  1  1  0
  3  2  2  0
  3  4  1  0
  4  5  2  0
  5  6  1  0
  5  7  1  0
  7  8  1  0
  8  9  2  0
 10 11  2  0
 10  9  1  0
 12 11  1  0
 13 12  2  0
 14 13  1  0
 14 15  2  0
 15  7  1  0
 15 10  1  0
 16 17  2  0
 16 13  1  0
 18 17  1  0
 19 18  2  0
 20 19  1  0
 20 21  2  0
 21 16  1  0
  1 22  1  0
  2 23  1  0
  3 24  1  0
  8 25  1  0
 11 26  1  0
 17 27  1  0
 18 28  1  0
 19 29  1  0
 20 30  1  0
 21 31  1  0
M  ISO  8  22  14  23  14  24  14  25  14  26  14  27  14  28  14  29  14
M  ISO  2  30  14  31  14
M  END
>  <minimizedAffinity>  (1) 
-5.14720726

>  <minimizedRMSD>  (1) 
0.244902343

$$$$
