
     RDKit          3D

 34 37  0  0  0  0  0  0  0  0999 V2000
   44.5510   35.9800   44.4820 C   0  0  0  0  0  0  0  0  0  0  0  0
   45.3500   35.8150   43.3480 C   0  0  0  0  0  0  0  0  0  0  0  0
   46.2320   34.7400   43.3260 C   0  0  0  0  0  0  0  0  0  0  0  0
   46.2800   33.9020   44.4020 N   0  0  0  0  0  0  0  0  0  0  0  0
   45.4840   34.1030   45.4800 C   0  0  0  0  0  0  0  0  0  0  0  0
   44.6180   35.1330   45.5370 N   0  0  0  0  0  0  0  0  0  0  0  0
   45.6250   33.1560   46.5500 N   0  0  0  0  0  0  0  0  0  0  0  0
   45.0690   33.1590   47.7860 C   0  0  0  0  0  0  0  0  0  0  0  0
   45.4900   32.0660   48.4400 N   0  0  0  0  0  0  0  0  0  0  0  0
   46.3130   31.3500   47.6470 C   0  0  0  0  0  0  0  0  0  0  0  0
   47.0040   30.1570   47.8460 C   0  0  0  0  0  0  0  0  0  0  0  0
   47.7440   29.7240   46.8230 N   0  0  0  0  0  0  0  0  0  0  0  0
   47.8170   30.4110   45.6590 C   0  0  0  0  0  0  0  0  0  0  0  0
   47.1530   31.5730   45.4450 N   0  0  0  0  0  0  0  0  0  0  0  0
   46.3950   32.0370   46.4610 C   0  0  0  0  0  0  0  0  0  0  0  0
   50.2880   28.8450   42.5370 C   0  0  0  0  0  0  0  0  0  0  0  0
   50.5150   28.5530   43.8460 C   0  0  0  0  0  0  0  0  0  0  0  0
   49.7170   29.0600   44.8480 C   0  0  0  0  0  0  0  0  0  0  0  0
   48.6380   29.8950   44.5790 C   0  0  0  0  0  0  0  0  0  0  0  0
   48.4050   30.1920   43.2450 C   0  0  0  0  0  0  0  0  0  0  0  0
   49.2230   29.6710   42.2390 C   0  0  0  0  0  0  0  0  0  0  0  0
   51.2610   28.2360   41.2240 S   0  0  0  0  0  0  0  0  0  0  0  0
   52.6560   28.0570   41.7280 O   0  0  0  0  0  0  0  0  0  0  0  0
   51.2490   29.1950   40.0760 O   0  0  0  0  0  0  0  0  0  0  0  0
   43.8459   36.8235   44.5193 H   0  0  0  0  0  0  0  0  0  0  0  0
   45.2837   36.5126   42.5001 H   0  0  0  0  0  0  0  0  0  0  0  0
   46.8810   34.5678   42.4547 H   0  0  0  0  0  0  0  0  0  0  0  0
   44.3890   33.9263   48.1846 H   0  0  0  0  0  0  0  0  0  0  0  0
   46.9432   29.6023   48.7940 H   0  0  0  0  0  0  0  0  0  0  0  0
   51.3564   27.8959   44.1110 H   0  0  0  0  0  0  0  0  0  0  0  0
   49.9401   28.7964   45.8924 H   0  0  0  0  0  0  0  0  0  0  0  0
   47.5639   30.8473   42.9745 H   0  0  0  0  0  0  0  0  0  0  0  0
   49.0141   29.9241   41.1891 H   0  0  0  0  0  0  0  0  0  0  0  0
   50.7564   27.0418   40.7812 H   0  0  0  0  0  0  0  0  0  0  0  0
  1  6  2  0
  2  1  1  0
  3  2  2  0
  3  4  1  0
  4  5  2  0
  5  6  1  0
  5  7  1  0
  7  8  1  0
  8  9  2  0
 10 11  2  0
 10  9  1  0
 12 11  1  0
 13 12  2  0
 14 13  1  0
 14 15  2  0
 15  7  1  0
 15 10  1  0
 16 17  2  0
 17 18  1  0
 19 18  2  0
 19 13  1  0
 20 19  1  0
 21 16  1  0
 21 20  2  0
 22 23  2  0
 22 16  1  0
 24 22  2  0
  1 25  1  0
  2 26  1  0
  3 27  1  0
  8 28  1  0
 11 29  1  0
 17 30  1  0
 18 31  1  0
 20 32  1  0
 21 33  1  0
 22 34  1  0
M  ISO  8  25  14  26  14  27  14  28  14  29  14  30  14  31  14  32  14
M  ISO  2  33  14  34  11
M  END
>  <minimizedAffinity>  (1) 
-5.02409935

>  <minimizedRMSD>  (1) 
0.303331524

$$$$
