
     RDKit          3D

 30 32  0  0  0  0  0  0  0  0999 V2000
   44.5490   36.0080   44.5160 C   0  0  0  0  0  0  0  0  0  0  0  0
   45.2990   35.8660   43.3360 C   0  0  0  0  0  0  0  0  0  0  0  0
   46.1690   34.7870   43.2350 C   0  0  0  0  0  0  0  0  0  0  0  0
   46.2500   33.9250   44.2870 N   0  0  0  0  0  0  0  0  0  0  0  0
   45.5170   34.0950   45.4010 C   0  0  0  0  0  0  0  0  0  0  0  0
   44.6610   35.1330   45.5310 N   0  0  0  0  0  0  0  0  0  0  0  0
   45.6940   33.1110   46.4450 N   0  0  0  0  0  0  0  0  0  0  0  0
   45.2210   33.0770   47.7000 C   0  0  0  0  0  0  0  0  0  0  0  0
   45.6550   31.9570   48.2980 N   0  0  0  0  0  0  0  0  0  0  0  0
   46.4140   31.2520   47.4380 C   0  0  0  0  0  0  0  0  0  0  0  0
   47.0900   30.0410   47.5570 C   0  0  0  0  0  0  0  0  0  0  0  0
   47.7620   29.6340   46.4670 N   0  0  0  0  0  0  0  0  0  0  0  0
   47.7680   30.3620   45.3470 C   0  0  0  0  0  0  0  0  0  0  0  0
   47.1210   31.5430   45.1980 N   0  0  0  0  0  0  0  0  0  0  0  0
   46.4260   31.9940   46.2790 C   0  0  0  0  0  0  0  0  0  0  0  0
   48.5230   29.8920   44.1350 C   0  0  0  0  0  0  0  0  0  0  0  0
   48.7390   30.9980   43.1310 C   0  0  0  0  0  0  0  0  0  0  0  0
   49.8620   29.2940   44.5230 C   0  0  0  0  0  0  0  0  0  0  0  0
   43.8538   36.8551   44.6116 H   0  0  0  0  0  0  0  0  0  0  0  0
   45.2000   36.5900   42.5138 H   0  0  0  0  0  0  0  0  0  0  0  0
   46.7757   34.6331   42.3304 H   0  0  0  0  0  0  0  0  0  0  0  0
   44.5815   33.8427   48.1633 H   0  0  0  0  0  0  0  0  0  0  0  0
   47.0750   29.4531   48.4866 H   0  0  0  0  0  0  0  0  0  0  0  0
   47.9004   29.1176   43.6632 H   0  0  0  0  0  0  0  0  0  0  0  0
   48.9237   31.9438   43.6614 H   0  0  0  0  0  0  0  0  0  0  0  0
   49.6068   30.7560   42.4999 H   0  0  0  0  0  0  0  0  0  0  0  0
   47.8439   31.1003   42.4999 H   0  0  0  0  0  0  0  0  0  0  0  0
   49.9434   29.2576   45.6194 H   0  0  0  0  0  0  0  0  0  0  0  0
   49.9405   28.2753   44.1155 H   0  0  0  0  0  0  0  0  0  0  0  0
   50.6730   29.9154   44.1155 H   0  0  0  0  0  0  0  0  0  0  0  0
  1  6  2  0
  2  1  1  0
  3  2  2  0
  3  4  1  0
  4  5  2  0
  5  6  1  0
  5  7  1  0
  7  8  1  0
  8  9  2  0
 10 11  2  0
 10  9  1  0
 12 11  1  0
 13 12  2  0
 14 13  1  0
 14 15  2  0
 15  7  1  0
 15 10  1  0
 16 18  1  0
 16 13  1  0
 17 16  1  0
  1 19  1  0
  2 20  1  0
  3 21  1  0
  8 22  1  0
 11 23  1  0
 16 24  1  0
 17 25  1  0
 17 26  1  0
 17 27  1  0
 18 28  1  0
 18 29  1  0
 18 30  1  0
M  ISO  8  19  14  20  14  21  14  22  14  23  14  24   8  25   8  26   8
M  ISO  4  27   8  28   8  29   8  30   8
M  END
>  <minimizedAffinity>  (1) 
-4.97579861

>  <minimizedRMSD>  (1) 
0.141038343

$$$$
