
     RDKit          3D

 22 24  0  0  0  0  0  0  0  0999 V2000
   44.5500   35.9720   44.4500 C   0  0  0  0  0  0  0  0  0  0  0  0
   45.3430   35.8360   43.3090 C   0  0  0  0  0  0  0  0  0  0  0  0
   46.2570   34.7660   43.2570 C   0  0  0  0  0  0  0  0  0  0  0  0
   46.3280   33.9180   44.3120 N   0  0  0  0  0  0  0  0  0  0  0  0
   45.5310   34.0920   45.4060 C   0  0  0  0  0  0  0  0  0  0  0  0
   44.6440   35.1130   45.4810 N   0  0  0  0  0  0  0  0  0  0  0  0
   45.7030   33.1260   46.4570 N   0  0  0  0  0  0  0  0  0  0  0  0
   45.2280   33.1380   47.7190 C   0  0  0  0  0  0  0  0  0  0  0  0
   45.6430   32.0250   48.3480 N   0  0  0  0  0  0  0  0  0  0  0  0
   46.3930   31.2850   47.4890 C   0  0  0  0  0  0  0  0  0  0  0  0
   47.0440   30.0690   47.6450 C   0  0  0  0  0  0  0  0  0  0  0  0
   47.7060   29.6150   46.5730 N   0  0  0  0  0  0  0  0  0  0  0  0
   47.7210   30.3190   45.4290 C   0  0  0  0  0  0  0  0  0  0  0  0
   47.0980   31.5100   45.2390 N   0  0  0  0  0  0  0  0  0  0  0  0
   46.4170   31.9960   46.3110 C   0  0  0  0  0  0  0  0  0  0  0  0
   48.5990   29.7540   43.9530 S   0  0  0  0  0  0  0  0  0  0  0  0
   43.8305   36.8021   44.5073 H   0  0  0  0  0  0  0  0  0  0  0  0
   45.2562   36.5457   42.4730 H   0  0  0  0  0  0  0  0  0  0  0  0
   46.9010   34.6212   42.3771 H   0  0  0  0  0  0  0  0  0  0  0  0
   44.6037   33.9285   48.1609 H   0  0  0  0  0  0  0  0  0  0  0  0
   47.0177   29.5114   48.5928 H   0  0  0  0  0  0  0  0  0  0  0  0
   49.7075   29.0407   44.3261 H   0  0  0  0  0  0  0  0  0  0  0  0
  1  6  2  0
  2  1  1  0
  3  2  2  0
  3  4  1  0
  4  5  2  0
  5  6  1  0
  5  7  1  0
  7  8  1  0
  8  9  2  0
 10 11  2  0
 10  9  1  0
 12 11  1  0
 13 12  2  0
 14 13  1  0
 14 15  2  0
 15  7  1  0
 15 10  1  0
 16 13  1  0
  1 17  1  0
  2 18  1  0
  3 19  1  0
  8 20  1  0
 11 21  1  0
 16 22  1  0
M  ISO  6  17  14  18  14  19  14  20  14  21  14  22  11
M  END
>  <minimizedAffinity>  (1) 
-4.86442709

>  <minimizedRMSD>  (1) 
0.0359243676

$$$$
