
     RDKit          3D

 24 26  0  0  0  0  0  0  0  0999 V2000
   44.5890   35.9750   44.4750 C   0  0  0  0  0  0  0  0  0  0  0  0
   45.3730   35.7950   43.3290 C   0  0  0  0  0  0  0  0  0  0  0  0
   46.2350   34.7050   43.3040 C   0  0  0  0  0  0  0  0  0  0  0  0
   46.2760   33.8740   44.3850 N   0  0  0  0  0  0  0  0  0  0  0  0
   45.4930   34.0900   45.4800 C   0  0  0  0  0  0  0  0  0  0  0  0
   44.6460   35.1360   45.5370 N   0  0  0  0  0  0  0  0  0  0  0  0
   45.6330   33.1420   46.5470 N   0  0  0  0  0  0  0  0  0  0  0  0
   45.0980   33.1580   47.7840 C   0  0  0  0  0  0  0  0  0  0  0  0
   45.5090   32.0500   48.4490 N   0  0  0  0  0  0  0  0  0  0  0  0
   46.3140   31.3160   47.6330 C   0  0  0  0  0  0  0  0  0  0  0  0
   46.9800   30.1140   47.8330 C   0  0  0  0  0  0  0  0  0  0  0  0
   47.7010   29.6720   46.7870 N   0  0  0  0  0  0  0  0  0  0  0  0
   47.7520   30.3630   45.6470 C   0  0  0  0  0  0  0  0  0  0  0  0
   47.1110   31.5370   45.4290 N   0  0  0  0  0  0  0  0  0  0  0  0
   46.3740   32.0210   46.4530 C   0  0  0  0  0  0  0  0  0  0  0  0
   48.5410   29.8650   44.5240 C   0  0  0  0  0  0  0  0  0  0  0  0
   48.9390   28.6780   44.4000 O   0  0  0  0  0  0  0  0  0  0  0  0
   48.9450   30.6560   43.4530 O   0  0  0  0  0  0  0  0  0  0  0  0
   43.8997   36.8313   44.5145 H   0  0  0  0  0  0  0  0  0  0  0  0
   45.3091   36.4908   42.4795 H   0  0  0  0  0  0  0  0  0  0  0  0
   46.8729   34.5158   42.4280 H   0  0  0  0  0  0  0  0  0  0  0  0
   44.4377   33.9400   48.1871 H   0  0  0  0  0  0  0  0  0  0  0  0
   46.9219   29.5610   48.7821 H   0  0  0  0  0  0  0  0  0  0  0  0
   49.4796   30.2606   42.7196 H   0  0  0  0  0  0  0  0  0  0  0  0
  1  6  2  0
  2  1  1  0
  3  2  2  0
  3  4  1  0
  4  5  2  0
  5  6  1  0
  5  7  1  0
  7  8  1  0
  8  9  2  0
 10 11  2  0
 10  9  1  0
 12 11  1  0
 13 12  2  0
 14 13  1  0
 14 15  2  0
 15  7  1  0
 15 10  1  0
 16 13  1  0
 17 16  2  0
 18 16  1  0
  1 19  1  0
  2 20  1  0
  3 21  1  0
  8 22  1  0
 11 23  1  0
 18 24  1  0
M  ISO  6  19  14  20  14  21  14  22  14  23  14  24   3
M  END
>  <minimizedAffinity>  (1) 
-4.84088516

>  <minimizedRMSD>  (1) 
0.181637287

$$$$
