
     RDKit          3D

 23 25  0  0  0  0  0  0  0  0999 V2000
   44.5570   35.9950   44.4990 C   0  0  0  0  0  0  0  0  0  0  0  0
   45.3220   35.8420   43.3340 C   0  0  0  0  0  0  0  0  0  0  0  0
   46.2030   34.7590   43.2540 C   0  0  0  0  0  0  0  0  0  0  0  0
   46.2700   33.9060   44.3230 N   0  0  0  0  0  0  0  0  0  0  0  0
   45.5110   34.0960   45.4270 C   0  0  0  0  0  0  0  0  0  0  0  0
   44.6570   35.1260   45.5320 N   0  0  0  0  0  0  0  0  0  0  0  0
   45.6870   33.1180   46.4730 N   0  0  0  0  0  0  0  0  0  0  0  0
   45.2020   33.1030   47.7370 C   0  0  0  0  0  0  0  0  0  0  0  0
   45.6270   31.9900   48.3530 N   0  0  0  0  0  0  0  0  0  0  0  0
   46.3930   31.2700   47.4950 C   0  0  0  0  0  0  0  0  0  0  0  0
   47.0580   30.0590   47.6470 C   0  0  0  0  0  0  0  0  0  0  0  0
   47.7320   29.6340   46.5730 N   0  0  0  0  0  0  0  0  0  0  0  0
   47.7500   30.3430   45.4390 C   0  0  0  0  0  0  0  0  0  0  0  0
   47.1110   31.5280   45.2610 N   0  0  0  0  0  0  0  0  0  0  0  0
   46.4130   31.9970   46.3310 C   0  0  0  0  0  0  0  0  0  0  0  0
   48.4620   29.9120   44.2790 N   0  0  0  0  0  0  0  0  0  0  0  0
   43.8588   36.8416   44.5754 H   0  0  0  0  0  0  0  0  0  0  0  0
   45.2313   36.5568   42.5028 H   0  0  0  0  0  0  0  0  0  0  0  0
   46.8230   34.5973   42.3599 H   0  0  0  0  0  0  0  0  0  0  0  0
   44.5631   33.8778   48.1858 H   0  0  0  0  0  0  0  0  0  0  0  0
   47.0317   29.4887   48.5872 H   0  0  0  0  0  0  0  0  0  0  0  0
   48.4509   30.4872   43.4246 H   0  0  0  0  0  0  0  0  0  0  0  0
   48.9867   29.0259   44.2965 H   0  0  0  0  0  0  0  0  0  0  0  0
  1  6  2  0
  2  1  1  0
  3  2  2  0
  3  4  1  0
  4  5  2  0
  5  6  1  0
  5  7  1  0
  7  8  1  0
  8  9  2  0
 10 11  2  0
 10  9  1  0
 12 11  1  0
 13 12  2  0
 14 13  1  0
 14 15  2  0
 15  7  1  0
 15 10  1  0
 16 13  1  0
  1 17  1  0
  2 18  1  0
  3 19  1  0
  8 20  1  0
 11 21  1  0
 16 22  1  0
 16 23  1  0
M  ISO  5  17  14  18  14  19  14  20  14  21  14
M  END
>  <minimizedAffinity>  (1) 
-4.89835596

>  <minimizedRMSD>  (1) 
0.0135797653

$$$$
