
     RDKit          3D

 31 33  0  0  0  0  0  0  0  0999 V2000
   44.4230   35.8910   44.7120 C   0  0  0  0  0  0  0  0  0  0  0  0
   45.0230   35.9040   43.4440 C   0  0  0  0  0  0  0  0  0  0  0  0
   45.9970   34.9310   43.1560 C   0  0  0  0  0  0  0  0  0  0  0  0
   46.3130   34.0230   44.1120 N   0  0  0  0  0  0  0  0  0  0  0  0
   45.6990   34.0490   45.3370 C   0  0  0  0  0  0  0  0  0  0  0  0
   44.7670   34.9710   45.6340 N   0  0  0  0  0  0  0  0  0  0  0  0
   46.1330   33.0290   46.2580 N   0  0  0  0  0  0  0  0  0  0  0  0
   45.8960   32.9260   47.5740 C   0  0  0  0  0  0  0  0  0  0  0  0
   46.5010   31.8180   48.0100 N   0  0  0  0  0  0  0  0  0  0  0  0
   47.1270   31.2030   46.9830 C   0  0  0  0  0  0  0  0  0  0  0  0
   47.8890   30.0210   46.9300 C   0  0  0  0  0  0  0  0  0  0  0  0
   48.3620   29.7140   45.7160 N   0  0  0  0  0  0  0  0  0  0  0  0
   48.1200   30.4800   44.6440 C   0  0  0  0  0  0  0  0  0  0  0  0
   47.3890   31.6230   44.6730 N   0  0  0  0  0  0  0  0  0  0  0  0
   46.8920   31.9700   45.8810 C   0  0  0  0  0  0  0  0  0  0  0  0
   48.1060   29.2610   48.1110 N   0  0  0  0  0  0  0  0  0  0  0  0
   49.4020   29.0450   48.6010 C   0  0  0  0  0  0  0  0  0  0  0  0
   50.3710   28.8620   47.8050 N   0  0  0  0  0  0  0  0  0  0  0  0
   49.6310   29.0290   50.0130 N   0  0  0  0  0  0  0  0  0  0  0  0
   50.3260   28.8520   46.7870 H   0  0  0  0  0  0  0  0  0  0  0  0
   48.6710   30.0880   43.3070 C   0  0  0  0  0  0  0  0  0  0  0  0
   48.8620   31.2250   42.5430 F   0  0  0  0  0  0  0  0  0  0  0  0
   47.7830   29.2840   42.6130 F   0  0  0  0  0  0  0  0  0  0  0  0
   49.8970   29.5000   43.4640 F   0  0  0  0  0  0  0  0  0  0  0  0
   43.6595   36.6440   44.9573 H   0  0  0  0  0  0  0  0  0  0  0  0
   44.7388   36.6564   42.6936 H   0  0  0  0  0  0  0  0  0  0  0  0
   46.4927   34.9072   42.1743 H   0  0  0  0  0  0  0  0  0  0  0  0
   45.3089   33.6279   48.1845 H   0  0  0  0  0  0  0  0  0  0  0  0
   47.3001   28.8632   48.6141 H   0  0  0  0  0  0  0  0  0  0  0  0
   50.5807   28.8708   50.3789 H   0  0  0  0  0  0  0  0  0  0  0  0
   48.8462   29.1757   50.6637 H   0  0  0  0  0  0  0  0  0  0  0  0
  1  6  2  0
  2  1  1  0
  3  2  2  0
  3  4  1  0
  4  5  2  0
  5  6  1  0
  5  7  1  0
  7  8  1  0
  8  9  2  0
 10  9  1  0
 11 10  2  0
 11 16  1  0
 12 11  1  0
 13 14  1  0
 13 12  2  0
 14 15  2  0
 15  7  1  0
 15 10  1  0
 16 17  1  0
 17 19  1  0
 18 17  2  0
 20 18  1  0
 21 24  1  0
 21 13  1  0
 22 21  1  0
 23 21  1  0
  1 25  1  0
  2 26  1  0
  3 27  1  0
  8 28  1  0
 16 29  1  0
 19 30  1  0
 19 31  1  0
M  ISO  4  25  14  26  14  27  14  28  14
M  END
>  <minimizedAffinity>  (1) 
-5.23896646

>  <minimizedRMSD>  (1) 
1.74756169

$$$$
