
     RDKit          3D

 25 27  0  0  0  0  0  0  0  0999 V2000
   44.4850   36.0340   44.4270 C   0  0  0  0  0  0  0  0  0  0  0  0
   45.2450   35.9790   43.2670 C   0  0  0  0  0  0  0  0  0  0  0  0
   46.1910   34.9360   43.1480 C   0  0  0  0  0  0  0  0  0  0  0  0
   46.3200   34.0430   44.1580 N   0  0  0  0  0  0  0  0  0  0  0  0
   45.5400   34.1550   45.2750 C   0  0  0  0  0  0  0  0  0  0  0  0
   44.6350   35.1360   45.4100 N   0  0  0  0  0  0  0  0  0  0  0  0
   45.7670   33.1410   46.2870 N   0  0  0  0  0  0  0  0  0  0  0  0
   45.3130   33.0910   47.5570 C   0  0  0  0  0  0  0  0  0  0  0  0
   45.7870   31.9630   48.1050 N   0  0  0  0  0  0  0  0  0  0  0  0
   46.5310   31.2910   47.2200 C   0  0  0  0  0  0  0  0  0  0  0  0
   47.2360   30.0790   47.2990 C   0  0  0  0  0  0  0  0  0  0  0  0
   47.8860   29.7000   46.1940 N   0  0  0  0  0  0  0  0  0  0  0  0
   47.8570   30.4520   45.0780 C   0  0  0  0  0  0  0  0  0  0  0  0
   47.1830   31.6350   44.9660 N   0  0  0  0  0  0  0  0  0  0  0  0
   46.5190   32.0360   46.0700 C   0  0  0  0  0  0  0  0  0  0  0  0
   48.5940   30.0140   43.8440 C   0  0  0  0  0  0  0  0  0  0  0  0
   48.7500   31.0940   42.9920 F   0  0  0  0  0  0  0  0  0  0  0  0
   47.9290   29.0270   43.1730 F   0  0  0  0  0  0  0  0  0  0  0  0
   49.8790   29.6370   44.2110 F   0  0  0  0  0  0  0  0  0  0  0  0
   47.2310   29.3450   48.4740 O   0  0  0  0  0  0  0  0  0  0  0  0
   43.7404   36.8354   44.5423 H   0  0  0  0  0  0  0  0  0  0  0  0
   45.1153   36.7226   42.4668 H   0  0  0  0  0  0  0  0  0  0  0  0
   46.8149   34.8505   42.2461 H   0  0  0  0  0  0  0  0  0  0  0  0
   44.6730   33.8371   48.0507 H   0  0  0  0  0  0  0  0  0  0  0  0
   47.7290   28.4910   48.5263 H   0  0  0  0  0  0  0  0  0  0  0  0
  1  6  2  0
  2  1  1  0
  3  2  2  0
  3  4  1  0
  4  5  2  0
  5  6  1  0
  5  7  1  0
  7  8  1  0
  8  9  2  0
 10 11  2  0
 10  9  1  0
 11 20  1  0
 12 11  1  0
 13 12  2  0
 14 13  1  0
 14 15  2  0
 15  7  1  0
 15 10  1  0
 16 19  1  0
 16 13  1  0
 17 16  1  0
 18 16  1  0
  1 21  1  0
  2 22  1  0
  3 23  1  0
  8 24  1  0
 20 25  1  0
M  ISO  5  21  14  22  14  23  14  24  14  25   3
M  END
>  <minimizedAffinity>  (1) 
-5.22095299

>  <minimizedRMSD>  (1) 
0.516953945

$$$$
