
     RDKit          3D

 36 38  0  0  0  0  0  0  0  0999 V2000
   44.4580   36.0020   44.4560 C   0  0  0  0  0  0  0  0  0  0  0  0
   45.1070   36.2160   43.2460 C   0  0  0  0  0  0  0  0  0  0  0  0
   46.1270   35.3330   42.8880 C   0  0  0  0  0  0  0  0  0  0  0  0
   46.4490   34.3080   43.7190 N   0  0  0  0  0  0  0  0  0  0  0  0
   45.7720   34.1450   44.9010 C   0  0  0  0  0  0  0  0  0  0  0  0
   44.7730   34.9860   45.2820 N   0  0  0  0  0  0  0  0  0  0  0  0
   46.1920   33.0220   45.7010 N   0  0  0  0  0  0  0  0  0  0  0  0
   45.9100   32.7280   46.9850 C   0  0  0  0  0  0  0  0  0  0  0  0
   46.5290   31.5620   47.2750 N   0  0  0  0  0  0  0  0  0  0  0  0
   47.1960   31.1130   46.2020 C   0  0  0  0  0  0  0  0  0  0  0  0
   47.9790   29.9740   46.0000 C   0  0  0  0  0  0  0  0  0  0  0  0
   48.5130   29.8280   44.7820 N   0  0  0  0  0  0  0  0  0  0  0  0
   48.2920   30.7390   43.8270 C   0  0  0  0  0  0  0  0  0  0  0  0
   47.5340   31.8650   43.9830 N   0  0  0  0  0  0  0  0  0  0  0  0
   46.9810   32.0390   45.2060 C   0  0  0  0  0  0  0  0  0  0  0  0
   48.9030   30.5680   42.4660 C   0  0  0  0  0  0  0  0  0  0  0  0
   49.1510   31.8190   41.9050 F   0  0  0  0  0  0  0  0  0  0  0  0
   48.0780   29.8790   41.6250 F   0  0  0  0  0  0  0  0  0  0  0  0
   50.1540   29.9800   42.6020 F   0  0  0  0  0  0  0  0  0  0  0  0
   48.1640   29.0220   47.1210 C   0  0  0  0  0  0  0  0  0  0  0  0
   48.6500   29.7690   48.3410 C   0  0  0  0  0  0  0  0  0  0  0  0
   49.2240   27.9780   46.8120 C   0  0  0  0  0  0  0  0  0  0  0  0
   46.8880   28.3110   47.4580 C   0  0  0  0  0  0  0  0  0  0  0  0
   43.6533   36.6913   44.7515 H   0  0  0  0  0  0  0  0  0  0  0  0
   44.8260   37.0542   42.5915 H   0  0  0  0  0  0  0  0  0  0  0  0
   46.6667   35.4664   41.9388 H   0  0  0  0  0  0  0  0  0  0  0  0
   45.2910   33.3258   47.6702 H   0  0  0  0  0  0  0  0  0  0  0  0
   48.3112   29.2483   49.2488 H   0  0  0  0  0  0  0  0  0  0  0  0
   49.7491   29.8115   48.3312 H   0  0  0  0  0  0  0  0  0  0  0  0
   48.2435   30.7911   48.3312 H   0  0  0  0  0  0  0  0  0  0  0  0
   49.6300   27.5781   47.7529 H   0  0  0  0  0  0  0  0  0  0  0  0
   48.7744   27.1602   46.2297 H   0  0  0  0  0  0  0  0  0  0  0  0
   50.0349   28.4400   46.2297 H   0  0  0  0  0  0  0  0  0  0  0  0
   46.7796   28.2506   48.5510 H   0  0  0  0  0  0  0  0  0  0  0  0
   46.0369   28.8649   47.0352 H   0  0  0  0  0  0  0  0  0  0  0  0
   46.9112   27.2958   47.0352 H   0  0  0  0  0  0  0  0  0  0  0  0
  1  6  2  0
  2  1  1  0
  3  2  2  0
  3  4  1  0
  4  5  2  0
  5  6  1  0
  5  7  1  0
  7  8  1  0
  8  9  2  0
 10  9  1  0
 11 10  2  0
 11 20  1  0
 12 11  1  0
 13 14  1  0
 13 12  2  0
 14 15  2  0
 15  7  1  0
 15 10  1  0
 16 19  1  0
 16 13  1  0
 17 16  1  0
 18 16  1  0
 20 23  1  0
 20 21  1  0
 22 20  1  0
  1 24  1  0
  2 25  1  0
  3 26  1  0
  8 27  1  0
 21 28  1  0
 21 29  1  0
 21 30  1  0
 22 31  1  0
 22 32  1  0
 22 33  1  0
 23 34  1  0
 23 35  1  0
 23 36  1  0
M  ISO  8  24  14  25  14  26  14  27  14  28   8  29   8  30   8  31   8
M  ISO  5  32   8  33   8  34   8  35   8  36   8
M  END
>  <minimizedAffinity>  (1) 
-4.98221731

>  <minimizedRMSD>  (1) 
1.81157804

$$$$
