
     RDKit          3D

 43 47  0  0  0  0  0  0  0  0999 V2000
   44.4570   35.9730   44.3020 C   0  0  0  0  0  0  0  0  0  0  0  0
   45.1670   36.0320   43.0820 C   0  0  0  0  0  0  0  0  0  0  0  0
   46.1750   35.0860   42.8580 C   0  0  0  0  0  0  0  0  0  0  0  0
   46.4240   34.1650   43.8110 N   0  0  0  0  0  0  0  0  0  0  0  0
   45.7190   34.1340   44.9840 C   0  0  0  0  0  0  0  0  0  0  0  0
   44.7410   35.0320   45.2290 N   0  0  0  0  0  0  0  0  0  0  0  0
   46.0880   33.0960   45.9030 N   0  0  0  0  0  0  0  0  0  0  0  0
   45.7250   32.9190   47.1780 C   0  0  0  0  0  0  0  0  0  0  0  0
   46.3180   31.8160   47.6150 N   0  0  0  0  0  0  0  0  0  0  0  0
   47.0660   31.2590   46.6600 C   0  0  0  0  0  0  0  0  0  0  0  0
   47.8510   30.1180   46.6550 C   0  0  0  0  0  0  0  0  0  0  0  0
   48.4720   29.8650   45.4790 N   0  0  0  0  0  0  0  0  0  0  0  0
   48.3270   30.6650   44.4090 C   0  0  0  0  0  0  0  0  0  0  0  0
   47.5510   31.7950   44.4060 N   0  0  0  0  0  0  0  0  0  0  0  0
   46.9200   32.0710   45.5720 C   0  0  0  0  0  0  0  0  0  0  0  0
   49.0220   30.3590   43.1100 C   0  0  0  0  0  0  0  0  0  0  0  0
   48.8930   31.4200   42.2530 F   0  0  0  0  0  0  0  0  0  0  0  0
   48.4330   29.2580   42.5030 F   0  0  0  0  0  0  0  0  0  0  0  0
   50.3460   30.1720   43.3430 F   0  0  0  0  0  0  0  0  0  0  0  0
   48.0150   29.2150   47.8110 C   0  0  0  0  0  0  0  0  0  0  0  0
   49.0550   29.4960   48.7730 C   0  0  0  0  0  0  0  0  0  0  0  0
   49.2050   30.8510   49.1280 C   0  0  0  0  0  0  0  0  0  0  0  0
   50.0760   31.3200   50.0800 C   0  0  0  0  0  0  0  0  0  0  0  0
   50.8810   30.4320   50.7650 C   0  0  0  0  0  0  0  0  0  0  0  0
   50.7880   29.0880   50.4660 C   0  0  0  0  0  0  0  0  0  0  0  0
   51.5870   28.1480   51.0820 C   0  0  0  0  0  0  0  0  0  0  0  0
   51.5040   26.8000   50.7360 C   0  0  0  0  0  0  0  0  0  0  0  0
   50.6080   26.3860   49.7580 C   0  0  0  0  0  0  0  0  0  0  0  0
   49.8440   27.3820   49.1900 C   0  0  0  0  0  0  0  0  0  0  0  0
   49.8920   28.7100   49.5000 C   0  0  0  0  0  0  0  0  0  0  0  0
   43.6602   36.7049   44.5004 H   0  0  0  0  0  0  0  0  0  0  0  0
   44.9345   36.7995   42.3291 H   0  0  0  0  0  0  0  0  0  0  0  0
   46.7529   35.0941   41.9221 H   0  0  0  0  0  0  0  0  0  0  0  0
   45.0557   33.5704   47.7591 H   0  0  0  0  0  0  0  0  0  0  0  0
   47.0607   29.2140   48.3580 H   0  0  0  0  0  0  0  0  0  0  0  0
   48.3217   28.2597   47.3601 H   0  0  0  0  0  0  0  0  0  0  0  0
   48.5782   31.5875   48.6039 H   0  0  0  0  0  0  0  0  0  0  0  0
   50.1321   32.3972   50.2957 H   0  0  0  0  0  0  0  0  0  0  0  0
   51.5824   30.7886   51.5337 H   0  0  0  0  0  0  0  0  0  0  0  0
   52.2997   28.4661   51.8571 H   0  0  0  0  0  0  0  0  0  0  0  0
   52.1486   26.0633   51.2378 H   0  0  0  0  0  0  0  0  0  0  0  0
   50.5147   25.3321   49.4570 H   0  0  0  0  0  0  0  0  0  0  0  0
   49.1274   27.0778   48.4129 H   0  0  0  0  0  0  0  0  0  0  0  0
  1  6  2  0
  2  1  1  0
  3  2  2  0
  3  4  1  0
  4  5  2  0
  5  6  1  0
  5  7  1  0
  7  8  1  0
  8  9  2  0
 10  9  1  0
 11 10  2  0
 11 20  1  0
 12 11  1  0
 13 12  2  0
 14 13  1  0
 14 15  2  0
 15  7  1  0
 15 10  1  0
 16 19  1  0
 16 13  1  0
 17 16  1  0
 18 16  1  0
 20 21  1  0
 21 22  2  0
 21 30  1  0
 22 23  1  0
 23 24  2  0
 25 24  1  0
 25 26  2  0
 27 26  1  0
 28 27  2  0
 29 30  2  0
 29 28  1  0
 30 25  1  0
  1 31  1  0
  2 32  1  0
  3 33  1  0
  8 34  1  0
 20 35  1  0
 20 36  1  0
 22 37  1  0
 23 38  1  0
 24 39  1  0
 26 40  1  0
 27 41  1  0
 28 42  1  0
 29 43  1  0
M  ISO  8  31  14  32  14  33  14  34  14  35   8  36   8  37  14  38  14
M  ISO  5  39  14  40  14  41  14  42  14  43  14
M  END
>  <minimizedAffinity>  (1) 
-6.33113813

>  <minimizedRMSD>  (1) 
0.358230561

$$$$
