
     RDKit          3D

 40 43  0  0  0  0  0  0  0  0999 V2000
   44.9230   35.5410   45.0440 C   0  0  0  0  0  0  0  0  0  0  0  0
   44.1520   35.7050   43.8580 C   0  0  0  0  0  0  0  0  0  0  0  0
   44.1350   34.6740   42.9530 C   0  0  0  0  0  0  0  0  0  0  0  0
   44.8310   33.5320   43.1790 N   0  0  0  0  0  0  0  0  0  0  0  0
   45.5730   33.3820   44.3290 C   0  0  0  0  0  0  0  0  0  0  0  0
   45.6050   34.3930   45.2420 N   0  0  0  0  0  0  0  0  0  0  0  0
   43.3560   34.8660   41.7790 N   0  0  0  0  0  0  0  0  0  0  0  0
   42.0710   35.2350   41.7020 C   0  0  0  0  0  0  0  0  0  0  0  0
   41.4670   35.3760   40.4710 C   0  0  0  0  0  0  0  0  0  0  0  0
   42.1530   35.1460   39.2950 C   0  0  0  0  0  0  0  0  0  0  0  0
   41.5920   35.2770   38.1720 O   0  0  0  0  0  0  0  0  0  0  0  0
   43.4340   34.7800   39.4040 N   0  0  0  0  0  0  0  0  0  0  0  0
   44.0240   34.6430   40.6240 C   0  0  0  0  0  0  0  0  0  0  0  0
   45.2560   34.2850   40.5630 O   0  0  0  0  0  0  0  0  0  0  0  0
   40.0610   35.7790   40.3980 C   0  0  0  0  0  0  0  0  0  0  0  0
   46.3170   32.1600   44.5670 C   0  0  0  0  0  0  0  0  0  0  0  0
   46.8390   31.2910   43.6200 C   0  0  0  0  0  0  0  0  0  0  0  0
   47.4680   30.2580   44.2320 N   0  0  0  0  0  0  0  0  0  0  0  0
   47.3290   30.4990   45.5710 C   0  0  0  0  0  0  0  0  0  0  0  0
   46.6370   31.6410   45.7610 N   0  0  0  0  0  0  0  0  0  0  0  0
   47.8690   29.6170   46.6000 C   0  0  0  0  0  0  0  0  0  0  0  0
   48.9930   29.5560   47.3930 C   0  0  0  0  0  0  0  0  0  0  0  0
   48.8600   28.4150   48.1730 C   0  0  0  0  0  0  0  0  0  0  0  0
   47.6800   27.8080   47.8520 N   0  0  0  0  0  0  0  0  0  0  0  0
   47.1100   28.5390   46.9170 N   0  0  0  0  0  0  0  0  0  0  0  0
   46.2800   32.2410   47.0410 C   0  0  0  0  0  0  0  0  0  0  0  0
   46.2870   31.2760   48.0810 F   0  0  0  0  0  0  0  0  0  0  0  0
   45.0330   32.8500   47.0120 F   0  0  0  0  0  0  0  0  0  0  0  0
   47.2410   33.1610   47.4380 F   0  0  0  0  0  0  0  0  0  0  0  0
   44.9626   36.3447   45.7940 H   0  0  0  0  0  0  0  0  0  0  0  0
   43.5870   36.6305   43.6730 H   0  0  0  0  0  0  0  0  0  0  0  0
   41.4975   35.4256   42.6211 H   0  0  0  0  0  0  0  0  0  0  0  0
   43.9836   34.5987   38.5520 H   0  0  0  0  0  0  0  0  0  0  0  0
   39.6593   35.8941   41.4155 H   0  0  0  0  0  0  0  0  0  0  0  0
   39.9813   36.7362   39.8618 H   0  0  0  0  0  0  0  0  0  0  0  0
   39.4863   35.0094   39.8618 H   0  0  0  0  0  0  0  0  0  0  0  0
   46.7547   31.4213   42.5310 H   0  0  0  0  0  0  0  0  0  0  0  0
   49.8301   30.2695   47.4060 H   0  0  0  0  0  0  0  0  0  0  0  0
   49.5828   28.0603   48.9225 H   0  0  0  0  0  0  0  0  0  0  0  0
   47.3060   26.9412   48.2638 H   0  0  0  0  0  0  0  0  0  0  0  0
  1  6  2  0
  2  1  1  0
  3  4  1  0
  3  2  2  0
  4  5  2  0
  5 16  1  0
  5  6  1  0
  7  3  1  0
  8  7  1  0
  9  8  2  0
 10 12  1  0
 10  9  1  0
 11 10  2  0
 12 13  1  0
 13  7  1  0
 14 13  2  0
 15  9  1  0
 16 20  1  0
 17 18  1  0
 17 16  2  0
 18 19  2  0
 19 20  1  0
 19 21  1  0
 20 26  1  0
 21 25  2  0
 21 22  1  0
 22 23  2  0
 24 23  1  0
 25 24  1  0
 26 29  1  0
 26 27  1  0
 28 26  1  0
  1 30  1  0
  2 31  1  0
  8 32  1  0
 12 33  1  0
 15 34  1  0
 15 35  1  0
 15 36  1  0
 17 37  1  0
 22 38  1  0
 23 39  1  0
 24 40  1  0
M  ISO  8  30  14  31  14  32  14  33   9  34   8  35   8  36   8  37  14
M  ISO  3  38  14  39  14  40   9
M  END
>  <minimizedAffinity>  (1) 
-6.38776588

>  <minimizedRMSD>  (1) 
0.880908787

$$$$
