
     RDKit          3D

 38 41  0  0  0  0  0  0  0  0999 V2000
   44.4600   36.0230   44.4310 C   0  0  0  0  0  0  0  0  0  0  0  0
   45.1640   36.0850   43.2060 C   0  0  0  0  0  0  0  0  0  0  0  0
   46.1500   35.1040   42.9520 C   0  0  0  0  0  0  0  0  0  0  0  0
   46.3740   34.1560   43.8900 N   0  0  0  0  0  0  0  0  0  0  0  0
   45.6720   34.1270   45.0690 C   0  0  0  0  0  0  0  0  0  0  0  0
   44.7260   35.0560   45.3250 N   0  0  0  0  0  0  0  0  0  0  0  0
   46.0200   33.0790   45.9680 N   0  0  0  0  0  0  0  0  0  0  0  0
   45.6560   32.9090   47.2470 C   0  0  0  0  0  0  0  0  0  0  0  0
   46.2270   31.7910   47.7070 N   0  0  0  0  0  0  0  0  0  0  0  0
   46.9650   31.2270   46.7380 C   0  0  0  0  0  0  0  0  0  0  0  0
   47.7430   30.0690   46.6980 C   0  0  0  0  0  0  0  0  0  0  0  0
   48.3470   29.8010   45.5330 N   0  0  0  0  0  0  0  0  0  0  0  0
   48.2020   30.6150   44.4690 C   0  0  0  0  0  0  0  0  0  0  0  0
   47.4460   31.7530   44.4830 N   0  0  0  0  0  0  0  0  0  0  0  0
   46.8230   32.0500   45.6480 C   0  0  0  0  0  0  0  0  0  0  0  0
   48.8700   30.3140   43.1530 C   0  0  0  0  0  0  0  0  0  0  0  0
   48.7650   31.3770   42.3050 F   0  0  0  0  0  0  0  0  0  0  0  0
   48.2540   29.2090   42.5700 F   0  0  0  0  0  0  0  0  0  0  0  0
   50.1910   30.0800   43.3660 F   0  0  0  0  0  0  0  0  0  0  0  0
   47.8860   29.2000   47.8930 C   0  0  0  0  0  0  0  0  0  0  0  0
   48.9540   29.6630   48.7210 N   0  0  0  0  0  0  0  0  0  0  0  0
   48.8890   30.6970   49.5750 C   0  0  0  0  0  0  0  0  0  0  0  0
   50.0520   30.9800   50.2880 C   0  0  0  0  0  0  0  0  0  0  0  0
   51.2170   30.2520   50.1420 C   0  0  0  0  0  0  0  0  0  0  0  0
   52.3930   30.5600   50.8810 N   0  0  0  0  0  0  0  0  0  0  0  0
   51.2220   29.2120   49.2590 N   0  0  0  0  0  0  0  0  0  0  0  0
   50.0800   28.9410   48.5640 C   0  0  0  0  0  0  0  0  0  0  0  0
   50.2400   27.9590   47.7940 O   0  0  0  0  0  0  0  0  0  0  0  0
   43.6874   36.7736   44.6540 H   0  0  0  0  0  0  0  0  0  0  0  0
   44.9503   36.8749   42.4709 H   0  0  0  0  0  0  0  0  0  0  0  0
   46.7221   35.1117   42.0125 H   0  0  0  0  0  0  0  0  0  0  0  0
   44.9979   33.5773   47.8217 H   0  0  0  0  0  0  0  0  0  0  0  0
   46.9483   29.2171   48.4678 H   0  0  0  0  0  0  0  0  0  0  0  0
   48.1090   28.1745   47.5636 H   0  0  0  0  0  0  0  0  0  0  0  0
   47.9698   31.2871   49.7044 H   0  0  0  0  0  0  0  0  0  0  0  0
   50.0422   31.8199   50.9983 H   0  0  0  0  0  0  0  0  0  0  0  0
   53.2460   29.9979   50.7494 H   0  0  0  0  0  0  0  0  0  0  0  0
   52.3914   31.3451   51.5477 H   0  0  0  0  0  0  0  0  0  0  0  0
  1  6  2  0
  2  1  1  0
  3  2  2  0
  3  4  1  0
  4  5  2  0
  5  6  1  0
  5  7  1  0
  7  8  1  0
  8  9  2  0
 10  9  1  0
 11 10  2  0
 11 20  1  0
 12 11  1  0
 13 14  1  0
 13 12  2  0
 14 15  2  0
 15  7  1  0
 15 10  1  0
 16 19  1  0
 16 13  1  0
 17 16  1  0
 18 16  1  0
 20 21  1  0
 21 22  1  0
 22 23  2  0
 24 23  1  0
 24 25  1  0
 26 24  2  0
 27 21  1  0
 27 26  1  0
 28 27  2  0
  1 29  1  0
  2 30  1  0
  3 31  1  0
  8 32  1  0
 20 33  1  0
 20 34  1  0
 22 35  1  0
 23 36  1  0
 25 37  1  0
 25 38  1  0
M  ISO  8  29  14  30  14  31  14  32  14  33   8  34   8  35  14  36  14
M  END
>  <minimizedAffinity>  (1) 
-5.82622623

>  <minimizedRMSD>  (1) 
2.58818746

$$$$
