
     RDKit          3D

 34 37  0  0  0  0  0  0  0  0999 V2000
   44.4510   36.0230   44.4920 C   0  0  0  0  0  0  0  0  0  0  0  0
   45.1180   36.1080   43.2510 C   0  0  0  0  0  0  0  0  0  0  0  0
   46.0950   35.1450   42.9580 C   0  0  0  0  0  0  0  0  0  0  0  0
   46.3490   34.1860   43.8800 N   0  0  0  0  0  0  0  0  0  0  0  0
   45.6860   34.1360   45.0660 C   0  0  0  0  0  0  0  0  0  0  0  0
   44.7500   35.0450   45.3640 N   0  0  0  0  0  0  0  0  0  0  0  0
   46.0580   33.0650   45.9470 N   0  0  0  0  0  0  0  0  0  0  0  0
   45.7340   32.8590   47.2350 C   0  0  0  0  0  0  0  0  0  0  0  0
   46.3130   31.7270   47.6360 N   0  0  0  0  0  0  0  0  0  0  0  0
   47.0100   31.1900   46.6300 C   0  0  0  0  0  0  0  0  0  0  0  0
   47.7860   30.0150   46.5450 C   0  0  0  0  0  0  0  0  0  0  0  0
   48.3520   29.7870   45.3500 N   0  0  0  0  0  0  0  0  0  0  0  0
   48.1840   30.6320   44.3080 C   0  0  0  0  0  0  0  0  0  0  0  0
   47.4420   31.7620   44.3740 N   0  0  0  0  0  0  0  0  0  0  0  0
   46.8490   32.0390   45.5570 C   0  0  0  0  0  0  0  0  0  0  0  0
   48.8310   30.3500   42.9810 C   0  0  0  0  0  0  0  0  0  0  0  0
   48.7190   31.4570   42.1710 F   0  0  0  0  0  0  0  0  0  0  0  0
   48.1880   29.3030   42.3560 F   0  0  0  0  0  0  0  0  0  0  0  0
   50.1690   30.1100   43.1660 F   0  0  0  0  0  0  0  0  0  0  0  0
   47.9590   29.1090   47.6920 C   0  0  0  0  0  0  0  0  0  0  0  0
   49.1660   29.3400   48.4520 C   0  0  0  0  0  0  0  0  0  0  0  0
   50.4130   28.7950   48.4190 C   0  0  0  0  0  0  0  0  0  0  0  0
   51.3860   29.2030   49.2630 C   0  0  0  0  0  0  0  0  0  0  0  0
   51.0280   30.2310   50.1820 C   0  0  0  0  0  0  0  0  0  0  0  0
   49.2190   30.5720   49.7620 S   0  0  0  0  0  0  0  0  0  0  0  0
   43.6794   36.7640   44.7478 H   0  0  0  0  0  0  0  0  0  0  0  0
   44.8784   36.9069   42.5338 H   0  0  0  0  0  0  0  0  0  0  0  0
   46.6411   35.1682   42.0034 H   0  0  0  0  0  0  0  0  0  0  0  0
   45.0999   33.5123   47.8524 H   0  0  0  0  0  0  0  0  0  0  0  0
   47.0980   29.2358   48.3648 H   0  0  0  0  0  0  0  0  0  0  0  0
   48.0332   28.0908   47.2824 H   0  0  0  0  0  0  0  0  0  0  0  0
   50.6338   28.0035   47.6877 H   0  0  0  0  0  0  0  0  0  0  0  0
   52.3956   28.7669   49.2418 H   0  0  0  0  0  0  0  0  0  0  0  0
   51.6535   30.7098   50.9498 H   0  0  0  0  0  0  0  0  0  0  0  0
  1  6  2  0
  2  1  1  0
  3  2  2  0
  3  4  1  0
  4  5  2  0
  5  6  1  0
  5  7  1  0
  7  8  1  0
  8  9  2  0
 10  9  1  0
 11 10  2  0
 11 20  1  0
 12 11  1  0
 13 14  1  0
 13 12  2  0
 14 15  2  0
 15  7  1  0
 15 10  1  0
 16 19  1  0
 16 13  1  0
 17 16  1  0
 18 16  1  0
 20 21  1  0
 21 25  1  0
 22 21  2  0
 22 23  1  0
 23 24  2  0
 25 24  1  0
  1 26  1  0
  2 27  1  0
  3 28  1  0
  8 29  1  0
 20 30  1  0
 20 31  1  0
 22 32  1  0
 23 33  1  0
 24 34  1  0
M  ISO  8  26  14  27  14  28  14  29  14  30   8  31   8  32  14  33  14
M  ISO  1  34  14
M  END
>  <minimizedAffinity>  (1) 
-5.33192968

>  <minimizedRMSD>  (1) 
1.70298982

$$$$
