
     RDKit          3D

 34 37  0  0  0  0  0  0  0  0999 V2000
   44.4480   36.0080   44.4450 C   0  0  0  0  0  0  0  0  0  0  0  0
   45.1290   36.0790   43.2200 C   0  0  0  0  0  0  0  0  0  0  0  0
   46.1140   35.1250   42.9610 C   0  0  0  0  0  0  0  0  0  0  0  0
   46.3720   34.1770   43.8900 N   0  0  0  0  0  0  0  0  0  0  0  0
   45.6860   34.1380   45.0760 C   0  0  0  0  0  0  0  0  0  0  0  0
   44.7330   35.0480   45.3470 N   0  0  0  0  0  0  0  0  0  0  0  0
   46.0720   33.0810   45.9580 N   0  0  0  0  0  0  0  0  0  0  0  0
   45.7540   32.9050   47.2550 C   0  0  0  0  0  0  0  0  0  0  0  0
   46.3410   31.7860   47.6710 N   0  0  0  0  0  0  0  0  0  0  0  0
   47.0390   31.2200   46.6830 C   0  0  0  0  0  0  0  0  0  0  0  0
   47.8120   30.0670   46.6120 C   0  0  0  0  0  0  0  0  0  0  0  0
   48.3790   29.8040   45.4270 N   0  0  0  0  0  0  0  0  0  0  0  0
   48.2000   30.6200   44.3750 C   0  0  0  0  0  0  0  0  0  0  0  0
   47.4490   31.7520   44.4210 N   0  0  0  0  0  0  0  0  0  0  0  0
   46.8640   32.0470   45.5950 C   0  0  0  0  0  0  0  0  0  0  0  0
   48.8400   30.3290   43.0380 C   0  0  0  0  0  0  0  0  0  0  0  0
   48.7200   31.4050   42.2070 F   0  0  0  0  0  0  0  0  0  0  0  0
   48.2240   29.2430   42.4500 F   0  0  0  0  0  0  0  0  0  0  0  0
   50.1830   30.1040   43.2380 F   0  0  0  0  0  0  0  0  0  0  0  0
   48.0120   29.1840   47.7870 C   0  0  0  0  0  0  0  0  0  0  0  0
   48.9860   29.8150   48.6540 N   0  0  0  0  0  0  0  0  0  0  0  0
   48.8380   30.5230   49.7580 N   0  0  0  0  0  0  0  0  0  0  0  0
   50.0120   30.9380   50.2600 C   0  0  0  0  0  0  0  0  0  0  0  0
   50.9630   30.4300   49.3690 C   0  0  0  0  0  0  0  0  0  0  0  0
   50.3010   29.7350   48.3780 C   0  0  0  0  0  0  0  0  0  0  0  0
   43.6677   36.7491   44.6731 H   0  0  0  0  0  0  0  0  0  0  0  0
   44.8933   36.8634   42.4857 H   0  0  0  0  0  0  0  0  0  0  0  0
   46.6730   35.1440   42.0138 H   0  0  0  0  0  0  0  0  0  0  0  0
   45.1212   33.5688   47.8624 H   0  0  0  0  0  0  0  0  0  0  0  0
   47.0609   29.0548   48.3242 H   0  0  0  0  0  0  0  0  0  0  0  0
   48.3669   28.1931   47.4672 H   0  0  0  0  0  0  0  0  0  0  0  0
   50.1860   31.5395   51.1644 H   0  0  0  0  0  0  0  0  0  0  0  0
   52.0524   30.5620   49.4454 H   0  0  0  0  0  0  0  0  0  0  0  0
   50.7604   29.2145   47.5247 H   0  0  0  0  0  0  0  0  0  0  0  0
  1  6  2  0
  2  1  1  0
  3  2  2  0
  3  4  1  0
  4  5  2  0
  5  6  1  0
  5  7  1  0
  7  8  1  0
  8  9  2  0
 10  9  1  0
 11 10  2  0
 11 20  1  0
 12 11  1  0
 13 14  1  0
 13 12  2  0
 14 15  2  0
 15  7  1  0
 15 10  1  0
 16 19  1  0
 16 13  1  0
 17 16  1  0
 18 16  1  0
 20 21  1  0
 21 22  1  0
 22 23  2  0
 24 23  1  0
 25 21  1  0
 25 24  2  0
  1 26  1  0
  2 27  1  0
  3 28  1  0
  8 29  1  0
 20 30  1  0
 20 31  1  0
 23 32  1  0
 24 33  1  0
 25 34  1  0
M  ISO  8  26  14  27  14  28  14  29  14  30   8  31   8  32  14  33  14
M  ISO  1  34  14
M  END
>  <minimizedAffinity>  (1) 
-5.51825571

>  <minimizedRMSD>  (1) 
0.126348436

$$$$
