
     RDKit          3D

 34 37  0  0  0  0  0  0  0  0999 V2000
   44.4440   36.0180   44.4580 C   0  0  0  0  0  0  0  0  0  0  0  0
   45.1170   36.0760   43.2210 C   0  0  0  0  0  0  0  0  0  0  0  0
   46.1010   35.1130   42.9450 C   0  0  0  0  0  0  0  0  0  0  0  0
   46.3590   34.1750   43.8800 N   0  0  0  0  0  0  0  0  0  0  0  0
   45.6960   34.1390   45.0670 C   0  0  0  0  0  0  0  0  0  0  0  0
   44.7410   35.0570   45.3570 N   0  0  0  0  0  0  0  0  0  0  0  0
   46.0740   33.0850   45.9660 N   0  0  0  0  0  0  0  0  0  0  0  0
   45.7500   32.9110   47.2520 C   0  0  0  0  0  0  0  0  0  0  0  0
   46.3390   31.7820   47.6730 N   0  0  0  0  0  0  0  0  0  0  0  0
   47.0400   31.2190   46.6800 C   0  0  0  0  0  0  0  0  0  0  0  0
   47.8140   30.0600   46.6100 C   0  0  0  0  0  0  0  0  0  0  0  0
   48.3820   29.8090   45.4170 N   0  0  0  0  0  0  0  0  0  0  0  0
   48.2050   30.6350   44.3620 C   0  0  0  0  0  0  0  0  0  0  0  0
   47.4570   31.7650   44.4070 N   0  0  0  0  0  0  0  0  0  0  0  0
   46.8660   32.0540   45.5990 C   0  0  0  0  0  0  0  0  0  0  0  0
   48.8520   30.3300   43.0390 C   0  0  0  0  0  0  0  0  0  0  0  0
   48.7390   31.4220   42.2110 F   0  0  0  0  0  0  0  0  0  0  0  0
   48.2340   29.2540   42.4470 F   0  0  0  0  0  0  0  0  0  0  0  0
   50.2000   30.1240   43.2240 F   0  0  0  0  0  0  0  0  0  0  0  0
   47.9890   29.1790   47.7780 C   0  0  0  0  0  0  0  0  0  0  0  0
   49.0180   29.7830   48.6580 C   0  0  0  0  0  0  0  0  0  0  0  0
   50.3880   29.6930   48.4190 C   0  0  0  0  0  0  0  0  0  0  0  0
   50.9400   30.3970   49.4890 C   0  0  0  0  0  0  0  0  0  0  0  0
   49.9240   30.8580   50.2890 C   0  0  0  0  0  0  0  0  0  0  0  0
   48.8070   30.4720   49.7580 O   0  0  0  0  0  0  0  0  0  0  0  0
   43.6695   36.7631   44.6925 H   0  0  0  0  0  0  0  0  0  0  0  0
   44.8765   36.8593   42.4871 H   0  0  0  0  0  0  0  0  0  0  0  0
   46.6477   35.1231   41.9906 H   0  0  0  0  0  0  0  0  0  0  0  0
   45.1143   33.5750   47.8561 H   0  0  0  0  0  0  0  0  0  0  0  0
   47.0379   29.0888   48.3233 H   0  0  0  0  0  0  0  0  0  0  0  0
   48.3035   28.1754   47.4557 H   0  0  0  0  0  0  0  0  0  0  0  0
   50.9069   29.1900   47.5897 H   0  0  0  0  0  0  0  0  0  0  0  0
   52.0143   30.5568   49.6635 H   0  0  0  0  0  0  0  0  0  0  0  0
   50.0374   31.4468   51.2112 H   0  0  0  0  0  0  0  0  0  0  0  0
  1  6  2  0
  2  1  1  0
  3  2  2  0
  3  4  1  0
  4  5  2  0
  5  6  1  0
  5  7  1  0
  7  8  1  0
  8  9  2  0
 10  9  1  0
 11 10  2  0
 11 20  1  0
 12 11  1  0
 13 14  1  0
 13 12  2  0
 14 15  2  0
 15  7  1  0
 15 10  1  0
 16 19  1  0
 16 13  1  0
 17 16  1  0
 18 16  1  0
 20 21  1  0
 21 25  1  0
 22 21  2  0
 22 23  1  0
 23 24  2  0
 25 24  1  0
  1 26  1  0
  2 27  1  0
  3 28  1  0
  8 29  1  0
 20 30  1  0
 20 31  1  0
 22 32  1  0
 23 33  1  0
 24 34  1  0
M  ISO  8  26  14  27  14  28  14  29  14  30   8  31   8  32  14  33  14
M  ISO  1  34  14
M  END
>  <minimizedAffinity>  (1) 
-5.55724907

>  <minimizedRMSD>  (1) 
1.97177994

$$$$
