
     RDKit          3D

 38 42  0  0  0  0  0  0  0  0999 V2000
   44.5100   36.2020   44.3960 C   0  0  0  0  0  0  0  0  0  0  0  0
   45.2410   36.2910   43.2120 C   0  0  0  0  0  0  0  0  0  0  0  0
   46.1870   35.2820   42.9190 C   0  0  0  0  0  0  0  0  0  0  0  0
   46.3390   34.2730   43.8050 N   0  0  0  0  0  0  0  0  0  0  0  0
   45.6040   34.2170   44.9600 C   0  0  0  0  0  0  0  0  0  0  0  0
   44.7100   35.1740   45.2290 N   0  0  0  0  0  0  0  0  0  0  0  0
   45.8860   33.1050   45.8040 N   0  0  0  0  0  0  0  0  0  0  0  0
   45.5050   32.8900   47.0800 C   0  0  0  0  0  0  0  0  0  0  0  0
   46.0150   31.7320   47.4830 N   0  0  0  0  0  0  0  0  0  0  0  0
   46.7310   31.1760   46.4880 C   0  0  0  0  0  0  0  0  0  0  0  0
   47.4540   29.9830   46.4070 C   0  0  0  0  0  0  0  0  0  0  0  0
   48.0490   29.7500   45.2330 N   0  0  0  0  0  0  0  0  0  0  0  0
   47.9570   30.6090   44.2070 C   0  0  0  0  0  0  0  0  0  0  0  0
   47.2580   31.7800   44.2640 N   0  0  0  0  0  0  0  0  0  0  0  0
   46.6400   32.0470   45.4410 C   0  0  0  0  0  0  0  0  0  0  0  0
   48.6340   30.3260   42.9010 C   0  0  0  0  0  0  0  0  0  0  0  0
   48.6800   31.4650   42.1320 F   0  0  0  0  0  0  0  0  0  0  0  0
   47.9000   29.3850   42.1830 F   0  0  0  0  0  0  0  0  0  0  0  0
   49.9150   29.9160   43.1290 F   0  0  0  0  0  0  0  0  0  0  0  0
   47.5670   29.0630   47.5530 C   0  0  0  0  0  0  0  0  0  0  0  0
   46.5230   28.0560   47.5540 N   0  0  0  0  0  0  0  0  0  0  0  0
   45.2150   28.1250   47.3220 C   0  0  0  0  0  0  0  0  0  0  0  0
   44.6130   26.9270   47.4280 N   0  0  0  0  0  0  0  0  0  0  0  0
   45.5650   26.0410   47.7430 C   0  0  0  0  0  0  0  0  0  0  0  0
   45.6370   24.6770   47.9930 C   0  0  0  0  0  0  0  0  0  0  0  0
   46.8280   24.1380   48.2870 N   0  0  0  0  0  0  0  0  0  0  0  0
   47.9860   24.7920   48.3680 C   0  0  0  0  0  0  0  0  0  0  0  0
   47.9060   26.0930   48.1290 N   0  0  0  0  0  0  0  0  0  0  0  0
   46.7660   26.7390   47.8240 C   0  0  0  0  0  0  0  0  0  0  0  0
   43.7694   36.9763   44.6451 H   0  0  0  0  0  0  0  0  0  0  0  0
   45.0846   37.1306   42.5188 H   0  0  0  0  0  0  0  0  0  0  0  0
   46.7830   35.3173   41.9951 H   0  0  0  0  0  0  0  0  0  0  0  0
   44.8774   33.5610   47.6849 H   0  0  0  0  0  0  0  0  0  0  0  0
   48.5441   28.5598   47.5080 H   0  0  0  0  0  0  0  0  0  0  0  0
   47.4636   29.6566   48.4733 H   0  0  0  0  0  0  0  0  0  0  0  0
   44.6857   29.0563   47.0718 H   0  0  0  0  0  0  0  0  0  0  0  0
   44.7336   24.0509   47.9505 H   0  0  0  0  0  0  0  0  0  0  0  0
   48.9341   24.2913   48.6140 H   0  0  0  0  0  0  0  0  0  0  0  0
  1  6  2  0
  2  1  1  0
  3  2  2  0
  3  4  1  0
  4  5  2  0
  5  6  1  0
  5  7  1  0
  7  8  1  0
  8  9  2  0
 10  9  1  0
 11 10  2  0
 11 20  1  0
 12 11  1  0
 13 14  1  0
 13 12  2  0
 14 15  2  0
 15  7  1  0
 15 10  1  0
 16 19  1  0
 16 13  1  0
 17 16  1  0
 18 16  1  0
 20 21  1  0
 21 29  1  0
 22 23  2  0
 22 21  1  0
 23 24  1  0
 24 29  2  0
 24 25  1  0
 25 26  2  0
 26 27  1  0
 28 27  2  0
 29 28  1  0
  1 30  1  0
  2 31  1  0
  3 32  1  0
  8 33  1  0
 20 34  1  0
 20 35  1  0
 22 36  1  0
 25 37  1  0
 27 38  1  0
M  ISO  8  30  14  31  14  32  14  33  14  34   8  35   8  36  14  37  14
M  ISO  1  38  14
M  END
>  <minimizedAffinity>  (1) 
-5.4729085

>  <minimizedRMSD>  (1) 
0.426188439

$$$$
