
     RDKit          3D

 40 43  0  0  0  0  0  0  0  0999 V2000
   44.4900   35.9870   44.4440 C   0  0  0  0  0  0  0  0  0  0  0  0
   45.2290   36.0480   43.2520 C   0  0  0  0  0  0  0  0  0  0  0  0
   46.2200   35.0710   43.0230 C   0  0  0  0  0  0  0  0  0  0  0  0
   46.4150   34.1220   43.9570 N   0  0  0  0  0  0  0  0  0  0  0  0
   45.6810   34.0900   45.1040 C   0  0  0  0  0  0  0  0  0  0  0  0
   44.7360   35.0150   45.3330 N   0  0  0  0  0  0  0  0  0  0  0  0
   45.9850   33.0210   46.0230 N   0  0  0  0  0  0  0  0  0  0  0  0
   45.5710   32.8350   47.2790 C   0  0  0  0  0  0  0  0  0  0  0  0
   46.1130   31.6990   47.7250 N   0  0  0  0  0  0  0  0  0  0  0  0
   46.8740   31.1400   46.7800 C   0  0  0  0  0  0  0  0  0  0  0  0
   47.6390   29.9750   46.7430 C   0  0  0  0  0  0  0  0  0  0  0  0
   48.2860   29.7240   45.6000 N   0  0  0  0  0  0  0  0  0  0  0  0
   48.1940   30.5600   44.5500 C   0  0  0  0  0  0  0  0  0  0  0  0
   47.4580   31.6980   44.5600 N   0  0  0  0  0  0  0  0  0  0  0  0
   46.7910   31.9820   45.7010 C   0  0  0  0  0  0  0  0  0  0  0  0
   48.9240   30.2710   43.2580 C   0  0  0  0  0  0  0  0  0  0  0  0
   48.8420   31.3440   42.4200 F   0  0  0  0  0  0  0  0  0  0  0  0
   48.3290   29.1800   42.6280 F   0  0  0  0  0  0  0  0  0  0  0  0
   50.2400   30.0450   43.5220 F   0  0  0  0  0  0  0  0  0  0  0  0
   47.7090   29.0650   47.9080 C   0  0  0  0  0  0  0  0  0  0  0  0
   48.8970   29.4710   48.6360 N   0  0  0  0  0  0  0  0  0  0  0  0
   48.7140   30.6400   49.4270 C   0  0  0  0  0  0  0  0  0  0  0  0
   49.9530   31.5260   49.4240 C   0  0  0  0  0  0  0  0  0  0  0  0
   51.0510   30.6770   49.5300 O   0  0  0  0  0  0  0  0  0  0  0  0
   51.2640   30.0470   48.3070 C   0  0  0  0  0  0  0  0  0  0  0  0
   49.9990   29.4770   47.7290 C   0  0  0  0  0  0  0  0  0  0  0  0
   43.7104   36.7358   44.6479 H   0  0  0  0  0  0  0  0  0  0  0  0
   45.0393   36.8403   42.5129 H   0  0  0  0  0  0  0  0  0  0  0  0
   46.8203   35.0844   42.1013 H   0  0  0  0  0  0  0  0  0  0  0  0
   44.9022   33.4996   47.8456 H   0  0  0  0  0  0  0  0  0  0  0  0
   46.8140   29.1750   48.5379 H   0  0  0  0  0  0  0  0  0  0  0  0
   47.7540   28.0090   47.6032 H   0  0  0  0  0  0  0  0  0  0  0  0
   47.8658   31.2130   49.0242 H   0  0  0  0  0  0  0  0  0  0  0  0
   48.5223   30.3246   50.4632 H   0  0  0  0  0  0  0  0  0  0  0  0
   50.0065   32.1001   48.4872 H   0  0  0  0  0  0  0  0  0  0  0  0
   49.9272   32.2458   50.2554 H   0  0  0  0  0  0  0  0  0  0  0  0
   51.6770   30.7804   47.5988 H   0  0  0  0  0  0  0  0  0  0  0  0
   51.9615   29.2133   48.4758 H   0  0  0  0  0  0  0  0  0  0  0  0
   49.7199   30.0761   46.8497 H   0  0  0  0  0  0  0  0  0  0  0  0
   50.2093   28.4271   47.4771 H   0  0  0  0  0  0  0  0  0  0  0  0
  1  6  2  0
  2  1  1  0
  3  2  2  0
  3  4  1  0
  4  5  2  0
  5  6  1  0
  5  7  1  0
  7  8  1  0
  8  9  2  0
 10  9  1  0
 11 10  2  0
 11 20  1  0
 12 11  1  0
 13 14  1  0
 13 12  2  0
 14 15  2  0
 15  7  1  0
 15 10  1  0
 16 19  1  0
 16 13  1  0
 17 16  1  0
 18 16  1  0
 20 21  1  0
 21 22  1  0
 23 22  1  0
 23 24  1  0
 25 24  1  0
 26 25  1  0
 26 21  1  0
  1 27  1  0
  2 28  1  0
  3 29  1  0
  8 30  1  0
 20 31  1  0
 20 32  1  0
 22 33  1  0
 22 34  1  0
 23 35  1  0
 23 36  1  0
 25 37  1  0
 25 38  1  0
 26 39  1  0
 26 40  1  0
M  ISO  8  27  14  28  14  29  14  30  14  31   8  32   8  33  13  34  13
M  ISO  6  35  13  36  13  37  13  38  13  39  13  40  13
M  END
>  <minimizedAffinity>  (1) 
-5.43661118

>  <minimizedRMSD>  (1) 
2.7529459

$$$$
