
     RDKit          3D

 35 38  0  0  0  0  0  0  0  0999 V2000
   44.4410   36.0150   44.4260 C   0  0  0  0  0  0  0  0  0  0  0  0
   45.1210   36.0760   43.1920 C   0  0  0  0  0  0  0  0  0  0  0  0
   46.1130   35.1150   42.9290 C   0  0  0  0  0  0  0  0  0  0  0  0
   46.3680   34.1780   43.8660 N   0  0  0  0  0  0  0  0  0  0  0  0
   45.6870   34.1490   45.0580 C   0  0  0  0  0  0  0  0  0  0  0  0
   44.7370   35.0590   45.3260 N   0  0  0  0  0  0  0  0  0  0  0  0
   46.0670   33.1010   45.9470 N   0  0  0  0  0  0  0  0  0  0  0  0
   45.7390   32.9280   47.2440 C   0  0  0  0  0  0  0  0  0  0  0  0
   46.3260   31.8050   47.6770 N   0  0  0  0  0  0  0  0  0  0  0  0
   47.0260   31.2500   46.6870 C   0  0  0  0  0  0  0  0  0  0  0  0
   47.8030   30.0910   46.6310 C   0  0  0  0  0  0  0  0  0  0  0  0
   48.3790   29.8180   45.4660 N   0  0  0  0  0  0  0  0  0  0  0  0
   48.2100   30.6340   44.3940 C   0  0  0  0  0  0  0  0  0  0  0  0
   47.4590   31.7640   44.4270 N   0  0  0  0  0  0  0  0  0  0  0  0
   46.8620   32.0660   45.6010 C   0  0  0  0  0  0  0  0  0  0  0  0
   48.8590   30.3290   43.0800 C   0  0  0  0  0  0  0  0  0  0  0  0
   48.7620   31.4170   42.2410 F   0  0  0  0  0  0  0  0  0  0  0  0
   48.2560   29.2530   42.4760 F   0  0  0  0  0  0  0  0  0  0  0  0
   50.2060   30.1100   43.2790 F   0  0  0  0  0  0  0  0  0  0  0  0
   47.9900   29.2050   47.8100 C   0  0  0  0  0  0  0  0  0  0  0  0
   49.1140   29.6210   48.6480 C   0  0  0  0  0  0  0  0  0  0  0  0
   49.0050   30.5190   49.6910 C   0  0  0  0  0  0  0  0  0  0  0  0
   50.1190   30.8610   50.4370 C   0  0  0  0  0  0  0  0  0  0  0  0
   51.3480   30.3390   50.1840 N   0  0  0  0  0  0  0  0  0  0  0  0
   51.4330   29.4670   49.1660 C   0  0  0  0  0  0  0  0  0  0  0  0
   50.3610   29.1150   48.4200 N   0  0  0  0  0  0  0  0  0  0  0  0
   43.6610   36.7560   44.6552 H   0  0  0  0  0  0  0  0  0  0  0  0
   44.8814   36.8557   42.4540 H   0  0  0  0  0  0  0  0  0  0  0  0
   46.6692   35.1267   41.9800 H   0  0  0  0  0  0  0  0  0  0  0  0
   45.1000   33.5941   47.8423 H   0  0  0  0  0  0  0  0  0  0  0  0
   47.0719   29.2245   48.4155 H   0  0  0  0  0  0  0  0  0  0  0  0
   48.2062   28.1928   47.4376 H   0  0  0  0  0  0  0  0  0  0  0  0
   48.0281   30.9646   49.9300 H   0  0  0  0  0  0  0  0  0  0  0  0
   50.0061   31.5793   51.2624 H   0  0  0  0  0  0  0  0  0  0  0  0
   52.4111   29.0224   48.9301 H   0  0  0  0  0  0  0  0  0  0  0  0
  1  6  2  0
  2  1  1  0
  3  2  2  0
  3  4  1  0
  4  5  2  0
  5  6  1  0
  5  7  1  0
  7  8  1  0
  8  9  2  0
 10  9  1  0
 11 10  2  0
 11 20  1  0
 12 11  1  0
 13 14  1  0
 13 12  2  0
 14 15  2  0
 15  7  1  0
 15 10  1  0
 16 19  1  0
 16 13  1  0
 17 16  1  0
 18 16  1  0
 20 21  1  0
 21 22  2  0
 22 23  1  0
 24 23  2  0
 25 24  1  0
 26 21  1  0
 26 25  2  0
  1 27  1  0
  2 28  1  0
  3 29  1  0
  8 30  1  0
 20 31  1  0
 20 32  1  0
 22 33  1  0
 23 34  1  0
 25 35  1  0
M  ISO  8  27  14  28  14  29  14  30  14  31   8  32   8  33  14  34  14
M  ISO  1  35  14
M  END
>  <minimizedAffinity>  (1) 
-5.61967707

>  <minimizedRMSD>  (1) 
1.99719703

$$$$
