
     RDKit          3D

 35 38  0  0  0  0  0  0  0  0999 V2000
   44.4570   36.0720   44.4720 C   0  0  0  0  0  0  0  0  0  0  0  0
   45.1370   36.1570   43.2490 C   0  0  0  0  0  0  0  0  0  0  0  0
   46.1080   35.1900   42.9670 C   0  0  0  0  0  0  0  0  0  0  0  0
   46.3520   34.2190   43.8690 N   0  0  0  0  0  0  0  0  0  0  0  0
   45.6710   34.1660   45.0480 C   0  0  0  0  0  0  0  0  0  0  0  0
   44.7300   35.0890   45.3470 N   0  0  0  0  0  0  0  0  0  0  0  0
   46.0130   33.0810   45.9330 N   0  0  0  0  0  0  0  0  0  0  0  0
   45.6630   32.8610   47.2070 C   0  0  0  0  0  0  0  0  0  0  0  0
   46.2170   31.7180   47.5990 N   0  0  0  0  0  0  0  0  0  0  0  0
   46.9290   31.1770   46.6060 C   0  0  0  0  0  0  0  0  0  0  0  0
   47.6830   30.0100   46.5080 C   0  0  0  0  0  0  0  0  0  0  0  0
   48.2770   29.7760   45.3280 N   0  0  0  0  0  0  0  0  0  0  0  0
   48.1400   30.6340   44.3010 C   0  0  0  0  0  0  0  0  0  0  0  0
   47.4110   31.7840   44.3600 N   0  0  0  0  0  0  0  0  0  0  0  0
   46.7950   32.0520   45.5450 C   0  0  0  0  0  0  0  0  0  0  0  0
   48.7960   30.3640   42.9700 C   0  0  0  0  0  0  0  0  0  0  0  0
   48.6640   31.4520   42.1520 F   0  0  0  0  0  0  0  0  0  0  0  0
   48.1580   29.2890   42.3530 F   0  0  0  0  0  0  0  0  0  0  0  0
   50.1200   30.1340   43.1600 F   0  0  0  0  0  0  0  0  0  0  0  0
   47.7960   29.0690   47.6320 C   0  0  0  0  0  0  0  0  0  0  0  0
   46.8510   27.9440   47.3040 C   0  0  0  0  0  0  0  0  0  0  0  0
   45.5020   28.1250   47.5950 C   0  0  0  0  0  0  0  0  0  0  0  0
   44.6010   27.1420   47.3200 C   0  0  0  0  0  0  0  0  0  0  0  0
   45.0170   25.9810   46.7590 N   0  0  0  0  0  0  0  0  0  0  0  0
   46.3380   25.8170   46.4810 C   0  0  0  0  0  0  0  0  0  0  0  0
   47.2600   26.7890   46.7480 N   0  0  0  0  0  0  0  0  0  0  0  0
   43.6894   36.8202   44.7189 H   0  0  0  0  0  0  0  0  0  0  0  0
   44.9136   36.9607   42.5319 H   0  0  0  0  0  0  0  0  0  0  0  0
   46.6660   35.2220   42.0196 H   0  0  0  0  0  0  0  0  0  0  0  0
   45.0268   33.5137   47.8228 H   0  0  0  0  0  0  0  0  0  0  0  0
   48.8265   28.6939   47.7185 H   0  0  0  0  0  0  0  0  0  0  0  0
   47.5493   29.5453   48.5923 H   0  0  0  0  0  0  0  0  0  0  0  0
   45.1620   29.0672   48.0496 H   0  0  0  0  0  0  0  0  0  0  0  0
   43.5363   27.2903   47.5531 H   0  0  0  0  0  0  0  0  0  0  0  0
   46.6743   24.8730   46.0274 H   0  0  0  0  0  0  0  0  0  0  0  0
  1  6  2  0
  2  1  1  0
  3  2  2  0
  3  4  1  0
  4  5  2  0
  5  6  1  0
  5  7  1  0
  7  8  1  0
  8  9  2  0
 10  9  1  0
 11 10  2  0
 11 20  1  0
 12 11  1  0
 13 14  1  0
 13 12  2  0
 14 15  2  0
 15  7  1  0
 15 10  1  0
 16 19  1  0
 16 13  1  0
 17 16  1  0
 18 16  1  0
 21 22  2  0
 21 20  1  0
 23 22  1  0
 24 23  2  0
 25 26  2  0
 25 24  1  0
 26 21  1  0
  1 27  1  0
  2 28  1  0
  3 29  1  0
  8 30  1  0
 20 31  1  0
 20 32  1  0
 22 33  1  0
 23 34  1  0
 25 35  1  0
M  ISO  8  27  14  28  14  29  14  30  14  31   8  32   8  33  14  34  14
M  ISO  1  35  14
M  END
>  <minimizedAffinity>  (1) 
-5.22010899

>  <minimizedRMSD>  (1) 
0.815980196

$$$$
