
     RDKit          3D

 29 31  0  0  0  0  0  0  0  0999 V2000
   44.4670   36.0190   44.4940 C   0  0  0  0  0  0  0  0  0  0  0  0
   45.1500   36.0990   43.2700 C   0  0  0  0  0  0  0  0  0  0  0  0
   46.1310   35.1300   42.9820 C   0  0  0  0  0  0  0  0  0  0  0  0
   46.3780   34.1680   43.8900 N   0  0  0  0  0  0  0  0  0  0  0  0
   45.6950   34.1200   45.0730 C   0  0  0  0  0  0  0  0  0  0  0  0
   44.7420   35.0350   45.3840 N   0  0  0  0  0  0  0  0  0  0  0  0
   46.0420   33.0370   45.9440 N   0  0  0  0  0  0  0  0  0  0  0  0
   45.6870   32.8190   47.2230 C   0  0  0  0  0  0  0  0  0  0  0  0
   46.2410   31.6610   47.6170 N   0  0  0  0  0  0  0  0  0  0  0  0
   46.9490   31.1250   46.6210 C   0  0  0  0  0  0  0  0  0  0  0  0
   47.7040   29.9560   46.5290 C   0  0  0  0  0  0  0  0  0  0  0  0
   48.2970   29.7360   45.3580 N   0  0  0  0  0  0  0  0  0  0  0  0
   48.1650   30.5990   44.3310 C   0  0  0  0  0  0  0  0  0  0  0  0
   47.4380   31.7430   44.3840 N   0  0  0  0  0  0  0  0  0  0  0  0
   46.8220   31.9950   45.5660 C   0  0  0  0  0  0  0  0  0  0  0  0
   48.8630   30.3440   43.0190 C   0  0  0  0  0  0  0  0  0  0  0  0
   48.7400   31.4420   42.1980 F   0  0  0  0  0  0  0  0  0  0  0  0
   48.2940   29.2740   42.3820 F   0  0  0  0  0  0  0  0  0  0  0  0
   50.2010   30.1500   43.2430 F   0  0  0  0  0  0  0  0  0  0  0  0
   47.8270   29.0200   47.6790 C   0  0  0  0  0  0  0  0  0  0  0  0
   48.3450   29.7480   48.7990 N   0  0  0  0  0  0  0  0  0  0  0  0
   43.6967   36.7667   44.7342 H   0  0  0  0  0  0  0  0  0  0  0  0
   44.9240   36.9008   42.5516 H   0  0  0  0  0  0  0  0  0  0  0  0
   46.6851   35.1591   42.0322 H   0  0  0  0  0  0  0  0  0  0  0  0
   45.0536   33.4747   47.8385 H   0  0  0  0  0  0  0  0  0  0  0  0
   46.8389   28.6065   47.9292 H   0  0  0  0  0  0  0  0  0  0  0  0
   48.5020   28.1905   47.4216 H   0  0  0  0  0  0  0  0  0  0  0  0
   48.0290   29.3039   49.6730 H   0  0  0  0  0  0  0  0  0  0  0  0
   49.3744   29.7442   48.7646 H   0  0  0  0  0  0  0  0  0  0  0  0
  1  6  2  0
  2  1  1  0
  3  2  2  0
  3  4  1  0
  4  5  2  0
  5  6  1  0
  5  7  1  0
  7  8  1  0
  8  9  2  0
 10  9  1  0
 11 10  2  0
 11 20  1  0
 12 11  1  0
 13 14  1  0
 13 12  2  0
 14 15  2  0
 15  7  1  0
 15 10  1  0
 16 19  1  0
 16 13  1  0
 17 16  1  0
 18 16  1  0
 20 21  1  0
  1 22  1  0
  2 23  1  0
  3 24  1  0
  8 25  1  0
 20 26  1  0
 20 27  1  0
 21 28  1  0
 21 29  1  0
M  ISO  8  22  14  23  14  24  14  25  14  26   8  27   8  28   5  29   5
M  END
>  <minimizedAffinity>  (1) 
-5.04516935

>  <minimizedRMSD>  (1) 
0.134301364

$$$$
