
     RDKit          3D

 41 45  0  0  0  0  0  0  0  0999 V2000
   44.4520   36.0280   44.4920 C   0  0  0  0  0  0  0  0  0  0  0  0
   45.1320   36.1160   43.2780 C   0  0  0  0  0  0  0  0  0  0  0  0
   46.1160   35.1560   42.9900 C   0  0  0  0  0  0  0  0  0  0  0  0
   46.3700   34.1870   43.8960 N   0  0  0  0  0  0  0  0  0  0  0  0
   45.6790   34.1270   45.0940 C   0  0  0  0  0  0  0  0  0  0  0  0
   44.7430   35.0470   45.3560 N   0  0  0  0  0  0  0  0  0  0  0  0
   46.0420   33.0540   45.9640 N   0  0  0  0  0  0  0  0  0  0  0  0
   45.7120   32.8530   47.2500 C   0  0  0  0  0  0  0  0  0  0  0  0
   46.2910   31.7060   47.6440 N   0  0  0  0  0  0  0  0  0  0  0  0
   46.9860   31.1620   46.6430 C   0  0  0  0  0  0  0  0  0  0  0  0
   47.7490   29.9980   46.5460 C   0  0  0  0  0  0  0  0  0  0  0  0
   48.3230   29.7550   45.3560 N   0  0  0  0  0  0  0  0  0  0  0  0
   48.1560   30.6080   44.3230 C   0  0  0  0  0  0  0  0  0  0  0  0
   47.4170   31.7500   44.3890 N   0  0  0  0  0  0  0  0  0  0  0  0
   46.8240   32.0240   45.5780 C   0  0  0  0  0  0  0  0  0  0  0  0
   48.8020   30.3310   42.9890 C   0  0  0  0  0  0  0  0  0  0  0  0
   48.7040   31.4490   42.1780 F   0  0  0  0  0  0  0  0  0  0  0  0
   48.1960   29.2660   42.3740 F   0  0  0  0  0  0  0  0  0  0  0  0
   50.1490   30.1150   43.1750 F   0  0  0  0  0  0  0  0  0  0  0  0
   47.9180   29.0770   47.6960 C   0  0  0  0  0  0  0  0  0  0  0  0
   49.2310   29.3860   48.3270 C   0  0  0  0  0  0  0  0  0  0  0  0
   50.5120   29.0020   48.0560 C   0  0  0  0  0  0  0  0  0  0  0  0
   51.3540   29.6000   48.9790 C   0  0  0  0  0  0  0  0  0  0  0  0
   50.5770   30.3310   49.7910 N   0  0  0  0  0  0  0  0  0  0  0  0
   49.3200   30.2010   49.4000 N   0  0  0  0  0  0  0  0  0  0  0  0
   51.4400   31.4700   53.0130 N   0  0  0  0  0  0  0  0  0  0  0  0
   51.1020   30.5440   52.1210 N   0  0  0  0  0  0  0  0  0  0  0  0
   50.9430   31.1410   50.9040 C   0  0  0  0  0  0  0  0  0  0  0  0
   51.1870   32.4950   51.0090 C   0  0  0  0  0  0  0  0  0  0  0  0
   51.4950   32.6570   52.3490 C   0  0  0  0  0  0  0  0  0  0  0  0
   43.6749   36.7658   44.7406 H   0  0  0  0  0  0  0  0  0  0  0  0
   44.9030   36.9191   42.5620 H   0  0  0  0  0  0  0  0  0  0  0  0
   46.6713   35.1928   42.0411 H   0  0  0  0  0  0  0  0  0  0  0  0
   45.0818   33.5085   47.8690 H   0  0  0  0  0  0  0  0  0  0  0  0
   47.1066   29.2305   48.4227 H   0  0  0  0  0  0  0  0  0  0  0  0
   47.8854   28.0295   47.3618 H   0  0  0  0  0  0  0  0  0  0  0  0
   50.8234   28.3309   47.2420 H   0  0  0  0  0  0  0  0  0  0  0  0
   52.4476   29.4955   49.0349 H   0  0  0  0  0  0  0  0  0  0  0  0
   51.6249   31.3183   54.0148 H   0  0  0  0  0  0  0  0  0  0  0  0
   51.1466   33.2600   50.2196 H   0  0  0  0  0  0  0  0  0  0  0  0
   51.7508   33.6194   52.8162 H   0  0  0  0  0  0  0  0  0  0  0  0
  1  6  2  0
  2  1  1  0
  3  2  2  0
  3  4  1  0
  4  5  2  0
  5  6  1  0
  5  7  1  0
  7  8  1  0
  8  9  2  0
 10  9  1  0
 11 10  2  0
 11 20  1  0
 12 11  1  0
 13 14  1  0
 13 12  2  0
 14 15  2  0
 15  7  1  0
 15 10  1  0
 16 19  1  0
 16 13  1  0
 17 16  1  0
 18 16  1  0
 20 21  1  0
 21 25  2  0
 22 21  1  0
 22 23  2  0
 23 24  1  0
 24 28  1  0
 25 24  1  0
 27 26  1  0
 28 29  1  0
 28 27  2  0
 29 30  2  0
 30 26  1  0
  1 31  1  0
  2 32  1  0
  3 33  1  0
  8 34  1  0
 20 35  1  0
 20 36  1  0
 22 37  1  0
 23 38  1  0
 26 39  1  0
 29 40  1  0
 30 41  1  0
M  ISO  8  31  14  32  14  33  14  34  14  35   8  36   8  37  14  38  14
M  ISO  3  39   9  40  14  41  14
M  END
>  <minimizedAffinity>  (1) 
-6.61293554

>  <minimizedRMSD>  (1) 
0.884847701

$$$$
