
     RDKit          3D

 41 45  0  0  0  0  0  0  0  0999 V2000
   44.4280   36.1530   44.2560 C   0  0  0  0  0  0  0  0  0  0  0  0
   45.1270   36.1960   43.0520 C   0  0  0  0  0  0  0  0  0  0  0  0
   46.1140   35.2170   42.8300 C   0  0  0  0  0  0  0  0  0  0  0  0
   46.3410   34.2890   43.7750 N   0  0  0  0  0  0  0  0  0  0  0  0
   45.6330   34.2770   44.9500 C   0  0  0  0  0  0  0  0  0  0  0  0
   44.6890   35.2040   45.1760 N   0  0  0  0  0  0  0  0  0  0  0  0
   45.9700   33.2330   45.8820 N   0  0  0  0  0  0  0  0  0  0  0  0
   45.6050   33.0870   47.1670 C   0  0  0  0  0  0  0  0  0  0  0  0
   46.1690   31.9570   47.6170 N   0  0  0  0  0  0  0  0  0  0  0  0
   46.8860   31.3710   46.6580 C   0  0  0  0  0  0  0  0  0  0  0  0
   47.6490   30.2050   46.6140 C   0  0  0  0  0  0  0  0  0  0  0  0
   48.2470   29.9120   45.4640 N   0  0  0  0  0  0  0  0  0  0  0  0
   48.1080   30.7280   44.3850 C   0  0  0  0  0  0  0  0  0  0  0  0
   47.3730   31.8720   44.3910 N   0  0  0  0  0  0  0  0  0  0  0  0
   46.7550   32.1860   45.5600 C   0  0  0  0  0  0  0  0  0  0  0  0
   48.7920   30.3870   43.0810 C   0  0  0  0  0  0  0  0  0  0  0  0
   48.8000   31.4940   42.2640 F   0  0  0  0  0  0  0  0  0  0  0  0
   48.1230   29.3710   42.4450 F   0  0  0  0  0  0  0  0  0  0  0  0
   50.1020   30.0680   43.3230 F   0  0  0  0  0  0  0  0  0  0  0  0
   47.7910   29.3230   47.8000 C   0  0  0  0  0  0  0  0  0  0  0  0
   49.0980   29.6310   48.4440 C   0  0  0  0  0  0  0  0  0  0  0  0
   50.3140   29.0120   48.3880 C   0  0  0  0  0  0  0  0  0  0  0  0
   51.1920   29.7250   49.1880 C   0  0  0  0  0  0  0  0  0  0  0  0
   50.5070   30.7520   49.7110 N   0  0  0  0  0  0  0  0  0  0  0  0
   49.2620   30.6780   49.2570 N   0  0  0  0  0  0  0  0  0  0  0  0
   50.9350   31.7780   50.5930 C   0  0  0  0  0  0  0  0  0  0  0  0
   51.2790   33.1000   50.3240 C   0  0  0  0  0  0  0  0  0  0  0  0
   51.6140   33.6250   51.5560 C   0  0  0  0  0  0  0  0  0  0  0  0
   51.4660   32.6240   52.5100 C   0  0  0  0  0  0  0  0  0  0  0  0
   51.0590   31.5350   51.8900 O   0  0  0  0  0  0  0  0  0  0  0  0
   43.6513   36.9051   44.4587 H   0  0  0  0  0  0  0  0  0  0  0  0
   44.9148   36.9696   42.2993 H   0  0  0  0  0  0  0  0  0  0  0  0
   46.6924   35.2118   41.8943 H   0  0  0  0  0  0  0  0  0  0  0  0
   44.9622   33.7687   47.7432 H   0  0  0  0  0  0  0  0  0  0  0  0
   46.9711   29.5136   48.5081 H   0  0  0  0  0  0  0  0  0  0  0  0
   47.7513   28.2658   47.4989 H   0  0  0  0  0  0  0  0  0  0  0  0
   50.5539   28.1074   47.8100 H   0  0  0  0  0  0  0  0  0  0  0  0
   52.2529   29.4920   49.3617 H   0  0  0  0  0  0  0  0  0  0  0  0
   51.2830   33.6108   49.3498 H   0  0  0  0  0  0  0  0  0  0  0  0
   51.9415   34.6571   51.7497 H   0  0  0  0  0  0  0  0  0  0  0  0
   51.6549   32.7236   53.5891 H   0  0  0  0  0  0  0  0  0  0  0  0
  1  6  2  0
  2  1  1  0
  3  2  2  0
  3  4  1  0
  4  5  2  0
  5  6  1  0
  5  7  1  0
  7  8  1  0
  8  9  2  0
 10  9  1  0
 11 10  2  0
 11 20  1  0
 12 11  1  0
 13 14  1  0
 13 12  2  0
 14 15  2  0
 15  7  1  0
 15 10  1  0
 16 19  1  0
 16 13  1  0
 17 16  1  0
 18 16  1  0
 20 21  1  0
 21 25  2  0
 22 21  1  0
 22 23  2  0
 23 24  1  0
 24 26  1  0
 25 24  1  0
 26 30  1  0
 27 26  2  0
 27 28  1  0
 28 29  2  0
 30 29  1  0
  1 31  1  0
  2 32  1  0
  3 33  1  0
  8 34  1  0
 20 35  1  0
 20 36  1  0
 22 37  1  0
 23 38  1  0
 27 39  1  0
 28 40  1  0
 29 41  1  0
M  ISO  8  31  14  32  14  33  14  34  14  35   8  36   8  37  14  38  14
M  ISO  3  39  14  40  14  41  14
M  END
>  <minimizedAffinity>  (1) 
-6.36012173

>  <minimizedRMSD>  (1) 
0.919677317

$$$$
