
     RDKit          3D

 41 45  0  0  0  0  0  0  0  0999 V2000
   44.4460   36.0280   44.4280 C   0  0  0  0  0  0  0  0  0  0  0  0
   45.1380   36.0990   43.2140 C   0  0  0  0  0  0  0  0  0  0  0  0
   46.1380   35.1330   42.9560 C   0  0  0  0  0  0  0  0  0  0  0  0
   46.3910   34.1890   43.8690 N   0  0  0  0  0  0  0  0  0  0  0  0
   45.6800   34.1550   45.0610 C   0  0  0  0  0  0  0  0  0  0  0  0
   44.7350   35.0580   45.3190 N   0  0  0  0  0  0  0  0  0  0  0  0
   46.0390   33.0930   45.9670 N   0  0  0  0  0  0  0  0  0  0  0  0
   45.7050   32.9150   47.2460 C   0  0  0  0  0  0  0  0  0  0  0  0
   46.2790   31.7810   47.6700 N   0  0  0  0  0  0  0  0  0  0  0  0
   46.9850   31.2100   46.6870 C   0  0  0  0  0  0  0  0  0  0  0  0
   47.7460   30.0480   46.6230 C   0  0  0  0  0  0  0  0  0  0  0  0
   48.3250   29.7850   45.4430 N   0  0  0  0  0  0  0  0  0  0  0  0
   48.1650   30.6150   44.3930 C   0  0  0  0  0  0  0  0  0  0  0  0
   47.4280   31.7530   44.4330 N   0  0  0  0  0  0  0  0  0  0  0  0
   46.8260   32.0500   45.6100 C   0  0  0  0  0  0  0  0  0  0  0  0
   48.8240   30.3060   43.0680 C   0  0  0  0  0  0  0  0  0  0  0  0
   48.7280   31.4040   42.2340 F   0  0  0  0  0  0  0  0  0  0  0  0
   48.2180   29.2420   42.4650 F   0  0  0  0  0  0  0  0  0  0  0  0
   50.1570   30.0900   43.2660 F   0  0  0  0  0  0  0  0  0  0  0  0
   47.9130   29.1500   47.7800 C   0  0  0  0  0  0  0  0  0  0  0  0
   49.1890   29.5150   48.4510 C   0  0  0  0  0  0  0  0  0  0  0  0
   50.4600   28.9980   48.3880 C   0  0  0  0  0  0  0  0  0  0  0  0
   51.2760   29.7340   49.2320 C   0  0  0  0  0  0  0  0  0  0  0  0
   50.4900   30.6810   49.7920 N   0  0  0  0  0  0  0  0  0  0  0  0
   49.2630   30.5350   49.3180 N   0  0  0  0  0  0  0  0  0  0  0  0
   50.9760   31.6500   50.7340 C   0  0  0  0  0  0  0  0  0  0  0  0
   51.1830   31.5610   52.0420 C   0  0  0  0  0  0  0  0  0  0  0  0
   51.6620   32.6470   52.7370 C   0  0  0  0  0  0  0  0  0  0  0  0
   51.8960   33.7770   52.0000 C   0  0  0  0  0  0  0  0  0  0  0  0
   51.4310   33.2890   50.3110 S   0  0  0  0  0  0  0  0  0  0  0  0
   43.6632   36.7663   44.6565 H   0  0  0  0  0  0  0  0  0  0  0  0
   44.9101   36.8856   42.4796 H   0  0  0  0  0  0  0  0  0  0  0  0
   46.7029   35.1578   42.0125 H   0  0  0  0  0  0  0  0  0  0  0  0
   45.0698   33.5821   47.8472 H   0  0  0  0  0  0  0  0  0  0  0  0
   47.0723   29.2770   48.4780 H   0  0  0  0  0  0  0  0  0  0  0  0
   47.9341   28.0996   47.4543 H   0  0  0  0  0  0  0  0  0  0  0  0
   50.7766   28.1438   47.7715 H   0  0  0  0  0  0  0  0  0  0  0  0
   52.3502   29.5787   49.4110 H   0  0  0  0  0  0  0  0  0  0  0  0
   50.9716   30.6194   52.5699 H   0  0  0  0  0  0  0  0  0  0  0  0
   51.8462   32.6099   53.8208 H   0  0  0  0  0  0  0  0  0  0  0  0
   52.2753   34.7494   52.3472 H   0  0  0  0  0  0  0  0  0  0  0  0
  1  6  2  0
  2  1  1  0
  3  2  2  0
  3  4  1  0
  4  5  2  0
  5  6  1  0
  5  7  1  0
  7  8  1  0
  8  9  2  0
 10  9  1  0
 11 10  2  0
 11 20  1  0
 12 11  1  0
 13 14  1  0
 13 12  2  0
 14 15  2  0
 15  7  1  0
 15 10  1  0
 16 19  1  0
 16 13  1  0
 17 16  1  0
 18 16  1  0
 20 21  1  0
 21 25  2  0
 22 21  1  0
 22 23  2  0
 23 24  1  0
 24 26  1  0
 25 24  1  0
 26 27  2  0
 27 28  1  0
 29 28  2  0
 30 26  1  0
 30 29  1  0
  1 31  1  0
  2 32  1  0
  3 33  1  0
  8 34  1  0
 20 35  1  0
 20 36  1  0
 22 37  1  0
 23 38  1  0
 27 39  1  0
 28 40  1  0
 29 41  1  0
M  ISO  8  31  14  32  14  33  14  34  14  35   8  36   8  37  14  38  14
M  ISO  3  39  14  40  14  41  14
M  END
>  <minimizedAffinity>  (1) 
-6.26869154

>  <minimizedRMSD>  (1) 
0.853984356

$$$$
