
     RDKit          3D

 41 45  0  0  0  0  0  0  0  0999 V2000
   44.4410   36.1430   44.2640 C   0  0  0  0  0  0  0  0  0  0  0  0
   45.1580   36.1950   43.0550 C   0  0  0  0  0  0  0  0  0  0  0  0
   46.1540   35.2150   42.8160 C   0  0  0  0  0  0  0  0  0  0  0  0
   46.3610   34.2780   43.7720 N   0  0  0  0  0  0  0  0  0  0  0  0
   45.6400   34.2640   44.9380 C   0  0  0  0  0  0  0  0  0  0  0  0
   44.6960   35.1940   45.1620 N   0  0  0  0  0  0  0  0  0  0  0  0
   45.9680   33.2130   45.8580 N   0  0  0  0  0  0  0  0  0  0  0  0
   45.5890   33.0570   47.1450 C   0  0  0  0  0  0  0  0  0  0  0  0
   46.1500   31.9220   47.5850 N   0  0  0  0  0  0  0  0  0  0  0  0
   46.8720   31.3430   46.6370 C   0  0  0  0  0  0  0  0  0  0  0  0
   47.6300   30.1750   46.6000 C   0  0  0  0  0  0  0  0  0  0  0  0
   48.2420   29.8920   45.4380 N   0  0  0  0  0  0  0  0  0  0  0  0
   48.1160   30.7080   44.3740 C   0  0  0  0  0  0  0  0  0  0  0  0
   47.3850   31.8530   44.3790 N   0  0  0  0  0  0  0  0  0  0  0  0
   46.7550   32.1640   45.5420 C   0  0  0  0  0  0  0  0  0  0  0  0
   48.8050   30.3850   43.0750 C   0  0  0  0  0  0  0  0  0  0  0  0
   48.7000   31.4620   42.2030 F   0  0  0  0  0  0  0  0  0  0  0  0
   48.2360   29.2860   42.4910 F   0  0  0  0  0  0  0  0  0  0  0  0
   50.1360   30.2010   43.2980 F   0  0  0  0  0  0  0  0  0  0  0  0
   47.7590   29.2900   47.7720 C   0  0  0  0  0  0  0  0  0  0  0  0
   48.9980   29.6610   48.4950 C   0  0  0  0  0  0  0  0  0  0  0  0
   50.2650   29.1250   48.4900 C   0  0  0  0  0  0  0  0  0  0  0  0
   51.0370   29.8780   49.3640 C   0  0  0  0  0  0  0  0  0  0  0  0
   50.2460   30.8390   49.8750 N   0  0  0  0  0  0  0  0  0  0  0  0
   49.0440   30.6930   49.3470 N   0  0  0  0  0  0  0  0  0  0  0  0
   50.6880   31.8420   50.8390 C   0  0  0  0  0  0  0  0  0  0  0  0
   51.2690   33.1310   50.3030 C   0  0  0  0  0  0  0  0  0  0  0  0
   52.1090   32.1480   51.0220 C   0  0  0  0  0  0  0  0  0  0  0  0
   43.6629   36.8930   44.4692 H   0  0  0  0  0  0  0  0  0  0  0  0
   44.9505   36.9787   42.3115 H   0  0  0  0  0  0  0  0  0  0  0  0
   46.7395   35.2155   41.8848 H   0  0  0  0  0  0  0  0  0  0  0  0
   44.9422   33.7336   47.7228 H   0  0  0  0  0  0  0  0  0  0  0  0
   46.8891   29.4176   48.4331 H   0  0  0  0  0  0  0  0  0  0  0  0
   47.8048   28.2385   47.4522 H   0  0  0  0  0  0  0  0  0  0  0  0
   50.6038   28.2594   47.9019 H   0  0  0  0  0  0  0  0  0  0  0  0
   52.1003   29.7183   49.5962 H   0  0  0  0  0  0  0  0  0  0  0  0
   49.8778   31.5536   51.5249 H   0  0  0  0  0  0  0  0  0  0  0  0
   51.3902   33.2753   49.2193 H   0  0  0  0  0  0  0  0  0  0  0  0
   51.0421   34.2015   50.4148 H   0  0  0  0  0  0  0  0  0  0  0  0
   52.4900   32.3875   52.0257 H   0  0  0  0  0  0  0  0  0  0  0  0
   53.0442   31.6194   50.7853 H   0  0  0  0  0  0  0  0  0  0  0  0
  1  6  2  0
  2  1  1  0
  3  2  2  0
  3  4  1  0
  4  5  2  0
  5  6  1  0
  5  7  1  0
  7  8  1  0
  8  9  2  0
 10  9  1  0
 11 10  2  0
 11 20  1  0
 12 11  1  0
 13 14  1  0
 13 12  2  0
 14 15  2  0
 15  7  1  0
 15 10  1  0
 16 19  1  0
 16 13  1  0
 17 16  1  0
 18 16  1  0
 20 21  1  0
 21 25  2  0
 22 21  1  0
 22 23  2  0
 23 24  1  0
 24 26  1  0
 25 24  1  0
 26 28  1  0
 27 26  1  0
 27 28  1  0
  1 29  1  0
  2 30  1  0
  3 31  1  0
  8 32  1  0
 20 33  1  0
 20 34  1  0
 22 35  1  0
 23 36  1  0
 26 37  1  0
 27 38  1  0
 27 39  1  0
 28 40  1  0
 28 41  1  0
M  ISO  8  29  14  30  14  31  14  32  14  33   8  34   8  35  14  36  14
M  ISO  5  37  13  38  13  39  13  40  13  41  13
M  END
>  <minimizedAffinity>  (1) 
-5.8267889

>  <minimizedRMSD>  (1) 
0.787156463

$$$$
