
     RDKit          3D

 22 23  0  0  0  0  0  0  0  0999 V2000
   46.2750   32.7800   45.5120 C   0  0  0  0  0  0  0  0  0  0  0  0
   45.9580   32.6090   46.8490 C   0  0  0  0  0  0  0  0  0  0  0  0
   46.3640   31.4810   47.5580 C   0  0  0  0  0  0  0  0  0  0  0  0
   47.0920   30.5700   46.8340 C   0  0  0  0  0  0  0  0  0  0  0  0
   47.4290   30.6980   45.5120 C   0  0  0  0  0  0  0  0  0  0  0  0
   46.9860   31.8180   44.9380 N   0  0  0  0  0  0  0  0  0  0  0  0
   44.5120   35.8860   44.7260 C   0  0  0  0  0  0  0  0  0  0  0  0
   45.0070   36.2210   43.4420 C   0  0  0  0  0  0  0  0  0  0  0  0
   45.9410   35.3630   42.8760 C   0  0  0  0  0  0  0  0  0  0  0  0
   46.3440   34.2540   43.5560 N   0  0  0  0  0  0  0  0  0  0  0  0
   45.8350   33.9710   44.8000 C   0  0  0  0  0  0  0  0  0  0  0  0
   44.9410   34.7910   45.3410 N   0  0  0  0  0  0  0  0  0  0  0  0
   46.0550   31.2460   48.9860 C   0  0  0  0  0  0  0  0  0  0  0  0
   45.6530   32.4290   49.6150 F   0  0  0  0  0  0  0  0  0  0  0  0
   47.1790   30.8020   49.6570 F   0  0  0  0  0  0  0  0  0  0  0  0
   45.0250   30.3620   49.1570 F   0  0  0  0  0  0  0  0  0  0  0  0
   45.3708   33.3835   47.3641 H   0  0  0  0  0  0  0  0  0  0  0  0
   47.4323   29.6642   47.3572 H   0  0  0  0  0  0  0  0  0  0  0  0
   48.0152   29.9414   44.9699 H   0  0  0  0  0  0  0  0  0  0  0  0
   43.7703   36.5349   45.2146 H   0  0  0  0  0  0  0  0  0  0  0  0
   44.6656   37.1239   42.9146 H   0  0  0  0  0  0  0  0  0  0  0  0
   46.3547   35.5789   41.8799 H   0  0  0  0  0  0  0  0  0  0  0  0
  1  2  2  0
  2  3  1  0
  3 13  1  0
  4  3  2  0
  5  4  1  0
  6  1  1  0
  6  5  2  0
  7 12  2  0
  8  7  1  0
  9  8  2  0
  9 10  1  0
 10 11  2  0
 11 12  1  0
 11  1  1  0
 13 16  1  0
 13 14  1  0
 13 15  1  0
  2 17  1  0
  4 18  1  0
  5 19  1  0
  7 20  1  0
  8 21  1  0
  9 22  1  0
M  ISO  6  17  14  18  14  19  14  20  14  21  14  22  14
M  END
>  <minimizedAffinity>  (1) 
-5.23921919

>  <minimizedRMSD>  (1) 
1.77335572

$$$$
