
     RDKit          3D

 31 32  0  0  0  0  0  0  0  0999 V2000
   46.4630   32.7530   45.0250 C   0  0  0  0  0  0  0  0  0  0  0  0
   46.2320   32.4600   46.3680 C   0  0  0  0  0  0  0  0  0  0  0  0
   46.6930   31.3030   46.9590 C   0  0  0  0  0  0  0  0  0  0  0  0
   47.3980   30.4620   46.1180 C   0  0  0  0  0  0  0  0  0  0  0  0
   47.6470   30.7210   44.7800 C   0  0  0  0  0  0  0  0  0  0  0  0
   47.1570   31.8820   44.2830 N   0  0  0  0  0  0  0  0  0  0  0  0
   44.5650   35.8530   44.6140 C   0  0  0  0  0  0  0  0  0  0  0  0
   44.9970   36.3280   43.3440 C   0  0  0  0  0  0  0  0  0  0  0  0
   45.9360   35.5730   42.6450 C   0  0  0  0  0  0  0  0  0  0  0  0
   46.3950   34.4170   43.2150 N   0  0  0  0  0  0  0  0  0  0  0  0
   45.9530   33.9950   44.4420 C   0  0  0  0  0  0  0  0  0  0  0  0
   45.0450   34.7130   45.1290 N   0  0  0  0  0  0  0  0  0  0  0  0
   46.4260   31.0370   48.3740 C   0  0  0  0  0  0  0  0  0  0  0  0
   47.7010   30.7210   49.1210 C   0  0  0  0  0  0  0  0  0  0  0  0
   45.4630   29.8540   48.4290 C   0  0  0  0  0  0  0  0  0  0  0  0
   45.7690   32.2080   49.0760 C   0  0  0  0  0  0  0  0  0  0  0  0
   45.6621   33.1768   46.9774 H   0  0  0  0  0  0  0  0  0  0  0  0
   47.7876   29.5237   46.5398 H   0  0  0  0  0  0  0  0  0  0  0  0
   48.2146   30.0185   44.1521 H   0  0  0  0  0  0  0  0  0  0  0  0
   43.8233   36.4324   45.1834 H   0  0  0  0  0  0  0  0  0  0  0  0
   44.6005   37.2651   42.9260 H   0  0  0  0  0  0  0  0  0  0  0  0
   46.2995   35.8982   41.6590 H   0  0  0  0  0  0  0  0  0  0  0  0
   47.5128   30.7677   50.2038 H   0  0  0  0  0  0  0  0  0  0  0  0
   48.0431   29.7109   48.8515 H   0  0  0  0  0  0  0  0  0  0  0  0
   48.4752   31.4544   48.8515 H   0  0  0  0  0  0  0  0  0  0  0  0
   45.2553   29.5988   49.4786 H   0  0  0  0  0  0  0  0  0  0  0  0
   44.5233   30.1223   47.9240 H   0  0  0  0  0  0  0  0  0  0  0  0
   45.9164   28.9883   47.9240 H   0  0  0  0  0  0  0  0  0  0  0  0
   45.8451   32.0723   50.1649 H   0  0  0  0  0  0  0  0  0  0  0  0
   46.2757   33.1404   48.7864 H   0  0  0  0  0  0  0  0  0  0  0  0
   44.7092   32.2614   48.7864 H   0  0  0  0  0  0  0  0  0  0  0  0
  1  2  2  0
  2  3  1  0
  3 13  1  0
  4  3  2  0
  5  4  1  0
  6  5  2  0
  6  1  1  0
  7 12  2  0
  8  7  1  0
  9 10  1  0
  9  8  2  0
 10 11  2  0
 11  1  1  0
 11 12  1  0
 13 15  1  0
 13 16  1  0
 13 14  1  0
  2 17  1  0
  4 18  1  0
  5 19  1  0
  7 20  1  0
  8 21  1  0
  9 22  1  0
 14 23  1  0
 14 24  1  0
 14 25  1  0
 15 26  1  0
 15 27  1  0
 15 28  1  0
 16 29  1  0
 16 30  1  0
 16 31  1  0
M  ISO  8  17  14  18  14  19  14  20  14  21  14  22  14  23   8  24   8
M  ISO  7  25   8  26   8  27   8  28   8  29   8  30   8  31   8
M  END
>  <minimizedAffinity>  (1) 
-4.80566454

>  <minimizedRMSD>  (1) 
2.31471467

$$$$
