
     RDKit          3D

 20 21  0  0  0  0  0  0  0  0999 V2000
   46.1730   32.8810   45.6740 C   0  0  0  0  0  0  0  0  0  0  0  0
   45.6630   32.7150   46.9470 C   0  0  0  0  0  0  0  0  0  0  0  0
   46.0210   31.6280   47.7360 C   0  0  0  0  0  0  0  0  0  0  0  0
   46.9040   30.7390   47.1790 C   0  0  0  0  0  0  0  0  0  0  0  0
   47.4320   30.8690   45.9230 C   0  0  0  0  0  0  0  0  0  0  0  0
   47.0250   31.9480   45.2450 N   0  0  0  0  0  0  0  0  0  0  0  0
   44.5060   35.9400   44.5940 C   0  0  0  0  0  0  0  0  0  0  0  0
   45.0650   36.1830   43.3180 C   0  0  0  0  0  0  0  0  0  0  0  0
   46.0130   35.2790   42.8550 C   0  0  0  0  0  0  0  0  0  0  0  0
   46.3640   34.2140   43.6250 N   0  0  0  0  0  0  0  0  0  0  0  0
   45.7920   34.0220   44.8590 C   0  0  0  0  0  0  0  0  0  0  0  0
   44.8850   34.8850   45.3050 N   0  0  0  0  0  0  0  0  0  0  0  0
   45.3800   31.3780   49.3930 S   0  0  0  0  0  0  0  0  0  0  0  0
   44.9579   33.4595   47.3452 H   0  0  0  0  0  0  0  0  0  0  0  0
   47.2066   29.8678   47.7785 H   0  0  0  0  0  0  0  0  0  0  0  0
   48.1394   30.1395   45.5018 H   0  0  0  0  0  0  0  0  0  0  0  0
   43.7518   36.6300   45.0003 H   0  0  0  0  0  0  0  0  0  0  0  0
   44.7616   37.0525   42.7164 H   0  0  0  0  0  0  0  0  0  0  0  0
   46.4783   35.4240   41.8689 H   0  0  0  0  0  0  0  0  0  0  0  0
   46.3282   31.7478   50.3101 H   0  0  0  0  0  0  0  0  0  0  0  0
  1  2  2  0
  2  3  1  0
  3 13  1  0
  4  3  2  0
  5  4  1  0
  6  1  1  0
  6  5  2  0
  7 12  2  0
  8  7  1  0
  9  8  2  0
  9 10  1  0
 10 11  2  0
 11 12  1  0
 11  1  1  0
  2 14  1  0
  4 15  1  0
  5 16  1  0
  7 17  1  0
  8 18  1  0
  9 19  1  0
 13 20  1  0
M  ISO  7  14  14  15  14  16  14  17  14  18  14  19  14  20  11
M  END
>  <minimizedAffinity>  (1) 
-4.42162085

>  <minimizedRMSD>  (1) 
1.34267342

$$$$
