
     RDKit          3D

 41 44  0  0  0  0  0  0  0  0999 V2000
   44.9370   35.4850   45.0750 C   0  0  0  0  0  0  0  0  0  0  0  0
   44.1620   35.6670   43.9040 C   0  0  0  0  0  0  0  0  0  0  0  0
   44.1750   34.6620   42.9570 C   0  0  0  0  0  0  0  0  0  0  0  0
   44.9080   33.5430   43.1490 N   0  0  0  0  0  0  0  0  0  0  0  0
   45.6550   33.3760   44.2850 C   0  0  0  0  0  0  0  0  0  0  0  0
   45.6610   34.3500   45.2350 N   0  0  0  0  0  0  0  0  0  0  0  0
   43.3870   34.8680   41.7910 N   0  0  0  0  0  0  0  0  0  0  0  0
   42.1030   35.2530   41.7330 C   0  0  0  0  0  0  0  0  0  0  0  0
   41.4870   35.4070   40.5130 C   0  0  0  0  0  0  0  0  0  0  0  0
   42.1420   35.1810   39.3340 C   0  0  0  0  0  0  0  0  0  0  0  0
   41.5960   35.3170   38.2090 O   0  0  0  0  0  0  0  0  0  0  0  0
   43.4350   34.7950   39.4270 N   0  0  0  0  0  0  0  0  0  0  0  0
   44.0440   34.6420   40.6370 C   0  0  0  0  0  0  0  0  0  0  0  0
   45.2570   34.2770   40.5560 O   0  0  0  0  0  0  0  0  0  0  0  0
   40.0780   35.8290   40.4650 C   0  0  0  0  0  0  0  0  0  0  0  0
   46.4370   32.1770   44.4850 C   0  0  0  0  0  0  0  0  0  0  0  0
   47.0500   31.3900   43.5060 C   0  0  0  0  0  0  0  0  0  0  0  0
   47.6940   30.3470   44.0770 N   0  0  0  0  0  0  0  0  0  0  0  0
   47.4740   30.4920   45.4270 C   0  0  0  0  0  0  0  0  0  0  0  0
   46.7230   31.5850   45.6640 N   0  0  0  0  0  0  0  0  0  0  0  0
   47.9890   29.5810   46.4450 C   0  0  0  0  0  0  0  0  0  0  0  0
   49.0630   29.7510   47.2940 C   0  0  0  0  0  0  0  0  0  0  0  0
   49.3820   28.7510   48.1910 C   0  0  0  0  0  0  0  0  0  0  0  0
   48.6620   27.6060   48.2570 N   0  0  0  0  0  0  0  0  0  0  0  0
   47.6040   27.4590   47.4080 C   0  0  0  0  0  0  0  0  0  0  0  0
   47.2780   28.4200   46.5280 N   0  0  0  0  0  0  0  0  0  0  0  0
   46.2820   32.0710   46.9490 C   0  0  0  0  0  0  0  0  0  0  0  0
   46.1810   31.0330   47.9040 F   0  0  0  0  0  0  0  0  0  0  0  0
   45.0310   32.6970   46.8860 F   0  0  0  0  0  0  0  0  0  0  0  0
   47.2140   32.9350   47.4980 F   0  0  0  0  0  0  0  0  0  0  0  0
   44.9516   36.2626   45.8529 H   0  0  0  0  0  0  0  0  0  0  0  0
   43.5681   36.5805   43.7533 H   0  0  0  0  0  0  0  0  0  0  0  0
   41.5435   35.4453   42.6604 H   0  0  0  0  0  0  0  0  0  0  0  0
   43.9704   34.6130   38.5661 H   0  0  0  0  0  0  0  0  0  0  0  0
   39.6945   35.9438   41.4896 H   0  0  0  0  0  0  0  0  0  0  0  0
   40.0008   36.7897   39.9348 H   0  0  0  0  0  0  0  0  0  0  0  0
   39.4854   35.0689   39.9348 H   0  0  0  0  0  0  0  0  0  0  0  0
   47.0137   31.5905   42.4250 H   0  0  0  0  0  0  0  0  0  0  0  0
   49.6595   30.6744   47.2567 H   0  0  0  0  0  0  0  0  0  0  0  0
   50.2394   28.8873   48.8665 H   0  0  0  0  0  0  0  0  0  0  0  0
   47.0067   26.5360   47.4449 H   0  0  0  0  0  0  0  0  0  0  0  0
  1  6  2  0
  2  1  1  0
  3  4  1  0
  3  2  2  0
  4  5  2  0
  5 16  1  0
  5  6  1  0
  7  3  1  0
  8  7  1  0
  9  8  2  0
 10 12  1  0
 10  9  1  0
 11 10  2  0
 12 13  1  0
 13  7  1  0
 14 13  2  0
 15  9  1  0
 16 20  1  0
 17 18  1  0
 17 16  2  0
 18 19  2  0
 19 20  1  0
 19 21  1  0
 20 27  1  0
 21 26  1  0
 21 22  2  0
 22 23  1  0
 23 24  2  0
 25 24  1  0
 26 25  2  0
 27 30  1  0
 27 28  1  0
 29 27  1  0
  1 31  1  0
  2 32  1  0
  8 33  1  0
 12 34  1  0
 15 35  1  0
 15 36  1  0
 15 37  1  0
 17 38  1  0
 22 39  1  0
 23 40  1  0
 25 41  1  0
M  ISO  8  31  14  32  14  33  14  34   9  35   8  36   8  37   8  38  14
M  ISO  3  39  14  40  14  41  14
M  END
>  <minimizedAffinity>  (1) 
-6.2147727

>  <minimizedRMSD>  (1) 
1.00857413

$$$$
