
     RDKit          3D

 26 28  0  0  0  0  0  0  0  0999 V2000
   45.9300   32.8560   43.5240 C   0  0  0  0  0  0  0  0  0  0  0  0
   45.6100   32.7110   44.8570 C   0  0  0  0  0  0  0  0  0  0  0  0
   46.3230   31.9170   45.7270 C   0  0  0  0  0  0  0  0  0  0  0  0
   47.3930   31.2710   45.1640 C   0  0  0  0  0  0  0  0  0  0  0  0
   47.7610   31.3790   43.8330 C   0  0  0  0  0  0  0  0  0  0  0  0
   46.9970   32.1790   43.0760 N   0  0  0  0  0  0  0  0  0  0  0  0
   43.9700   35.6580   42.2950 C   0  0  0  0  0  0  0  0  0  0  0  0
   43.6820   35.3180   40.9610 C   0  0  0  0  0  0  0  0  0  0  0  0
   44.1730   34.1090   40.4890 C   0  0  0  0  0  0  0  0  0  0  0  0
   44.8990   33.3350   41.3470 N   0  0  0  0  0  0  0  0  0  0  0  0
   45.1560   33.7010   42.6360 C   0  0  0  0  0  0  0  0  0  0  0  0
   44.6830   34.8730   43.1030 N   0  0  0  0  0  0  0  0  0  0  0  0
   45.9870   31.7620   47.1360 C   0  0  0  0  0  0  0  0  0  0  0  0
   46.7060   32.2120   48.2060 C   0  0  0  0  0  0  0  0  0  0  0  0
   46.0280   31.8490   49.3320 N   0  0  0  0  0  0  0  0  0  0  0  0
   44.9050   31.1820   48.9460 C   0  0  0  0  0  0  0  0  0  0  0  0
   44.8890   31.1340   47.5910 N   0  0  0  0  0  0  0  0  0  0  0  0
   44.7390   33.2586   45.2462 H   0  0  0  0  0  0  0  0  0  0  0  0
   48.0004   30.6231   45.8131 H   0  0  0  0  0  0  0  0  0  0  0  0
   48.6278   30.8408   43.4220 H   0  0  0  0  0  0  0  0  0  0  0  0
   43.5907   36.6126   42.6886 H   0  0  0  0  0  0  0  0  0  0  0  0
   43.0903   35.9848   40.3166 H   0  0  0  0  0  0  0  0  0  0  0  0
   43.9829   33.7846   39.4553 H   0  0  0  0  0  0  0  0  0  0  0  0
   47.6561   32.7649   48.1669 H   0  0  0  0  0  0  0  0  0  0  0  0
   44.1438   30.7565   49.6165 H   0  0  0  0  0  0  0  0  0  0  0  0
   44.1614   30.6927   47.0107 H   0  0  0  0  0  0  0  0  0  0  0  0
  1  2  2  0
  2  3  1  0
  3 13  1  0
  4  3  2  0
  5  4  1  0
  6  1  1  0
  6  5  2  0
  7 12  2  0
  8  7  1  0
  9  8  2  0
  9 10  1  0
 10 11  2  0
 11 12  1  0
 11  1  1  0
 13 17  1  0
 13 14  2  0
 14 15  1  0
 16 15  2  0
 17 16  1  0
  2 18  1  0
  4 19  1  0
  5 20  1  0
  7 21  1  0
  8 22  1  0
  9 23  1  0
 14 24  1  0
 16 25  1  0
 17 26  1  0
M  ISO  8  18  14  19  14  20  14  21  14  22  14  23  14  24  14  25  14
M  ISO  1  26   9
M  END
>  <minimizedAffinity>  (1) 
-4.16297626

>  <minimizedRMSD>  (1) 
3.44799399

$$$$
