
     RDKit          3D

 26 28  0  0  0  0  0  0  0  0999 V2000
   46.0530   32.8890   43.9930 C   0  0  0  0  0  0  0  0  0  0  0  0
   45.6880   32.5900   45.2980 C   0  0  0  0  0  0  0  0  0  0  0  0
   46.3440   31.6150   46.0400 C   0  0  0  0  0  0  0  0  0  0  0  0
   47.3710   30.9800   45.3880 C   0  0  0  0  0  0  0  0  0  0  0  0
   47.7600   31.2490   44.1020 C   0  0  0  0  0  0  0  0  0  0  0  0
   47.0770   32.2050   43.4460 N   0  0  0  0  0  0  0  0  0  0  0  0
   44.8760   36.1590   42.9200 C   0  0  0  0  0  0  0  0  0  0  0  0
   44.0690   35.8980   41.7960 C   0  0  0  0  0  0  0  0  0  0  0  0
   43.9440   34.5670   41.4210 C   0  0  0  0  0  0  0  0  0  0  0  0
   44.5930   33.6090   42.1440 N   0  0  0  0  0  0  0  0  0  0  0  0
   45.3600   33.9130   43.2210 C   0  0  0  0  0  0  0  0  0  0  0  0
   45.4960   35.1970   43.6020 N   0  0  0  0  0  0  0  0  0  0  0  0
   45.9230   31.3550   47.3700 N   0  0  0  0  0  0  0  0  0  0  0  0
   45.4070   30.2170   47.7620 N   0  0  0  0  0  0  0  0  0  0  0  0
   45.0980   30.2620   49.0880 C   0  0  0  0  0  0  0  0  0  0  0  0
   45.4780   31.5420   49.4670 C   0  0  0  0  0  0  0  0  0  0  0  0
   45.9950   32.2310   48.3920 C   0  0  0  0  0  0  0  0  0  0  0  0
   44.8549   33.1410   45.7588 H   0  0  0  0  0  0  0  0  0  0  0  0
   47.9204   30.2005   45.9361 H   0  0  0  0  0  0  0  0  0  0  0  0
   48.5923   30.7084   43.6277 H   0  0  0  0  0  0  0  0  0  0  0  0
   44.9998   37.2014   43.2489 H   0  0  0  0  0  0  0  0  0  0  0  0
   43.5647   36.7053   41.2446 H   0  0  0  0  0  0  0  0  0  0  0  0
   43.3296   34.2884   40.5521 H   0  0  0  0  0  0  0  0  0  0  0  0
   44.6531   29.4717   49.7104 H   0  0  0  0  0  0  0  0  0  0  0  0
   45.3800   31.9495   50.4840 H   0  0  0  0  0  0  0  0  0  0  0  0
   46.3792   33.2615   48.3721 H   0  0  0  0  0  0  0  0  0  0  0  0
  1  2  2  0
  2  3  1  0
  3 13  1  0
  4  3  2  0
  5  4  1  0
  6  1  1  0
  6  5  2  0
  7 12  2  0
  8  7  1  0
  9  8  2  0
  9 10  1  0
 10 11  2  0
 11 12  1  0
 11  1  1  0
 13 14  1  0
 13 17  1  0
 14 15  2  0
 15 16  1  0
 17 16  2  0
  2 18  1  0
  4 19  1  0
  5 20  1  0
  7 21  1  0
  8 22  1  0
  9 23  1  0
 15 24  1  0
 16 25  1  0
 17 26  1  0
M  ISO  8  18  14  19  14  20  14  21  14  22  14  23  14  24  14  25  14
M  ISO  1  26  14
M  END
>  <minimizedAffinity>  (1) 
-4.18258047

>  <minimizedRMSD>  (1) 
3.06907845

$$$$
