
     RDKit          3D

 23 24  0  0  0  0  0  0  0  0999 V2000
   46.2440   32.9680   45.6540 C   0  0  0  0  0  0  0  0  0  0  0  0
   45.8830   32.9330   46.9710 C   0  0  0  0  0  0  0  0  0  0  0  0
   46.2250   31.9170   47.8300 C   0  0  0  0  0  0  0  0  0  0  0  0
   46.9770   30.9120   47.2550 C   0  0  0  0  0  0  0  0  0  0  0  0
   47.3680   30.9000   45.9300 C   0  0  0  0  0  0  0  0  0  0  0  0
   46.9750   31.9480   45.1780 N   0  0  0  0  0  0  0  0  0  0  0  0
   44.5120   35.9540   44.4640 C   0  0  0  0  0  0  0  0  0  0  0  0
   45.0950   36.1650   43.1770 C   0  0  0  0  0  0  0  0  0  0  0  0
   46.0760   35.2730   42.7400 C   0  0  0  0  0  0  0  0  0  0  0  0
   46.4330   34.2420   43.5650 N   0  0  0  0  0  0  0  0  0  0  0  0
   45.8500   34.0800   44.7840 C   0  0  0  0  0  0  0  0  0  0  0  0
   44.9140   34.9280   45.2040 N   0  0  0  0  0  0  0  0  0  0  0  0
   45.8400   31.8700   49.2520 C   0  0  0  0  0  0  0  0  0  0  0  0
   44.7880   30.9350   49.3610 O   0  0  0  0  0  0  0  0  0  0  0  0
   45.2839   33.7665   47.3665 H   0  0  0  0  0  0  0  0  0  0  0  0
   47.2838   30.0687   47.8912 H   0  0  0  0  0  0  0  0  0  0  0  0
   47.9681   30.0790   45.5107 H   0  0  0  0  0  0  0  0  0  0  0  0
   43.7355   36.6369   44.8391 H   0  0  0  0  0  0  0  0  0  0  0  0
   44.7789   37.0090   42.5463 H   0  0  0  0  0  0  0  0  0  0  0  0
   46.5507   35.3964   41.7554 H   0  0  0  0  0  0  0  0  0  0  0  0
   46.6954   31.5502   49.8652 H   0  0  0  0  0  0  0  0  0  0  0  0
   45.5238   32.8618   49.6074 H   0  0  0  0  0  0  0  0  0  0  0  0
   44.5959   30.7643   50.3171 H   0  0  0  0  0  0  0  0  0  0  0  0
  1  2  2  0
  2  3  1  0
  3 13  1  0
  4  3  2  0
  5  4  1  0
  6  1  1  0
  6  5  2  0
  7 12  2  0
  8  7  1  0
  9  8  2  0
  9 10  1  0
 10 11  2  0
 11 12  1  0
 11  1  1  0
 13 14  1  0
  2 15  1  0
  4 16  1  0
  5 17  1  0
  7 18  1  0
  8 19  1  0
  9 20  1  0
 13 21  1  0
 13 22  1  0
 14 23  1  0
M  ISO  8  15  14  16  14  17  14  18  14  19  14  20  14  21   8  22   8
M  ISO  1  23   3
M  END
>  <minimizedAffinity>  (1) 
-4.51682091

>  <minimizedRMSD>  (1) 
0.494387835

$$$$
