
     RDKit          3D

 40 43  0  0  0  0  0  0  0  0999 V2000
   44.8860   35.5440   45.0680 C   0  0  0  0  0  0  0  0  0  0  0  0
   44.1140   35.7090   43.8900 C   0  0  0  0  0  0  0  0  0  0  0  0
   44.1480   34.6980   42.9530 C   0  0  0  0  0  0  0  0  0  0  0  0
   44.8990   33.5800   43.1540 N   0  0  0  0  0  0  0  0  0  0  0  0
   45.6400   33.4420   44.3030 C   0  0  0  0  0  0  0  0  0  0  0  0
   45.6160   34.4330   45.2390 N   0  0  0  0  0  0  0  0  0  0  0  0
   43.3670   34.8850   41.7810 N   0  0  0  0  0  0  0  0  0  0  0  0
   42.0830   35.2570   41.7080 C   0  0  0  0  0  0  0  0  0  0  0  0
   41.4610   35.3960   40.4960 C   0  0  0  0  0  0  0  0  0  0  0  0
   42.1350   35.1550   39.3070 C   0  0  0  0  0  0  0  0  0  0  0  0
   41.5750   35.2780   38.1930 O   0  0  0  0  0  0  0  0  0  0  0  0
   43.4300   34.7800   39.4200 N   0  0  0  0  0  0  0  0  0  0  0  0
   44.0140   34.6540   40.6330 C   0  0  0  0  0  0  0  0  0  0  0  0
   45.2440   34.2910   40.5560 O   0  0  0  0  0  0  0  0  0  0  0  0
   40.0570   35.8040   40.4260 C   0  0  0  0  0  0  0  0  0  0  0  0
   46.4340   32.2560   44.5110 C   0  0  0  0  0  0  0  0  0  0  0  0
   47.0530   31.4690   43.5440 C   0  0  0  0  0  0  0  0  0  0  0  0
   47.7090   30.4360   44.1350 N   0  0  0  0  0  0  0  0  0  0  0  0
   47.4880   30.5940   45.4790 C   0  0  0  0  0  0  0  0  0  0  0  0
   46.7250   31.6820   45.7000 N   0  0  0  0  0  0  0  0  0  0  0  0
   48.0090   29.7040   46.5120 C   0  0  0  0  0  0  0  0  0  0  0  0
   47.4310   28.4310   46.5700 C   0  0  0  0  0  0  0  0  0  0  0  0
   48.0760   27.7670   47.6180 C   0  0  0  0  0  0  0  0  0  0  0  0
   49.0040   28.6830   48.1250 C   0  0  0  0  0  0  0  0  0  0  0  0
   48.9220   29.7990   47.4420 O   0  0  0  0  0  0  0  0  0  0  0  0
   46.2760   32.1820   46.9830 C   0  0  0  0  0  0  0  0  0  0  0  0
   46.1880   31.1440   47.9470 F   0  0  0  0  0  0  0  0  0  0  0  0
   45.0380   32.8060   46.9090 F   0  0  0  0  0  0  0  0  0  0  0  0
   47.2000   33.0710   47.5190 F   0  0  0  0  0  0  0  0  0  0  0  0
   44.8857   36.3270   45.8406 H   0  0  0  0  0  0  0  0  0  0  0  0
   43.5084   36.6131   43.7291 H   0  0  0  0  0  0  0  0  0  0  0  0
   41.5208   35.4534   42.6329 H   0  0  0  0  0  0  0  0  0  0  0  0
   43.9789   34.5877   38.5699 H   0  0  0  0  0  0  0  0  0  0  0  0
   39.6577   35.9200   41.4444 H   0  0  0  0  0  0  0  0  0  0  0  0
   39.9797   36.7617   39.8905 H   0  0  0  0  0  0  0  0  0  0  0  0
   39.4785   35.0368   39.8905 H   0  0  0  0  0  0  0  0  0  0  0  0
   47.0165   31.6558   42.4606 H   0  0  0  0  0  0  0  0  0  0  0  0
   46.6336   28.0344   45.9243 H   0  0  0  0  0  0  0  0  0  0  0  0
   47.8925   26.7410   47.9696 H   0  0  0  0  0  0  0  0  0  0  0  0
   49.6923   28.4967   48.9626 H   0  0  0  0  0  0  0  0  0  0  0  0
  1  6  2  0
  2  1  1  0
  3  4  1  0
  3  2  2  0
  4  5  2  0
  5 16  1  0
  5  6  1  0
  7  3  1  0
  8  7  1  0
  9  8  2  0
 10 12  1  0
 10  9  1  0
 11 10  2  0
 12 13  1  0
 13  7  1  0
 14 13  2  0
 15  9  1  0
 16 20  1  0
 17 18  1  0
 17 16  2  0
 18 19  2  0
 19 20  1  0
 19 21  1  0
 20 26  1  0
 21 22  2  0
 21 25  1  0
 22 23  1  0
 23 24  2  0
 25 24  1  0
 26 29  1  0
 26 27  1  0
 28 26  1  0
  1 30  1  0
  2 31  1  0
  8 32  1  0
 12 33  1  0
 15 34  1  0
 15 35  1  0
 15 36  1  0
 17 37  1  0
 22 38  1  0
 23 39  1  0
 24 40  1  0
M  ISO  8  30  14  31  14  32  14  33   9  34   8  35   8  36   8  37  14
M  ISO  3  38  14  39  14  40  14
M  END
>  <minimizedAffinity>  (1) 
-6.18722153

>  <minimizedRMSD>  (1) 
1.05774939

$$$$
