
     RDKit          3D

 32 34  0  0  0  0  0  0  0  0999 V2000
   45.6240   33.9950   45.4280 C   0  0  0  0  0  0  0  0  0  0  0  0
   46.1340   33.9050   44.1530 C   0  0  0  0  0  0  0  0  0  0  0  0
   45.8380   34.8000   43.1640 C   0  0  0  0  0  0  0  0  0  0  0  0
   44.9870   35.8020   43.5480 C   0  0  0  0  0  0  0  0  0  0  0  0
   44.4410   35.9440   44.8210 C   0  0  0  0  0  0  0  0  0  0  0  0
   44.7900   35.0190   45.7210 N   0  0  0  0  0  0  0  0  0  0  0  0
   47.3540   31.3240   47.1920 C   0  0  0  0  0  0  0  0  0  0  0  0
   46.5920   31.1980   48.3970 C   0  0  0  0  0  0  0  0  0  0  0  0
   45.4880   32.0370   48.5900 C   0  0  0  0  0  0  0  0  0  0  0  0
   45.2100   32.9220   47.6180 N   0  0  0  0  0  0  0  0  0  0  0  0
   45.9540   33.0210   46.4780 C   0  0  0  0  0  0  0  0  0  0  0  0
   47.0020   32.2350   46.2790 N   0  0  0  0  0  0  0  0  0  0  0  0
   46.3670   34.7220   41.8030 C   0  0  0  0  0  0  0  0  0  0  0  0
   47.7590   35.1600   41.8580 N   0  0  0  0  0  0  0  0  0  0  0  0
   48.8070   34.2060   41.7240 C   0  0  0  0  0  0  0  0  0  0  0  0
   49.9770   34.2710   42.4880 C   0  0  0  0  0  0  0  0  0  0  0  0
   50.9780   33.3450   42.3480 C   0  0  0  0  0  0  0  0  0  0  0  0
   50.8270   32.3550   41.4570 N   0  0  0  0  0  0  0  0  0  0  0  0
   49.7100   32.2680   40.7080 C   0  0  0  0  0  0  0  0  0  0  0  0
   48.7220   33.1850   40.8490 N   0  0  0  0  0  0  0  0  0  0  0  0
   46.8130   33.0719   43.9187 H   0  0  0  0  0  0  0  0  0  0  0  0
   44.7136   36.5529   42.7921 H   0  0  0  0  0  0  0  0  0  0  0  0
   43.7606   36.7710   45.0721 H   0  0  0  0  0  0  0  0  0  0  0  0
   48.2247   30.6747   47.0180 H   0  0  0  0  0  0  0  0  0  0  0  0
   46.8692   30.4544   49.1587 H   0  0  0  0  0  0  0  0  0  0  0  0
   44.8734   31.9742   49.5001 H   0  0  0  0  0  0  0  0  0  0  0  0
   45.7905   35.3796   41.1358 H   0  0  0  0  0  0  0  0  0  0  0  0
   46.2943   33.6961   41.4127 H   0  0  0  0  0  0  0  0  0  0  0  0
   47.9819   36.1564   41.9934 H   0  0  0  0  0  0  0  0  0  0  0  0
   50.0966   35.0846   43.2186 H   0  0  0  0  0  0  0  0  0  0  0  0
   51.8912   33.4133   42.9575 H   0  0  0  0  0  0  0  0  0  0  0  0
   49.5999   31.4505   39.9803 H   0  0  0  0  0  0  0  0  0  0  0  0
  1  6  1  0
  1 11  1  0
  2  1  2  0
  3  4  2  0
  3  2  1  0
  4  5  1  0
  5  6  2  0
  7  8  2  0
  8  9  1  0
 10  9  2  0
 11 10  1  0
 12 11  2  0
 12  7  1  0
 13 14  1  0
 13  3  1  0
 15 14  1  0
 15 16  2  0
 17 16  1  0
 18 17  2  0
 19 20  2  0
 19 18  1  0
 20 15  1  0
  2 21  1  0
  4 22  1  0
  5 23  1  0
  7 24  1  0
  8 25  1  0
  9 26  1  0
 13 27  1  0
 13 28  1  0
 14 29  1  0
 16 30  1  0
 17 31  1  0
 19 32  1  0
M  ISO  8  21  14  22  14  23  14  24  14  25  14  26  14  27   8  28   8
M  ISO  3  30  14  31  14  32  14
M  END
>  <minimizedAffinity>  (1) 
-5.89124775

>  <minimizedRMSD>  (1) 
8.32472706

$$$$
