
     RDKit          3D

 33 34  0  0  0  0  0  0  0  0999 V2000
   46.2960   34.4560   41.6940 C   0  0  0  0  0  0  0  0  0  0  0  0
   45.1000   34.2970   41.0030 C   0  0  0  0  0  0  0  0  0  0  0  0
   43.9680   34.9890   41.3340 C   0  0  0  0  0  0  0  0  0  0  0  0
   44.1030   35.8470   42.3930 C   0  0  0  0  0  0  0  0  0  0  0  0
   45.2750   36.0400   43.1140 C   0  0  0  0  0  0  0  0  0  0  0  0
   46.3320   35.3170   42.7160 N   0  0  0  0  0  0  0  0  0  0  0  0
   48.5300   32.2600   39.8170 C   0  0  0  0  0  0  0  0  0  0  0  0
   49.7180   32.2750   40.5790 C   0  0  0  0  0  0  0  0  0  0  0  0
   49.7350   33.0560   41.7530 C   0  0  0  0  0  0  0  0  0  0  0  0
   48.6270   33.7420   42.0850 N   0  0  0  0  0  0  0  0  0  0  0  0
   47.5010   33.7010   41.3230 C   0  0  0  0  0  0  0  0  0  0  0  0
   47.4550   32.9710   40.2060 N   0  0  0  0  0  0  0  0  0  0  0  0
   42.6910   34.8400   40.6200 C   0  0  0  0  0  0  0  0  0  0  0  0
   41.7120   34.4040   41.5970 N   0  0  0  0  0  0  0  0  0  0  0  0
   40.3940   34.9430   41.3960 C   0  0  0  0  0  0  0  0  0  0  0  0
   39.5890   33.9200   40.6170 C   0  0  0  0  0  0  0  0  0  0  0  0
   40.3730   36.2630   40.7120 C   0  0  0  0  0  0  0  0  0  0  0  0
   45.0631   33.5901   40.1610 H   0  0  0  0  0  0  0  0  0  0  0  0
   43.2180   36.4262   42.6951 H   0  0  0  0  0  0  0  0  0  0  0  0
   45.3323   36.7422   43.9588 H   0  0  0  0  0  0  0  0  0  0  0  0
   48.4820   31.6611   38.8956 H   0  0  0  0  0  0  0  0  0  0  0  0
   50.6006   31.6971   40.2676 H   0  0  0  0  0  0  0  0  0  0  0  0
   50.6351   33.1031   42.3836 H   0  0  0  0  0  0  0  0  0  0  0  0
   42.3870   35.8027   40.1832 H   0  0  0  0  0  0  0  0  0  0  0  0
   42.7804   34.1126   39.7997 H   0  0  0  0  0  0  0  0  0  0  0  0
   41.6501   33.3767   41.5552 H   0  0  0  0  0  0  0  0  0  0  0  0
   39.9529   35.1345   42.3853 H   0  0  0  0  0  0  0  0  0  0  0  0
   39.0651   33.2542   41.3186 H   0  0  0  0  0  0  0  0  0  0  0  0
   38.8533   34.4374   39.9838 H   0  0  0  0  0  0  0  0  0  0  0  0
   40.2649   33.3266   39.9838 H   0  0  0  0  0  0  0  0  0  0  0  0
   40.3602   37.0656   41.4642 H   0  0  0  0  0  0  0  0  0  0  0  0
   41.2696   36.3643   40.0829 H   0  0  0  0  0  0  0  0  0  0  0  0
   39.4736   36.3357   40.0829 H   0  0  0  0  0  0  0  0  0  0  0  0
  1  6  2  0
  2  3  2  0
  2  1  1  0
  3  4  1  0
  4  5  2  0
  6  5  1  0
  7 12  2  0
  7  8  1  0
  8  9  2  0
  9 10  1  0
 11  1  1  0
 11 10  2  0
 12 11  1  0
 13  3  1  0
 13 14  1  0
 15 14  1  0
 16 15  1  0
 17 15  1  0
  2 18  1  0
  4 19  1  0
  5 20  1  0
  7 21  1  0
  8 22  1  0
  9 23  1  0
 13 24  1  0
 13 25  1  0
 14 26  1  0
 15 27  1  0
 16 28  1  0
 16 29  1  0
 16 30  1  0
 17 31  1  0
 17 32  1  0
 17 33  1  0
M  ISO  8  18  14  19  14  20  14  21  14  22  14  23  14  24   8  25   8
M  ISO  8  26   5  27   8  28   8  29   8  30   8  31   8  32   8  33   8
M  END
>  <minimizedAffinity>  (1) 
-4.55842686

>  <minimizedRMSD>  (1) 
7.46041107

$$$$
