
     RDKit          3D

 30 31  0  0  0  0  0  0  0  0999 V2000
   46.3940   33.5280   44.9810 C   0  0  0  0  0  0  0  0  0  0  0  0
   47.1030   33.7650   43.8190 C   0  0  0  0  0  0  0  0  0  0  0  0
   46.7530   34.7070   42.8930 C   0  0  0  0  0  0  0  0  0  0  0  0
   45.6250   35.4140   43.2080 C   0  0  0  0  0  0  0  0  0  0  0  0
   44.8640   35.2280   44.3590 C   0  0  0  0  0  0  0  0  0  0  0  0
   45.2890   34.2800   45.2040 N   0  0  0  0  0  0  0  0  0  0  0  0
   47.3050   30.2920   46.3510 C   0  0  0  0  0  0  0  0  0  0  0  0
   47.4890   30.5860   47.7380 C   0  0  0  0  0  0  0  0  0  0  0  0
   47.2990   31.8970   48.1900 C   0  0  0  0  0  0  0  0  0  0  0  0
   46.9500   32.8220   47.2790 N   0  0  0  0  0  0  0  0  0  0  0  0
   46.7800   32.5140   45.9580 C   0  0  0  0  0  0  0  0  0  0  0  0
   46.9560   31.2760   45.5160 N   0  0  0  0  0  0  0  0  0  0  0  0
   47.5000   34.9610   41.6610 C   0  0  0  0  0  0  0  0  0  0  0  0
   46.6870   34.4060   40.5650 N   0  0  0  0  0  0  0  0  0  0  0  0
   47.5970   33.9490   39.5390 C   0  0  0  0  0  0  0  0  0  0  0  0
   48.5960   32.9470   40.0880 C   0  0  0  0  0  0  0  0  0  0  0  0
   48.0017   33.1601   43.6282 H   0  0  0  0  0  0  0  0  0  0  0  0
   45.2945   36.1873   42.4989 H   0  0  0  0  0  0  0  0  0  0  0  0
   43.9638   35.8264   44.5629 H   0  0  0  0  0  0  0  0  0  0  0  0
   47.4489   29.2682   45.9753 H   0  0  0  0  0  0  0  0  0  0  0  0
   47.7766   29.7911   48.4418 H   0  0  0  0  0  0  0  0  0  0  0  0
   47.4302   32.1603   49.2499 H   0  0  0  0  0  0  0  0  0  0  0  0
   47.6445   36.0422   41.5188 H   0  0  0  0  0  0  0  0  0  0  0  0
   48.4972   34.4978   41.6944 H   0  0  0  0  0  0  0  0  0  0  0  0
   46.1217   33.6174   40.9107 H   0  0  0  0  0  0  0  0  0  0  0  0
   48.1435   34.8139   39.1348 H   0  0  0  0  0  0  0  0  0  0  0  0
   47.0093   33.4545   38.7516 H   0  0  0  0  0  0  0  0  0  0  0  0
   48.5725   32.9706   41.1875 H   0  0  0  0  0  0  0  0  0  0  0  0
   48.3338   31.9380   39.7372 H   0  0  0  0  0  0  0  0  0  0  0  0
   49.6058   33.2062   39.7372 H   0  0  0  0  0  0  0  0  0  0  0  0
  1  6  1  0
  1 11  1  0
  2  1  2  0
  3  4  2  0
  3  2  1  0
  4  5  1  0
  5  6  2  0
  7  8  2  0
  8  9  1  0
 10  9  2  0
 11 10  1  0
 12 11  2  0
 12  7  1  0
 13  3  1  0
 14 13  1  0
 15 16  1  0
 15 14  1  0
  2 17  1  0
  4 18  1  0
  5 19  1  0
  7 20  1  0
  8 21  1  0
  9 22  1  0
 13 23  1  0
 13 24  1  0
 14 25  1  0
 15 26  1  0
 15 27  1  0
 16 28  1  0
 16 29  1  0
 16 30  1  0
M  ISO  8  17  14  18  14  19  14  20  14  21  14  22  14  23   8  24   8
M  ISO  6  25   5  26   8  27   8  28   8  29   8  30   8
M  END
>  <minimizedAffinity>  (1) 
-4.27217388

>  <minimizedRMSD>  (1) 
6.83721924

$$$$
