
     RDKit          3D

 30 31  0  0  0  0  0  0  0  0999 V2000
   47.1350   33.9630   43.3890 C   0  0  0  0  0  0  0  0  0  0  0  0
   46.3450   34.7320   42.5530 C   0  0  0  0  0  0  0  0  0  0  0  0
   45.1230   35.2280   42.9360 C   0  0  0  0  0  0  0  0  0  0  0  0
   44.7410   34.9010   44.2300 C   0  0  0  0  0  0  0  0  0  0  0  0
   45.4930   34.1430   45.0910 C   0  0  0  0  0  0  0  0  0  0  0  0
   46.6670   33.7060   44.6260 N   0  0  0  0  0  0  0  0  0  0  0  0
   50.6370   33.9090   42.4070 C   0  0  0  0  0  0  0  0  0  0  0  0
   50.8970   32.5290   42.2020 C   0  0  0  0  0  0  0  0  0  0  0  0
   49.8490   31.6220   42.4070 C   0  0  0  0  0  0  0  0  0  0  0  0
   48.6420   32.1060   42.7910 N   0  0  0  0  0  0  0  0  0  0  0  0
   48.4300   33.4390   42.9780 C   0  0  0  0  0  0  0  0  0  0  0  0
   49.4200   34.3150   42.7850 N   0  0  0  0  0  0  0  0  0  0  0  0
   44.2930   36.0470   42.0250 C   0  0  0  0  0  0  0  0  0  0  0  0
   44.0530   35.2430   40.8380 N   0  0  0  0  0  0  0  0  0  0  0  0
   42.4820   34.5240   40.8750 S   0  0  0  0  0  0  0  0  0  0  0  0
   42.5520   32.8130   41.3530 C   0  0  0  0  0  0  0  0  0  0  0  0
   41.5820   35.3230   41.7700 O   0  0  0  0  0  0  0  0  0  0  0  0
   41.9270   34.5790   39.4770 O   0  0  0  0  0  0  0  0  0  0  0  0
   46.7108   34.9553   41.5399 H   0  0  0  0  0  0  0  0  0  0  0  0
   43.7706   35.2747   44.5887 H   0  0  0  0  0  0  0  0  0  0  0  0
   45.1484   33.9077   46.1088 H   0  0  0  0  0  0  0  0  0  0  0  0
   51.4386   34.6467   42.2546 H   0  0  0  0  0  0  0  0  0  0  0  0
   51.8932   32.1813   41.8909 H   0  0  0  0  0  0  0  0  0  0  0  0
   50.0018   30.5426   42.2599 H   0  0  0  0  0  0  0  0  0  0  0  0
   43.3386   36.3021   42.5089 H   0  0  0  0  0  0  0  0  0  0  0  0
   44.8007   36.9883   41.7679 H   0  0  0  0  0  0  0  0  0  0  0  0
   44.7622   34.4977   40.7884 H   0  0  0  0  0  0  0  0  0  0  0  0
   42.5550   32.7387   42.4505 H   0  0  0  0  0  0  0  0  0  0  0  0
   41.6747   32.2841   40.9521 H   0  0  0  0  0  0  0  0  0  0  0  0
   43.4695   32.3575   40.9521 H   0  0  0  0  0  0  0  0  0  0  0  0
  1  6  2  0
  2  3  2  0
  2  1  1  0
  3  4  1  0
  4  5  2  0
  6  5  1  0
  7 12  2  0
  8  7  1  0
  8  9  2  0
  9 10  1  0
 10 11  2  0
 11  1  1  0
 12 11  1  0
 13  3  1  0
 14 15  1  0
 14 13  1  0
 15 16  1  0
 15 17  2  0
 18 15  2  0
  2 19  1  0
  4 20  1  0
  5 21  1  0
  7 22  1  0
  8 23  1  0
  9 24  1  0
 13 25  1  0
 13 26  1  0
 14 27  1  0
 16 28  1  0
 16 29  1  0
 16 30  1  0
M  ISO  8  19  14  20  14  21  14  22  14  23  14  24  14  25   8  26   8
M  ISO  4  27   5  28   8  29   8  30   8
M  END
>  <minimizedAffinity>  (1) 
-4.53789711

>  <minimizedRMSD>  (1) 
7.19852352

$$$$
