
     RDKit          3D

 34 36  0  0  0  0  0  0  0  0999 V2000
   44.8370   35.8870   45.0240 C   0  0  0  0  0  0  0  0  0  0  0  0
   44.1170   35.9180   43.8080 C   0  0  0  0  0  0  0  0  0  0  0  0
   44.1050   34.7600   43.0440 C   0  0  0  0  0  0  0  0  0  0  0  0
   44.7590   33.6450   43.4480 N   0  0  0  0  0  0  0  0  0  0  0  0
   45.4470   33.6570   44.6360 C   0  0  0  0  0  0  0  0  0  0  0  0
   45.4810   34.7610   45.4060 N   0  0  0  0  0  0  0  0  0  0  0  0
   43.3710   34.8140   41.8180 N   0  0  0  0  0  0  0  0  0  0  0  0
   42.0570   35.0170   41.6710 C   0  0  0  0  0  0  0  0  0  0  0  0
   41.5020   35.0410   40.4150 C   0  0  0  0  0  0  0  0  0  0  0  0
   42.2670   34.8580   39.2800 C   0  0  0  0  0  0  0  0  0  0  0  0
   41.7690   34.8770   38.1240 O   0  0  0  0  0  0  0  0  0  0  0  0
   43.5840   34.6550   39.4660 N   0  0  0  0  0  0  0  0  0  0  0  0
   44.1160   34.6360   40.7240 C   0  0  0  0  0  0  0  0  0  0  0  0
   45.3760   34.4330   40.7340 O   0  0  0  0  0  0  0  0  0  0  0  0
   40.0630   35.2630   40.2590 C   0  0  0  0  0  0  0  0  0  0  0  0
   46.1480   32.4480   45.0630 C   0  0  0  0  0  0  0  0  0  0  0  0
   46.9530   31.6180   44.2910 C   0  0  0  0  0  0  0  0  0  0  0  0
   47.4200   30.6010   45.0590 N   0  0  0  0  0  0  0  0  0  0  0  0
   46.8970   30.8100   46.3080 C   0  0  0  0  0  0  0  0  0  0  0  0
   46.1340   31.9190   46.3100 N   0  0  0  0  0  0  0  0  0  0  0  0
   45.4130   32.4740   47.4280 C   0  0  0  0  0  0  0  0  0  0  0  0
   44.5330   31.5480   48.0110 F   0  0  0  0  0  0  0  0  0  0  0  0
   44.6870   33.6160   47.0860 F   0  0  0  0  0  0  0  0  0  0  0  0
   46.3000   32.7880   48.4670 F   0  0  0  0  0  0  0  0  0  0  0  0
   47.2400   29.7140   47.6660 S   0  0  0  0  0  0  0  0  0  0  0  0
   44.8736   36.7823   45.6620 H   0  0  0  0  0  0  0  0  0  0  0  0
   43.5871   36.8246   43.4804 H   0  0  0  0  0  0  0  0  0  0  0  0
   41.4209   35.1647   42.5562 H   0  0  0  0  0  0  0  0  0  0  0  0
   44.1976   34.5124   38.6511 H   0  0  0  0  0  0  0  0  0  0  0  0
   39.5935   35.3354   41.2511 H   0  0  0  0  0  0  0  0  0  0  0  0
   39.8942   36.1978   39.7043 H   0  0  0  0  0  0  0  0  0  0  0  0
   39.6203   34.4225   39.7043 H   0  0  0  0  0  0  0  0  0  0  0  0
   47.1766   31.7630   43.2238 H   0  0  0  0  0  0  0  0  0  0  0  0
   47.0335   30.3738   48.8487 H   0  0  0  0  0  0  0  0  0  0  0  0
  1  6  2  0
  2  1  1  0
  3  4  1  0
  3  2  2  0
  4  5  2  0
  5 16  1  0
  5  6  1  0
  7  3  1  0
  8  7  1  0
  9  8  2  0
 10 12  1  0
 10  9  1  0
 11 10  2  0
 12 13  1  0
 13 14  2  0
 13  7  1  0
 15  9  1  0
 16 20  1  0
 17 18  1  0
 17 16  2  0
 18 19  2  0
 19 20  1  0
 19 25  1  0
 20 21  1  0
 21 22  1  0
 21 24  1  0
 23 21  1  0
  1 26  1  0
  2 27  1  0
  8 28  1  0
 12 29  1  0
 15 30  1  0
 15 31  1  0
 15 32  1  0
 17 33  1  0
 25 34  1  0
M  ISO  8  26  14  27  14  28  14  29   9  30   8  31   8  32   8  33  14
M  ISO  1  34  11
M  END
>  <minimizedAffinity>  (1) 
-6.08613157

>  <minimizedRMSD>  (1) 
0.0298131201

$$$$
