
     RDKit          3D

 29 30  0  0  1  0  0  0  0  0999 V2000
   46.7200   32.4320   44.9750 C   0  0  0  0  0  0  0  0  0  0  0  0
   46.7390   31.8710   46.2590 C   0  0  0  0  0  0  0  0  0  0  0  0
   47.4040   30.7010   46.4980 C   0  0  0  0  0  0  0  0  0  0  0  0
   48.0420   30.1100   45.4370 C   0  0  0  0  0  0  0  0  0  0  0  0
   48.0400   30.6380   44.1690 C   0  0  0  0  0  0  0  0  0  0  0  0
   47.3720   31.7850   44.0010 N   0  0  0  0  0  0  0  0  0  0  0  0
   44.6100   35.3450   45.5180 C   0  0  0  0  0  0  0  0  0  0  0  0
   44.7180   36.0480   44.2850 C   0  0  0  0  0  0  0  0  0  0  0  0
   45.5150   35.4940   43.2910 C   0  0  0  0  0  0  0  0  0  0  0  0
   46.1460   34.3340   43.5230 N   0  0  0  0  0  0  0  0  0  0  0  0
   46.0110   33.6920   44.7300 C   0  0  0  0  0  0  0  0  0  0  0  0
   45.2610   34.1920   45.6950 N   0  0  0  0  0  0  0  0  0  0  0  0
   47.4240   30.1790   47.9120 C   0  0  2  0  0  0  0  0  0  0  0  0
   46.1190   30.1630   48.3700 N   0  0  0  0  0  0  0  0  0  0  0  0
   45.2360   29.1410   47.9580 C   0  0  0  0  0  0  0  0  0  0  0  0
   45.0010   27.9860   48.7260 N   0  0  0  0  0  0  0  0  0  0  0  0
   44.5070   28.9950   46.9340 O   0  0  0  0  0  0  0  0  0  0  0  0
   48.2330   31.4680   48.8580 S   0  0  0  0  0  0  0  0  0  0  0  0
   46.2137   32.3771   47.0824 H   0  0  0  0  0  0  0  0  0  0  0  0
   48.5815   29.1672   45.6102 H   0  0  0  0  0  0  0  0  0  0  0  0
   48.5603   30.1437   43.3354 H   0  0  0  0  0  0  0  0  0  0  0  0
   43.9879   35.7528   46.3284 H   0  0  0  0  0  0  0  0  0  0  0  0
   44.1880   36.9984   44.1245 H   0  0  0  0  0  0  0  0  0  0  0  0
   45.6274   36.0026   42.3221 H   0  0  0  0  0  0  0  0  0  0  0  0
   47.8984   29.1893   47.9861 H   0  0  0  0  0  0  0  0  0  0  0  0
   45.7907   30.8979   49.0127 H   0  0  0  0  0  0  0  0  0  0  0  0
   44.3480   27.2656   48.3861 H   0  0  0  0  0  0  0  0  0  0  0  0
   45.4819   27.8608   49.6282 H   0  0  0  0  0  0  0  0  0  0  0  0
   48.0767   31.2189   50.1961 H   0  0  0  0  0  0  0  0  0  0  0  0
  1  2  2  0
  2  3  1  0
  3 13  1  0
  4  3  2  0
  5  4  1  0
  6  5  2  0
  6  1  1  0
  7 12  2  0
  8  7  1  0
  9 10  1  0
  9  8  2  0
 10 11  2  0
 11  1  1  0
 11 12  1  0
 13 14  1  0
 13 18  1  0
 15 14  1  0
 15 16  1  0
 17 15  2  0
  2 19  1  0
  4 20  1  0
  5 21  1  0
  7 22  1  0
  8 23  1  0
  9 24  1  0
 13 25  1  6
 14 26  1  0
 16 27  1  0
 16 28  1  0
 18 29  1  0
M  ISO  8  19  14  20  14  21  14  22  14  23  14  24  14  25   8  29  11
M  END
>  <minimizedAffinity>  (1) 
-4.8853898

>  <minimizedRMSD>  (1) 
0.414499074

$$$$
