
     RDKit          3D

 36 38  0  0  1  0  0  0  0  0999 V2000
   46.5610   32.7760   44.4170 C   0  0  0  0  0  0  0  0  0  0  0  0
   46.1790   32.1630   45.6060 C   0  0  0  0  0  0  0  0  0  0  0  0
   46.7020   30.9670   45.9890 C   0  0  0  0  0  0  0  0  0  0  0  0
   47.6190   30.3850   45.1650 C   0  0  0  0  0  0  0  0  0  0  0  0
   48.0260   30.9550   43.9800 C   0  0  0  0  0  0  0  0  0  0  0  0
   47.4750   32.1300   43.6630 N   0  0  0  0  0  0  0  0  0  0  0  0
   44.6210   35.8380   44.5130 C   0  0  0  0  0  0  0  0  0  0  0  0
   44.9770   36.4850   43.3080 C   0  0  0  0  0  0  0  0  0  0  0  0
   45.9040   35.8330   42.4570 C   0  0  0  0  0  0  0  0  0  0  0  0
   46.3920   34.6410   42.8410 N   0  0  0  0  0  0  0  0  0  0  0  0
   46.0160   34.0600   44.0130 C   0  0  0  0  0  0  0  0  0  0  0  0
   45.1560   34.6560   44.8110 N   0  0  0  0  0  0  0  0  0  0  0  0
   46.2620   30.3890   47.3010 C   0  0  2  0  0  0  0  0  0  0  0  0
   45.4930   29.2990   47.0780 N   0  0  0  0  0  0  0  0  0  0  0  0
   45.7700   28.0290   47.5910 C   0  0  0  0  0  0  0  0  0  0  0  0
   44.9400   27.5300   48.6190 N   0  0  0  0  0  0  0  0  0  0  0  0
   46.6500   27.1410   47.3460 O   0  0  0  0  0  0  0  0  0  0  0  0
   45.3670   31.4210   47.8930 C   0  0  2  0  0  0  0  0  0  0  0  0
   45.9060   32.4740   48.7870 C   0  0  0  0  0  0  0  0  0  0  0  0
   45.1510   31.3620   49.4130 C   0  0  2  0  0  0  0  0  0  0  0  0
   45.7670   30.3630   50.1410 O   0  0  0  0  0  0  0  0  0  0  0  0
   45.4372   32.6566   46.2511 H   0  0  0  0  0  0  0  0  0  0  0  0
   48.0525   29.4180   45.4599 H   0  0  0  0  0  0  0  0  0  0  0  0
   48.7664   30.4684   43.3280 H   0  0  0  0  0  0  0  0  0  0  0  0
   43.9046   36.3093   45.2020 H   0  0  0  0  0  0  0  0  0  0  0  0
   44.5489   37.4621   43.0396 H   0  0  0  0  0  0  0  0  0  0  0  0
   46.2161   36.2907   41.5067 H   0  0  0  0  0  0  0  0  0  0  0  0
   47.1226   30.1212   47.9316 H   0  0  0  0  0  0  0  0  0  0  0  0
   44.6518   29.4119   46.4944 H   0  0  0  0  0  0  0  0  0  0  0  0
   45.1184   26.5973   49.0178 H   0  0  0  0  0  0  0  0  0  0  0  0
   44.1563   28.0988   48.9699 H   0  0  0  0  0  0  0  0  0  0  0  0
   44.7425   31.4372   46.9876 H   0  0  0  0  0  0  0  0  0  0  0  0
   46.9921   32.5494   48.9443 H   0  0  0  0  0  0  0  0  0  0  0  0
   45.8157   33.5699   48.8167 H   0  0  0  0  0  0  0  0  0  0  0  0
   44.2959   31.3112   50.1031 H   0  0  0  0  0  0  0  0  0  0  0  0
   45.6560   30.5431   51.1081 H   0  0  0  0  0  0  0  0  0  0  0  0
  1  2  2  0
  2  3  1  0
  3 13  1  0
  4  3  2  0
  5  4  1  0
  6  5  2  0
  6  1  1  0
  7 12  2  0
  8  7  1  0
  9 10  1  0
  9  8  2  0
 10 11  2  0
 11  1  1  0
 11 12  1  0
 13 18  1  0
 14 13  1  0
 14 15  1  0
 15 16  1  0
 17 15  2  0
 18 19  1  0
 18 20  1  0
 19 20  1  0
 20 21  1  0
  2 22  1  0
  4 23  1  0
  5 24  1  0
  7 25  1  0
  8 26  1  0
  9 27  1  0
 13 28  1  1
 14 29  1  0
 16 30  1  0
 16 31  1  0
 18 32  1  6
 19 33  1  0
 19 34  1  0
 20 35  1  6
 21 36  1  0
M  ISO  8  22  14  23  14  24  14  25  14  26  14  27  14  28   8  32  13
M  ISO  4  33  13  34  13  35  13  36   3
M  END
>  <minimizedAffinity>  (1) 
-4.88326406

>  <minimizedRMSD>  (1) 
0.370630652

$$$$
