
     RDKit          3D

 37 39  0  0  1  0  0  0  0  0999 V2000
   46.5280   30.7490   46.1870 C   0  0  2  0  0  0  0  0  0  0  0  0
   48.5010   32.0550   43.2650 C   0  0  0  0  0  0  0  0  0  0  0  0
   47.5840   31.9200   44.3020 C   0  0  0  0  0  0  0  0  0  0  0  0
   47.5490   30.7970   45.0720 C   0  0  0  0  0  0  0  0  0  0  0  0
   48.4450   29.8110   44.7870 C   0  0  0  0  0  0  0  0  0  0  0  0
   49.3660   29.9020   43.7730 C   0  0  0  0  0  0  0  0  0  0  0  0
   49.3520   31.0260   43.0540 N   0  0  0  0  0  0  0  0  0  0  0  0
   49.4550   35.3600   42.1110 C   0  0  0  0  0  0  0  0  0  0  0  0
   48.6890   35.5270   40.9450 C   0  0  0  0  0  0  0  0  0  0  0  0
   47.8390   34.4910   40.5590 C   0  0  0  0  0  0  0  0  0  0  0  0
   47.7870   33.3720   41.3190 N   0  0  0  0  0  0  0  0  0  0  0  0
   48.5530   33.2620   42.4450 C   0  0  0  0  0  0  0  0  0  0  0  0
   49.3630   34.2400   42.8190 N   0  0  0  0  0  0  0  0  0  0  0  0
   45.2960   30.6090   45.6480 N   0  0  0  0  0  0  0  0  0  0  0  0
   44.6990   29.3820   45.3540 C   0  0  0  0  0  0  0  0  0  0  0  0
   43.6320   28.9460   46.1710 N   0  0  0  0  0  0  0  0  0  0  0  0
   44.8880   28.4890   44.4660 O   0  0  0  0  0  0  0  0  0  0  0  0
   46.5730   32.0900   46.8060 C   0  0  2  0  0  0  0  0  0  0  0  0
   47.5600   32.3940   47.8780 C   0  0  0  0  0  0  0  0  0  0  0  0
   46.1620   32.1590   48.2910 C   0  0  2  0  0  0  0  0  0  0  0  0
   45.7560   30.8650   48.9070 C   0  0  0  0  0  0  0  0  0  0  0  0
   44.8840   29.9860   48.9010 O   0  0  0  0  0  0  0  0  0  0  0  0
   46.7301   29.9283   46.8910 H   0  0  0  0  0  0  0  0  0  0  0  0
   46.8738   32.7353   44.5041 H   0  0  0  0  0  0  0  0  0  0  0  0
   48.4297   28.8973   45.3993 H   0  0  0  0  0  0  0  0  0  0  0  0
   50.0785   29.0904   43.5641 H   0  0  0  0  0  0  0  0  0  0  0  0
   50.1342   36.1607   42.4391 H   0  0  0  0  0  0  0  0  0  0  0  0
   48.7580   36.4509   40.3520 H   0  0  0  0  0  0  0  0  0  0  0  0
   47.2217   34.5815   39.6530 H   0  0  0  0  0  0  0  0  0  0  0  0
   44.7622   31.4651   45.4404 H   0  0  0  0  0  0  0  0  0  0  0  0
   43.1713   28.0450   45.9791 H   0  0  0  0  0  0  0  0  0  0  0  0
   43.3148   29.5292   46.9585 H   0  0  0  0  0  0  0  0  0  0  0  0
   46.2993   32.5823   45.8611 H   0  0  0  0  0  0  0  0  0  0  0  0
   48.3322   31.6524   48.1305 H   0  0  0  0  0  0  0  0  0  0  0  0
   48.2760   33.2123   48.0443 H   0  0  0  0  0  0  0  0  0  0  0  0
   45.4548   32.7261   48.9142 H   0  0  0  0  0  0  0  0  0  0  0  0
   46.5197   30.5841   49.6472 H   0  0  0  0  0  0  0  0  0  0  0  0
  1 18  1  0
  2  3  2  0
  3  4  1  0
  4  1  1  0
  5  4  2  0
  6  5  1  0
  7  2  1  0
  7  6  2  0
  8 13  2  0
  9  8  1  0
 10  9  2  0
 10 11  1  0
 11 12  2  0
 12 13  1  0
 12  2  1  0
 14  1  1  0
 15 14  1  0
 15 16  1  0
 17 15  2  0
 18 19  1  0
 18 20  1  0
 19 20  1  0
 20 21  1  0
 22 21  2  0
  1 23  1  1
  3 24  1  0
  5 25  1  0
  6 26  1  0
  8 27  1  0
  9 28  1  0
 10 29  1  0
 14 30  1  0
 16 31  1  0
 16 32  1  0
 18 33  1  6
 19 34  1  0
 19 35  1  0
 20 36  1  6
 21 37  1  0
M  ISO  8  23   8  24  14  25  14  26  14  27  14  28  14  29  14  33  13
M  ISO  4  34  13  35  13  36  13  37   6
M  END
>  <minimizedAffinity>  (1) 
-4.74588823

>  <minimizedRMSD>  (1) 
2.91015983

$$$$
