
     RDKit          3D

 37 39  0  0  1  0  0  0  0  0999 V2000
   47.0600   30.1710   46.9450 C   0  0  2  0  0  0  0  0  0  0  0  0
   46.7020   32.7780   44.2580 C   0  0  0  0  0  0  0  0  0  0  0  0
   46.5860   32.0640   45.4430 C   0  0  0  0  0  0  0  0  0  0  0  0
   47.2250   30.8730   45.6160 C   0  0  0  0  0  0  0  0  0  0  0  0
   47.9810   30.4110   44.5810 C   0  0  0  0  0  0  0  0  0  0  0  0
   48.1210   31.0870   43.3920 C   0  0  0  0  0  0  0  0  0  0  0  0
   47.4680   32.2490   43.2880 N   0  0  0  0  0  0  0  0  0  0  0  0
   44.5890   35.6540   44.9290 C   0  0  0  0  0  0  0  0  0  0  0  0
   44.7710   36.4660   43.7900 C   0  0  0  0  0  0  0  0  0  0  0  0
   45.6340   36.0010   42.7870 C   0  0  0  0  0  0  0  0  0  0  0  0
   46.2450   34.8070   42.9540 N   0  0  0  0  0  0  0  0  0  0  0  0
   46.0330   34.0640   44.0740 C   0  0  0  0  0  0  0  0  0  0  0  0
   45.2200   34.4930   45.0290 N   0  0  0  0  0  0  0  0  0  0  0  0
   45.8540   29.5580   46.9700 N   0  0  0  0  0  0  0  0  0  0  0  0
   45.6810   28.1730   47.0400 C   0  0  0  0  0  0  0  0  0  0  0  0
   45.2040   27.6240   48.2530 N   0  0  0  0  0  0  0  0  0  0  0  0
   45.8550   27.2110   46.2260 O   0  0  0  0  0  0  0  0  0  0  0  0
   47.0080   31.2580   47.9380 C   0  0  2  0  0  0  0  0  0  0  0  0
   47.7630   31.1730   49.2160 C   0  0  0  0  0  0  0  0  0  0  0  0
   46.3070   30.9290   49.2710 C   0  0  1  0  0  0  0  0  0  0  0  0
   45.4370   31.9040   49.8630 N   0  0  0  0  0  0  0  0  0  0  0  0
   47.8598   29.4381   47.1274 H   0  0  0  0  0  0  0  0  0  0  0  0
   45.9666   32.4674   46.2576 H   0  0  0  0  0  0  0  0  0  0  0  0
   48.5044   29.4512   44.7025 H   0  0  0  0  0  0  0  0  0  0  0  0
   48.7372   30.6930   42.5704 H   0  0  0  0  0  0  0  0  0  0  0  0
   43.9207   35.9858   45.7373 H   0  0  0  0  0  0  0  0  0  0  0  0
   44.2534   37.4316   43.6917 H   0  0  0  0  0  0  0  0  0  0  0  0
   45.8106   36.5978   41.8800 H   0  0  0  0  0  0  0  0  0  0  0  0
   45.0111   30.1489   46.9353 H   0  0  0  0  0  0  0  0  0  0  0  0
   45.0652   26.6070   48.3386 H   0  0  0  0  0  0  0  0  0  0  0  0
   44.9954   28.2412   49.0508 H   0  0  0  0  0  0  0  0  0  0  0  0
   46.9414   32.0185   47.1460 H   0  0  0  0  0  0  0  0  0  0  0  0
   48.4596   30.3376   49.3800 H   0  0  0  0  0  0  0  0  0  0  0  0
   48.4413   31.8571   49.7470 H   0  0  0  0  0  0  0  0  0  0  0  0
   45.6671   30.1169   49.6465 H   0  0  0  0  0  0  0  0  0  0  0  0
   45.4956   31.8383   50.8892 H   0  0  0  0  0  0  0  0  0  0  0  0
   45.7229   32.8468   49.5624 H   0  0  0  0  0  0  0  0  0  0  0  0
  1 14  1  0
  1 18  1  0
  2  3  2  0
  3  4  1  0
  4  1  1  0
  5  4  2  0
  6  5  1  0
  7  6  2  0
  7  2  1  0
  8 13  2  0
  9  8  1  0
 10 11  1  0
 10  9  2  0
 11 12  2  0
 12  2  1  0
 12 13  1  0
 14 15  1  0
 15 16  1  0
 17 15  2  0
 18 19  1  0
 18 20  1  0
 19 20  1  0
 20 21  1  0
  1 22  1  1
  3 23  1  0
  5 24  1  0
  6 25  1  0
  8 26  1  0
  9 27  1  0
 10 28  1  0
 14 29  1  0
 16 30  1  0
 16 31  1  0
 18 32  1  6
 19 33  1  0
 19 34  1  0
 20 35  1  6
 21 36  1  0
 21 37  1  0
M  ISO  8  22   8  23  14  24  14  25  14  26  14  27  14  28  14  32  13
M  ISO  5  33  13  34  13  35  13  36   5  37   5
M  END
>  <minimizedAffinity>  (1) 
-5.2298336

>  <minimizedRMSD>  (1) 
1.01161468

$$$$
