
     RDKit          3D

 44 46  0  0  1  0  0  0  0  0999 V2000
   46.1210   30.7630   45.8520 C   0  0  2  0  0  0  0  0  0  0  0  0
   48.4040   32.1180   43.2070 C   0  0  0  0  0  0  0  0  0  0  0  0
   47.3520   31.9560   44.1110 C   0  0  0  0  0  0  0  0  0  0  0  0
   47.2510   30.8370   44.8730 C   0  0  0  0  0  0  0  0  0  0  0  0
   48.2030   29.8750   44.7310 C   0  0  0  0  0  0  0  0  0  0  0  0
   49.2550   29.9940   43.8540 C   0  0  0  0  0  0  0  0  0  0  0  0
   49.3050   31.1170   43.1300 N   0  0  0  0  0  0  0  0  0  0  0  0
   49.4790   35.4100   42.1310 C   0  0  0  0  0  0  0  0  0  0  0  0
   48.8060   35.5770   40.8980 C   0  0  0  0  0  0  0  0  0  0  0  0
   47.9840   34.5390   40.4590 C   0  0  0  0  0  0  0  0  0  0  0  0
   47.8620   33.4380   41.2070 N   0  0  0  0  0  0  0  0  0  0  0  0
   48.5300   33.3140   42.3950 C   0  0  0  0  0  0  0  0  0  0  0  0
   49.3120   34.2820   42.8290 N   0  0  0  0  0  0  0  0  0  0  0  0
   44.9690   30.4890   45.2000 N   0  0  0  0  0  0  0  0  0  0  0  0
   44.4680   29.1980   45.0050 C   0  0  0  0  0  0  0  0  0  0  0  0
   43.3240   28.8120   45.7320 N   0  0  0  0  0  0  0  0  0  0  0  0
   44.8120   28.2090   44.2790 O   0  0  0  0  0  0  0  0  0  0  0  0
   45.9750   32.1330   46.4090 C   0  0  2  0  0  0  0  0  0  0  0  0
   47.0730   32.7760   47.1760 C   0  0  0  0  0  0  0  0  0  0  0  0
   45.8710   32.3240   47.9130 C   0  0  2  0  0  0  0  0  0  0  0  0
   45.9000   31.2610   48.9240 C   0  0  0  0  0  0  0  0  0  0  0  0
   45.1310   30.0070   48.6780 C   0  0  0  0  0  0  0  0  0  0  0  0
   47.3620   30.7760   49.0290 C   0  0  0  0  0  0  0  0  0  0  0  0
   46.3167   29.9940   46.6139 H   0  0  0  0  0  0  0  0  0  0  0  0
   46.5937   32.7471   44.2071 H   0  0  0  0  0  0  0  0  0  0  0  0
   48.1276   28.9643   45.3434 H   0  0  0  0  0  0  0  0  0  0  0  0
   50.0161   29.2062   43.7531 H   0  0  0  0  0  0  0  0  0  0  0  0
   50.1366   36.2044   42.5137 H   0  0  0  0  0  0  0  0  0  0  0  0
   48.9269   36.4954   40.3048 H   0  0  0  0  0  0  0  0  0  0  0  0
   47.4413   34.6257   39.5061 H   0  0  0  0  0  0  0  0  0  0  0  0
   44.4268   31.2798   44.8236 H   0  0  0  0  0  0  0  0  0  0  0  0
   42.9309   27.8678   45.6104 H   0  0  0  0  0  0  0  0  0  0  0  0
   42.8810   29.4741   46.3849 H   0  0  0  0  0  0  0  0  0  0  0  0
   45.3774   32.4155   45.5298 H   0  0  0  0  0  0  0  0  0  0  0  0
   48.0272   32.2456   47.3112 H   0  0  0  0  0  0  0  0  0  0  0  0
   47.6090   33.7331   47.0941 H   0  0  0  0  0  0  0  0  0  0  0  0
   45.1214   32.7778   48.5780 H   0  0  0  0  0  0  0  0  0  0  0  0
   45.4409   31.7412   49.8007 H   0  0  0  0  0  0  0  0  0  0  0  0
   44.8525   29.5529   49.6404 H   0  0  0  0  0  0  0  0  0  0  0  0
   44.2210   30.2411   48.1061 H   0  0  0  0  0  0  0  0  0  0  0  0
   45.7523   29.3021   48.1061 H   0  0  0  0  0  0  0  0  0  0  0  0
   47.6423   30.6830   50.0886 H   0  0  0  0  0  0  0  0  0  0  0  0
   47.4599   29.7973   48.5366 H   0  0  0  0  0  0  0  0  0  0  0  0
   48.0255   31.5022   48.5366 H   0  0  0  0  0  0  0  0  0  0  0  0
  1 18  1  0
  2  3  2  0
  3  4  1  0
  4  1  1  0
  5  4  2  0
  6  5  1  0
  7  2  1  0
  7  6  2  0
  8 13  2  0
  9  8  1  0
 10  9  2  0
 10 11  1  0
 11 12  2  0
 12 13  1  0
 12  2  1  0
 14  1  1  0
 15 14  1  0
 15 16  1  0
 17 15  2  0
 18 19  1  0
 18 20  1  0
 19 20  1  0
 20 21  1  0
 21 23  1  0
 22 21  1  0
  1 24  1  1
  3 25  1  0
  5 26  1  0
  6 27  1  0
  8 28  1  0
  9 29  1  0
 10 30  1  0
 14 31  1  0
 16 32  1  0
 16 33  1  0
 18 34  1  6
 19 35  1  0
 19 36  1  0
 20 37  1  6
 21 38  1  0
 22 39  1  0
 22 40  1  0
 22 41  1  0
 23 42  1  0
 23 43  1  0
 23 44  1  0
M  ISO  8  24   8  25  14  26  14  27  14  28  14  29  14  30  14  34  13
M  ISO  8  35  13  36  13  37  13  38   8  39   8  40   8  41   8  42   8
M  ISO  2  43   8  44   8
M  END
>  <minimizedAffinity>  (1) 
-5.10083389

>  <minimizedRMSD>  (1) 
2.94322658

$$$$
