
     RDKit          3D

 41 43  0  0  1  0  0  0  0  0999 V2000
   46.9610   30.5040   46.0030 C   0  0  2  0  0  0  0  0  0  0  0  0
   48.2340   31.9490   42.7800 C   0  0  0  0  0  0  0  0  0  0  0  0
   47.7130   31.8020   44.0620 C   0  0  0  0  0  0  0  0  0  0  0  0
   47.5110   30.5640   44.5940 C   0  0  0  0  0  0  0  0  0  0  0  0
   47.8250   29.4790   43.8540 C   0  0  0  0  0  0  0  0  0  0  0  0
   48.3420   29.5800   42.5790 C   0  0  0  0  0  0  0  0  0  0  0  0
   48.5240   30.8120   42.0970 N   0  0  0  0  0  0  0  0  0  0  0  0
   49.5480   35.2960   42.3580 C   0  0  0  0  0  0  0  0  0  0  0  0
   49.0060   35.7230   41.1360 C   0  0  0  0  0  0  0  0  0  0  0  0
   48.1690   34.8280   40.4600 C   0  0  0  0  0  0  0  0  0  0  0  0
   47.9240   33.6070   41.0070 N   0  0  0  0  0  0  0  0  0  0  0  0
   48.4760   33.2530   42.1880 C   0  0  0  0  0  0  0  0  0  0  0  0
   49.2660   34.0820   42.8370 N   0  0  0  0  0  0  0  0  0  0  0  0
   46.2520   29.3680   46.1460 N   0  0  0  0  0  0  0  0  0  0  0  0
   46.4120   28.4270   47.1540 C   0  0  0  0  0  0  0  0  0  0  0  0
   45.3560   28.3190   48.1050 N   0  0  0  0  0  0  0  0  0  0  0  0
   47.3360   27.5830   47.4500 O   0  0  0  0  0  0  0  0  0  0  0  0
   46.0120   31.6270   46.0910 C   0  0  2  0  0  0  0  0  0  0  0  0
   46.4180   32.9940   46.4340 C   0  0  0  0  0  0  0  0  0  0  0  0
   45.7770   32.2300   47.4990 C   0  0  2  0  0  0  0  0  0  0  0  0
   46.6160   31.8200   48.6240 C   0  0  0  0  0  0  0  0  0  0  0  0
   46.1410   31.0020   49.4660 O   0  0  0  0  0  0  0  0  0  0  0  0
   47.8770   32.1450   49.0020 O   0  0  0  0  0  0  0  0  0  0  0  0
   48.9580   31.2970   49.1670 C   0  0  0  0  0  0  0  0  0  0  0  0
   48.8530   30.4480   50.2440 F   0  0  0  0  0  0  0  0  0  0  0  0
   50.1570   31.9880   49.2400 F   0  0  0  0  0  0  0  0  0  0  0  0
   49.0390   30.5090   48.0140 F   0  0  0  0  0  0  0  0  0  0  0  0
   47.7590   30.5450   46.7590 H   0  0  0  0  0  0  0  0  0  0  0  0
   47.4614   32.6953   44.6525 H   0  0  0  0  0  0  0  0  0  0  0  0
   47.6628   28.4792   44.2830 H   0  0  0  0  0  0  0  0  0  0  0  0
   48.5926   28.6874   41.9870 H   0  0  0  0  0  0  0  0  0  0  0  0
   50.2101   35.9665   42.9255 H   0  0  0  0  0  0  0  0  0  0  0  0
   49.2296   36.7192   40.7267 H   0  0  0  0  0  0  0  0  0  0  0  0
   47.7149   35.1085   39.4982 H   0  0  0  0  0  0  0  0  0  0  0  0
   45.5237   29.1799   45.4424 H   0  0  0  0  0  0  0  0  0  0  0  0
   45.4231   27.6368   48.8738 H   0  0  0  0  0  0  0  0  0  0  0  0
   44.5258   28.9231   48.0235 H   0  0  0  0  0  0  0  0  0  0  0  0
   45.4246   31.2005   45.2645 H   0  0  0  0  0  0  0  0  0  0  0  0
   47.4885   33.2343   46.5127 H   0  0  0  0  0  0  0  0  0  0  0  0
   46.2139   33.9764   45.9833 H   0  0  0  0  0  0  0  0  0  0  0  0
   44.8998   32.3399   48.1535 H   0  0  0  0  0  0  0  0  0  0  0  0
  1 18  1  0
  1 14  1  0
  2  3  2  0
  3  4  1  0
  4  1  1  0
  5  4  2  0
  6  5  1  0
  7  6  2  0
  7  2  1  0
  8 13  2  0
  9  8  1  0
 10 11  1  0
 10  9  2  0
 11 12  2  0
 12  2  1  0
 12 13  1  0
 14 15  1  0
 15 17  2  0
 15 16  1  0
 18 19  1  0
 18 20  1  0
 19 20  1  0
 20 21  1  0
 21 23  1  0
 21 22  2  0
 23 24  1  0
 24 26  1  0
 24 25  1  0
 27 24  1  0
  1 28  1  1
  3 29  1  0
  5 30  1  0
  6 31  1  0
  8 32  1  0
  9 33  1  0
 10 34  1  0
 14 35  1  0
 16 36  1  0
 16 37  1  0
 18 38  1  6
 19 39  1  0
 19 40  1  0
 20 41  1  1
M  ISO  8  28   8  29  14  30  14  31  14  32  14  33  14  34  14  38  13
M  ISO  3  39  13  40  13  41  13
M  END
>  <minimizedAffinity>  (1) 
-5.28772974

>  <minimizedRMSD>  (1) 
1.55869842

$$$$
