
     RDKit          3D

 39 42  0  0  0  0  0  0  0  0999 V2000
   44.9920   35.4490   45.0130 C   0  0  0  0  0  0  0  0  0  0  0  0
   44.1990   35.6420   43.8560 C   0  0  0  0  0  0  0  0  0  0  0  0
   44.1900   34.6340   42.9130 C   0  0  0  0  0  0  0  0  0  0  0  0
   44.9090   33.5130   43.0910 N   0  0  0  0  0  0  0  0  0  0  0  0
   45.6710   33.3390   44.2140 C   0  0  0  0  0  0  0  0  0  0  0  0
   45.6990   34.3190   45.1640 N   0  0  0  0  0  0  0  0  0  0  0  0
   43.3840   34.8520   41.7560 N   0  0  0  0  0  0  0  0  0  0  0  0
   42.1080   35.2490   41.7150 C   0  0  0  0  0  0  0  0  0  0  0  0
   41.4720   35.4130   40.5050 C   0  0  0  0  0  0  0  0  0  0  0  0
   42.1200   35.1770   39.3020 C   0  0  0  0  0  0  0  0  0  0  0  0
   41.5400   35.3260   38.1980 O   0  0  0  0  0  0  0  0  0  0  0  0
   43.3960   34.7810   39.3830 N   0  0  0  0  0  0  0  0  0  0  0  0
   44.0200   34.6200   40.5860 C   0  0  0  0  0  0  0  0  0  0  0  0
   45.2370   34.2380   40.4900 O   0  0  0  0  0  0  0  0  0  0  0  0
   40.0770   35.8480   40.4750 C   0  0  0  0  0  0  0  0  0  0  0  0
   46.4420   32.1300   44.4010 C   0  0  0  0  0  0  0  0  0  0  0  0
   47.0490   31.3500   43.4200 C   0  0  0  0  0  0  0  0  0  0  0  0
   47.6830   30.2940   43.9900 N   0  0  0  0  0  0  0  0  0  0  0  0
   47.4670   30.4200   45.3280 C   0  0  0  0  0  0  0  0  0  0  0  0
   46.7180   31.5280   45.5840 N   0  0  0  0  0  0  0  0  0  0  0  0
   47.9610   29.5040   46.3800 C   0  0  0  0  0  0  0  0  0  0  0  0
   49.1050   29.7490   47.1050 C   0  0  0  0  0  0  0  0  0  0  0  0
   49.1620   28.2760   48.2120 S   0  0  0  0  0  0  0  0  0  0  0  0
   47.5530   27.5850   47.4410 C   0  0  0  0  0  0  0  0  0  0  0  0
   47.2670   28.4060   46.6250 N   0  0  0  0  0  0  0  0  0  0  0  0
   46.2770   32.0080   46.8690 C   0  0  0  0  0  0  0  0  0  0  0  0
   46.1830   30.9510   47.8100 F   0  0  0  0  0  0  0  0  0  0  0  0
   45.0330   32.6420   46.8090 F   0  0  0  0  0  0  0  0  0  0  0  0
   47.2130   32.8660   47.4190 F   0  0  0  0  0  0  0  0  0  0  0  0
   45.0284   36.2272   45.7896 H   0  0  0  0  0  0  0  0  0  0  0  0
   43.6118   36.5612   43.7139 H   0  0  0  0  0  0  0  0  0  0  0  0
   41.5646   35.4452   42.6510 H   0  0  0  0  0  0  0  0  0  0  0  0
   43.9198   34.5932   38.5162 H   0  0  0  0  0  0  0  0  0  0  0  0
   39.7067   35.9635   41.5043 H   0  0  0  0  0  0  0  0  0  0  0  0
   40.0046   36.8114   39.9490 H   0  0  0  0  0  0  0  0  0  0  0  0
   39.4698   35.0965   39.9490 H   0  0  0  0  0  0  0  0  0  0  0  0
   47.0190   31.5592   42.3405 H   0  0  0  0  0  0  0  0  0  0  0  0
   49.8008   30.5985   47.0409 H   0  0  0  0  0  0  0  0  0  0  0  0
   47.0206   26.6552   47.6902 H   0  0  0  0  0  0  0  0  0  0  0  0
  1  6  2  0
  2  1  1  0
  3  4  1  0
  3  2  2  0
  4  5  2  0
  5 16  1  0
  5  6  1  0
  7  3  1  0
  8  7  1  0
  9  8  2  0
 10 12  1  0
 10  9  1  0
 11 10  2  0
 12 13  1  0
 13  7  1  0
 14 13  2  0
 15  9  1  0
 16 20  1  0
 17 18  1  0
 17 16  2  0
 18 19  2  0
 19 20  1  0
 19 21  1  0
 20 26  1  0
 21 25  1  0
 21 22  2  0
 22 23  1  0
 24 23  1  0
 25 24  2  0
 26 29  1  0
 26 27  1  0
 28 26  1  0
  1 30  1  0
  2 31  1  0
  8 32  1  0
 12 33  1  0
 15 34  1  0
 15 35  1  0
 15 36  1  0
 17 37  1  0
 22 38  1  0
 24 39  1  0
M  ISO  8  30  14  31  14  32  14  33   9  34   8  35   8  36   8  37  14
M  ISO  2  38  14  39  14
M  END
>  <minimizedAffinity>  (1) 
-5.97374105

>  <minimizedRMSD>  (1) 
1.16848397

$$$$
