
     RDKit          3D

 32 34  0  0  0  0  0  0  0  0999 V2000
   47.0790   34.8110   41.8920 C   0  0  0  0  0  0  0  0  0  0  0  0
   46.2680   34.8840   43.1330 C   0  0  0  0  0  0  0  0  0  0  0  0
   45.3680   35.9520   43.2160 C   0  0  0  0  0  0  0  0  0  0  0  0
   44.5560   36.1540   44.3060 C   0  0  0  0  0  0  0  0  0  0  0  0
   44.6310   35.2790   45.3480 C   0  0  0  0  0  0  0  0  0  0  0  0
   45.5200   34.2210   45.2680 C   0  0  0  0  0  0  0  0  0  0  0  0
   45.5480   33.3680   46.3510 C   0  0  0  0  0  0  0  0  0  0  0  0
   46.4200   32.3060   46.2980 C   0  0  0  0  0  0  0  0  0  0  0  0
   47.2220   32.1220   45.2010 C   0  0  0  0  0  0  0  0  0  0  0  0
   47.2150   32.9620   44.0990 C   0  0  0  0  0  0  0  0  0  0  0  0
   46.3360   34.0130   44.1790 C   0  0  0  0  0  0  0  0  0  0  0  0
   46.3260   34.1810   40.7350 C   0  0  0  0  0  0  0  0  0  0  0  0
   48.4280   32.8790   40.4610 C   0  0  0  0  0  0  0  0  0  0  0  0
   47.2900   33.4950   39.8780 C   0  0  0  0  0  0  0  0  0  0  0  0
   47.1650   33.4070   38.4940 C   0  0  0  0  0  0  0  0  0  0  0  0
   48.1180   32.7550   37.7930 N   0  0  0  0  0  0  0  0  0  0  0  0
   49.1860   32.1810   38.3810 C   0  0  0  0  0  0  0  0  0  0  0  0
   49.3260   32.2500   39.7000 N   0  0  0  0  0  0  0  0  0  0  0  0
   47.3754   35.8307   41.6051 H   0  0  0  0  0  0  0  0  0  0  0  0
   47.9527   34.1771   42.1036 H   0  0  0  0  0  0  0  0  0  0  0  0
   45.3080   36.6584   42.3749 H   0  0  0  0  0  0  0  0  0  0  0  0
   43.8595   37.0048   44.3368 H   0  0  0  0  0  0  0  0  0  0  0  0
   43.9964   35.4111   46.2368 H   0  0  0  0  0  0  0  0  0  0  0  0
   44.8981   33.5307   47.2234 H   0  0  0  0  0  0  0  0  0  0  0  0
   46.4745   31.6003   47.1401 H   0  0  0  0  0  0  0  0  0  0  0  0
   47.9074   31.2617   45.1956 H   0  0  0  0  0  0  0  0  0  0  0  0
   47.8646   32.7989   43.2264 H   0  0  0  0  0  0  0  0  0  0  0  0
   45.5905   33.4590   41.1193 H   0  0  0  0  0  0  0  0  0  0  0  0
   45.7948   34.9557   40.1626 H   0  0  0  0  0  0  0  0  0  0  0  0
   48.5713   32.9204   41.5508 H   0  0  0  0  0  0  0  0  0  0  0  0
   46.3047   33.8608   37.9802 H   0  0  0  0  0  0  0  0  0  0  0  0
   49.9379   31.6580   37.7718 H   0  0  0  0  0  0  0  0  0  0  0  0
  1  2  1  0
  2  3  2  0
  2 11  1  0
  3  4  1  0
  4  5  2  0
  6  5  1  0
  6  7  2  0
  8  7  1  0
  9  8  2  0
 10 11  2  0
 10  9  1  0
 11  6  1  0
 12  1  1  0
 14 13  2  0
 14 12  1  0
 15 14  1  0
 16 17  1  0
 16 15  2  0
 17 18  2  0
 18 13  1  0
  1 19  1  0
  1 20  1  0
  3 21  1  0
  4 22  1  0
  5 23  1  0
  7 24  1  0
  8 25  1  0
  9 26  1  0
 10 27  1  0
 12 28  1  0
 12 29  1  0
 13 30  1  0
 15 31  1  0
 17 32  1  0
M  ISO  8  19   8  20   8  21  14  22  14  23  14  24  14  25  14  26  14
M  ISO  6  27  14  28   8  29   8  30  14  31  14  32  14
M  END
>  <minimizedAffinity>  (1) 
-5.16741323

>  <minimizedRMSD>  (1) 
6.55968285

$$$$
