
     RDKit          3D

 29 31  0  0  0  0  0  0  0  0999 V2000
   45.5330   33.4870   41.0440 C   0  0  0  0  0  0  0  0  0  0  0  0
   46.5280   33.6750   39.9880 N   0  0  0  0  0  0  0  0  0  0  0  0
   47.7180   34.2980   40.0140 C   0  0  0  0  0  0  0  0  0  0  0  0
   48.2680   34.2020   38.7890 N   0  0  0  0  0  0  0  0  0  0  0  0
   47.4270   33.5210   37.9920 C   0  0  0  0  0  0  0  0  0  0  0  0
   47.5290   33.1600   36.6560 C   0  0  0  0  0  0  0  0  0  0  0  0
   46.5240   32.4690   36.1020 N   0  0  0  0  0  0  0  0  0  0  0  0
   45.4390   32.1390   36.8470 C   0  0  0  0  0  0  0  0  0  0  0  0
   45.3220   32.4840   38.1550 N   0  0  0  0  0  0  0  0  0  0  0  0
   46.3210   33.1810   38.7390 C   0  0  0  0  0  0  0  0  0  0  0  0
   48.6590   33.5010   35.8710 N   0  0  0  0  0  0  0  0  0  0  0  0
   45.1830   34.8670   41.6270 C   0  0  0  0  0  0  0  0  0  0  0  0
   44.5910   35.7870   43.8310 C   0  0  0  0  0  0  0  0  0  0  0  0
   45.1320   34.7400   43.0670 C   0  0  0  0  0  0  0  0  0  0  0  0
   45.5870   33.6320   43.7770 C   0  0  0  0  0  0  0  0  0  0  0  0
   45.4850   33.6300   45.1330 N   0  0  0  0  0  0  0  0  0  0  0  0
   44.9560   34.6640   45.8240 C   0  0  0  0  0  0  0  0  0  0  0  0
   44.5100   35.7420   45.1720 N   0  0  0  0  0  0  0  0  0  0  0  0
   45.9461   32.8430   41.8343 H   0  0  0  0  0  0  0  0  0  0  0  0
   44.6312   33.0079   40.6350 H   0  0  0  0  0  0  0  0  0  0  0  0
   48.1652   34.7994   40.8849 H   0  0  0  0  0  0  0  0  0  0  0  0
   44.6243   31.5711   36.3739 H   0  0  0  0  0  0  0  0  0  0  0  0
   48.7034   33.2176   34.8818 H   0  0  0  0  0  0  0  0  0  0  0  0
   49.4357   34.0322   36.2899 H   0  0  0  0  0  0  0  0  0  0  0  0
   45.9533   35.5992   41.3432 H   0  0  0  0  0  0  0  0  0  0  0  0
   44.2142   35.2135   41.2378 H   0  0  0  0  0  0  0  0  0  0  0  0
   44.2180   36.6812   43.3102 H   0  0  0  0  0  0  0  0  0  0  0  0
   46.0225   32.7710   43.2488 H   0  0  0  0  0  0  0  0  0  0  0  0
   44.8926   34.6184   46.9212 H   0  0  0  0  0  0  0  0  0  0  0  0
  1 12  1  0
  2  3  1  0
  2  1  1  0
  4  3  2  0
  5 10  2  0
  5  4  1  0
  6  5  1  0
  7  6  2  0
  7  8  1  0
  8  9  2  0
  9 10  1  0
 10  2  1  0
 11  6  1  0
 12 14  1  0
 13 18  2  0
 14 15  2  0
 14 13  1  0
 15 16  1  0
 16 17  2  0
 18 17  1  0
  1 19  1  0
  1 20  1  0
  3 21  1  0
  8 22  1  0
 11 23  1  0
 11 24  1  0
 12 25  1  0
 12 26  1  0
 13 27  1  0
 15 28  1  0
 17 29  1  0
M  ISO  8  19   8  20   8  21  14  22  14  25   8  26   8  27  14  28  14
M  ISO  1  29  14
M  END
>  <minimizedAffinity>  (1) 
-4.5272975

>  <minimizedRMSD>  (1) 
2.40693712

$$$$
