
     RDKit          3D

 27 29  0  0  0  0  0  0  0  0999 V2000
   47.6730   34.7370   41.5760 C   0  0  0  0  0  0  0  0  0  0  0  0
   48.2660   33.6790   40.7500 N   0  0  0  0  0  0  0  0  0  0  0  0
   48.7240   32.5630   41.3650 C   0  0  0  0  0  0  0  0  0  0  0  0
   49.2090   31.7690   40.3880 N   0  0  0  0  0  0  0  0  0  0  0  0
   49.0720   32.3470   39.1830 C   0  0  0  0  0  0  0  0  0  0  0  0
   49.3780   32.0090   37.8770 C   0  0  0  0  0  0  0  0  0  0  0  0
   49.0670   32.9040   36.8940 N   0  0  0  0  0  0  0  0  0  0  0  0
   48.4820   34.0700   37.1970 C   0  0  0  0  0  0  0  0  0  0  0  0
   48.1610   34.4500   38.4640 N   0  0  0  0  0  0  0  0  0  0  0  0
   48.4710   33.5630   39.4260 C   0  0  0  0  0  0  0  0  0  0  0  0
   46.1620   34.6260   41.5860 C   0  0  0  0  0  0  0  0  0  0  0  0
   45.0240   36.0170   43.3000 C   0  0  0  0  0  0  0  0  0  0  0  0
   45.6730   34.8220   42.9340 C   0  0  0  0  0  0  0  0  0  0  0  0
   45.8160   33.8520   43.9210 C   0  0  0  0  0  0  0  0  0  0  0  0
   45.3320   34.0940   45.1780 N   0  0  0  0  0  0  0  0  0  0  0  0
   44.7160   35.2630   45.4760 C   0  0  0  0  0  0  0  0  0  0  0  0
   44.5640   36.2180   44.5410 N   0  0  0  0  0  0  0  0  0  0  0  0
   47.9602   35.7173   41.1679 H   0  0  0  0  0  0  0  0  0  0  0  0
   48.0421   34.6293   42.6066 H   0  0  0  0  0  0  0  0  0  0  0  0
   48.7046   32.3473   42.4435 H   0  0  0  0  0  0  0  0  0  0  0  0
   49.8574   31.0483   37.6377 H   0  0  0  0  0  0  0  0  0  0  0  0
   48.2472   34.7609   36.3739 H   0  0  0  0  0  0  0  0  0  0  0  0
   45.7335   35.3939   40.9252 H   0  0  0  0  0  0  0  0  0  0  0  0
   45.8652   33.6286   41.2296 H   0  0  0  0  0  0  0  0  0  0  0  0
   44.8915   36.8066   42.5457 H   0  0  0  0  0  0  0  0  0  0  0  0
   46.3141   32.8982   43.6929 H   0  0  0  0  0  0  0  0  0  0  0  0
   44.3358   35.4333   46.4941 H   0  0  0  0  0  0  0  0  0  0  0  0
  1 11  1  0
  2  3  1  0
  2  1  1  0
  4  3  2  0
  5 10  2  0
  5  4  1  0
  6  5  1  0
  7  8  1  0
  7  6  2  0
  8  9  2  0
  9 10  1  0
 10  2  1  0
 11 13  1  0
 12 17  2  0
 13 12  1  0
 13 14  2  0
 14 15  1  0
 15 16  2  0
 17 16  1  0
  1 18  1  0
  1 19  1  0
  3 20  1  0
  6 21  1  0
  8 22  1  0
 11 23  1  0
 11 24  1  0
 12 25  1  0
 14 26  1  0
 16 27  1  0
M  ISO  8  18   8  19   8  20  14  21  14  22  14  23   8  24   8  25  14
M  ISO  2  26  14  27  14
M  END
>  <minimizedAffinity>  (1) 
-4.47471237

>  <minimizedRMSD>  (1) 
2.43751216

$$$$
