
     RDKit          3D

 23 24  0  0  0  0  0  0  0  0999 V2000
   45.2350   36.0230   43.2940 C   0  0  0  0  0  0  0  0  0  0  0  0
   46.0700   34.9170   43.1010 C   0  0  0  0  0  0  0  0  0  0  0  0
   46.1800   33.9850   44.1250 C   0  0  0  0  0  0  0  0  0  0  0  0
   45.4660   34.2010   45.2630 N   0  0  0  0  0  0  0  0  0  0  0  0
   44.6650   35.2760   45.4290 C   0  0  0  0  0  0  0  0  0  0  0  0
   44.5500   36.1840   44.4470 N   0  0  0  0  0  0  0  0  0  0  0  0
   46.7840   34.7990   41.8280 C   0  0  0  0  0  0  0  0  0  0  0  0
   47.7650   33.6460   41.9310 C   0  0  0  0  0  0  0  0  0  0  0  0
   49.1560   34.1110   41.5700 C   0  0  0  0  0  0  0  0  0  0  0  0
   50.3210   33.7670   42.3870 C   0  0  0  0  0  0  0  0  0  0  0  0
   49.7370   35.1430   42.4840 C   0  0  0  0  0  0  0  0  0  0  0  0
   45.1349   36.7724   42.4950 H   0  0  0  0  0  0  0  0  0  0  0  0
   46.8243   33.0998   44.0193 H   0  0  0  0  0  0  0  0  0  0  0  0
   44.1074   35.4072   46.3681 H   0  0  0  0  0  0  0  0  0  0  0  0
   47.3285   35.7319   41.6201 H   0  0  0  0  0  0  0  0  0  0  0  0
   46.0704   34.6148   41.0114 H   0  0  0  0  0  0  0  0  0  0  0  0
   47.7665   33.2611   42.9615 H   0  0  0  0  0  0  0  0  0  0  0  0
   47.4598   32.8516   41.2340 H   0  0  0  0  0  0  0  0  0  0  0  0
   48.9549   33.9987   40.4944 H   0  0  0  0  0  0  0  0  0  0  0  0
   50.2133   33.0653   43.2273 H   0  0  0  0  0  0  0  0  0  0  0  0
   51.3227   33.3645   42.1759 H   0  0  0  0  0  0  0  0  0  0  0  0
   50.2803   36.0058   42.0712 H   0  0  0  0  0  0  0  0  0  0  0  0
   49.3544   35.7794   43.2956 H   0  0  0  0  0  0  0  0  0  0  0  0
  1  6  2  0
  2  1  1  0
  2  3  2  0
  3  4  1  0
  4  5  2  0
  6  5  1  0
  7  8  1  0
  7  2  1  0
  9  8  1  0
  9 10  1  0
  9 11  1  0
 10 11  1  0
  1 12  1  0
  3 13  1  0
  5 14  1  0
  7 15  1  0
  7 16  1  0
  8 17  1  0
  8 18  1  0
  9 19  1  0
 10 20  1  0
 10 21  1  0
 11 22  1  0
 11 23  1  0
M  ISO  8  12  14  13  14  14  14  15   8  16   8  17   8  18   8  19  13
M  ISO  4  20  13  21  13  22  13  23  13
M  END
>  <minimizedAffinity>  (1) 
-4.03617001

>  <minimizedRMSD>  (1) 
1.71396661

$$$$
