
     RDKit          3D

 29 30  0  0  1  0  0  0  0  0999 V2000
   46.4530   33.6890   41.2840 C   0  0  0  0  0  0  0  0  0  0  0  0
   47.4110   34.1400   40.1890 C   0  0  2  0  0  0  0  0  0  0  0  0
   48.8170   33.7380   40.1660 C   0  0  0  0  0  0  0  0  0  0  0  0
   48.4160   35.1450   40.4800 C   0  0  2  0  0  0  0  0  0  0  0  0
   49.0130   35.6900   41.6700 C   0  0  0  0  0  0  0  0  0  0  0  0
   49.8300   34.6600   42.4790 C   0  0  0  0  0  0  0  0  0  0  0  0
   45.6050   34.7830   41.7000 C   0  0  0  0  0  0  0  0  0  0  0  0
   44.7130   35.9820   43.6670 C   0  0  0  0  0  0  0  0  0  0  0  0
   45.3360   34.8470   43.0970 C   0  0  0  0  0  0  0  0  0  0  0  0
   45.6430   33.8240   43.9410 C   0  0  0  0  0  0  0  0  0  0  0  0
   45.3490   33.9250   45.2650 N   0  0  0  0  0  0  0  0  0  0  0  0
   44.7500   35.0290   45.7790 C   0  0  0  0  0  0  0  0  0  0  0  0
   44.4380   36.0450   44.9770 N   0  0  0  0  0  0  0  0  0  0  0  0
   47.0333   33.3327   42.1479 H   0  0  0  0  0  0  0  0  0  0  0  0
   45.8204   32.8796   40.8907 H   0  0  0  0  0  0  0  0  0  0  0  0
   46.5891   34.0424   39.4645 H   0  0  0  0  0  0  0  0  0  0  0  0
   49.2198   33.0877   40.9565 H   0  0  0  0  0  0  0  0  0  0  0  0
   49.4841   33.2558   39.4363 H   0  0  0  0  0  0  0  0  0  0  0  0
   48.4241   36.1888   40.1331 H   0  0  0  0  0  0  0  0  0  0  0  0
   49.6823   36.5126   41.3779 H   0  0  0  0  0  0  0  0  0  0  0  0
   48.1907   36.0294   42.3170 H   0  0  0  0  0  0  0  0  0  0  0  0
   49.6863   34.8412   43.5544 H   0  0  0  0  0  0  0  0  0  0  0  0
   49.4893   33.6443   42.2295 H   0  0  0  0  0  0  0  0  0  0  0  0
   50.8966   34.7606   42.2295 H   0  0  0  0  0  0  0  0  0  0  0  0
   46.0937   35.7232   41.4046 H   0  0  0  0  0  0  0  0  0  0  0  0
   44.6338   34.6184   41.2104 H   0  0  0  0  0  0  0  0  0  0  0  0
   44.4484   36.8317   43.0205 H   0  0  0  0  0  0  0  0  0  0  0  0
   46.1284   32.9166   43.5525 H   0  0  0  0  0  0  0  0  0  0  0  0
   44.5232   35.0842   46.8539 H   0  0  0  0  0  0  0  0  0  0  0  0
  1  7  1  0
  2  4  1  0
  2  1  1  0
  3  2  1  0
  3  4  1  0
  4  5  1  0
  5  6  1  0
  7  9  1  0
  8 13  2  0
  9  8  1  0
  9 10  2  0
 10 11  1  0
 11 12  2  0
 13 12  1  0
  1 14  1  0
  1 15  1  0
  2 16  1  6
  3 17  1  0
  3 18  1  0
  4 19  1  6
  5 20  1  0
  5 21  1  0
  6 22  1  0
  6 23  1  0
  6 24  1  0
  7 25  1  0
  7 26  1  0
  8 27  1  0
 10 28  1  0
 12 29  1  0
M  ISO  8  14   8  15   8  16  13  17  13  18  13  19  13  20   8  21   8
M  ISO  8  22   8  23   8  24   8  25   8  26   8  27  14  28  14  29  14
M  END
>  <minimizedAffinity>  (1) 
-4.3064189

>  <minimizedRMSD>  (1) 
1.61923528

$$$$
