
     RDKit          3D

 44 45  0  0  1  0  0  0  0  0999 V2000
   42.7220   35.1590   41.6570 C   0  0  2  0  0  0  0  0  0  0  0  0
   42.6430   33.7750   41.1540 C   0  0  0  0  0  0  0  0  0  0  0  0
   42.2620   34.8820   40.2660 C   0  0  1  0  0  0  0  0  0  0  0  0
   44.0940   35.8530   41.7540 C   0  0  0  0  0  0  0  0  0  0  0  0
   44.7200   35.4580   43.0580 C   0  0  0  0  0  0  0  0  0  0  0  0
   46.5430   34.7020   41.6020 C   0  0  0  0  0  0  0  0  0  0  0  0
   45.9590   34.7390   42.8540 C   0  0  0  0  0  0  0  0  0  0  0  0
   46.5930   34.0750   43.8680 C   0  0  0  0  0  0  0  0  0  0  0  0
   47.7520   33.4120   43.6230 N   0  0  0  0  0  0  0  0  0  0  0  0
   48.2970   33.3970   42.3820 C   0  0  0  0  0  0  0  0  0  0  0  0
   47.6940   34.0350   41.3880 N   0  0  0  0  0  0  0  0  0  0  0  0
   49.5610   32.6890   42.0530 C   0  0  0  0  0  0  0  0  0  0  0  0
   49.4630   32.2920   40.5770 C   0  0  0  0  0  0  0  0  0  0  0  0
   50.7970   33.4670   42.3670 C   0  0  0  0  0  0  0  0  0  0  0  0
   40.8130   35.1310   39.9050 C   0  0  0  0  0  0  0  0  0  0  0  0
   39.9850   33.9490   40.3040 C   0  0  0  0  0  0  0  0  0  0  0  0
   40.6710   35.2930   38.4050 C   0  0  0  0  0  0  0  0  0  0  0  0
   40.2160   36.3390   40.5640 C   0  0  0  0  0  0  0  0  0  0  0  0
   42.3301   35.6587   42.5551 H   0  0  0  0  0  0  0  0  0  0  0  0
   43.5662   33.2096   40.9592 H   0  0  0  0  0  0  0  0  0  0  0  0
   42.1480   32.8548   41.4980 H   0  0  0  0  0  0  0  0  0  0  0  0
   42.5648   35.1955   39.2560 H   0  0  0  0  0  0  0  0  0  0  0  0
   44.7348   35.5321   40.9195 H   0  0  0  0  0  0  0  0  0  0  0  0
   43.9751   36.9453   41.7018 H   0  0  0  0  0  0  0  0  0  0  0  0
   44.9254   36.3651   43.6454 H   0  0  0  0  0  0  0  0  0  0  0  0
   44.0206   34.7971   43.5909 H   0  0  0  0  0  0  0  0  0  0  0  0
   46.0593   35.2267   40.7649 H   0  0  0  0  0  0  0  0  0  0  0  0
   46.1641   34.0783   44.8809 H   0  0  0  0  0  0  0  0  0  0  0  0
   49.6662   31.8007   42.6933 H   0  0  0  0  0  0  0  0  0  0  0  0
   49.2000   31.2266   40.5005 H   0  0  0  0  0  0  0  0  0  0  0  0
   48.6873   32.8974   40.0852 H   0  0  0  0  0  0  0  0  0  0  0  0
   50.4313   32.4669   40.0852 H   0  0  0  0  0  0  0  0  0  0  0  0
   50.9159   33.5418   43.4580 H   0  0  0  0  0  0  0  0  0  0  0  0
   51.6711   32.9559   41.9371 H   0  0  0  0  0  0  0  0  0  0  0  0
   50.7142   34.4761   41.9371 H   0  0  0  0  0  0  0  0  0  0  0  0
   39.9408   33.8859   41.4013 H   0  0  0  0  0  0  0  0  0  0  0  0
   38.9673   34.0617   39.9019 H   0  0  0  0  0  0  0  0  0  0  0  0
   40.4386   33.0311   39.9019 H   0  0  0  0  0  0  0  0  0  0  0  0
   39.9600   36.1042   38.1895 H   0  0  0  0  0  0  0  0  0  0  0  0
   41.6504   35.5382   37.9683 H   0  0  0  0  0  0  0  0  0  0  0  0
   40.2996   34.3542   37.9683 H   0  0  0  0  0  0  0  0  0  0  0  0
   40.2719   36.2258   41.6567 H   0  0  0  0  0  0  0  0  0  0  0  0
   40.7743   37.2365   40.2593 H   0  0  0  0  0  0  0  0  0  0  0  0
   39.1639   36.4406   40.2593 H   0  0  0  0  0  0  0  0  0  0  0  0
  1  4  1  0
  2  1  1  0
  3  2  1  0
  3  1  1  0
  4  5  1  0
  6  7  2  0
  7  5  1  0
  7  8  1  0
  9  8  2  0
 10  9  1  0
 11  6  1  0
 11 10  2  0
 12 14  1  0
 12 10  1  0
 13 12  1  0
 15  3  1  0
 15 16  1  0
 15 18  1  0
 17 15  1  0
  1 19  1  1
  2 20  1  0
  2 21  1  0
  3 22  1  6
  4 23  1  0
  4 24  1  0
  5 25  1  0
  5 26  1  0
  6 27  1  0
  8 28  1  0
 12 29  1  0
 13 30  1  0
 13 31  1  0
 13 32  1  0
 14 33  1  0
 14 34  1  0
 14 35  1  0
 16 36  1  0
 16 37  1  0
 16 38  1  0
 17 39  1  0
 17 40  1  0
 17 41  1  0
 18 42  1  0
 18 43  1  0
 18 44  1  0
M  ISO  8  19  13  20  13  21  13  22  13  23   8  24   8  25   8  26   8
M  ISO  8  27  14  28  14  29   8  30   8  31   8  32   8  33   8  34   8
M  ISO  8  35   8  36   8  37   8  38   8  39   8  40   8  41   8  42   8
M  ISO  2  43   8  44   8
M  END
>  <minimizedAffinity>  (1) 
-4.9601078

>  <minimizedRMSD>  (1) 
2.71102071

$$$$
