
     RDKit          3D

 42 43  0  0  1  0  0  0  0  0999 V2000
   45.9780   35.1290   42.7370 C   0  0  0  0  0  0  0  0  0  0  0  0
   44.5560   34.5570   42.6590 C   0  0  2  0  0  0  0  0  0  0  0  0
   44.3610   33.1240   42.3820 C   0  0  0  0  0  0  0  0  0  0  0  0
   44.1290   34.1030   41.3070 C   0  0  1  0  0  0  0  0  0  0  0  0
   42.7280   34.4220   40.8340 C   0  0  0  0  0  0  0  0  0  0  0  0
   42.0940   35.4120   41.7590 C   0  0  0  0  0  0  0  0  0  0  0  0
   41.8730   33.1740   40.8630 C   0  0  0  0  0  0  0  0  0  0  0  0
   42.6730   35.0010   39.4500 C   0  0  0  0  0  0  0  0  0  0  0  0
   46.6420   34.9110   41.4090 C   0  0  0  0  0  0  0  0  0  0  0  0
   48.2280   33.0910   40.9480 C   0  0  0  0  0  0  0  0  0  0  0  0
   47.9520   34.3190   41.5650 C   0  0  0  0  0  0  0  0  0  0  0  0
   48.9460   34.9130   42.3020 C   0  0  0  0  0  0  0  0  0  0  0  0
   50.1580   34.3090   42.4170 N   0  0  0  0  0  0  0  0  0  0  0  0
   50.3850   33.1100   41.7990 C   0  0  0  0  0  0  0  0  0  0  0  0
   49.4450   32.5090   41.0790 N   0  0  0  0  0  0  0  0  0  0  0  0
   51.6530   32.4750   41.9190 N   0  0  0  0  0  0  0  0  0  0  0  0
   52.1810   31.6450   40.9030 C   0  0  0  0  0  0  0  0  0  0  0  0
   51.8410   31.9210   39.6680 N   0  0  0  0  0  0  0  0  0  0  0  0
   53.0510   30.5470   41.2230 N   0  0  0  0  0  0  0  0  0  0  0  0
   52.1740   31.3720   38.8520 H   0  0  0  0  0  0  0  0  0  0  0  0
   45.9352   36.2053   42.9602 H   0  0  0  0  0  0  0  0  0  0  0  0
   46.5469   34.6281   43.5342 H   0  0  0  0  0  0  0  0  0  0  0  0
   44.1772   35.2331   43.4396 H   0  0  0  0  0  0  0  0  0  0  0  0
   45.2306   32.4521   42.3329 H   0  0  0  0  0  0  0  0  0  0  0  0
   43.7635   32.3220   42.8400 H   0  0  0  0  0  0  0  0  0  0  0  0
   44.5027   34.2186   40.2789 H   0  0  0  0  0  0  0  0  0  0  0  0
   42.2844   35.1146   42.8008 H   0  0  0  0  0  0  0  0  0  0  0  0
   42.5220   36.4091   41.5782 H   0  0  0  0  0  0  0  0  0  0  0  0
   41.0093   35.4403   41.5782 H   0  0  0  0  0  0  0  0  0  0  0  0
   41.6770   32.8880   41.9069 H   0  0  0  0  0  0  0  0  0  0  0  0
   40.9192   33.3710   40.3516 H   0  0  0  0  0  0  0  0  0  0  0  0
   42.4011   32.3558   40.3516 H   0  0  0  0  0  0  0  0  0  0  0  0
   42.5692   36.0942   39.5138 H   0  0  0  0  0  0  0  0  0  0  0  0
   43.5989   34.7514   38.9111 H   0  0  0  0  0  0  0  0  0  0  0  0
   41.8107   34.5816   38.9111 H   0  0  0  0  0  0  0  0  0  0  0  0
   46.7454   35.8793   40.8974 H   0  0  0  0  0  0  0  0  0  0  0  0
   46.0189   34.2225   40.8193 H   0  0  0  0  0  0  0  0  0  0  0  0
   47.4487   32.5945   40.3512 H   0  0  0  0  0  0  0  0  0  0  0  0
   48.7618   35.8769   42.7990 H   0  0  0  0  0  0  0  0  0  0  0  0
   52.2052   32.6251   42.7754 H   0  0  0  0  0  0  0  0  0  0  0  0
   53.4271   29.9519   40.4711 H   0  0  0  0  0  0  0  0  0  0  0  0
   53.2985   30.3551   42.2042 H   0  0  0  0  0  0  0  0  0  0  0  0
  2  1  1  0
  3  2  1  0
  4  3  1  0
  4  2  1  0
  5  7  1  0
  5  4  1  0
  5  6  1  0
  8  5  1  0
  9 11  1  0
  9  1  1  0
 10 15  2  0
 10 11  1  0
 11 12  2  0
 12 13  1  0
 14 16  1  0
 14 13  2  0
 15 14  1  0
 17 19  1  0
 17 16  1  0
 18 17  2  0
 20 18  1  0
  1 21  1  0
  1 22  1  0
  2 23  1  1
  3 24  1  0
  3 25  1  0
  4 26  1  6
  6 27  1  0
  6 28  1  0
  6 29  1  0
  7 30  1  0
  7 31  1  0
  7 32  1  0
  8 33  1  0
  8 34  1  0
  8 35  1  0
  9 36  1  0
  9 37  1  0
 10 38  1  0
 12 39  1  0
 16 40  1  0
 19 41  1  0
 19 42  1  0
M  ISO  8  21   8  22   8  23  13  24  13  25  13  26  13  27   8  28   8
M  ISO  8  29   8  30   8  31   8  32   8  33   8  34   8  35   8  36   8
M  ISO  3  37   8  38  14  39  14
M  END
>  <minimizedAffinity>  (1) 
-4.90155506

>  <minimizedRMSD>  (1) 
0.630943716

$$$$
