
     RDKit          3D

 48 49  0  0  1  0  0  0  0  0999 V2000
   41.9960   35.5420   40.7270 C   0  0  0  0  0  0  0  0  0  0  0  0
   40.7320   34.6570   40.7860 C   0  0  2  0  0  0  0  0  0  0  0  0
   40.8350   33.2620   41.2600 C   0  0  0  0  0  0  0  0  0  0  0  0
   40.6810   33.5380   39.8150 C   0  0  1  0  0  0  0  0  0  0  0  0
   39.3700   33.2380   39.1180 C   0  0  0  0  0  0  0  0  0  0  0  0
   38.2240   33.6600   39.9710 C   0  0  0  0  0  0  0  0  0  0  0  0
   39.2600   31.7590   38.8340 C   0  0  0  0  0  0  0  0  0  0  0  0
   39.2350   33.9580   37.7970 C   0  0  0  0  0  0  0  0  0  0  0  0
   37.7690   33.2240   36.9860 S   0  0  0  0  0  0  0  0  0  0  0  0
   42.6820   35.4690   42.0450 C   0  0  0  0  0  0  0  0  0  0  0  0
   44.9840   35.7580   42.8780 C   0  0  0  0  0  0  0  0  0  0  0  0
   44.0960   35.2370   41.9460 C   0  0  0  0  0  0  0  0  0  0  0  0
   44.5990   34.4990   40.9270 C   0  0  0  0  0  0  0  0  0  0  0  0
   45.9440   34.2690   40.8130 N   0  0  0  0  0  0  0  0  0  0  0  0
   46.7940   34.7960   41.7450 C   0  0  0  0  0  0  0  0  0  0  0  0
   46.3080   35.5130   42.7370 N   0  0  0  0  0  0  0  0  0  0  0  0
   48.2550   34.5710   41.6590 C   0  0  0  0  0  0  0  0  0  0  0  0
   49.0070   35.8740   41.4840 C   0  0  0  0  0  0  0  0  0  0  0  0
   48.8000   33.9160   42.9090 C   0  0  0  0  0  0  0  0  0  0  0  0
   48.5190   33.7190   40.4290 C   0  0  0  0  0  0  0  0  0  0  0  0
   42.6688   35.1766   39.9372 H   0  0  0  0  0  0  0  0  0  0  0  0
   41.7188   36.5825   40.5022 H   0  0  0  0  0  0  0  0  0  0  0  0
   40.0893   35.5046   41.0662 H   0  0  0  0  0  0  0  0  0  0  0  0
   41.7919   32.8828   41.6480 H   0  0  0  0  0  0  0  0  0  0  0  0
   40.2931   32.6497   41.9958 H   0  0  0  0  0  0  0  0  0  0  0  0
   41.2411   33.2528   38.9122 H   0  0  0  0  0  0  0  0  0  0  0  0
   38.4992   33.5587   41.0312 H   0  0  0  0  0  0  0  0  0  0  0  0
   37.9736   34.7093   39.7559 H   0  0  0  0  0  0  0  0  0  0  0  0
   37.3529   33.0237   39.7559 H   0  0  0  0  0  0  0  0  0  0  0  0
   39.2188   31.2054   39.7836 H   0  0  0  0  0  0  0  0  0  0  0  0
   38.3449   31.5637   38.2557 H   0  0  0  0  0  0  0  0  0  0  0  0
   40.1362   31.4305   38.2557 H   0  0  0  0  0  0  0  0  0  0  0  0
   39.0846   35.0354   37.9603 H   0  0  0  0  0  0  0  0  0  0  0  0
   40.1390   33.8499   37.1797 H   0  0  0  0  0  0  0  0  0  0  0  0
   36.8909   32.7843   37.9413 H   0  0  0  0  0  0  0  0  0  0  0  0
   42.5220   36.4205   42.5733 H   0  0  0  0  0  0  0  0  0  0  0  0
   42.2520   34.6126   42.5851 H   0  0  0  0  0  0  0  0  0  0  0  0
   44.6162   36.3623   43.7204 H   0  0  0  0  0  0  0  0  0  0  0  0
   43.9139   34.0767   40.1772 H   0  0  0  0  0  0  0  0  0  0  0  0
   49.2489   36.2932   42.4718 H   0  0  0  0  0  0  0  0  0  0  0  0
   49.9370   35.6886   40.9266 H   0  0  0  0  0  0  0  0  0  0  0  0
   48.3812   36.5865   40.9266 H   0  0  0  0  0  0  0  0  0  0  0  0
   48.3840   34.4160   43.7961 H   0  0  0  0  0  0  0  0  0  0  0  0
   48.5157   32.8534   42.9199 H   0  0  0  0  0  0  0  0  0  0  0  0
   49.8966   34.0023   42.9199 H   0  0  0  0  0  0  0  0  0  0  0  0
   48.8312   32.7114   40.7410 H   0  0  0  0  0  0  0  0  0  0  0  0
   47.6006   33.6485   39.8277 H   0  0  0  0  0  0  0  0  0  0  0  0
   49.3164   34.1802   39.8277 H   0  0  0  0  0  0  0  0  0  0  0  0
  1  2  1  0
  1 10  1  0
  2  3  1  0
  4  2  1  0
  4  3  1  0
  5  4  1  0
  5  6  1  0
  7  5  1  0
  8  5  1  0
  9  8  1  0
 12 10  1  0
 12 11  2  0
 13 12  1  0
 14 13  2  0
 14 15  1  0
 15 16  2  0
 16 11  1  0
 17 15  1  0
 17 19  1  0
 18 17  1  0
 20 17  1  0
  1 21  1  0
  1 22  1  0
  2 23  1  1
  3 24  1  0
  3 25  1  0
  4 26  1  6
  6 27  1  0
  6 28  1  0
  6 29  1  0
  7 30  1  0
  7 31  1  0
  7 32  1  0
  8 33  1  0
  8 34  1  0
  9 35  1  0
 10 36  1  0
 10 37  1  0
 11 38  1  0
 13 39  1  0
 18 40  1  0
 18 41  1  0
 18 42  1  0
 19 43  1  0
 19 44  1  0
 19 45  1  0
 20 46  1  0
 20 47  1  0
 20 48  1  0
M  ISO  8  21   8  22   8  23  13  24  13  25  13  26  13  27   8  28   8
M  ISO  8  29   8  30   8  31   8  32   8  33   8  34   8  35  11  36   8
M  ISO  8  37   8  38  14  39  14  40   8  41   8  42   8  43   8  44   8
M  ISO  4  45   8  46   8  47   8  48   8
M  END
>  <minimizedAffinity>  (1) 
-5.06951571

>  <minimizedRMSD>  (1) 
0.25445801

$$$$
