
     RDKit          3D

 31 33  0  0  0  0  0  0  0  0999 V2000
   44.5650   35.8980   44.5650 C   0  0  0  0  0  0  0  0  0  0  0  0
   45.4680   35.3070   43.6720 C   0  0  0  0  0  0  0  0  0  0  0  0
   46.1890   34.1640   44.0740 C   0  0  0  0  0  0  0  0  0  0  0  0
   45.9330   33.7140   45.3550 N   0  0  0  0  0  0  0  0  0  0  0  0
   45.0700   34.2970   46.1790 C   0  0  0  0  0  0  0  0  0  0  0  0
   44.3950   35.3790   45.7810 N   0  0  0  0  0  0  0  0  0  0  0  0
   44.8800   33.7780   47.4900 N   0  0  0  0  0  0  0  0  0  0  0  0
   45.3050   32.4810   47.8750 C   0  0  0  0  0  0  0  0  0  0  0  0
   45.3150   31.5870   46.9710 N   0  0  0  0  0  0  0  0  0  0  0  0
   45.6970   32.2120   49.2200 N   0  0  0  0  0  0  0  0  0  0  0  0
   45.6700   30.6140   47.1120 H   0  0  0  0  0  0  0  0  0  0  0  0
   47.0770   33.6700   43.0750 C   0  0  0  0  0  0  0  0  0  0  0  0
   48.3610   33.3670   43.3390 N   0  0  0  0  0  0  0  0  0  0  0  0
   49.2480   32.9010   42.4600 C   0  0  0  0  0  0  0  0  0  0  0  0
   48.9280   32.6790   41.1750 N   0  0  0  0  0  0  0  0  0  0  0  0
   47.6700   32.9440   40.7910 C   0  0  0  0  0  0  0  0  0  0  0  0
   47.3010   32.7290   39.4870 C   0  0  0  0  0  0  0  0  0  0  0  0
   46.0200   32.9870   39.0590 C   0  0  0  0  0  0  0  0  0  0  0  0
   45.1020   33.4770   39.9940 C   0  0  0  0  0  0  0  0  0  0  0  0
   45.5340   33.6690   41.2830 C   0  0  0  0  0  0  0  0  0  0  0  0
   46.8050   33.4230   41.7480 C   0  0  0  0  0  0  0  0  0  0  0  0
   43.9965   36.7899   44.2630 H   0  0  0  0  0  0  0  0  0  0  0  0
   45.6131   35.7304   42.6672 H   0  0  0  0  0  0  0  0  0  0  0  0
   44.4128   34.3708   48.1909 H   0  0  0  0  0  0  0  0  0  0  0  0
   46.0038   31.2659   49.4876 H   0  0  0  0  0  0  0  0  0  0  0  0
   45.6732   32.9639   49.9235 H   0  0  0  0  0  0  0  0  0  0  0  0
   50.2738   32.6918   42.7977 H   0  0  0  0  0  0  0  0  0  0  0  0
   48.0426   32.3437   38.7718 H   0  0  0  0  0  0  0  0  0  0  0  0
   45.7260   32.8134   38.0133 H   0  0  0  0  0  0  0  0  0  0  0  0
   44.0647   33.7018   39.7050 H   0  0  0  0  0  0  0  0  0  0  0  0
   44.8000   34.0529   42.0068 H   0  0  0  0  0  0  0  0  0  0  0  0
  1  6  2  0
  2  3  2  0
  2  1  1  0
  3  4  1  0
  4  5  2  0
  5  7  1  0
  6  5  1  0
  7  8  1  0
  8 10  1  0
  9 11  1  0
  9  8  2  0
 12 13  2  0
 12  3  1  0
 14 13  1  0
 15 14  2  0
 16 15  1  0
 16 21  2  0
 17 16  1  0
 18 17  2  0
 18 19  1  0
 19 20  2  0
 20 21  1  0
 21 12  1  0
  1 22  1  0
  2 23  1  0
  7 24  1  0
 10 25  1  0
 10 26  1  0
 14 27  1  0
 17 28  1  0
 18 29  1  0
 19 30  1  0
 20 31  1  0
M  ISO  7  22  14  23  14  27  14  28  14  29  14  30  14  31  14
M  END
>  <minimizedAffinity>  (1) 
-6.5028224

>  <minimizedRMSD>  (1) 
0.398043901

$$$$
