
     RDKit          3D

 24 25  0  0  0  0  0  0  0  0999 V2000
   44.7540   35.6580   44.4690 C   0  0  0  0  0  0  0  0  0  0  0  0
   45.7660   35.0610   43.6820 C   0  0  0  0  0  0  0  0  0  0  0  0
   46.4620   33.9890   44.2250 C   0  0  0  0  0  0  0  0  0  0  0  0
   46.1320   33.5730   45.4820 N   0  0  0  0  0  0  0  0  0  0  0  0
   45.1600   34.1620   46.2090 C   0  0  0  0  0  0  0  0  0  0  0  0
   44.4880   35.1950   45.6910 N   0  0  0  0  0  0  0  0  0  0  0  0
   44.8490   33.6920   47.5210 N   0  0  0  0  0  0  0  0  0  0  0  0
   45.2880   32.4190   47.9810 C   0  0  0  0  0  0  0  0  0  0  0  0
   45.4280   31.4790   47.1160 N   0  0  0  0  0  0  0  0  0  0  0  0
   45.5560   32.2350   49.3750 N   0  0  0  0  0  0  0  0  0  0  0  0
   45.7560   30.5230   47.3360 H   0  0  0  0  0  0  0  0  0  0  0  0
   47.5220   33.3070   43.4930 C   0  0  0  0  0  0  0  0  0  0  0  0
   48.5330   33.9610   42.8200 C   0  0  0  0  0  0  0  0  0  0  0  0
   49.2810   32.9010   42.2930 C   0  0  0  0  0  0  0  0  0  0  0  0
   48.7120   31.7100   42.6580 C   0  0  0  0  0  0  0  0  0  0  0  0
   47.6620   32.0090   43.3760 O   0  0  0  0  0  0  0  0  0  0  0  0
   44.1827   36.5095   44.0707 H   0  0  0  0  0  0  0  0  0  0  0  0
   45.9944   35.4337   42.6726 H   0  0  0  0  0  0  0  0  0  0  0  0
   44.2932   34.2891   48.1499 H   0  0  0  0  0  0  0  0  0  0  0  0
   45.8744   31.3188   49.7217 H   0  0  0  0  0  0  0  0  0  0  0  0
   45.4305   33.0188   50.0314 H   0  0  0  0  0  0  0  0  0  0  0  0
   48.7076   35.0426   42.7220 H   0  0  0  0  0  0  0  0  0  0  0  0
   50.1875   33.0086   41.6793 H   0  0  0  0  0  0  0  0  0  0  0  0
   49.0681   30.7021   42.3984 H   0  0  0  0  0  0  0  0  0  0  0  0
  1  6  2  0
  2  3  2  0
  2  1  1  0
  3  4  1  0
  4  5  2  0
  5  7  1  0
  6  5  1  0
  7  8  1  0
  8 10  1  0
  9 11  1  0
  9  8  2  0
 12  3  1  0
 13 12  2  0
 14 15  2  0
 14 13  1  0
 15 16  1  0
 16 12  1  0
  1 17  1  0
  2 18  1  0
  7 19  1  0
 10 20  1  0
 10 21  1  0
 13 22  1  0
 14 23  1  0
 15 24  1  0
M  ISO  5  17  14  18  14  22  14  23  14  24  14
M  END
>  <minimizedAffinity>  (1) 
-5.73778582

>  <minimizedRMSD>  (1) 
0.359112769

$$$$
