
     RDKit          3D

 24 25  0  0  0  0  0  0  0  0999 V2000
   44.5950   35.7930   44.5590 C   0  0  0  0  0  0  0  0  0  0  0  0
   45.5920   35.2340   43.7110 C   0  0  0  0  0  0  0  0  0  0  0  0
   46.3240   34.1490   44.1920 C   0  0  0  0  0  0  0  0  0  0  0  0
   46.0450   33.6770   45.4560 N   0  0  0  0  0  0  0  0  0  0  0  0
   45.0960   34.2370   46.2180 C   0  0  0  0  0  0  0  0  0  0  0  0
   44.3930   35.2730   45.7690 N   0  0  0  0  0  0  0  0  0  0  0  0
   44.8240   33.7300   47.5330 N   0  0  0  0  0  0  0  0  0  0  0  0
   45.2980   32.4630   47.9480 C   0  0  0  0  0  0  0  0  0  0  0  0
   45.4330   31.5430   47.0490 N   0  0  0  0  0  0  0  0  0  0  0  0
   45.6070   32.2440   49.3330 N   0  0  0  0  0  0  0  0  0  0  0  0
   45.7950   30.5990   47.2560 H   0  0  0  0  0  0  0  0  0  0  0  0
   47.3520   33.5080   43.4190 C   0  0  0  0  0  0  0  0  0  0  0  0
   47.2080   32.3270   42.7200 C   0  0  0  0  0  0  0  0  0  0  0  0
   48.3990   32.0840   42.1410 N   0  0  0  0  0  0  0  0  0  0  0  0
   49.2280   33.0920   42.4870 C   0  0  0  0  0  0  0  0  0  0  0  0
   48.5970   33.9870   43.2800 N   0  0  0  0  0  0  0  0  0  0  0  0
   43.9948   36.6492   44.2175 H   0  0  0  0  0  0  0  0  0  0  0  0
   45.7792   35.6449   42.7079 H   0  0  0  0  0  0  0  0  0  0  0  0
   44.2718   34.3009   48.1888 H   0  0  0  0  0  0  0  0  0  0  0  0
   45.9526   31.3251   49.6445 H   0  0  0  0  0  0  0  0  0  0  0  0
   45.4831   33.0058   50.0150 H   0  0  0  0  0  0  0  0  0  0  0  0
   46.3015   31.7079   42.6499 H   0  0  0  0  0  0  0  0  0  0  0  0
   50.2770   33.1741   42.1664 H   0  0  0  0  0  0  0  0  0  0  0  0
   48.9872   34.8484   43.6882 H   0  0  0  0  0  0  0  0  0  0  0  0
  1  6  2  0
  2  3  2  0
  2  1  1  0
  3  4  1  0
  4  5  2  0
  5  7  1  0
  6  5  1  0
  7  8  1  0
  8 10  1  0
  9 11  1  0
  9  8  2  0
 12  3  1  0
 13 12  2  0
 14 15  2  0
 14 13  1  0
 15 16  1  0
 16 12  1  0
  1 17  1  0
  2 18  1  0
  7 19  1  0
 10 20  1  0
 10 21  1  0
 13 22  1  0
 15 23  1  0
 16 24  1  0
M  ISO  5  17  14  18  14  22  14  23  14  24   9
M  END
>  <minimizedAffinity>  (1) 
-5.85816002

>  <minimizedRMSD>  (1) 
0.490797877

$$$$
