
     RDKit          3D

 23 24  0  0  0  0  0  0  0  0999 V2000
   44.7220   35.6920   44.4910 C   0  0  0  0  0  0  0  0  0  0  0  0
   45.6960   35.0810   43.6740 C   0  0  0  0  0  0  0  0  0  0  0  0
   46.3830   33.9910   44.1960 C   0  0  0  0  0  0  0  0  0  0  0  0
   46.0890   33.5580   45.4740 N   0  0  0  0  0  0  0  0  0  0  0  0
   45.1530   34.1740   46.2120 C   0  0  0  0  0  0  0  0  0  0  0  0
   44.4810   35.2310   45.7190 N   0  0  0  0  0  0  0  0  0  0  0  0
   44.8590   33.7180   47.5310 N   0  0  0  0  0  0  0  0  0  0  0  0
   45.2720   32.4410   47.9920 C   0  0  0  0  0  0  0  0  0  0  0  0
   45.3820   31.5040   47.1240 N   0  0  0  0  0  0  0  0  0  0  0  0
   45.5490   32.2240   49.3710 N   0  0  0  0  0  0  0  0  0  0  0  0
   45.6620   30.5350   47.3300 H   0  0  0  0  0  0  0  0  0  0  0  0
   47.3940   33.2550   43.5150 N   0  0  0  0  0  0  0  0  0  0  0  0
   48.3160   34.0620   42.9170 C   0  0  0  0  0  0  0  0  0  0  0  0
   49.2360   33.3020   42.2940 N   0  0  0  0  0  0  0  0  0  0  0  0
   48.8760   32.0130   42.5140 C   0  0  0  0  0  0  0  0  0  0  0  0
   47.7460   32.0050   43.2630 N   0  0  0  0  0  0  0  0  0  0  0  0
   44.1564   36.5560   44.1121 H   0  0  0  0  0  0  0  0  0  0  0  0
   45.9045   35.4536   42.6602 H   0  0  0  0  0  0  0  0  0  0  0  0
   44.3319   34.3331   48.1671 H   0  0  0  0  0  0  0  0  0  0  0  0
   45.8482   31.2935   49.6960 H   0  0  0  0  0  0  0  0  0  0  0  0
   45.4503   32.9974   50.0440 H   0  0  0  0  0  0  0  0  0  0  0  0
   48.3092   35.1617   42.9400 H   0  0  0  0  0  0  0  0  0  0  0  0
   49.4104   31.1244   42.1468 H   0  0  0  0  0  0  0  0  0  0  0  0
  1  6  2  0
  2  3  2  0
  2  1  1  0
  3  4  1  0
  4  5  2  0
  5  7  1  0
  6  5  1  0
  7  8  1  0
  8 10  1  0
  9 11  1  0
  9  8  2  0
 12  3  1  0
 13 12  1  0
 14 15  1  0
 14 13  2  0
 15 16  2  0
 16 12  1  0
  1 17  1  0
  2 18  1  0
  7 19  1  0
 10 20  1  0
 10 21  1  0
 13 22  1  0
 15 23  1  0
M  ISO  4  17  14  18  14  22  14  23  14
M  END
>  <minimizedAffinity>  (1) 
-5.68214417

>  <minimizedRMSD>  (1) 
0.259093255

$$$$
