
     RDKit          3D

 23 24  0  0  0  0  0  0  0  0999 V2000
   44.6220   35.7970   44.5410 C   0  0  0  0  0  0  0  0  0  0  0  0
   45.5540   35.1990   43.6790 C   0  0  0  0  0  0  0  0  0  0  0  0
   46.2580   34.0730   44.1510 C   0  0  0  0  0  0  0  0  0  0  0  0
   45.9760   33.6510   45.4190 N   0  0  0  0  0  0  0  0  0  0  0  0
   45.0810   34.2420   46.2210 C   0  0  0  0  0  0  0  0  0  0  0  0
   44.4270   35.3000   45.7620 N   0  0  0  0  0  0  0  0  0  0  0  0
   44.8420   33.7490   47.5330 N   0  0  0  0  0  0  0  0  0  0  0  0
   45.2740   32.4700   47.9520 C   0  0  0  0  0  0  0  0  0  0  0  0
   45.3500   31.5460   47.0670 N   0  0  0  0  0  0  0  0  0  0  0  0
   45.6060   32.2440   49.3230 N   0  0  0  0  0  0  0  0  0  0  0  0
   45.6530   30.5790   47.2560 H   0  0  0  0  0  0  0  0  0  0  0  0
   47.2610   33.3680   43.3280 C   0  0  0  0  0  0  0  0  0  0  0  0
   46.9800   32.1170   42.7790 C   0  0  0  0  0  0  0  0  0  0  0  0
   48.5040   31.7200   41.8930 S   0  0  0  0  0  0  0  0  0  0  0  0
   49.3000   33.3590   42.4260 C   0  0  0  0  0  0  0  0  0  0  0  0
   48.4640   33.8400   43.0530 N   0  0  0  0  0  0  0  0  0  0  0  0
   44.0518   36.6769   44.2085 H   0  0  0  0  0  0  0  0  0  0  0  0
   45.7293   35.5960   42.6682 H   0  0  0  0  0  0  0  0  0  0  0  0
   44.3355   34.3457   48.2026 H   0  0  0  0  0  0  0  0  0  0  0  0
   45.9209   31.3126   49.6298 H   0  0  0  0  0  0  0  0  0  0  0  0
   45.5304   33.0125   50.0046 H   0  0  0  0  0  0  0  0  0  0  0  0
   46.0597   31.5205   42.8642 H   0  0  0  0  0  0  0  0  0  0  0  0
   50.3024   33.7484   42.1948 H   0  0  0  0  0  0  0  0  0  0  0  0
  1  6  2  0
  2  3  2  0
  2  1  1  0
  3  4  1  0
  4  5  2  0
  5  7  1  0
  6  5  1  0
  7  8  1  0
  8 10  1  0
  9 11  1  0
  9  8  2  0
 12  3  1  0
 13 12  2  0
 14 15  1  0
 14 13  1  0
 15 16  2  0
 16 12  1  0
  1 17  1  0
  2 18  1  0
  7 19  1  0
 10 20  1  0
 10 21  1  0
 13 22  1  0
 15 23  1  0
M  ISO  4  17  14  18  14  22  14  23  14
M  END
>  <minimizedAffinity>  (1) 
-5.67103291

>  <minimizedRMSD>  (1) 
0.462348968

$$$$
