
     RDKit          3D

 29 29  0  0  0  0  0  0  0  0999 V2000
   44.6020   35.8190   44.5570 C   0  0  0  0  0  0  0  0  0  0  0  0
   45.5100   35.1870   43.6650 C   0  0  0  0  0  0  0  0  0  0  0  0
   46.1950   34.0590   44.1140 C   0  0  0  0  0  0  0  0  0  0  0  0
   45.9510   33.6240   45.3980 N   0  0  0  0  0  0  0  0  0  0  0  0
   45.0870   34.2490   46.2090 C   0  0  0  0  0  0  0  0  0  0  0  0
   44.4320   35.3250   45.7860 N   0  0  0  0  0  0  0  0  0  0  0  0
   44.8630   33.7660   47.5370 N   0  0  0  0  0  0  0  0  0  0  0  0
   45.2610   32.4710   47.9400 C   0  0  0  0  0  0  0  0  0  0  0  0
   45.2770   31.5390   47.0460 N   0  0  0  0  0  0  0  0  0  0  0  0
   45.6300   32.2320   49.3070 N   0  0  0  0  0  0  0  0  0  0  0  0
   45.5740   30.5720   47.2360 H   0  0  0  0  0  0  0  0  0  0  0  0
   47.1690   33.3290   43.2430 C   0  0  0  0  0  0  0  0  0  0  0  0
   47.5920   32.0420   43.8790 C   0  0  0  0  0  0  0  0  0  0  0  0
   48.3810   34.1420   42.9270 C   0  0  0  0  0  0  0  0  0  0  0  0
   46.4980   32.9590   41.9230 C   0  0  0  0  0  0  0  0  0  0  0  0
   44.0423   36.7102   44.2369 H   0  0  0  0  0  0  0  0  0  0  0  0
   45.6679   35.5770   42.6487 H   0  0  0  0  0  0  0  0  0  0  0  0
   44.3976   34.3806   48.2201 H   0  0  0  0  0  0  0  0  0  0  0  0
   45.9206   31.2898   49.6048 H   0  0  0  0  0  0  0  0  0  0  0  0
   45.6041   33.0028   49.9897 H   0  0  0  0  0  0  0  0  0  0  0  0
   47.5580   32.1454   44.9736 H   0  0  0  0  0  0  0  0  0  0  0  0
   46.9112   31.2369   43.5654 H   0  0  0  0  0  0  0  0  0  0  0  0
   48.6177   31.7978   43.5654 H   0  0  0  0  0  0  0  0  0  0  0  0
   48.8609   34.4639   43.8630 H   0  0  0  0  0  0  0  0  0  0  0  0
   49.0878   33.5346   42.3426 H   0  0  0  0  0  0  0  0  0  0  0  0
   48.0871   35.0264   42.3426 H   0  0  0  0  0  0  0  0  0  0  0  0
   45.5514   32.4370   42.1266 H   0  0  0  0  0  0  0  0  0  0  0  0
   46.2958   33.8732   41.3456 H   0  0  0  0  0  0  0  0  0  0  0  0
   47.1632   32.3002   41.3456 H   0  0  0  0  0  0  0  0  0  0  0  0
  1  6  2  0
  2  3  2  0
  2  1  1  0
  3  4  1  0
  4  5  2  0
  5  7  1  0
  6  5  1  0
  7  8  1  0
  8 10  1  0
  9 11  1  0
  9  8  2  0
 12 13  1  0
 12  3  1  0
 14 12  1  0
 15 12  1  0
  1 16  1  0
  2 17  1  0
  7 18  1  0
 10 19  1  0
 10 20  1  0
 13 21  1  0
 13 22  1  0
 13 23  1  0
 14 24  1  0
 14 25  1  0
 14 26  1  0
 15 27  1  0
 15 28  1  0
 15 29  1  0
M  ISO  8  16  14  17  14  21   8  22   8  23   8  24   8  25   8  26   8
M  ISO  3  27   8  28   8  29   8
M  END
>  <minimizedAffinity>  (1) 
-5.65335274

>  <minimizedRMSD>  (1) 
0.0980409235

$$$$
