
     RDKit          3D

 19 19  0  0  0  0  0  0  0  0999 V2000
   44.6390   35.7840   44.5410 C   0  0  0  0  0  0  0  0  0  0  0  0
   45.5520   35.1390   43.6600 C   0  0  0  0  0  0  0  0  0  0  0  0
   46.2380   33.9980   44.1240 C   0  0  0  0  0  0  0  0  0  0  0  0
   45.9720   33.5860   45.4140 N   0  0  0  0  0  0  0  0  0  0  0  0
   45.1030   34.2270   46.2070 C   0  0  0  0  0  0  0  0  0  0  0  0
   44.4560   35.3030   45.7710 N   0  0  0  0  0  0  0  0  0  0  0  0
   44.8670   33.7570   47.5330 N   0  0  0  0  0  0  0  0  0  0  0  0
   45.2570   32.4620   47.9610 C   0  0  0  0  0  0  0  0  0  0  0  0
   45.2850   31.5270   47.0710 N   0  0  0  0  0  0  0  0  0  0  0  0
   45.6000   32.2330   49.3260 N   0  0  0  0  0  0  0  0  0  0  0  0
   45.5840   30.5610   47.2720 H   0  0  0  0  0  0  0  0  0  0  0  0
   47.1640   33.3070   43.2950 N   0  0  0  0  0  0  0  0  0  0  0  0
   44.0868   36.6754   44.2086 H   0  0  0  0  0  0  0  0  0  0  0  0
   45.7183   35.5213   42.6421 H   0  0  0  0  0  0  0  0  0  0  0  0
   44.3963   34.3806   48.2041 H   0  0  0  0  0  0  0  0  0  0  0  0
   45.8830   31.2921   49.6350 H   0  0  0  0  0  0  0  0  0  0  0  0
   45.5648   33.0085   50.0029 H   0  0  0  0  0  0  0  0  0  0  0  0
   47.6549   32.4753   43.6531 H   0  0  0  0  0  0  0  0  0  0  0  0
   47.3438   33.6382   42.3364 H   0  0  0  0  0  0  0  0  0  0  0  0
  1  6  2  0
  2  3  2  0
  2  1  1  0
  3  4  1  0
  4  5  2  0
  5  7  1  0
  6  5  1  0
  7  8  1  0
  8 10  1  0
  9 11  1  0
  9  8  2  0
 12  3  1  0
  1 13  1  0
  2 14  1  0
  7 15  1  0
 10 16  1  0
 10 17  1  0
 12 18  1  0
 12 19  1  0
M  ISO  2  13  14  14  14
M  END
>  <minimizedAffinity>  (1) 
-5.15279675

>  <minimizedRMSD>  (1) 
0.0256279092

$$$$
