
     RDKit          3D

 25 26  0  0  0  0  0  0  0  0999 V2000
   44.6230   35.7560   44.9880 C   0  0  0  0  0  0  0  0  0  0  0  0
   45.1670   35.9450   43.7100 C   0  0  0  0  0  0  0  0  0  0  0  0
   46.0610   34.9890   43.2380 C   0  0  0  0  0  0  0  0  0  0  0  0
   46.3570   33.9230   44.0450 N   0  0  0  0  0  0  0  0  0  0  0  0
   45.8200   33.7710   45.2630 C   0  0  0  0  0  0  0  0  0  0  0  0
   44.9530   34.6890   45.7300 N   0  0  0  0  0  0  0  0  0  0  0  0
   46.1510   32.6490   46.0730 N   0  0  0  0  0  0  0  0  0  0  0  0
   45.5770   32.5380   47.3010 C   0  0  0  0  0  0  0  0  0  0  0  0
   45.9350   31.4310   48.0430 C   0  0  0  0  0  0  0  0  0  0  0  0
   45.3840   31.1730   49.4150 C   0  0  0  0  0  0  0  0  0  0  0  0
   46.8230   30.4740   47.5910 C   0  0  0  0  0  0  0  0  0  0  0  0
   47.1610   29.4600   48.2500 O   0  0  0  0  0  0  0  0  0  0  0  0
   47.3500   30.6430   46.3760 N   0  0  0  0  0  0  0  0  0  0  0  0
   47.0280   31.7210   45.6040 C   0  0  0  0  0  0  0  0  0  0  0  0
   47.5020   31.9210   44.4520 O   0  0  0  0  0  0  0  0  0  0  0  0
   44.7850   37.1040   42.9480 C   0  0  0  0  0  0  0  0  0  0  0  0
   45.2000   38.2170   43.3540 O   0  0  0  0  0  0  0  0  0  0  0  0
   43.9137   36.4952   45.3888 H   0  0  0  0  0  0  0  0  0  0  0  0
   46.5182   35.0870   42.2423 H   0  0  0  0  0  0  0  0  0  0  0  0
   44.8677   33.2880   47.6811 H   0  0  0  0  0  0  0  0  0  0  0  0
   46.1080   31.5120   50.1706 H   0  0  0  0  0  0  0  0  0  0  0  0
   44.4392   31.7223   49.5400 H   0  0  0  0  0  0  0  0  0  0  0  0
   45.2010   30.0956   49.5400 H   0  0  0  0  0  0  0  0  0  0  0  0
   48.0142   29.9443   46.0135 H   0  0  0  0  0  0  0  0  0  0  0  0
   44.1568   37.0186   42.0491 H   0  0  0  0  0  0  0  0  0  0  0  0
  1  6  2  0
  2  1  1  0
  3  2  2  0
  3  4  1  0
  4  5  2  0
  5  6  1  0
  5  7  1  0
  7  8  1  0
  8  9  2  0
  9 10  1  0
 11  9  1  0
 11 12  2  0
 13 11  1  0
 14  7  1  0
 14 13  1  0
 15 14  2  0
 16 17  2  0
 16  2  1  0
  1 18  1  0
  3 19  1  0
  8 20  1  0
 10 21  1  0
 10 22  1  0
 10 23  1  0
 13 24  1  0
 16 25  1  0
M  ISO  8  18  14  19  14  20  14  21   8  22   8  23   8  24   9  25   6
M  END
>  <minimizedAffinity>  (1) 
-4.72510719

>  <minimizedRMSD>  (1) 
1.17368591

$$$$
