
     RDKit          3D

 28 30  0  0  0  0  0  0  0  0999 V2000
   44.7700   35.0500   45.2180 C   0  0  0  0  0  0  0  0  0  0  0  0
   45.4410   35.0800   43.9990 C   0  0  0  0  0  0  0  0  0  0  0  0
   46.4660   34.1730   43.8040 C   0  0  0  0  0  0  0  0  0  0  0  0
   46.7510   33.3090   44.8210 N   0  0  0  0  0  0  0  0  0  0  0  0
   46.1020   33.2890   45.9830 C   0  0  0  0  0  0  0  0  0  0  0  0
   45.1300   34.1590   46.1510 N   0  0  0  0  0  0  0  0  0  0  0  0
   46.6360   32.2590   46.8590 C   0  0  0  0  0  0  0  0  0  0  0  0
   47.5200   32.5300   47.8790 C   0  0  0  0  0  0  0  0  0  0  0  0
   48.0580   31.5970   48.7360 C   0  0  0  0  0  0  0  0  0  0  0  0
   47.7170   30.2900   48.6060 C   0  0  0  0  0  0  0  0  0  0  0  0
   46.8350   29.9390   47.6070 C   0  0  0  0  0  0  0  0  0  0  0  0
   46.5080   28.6110   47.4970 C   0  0  0  0  0  0  0  0  0  0  0  0
   45.6320   28.1830   46.5220 C   0  0  0  0  0  0  0  0  0  0  0  0
   45.1070   29.1460   45.6710 C   0  0  0  0  0  0  0  0  0  0  0  0
   45.4760   30.4640   45.8340 C   0  0  0  0  0  0  0  0  0  0  0  0
   46.3420   30.9220   46.7910 C   0  0  0  0  0  0  0  0  0  0  0  0
   45.0530   36.0470   42.9920 C   0  0  0  0  0  0  0  0  0  0  0  0
   45.1940   37.2650   43.3020 O   0  0  0  0  0  0  0  0  0  0  0  0
   43.9482   35.7544   45.4142 H   0  0  0  0  0  0  0  0  0  0  0  0
   47.0324   34.1487   42.8613 H   0  0  0  0  0  0  0  0  0  0  0  0
   47.8211   33.5784   48.0207 H   0  0  0  0  0  0  0  0  0  0  0  0
   48.7609   31.9093   49.5224 H   0  0  0  0  0  0  0  0  0  0  0  0
   48.1345   29.5290   49.2817 H   0  0  0  0  0  0  0  0  0  0  0  0
   46.9485   27.8815   48.1926 H   0  0  0  0  0  0  0  0  0  0  0  0
   45.3602   27.1218   46.4225 H   0  0  0  0  0  0  0  0  0  0  0  0
   44.4038   28.8602   44.8749 H   0  0  0  0  0  0  0  0  0  0  0  0
   45.0426   31.2030   45.1440 H   0  0  0  0  0  0  0  0  0  0  0  0
   44.6579   35.7389   42.0127 H   0  0  0  0  0  0  0  0  0  0  0  0
  1  6  2  0
  2  1  1  0
  3  2  2  0
  3  4  1  0
  4  5  2  0
  5  6  1  0
  5  7  1  0
  7  8  2  0
  8  9  1  0
 10  9  2  0
 11 10  1  0
 12 11  2  0
 13 12  1  0
 14 15  1  0
 14 13  2  0
 15 16  2  0
 16  7  1  0
 16 11  1  0
 17 18  2  0
 17  2  1  0
  1 19  1  0
  3 20  1  0
  8 21  1  0
  9 22  1  0
 10 23  1  0
 12 24  1  0
 13 25  1  0
 14 26  1  0
 15 27  1  0
 17 28  1  0
M  ISO  8  19  14  20  14  21  14  22  14  23  14  24  14  25  14  26  14
M  ISO  2  27  14  28   6
M  END
>  <minimizedAffinity>  (1) 
-4.93234873

>  <minimizedRMSD>  (1) 
1.51408172

$$$$
