
     RDKit          3D

 26 28  0  0  0  0  0  0  0  0999 V2000
   46.0240   32.5400   46.8910 C   0  0  0  0  0  0  0  0  0  0  0  0
   45.4770   32.7170   48.1110 N   0  0  0  0  0  0  0  0  0  0  0  0
   45.6190   31.8740   49.1340 C   0  0  0  0  0  0  0  0  0  0  0  0
   46.3390   30.7450   49.0380 N   0  0  0  0  0  0  0  0  0  0  0  0
   46.9290   30.4760   47.8530 C   0  0  0  0  0  0  0  0  0  0  0  0
   47.6560   29.3210   47.7820 C   0  0  0  0  0  0  0  0  0  0  0  0
   48.2860   28.9850   46.6030 C   0  0  0  0  0  0  0  0  0  0  0  0
   48.1450   29.8500   45.5390 C   0  0  0  0  0  0  0  0  0  0  0  0
   47.3980   30.9960   45.6820 C   0  0  0  0  0  0  0  0  0  0  0  0
   46.7530   31.3750   46.8290 C   0  0  0  0  0  0  0  0  0  0  0  0
   44.6400   35.3710   45.1740 C   0  0  0  0  0  0  0  0  0  0  0  0
   45.2510   35.4260   43.9240 C   0  0  0  0  0  0  0  0  0  0  0  0
   46.1850   34.4460   43.6480 C   0  0  0  0  0  0  0  0  0  0  0  0
   46.4590   33.5050   44.5720 N   0  0  0  0  0  0  0  0  0  0  0  0
   45.8740   33.4620   45.7580 C   0  0  0  0  0  0  0  0  0  0  0  0
   44.9690   34.3950   46.0500 N   0  0  0  0  0  0  0  0  0  0  0  0
   44.9000   36.4700   43.0010 C   0  0  0  0  0  0  0  0  0  0  0  0
   45.2120   37.6460   43.3430 O   0  0  0  0  0  0  0  0  0  0  0  0
   45.1293   32.1118   50.0898 H   0  0  0  0  0  0  0  0  0  0  0  0
   47.7379   28.6637   48.6602 H   0  0  0  0  0  0  0  0  0  0  0  0
   48.8783   28.0623   46.5146 H   0  0  0  0  0  0  0  0  0  0  0  0
   48.6290   29.6242   44.5774 H   0  0  0  0  0  0  0  0  0  0  0  0
   47.3121   31.6587   44.8083 H   0  0  0  0  0  0  0  0  0  0  0  0
   43.8871   36.1241   45.4497 H   0  0  0  0  0  0  0  0  0  0  0  0
   46.7028   34.4343   42.6776 H   0  0  0  0  0  0  0  0  0  0  0  0
   44.3887   36.2576   42.0505 H   0  0  0  0  0  0  0  0  0  0  0  0
  1  2  2  0
  2  3  1  0
  4  3  2  0
  5  4  1  0
  6  5  2  0
  7  6  1  0
  8  9  1  0
  8  7  2  0
  9 10  2  0
 10  1  1  0
 10  5  1  0
 11 16  2  0
 12 11  1  0
 13 12  2  0
 13 14  1  0
 14 15  2  0
 15 16  1  0
 15  1  1  0
 17 18  2  0
 17 12  1  0
  3 19  1  0
  6 20  1  0
  7 21  1  0
  8 22  1  0
  9 23  1  0
 11 24  1  0
 13 25  1  0
 17 26  1  0
M  ISO  8  19  14  20  14  21  14  22  14  23  14  24  14  25  14  26   6
M  END
>  <minimizedAffinity>  (1) 
-5.04374743

>  <minimizedRMSD>  (1) 
0.87248975

$$$$
