
     RDKit          3D

 27 28  0  0  0  0  0  0  0  0999 V2000
   44.7300   35.2450   45.3880 C   0  0  0  0  0  0  0  0  0  0  0  0
   45.3200   35.1480   44.1200 C   0  0  0  0  0  0  0  0  0  0  0  0
   46.0820   34.0260   43.8500 C   0  0  0  0  0  0  0  0  0  0  0  0
   46.2300   33.0720   44.8000 N   0  0  0  0  0  0  0  0  0  0  0  0
   45.6480   33.1920   46.0140 C   0  0  0  0  0  0  0  0  0  0  0  0
   44.9020   34.2670   46.3140 N   0  0  0  0  0  0  0  0  0  0  0  0
   45.8190   32.1740   46.9990 N   0  0  0  0  0  0  0  0  0  0  0  0
   46.0160   30.7810   46.6010 C   0  0  0  0  0  0  0  0  0  0  0  0
   45.0720   29.8970   47.3860 C   0  0  0  0  0  0  0  0  0  0  0  0
   45.4070   30.0930   48.8600 C   0  0  0  0  0  0  0  0  0  0  0  0
   45.0340   31.5250   49.2510 C   0  0  0  0  0  0  0  0  0  0  0  0
   45.8010   32.4950   48.4140 C   0  0  0  0  0  0  0  0  0  0  0  0
   45.0960   36.2230   43.1890 C   0  0  0  0  0  0  0  0  0  0  0  0
   45.1520   37.3930   43.6100 O   0  0  0  0  0  0  0  0  0  0  0  0
   44.1193   36.1256   45.6362 H   0  0  0  0  0  0  0  0  0  0  0  0
   46.5654   33.9089   42.8689 H   0  0  0  0  0  0  0  0  0  0  0  0
   45.8107   30.6738   45.5257 H   0  0  0  0  0  0  0  0  0  0  0  0
   47.0549   30.4832   46.8059 H   0  0  0  0  0  0  0  0  0  0  0  0
   44.0297   30.1904   47.1924 H   0  0  0  0  0  0  0  0  0  0  0  0
   45.1837   28.8426   47.0930 H   0  0  0  0  0  0  0  0  0  0  0  0
   44.8335   29.3795   49.4699 H   0  0  0  0  0  0  0  0  0  0  0  0
   46.4798   29.9205   49.0312 H   0  0  0  0  0  0  0  0  0  0  0  0
   43.9564   31.6779   49.0918 H   0  0  0  0  0  0  0  0  0  0  0  0
   45.2793   31.6872   50.3110 H   0  0  0  0  0  0  0  0  0  0  0  0
   46.8395   32.5176   48.7760 H   0  0  0  0  0  0  0  0  0  0  0  0
   45.2949   33.4668   48.5117 H   0  0  0  0  0  0  0  0  0  0  0  0
   44.8804   36.0153   42.1305 H   0  0  0  0  0  0  0  0  0  0  0  0
  1  6  2  0
  2  1  1  0
  3  2  2  0
  3  4  1  0
  4  5  2  0
  5  6  1  0
  5  7  1  0
  7 12  1  0
  8  7  1  0
  8  9  1  0
  9 10  1  0
 10 11  1  0
 12 11  1  0
 13 14  2  0
 13  2  1  0
  1 15  1  0
  3 16  1  0
  8 17  1  0
  8 18  1  0
  9 19  1  0
  9 20  1  0
 10 21  1  0
 10 22  1  0
 11 23  1  0
 11 24  1  0
 12 25  1  0
 12 26  1  0
 13 27  1  0
M  ISO  8  15  14  16  14  17  13  18  13  19  13  20  13  21  13  22  13
M  ISO  5  23  13  24  13  25  13  26  13  27   6
M  END
>  <minimizedAffinity>  (1) 
-4.68802643

>  <minimizedRMSD>  (1) 
0.953364968

$$$$
