
     RDKit          3D

 22 23  0  0  0  0  0  0  0  0999 V2000
   44.8540   34.8560   45.2980 C   0  0  0  0  0  0  0  0  0  0  0  0
   45.4100   34.9570   44.0150 C   0  0  0  0  0  0  0  0  0  0  0  0
   46.4790   34.1360   43.6860 C   0  0  0  0  0  0  0  0  0  0  0  0
   46.9400   33.2640   44.6380 N   0  0  0  0  0  0  0  0  0  0  0  0
   46.3840   33.1920   45.8600 C   0  0  0  0  0  0  0  0  0  0  0  0
   45.3370   33.9890   46.1970 N   0  0  0  0  0  0  0  0  0  0  0  0
   47.0510   32.2110   46.6430 N   0  0  0  0  0  0  0  0  0  0  0  0
   47.4000   32.4580   47.9110 C   0  0  0  0  0  0  0  0  0  0  0  0
   48.0560   31.4830   48.6690 C   0  0  0  0  0  0  0  0  0  0  0  0
   48.3110   30.2830   48.0380 C   0  0  0  0  0  0  0  0  0  0  0  0
   48.9030   29.4250   48.7450 O   0  0  0  0  0  0  0  0  0  0  0  0
   47.9460   30.0680   46.7580 N   0  0  0  0  0  0  0  0  0  0  0  0
   47.3090   31.0340   46.0450 C   0  0  0  0  0  0  0  0  0  0  0  0
   46.9950   30.7710   44.8590 O   0  0  0  0  0  0  0  0  0  0  0  0
   44.8570   35.9120   43.0670 C   0  0  0  0  0  0  0  0  0  0  0  0
   45.1810   37.1180   43.2450 O   0  0  0  0  0  0  0  0  0  0  0  0
   44.0056   35.5007   45.5712 H   0  0  0  0  0  0  0  0  0  0  0  0
   46.9433   34.1834   42.6899 H   0  0  0  0  0  0  0  0  0  0  0  0
   47.1692   33.4351   48.3604 H   0  0  0  0  0  0  0  0  0  0  0  0
   48.3529   31.6633   49.7127 H   0  0  0  0  0  0  0  0  0  0  0  0
   48.1523   29.1611   46.3153 H   0  0  0  0  0  0  0  0  0  0  0  0
   44.1961   35.6011   42.2445 H   0  0  0  0  0  0  0  0  0  0  0  0
  1  6  2  0
  2  1  1  0
  3  2  2  0
  3  4  1  0
  4  5  2  0
  5  6  1  0
  5  7  1  0
  7  8  1  0
  8  9  2  0
 10  9  1  0
 10 11  2  0
 12 10  1  0
 13  7  1  0
 13 12  1  0
 14 13  2  0
 15 16  2  0
 15  2  1  0
  1 17  1  0
  3 18  1  0
  8 19  1  0
  9 20  1  0
 12 21  1  0
 15 22  1  0
M  ISO  6  17  14  18  14  19  14  20  14  21   9  22   6
M  END
>  <minimizedAffinity>  (1) 
-4.70308208

>  <minimizedRMSD>  (1) 
0.0943327025

$$$$
