
     RDKit          3D

 25 26  0  0  0  0  0  0  0  0999 V2000
   44.8750   34.5570   45.8370 C   0  0  0  0  0  0  0  0  0  0  0  0
   45.1480   34.8110   44.4940 C   0  0  0  0  0  0  0  0  0  0  0  0
   46.1810   34.0980   43.9130 C   0  0  0  0  0  0  0  0  0  0  0  0
   46.8780   33.1930   44.6690 N   0  0  0  0  0  0  0  0  0  0  0  0
   46.5860   32.9750   45.9620 C   0  0  0  0  0  0  0  0  0  0  0  0
   45.5730   33.6650   46.5530 N   0  0  0  0  0  0  0  0  0  0  0  0
   48.7250   30.1930   48.3760 C   0  0  0  0  0  0  0  0  0  0  0  0
   48.3530   29.8580   47.0810 C   0  0  0  0  0  0  0  0  0  0  0  0
   47.6530   30.7740   46.2980 C   0  0  0  0  0  0  0  0  0  0  0  0
   47.3130   32.0220   46.7740 C   0  0  0  0  0  0  0  0  0  0  0  0
   47.7090   32.3000   48.0690 C   0  0  0  0  0  0  0  0  0  0  0  0
   48.4020   31.4300   48.8860 C   0  0  0  0  0  0  0  0  0  0  0  0
   49.6060   29.1280   49.4550 S   0  0  0  0  0  0  0  0  0  0  0  0
   50.9780   28.9150   48.8850 O   0  0  0  0  0  0  0  0  0  0  0  0
   49.8090   29.8600   50.7680 O   0  0  0  0  0  0  0  0  0  0  0  0
   44.3590   35.7810   43.7870 C   0  0  0  0  0  0  0  0  0  0  0  0
   44.9690   36.6030   43.0720 O   0  0  0  0  0  0  0  0  0  0  0  0
   44.0582   35.1079   46.3261 H   0  0  0  0  0  0  0  0  0  0  0  0
   46.4399   34.2559   42.8556 H   0  0  0  0  0  0  0  0  0  0  0  0
   48.6108   28.8695   46.6730 H   0  0  0  0  0  0  0  0  0  0  0  0
   47.3645   30.4939   45.2741 H   0  0  0  0  0  0  0  0  0  0  0  0
   47.4527   33.2881   48.4787 H   0  0  0  0  0  0  0  0  0  0  0  0
   48.6864   31.7153   49.9096 H   0  0  0  0  0  0  0  0  0  0  0  0
   48.9275   27.9488   49.6161 H   0  0  0  0  0  0  0  0  0  0  0  0
   43.2624   35.7989   43.8720 H   0  0  0  0  0  0  0  0  0  0  0  0
  1  6  2  0
  2  1  1  0
  3  2  2  0
  3  4  1  0
  4  5  2  0
  5  6  1  0
  5 10  1  0
  7 12  2  0
  7 13  1  0
  8  7  1  0
  9 10  1  0
  9  8  2  0
 10 11  2  0
 11 12  1  0
 13 15  2  0
 14 13  2  0
 16  2  1  0
 17 16  2  0
  1 18  1  0
  3 19  1  0
  8 20  1  0
  9 21  1  0
 11 22  1  0
 12 23  1  0
 13 24  1  0
 16 25  1  0
M  ISO  8  18  14  19  14  20  14  21  14  22  14  23  14  24  11  25   6
M  END
>  <minimizedAffinity>  (1) 
-4.24772835

>  <minimizedRMSD>  (1) 
0.998540163

$$$$
