
     RDKit          3D

 43 46  0  0  1  0  0  0  0  0999 V2000
   45.9240   34.2730   42.8210 N   0  0  0  0  0  0  0  0  0  0  0  0
   46.9850   34.9270   42.1090 C   0  0  0  0  0  0  0  0  0  0  0  0
   47.3460   34.3300   40.7990 C   0  0  0  0  0  0  0  0  0  0  0  0
   47.3340   32.9410   40.9920 O   0  0  0  0  0  0  0  0  0  0  0  0
   45.9720   32.6340   40.9830 C   0  0  0  0  0  0  0  0  0  0  0  0
   45.2020   33.3090   42.0940 C   0  0  2  0  0  0  0  0  0  0  0  0
   44.0250   33.9370   41.5010 N   0  0  0  0  0  0  0  0  0  0  0  0
   43.8760   35.1670   40.9500 C   0  0  0  0  0  0  0  0  0  0  0  0
   42.6050   35.3170   40.5290 N   0  0  0  0  0  0  0  0  0  0  0  0
   41.9050   34.2130   40.7880 C   0  0  0  0  0  0  0  0  0  0  0  0
   40.6170   33.7490   40.6170 C   0  0  0  0  0  0  0  0  0  0  0  0
   40.2440   32.5180   41.0210 N   0  0  0  0  0  0  0  0  0  0  0  0
   41.1400   31.7000   41.6130 C   0  0  0  0  0  0  0  0  0  0  0  0
   42.3880   32.1330   41.7850 N   0  0  0  0  0  0  0  0  0  0  0  0
   42.8060   33.3560   41.3970 C   0  0  0  0  0  0  0  0  0  0  0  0
   46.3450   33.9740   44.1440 C   0  0  0  0  0  0  0  0  0  0  0  0
   45.2680   33.8690   45.1940 C   0  0  1  0  0  0  0  0  0  0  0  0
   45.1910   33.1210   47.6260 C   0  0  0  0  0  0  0  0  0  0  0  0
   45.8200   33.1380   46.3400 C   0  0  0  0  0  0  0  0  0  0  0  0
   47.0090   32.4150   46.2340 C   0  0  0  0  0  0  0  0  0  0  0  0
   47.4800   31.7590   47.3240 N   0  0  0  0  0  0  0  0  0  0  0  0
   46.8590   31.7680   48.5160 C   0  0  0  0  0  0  0  0  0  0  0  0
   45.7010   32.4580   48.6690 N   0  0  0  0  0  0  0  0  0  0  0  0
   44.7160   35.1800   45.6020 C   0  0  0  0  0  0  0  0  0  0  0  0
   46.6812   35.9694   41.9329 H   0  0  0  0  0  0  0  0  0  0  0  0
   47.8787   34.8230   42.7418 H   0  0  0  0  0  0  0  0  0  0  0  0
   48.3471   34.6644   40.4892 H   0  0  0  0  0  0  0  0  0  0  0  0
   46.6426   34.6337   40.0097 H   0  0  0  0  0  0  0  0  0  0  0  0
   45.5480   32.9536   40.0196 H   0  0  0  0  0  0  0  0  0  0  0  0
   45.8808   31.5484   41.1350 H   0  0  0  0  0  0  0  0  0  0  0  0
   44.9486   32.5269   42.8248 H   0  0  0  0  0  0  0  0  0  0  0  0
   44.6690   35.9241   40.8607 H   0  0  0  0  0  0  0  0  0  0  0  0
   39.8731   34.4021   40.1373 H   0  0  0  0  0  0  0  0  0  0  0  0
   40.8450   30.6944   41.9472 H   0  0  0  0  0  0  0  0  0  0  0  0
   46.8757   33.0109   44.1145 H   0  0  0  0  0  0  0  0  0  0  0  0
   46.9619   34.8318   44.4500 H   0  0  0  0  0  0  0  0  0  0  0  0
   44.4139   33.3246   44.7649 H   0  0  0  0  0  0  0  0  0  0  0  0
   44.2507   33.6755   47.7613 H   0  0  0  0  0  0  0  0  0  0  0  0
   47.5563   32.3776   45.2805 H   0  0  0  0  0  0  0  0  0  0  0  0
   47.2888   31.2171   49.3656 H   0  0  0  0  0  0  0  0  0  0  0  0
   44.6902   35.2413   46.7000 H   0  0  0  0  0  0  0  0  0  0  0  0
   45.3515   35.9851   45.2046 H   0  0  0  0  0  0  0  0  0  0  0  0
   43.6960   35.2881   45.2046 H   0  0  0  0  0  0  0  0  0  0  0  0
  1 16  1  0
  2  1  1  0
  3  4  1  0
  3  2  1  0
  5  4  1  0
  5  6  1  0
  6  1  1  0
  7  6  1  0
  8  7  1  0
  9 10  1  0
  9  8  2  0
 10 15  2  0
 11 10  1  0
 11 12  2  0
 12 13  1  0
 13 14  2  0
 15  7  1  0
 15 14  1  0
 16 17  1  0
 17 24  1  0
 17 19  1  0
 18 23  2  0
 19 18  1  0
 20 19  2  0
 20 21  1  0
 21 22  2  0
 22 23  1  0
  2 25  1  0
  2 26  1  0
  3 27  1  0
  3 28  1  0
  5 29  1  0
  5 30  1  0
  6 31  1  1
  8 32  1  0
 11 33  1  0
 13 34  1  0
 16 35  1  0
 16 36  1  0
 17 37  1  6
 18 38  1  0
 20 39  1  0
 22 40  1  0
 24 41  1  0
 24 42  1  0
 24 43  1  0
M  ISO  8  25  13  26  13  27  13  28  13  29  13  30  13  31  13  32  14
M  ISO  8  33  14  34  14  35   8  36   8  37   8  38  14  39  14  40  14
M  ISO  3  41   8  42   8  43   8
M  END
>  <minimizedAffinity>  (1) 
-5.40960598

>  <minimizedRMSD>  (1) 
6.66016674

$$$$
