
     RDKit          3D

 14 14  0  0  0  0  0  0  0  0999 V2000
   44.8770   34.8710   45.2650 C   0  0  0  0  0  0  0  0  0  0  0  0
   45.4460   34.9510   43.9960 C   0  0  0  0  0  0  0  0  0  0  0  0
   46.5000   34.1060   43.6970 C   0  0  0  0  0  0  0  0  0  0  0  0
   46.9230   33.2440   44.6560 N   0  0  0  0  0  0  0  0  0  0  0  0
   46.3740   33.1700   45.8750 C   0  0  0  0  0  0  0  0  0  0  0  0
   45.3400   33.9900   46.1880 N   0  0  0  0  0  0  0  0  0  0  0  0
   44.8930   35.9130   43.0820 C   0  0  0  0  0  0  0  0  0  0  0  0
   45.1780   37.1130   43.2420 O   0  0  0  0  0  0  0  0  0  0  0  0
   46.8530   32.2310   46.8840 C   0  0  0  0  0  0  0  0  0  0  0  0
   47.5270   32.6310   47.8740 O   0  0  0  0  0  0  0  0  0  0  0  0
   44.0378   35.5334   45.5236 H   0  0  0  0  0  0  0  0  0  0  0  0
   46.9821   34.1322   42.7086 H   0  0  0  0  0  0  0  0  0  0  0  0
   44.2336   35.5954   42.2608 H   0  0  0  0  0  0  0  0  0  0  0  0
   46.6238   31.1601   46.7808 H   0  0  0  0  0  0  0  0  0  0  0  0
  1  6  2  0
  2  1  1  0
  3  2  2  0
  3  4  1  0
  4  5  2  0
  5  6  1  0
  5  9  1  0
  7  8  2  0
  7  2  1  0
  9 10  2  0
  1 11  1  0
  3 12  1  0
  7 13  1  0
  9 14  1  0
M  ISO  4  11  14  12  14  13   6  14   6
M  END
>  <minimizedAffinity>  (1) 
-3.30683303

>  <minimizedRMSD>  (1) 
0.098060526

$$$$
