
     RDKit          3D

 13 13  0  0  0  0  0  0  0  0999 V2000
   44.8640   34.8810   45.2670 C   0  0  0  0  0  0  0  0  0  0  0  0
   45.4500   34.9450   43.9820 C   0  0  0  0  0  0  0  0  0  0  0  0
   46.5070   34.0990   43.6940 C   0  0  0  0  0  0  0  0  0  0  0  0
   46.9360   33.2400   44.6660 N   0  0  0  0  0  0  0  0  0  0  0  0
   46.3590   33.2050   45.8760 C   0  0  0  0  0  0  0  0  0  0  0  0
   45.3330   34.0110   46.1860 N   0  0  0  0  0  0  0  0  0  0  0  0
   44.8950   35.9010   43.0480 C   0  0  0  0  0  0  0  0  0  0  0  0
   45.1770   37.1170   43.2430 O   0  0  0  0  0  0  0  0  0  0  0  0
   46.9590   32.2570   46.7010 O   0  0  0  0  0  0  0  0  0  0  0  0
   44.0224   35.5430   45.5188 H   0  0  0  0  0  0  0  0  0  0  0  0
   46.9902   34.1178   42.7060 H   0  0  0  0  0  0  0  0  0  0  0  0
   44.2583   35.5842   42.2088 H   0  0  0  0  0  0  0  0  0  0  0  0
   46.6300   32.1262   47.6255 H   0  0  0  0  0  0  0  0  0  0  0  0
  1  6  2  0
  2  1  1  0
  3  2  2  0
  3  4  1  0
  4  5  2  0
  5  6  1  0
  5  9  1  0
  7  8  2  0
  7  2  1  0
  1 10  1  0
  3 11  1  0
  7 12  1  0
  9 13  1  0
M  ISO  4  10  14  11  14  12   6  13   3
M  END
>  <minimizedAffinity>  (1) 
-3.07312632

>  <minimizedRMSD>  (1) 
0.0367453024

$$$$
