
     RDKit          3D

 15 15  0  0  0  0  0  0  0  0999 V2000
   44.7860   35.0320   45.1760 C   0  0  0  0  0  0  0  0  0  0  0  0
   45.3830   35.0410   43.8970 C   0  0  0  0  0  0  0  0  0  0  0  0
   46.4540   34.1670   43.6630 C   0  0  0  0  0  0  0  0  0  0  0  0
   46.8710   33.3510   44.6770 N   0  0  0  0  0  0  0  0  0  0  0  0
   46.2730   33.3800   45.8750 C   0  0  0  0  0  0  0  0  0  0  0  0
   45.2410   34.2060   46.1350 N   0  0  0  0  0  0  0  0  0  0  0  0
   44.8810   35.9340   42.8800 C   0  0  0  0  0  0  0  0  0  0  0  0
   45.1030   37.1620   43.0720 O   0  0  0  0  0  0  0  0  0  0  0  0
   46.6940   32.5220   46.9810 C   0  0  0  0  0  0  0  0  0  0  0  0
   46.2630   31.3500   47.1710 O   0  0  0  0  0  0  0  0  0  0  0  0
   47.6160   32.8890   47.9520 O   0  0  0  0  0  0  0  0  0  0  0  0
   43.9428   35.7052   45.3899 H   0  0  0  0  0  0  0  0  0  0  0  0
   46.9495   34.1386   42.6814 H   0  0  0  0  0  0  0  0  0  0  0  0
   44.3400   35.5682   41.9949 H   0  0  0  0  0  0  0  0  0  0  0  0
   47.8539   32.2545   48.6737 H   0  0  0  0  0  0  0  0  0  0  0  0
  1  6  2  0
  2  1  1  0
  3  2  2  0
  3  4  1  0
  4  5  2  0
  5  6  1  0
  5  9  1  0
  7  8  2  0
  7  2  1  0
  9 10  2  0
  9 11  1  0
  1 12  1  0
  3 13  1  0
  7 14  1  0
 11 15  1  0
M  ISO  4  12  14  13  14  14   6  15   3
M  END
>  <minimizedAffinity>  (1) 
-3.78974724

>  <minimizedRMSD>  (1) 
0.242441356

$$$$
