
     RDKit          3D

 33 36  0  0  0  0  0  0  0  0999 V2000
   44.7160   34.9790   45.2590 C   0  0  0  0  0  0  0  0  0  0  0  0
   45.3340   34.6920   44.0300 C   0  0  0  0  0  0  0  0  0  0  0  0
   46.2620   33.6550   43.9710 C   0  0  0  0  0  0  0  0  0  0  0  0
   46.5220   32.9680   45.1250 N   0  0  0  0  0  0  0  0  0  0  0  0
   45.9310   33.2480   46.2870 C   0  0  0  0  0  0  0  0  0  0  0  0
   45.0190   34.2650   46.3490 N   0  0  0  0  0  0  0  0  0  0  0  0
   46.2930   32.4560   47.4080 N   0  0  0  0  0  0  0  0  0  0  0  0
   47.4020   31.7790   47.7080 N   0  0  0  0  0  0  0  0  0  0  0  0
   47.2490   31.1810   48.9060 C   0  0  0  0  0  0  0  0  0  0  0  0
   45.9760   31.5110   49.3600 C   0  0  0  0  0  0  0  0  0  0  0  0
   45.3920   32.3300   48.3720 C   0  0  0  0  0  0  0  0  0  0  0  0
   45.0100   35.4610   42.8520 C   0  0  0  0  0  0  0  0  0  0  0  0
   45.1480   36.7030   42.9580 O   0  0  0  0  0  0  0  0  0  0  0  0
   44.5390   34.9640   41.5410 C   0  0  0  0  0  0  0  0  0  0  0  0
   45.1310   34.2920   40.4770 C   0  0  0  0  0  0  0  0  0  0  0  0
   44.1810   34.1060   39.5400 N   0  0  0  0  0  0  0  0  0  0  0  0
   43.0100   34.6160   39.9280 C   0  0  0  0  0  0  0  0  0  0  0  0
   41.7710   34.6620   39.3060 C   0  0  0  0  0  0  0  0  0  0  0  0
   40.6820   35.2600   39.9240 C   0  0  0  0  0  0  0  0  0  0  0  0
   40.8770   35.8050   41.1750 C   0  0  0  0  0  0  0  0  0  0  0  0
   42.1090   35.7590   41.7930 C   0  0  0  0  0  0  0  0  0  0  0  0
   43.2160   35.1580   41.1800 C   0  0  0  0  0  0  0  0  0  0  0  0
   43.9802   35.7940   45.3250 H   0  0  0  0  0  0  0  0  0  0  0  0
   46.7683   33.3974   43.0290 H   0  0  0  0  0  0  0  0  0  0  0  0
   47.9882   30.5530   49.4249 H   0  0  0  0  0  0  0  0  0  0  0  0
   45.5143   31.1942   50.3068 H   0  0  0  0  0  0  0  0  0  0  0  0
   44.3869   32.7764   48.3964 H   0  0  0  0  0  0  0  0  0  0  0  0
   46.1813   33.9714   40.4124 H   0  0  0  0  0  0  0  0  0  0  0  0
   44.3381   33.6311   38.6396 H   0  0  0  0  0  0  0  0  0  0  0  0
   41.6498   34.2174   38.3072 H   0  0  0  0  0  0  0  0  0  0  0  0
   39.6983   35.2978   39.4332 H   0  0  0  0  0  0  0  0  0  0  0  0
   40.0330   36.2863   41.6907 H   0  0  0  0  0  0  0  0  0  0  0  0
   42.2253   36.2051   42.7917 H   0  0  0  0  0  0  0  0  0  0  0  0
  1  6  2  0
  2  1  1  0
  3  2  2  0
  3  4  1  0
  4  5  2  0
  5  6  1  0
  5  7  1  0
  7  8  1  0
  7 11  1  0
  8  9  2  0
  9 10  1  0
 11 10  2  0
 12 13  2  0
 12  2  1  0
 14 12  1  0
 15 14  2  0
 16 17  1  0
 16 15  1  0
 17 22  2  0
 18 19  2  0
 18 17  1  0
 19 20  1  0
 20 21  2  0
 22 14  1  0
 22 21  1  0
  1 23  1  0
  3 24  1  0
  9 25  1  0
 10 26  1  0
 11 27  1  0
 15 28  1  0
 16 29  1  0
 18 30  1  0
 19 31  1  0
 20 32  1  0
 21 33  1  0
M  ISO  8  23  14  24  14  25  14  26  14  27  14  28  14  29   9  30  14
M  ISO  3  31  14  32  14  33  14
M  END
>  <minimizedAffinity>  (1) 
-6.7432375

>  <minimizedRMSD>  (1) 
1.12156999

$$$$
