
     RDKit          3D

 32 34  0  0  0  0  0  0  0  0999 V2000
   44.7960   34.9340   45.1890 C   0  0  0  0  0  0  0  0  0  0  0  0
   45.5780   34.7860   44.0310 C   0  0  0  0  0  0  0  0  0  0  0  0
   46.5740   33.8470   44.0770 C   0  0  0  0  0  0  0  0  0  0  0  0
   46.7610   33.1170   45.2070 N   0  0  0  0  0  0  0  0  0  0  0  0
   46.0060   33.2730   46.2950 C   0  0  0  0  0  0  0  0  0  0  0  0
   44.9970   34.1940   46.3100 N   0  0  0  0  0  0  0  0  0  0  0  0
   46.3300   32.4280   47.3960 N   0  0  0  0  0  0  0  0  0  0  0  0
   47.4050   31.7590   47.7580 N   0  0  0  0  0  0  0  0  0  0  0  0
   47.1490   31.1050   48.9260 C   0  0  0  0  0  0  0  0  0  0  0  0
   45.8490   31.3960   49.2850 C   0  0  0  0  0  0  0  0  0  0  0  0
   45.3510   32.2420   48.2910 C   0  0  0  0  0  0  0  0  0  0  0  0
   45.2360   35.6320   42.9300 C   0  0  0  0  0  0  0  0  0  0  0  0
   45.3150   36.8800   43.0980 O   0  0  0  0  0  0  0  0  0  0  0  0
   44.7910   35.2060   41.5940 C   0  0  0  0  0  0  0  0  0  0  0  0
   43.3650   35.6730   41.3030 C   0  0  0  0  0  0  0  0  0  0  0  0
   42.8630   34.5670   40.4010 C   0  0  0  0  0  0  0  0  0  0  0  0
   43.3750   33.3220   41.1440 C   0  0  0  0  0  0  0  0  0  0  0  0
   44.8420   33.7450   41.3180 C   0  0  0  0  0  0  0  0  0  0  0  0
   43.9876   35.6800   45.1876 H   0  0  0  0  0  0  0  0  0  0  0  0
   47.2203   33.6846   43.2018 H   0  0  0  0  0  0  0  0  0  0  0  0
   47.8497   30.4634   49.4803 H   0  0  0  0  0  0  0  0  0  0  0  0
   45.3126   31.0346   50.1748 H   0  0  0  0  0  0  0  0  0  0  0  0
   44.3408   32.6756   48.2508 H   0  0  0  0  0  0  0  0  0  0  0  0
   45.5296   35.6854   40.9347 H   0  0  0  0  0  0  0  0  0  0  0  0
   42.7687   35.7414   42.2248 H   0  0  0  0  0  0  0  0  0  0  0  0
   43.3042   36.6770   40.8577 H   0  0  0  0  0  0  0  0  0  0  0  0
   43.2959   34.6413   39.3925 H   0  0  0  0  0  0  0  0  0  0  0  0
   41.7758   34.5784   40.2340 H   0  0  0  0  0  0  0  0  0  0  0  0
   42.8681   33.1784   42.1096 H   0  0  0  0  0  0  0  0  0  0  0  0
   43.2131   32.3615   40.6329 H   0  0  0  0  0  0  0  0  0  0  0  0
   45.3019   33.2081   42.1608 H   0  0  0  0  0  0  0  0  0  0  0  0
   45.4472   33.5132   40.4292 H   0  0  0  0  0  0  0  0  0  0  0  0
  1  6  2  0
  2  3  2  0
  2  1  1  0
  3  4  1  0
  4  5  2  0
  5  6  1  0
  5  7  1  0
  7  8  1  0
  7 11  1  0
  8  9  2  0
  9 10  1  0
 11 10  2  0
 12 13  2  0
 12  2  1  0
 14 12  1  0
 15 14  1  0
 16 17  1  0
 16 15  1  0
 17 18  1  0
 18 14  1  0
  1 19  1  0
  3 20  1  0
  9 21  1  0
 10 22  1  0
 11 23  1  0
 14 24  1  0
 15 25  1  0
 15 26  1  0
 16 27  1  0
 16 28  1  0
 17 29  1  0
 17 30  1  0
 18 31  1  0
 18 32  1  0
M  ISO  8  19  14  20  14  21  14  22  14  23  14  24  13  25  13  26  13
M  ISO  6  27  13  28  13  29  13  30  13  31  13  32  13
M  END
>  <minimizedAffinity>  (1) 
-5.55060816

>  <minimizedRMSD>  (1) 
0.303900808

$$$$
