
     RDKit          3D

 33 36  0  0  0  0  0  0  0  0999 V2000
   44.6750   35.0560   45.3820 C   0  0  0  0  0  0  0  0  0  0  0  0
   45.3610   34.9050   44.1950 C   0  0  0  0  0  0  0  0  0  0  0  0
   46.3320   33.9510   44.1290 C   0  0  0  0  0  0  0  0  0  0  0  0
   46.5840   33.1870   45.2390 N   0  0  0  0  0  0  0  0  0  0  0  0
   45.9150   33.3430   46.3810 C   0  0  0  0  0  0  0  0  0  0  0  0
   44.9470   34.2890   46.4560 N   0  0  0  0  0  0  0  0  0  0  0  0
   46.2960   32.4730   47.4350 N   0  0  0  0  0  0  0  0  0  0  0  0
   47.3950   31.8320   47.7730 N   0  0  0  0  0  0  0  0  0  0  0  0
   47.1920   31.1230   48.9090 C   0  0  0  0  0  0  0  0  0  0  0  0
   45.8710   31.3540   49.2830 C   0  0  0  0  0  0  0  0  0  0  0  0
   45.3300   32.2110   48.3340 C   0  0  0  0  0  0  0  0  0  0  0  0
   45.0040   35.7660   43.1060 C   0  0  0  0  0  0  0  0  0  0  0  0
   45.2670   36.9610   43.1560 O   0  0  0  0  0  0  0  0  0  0  0  0
   44.3170   35.2230   41.9140 C   0  0  0  0  0  0  0  0  0  0  0  0
   42.9930   35.4120   41.6300 C   0  0  0  0  0  0  0  0  0  0  0  0
   42.7580   34.7490   40.4440 C   0  0  0  0  0  0  0  0  0  0  0  0
   43.9320   34.2120   40.0960 N   0  0  0  0  0  0  0  0  0  0  0  0
   44.9150   34.4600   40.9400 N   0  0  0  0  0  0  0  0  0  0  0  0
   44.2460   33.4150   38.9400 C   0  0  0  0  0  0  0  0  0  0  0  0
   45.4940   32.8480   38.7650 C   0  0  0  0  0  0  0  0  0  0  0  0
   45.3960   32.1720   37.5540 C   0  0  0  0  0  0  0  0  0  0  0  0
   44.1500   32.3320   37.0390 N   0  0  0  0  0  0  0  0  0  0  0  0
   43.4640   33.0820   37.8810 N   0  0  0  0  0  0  0  0  0  0  0  0
   43.8873   35.8205   45.4536 H   0  0  0  0  0  0  0  0  0  0  0  0
   46.9033   33.7968   43.2017 H   0  0  0  0  0  0  0  0  0  0  0  0
   47.9247   30.4908   49.4319 H   0  0  0  0  0  0  0  0  0  0  0  0
   45.3553   30.9378   50.1610 H   0  0  0  0  0  0  0  0  0  0  0  0
   44.3023   32.6030   48.3198 H   0  0  0  0  0  0  0  0  0  0  0  0
   42.2630   35.9784   42.2269 H   0  0  0  0  0  0  0  0  0  0  0  0
   41.8053   34.6770   39.8989 H   0  0  0  0  0  0  0  0  0  0  0  0
   46.3662   32.9160   39.4318 H   0  0  0  0  0  0  0  0  0  0  0  0
   46.2058   31.5946   37.0840 H   0  0  0  0  0  0  0  0  0  0  0  0
   43.8031   31.9394   36.1522 H   0  0  0  0  0  0  0  0  0  0  0  0
  1  6  2  0
  2  1  1  0
  3  2  2  0
  3  4  1  0
  4  5  2  0
  5  6  1  0
  5  7  1  0
  7  8  1  0
  7 11  1  0
  8  9  2  0
  9 10  1  0
 11 10  2  0
 12 13  2  0
 12  2  1  0
 14 12  1  0
 15 14  1  0
 16 15  2  0
 17 16  1  0
 17 18  1  0
 18 14  2  0
 19 17  1  0
 20 19  1  0
 21 20  2  0
 22 21  1  0
 22 23  1  0
 23 19  2  0
  1 24  1  0
  3 25  1  0
  9 26  1  0
 10 27  1  0
 11 28  1  0
 15 29  1  0
 16 30  1  0
 20 31  1  0
 21 32  1  0
 22 33  1  0
M  ISO  8  24  14  25  14  26  14  27  14  28  14  29  14  30  14  31  14
M  ISO  2  32  14  33   9
M  END
>  <minimizedAffinity>  (1) 
-6.33896017

>  <minimizedRMSD>  (1) 
0.340836138

$$$$
