
     RDKit          3D

 46 49  0  0  1  0  0  0  0  0999 V2000
   47.5190   34.6750   41.1080 N   0  0  0  0  0  0  0  0  0  0  0  0
   48.8600   34.7190   41.5860 C   0  0  0  0  0  0  0  0  0  0  0  0
   49.5440   33.4130   41.7230 C   0  0  0  0  0  0  0  0  0  0  0  0
   48.5910   32.5330   42.2650 O   0  0  0  0  0  0  0  0  0  0  0  0
   47.7850   32.2260   41.1710 C   0  0  0  0  0  0  0  0  0  0  0  0
   47.1040   33.4420   40.5700 C   0  0  2  0  0  0  0  0  0  0  0  0
   47.4060   33.4680   39.1310 N   0  0  0  0  0  0  0  0  0  0  0  0
   48.2320   34.3150   38.4870 C   0  0  0  0  0  0  0  0  0  0  0  0
   48.2280   33.9990   37.1620 N   0  0  0  0  0  0  0  0  0  0  0  0
   47.4070   32.9520   36.9440 C   0  0  0  0  0  0  0  0  0  0  0  0
   46.9720   32.1760   35.8860 C   0  0  0  0  0  0  0  0  0  0  0  0
   47.4310   32.4640   34.7480 O   0  0  0  0  0  0  0  0  0  0  0  0
   46.0970   31.1700   36.1160 N   0  0  0  0  0  0  0  0  0  0  0  0
   45.6190   30.8800   37.3380 C   0  0  0  0  0  0  0  0  0  0  0  0
   44.7110   29.8380   37.5810 N   0  0  0  0  0  0  0  0  0  0  0  0
   46.0300   31.6220   38.3730 N   0  0  0  0  0  0  0  0  0  0  0  0
   46.9080   32.6440   38.1930 C   0  0  0  0  0  0  0  0  0  0  0  0
   46.6590   35.3900   41.9800 C   0  0  0  0  0  0  0  0  0  0  0  0
   45.3260   34.7540   42.2820 C   0  0  1  0  0  0  0  0  0  0  0  0
   44.6000   35.4550   44.6190 C   0  0  0  0  0  0  0  0  0  0  0  0
   45.2450   34.5310   43.7350 C   0  0  0  0  0  0  0  0  0  0  0  0
   45.7970   33.4070   44.3300 C   0  0  0  0  0  0  0  0  0  0  0  0
   45.6970   33.2550   45.6750 N   0  0  0  0  0  0  0  0  0  0  0  0
   45.0860   34.1370   46.4780 C   0  0  0  0  0  0  0  0  0  0  0  0
   44.5270   35.2610   45.9330 N   0  0  0  0  0  0  0  0  0  0  0  0
   44.1740   35.5410   41.7850 C   0  0  0  0  0  0  0  0  0  0  0  0
   49.4462   35.3341   40.8874 H   0  0  0  0  0  0  0  0  0  0  0  0
   48.7981   35.1294   42.6047 H   0  0  0  0  0  0  0  0  0  0  0  0
   49.8815   33.0530   40.7399 H   0  0  0  0  0  0  0  0  0  0  0  0
   50.4341   33.4890   42.3649 H   0  0  0  0  0  0  0  0  0  0  0  0
   48.4102   31.7571   40.3968 H   0  0  0  0  0  0  0  0  0  0  0  0
   46.9932   31.5509   41.5276 H   0  0  0  0  0  0  0  0  0  0  0  0
   46.0326   33.3377   40.7963 H   0  0  0  0  0  0  0  0  0  0  0  0
   48.8121   35.1254   38.9526 H   0  0  0  0  0  0  0  0  0  0  0  0
   45.7827   30.6001   35.3176 H   0  0  0  0  0  0  0  0  0  0  0  0
   44.3765   29.6593   38.5386 H   0  0  0  0  0  0  0  0  0  0  0  0
   44.3791   29.2519   36.8017 H   0  0  0  0  0  0  0  0  0  0  0  0
   47.1885   35.5252   42.9346 H   0  0  0  0  0  0  0  0  0  0  0  0
   46.4219   36.3254   41.4520 H   0  0  0  0  0  0  0  0  0  0  0  0
   45.2646   33.7968   41.7435 H   0  0  0  0  0  0  0  0  0  0  0  0
   44.1463   36.3624   44.1939 H   0  0  0  0  0  0  0  0  0  0  0  0
   46.3093   32.6484   43.7200 H   0  0  0  0  0  0  0  0  0  0  0  0
   45.0344   33.9596   47.5624 H   0  0  0  0  0  0  0  0  0  0  0  0
   43.6014   35.9322   42.6389 H   0  0  0  0  0  0  0  0  0  0  0  0
   44.5391   36.3793   41.1735 H   0  0  0  0  0  0  0  0  0  0  0  0
   43.5258   34.8961   41.1735 H   0  0  0  0  0  0  0  0  0  0  0  0
  1  2  1  0
  1 18  1  0
  2  3  1  0
  3  4  1  0
  5  4  1  0
  6  1  1  0
  6  5  1  0
  7  6  1  0
  8  7  1  0
  9  8  2  0
 10  9  1  0
 10 17  2  0
 11 13  1  0
 11 10  1  0
 12 11  2  0
 13 14  1  0
 14 15  1  0
 14 16  2  0
 17 16  1  0
 17  7  1  0
 18 19  1  0
 19 21  1  0
 20 25  2  0
 21 22  2  0
 21 20  1  0
 22 23  1  0
 23 24  2  0
 25 24  1  0
 26 19  1  0
  2 27  1  0
  2 28  1  0
  3 29  1  0
  3 30  1  0
  5 31  1  0
  5 32  1  0
  6 33  1  6
  8 34  1  0
 13 35  1  0
 15 36  1  0
 15 37  1  0
 18 38  1  0
 18 39  1  0
 19 40  1  6
 20 41  1  0
 22 42  1  0
 24 43  1  0
 26 44  1  0
 26 45  1  0
 26 46  1  0
M  ISO  8  27  13  28  13  29  13  30  13  31  13  32  13  33  13  34  14
M  ISO  8  35   9  38   8  39   8  40   8  41  14  42  14  43  14  44   8
M  ISO  2  45   8  46   8
M  END
>  <minimizedAffinity>  (1) 
-5.14692259

>  <minimizedRMSD>  (1) 
4.03941393

$$$$
