
     RDKit          3D

 42 45  0  0  0  0  0  0  0  0999 V2000
   44.6980   35.0630   45.3030 C   0  0  0  0  0  0  0  0  0  0  0  0
   45.4110   34.9020   44.1230 C   0  0  0  0  0  0  0  0  0  0  0  0
   46.4040   33.9440   44.0580 C   0  0  0  0  0  0  0  0  0  0  0  0
   46.6300   33.1950   45.1850 N   0  0  0  0  0  0  0  0  0  0  0  0
   45.9330   33.3600   46.3250 C   0  0  0  0  0  0  0  0  0  0  0  0
   44.9600   34.3000   46.3840 N   0  0  0  0  0  0  0  0  0  0  0  0
   46.3090   32.4900   47.3910 N   0  0  0  0  0  0  0  0  0  0  0  0
   47.3920   31.8450   47.7400 N   0  0  0  0  0  0  0  0  0  0  0  0
   47.1680   31.1510   48.8810 C   0  0  0  0  0  0  0  0  0  0  0  0
   45.8660   31.3940   49.2430 C   0  0  0  0  0  0  0  0  0  0  0  0
   45.3330   32.2480   48.2870 C   0  0  0  0  0  0  0  0  0  0  0  0
   45.0800   35.7440   43.0180 C   0  0  0  0  0  0  0  0  0  0  0  0
   45.2950   36.9610   43.0890 O   0  0  0  0  0  0  0  0  0  0  0  0
   44.4840   35.1880   41.7920 C   0  0  0  0  0  0  0  0  0  0  0  0
   43.2430   35.5180   41.3250 C   0  0  0  0  0  0  0  0  0  0  0  0
   43.0640   34.7920   40.1770 C   0  0  0  0  0  0  0  0  0  0  0  0
   44.1650   34.0870   40.0110 N   0  0  0  0  0  0  0  0  0  0  0  0
   45.0610   34.2860   40.9600 N   0  0  0  0  0  0  0  0  0  0  0  0
   44.3520   33.1810   38.8800 C   0  0  0  0  0  0  0  0  0  0  0  0
   43.1270   32.3690   38.6120 C   0  0  0  0  0  0  0  0  0  0  0  0
   43.3560   31.5700   37.3510 C   0  0  0  0  0  0  0  0  0  0  0  0
   44.6690   31.8750   36.7000 C   0  0  0  0  0  0  0  0  0  0  0  0
   45.8430   31.7380   37.6320 C   0  0  0  0  0  0  0  0  0  0  0  0
   45.5390   32.2810   39.0310 C   0  0  0  0  0  0  0  0  0  0  0  0
   43.9066   35.8251   45.3574 H   0  0  0  0  0  0  0  0  0  0  0  0
   46.9897   33.7880   43.1400 H   0  0  0  0  0  0  0  0  0  0  0  0
   47.8898   30.5153   49.4148 H   0  0  0  0  0  0  0  0  0  0  0  0
   45.3446   30.9891   50.1229 H   0  0  0  0  0  0  0  0  0  0  0  0
   44.3094   32.6501   48.2654 H   0  0  0  0  0  0  0  0  0  0  0  0
   42.5317   36.2237   41.7789 H   0  0  0  0  0  0  0  0  0  0  0  0
   42.1785   34.7966   39.5244 H   0  0  0  0  0  0  0  0  0  0  0  0
   44.5449   33.8331   38.0154 H   0  0  0  0  0  0  0  0  0  0  0  0
   42.9400   31.6880   39.4553 H   0  0  0  0  0  0  0  0  0  0  0  0
   42.2541   33.0274   38.4910 H   0  0  0  0  0  0  0  0  0  0  0  0
   43.3295   30.4997   37.6037 H   0  0  0  0  0  0  0  0  0  0  0  0
   42.5629   31.8416   36.6389 H   0  0  0  0  0  0  0  0  0  0  0  0
   44.8099   31.1823   35.8572 H   0  0  0  0  0  0  0  0  0  0  0  0
   44.6339   32.9247   36.3731 H   0  0  0  0  0  0  0  0  0  0  0  0
   46.1067   30.6733   37.7151 H   0  0  0  0  0  0  0  0  0  0  0  0
   46.6744   32.3257   37.2156 H   0  0  0  0  0  0  0  0  0  0  0  0
   46.4002   32.8468   39.4160 H   0  0  0  0  0  0  0  0  0  0  0  0
   45.3371   31.4666   39.7423 H   0  0  0  0  0  0  0  0  0  0  0  0
  1  6  2  0
  2  1  1  0
  3  2  2  0
  3  4  1  0
  4  5  2  0
  5  6  1  0
  5  7  1  0
  7  8  1  0
  7 11  1  0
  8  9  2  0
  9 10  1  0
 11 10  2  0
 12 13  2  0
 12  2  1  0
 14 12  1  0
 15 14  1  0
 16 15  2  0
 17 16  1  0
 17 18  1  0
 18 14  2  0
 19 24  1  0
 19 17  1  0
 20 19  1  0
 21 20  1  0
 22 21  1  0
 22 23  1  0
 23 24  1  0
  1 25  1  0
  3 26  1  0
  9 27  1  0
 10 28  1  0
 11 29  1  0
 15 30  1  0
 16 31  1  0
 19 32  1  0
 20 33  1  0
 20 34  1  0
 21 35  1  0
 21 36  1  0
 22 37  1  0
 22 38  1  0
 23 39  1  0
 23 40  1  0
 24 41  1  0
 24 42  1  0
M  ISO  8  25  14  26  14  27  14  28  14  29  14  30  14  31  14  32  13
M  ISO  8  33  13  34  13  35  13  36  13  37  13  38  13  39  13  40  13
M  ISO  2  41  13  42  13
M  END
>  <minimizedAffinity>  (1) 
-6.09218216

>  <minimizedRMSD>  (1) 
0.470611691

$$$$
