
     RDKit          3D

 36 39  0  0  0  0  0  0  0  0999 V2000
   45.0290   35.7710   42.9400 C   0  0  0  0  0  0  0  0  0  0  0  0
   45.3160   36.9630   42.9730 O   0  0  0  0  0  0  0  0  0  0  0  0
   44.6870   35.0910   45.2290 C   0  0  0  0  0  0  0  0  0  0  0  0
   45.3790   34.9190   44.0440 C   0  0  0  0  0  0  0  0  0  0  0  0
   46.3530   33.9570   43.9850 C   0  0  0  0  0  0  0  0  0  0  0  0
   46.5940   33.2100   45.1050 N   0  0  0  0  0  0  0  0  0  0  0  0
   45.9240   33.3770   46.2480 C   0  0  0  0  0  0  0  0  0  0  0  0
   44.9550   34.3310   46.3140 N   0  0  0  0  0  0  0  0  0  0  0  0
   46.2910   32.5280   47.3160 N   0  0  0  0  0  0  0  0  0  0  0  0
   47.3810   31.8830   47.6620 N   0  0  0  0  0  0  0  0  0  0  0  0
   47.1670   31.2040   48.8170 C   0  0  0  0  0  0  0  0  0  0  0  0
   45.8530   31.4500   49.2050 C   0  0  0  0  0  0  0  0  0  0  0  0
   45.3280   32.2990   48.2190 C   0  0  0  0  0  0  0  0  0  0  0  0
   44.3230   35.2190   41.7630 C   0  0  0  0  0  0  0  0  0  0  0  0
   43.0640   35.5760   41.3920 C   0  0  0  0  0  0  0  0  0  0  0  0
   42.7620   34.8510   40.2630 C   0  0  0  0  0  0  0  0  0  0  0  0
   43.8560   34.1150   40.0380 N   0  0  0  0  0  0  0  0  0  0  0  0
   44.8340   34.2900   40.9050 N   0  0  0  0  0  0  0  0  0  0  0  0
   43.9640   33.1980   38.9320 C   0  0  0  0  0  0  0  0  0  0  0  0
   42.8850   32.4680   38.4750 C   0  0  0  0  0  0  0  0  0  0  0  0
   42.9230   31.5850   37.4330 C   0  0  0  0  0  0  0  0  0  0  0  0
   44.1250   31.4330   36.8160 C   0  0  0  0  0  0  0  0  0  0  0  0
   45.2430   32.1070   37.1920 C   0  0  0  0  0  0  0  0  0  0  0  0
   45.1620   33.0000   38.2610 C   0  0  0  0  0  0  0  0  0  0  0  0
   43.9037   35.8609   45.2896 H   0  0  0  0  0  0  0  0  0  0  0  0
   46.9260   33.7899   43.0610 H   0  0  0  0  0  0  0  0  0  0  0  0
   47.8968   30.5755   49.3484 H   0  0  0  0  0  0  0  0  0  0  0  0
   45.3363   31.0615   50.0950 H   0  0  0  0  0  0  0  0  0  0  0  0
   44.3060   32.7050   48.1921 H   0  0  0  0  0  0  0  0  0  0  0  0
   42.4128   36.3043   41.8976 H   0  0  0  0  0  0  0  0  0  0  0  0
   41.8311   34.8717   39.6773 H   0  0  0  0  0  0  0  0  0  0  0  0
   41.9222   32.6078   38.9884 H   0  0  0  0  0  0  0  0  0  0  0  0
   42.0307   31.0280   37.1112 H   0  0  0  0  0  0  0  0  0  0  0  0
   44.1956   30.7309   35.9722 H   0  0  0  0  0  0  0  0  0  0  0  0
   46.1949   31.9515   36.6632 H   0  0  0  0  0  0  0  0  0  0  0  0
   46.0589   33.5537   38.5756 H   0  0  0  0  0  0  0  0  0  0  0  0
  1  2  2  0
  1  4  1  0
  3  8  2  0
  4  3  1  0
  5  4  2  0
  5  6  1  0
  6  7  2  0
  7  8  1  0
  7  9  1  0
  9 10  1  0
  9 13  1  0
 10 11  2  0
 11 12  1  0
 13 12  2  0
 14  1  1  0
 15 14  1  0
 16 15  2  0
 17 16  1  0
 17 18  1  0
 18 14  2  0
 19 17  1  0
 20 19  2  0
 21 20  1  0
 22 23  1  0
 22 21  2  0
 23 24  2  0
 24 19  1  0
  3 25  1  0
  5 26  1  0
 11 27  1  0
 12 28  1  0
 13 29  1  0
 15 30  1  0
 16 31  1  0
 20 32  1  0
 21 33  1  0
 22 34  1  0
 23 35  1  0
 24 36  1  0
M  ISO  8  25  14  26  14  27  14  28  14  29  14  30  14  31  14  32  14
M  ISO  4  33  14  34  14  35  14  36  14
M  END
>  <minimizedAffinity>  (1) 
-6.15160847

>  <minimizedRMSD>  (1) 
0.783609688

$$$$
