
     RDKit          3D

 29 31  0  0  0  0  0  0  0  0999 V2000
   44.6980   35.0510   45.3510 C   0  0  0  0  0  0  0  0  0  0  0  0
   45.4120   34.8980   44.1660 C   0  0  0  0  0  0  0  0  0  0  0  0
   46.3970   33.9370   44.1090 C   0  0  0  0  0  0  0  0  0  0  0  0
   46.6200   33.1840   45.2170 N   0  0  0  0  0  0  0  0  0  0  0  0
   45.9360   33.3300   46.3550 C   0  0  0  0  0  0  0  0  0  0  0  0
   44.9580   34.2770   46.4260 N   0  0  0  0  0  0  0  0  0  0  0  0
   46.2940   32.4630   47.4180 N   0  0  0  0  0  0  0  0  0  0  0  0
   47.3820   31.8220   47.7680 N   0  0  0  0  0  0  0  0  0  0  0  0
   47.1490   31.1180   48.9120 C   0  0  0  0  0  0  0  0  0  0  0  0
   45.8440   31.3510   49.2690 C   0  0  0  0  0  0  0  0  0  0  0  0
   45.3140   32.2130   48.3010 C   0  0  0  0  0  0  0  0  0  0  0  0
   45.0710   35.7590   43.0790 C   0  0  0  0  0  0  0  0  0  0  0  0
   45.2960   36.9680   43.1500 O   0  0  0  0  0  0  0  0  0  0  0  0
   44.4420   35.2190   41.8490 C   0  0  0  0  0  0  0  0  0  0  0  0
   43.1880   35.5240   41.4290 C   0  0  0  0  0  0  0  0  0  0  0  0
   42.9900   34.8280   40.2700 C   0  0  0  0  0  0  0  0  0  0  0  0
   44.1250   34.1540   40.0620 N   0  0  0  0  0  0  0  0  0  0  0  0
   45.0490   34.3490   40.9900 N   0  0  0  0  0  0  0  0  0  0  0  0
   44.3110   33.2750   38.8980 C   0  0  0  0  0  0  0  0  0  0  0  0
   43.8750   31.9990   39.1370 F   0  0  0  0  0  0  0  0  0  0  0  0
   45.6880   33.2950   38.6390 F   0  0  0  0  0  0  0  0  0  0  0  0
   43.6390   33.8350   37.8380 F   0  0  0  0  0  0  0  0  0  0  0  0
   43.9090   35.8150   45.4125 H   0  0  0  0  0  0  0  0  0  0  0  0
   46.9859   33.7838   43.1927 H   0  0  0  0  0  0  0  0  0  0  0  0
   47.8702   30.4833   49.4477 H   0  0  0  0  0  0  0  0  0  0  0  0
   45.3179   30.9410   50.1438 H   0  0  0  0  0  0  0  0  0  0  0  0
   44.2887   32.6102   48.2699 H   0  0  0  0  0  0  0  0  0  0  0  0
   42.4729   36.1978   41.9235 H   0  0  0  0  0  0  0  0  0  0  0  0
   42.0874   34.8234   39.6413 H   0  0  0  0  0  0  0  0  0  0  0  0
  1  6  2  0
  2  1  1  0
  3  2  2  0
  3  4  1  0
  4  5  2  0
  5  6  1  0
  5  7  1  0
  7  8  1  0
  7 11  1  0
  8  9  2  0
  9 10  1  0
 11 10  2  0
 12 13  2  0
 12  2  1  0
 14 12  1  0
 15 14  1  0
 16 15  2  0
 17 16  1  0
 17 18  1  0
 18 14  2  0
 19 20  1  0
 19 17  1  0
 21 19  1  0
 22 19  1  0
  1 23  1  0
  3 24  1  0
  9 25  1  0
 10 26  1  0
 11 27  1  0
 15 28  1  0
 16 29  1  0
M  ISO  7  23  14  24  14  25  14  26  14  27  14  28  14  29  14
M  END
>  <minimizedAffinity>  (1) 
-5.85400486

>  <minimizedRMSD>  (1) 
0.251627326

$$$$
