
     RDKit          3D

 29 31  0  0  0  0  0  0  0  0999 V2000
   44.6880   35.0910   45.2660 C   0  0  0  0  0  0  0  0  0  0  0  0
   45.3910   34.9250   44.0850 C   0  0  0  0  0  0  0  0  0  0  0  0
   46.3710   33.9660   44.0190 C   0  0  0  0  0  0  0  0  0  0  0  0
   46.6000   33.2170   45.1430 N   0  0  0  0  0  0  0  0  0  0  0  0
   45.9260   33.3740   46.2790 C   0  0  0  0  0  0  0  0  0  0  0  0
   44.9530   34.3260   46.3470 N   0  0  0  0  0  0  0  0  0  0  0  0
   46.2950   32.5130   47.3400 N   0  0  0  0  0  0  0  0  0  0  0  0
   47.3800   31.8600   47.6870 N   0  0  0  0  0  0  0  0  0  0  0  0
   47.1520   31.1760   48.8350 C   0  0  0  0  0  0  0  0  0  0  0  0
   45.8360   31.4280   49.2180 C   0  0  0  0  0  0  0  0  0  0  0  0
   45.3270   32.2840   48.2380 C   0  0  0  0  0  0  0  0  0  0  0  0
   45.0410   35.7840   42.9850 C   0  0  0  0  0  0  0  0  0  0  0  0
   45.2840   36.9860   43.0400 O   0  0  0  0  0  0  0  0  0  0  0  0
   44.3890   35.2280   41.7840 C   0  0  0  0  0  0  0  0  0  0  0  0
   43.1060   35.5220   41.4110 C   0  0  0  0  0  0  0  0  0  0  0  0
   42.8730   34.8100   40.2470 C   0  0  0  0  0  0  0  0  0  0  0  0
   44.0100   34.1550   40.0110 N   0  0  0  0  0  0  0  0  0  0  0  0
   44.9690   34.3580   40.8940 N   0  0  0  0  0  0  0  0  0  0  0  0
   44.1910   33.2750   38.8620 C   0  0  0  0  0  0  0  0  0  0  0  0
   43.9015   35.8578   45.3248 H   0  0  0  0  0  0  0  0  0  0  0  0
   46.9507   33.8050   43.0981 H   0  0  0  0  0  0  0  0  0  0  0  0
   47.8737   30.5387   49.3669 H   0  0  0  0  0  0  0  0  0  0  0  0
   45.3108   31.0370   50.1019 H   0  0  0  0  0  0  0  0  0  0  0  0
   44.3084   32.6981   48.2087 H   0  0  0  0  0  0  0  0  0  0  0  0
   42.4023   36.1889   41.9307 H   0  0  0  0  0  0  0  0  0  0  0  0
   41.9509   34.7892   39.6475 H   0  0  0  0  0  0  0  0  0  0  0  0
   44.4011   32.2535   39.2120 H   0  0  0  0  0  0  0  0  0  0  0  0
   43.2745   33.2729   38.2537 H   0  0  0  0  0  0  0  0  0  0  0  0
   45.0339   33.6348   38.2537 H   0  0  0  0  0  0  0  0  0  0  0  0
  1  6  2  0
  2  1  1  0
  3  2  2  0
  3  4  1  0
  4  5  2  0
  5  6  1  0
  5  7  1  0
  7  8  1  0
  7 11  1  0
  8  9  2  0
  9 10  1  0
 11 10  2  0
 12 13  2  0
 12  2  1  0
 14 12  1  0
 15 14  1  0
 16 15  2  0
 17 16  1  0
 17 18  1  0
 18 14  2  0
 19 17  1  0
  1 20  1  0
  3 21  1  0
  9 22  1  0
 10 23  1  0
 11 24  1  0
 15 25  1  0
 16 26  1  0
 19 27  1  0
 19 28  1  0
 19 29  1  0
M  ISO  8  20  14  21  14  22  14  23  14  24  14  25  14  26  14  27   8
M  ISO  2  28   8  29   8
M  END
>  <minimizedAffinity>  (1) 
-5.72742796

>  <minimizedRMSD>  (1) 
0.21433571

$$$$
