
     RDKit          3D

 48 52  0  0  1  0  0  0  0  0999 V2000
   43.7700   35.2780   41.9610 C   0  0  0  0  0  0  0  0  0  0  0  0
   42.4310   35.5100   42.0670 C   0  0  0  0  0  0  0  0  0  0  0  0
   41.8360   34.9010   40.9910 C   0  0  0  0  0  0  0  0  0  0  0  0
   42.8560   34.3460   40.3150 N   0  0  0  0  0  0  0  0  0  0  0  0
   44.0390   34.5400   40.8500 N   0  0  0  0  0  0  0  0  0  0  0  0
   43.7310   33.9800   38.0920 N   0  0  0  0  0  0  0  0  0  0  0  0
   44.9150   33.1590   38.2750 C   0  0  0  0  0  0  0  0  0  0  0  0
   44.4970   31.8950   38.9540 C   0  0  0  0  0  0  0  0  0  0  0  0
   43.0460   32.1130   39.3280 C   0  0  0  0  0  0  0  0  0  0  0  0
   42.7780   33.5620   39.0600 C   0  0  1  0  0  0  0  0  0  0  0  0
   41.4170   33.8380   38.5340 C   0  0  0  0  0  0  0  0  0  0  0  0
   41.0310   35.0160   37.9750 C   0  0  0  0  0  0  0  0  0  0  0  0
   39.7110   35.1000   37.5290 C   0  0  0  0  0  0  0  0  0  0  0  0
   38.8530   34.0240   37.6580 C   0  0  0  0  0  0  0  0  0  0  0  0
   39.2590   32.8350   38.2270 C   0  0  0  0  0  0  0  0  0  0  0  0
   40.5620   32.7380   38.6720 C   0  0  0  0  0  0  0  0  0  0  0  0
   44.7690   35.7660   42.9240 C   0  0  0  0  0  0  0  0  0  0  0  0
   45.2490   36.8950   42.7960 O   0  0  0  0  0  0  0  0  0  0  0  0
   44.5970   35.1540   45.2650 C   0  0  0  0  0  0  0  0  0  0  0  0
   45.1900   34.9250   44.0240 C   0  0  0  0  0  0  0  0  0  0  0  0
   46.1220   33.9330   43.9100 C   0  0  0  0  0  0  0  0  0  0  0  0
   46.4380   33.2030   45.0200 N   0  0  0  0  0  0  0  0  0  0  0  0
   45.8730   33.4200   46.2060 C   0  0  0  0  0  0  0  0  0  0  0  0
   44.9340   34.4130   46.3360 N   0  0  0  0  0  0  0  0  0  0  0  0
   46.2920   32.5910   47.2610 N   0  0  0  0  0  0  0  0  0  0  0  0
   47.4090   31.9330   47.5310 N   0  0  0  0  0  0  0  0  0  0  0  0
   47.2640   31.2690   48.7270 C   0  0  0  0  0  0  0  0  0  0  0  0
   45.9880   31.5510   49.1930 C   0  0  0  0  0  0  0  0  0  0  0  0
   45.4030   32.3920   48.2370 C   0  0  0  0  0  0  0  0  0  0  0  0
   41.9247   36.0766   42.8624 H   0  0  0  0  0  0  0  0  0  0  0  0
   40.7657   34.8734   40.7388 H   0  0  0  0  0  0  0  0  0  0  0  0
   43.9648   34.9732   38.2325 H   0  0  0  0  0  0  0  0  0  0  0  0
   45.3640   32.9275   37.2978 H   0  0  0  0  0  0  0  0  0  0  0  0
   45.6607   33.6921   38.8831 H   0  0  0  0  0  0  0  0  0  0  0  0
   44.5958   31.0383   38.2712 H   0  0  0  0  0  0  0  0  0  0  0  0
   45.1211   31.6714   39.8318 H   0  0  0  0  0  0  0  0  0  0  0  0
   42.3907   31.4802   38.7114 H   0  0  0  0  0  0  0  0  0  0  0  0
   42.8506   31.8488   40.3778 H   0  0  0  0  0  0  0  0  0  0  0  0
   41.7263   35.8629   37.8788 H   0  0  0  0  0  0  0  0  0  0  0  0
   39.3498   36.0322   37.0701 H   0  0  0  0  0  0  0  0  0  0  0  0
   37.8182   34.1186   37.2970 H   0  0  0  0  0  0  0  0  0  0  0  0
   38.5640   31.9879   38.3235 H   0  0  0  0  0  0  0  0  0  0  0  0
   40.9248   31.8062   39.1303 H   0  0  0  0  0  0  0  0  0  0  0  0
   43.8449   35.9498   45.3695 H   0  0  0  0  0  0  0  0  0  0  0  0
   46.6076   33.7266   42.9448 H   0  0  0  0  0  0  0  0  0  0  0  0
   48.0161   30.6354   49.2198 H   0  0  0  0  0  0  0  0  0  0  0  0
   45.5286   31.1880   50.1242 H   0  0  0  0  0  0  0  0  0  0  0  0
   44.3884   32.8145   48.2827 H   0  0  0  0  0  0  0  0  0  0  0  0
  1  2  1  0
  1 17  1  0
  3  2  2  0
  4  5  1  0
  4  3  1  0
  5  1  2  0
  6  7  1  0
  6 10  1  0
  7  8  1  0
  8  9  1  0
 10 11  1  0
 10  9  1  0
 10  4  1  1
 11 16  1  0
 12 11  2  0
 13 14  2  0
 13 12  1  0
 14 15  1  0
 15 16  2  0
 17 20  1  0
 18 17  2  0
 19 24  2  0
 20 19  1  0
 21 20  2  0
 21 22  1  0
 22 23  2  0
 23 24  1  0
 23 25  1  0
 25 26  1  0
 25 29  1  0
 26 27  2  0
 27 28  1  0
 29 28  2  0
  2 30  1  0
  3 31  1  0
  6 32  1  0
  7 33  1  0
  7 34  1  0
  8 35  1  0
  8 36  1  0
  9 37  1  0
  9 38  1  0
 12 39  1  0
 13 40  1  0
 14 41  1  0
 15 42  1  0
 16 43  1  0
 19 44  1  0
 21 45  1  0
 27 46  1  0
 28 47  1  0
 29 48  1  0
M  ISO  8  30  14  31  14  32   5  33  13  34  13  35  13  36  13  37  13
M  ISO  8  38  13  39  14  40  14  41  14  42  14  43  14  44  14  45  14
M  ISO  3  46  14  47  14  48  14
M  END
>  <minimizedAffinity>  (1) 
-7.38320875

>  <minimizedRMSD>  (1) 
1.34067321

$$$$
