
     RDKit          3D

 45 49  0  0  1  0  0  0  0  0999 V2000
   43.4960   35.2660   41.8370 C   0  0  0  0  0  0  0  0  0  0  0  0
   42.2050   35.0150   42.2030 C   0  0  0  0  0  0  0  0  0  0  0  0
   41.5480   34.5800   41.0570 C   0  0  0  0  0  0  0  0  0  0  0  0
   42.4960   34.6050   40.1060 N   0  0  0  0  0  0  0  0  0  0  0  0
   43.6760   35.0040   40.5050 N   0  0  0  0  0  0  0  0  0  0  0  0
   43.5110   34.4370   37.9230 N   0  0  0  0  0  0  0  0  0  0  0  0
   44.2640   33.2040   37.9410 C   0  0  0  0  0  0  0  0  0  0  0  0
   43.3060   32.0850   38.2240 C   0  0  0  0  0  0  0  0  0  0  0  0
   41.9980   32.7800   38.5680 C   0  0  0  0  0  0  0  0  0  0  0  0
   42.3160   34.2330   38.7030 C   0  0  1  0  0  0  0  0  0  0  0  0
   41.2860   35.1620   38.1330 C   0  0  0  0  0  0  0  0  0  0  0  0
   41.0530   36.5130   38.6730 C   0  0  0  0  0  0  0  0  0  0  0  0
   41.5890   36.3050   37.2700 C   0  0  0  0  0  0  0  0  0  0  0  0
   44.5390   35.7510   42.7620 C   0  0  0  0  0  0  0  0  0  0  0  0
   45.0230   36.8660   42.6050 O   0  0  0  0  0  0  0  0  0  0  0  0
   44.5540   35.2630   45.1310 C   0  0  0  0  0  0  0  0  0  0  0  0
   44.9860   34.9150   43.8510 C   0  0  0  0  0  0  0  0  0  0  0  0
   45.7950   33.8180   43.6900 C   0  0  0  0  0  0  0  0  0  0  0  0
   46.1390   33.1210   44.8070 N   0  0  0  0  0  0  0  0  0  0  0  0
   45.7340   33.4430   46.0320 C   0  0  0  0  0  0  0  0  0  0  0  0
   44.9280   34.5320   46.2060 N   0  0  0  0  0  0  0  0  0  0  0  0
   46.1760   32.6200   47.0850 N   0  0  0  0  0  0  0  0  0  0  0  0
   47.2440   31.8570   47.2690 N   0  0  0  0  0  0  0  0  0  0  0  0
   47.1610   31.2670   48.5060 C   0  0  0  0  0  0  0  0  0  0  0  0
   45.9970   31.6950   49.0860 C   0  0  0  0  0  0  0  0  0  0  0  0
   45.3870   32.5570   48.1580 C   0  0  0  0  0  0  0  0  0  0  0  0
   41.7702   35.1334   43.2064 H   0  0  0  0  0  0  0  0  0  0  0  0
   40.4938   34.2835   40.9533 H   0  0  0  0  0  0  0  0  0  0  0  0
   44.0723   35.1967   38.3336 H   0  0  0  0  0  0  0  0  0  0  0  0
   44.7461   33.0458   36.9650 H   0  0  0  0  0  0  0  0  0  0  0  0
   45.0470   33.2435   38.7126 H   0  0  0  0  0  0  0  0  0  0  0  0
   43.1844   31.4442   37.3382 H   0  0  0  0  0  0  0  0  0  0  0  0
   43.6568   31.4296   39.0348 H   0  0  0  0  0  0  0  0  0  0  0  0
   41.2619   32.6245   37.7655 H   0  0  0  0  0  0  0  0  0  0  0  0
   41.5648   32.3785   39.4960 H   0  0  0  0  0  0  0  0  0  0  0  0
   40.6704   34.2599   38.0016 H   0  0  0  0  0  0  0  0  0  0  0  0
   40.0270   36.8792   38.8252 H   0  0  0  0  0  0  0  0  0  0  0  0
   41.3783   37.0701   39.5640 H   0  0  0  0  0  0  0  0  0  0  0  0
   42.6334   36.5577   37.0349 H   0  0  0  0  0  0  0  0  0  0  0  0
   41.2876   36.6257   36.2619 H   0  0  0  0  0  0  0  0  0  0  0  0
   43.9035   36.1395   45.2673 H   0  0  0  0  0  0  0  0  0  0  0  0
   46.1520   33.5136   42.6951 H   0  0  0  0  0  0  0  0  0  0  0  0
   47.8945   30.5775   48.9493 H   0  0  0  0  0  0  0  0  0  0  0  0
   45.6152   31.4193   50.0801 H   0  0  0  0  0  0  0  0  0  0  0  0
   44.4311   33.0844   48.2928 H   0  0  0  0  0  0  0  0  0  0  0  0
  1  2  1  0
  1 14  1  0
  3  2  2  0
  4  5  1  0
  4  3  1  0
  5  1  2  0
  6  7  1  0
  6 10  1  0
  7  8  1  0
  8  9  1  0
  9 10  1  0
 10 11  1  0
 10  4  1  1
 11 12  1  0
 13 11  1  0
 13 12  1  0
 14 17  1  0
 15 14  2  0
 16 21  2  0
 17 16  1  0
 18 17  2  0
 18 19  1  0
 19 20  2  0
 20 21  1  0
 20 22  1  0
 22 23  1  0
 22 26  1  0
 23 24  2  0
 24 25  1  0
 26 25  2  0
  2 27  1  0
  3 28  1  0
  6 29  1  0
  7 30  1  0
  7 31  1  0
  8 32  1  0
  8 33  1  0
  9 34  1  0
  9 35  1  0
 11 36  1  0
 12 37  1  0
 12 38  1  0
 13 39  1  0
 13 40  1  0
 16 41  1  0
 18 42  1  0
 24 43  1  0
 25 44  1  0
 26 45  1  0
M  ISO  8  27  14  28  14  29   5  30  13  31  13  32  13  33  13  34  13
M  ISO  8  35  13  36  13  37  13  38  13  39  13  40  13  41  14  42  14
M  ISO  3  43  14  44  14  45  14
M  END
>  <minimizedAffinity>  (1) 
-6.26869631

>  <minimizedRMSD>  (1) 
1.42823148

$$$$
