
     RDKit          3D

 40 43  0  0  1  0  0  0  0  0999 V2000
   44.3370   35.1960   41.8370 C   0  0  0  0  0  0  0  0  0  0  0  0
   43.0070   35.3790   41.5790 C   0  0  0  0  0  0  0  0  0  0  0  0
   42.7460   34.7090   40.4020 C   0  0  0  0  0  0  0  0  0  0  0  0
   43.9240   34.1790   40.0430 N   0  0  0  0  0  0  0  0  0  0  0  0
   44.9170   34.4340   40.8610 N   0  0  0  0  0  0  0  0  0  0  0  0
   45.4900   33.6220   38.2840 N   0  0  0  0  0  0  0  0  0  0  0  0
   46.4420   32.6990   38.8890 C   0  0  0  0  0  0  0  0  0  0  0  0
   45.6570   31.5170   39.3810 C   0  0  0  0  0  0  0  0  0  0  0  0
   44.2130   31.8920   39.2150 C   0  0  0  0  0  0  0  0  0  0  0  0
   44.2110   33.3620   38.8560 C   0  0  1  0  0  0  0  0  0  0  0  0
   43.1110   33.5700   37.9310 N   0  0  0  0  0  0  0  0  0  0  0  0
   45.0290   35.7570   43.0190 C   0  0  0  0  0  0  0  0  0  0  0  0
   45.2860   36.9520   43.0570 O   0  0  0  0  0  0  0  0  0  0  0  0
   44.6810   35.0730   45.3120 C   0  0  0  0  0  0  0  0  0  0  0  0
   45.3950   34.8930   44.1160 C   0  0  0  0  0  0  0  0  0  0  0  0
   46.3610   33.9470   44.0530 C   0  0  0  0  0  0  0  0  0  0  0  0
   46.5980   33.2010   45.1760 N   0  0  0  0  0  0  0  0  0  0  0  0
   45.9330   33.3580   46.3160 C   0  0  0  0  0  0  0  0  0  0  0  0
   44.9510   34.3130   46.3960 N   0  0  0  0  0  0  0  0  0  0  0  0
   46.3040   32.5040   47.3780 N   0  0  0  0  0  0  0  0  0  0  0  0
   47.4010   31.8570   47.7180 N   0  0  0  0  0  0  0  0  0  0  0  0
   47.1860   31.1680   48.8670 C   0  0  0  0  0  0  0  0  0  0  0  0
   45.8890   31.4090   49.2460 C   0  0  0  0  0  0  0  0  0  0  0  0
   45.3470   32.2640   48.2800 C   0  0  0  0  0  0  0  0  0  0  0  0
   42.2886   35.9470   42.1883 H   0  0  0  0  0  0  0  0  0  0  0  0
   41.7841   34.6275   39.8746 H   0  0  0  0  0  0  0  0  0  0  0  0
   45.4556   33.4728   37.2654 H   0  0  0  0  0  0  0  0  0  0  0  0
   47.1820   32.3763   38.1419 H   0  0  0  0  0  0  0  0  0  0  0  0
   46.9845   33.1811   39.7156 H   0  0  0  0  0  0  0  0  0  0  0  0
   45.8927   30.6242   38.7833 H   0  0  0  0  0  0  0  0  0  0  0  0
   45.8968   31.2769   40.4274 H   0  0  0  0  0  0  0  0  0  0  0  0
   43.7529   31.2999   38.4102 H   0  0  0  0  0  0  0  0  0  0  0  0
   43.6347   31.6965   40.1301 H   0  0  0  0  0  0  0  0  0  0  0  0
   42.2432   33.7341   38.4609 H   0  0  0  0  0  0  0  0  0  0  0  0
   43.3111   34.3881   37.3380 H   0  0  0  0  0  0  0  0  0  0  0  0
   43.8945   35.8400   45.3667 H   0  0  0  0  0  0  0  0  0  0  0  0
   46.9365   33.7831   43.1300 H   0  0  0  0  0  0  0  0  0  0  0  0
   47.9143   30.5352   49.3954 H   0  0  0  0  0  0  0  0  0  0  0  0
   45.3769   31.0091   50.1336 H   0  0  0  0  0  0  0  0  0  0  0  0
   44.3227   32.6646   48.2655 H   0  0  0  0  0  0  0  0  0  0  0  0
  1 12  1  0
  2  1  1  0
  3  2  2  0
  4  3  1  0
  4  5  1  0
  5  1  2  0
  6 10  1  0
  6  7  1  0
  7  8  1  0
  9  8  1  0
 10 11  1  6
 10  9  1  0
 10  4  1  0
 12 13  2  0
 12 15  1  0
 14 19  2  0
 15 14  1  0
 16 15  2  0
 16 17  1  0
 17 18  2  0
 18 19  1  0
 18 20  1  0
 20 21  1  0
 20 24  1  0
 21 22  2  0
 22 23  1  0
 24 23  2  0
  2 25  1  0
  3 26  1  0
  6 27  1  0
  7 28  1  0
  7 29  1  0
  8 30  1  0
  8 31  1  0
  9 32  1  0
  9 33  1  0
 11 34  1  0
 11 35  1  0
 14 36  1  0
 16 37  1  0
 22 38  1  0
 23 39  1  0
 24 40  1  0
M  ISO  8  25  14  26  14  27   5  28  13  29  13  30  13  31  13  32  13
M  ISO  8  33  13  34   5  35   5  36  14  37  14  38  14  39  14  40  14
M  END
>  <minimizedAffinity>  (1) 
-6.36893559

>  <minimizedRMSD>  (1) 
0.0221467055

$$$$
