
     RDKit          3D

 20 21  0  0  0  0  0  0  0  0999 V2000
   46.4190   34.4530   43.3410 C   0  0  0  0  0  0  0  0  0  0  0  0
   47.5570   33.9710   42.7020 C   0  0  0  0  0  0  0  0  0  0  0  0
   48.1930   32.8200   43.1960 C   0  0  0  0  0  0  0  0  0  0  0  0
   47.6570   32.2250   44.2890 N   0  0  0  0  0  0  0  0  0  0  0  0
   46.5450   32.7090   44.9020 C   0  0  0  0  0  0  0  0  0  0  0  0
   45.9390   33.8090   44.4290 N   0  0  0  0  0  0  0  0  0  0  0  0
   48.0280   34.7220   41.5260 C   0  0  0  0  0  0  0  0  0  0  0  0
   49.1670   34.1110   40.9860 F   0  0  0  0  0  0  0  0  0  0  0  0
   48.3900   36.0240   41.8140 F   0  0  0  0  0  0  0  0  0  0  0  0
   47.1150   34.7470   40.4990 F   0  0  0  0  0  0  0  0  0  0  0  0
   45.6600   35.6490   42.9250 C   0  0  0  0  0  0  0  0  0  0  0  0
   44.7770   36.2320   44.0240 C   0  0  0  0  0  0  0  0  0  0  0  0
   44.1940   35.5730   42.8140 C   0  0  0  0  0  0  0  0  0  0  0  0
   49.0946   32.4159   42.7124 H   0  0  0  0  0  0  0  0  0  0  0  0
   46.1406   32.1979   45.7881 H   0  0  0  0  0  0  0  0  0  0  0  0
   46.4441   36.0036   42.2398 H   0  0  0  0  0  0  0  0  0  0  0  0
   44.7169   35.7406   45.0063 H   0  0  0  0  0  0  0  0  0  0  0  0
   44.6733   37.2110   44.5147 H   0  0  0  0  0  0  0  0  0  0  0  0
   43.6724   36.1813   42.0604 H   0  0  0  0  0  0  0  0  0  0  0  0
   43.4784   34.7524   42.6577 H   0  0  0  0  0  0  0  0  0  0  0  0
  1  6  2  0
  2  3  2  0
  2  1  1  0
  3  4  1  0
  4  5  2  0
  6  5  1  0
  7  9  1  0
  7  2  1  0
  8  7  1  0
 10  7  1  0
 11  1  1  0
 11 12  1  0
 13 11  1  0
 13 12  1  0
  3 14  1  0
  5 15  1  0
 11 16  1  0
 12 17  1  0
 12 18  1  0
 13 19  1  0
 13 20  1  0
M  ISO  7  14  14  15  14  16  13  17  13  18  13  19  13  20  13
M  END
>  <minimizedAffinity>  (1) 
-4.05995274

>  <minimizedRMSD>  (1) 
2.40206575

$$$$
