
     RDKit          3D

 16 16  0  0  0  0  0  0  0  0999 V2000
   45.6870   34.6610   43.9190 C   0  0  0  0  0  0  0  0  0  0  0  0
   46.7750   34.0990   43.2740 C   0  0  0  0  0  0  0  0  0  0  0  0
   47.4960   33.0510   43.8840 C   0  0  0  0  0  0  0  0  0  0  0  0
   47.0840   32.6350   45.1030 N   0  0  0  0  0  0  0  0  0  0  0  0
   46.0330   33.1840   45.7190 C   0  0  0  0  0  0  0  0  0  0  0  0
   45.3500   34.1740   45.1410 N   0  0  0  0  0  0  0  0  0  0  0  0
   47.1290   34.6540   41.9500 C   0  0  0  0  0  0  0  0  0  0  0  0
   48.0330   33.7950   41.2990 F   0  0  0  0  0  0  0  0  0  0  0  0
   47.7100   35.8770   41.9980 F   0  0  0  0  0  0  0  0  0  0  0  0
   46.0630   34.7080   41.0860 F   0  0  0  0  0  0  0  0  0  0  0  0
   44.8110   35.7660   43.5250 C   0  0  0  0  0  0  0  0  0  0  0  0
   43.9470   35.4570   42.4860 F   0  0  0  0  0  0  0  0  0  0  0  0
   45.4700   36.9010   43.1050 F   0  0  0  0  0  0  0  0  0  0  0  0
   44.0440   36.2140   44.6160 F   0  0  0  0  0  0  0  0  0  0  0  0
   48.3615   32.5892   43.3864 H   0  0  0  0  0  0  0  0  0  0  0  0
   45.7284   32.8170   46.7102 H   0  0  0  0  0  0  0  0  0  0  0  0
  1  6  2  0
  2  3  2  0
  2  1  1  0
  3  4  1  0
  4  5  2  0
  6  5  1  0
  7  9  1  0
  7  2  1  0
  8  7  1  0
 10  7  1  0
 11  1  1  0
 11 14  1  0
 12 11  1  0
 13 11  1  0
  3 15  1  0
  5 16  1  0
M  ISO  2  15  14  16  14
M  END
>  <minimizedAffinity>  (1) 
-4.50378704

>  <minimizedRMSD>  (1) 
1.80071151

$$$$
