
     RDKit          3D

 16 16  0  0  0  0  0  0  0  0999 V2000
   45.3980   34.6280   44.8120 C   0  0  0  0  0  0  0  0  0  0  0  0
   46.2150   34.4210   43.7090 C   0  0  0  0  0  0  0  0  0  0  0  0
   47.1500   33.3770   43.7620 C   0  0  0  0  0  0  0  0  0  0  0  0
   47.2050   32.6310   44.8850 N   0  0  0  0  0  0  0  0  0  0  0  0
   46.3990   32.8550   45.9420 C   0  0  0  0  0  0  0  0  0  0  0  0
   45.5010   33.8510   45.9000 N   0  0  0  0  0  0  0  0  0  0  0  0
   46.0460   35.3240   42.5570 C   0  0  0  0  0  0  0  0  0  0  0  0
   47.1850   35.2710   41.7470 F   0  0  0  0  0  0  0  0  0  0  0  0
   45.8720   36.6480   42.9240 F   0  0  0  0  0  0  0  0  0  0  0  0
   45.0180   34.9520   41.7280 F   0  0  0  0  0  0  0  0  0  0  0  0
   44.3810   35.7180   44.8220 C   0  0  0  0  0  0  0  0  0  0  0  0
   47.8188   33.1723   42.9130 H   0  0  0  0  0  0  0  0  0  0  0  0
   46.4774   32.2219   46.8381 H   0  0  0  0  0  0  0  0  0  0  0  0
   44.1356   35.9810   45.8615 H   0  0  0  0  0  0  0  0  0  0  0  0
   44.7852   36.6013   44.3059 H   0  0  0  0  0  0  0  0  0  0  0  0
   43.4718   35.3759   44.3059 H   0  0  0  0  0  0  0  0  0  0  0  0
  1 11  1  0
  1  6  2  0
  2  3  2  0
  2  1  1  0
  3  4  1  0
  4  5  2  0
  6  5  1  0
  7  9  1  0
  7  2  1  0
  8  7  1  0
 10  7  1  0
  3 12  1  0
  5 13  1  0
 11 14  1  0
 11 15  1  0
 11 16  1  0
M  ISO  5  12  14  13  14  14   8  15   8  16   8
M  END
>  <minimizedAffinity>  (1) 
-3.85752916

>  <minimizedRMSD>  (1) 
0.577230453

$$$$
