
     RDKit          3D

 26 27  0  0  0  0  0  0  0  0999 V2000
   47.8830   33.2070   42.8260 C   0  0  0  0  0  0  0  0  0  0  0  0
   48.9980   32.3850   42.7240 C   0  0  0  0  0  0  0  0  0  0  0  0
   48.9910   31.1400   43.3760 C   0  0  0  0  0  0  0  0  0  0  0  0
   47.8930   30.7950   44.0780 N   0  0  0  0  0  0  0  0  0  0  0  0
   46.8270   31.5980   44.1680 C   0  0  0  0  0  0  0  0  0  0  0  0
   46.8200   32.7860   43.5520 N   0  0  0  0  0  0  0  0  0  0  0  0
   47.6530   34.5510   42.2400 C   0  0  0  0  0  0  0  0  0  0  0  0
   46.3790   35.1910   42.6730 C   0  0  0  0  0  0  0  0  0  0  0  0
   45.3280   34.4380   41.8520 C   0  0  0  0  0  0  0  0  0  0  0  0
   45.9900   34.1770   40.5420 C   0  0  0  0  0  0  0  0  0  0  0  0
   47.4560   34.4610   40.7220 C   0  0  0  0  0  0  0  0  0  0  0  0
   50.1290   32.9010   41.9270 C   0  0  0  0  0  0  0  0  0  0  0  0
   51.2760   32.1310   42.1910 F   0  0  0  0  0  0  0  0  0  0  0  0
   50.4560   34.1930   42.2020 F   0  0  0  0  0  0  0  0  0  0  0  0
   49.9410   32.7490   40.5710 F   0  0  0  0  0  0  0  0  0  0  0  0
   49.8578   30.4655   43.3152 H   0  0  0  0  0  0  0  0  0  0  0  0
   45.9508   31.2799   44.7519 H   0  0  0  0  0  0  0  0  0  0  0  0
   48.5361   35.1210   42.5646 H   0  0  0  0  0  0  0  0  0  0  0  0
   46.2127   35.0538   43.7517 H   0  0  0  0  0  0  0  0  0  0  0  0
   46.3606   36.2791   42.5128 H   0  0  0  0  0  0  0  0  0  0  0  0
   45.0549   33.4929   42.3441 H   0  0  0  0  0  0  0  0  0  0  0  0
   44.3959   35.0115   41.7413 H   0  0  0  0  0  0  0  0  0  0  0  0
   45.5700   34.8374   39.7690 H   0  0  0  0  0  0  0  0  0  0  0  0
   45.8294   33.1366   40.2230 H   0  0  0  0  0  0  0  0  0  0  0  0
   48.0633   33.6468   40.2999 H   0  0  0  0  0  0  0  0  0  0  0  0
   47.7672   35.3819   40.2072 H   0  0  0  0  0  0  0  0  0  0  0  0
  1  6  1  0
  2  1  2  0
  2  3  1  0
  3  4  2  0
  4  5  1  0
  6  5  2  0
  7  8  1  0
  7  1  1  0
  9  8  1  0
 10 11  1  0
 10  9  1  0
 11  7  1  0
 12 13  1  0
 12 14  1  0
 12  2  1  0
 15 12  1  0
  3 16  1  0
  5 17  1  0
  7 18  1  0
  8 19  1  0
  8 20  1  0
  9 21  1  0
  9 22  1  0
 10 23  1  0
 10 24  1  0
 11 25  1  0
 11 26  1  0
M  ISO  8  16  14  17  14  18  13  19  13  20  13  21  13  22  13  23  13
M  ISO  3  24  13  25  13  26  13
M  END
>  <minimizedAffinity>  (1) 
-3.62113786

>  <minimizedRMSD>  (1) 
4.47534847

$$$$
