
     RDKit          3D

 36 38  0  0  1  0  0  0  0  0999 V2000
   47.3210   32.6150   44.6540 N   0  0  0  0  0  0  0  0  0  0  0  0
   46.9420   32.5870   46.0690 C   0  0  0  0  0  0  0  0  0  0  0  0
   45.8340   31.5900   46.0390 C   0  0  0  0  0  0  0  0  0  0  0  0
   46.3060   30.5770   45.0290 C   0  0  0  0  0  0  0  0  0  0  0  0
   47.5510   31.1990   44.4780 C   0  0  1  0  0  0  0  0  0  0  0  0
   48.0700   30.7210   43.2760 N   0  0  0  0  0  0  0  0  0  0  0  0
   49.3630   30.3030   43.3090 C   0  0  0  0  0  0  0  0  0  0  0  0
   50.0430   29.7990   42.2220 C   0  0  0  0  0  0  0  0  0  0  0  0
   49.4380   29.6770   40.9860 C   0  0  0  0  0  0  0  0  0  0  0  0
   50.0560   29.1710   39.8140 N   0  0  0  0  0  0  0  0  0  0  0  0
   48.1390   30.0960   40.9510 N   0  0  0  0  0  0  0  0  0  0  0  0
   47.5380   30.5780   42.0520 C   0  0  0  0  0  0  0  0  0  0  0  0
   46.3510   30.9120   41.8430 O   0  0  0  0  0  0  0  0  0  0  0  0
   47.4500   33.6230   43.6700 C   0  0  0  0  0  0  0  0  0  0  0  0
   46.3930   34.3610   43.1290 C   0  0  0  0  0  0  0  0  0  0  0  0
   46.6690   35.3010   42.1470 C   0  0  0  0  0  0  0  0  0  0  0  0
   47.9680   35.4470   41.7720 N   0  0  0  0  0  0  0  0  0  0  0  0
   48.9640   34.7300   42.3060 C   0  0  0  0  0  0  0  0  0  0  0  0
   48.7040   33.8140   43.2590 N   0  0  0  0  0  0  0  0  0  0  0  0
   45.0380   34.0760   43.6750 C   0  0  0  0  0  0  0  0  0  0  0  0
   44.0850   34.8180   42.9630 F   0  0  0  0  0  0  0  0  0  0  0  0
   44.8860   34.4400   44.9780 F   0  0  0  0  0  0  0  0  0  0  0  0
   44.6490   32.7980   43.4860 F   0  0  0  0  0  0  0  0  0  0  0  0
   47.7738   32.2495   46.7047 H   0  0  0  0  0  0  0  0  0  0  0  0
   46.6640   33.5660   46.4865 H   0  0  0  0  0  0  0  0  0  0  0  0
   45.6945   31.1262   47.0266 H   0  0  0  0  0  0  0  0  0  0  0  0
   44.8618   32.0348   45.7802 H   0  0  0  0  0  0  0  0  0  0  0  0
   46.5264   29.6129   45.5105 H   0  0  0  0  0  0  0  0  0  0  0  0
   45.5553   30.3560   44.2560 H   0  0  0  0  0  0  0  0  0  0  0  0
   48.4520   30.8768   45.0206 H   0  0  0  0  0  0  0  0  0  0  0  0
   49.9014   30.3716   44.2658 H   0  0  0  0  0  0  0  0  0  0  0  0
   51.0910   29.4868   42.3409 H   0  0  0  0  0  0  0  0  0  0  0  0
   49.5242   29.1171   38.9336 H   0  0  0  0  0  0  0  0  0  0  0  0
   51.0367   28.8574   39.8433 H   0  0  0  0  0  0  0  0  0  0  0  0
   45.8700   35.9036   41.6904 H   0  0  0  0  0  0  0  0  0  0  0  0
   49.9979   34.8891   41.9658 H   0  0  0  0  0  0  0  0  0  0  0  0
  1  2  1  0
  3  2  1  0
  4  3  1  0
  5  1  1  0
  5  4  1  0
  6  7  1  0
  6  5  1  0
  8  7  2  0
  9  8  1  0
 10  9  1  0
 11  9  2  0
 11 12  1  0
 12  6  1  0
 13 12  2  0
 14  1  1  0
 15 14  2  0
 15 20  1  0
 16 15  1  0
 17 16  2  0
 17 18  1  0
 18 19  2  0
 19 14  1  0
 20 22  1  0
 21 20  1  0
 23 20  1  0
  2 24  1  0
  2 25  1  0
  3 26  1  0
  3 27  1  0
  4 28  1  0
  4 29  1  0
  5 30  1  1
  7 31  1  0
  8 32  1  0
 10 33  1  0
 10 34  1  0
 16 35  1  0
 18 36  1  0
M  ISO  8  24  13  25  13  26  13  27  13  28  13  29  13  30  13  31  14
M  ISO  3  32  14  35  14  36  14
M  END
>  <minimizedAffinity>  (1) 
-3.99106073

>  <minimizedRMSD>  (1) 
1.35509753

$$$$
