
     RDKit          3D

 38 40  0  0  1  0  0  0  0  0999 V2000
   47.2330   32.4320   44.6380 N   0  0  0  0  0  0  0  0  0  0  0  0
   47.1720   32.3520   46.0760 C   0  0  0  0  0  0  0  0  0  0  0  0
   45.8530   31.6640   46.2520 C   0  0  0  0  0  0  0  0  0  0  0  0
   45.8270   30.6780   45.1430 C   0  0  0  0  0  0  0  0  0  0  0  0
   47.0330   31.0340   44.2590 C   0  0  2  0  0  0  0  0  0  0  0  0
   47.4080   33.4690   43.6730 C   0  0  0  0  0  0  0  0  0  0  0  0
   46.3950   34.3340   43.2190 C   0  0  0  0  0  0  0  0  0  0  0  0
   46.7100   35.2990   42.2700 C   0  0  0  0  0  0  0  0  0  0  0  0
   47.9850   35.3540   41.8320 N   0  0  0  0  0  0  0  0  0  0  0  0
   48.9310   34.5270   42.2730 C   0  0  0  0  0  0  0  0  0  0  0  0
   48.6440   33.5910   43.1880 N   0  0  0  0  0  0  0  0  0  0  0  0
   45.0450   34.1320   43.8120 C   0  0  0  0  0  0  0  0  0  0  0  0
   44.1440   35.0360   43.2270 F   0  0  0  0  0  0  0  0  0  0  0  0
   44.9980   34.3900   45.1440 F   0  0  0  0  0  0  0  0  0  0  0  0
   44.5110   32.9240   43.5240 F   0  0  0  0  0  0  0  0  0  0  0  0
   50.4980   28.5650   44.9740 C   0  0  0  0  0  0  0  0  0  0  0  0
   49.4140   28.4750   45.8230 C   0  0  0  0  0  0  0  0  0  0  0  0
   48.3230   29.2730   45.5530 C   0  0  0  0  0  0  0  0  0  0  0  0
   48.1760   30.1560   44.5360 C   0  0  0  0  0  0  0  0  0  0  0  0
   49.2800   30.2200   43.7080 C   0  0  0  0  0  0  0  0  0  0  0  0
   50.4150   29.4580   43.9000 C   0  0  0  0  0  0  0  0  0  0  0  0
   51.9010   27.5680   45.2840 S   0  0  0  0  0  0  0  0  0  0  0  0
   53.1200   28.0780   44.5620 O   0  0  0  0  0  0  0  0  0  0  0  0
   52.1110   27.4600   46.7680 O   0  0  0  0  0  0  0  0  0  0  0  0
   48.0000   31.7548   46.4856 H   0  0  0  0  0  0  0  0  0  0  0  0
   47.2592   33.3183   46.5943 H   0  0  0  0  0  0  0  0  0  0  0  0
   45.7996   31.1596   47.2281 H   0  0  0  0  0  0  0  0  0  0  0  0
   45.0004   32.3587   46.2283 H   0  0  0  0  0  0  0  0  0  0  0  0
   45.9243   29.6546   45.5344 H   0  0  0  0  0  0  0  0  0  0  0  0
   44.8813   30.7145   44.5824 H   0  0  0  0  0  0  0  0  0  0  0  0
   46.8944   30.9003   43.1760 H   0  0  0  0  0  0  0  0  0  0  0  0
   45.9467   35.9936   41.8893 H   0  0  0  0  0  0  0  0  0  0  0  0
   49.9560   34.6129   41.8831 H   0  0  0  0  0  0  0  0  0  0  0  0
   49.4203   27.7909   46.6844 H   0  0  0  0  0  0  0  0  0  0  0  0
   47.4721   29.1823   46.2442 H   0  0  0  0  0  0  0  0  0  0  0  0
   49.2533   30.9123   42.8536 H   0  0  0  0  0  0  0  0  0  0  0  0
   51.2608   29.5536   43.2032 H   0  0  0  0  0  0  0  0  0  0  0  0
   51.6800   26.3106   44.7870 H   0  0  0  0  0  0  0  0  0  0  0  0
  1  2  1  0
  2  3  1  0
  4  3  1  0
  5 19  1  0
  5  1  1  0
  5  4  1  0
  6  1  1  0
  7  6  2  0
  7 12  1  0
  8  7  1  0
  9  8  2  0
  9 10  1  0
 10 11  2  0
 11  6  1  0
 12 14  1  0
 13 12  1  0
 15 12  1  0
 16 22  1  0
 16 17  2  0
 18 17  1  0
 19 18  2  0
 20 21  2  0
 20 19  1  0
 21 16  1  0
 22 24  2  0
 23 22  2  0
  2 25  1  0
  2 26  1  0
  3 27  1  0
  3 28  1  0
  4 29  1  0
  4 30  1  0
  5 31  1  6
  8 32  1  0
 10 33  1  0
 17 34  1  0
 18 35  1  0
 20 36  1  0
 21 37  1  0
 22 38  1  0
M  ISO  8  25  13  26  13  27  13  28  13  29  13  30  13  31  13  32  14
M  ISO  6  33  14  34  14  35  14  36  14  37  14  38  11
M  END
>  <minimizedAffinity>  (1) 
-4.01458693

>  <minimizedRMSD>  (1) 
0.602129877

$$$$
