
     RDKit          3D

 31 33  0  0  1  0  0  0  0  0999 V2000
   47.2310   32.4230   44.6640 N   0  0  0  0  0  0  0  0  0  0  0  0
   47.1720   32.3430   46.1100 C   0  0  0  0  0  0  0  0  0  0  0  0
   45.8410   31.6780   46.2890 C   0  0  0  0  0  0  0  0  0  0  0  0
   45.8130   30.6800   45.1900 C   0  0  0  0  0  0  0  0  0  0  0  0
   46.9990   31.0160   44.3060 C   0  0  2  0  0  0  0  0  0  0  0  0
   47.4220   33.4450   43.6860 C   0  0  0  0  0  0  0  0  0  0  0  0
   46.4160   34.3070   43.2260 C   0  0  0  0  0  0  0  0  0  0  0  0
   46.7470   35.2530   42.2600 C   0  0  0  0  0  0  0  0  0  0  0  0
   48.0180   35.2880   41.8230 N   0  0  0  0  0  0  0  0  0  0  0  0
   48.9610   34.4550   42.2780 C   0  0  0  0  0  0  0  0  0  0  0  0
   48.6690   33.5260   43.2150 N   0  0  0  0  0  0  0  0  0  0  0  0
   45.0640   34.1380   43.8270 C   0  0  0  0  0  0  0  0  0  0  0  0
   44.1770   35.0500   43.2380 F   0  0  0  0  0  0  0  0  0  0  0  0
   45.0250   34.4110   45.1610 F   0  0  0  0  0  0  0  0  0  0  0  0
   44.5110   32.9350   43.5590 F   0  0  0  0  0  0  0  0  0  0  0  0
   48.1520   30.2120   44.5200 N   0  0  0  0  0  0  0  0  0  0  0  0
   48.3890   29.2790   45.4810 C   0  0  0  0  0  0  0  0  0  0  0  0
   49.6180   28.7730   45.2920 N   0  0  0  0  0  0  0  0  0  0  0  0
   50.1580   29.3800   44.2200 C   0  0  0  0  0  0  0  0  0  0  0  0
   49.2270   30.2580   43.7740 N   0  0  0  0  0  0  0  0  0  0  0  0
   47.9904   31.7311   46.5172 H   0  0  0  0  0  0  0  0  0  0  0  0
   47.2776   33.3074   46.6285 H   0  0  0  0  0  0  0  0  0  0  0  0
   45.7740   31.1864   47.2707 H   0  0  0  0  0  0  0  0  0  0  0  0
   44.9972   32.3829   46.2547 H   0  0  0  0  0  0  0  0  0  0  0  0
   45.9108   29.6613   45.5934 H   0  0  0  0  0  0  0  0  0  0  0  0
   44.8657   30.7145   44.6319 H   0  0  0  0  0  0  0  0  0  0  0  0
   46.7953   30.8306   43.2410 H   0  0  0  0  0  0  0  0  0  0  0  0
   45.9924   35.9500   41.8665 H   0  0  0  0  0  0  0  0  0  0  0  0
   49.9858   34.5272   41.8848 H   0  0  0  0  0  0  0  0  0  0  0  0
   47.6906   28.9878   46.2794 H   0  0  0  0  0  0  0  0  0  0  0  0
   51.1550   29.1999   43.7915 H   0  0  0  0  0  0  0  0  0  0  0  0
  1  2  1  0
  2  3  1  0
  4  3  1  0
  5 16  1  0
  5  1  1  0
  5  4  1  0
  6  1  1  0
  7  6  2  0
  7 12  1  0
  8  7  1  0
  9  8  2  0
  9 10  1  0
 10 11  2  0
 11  6  1  0
 12 14  1  0
 13 12  1  0
 15 12  1  0
 16 17  1  0
 18 17  2  0
 19 18  1  0
 20 19  2  0
 20 16  1  0
  2 21  1  0
  2 22  1  0
  3 23  1  0
  3 24  1  0
  4 25  1  0
  4 26  1  0
  5 27  1  6
  8 28  1  0
 10 29  1  0
 17 30  1  0
 19 31  1  0
M  ISO  8  21  13  22  13  23  13  24  13  25  13  26  13  27  13  28  14
M  ISO  3  29  14  30  14  31  14
M  END
>  <minimizedAffinity>  (1) 
-3.86333728

>  <minimizedRMSD>  (1) 
0.290985286

$$$$
