
     RDKit          3D

 32 34  0  0  1  0  0  0  0  0999 V2000
   47.2360   32.4400   44.6560 N   0  0  0  0  0  0  0  0  0  0  0  0
   47.1670   32.3530   46.1000 C   0  0  0  0  0  0  0  0  0  0  0  0
   45.8500   31.6680   46.2690 C   0  0  0  0  0  0  0  0  0  0  0  0
   45.8400   30.6720   45.1630 C   0  0  0  0  0  0  0  0  0  0  0  0
   47.0340   31.0290   44.2910 C   0  0  2  0  0  0  0  0  0  0  0  0
   47.4160   33.4660   43.6810 C   0  0  0  0  0  0  0  0  0  0  0  0
   46.4010   34.3240   43.2260 C   0  0  0  0  0  0  0  0  0  0  0  0
   46.7310   35.2770   42.2630 C   0  0  0  0  0  0  0  0  0  0  0  0
   47.9960   35.3230   41.8250 N   0  0  0  0  0  0  0  0  0  0  0  0
   48.9510   34.4900   42.2770 C   0  0  0  0  0  0  0  0  0  0  0  0
   48.6650   33.5520   43.2120 N   0  0  0  0  0  0  0  0  0  0  0  0
   45.0550   34.1340   43.8250 C   0  0  0  0  0  0  0  0  0  0  0  0
   44.1600   35.0400   43.2340 F   0  0  0  0  0  0  0  0  0  0  0  0
   45.0100   34.4030   45.1600 F   0  0  0  0  0  0  0  0  0  0  0  0
   44.5160   32.9280   43.5460 F   0  0  0  0  0  0  0  0  0  0  0  0
   48.2000   30.2460   44.5300 N   0  0  0  0  0  0  0  0  0  0  0  0
   49.2400   30.1910   43.6760 C   0  0  0  0  0  0  0  0  0  0  0  0
   50.1960   29.3490   44.2030 C   0  0  0  0  0  0  0  0  0  0  0  0
   49.7550   28.8770   45.3860 N   0  0  0  0  0  0  0  0  0  0  0  0
   48.5400   29.4400   45.5550 C   0  0  0  0  0  0  0  0  0  0  0  0
   47.9925   31.7530   46.5106 H   0  0  0  0  0  0  0  0  0  0  0  0
   47.2522   33.3176   46.6219 H   0  0  0  0  0  0  0  0  0  0  0  0
   45.7869   31.1707   47.2482 H   0  0  0  0  0  0  0  0  0  0  0  0
   44.9960   32.3604   46.2335 H   0  0  0  0  0  0  0  0  0  0  0  0
   45.9453   29.6523   45.5618 H   0  0  0  0  0  0  0  0  0  0  0  0
   44.8969   30.6966   44.5973 H   0  0  0  0  0  0  0  0  0  0  0  0
   46.8497   30.8404   43.2231 H   0  0  0  0  0  0  0  0  0  0  0  0
   45.9728   35.9723   41.8735 H   0  0  0  0  0  0  0  0  0  0  0  0
   49.9749   34.5713   41.8833 H   0  0  0  0  0  0  0  0  0  0  0  0
   49.3142   30.7278   42.7187 H   0  0  0  0  0  0  0  0  0  0  0  0
   51.1605   29.1028   43.7348 H   0  0  0  0  0  0  0  0  0  0  0  0
   47.8993   29.2610   46.4310 H   0  0  0  0  0  0  0  0  0  0  0  0
  1  2  1  0
  2  3  1  0
  4  3  1  0
  5 16  1  0
  5  1  1  0
  5  4  1  0
  6  1  1  0
  7  6  2  0
  7 12  1  0
  8  7  1  0
  9  8  2  0
  9 10  1  0
 10 11  2  0
 11  6  1  0
 12 14  1  0
 13 12  1  0
 15 12  1  0
 16 20  1  0
 17 18  2  0
 17 16  1  0
 18 19  1  0
 19 20  2  0
  2 21  1  0
  2 22  1  0
  3 23  1  0
  3 24  1  0
  4 25  1  0
  4 26  1  0
  5 27  1  6
  8 28  1  0
 10 29  1  0
 17 30  1  0
 18 31  1  0
 20 32  1  0
M  ISO  8  21  13  22  13  23  13  24  13  25  13  26  13  27  13  28  14
M  ISO  4  29  14  30  14  31  14  32  14
M  END
>  <minimizedAffinity>  (1) 
-3.90781307

>  <minimizedRMSD>  (1) 
0.711263657

$$$$
