
     RDKit          3D

 32 34  0  0  1  0  0  0  0  0999 V2000
   47.2350   32.4280   44.6610 N   0  0  0  0  0  0  0  0  0  0  0  0
   47.1680   32.3550   46.1070 C   0  0  0  0  0  0  0  0  0  0  0  0
   45.8420   31.6680   46.2730 C   0  0  0  0  0  0  0  0  0  0  0  0
   45.8350   30.6680   45.1790 C   0  0  0  0  0  0  0  0  0  0  0  0
   47.0270   31.0200   44.3070 C   0  0  2  0  0  0  0  0  0  0  0  0
   47.4190   33.4520   43.6880 C   0  0  0  0  0  0  0  0  0  0  0  0
   46.4120   34.3080   43.2230 C   0  0  0  0  0  0  0  0  0  0  0  0
   46.7430   35.2590   42.2600 C   0  0  0  0  0  0  0  0  0  0  0  0
   48.0190   35.3000   41.8290 N   0  0  0  0  0  0  0  0  0  0  0  0
   48.9610   34.4730   42.2880 C   0  0  0  0  0  0  0  0  0  0  0  0
   48.6750   33.5340   43.2270 N   0  0  0  0  0  0  0  0  0  0  0  0
   45.0610   34.1280   43.8190 C   0  0  0  0  0  0  0  0  0  0  0  0
   44.1700   35.0380   43.2300 F   0  0  0  0  0  0  0  0  0  0  0  0
   45.0130   34.3990   45.1530 F   0  0  0  0  0  0  0  0  0  0  0  0
   44.5150   32.9220   43.5460 F   0  0  0  0  0  0  0  0  0  0  0  0
   48.1940   30.2350   44.5610 N   0  0  0  0  0  0  0  0  0  0  0  0
   49.1720   30.2780   43.6640 N   0  0  0  0  0  0  0  0  0  0  0  0
   50.1740   29.4940   44.0590 C   0  0  0  0  0  0  0  0  0  0  0  0
   49.8370   28.9200   45.2550 C   0  0  0  0  0  0  0  0  0  0  0  0
   48.5740   29.4200   45.5330 C   0  0  0  0  0  0  0  0  0  0  0  0
   47.9922   31.7577   46.5241 H   0  0  0  0  0  0  0  0  0  0  0  0
   47.2566   33.3218   46.6241 H   0  0  0  0  0  0  0  0  0  0  0  0
   45.7728   31.1776   47.2552 H   0  0  0  0  0  0  0  0  0  0  0  0
   44.9897   32.3618   46.2266 H   0  0  0  0  0  0  0  0  0  0  0  0
   45.9418   29.6514   45.5855 H   0  0  0  0  0  0  0  0  0  0  0  0
   44.8924   30.6867   44.6122 H   0  0  0  0  0  0  0  0  0  0  0  0
   46.8409   30.8278   43.2400 H   0  0  0  0  0  0  0  0  0  0  0  0
   45.9873   35.9536   41.8645 H   0  0  0  0  0  0  0  0  0  0  0  0
   49.9868   34.5533   41.8990 H   0  0  0  0  0  0  0  0  0  0  0  0
   51.1162   29.3344   43.5142 H   0  0  0  0  0  0  0  0  0  0  0  0
   50.4333   28.2203   45.8590 H   0  0  0  0  0  0  0  0  0  0  0  0
   47.9783   29.1767   46.4252 H   0  0  0  0  0  0  0  0  0  0  0  0
  1  2  1  0
  2  3  1  0
  4  3  1  0
  5 16  1  0
  5  1  1  0
  5  4  1  0
  6  1  1  0
  7  6  2  0
  7 12  1  0
  8  7  1  0
  9  8  2  0
  9 10  1  0
 10 11  2  0
 11  6  1  0
 12 14  1  0
 13 12  1  0
 15 12  1  0
 16 20  1  0
 17 18  2  0
 17 16  1  0
 18 19  1  0
 19 20  2  0
  2 21  1  0
  2 22  1  0
  3 23  1  0
  3 24  1  0
  4 25  1  0
  4 26  1  0
  5 27  1  6
  8 28  1  0
 10 29  1  0
 18 30  1  0
 19 31  1  0
 20 32  1  0
M  ISO  8  21  13  22  13  23  13  24  13  25  13  26  13  27  13  28  14
M  ISO  4  29  14  30  14  31  14  32  14
M  END
>  <minimizedAffinity>  (1) 
-3.92920113

>  <minimizedRMSD>  (1) 
0.707997739

$$$$
