
     RDKit          3D

 37 38  0  0  1  0  0  0  0  0999 V2000
   47.2220   32.3810   44.6120 N   0  0  0  0  0  0  0  0  0  0  0  0
   47.1960   32.2950   46.0480 C   0  0  0  0  0  0  0  0  0  0  0  0
   45.8670   31.6590   46.2790 C   0  0  0  0  0  0  0  0  0  0  0  0
   45.7580   30.6960   45.1490 C   0  0  0  0  0  0  0  0  0  0  0  0
   46.9310   31.0260   44.2530 C   0  0  2  0  0  0  0  0  0  0  0  0
   47.4150   33.4320   43.6690 C   0  0  0  0  0  0  0  0  0  0  0  0
   46.4060   34.2980   43.2150 C   0  0  0  0  0  0  0  0  0  0  0  0
   46.7330   35.2680   42.2690 C   0  0  0  0  0  0  0  0  0  0  0  0
   48.0130   35.3210   41.8420 N   0  0  0  0  0  0  0  0  0  0  0  0
   48.9580   34.4870   42.2900 C   0  0  0  0  0  0  0  0  0  0  0  0
   48.6590   33.5430   43.2030 N   0  0  0  0  0  0  0  0  0  0  0  0
   45.0490   34.1120   43.7960 C   0  0  0  0  0  0  0  0  0  0  0  0
   44.1710   35.0410   43.2230 F   0  0  0  0  0  0  0  0  0  0  0  0
   45.0100   34.3550   45.1430 F   0  0  0  0  0  0  0  0  0  0  0  0
   44.5020   32.9160   43.4980 F   0  0  0  0  0  0  0  0  0  0  0  0
   48.0130   30.0410   44.2010 C   0  0  0  0  0  0  0  0  0  0  0  0
   49.2640   30.3500   43.4820 C   0  0  0  0  0  0  0  0  0  0  0  0
   47.4870   28.7340   43.6370 C   0  0  0  0  0  0  0  0  0  0  0  0
   48.3950   29.6740   45.6360 C   0  0  0  0  0  0  0  0  0  0  0  0
   48.0147   31.6666   46.4286 H   0  0  0  0  0  0  0  0  0  0  0  0
   47.3285   33.2598   46.5594 H   0  0  0  0  0  0  0  0  0  0  0  0
   45.8408   31.1376   47.2472 H   0  0  0  0  0  0  0  0  0  0  0  0
   45.0394   32.3828   46.3142 H   0  0  0  0  0  0  0  0  0  0  0  0
   45.8267   29.6603   45.5132 H   0  0  0  0  0  0  0  0  0  0  0  0
   44.7953   30.7768   44.6231 H   0  0  0  0  0  0  0  0  0  0  0  0
   46.7091   30.9521   43.1782 H   0  0  0  0  0  0  0  0  0  0  0  0
   45.9750   35.9659   41.8838 H   0  0  0  0  0  0  0  0  0  0  0  0
   49.9867   34.5727   41.9100 H   0  0  0  0  0  0  0  0  0  0  0  0
   50.0654   30.5480   44.2090 H   0  0  0  0  0  0  0  0  0  0  0  0
   49.5449   29.4943   42.8505 H   0  0  0  0  0  0  0  0  0  0  0  0
   49.1142   31.2381   42.8505 H   0  0  0  0  0  0  0  0  0  0  0  0
   47.2160   28.0607   44.4635 H   0  0  0  0  0  0  0  0  0  0  0  0
   46.5987   28.9323   43.0193 H   0  0  0  0  0  0  0  0  0  0  0  0
   48.2651   28.2617   43.0193 H   0  0  0  0  0  0  0  0  0  0  0  0
   47.7850   30.2601   46.3391 H   0  0  0  0  0  0  0  0  0  0  0  0
   48.2151   28.6013   45.8004 H   0  0  0  0  0  0  0  0  0  0  0  0
   49.4596   29.8967   45.8004 H   0  0  0  0  0  0  0  0  0  0  0  0
  1  2  1  0
  2  3  1  0
  4  3  1  0
  5  1  1  0
  5  4  1  0
  6  1  1  0
  7  6  2  0
  7 12  1  0
  8  7  1  0
  9  8  2  0
  9 10  1  0
 10 11  2  0
 11  6  1  0
 12 14  1  0
 13 12  1  0
 15 12  1  0
 16  5  1  0
 16 19  1  0
 17 16  1  0
 18 16  1  0
  2 20  1  0
  2 21  1  0
  3 22  1  0
  3 23  1  0
  4 24  1  0
  4 25  1  0
  5 26  1  6
  8 27  1  0
 10 28  1  0
 17 29  1  0
 17 30  1  0
 17 31  1  0
 18 32  1  0
 18 33  1  0
 18 34  1  0
 19 35  1  0
 19 36  1  0
 19 37  1  0
M  ISO  8  20  13  21  13  22  13  23  13  24  13  25  13  26  13  27  14
M  ISO  8  28  14  29   8  30   8  31   8  32   8  33   8  34   8  35   8
M  ISO  2  36   8  37   8
M  END
>  <minimizedAffinity>  (1) 
-3.81018758

>  <minimizedRMSD>  (1) 
0.156552553

$$$$
