
     RDKit          3D

 28 29  0  0  1  0  0  0  0  0999 V2000
   47.2320   32.4020   44.6450 N   0  0  0  0  0  0  0  0  0  0  0  0
   47.1340   32.3200   46.0850 C   0  0  0  0  0  0  0  0  0  0  0  0
   45.8190   31.6130   46.2260 C   0  0  0  0  0  0  0  0  0  0  0  0
   45.8440   30.6190   45.1190 C   0  0  0  0  0  0  0  0  0  0  0  0
   47.0510   30.9980   44.2790 C   0  0  2  0  0  0  0  0  0  0  0  0
   47.4240   33.4370   43.6800 C   0  0  0  0  0  0  0  0  0  0  0  0
   46.4190   34.3110   43.2320 C   0  0  0  0  0  0  0  0  0  0  0  0
   46.7540   35.2700   42.2830 C   0  0  0  0  0  0  0  0  0  0  0  0
   48.0280   35.3080   41.8450 N   0  0  0  0  0  0  0  0  0  0  0  0
   48.9730   34.4610   42.2880 C   0  0  0  0  0  0  0  0  0  0  0  0
   48.6740   33.5170   43.2120 N   0  0  0  0  0  0  0  0  0  0  0  0
   45.0680   34.1250   43.8260 C   0  0  0  0  0  0  0  0  0  0  0  0
   44.1770   35.0290   43.2270 F   0  0  0  0  0  0  0  0  0  0  0  0
   45.0200   34.3890   45.1570 F   0  0  0  0  0  0  0  0  0  0  0  0
   44.5220   32.9190   43.5440 F   0  0  0  0  0  0  0  0  0  0  0  0
   48.2590   30.1760   44.5050 C   0  0  0  0  0  0  0  0  0  0  0  0
   47.9591   31.7340   46.5161 H   0  0  0  0  0  0  0  0  0  0  0  0
   47.1942   33.2871   46.6057 H   0  0  0  0  0  0  0  0  0  0  0  0
   45.7432   31.1130   47.2029 H   0  0  0  0  0  0  0  0  0  0  0  0
   44.9566   32.2938   46.1736 H   0  0  0  0  0  0  0  0  0  0  0  0
   45.9545   29.5995   45.5170 H   0  0  0  0  0  0  0  0  0  0  0  0
   44.9130   30.6288   44.5333 H   0  0  0  0  0  0  0  0  0  0  0  0
   46.8871   30.8243   43.2052 H   0  0  0  0  0  0  0  0  0  0  0  0
   46.0021   35.9763   41.9012 H   0  0  0  0  0  0  0  0  0  0  0  0
   49.9983   34.5352   41.8966 H   0  0  0  0  0  0  0  0  0  0  0  0
   48.4275   30.0613   45.5860 H   0  0  0  0  0  0  0  0  0  0  0  0
   48.1188   29.1850   44.0486 H   0  0  0  0  0  0  0  0  0  0  0  0
   49.1294   30.6701   44.0486 H   0  0  0  0  0  0  0  0  0  0  0  0
  1  2  1  0
  2  3  1  0
  4  3  1  0
  5 16  1  0
  5  1  1  0
  5  4  1  0
  6  1  1  0
  7  6  2  0
  7 12  1  0
  8  7  1  0
  9  8  2  0
  9 10  1  0
 10 11  2  0
 11  6  1  0
 12 14  1  0
 13 12  1  0
 15 12  1  0
  2 17  1  0
  2 18  1  0
  3 19  1  0
  3 20  1  0
  4 21  1  0
  4 22  1  0
  5 23  1  6
  8 24  1  0
 10 25  1  0
 16 26  1  0
 16 27  1  0
 16 28  1  0
M  ISO  8  17  13  18  13  19  13  20  13  21  13  22  13  23  13  24  14
M  ISO  4  25  14  26   8  27   8  28   8
M  END
>  <minimizedAffinity>  (1) 
-3.72085214

>  <minimizedRMSD>  (1) 
0.151544794

$$$$
