
     RDKit          3D

 37 39  0  0  1  0  0  0  0  0999 V2000
   47.2340   32.4580   44.6890 N   0  0  0  0  0  0  0  0  0  0  0  0
   47.1310   32.4120   46.1320 C   0  0  0  0  0  0  0  0  0  0  0  0
   45.8190   31.7070   46.2890 C   0  0  0  0  0  0  0  0  0  0  0  0
   45.8600   30.6870   45.2170 C   0  0  0  0  0  0  0  0  0  0  0  0
   47.0740   31.0460   44.3620 C   0  0  2  0  0  0  0  0  0  0  0  0
   47.4190   33.4720   43.6990 C   0  0  0  0  0  0  0  0  0  0  0  0
   46.4070   34.3200   43.2190 C   0  0  0  0  0  0  0  0  0  0  0  0
   46.7420   35.2610   42.2470 C   0  0  0  0  0  0  0  0  0  0  0  0
   48.0150   35.3060   41.8210 N   0  0  0  0  0  0  0  0  0  0  0  0
   48.9700   34.4780   42.2990 C   0  0  0  0  0  0  0  0  0  0  0  0
   48.6680   33.5620   43.2380 N   0  0  0  0  0  0  0  0  0  0  0  0
   45.0550   34.1330   43.8050 C   0  0  0  0  0  0  0  0  0  0  0  0
   44.1580   35.0170   43.1830 F   0  0  0  0  0  0  0  0  0  0  0  0
   44.9980   34.4310   45.1300 F   0  0  0  0  0  0  0  0  0  0  0  0
   44.5210   32.9160   43.5510 F   0  0  0  0  0  0  0  0  0  0  0  0
   48.2580   30.3330   44.7050 N   0  0  0  0  0  0  0  0  0  0  0  0
   49.1260   30.1670   43.5890 C   0  0  0  0  0  0  0  0  0  0  0  0
   49.8440   28.8240   43.7900 C   0  0  0  0  0  0  0  0  0  0  0  0
   48.6660   28.0120   44.2870 C   0  0  0  0  0  0  0  0  0  0  0  0
   48.0100   29.0240   45.2360 C   0  0  0  0  0  0  0  0  0  0  0  0
   47.9562   31.8390   46.5801 H   0  0  0  0  0  0  0  0  0  0  0  0
   47.1869   33.3926   46.6273 H   0  0  0  0  0  0  0  0  0  0  0  0
   45.7390   31.2363   47.2800 H   0  0  0  0  0  0  0  0  0  0  0  0
   44.9527   32.3807   46.2141 H   0  0  0  0  0  0  0  0  0  0  0  0
   45.9759   29.6812   45.6470 H   0  0  0  0  0  0  0  0  0  0  0  0
   44.9321   30.6767   44.6263 H   0  0  0  0  0  0  0  0  0  0  0  0
   46.9221   30.8048   43.2996 H   0  0  0  0  0  0  0  0  0  0  0  0
   45.9850   35.9476   41.8401 H   0  0  0  0  0  0  0  0  0  0  0  0
   49.9995   34.5529   41.9188 H   0  0  0  0  0  0  0  0  0  0  0  0
   48.5451   30.1512   42.6550 H   0  0  0  0  0  0  0  0  0  0  0  0
   49.8457   30.9959   43.5184 H   0  0  0  0  0  0  0  0  0  0  0  0
   50.2530   28.4277   42.8489 H   0  0  0  0  0  0  0  0  0  0  0  0
   50.7222   28.8462   44.4520 H   0  0  0  0  0  0  0  0  0  0  0  0
   47.9916   27.7296   43.4651 H   0  0  0  0  0  0  0  0  0  0  0  0
   48.9345   27.0528   44.7538 H   0  0  0  0  0  0  0  0  0  0  0  0
   48.4490   28.9365   46.2408 H   0  0  0  0  0  0  0  0  0  0  0  0
   46.9292   28.8362   45.3173 H   0  0  0  0  0  0  0  0  0  0  0  0
  1  2  1  0
  2  3  1  0
  4  3  1  0
  5  1  1  0
  5 16  1  0
  5  4  1  0
  6  1  1  0
  7  6  2  0
  7 12  1  0
  8  7  1  0
  9  8  2  0
  9 10  1  0
 10 11  2  0
 11  6  1  0
 12 14  1  0
 13 12  1  0
 15 12  1  0
 16 17  1  0
 16 20  1  0
 17 18  1  0
 18 19  1  0
 19 20  1  0
  2 21  1  0
  2 22  1  0
  3 23  1  0
  3 24  1  0
  4 25  1  0
  4 26  1  0
  5 27  1  6
  8 28  1  0
 10 29  1  0
 17 30  1  0
 17 31  1  0
 18 32  1  0
 18 33  1  0
 19 34  1  0
 19 35  1  0
 20 36  1  0
 20 37  1  0
M  ISO  8  21  13  22  13  23  13  24  13  25  13  26  13  27  13  28  14
M  ISO  8  29  14  30  13  31  13  32  13  33  13  34  13  35  13  36  13
M  ISO  1  37  13
M  END
>  <minimizedAffinity>  (1) 
-3.79949617

>  <minimizedRMSD>  (1) 
0.422014326

$$$$
