
     RDKit          3D

 34 35  0  0  1  0  0  0  0  0999 V2000
   47.2360   32.4750   44.6960 N   0  0  0  0  0  0  0  0  0  0  0  0
   47.1240   32.4390   46.1450 C   0  0  0  0  0  0  0  0  0  0  0  0
   45.8180   31.7130   46.2880 C   0  0  0  0  0  0  0  0  0  0  0  0
   45.8610   30.6960   45.2190 C   0  0  0  0  0  0  0  0  0  0  0  0
   47.0840   31.0720   44.3950 C   0  0  2  0  0  0  0  0  0  0  0  0
   47.4150   33.4850   43.7120 C   0  0  0  0  0  0  0  0  0  0  0  0
   46.4010   34.3260   43.2290 C   0  0  0  0  0  0  0  0  0  0  0  0
   46.7250   35.2660   42.2520 C   0  0  0  0  0  0  0  0  0  0  0  0
   48.0040   35.3140   41.8240 N   0  0  0  0  0  0  0  0  0  0  0  0
   48.9510   34.5060   42.2960 C   0  0  0  0  0  0  0  0  0  0  0  0
   48.6580   33.5940   43.2390 N   0  0  0  0  0  0  0  0  0  0  0  0
   45.0490   34.1410   43.8160 C   0  0  0  0  0  0  0  0  0  0  0  0
   44.1540   35.0290   43.2000 F   0  0  0  0  0  0  0  0  0  0  0  0
   44.9900   34.4440   45.1420 F   0  0  0  0  0  0  0  0  0  0  0  0
   44.5210   32.9230   43.5610 F   0  0  0  0  0  0  0  0  0  0  0  0
   48.2600   30.2200   44.6470 C   0  0  0  0  0  0  0  0  0  0  0  0
   49.0410   30.0570   43.3650 C   0  0  0  0  0  0  0  0  0  0  0  0
   47.8630   28.8670   45.1720 C   0  0  0  0  0  0  0  0  0  0  0  0
   47.9534   31.8815   46.6047 H   0  0  0  0  0  0  0  0  0  0  0  0
   47.1638   33.4220   46.6371 H   0  0  0  0  0  0  0  0  0  0  0  0
   45.7398   31.2385   47.2773 H   0  0  0  0  0  0  0  0  0  0  0  0
   44.9485   32.3815   46.2041 H   0  0  0  0  0  0  0  0  0  0  0  0
   45.9720   29.6876   45.6441 H   0  0  0  0  0  0  0  0  0  0  0  0
   44.9390   30.6757   44.6194 H   0  0  0  0  0  0  0  0  0  0  0  0
   46.9672   30.8994   43.3149 H   0  0  0  0  0  0  0  0  0  0  0  0
   45.9633   35.9463   41.8433 H   0  0  0  0  0  0  0  0  0  0  0  0
   49.9788   34.5852   41.9122 H   0  0  0  0  0  0  0  0  0  0  0  0
   48.8808   30.7092   45.4120 H   0  0  0  0  0  0  0  0  0  0  0  0
   50.0926   29.8375   43.6017 H   0  0  0  0  0  0  0  0  0  0  0  0
   48.6162   29.2282   42.7797 H   0  0  0  0  0  0  0  0  0  0  0  0
   48.9832   30.9866   42.7797 H   0  0  0  0  0  0  0  0  0  0  0  0
   47.8681   28.8845   46.2718 H   0  0  0  0  0  0  0  0  0  0  0  0
   46.8535   28.6165   44.8140 H   0  0  0  0  0  0  0  0  0  0  0  0
   48.5771   28.1108   44.8140 H   0  0  0  0  0  0  0  0  0  0  0  0
  1  2  1  0
  2  3  1  0
  4  3  1  0
  5 16  1  0
  5  1  1  0
  5  4  1  0
  6  1  1  0
  7  6  2  0
  7 12  1  0
  8  7  1  0
  9  8  2  0
  9 10  1  0
 10 11  2  0
 11  6  1  0
 12 14  1  0
 13 12  1  0
 15 12  1  0
 16 18  1  0
 17 16  1  0
  2 19  1  0
  2 20  1  0
  3 21  1  0
  3 22  1  0
  4 23  1  0
  4 24  1  0
  5 25  1  6
  8 26  1  0
 10 27  1  0
 16 28  1  0
 17 29  1  0
 17 30  1  0
 17 31  1  0
 18 32  1  0
 18 33  1  0
 18 34  1  0
M  ISO  8  19  13  20  13  21  13  22  13  23  13  24  13  25  13  26  14
M  ISO  8  27  14  28   8  29   8  30   8  31   8  32   8  33   8  34   8
M  END
>  <minimizedAffinity>  (1) 
-3.74741316

>  <minimizedRMSD>  (1) 
0.680732489

$$$$
