
     RDKit          3D

 32 34  0  0  1  0  0  0  0  0999 V2000
   47.2390   32.4610   44.6790 N   0  0  0  0  0  0  0  0  0  0  0  0
   47.1130   32.4130   46.1280 C   0  0  0  0  0  0  0  0  0  0  0  0
   45.8120   31.6760   46.2510 C   0  0  0  0  0  0  0  0  0  0  0  0
   45.8710   30.6680   45.1820 C   0  0  0  0  0  0  0  0  0  0  0  0
   47.1040   31.0560   44.3720 C   0  0  2  0  0  0  0  0  0  0  0  0
   47.4160   33.4750   43.7110 C   0  0  0  0  0  0  0  0  0  0  0  0
   46.4070   34.3270   43.2310 C   0  0  0  0  0  0  0  0  0  0  0  0
   46.7330   35.2700   42.2590 C   0  0  0  0  0  0  0  0  0  0  0  0
   48.0000   35.3170   41.8300 N   0  0  0  0  0  0  0  0  0  0  0  0
   48.9580   34.4990   42.2950 C   0  0  0  0  0  0  0  0  0  0  0  0
   48.6560   33.5830   43.2340 N   0  0  0  0  0  0  0  0  0  0  0  0
   45.0550   34.1470   43.8270 C   0  0  0  0  0  0  0  0  0  0  0  0
   44.1590   35.0450   43.2240 F   0  0  0  0  0  0  0  0  0  0  0  0
   45.0020   34.4470   45.1600 F   0  0  0  0  0  0  0  0  0  0  0  0
   44.5250   32.9330   43.5710 F   0  0  0  0  0  0  0  0  0  0  0  0
   48.2740   30.1990   44.6560 C   0  0  0  0  0  0  0  0  0  0  0  0
   49.1790   29.8050   43.4890 C   0  0  0  0  0  0  0  0  0  0  0  0
   48.2580   28.8120   44.1300 C   0  0  0  0  0  0  0  0  0  0  0  0
   47.9420   31.8584   46.5919 H   0  0  0  0  0  0  0  0  0  0  0  0
   47.1404   33.3921   46.6285 H   0  0  0  0  0  0  0  0  0  0  0  0
   45.7265   31.1957   47.2369 H   0  0  0  0  0  0  0  0  0  0  0  0
   44.9395   32.3396   46.1592 H   0  0  0  0  0  0  0  0  0  0  0  0
   45.9826   29.6581   45.6034 H   0  0  0  0  0  0  0  0  0  0  0  0
   44.9556   30.6451   44.5725 H   0  0  0  0  0  0  0  0  0  0  0  0
   47.0149   30.8956   43.2874 H   0  0  0  0  0  0  0  0  0  0  0  0
   45.9724   35.9551   41.8563 H   0  0  0  0  0  0  0  0  0  0  0  0
   49.9855   34.5771   41.9101 H   0  0  0  0  0  0  0  0  0  0  0  0
   48.4323   30.6602   45.6420 H   0  0  0  0  0  0  0  0  0  0  0  0
   50.2665   29.7254   43.6341 H   0  0  0  0  0  0  0  0  0  0  0  0
   49.3476   30.1738   42.4665 H   0  0  0  0  0  0  0  0  0  0  0  0
   47.3788   28.4482   43.5780 H   0  0  0  0  0  0  0  0  0  0  0  0
   48.3944   27.8181   44.5811 H   0  0  0  0  0  0  0  0  0  0  0  0
  1  2  1  0
  2  3  1  0
  4  3  1  0
  5 16  1  0
  5  1  1  0
  5  4  1  0
  6  1  1  0
  7  6  2  0
  7 12  1  0
  8  7  1  0
  9  8  2  0
  9 10  1  0
 10 11  2  0
 11  6  1  0
 12 14  1  0
 13 12  1  0
 15 12  1  0
 17 18  1  0
 17 16  1  0
 18 16  1  0
  2 19  1  0
  2 20  1  0
  3 21  1  0
  3 22  1  0
  4 23  1  0
  4 24  1  0
  5 25  1  6
  8 26  1  0
 10 27  1  0
 16 28  1  0
 17 29  1  0
 17 30  1  0
 18 31  1  0
 18 32  1  0
M  ISO  8  19  13  20  13  21  13  22  13  23  13  24  13  25  13  26  14
M  ISO  6  27  14  28  13  29  13  30  13  31  13  32  13
M  END
>  <minimizedAffinity>  (1) 
-3.71895957

>  <minimizedRMSD>  (1) 
0.333429605

$$$$
