
     RDKit          3D

 27 28  0  0  1  0  0  0  0  0999 V2000
   47.2600   32.4200   44.6440 N   0  0  0  0  0  0  0  0  0  0  0  0
   47.1380   32.3200   46.0860 C   0  0  0  0  0  0  0  0  0  0  0  0
   45.8280   31.6160   46.1970 C   0  0  0  0  0  0  0  0  0  0  0  0
   45.8690   30.6300   45.0850 C   0  0  0  0  0  0  0  0  0  0  0  0
   47.0900   31.0070   44.2600 C   0  0  2  0  0  0  0  0  0  0  0  0
   47.4660   33.4580   43.6850 C   0  0  0  0  0  0  0  0  0  0  0  0
   46.4920   34.3900   43.3030 C   0  0  0  0  0  0  0  0  0  0  0  0
   46.8370   35.3460   42.3500 C   0  0  0  0  0  0  0  0  0  0  0  0
   48.0880   35.3170   41.8510 N   0  0  0  0  0  0  0  0  0  0  0  0
   49.0000   34.4150   42.2330 C   0  0  0  0  0  0  0  0  0  0  0  0
   48.6950   33.4700   43.1620 N   0  0  0  0  0  0  0  0  0  0  0  0
   45.1640   34.2770   43.9570 C   0  0  0  0  0  0  0  0  0  0  0  0
   44.2900   35.2260   43.4030 F   0  0  0  0  0  0  0  0  0  0  0  0
   45.1880   34.5220   45.2900 F   0  0  0  0  0  0  0  0  0  0  0  0
   44.5390   33.1060   43.6870 F   0  0  0  0  0  0  0  0  0  0  0  0
   48.2690   30.2710   44.5910 N   0  0  0  0  0  0  0  0  0  0  0  0
   47.9558   31.7283   46.5231 H   0  0  0  0  0  0  0  0  0  0  0  0
   47.1899   33.2807   46.6192 H   0  0  0  0  0  0  0  0  0  0  0  0
   45.7351   31.1091   47.1688 H   0  0  0  0  0  0  0  0  0  0  0  0
   44.9678   32.2986   46.1330 H   0  0  0  0  0  0  0  0  0  0  0  0
   45.9709   29.6082   45.4795 H   0  0  0  0  0  0  0  0  0  0  0  0
   44.9469   30.6490   44.4855 H   0  0  0  0  0  0  0  0  0  0  0  0
   46.9473   30.8044   43.1883 H   0  0  0  0  0  0  0  0  0  0  0  0
   46.1104   36.1011   42.0154 H   0  0  0  0  0  0  0  0  0  0  0  0
   50.0069   34.4383   41.7908 H   0  0  0  0  0  0  0  0  0  0  0  0
   48.3615   30.2133   45.6152 H   0  0  0  0  0  0  0  0  0  0  0  0
   48.2024   29.3212   44.1982 H   0  0  0  0  0  0  0  0  0  0  0  0
  1  2  1  0
  2  3  1  0
  4  3  1  0
  5 16  1  0
  5  1  1  0
  5  4  1  0
  6  1  1  0
  7  6  2  0
  7 12  1  0
  8  7  1  0
  9 10  1  0
  9  8  2  0
 10 11  2  0
 11  6  1  0
 12 14  1  0
 13 12  1  0
 15 12  1  0
  2 17  1  0
  2 18  1  0
  3 19  1  0
  3 20  1  0
  4 21  1  0
  4 22  1  0
  5 23  1  6
  8 24  1  0
 10 25  1  0
 16 26  1  0
 16 27  1  0
M  ISO  8  17  13  18  13  19  13  20  13  21  13  22  13  23  13  24  14
M  ISO  3  25  14  26   5  27   5
M  END
>  <minimizedAffinity>  (1) 
-3.71967816

>  <minimizedRMSD>  (1) 
0.228999853

$$$$
