
     RDKit          3D

 43 46  0  0  1  0  0  0  0  0999 V2000
   47.2490   32.4410   44.6050 N   0  0  0  0  0  0  0  0  0  0  0  0
   47.1450   32.3400   46.0290 C   0  0  0  0  0  0  0  0  0  0  0  0
   45.8870   31.5690   46.1760 C   0  0  0  0  0  0  0  0  0  0  0  0
   45.9140   30.6120   45.0380 C   0  0  0  0  0  0  0  0  0  0  0  0
   47.1030   31.0240   44.2100 C   0  0  2  0  0  0  0  0  0  0  0  0
   47.4330   33.4940   43.6440 C   0  0  0  0  0  0  0  0  0  0  0  0
   46.3930   34.3420   43.2190 C   0  0  0  0  0  0  0  0  0  0  0  0
   46.7040   35.3230   42.2760 C   0  0  0  0  0  0  0  0  0  0  0  0
   47.9600   35.3990   41.8390 N   0  0  0  0  0  0  0  0  0  0  0  0
   48.9260   34.5800   42.2600 C   0  0  0  0  0  0  0  0  0  0  0  0
   48.6610   33.6230   43.1680 N   0  0  0  0  0  0  0  0  0  0  0  0
   45.0410   34.1070   43.8220 C   0  0  0  0  0  0  0  0  0  0  0  0
   44.1360   34.9960   43.2260 F   0  0  0  0  0  0  0  0  0  0  0  0
   45.0200   34.3820   45.1350 F   0  0  0  0  0  0  0  0  0  0  0  0
   44.5350   32.9090   43.5110 F   0  0  0  0  0  0  0  0  0  0  0  0
   48.2900   30.2210   44.4550 C   0  0  0  0  0  0  0  0  0  0  0  0
   48.7040   29.4150   45.4540 C   0  0  0  0  0  0  0  0  0  0  0  0
   49.8920   28.7890   45.4190 C   0  0  0  0  0  0  0  0  0  0  0  0
   50.6820   29.0390   44.2530 C   0  0  0  0  0  0  0  0  0  0  0  0
   49.5980   30.2030   43.2630 S   0  0  0  0  0  0  0  0  0  0  0  0
   51.9430   28.5410   43.9300 N   0  0  0  0  0  0  0  0  0  0  0  0
   52.2710   27.3970   43.3010 C   0  0  0  0  0  0  0  0  0  0  0  0
   53.5920   27.0610   43.0640 C   0  0  0  0  0  0  0  0  0  0  0  0
   54.6270   27.8960   43.4680 C   0  0  0  0  0  0  0  0  0  0  0  0
   55.9900   27.5670   43.2330 N   0  0  0  0  0  0  0  0  0  0  0  0
   54.2870   29.0430   44.1000 N   0  0  0  0  0  0  0  0  0  0  0  0
   52.9930   29.3280   44.3090 C   0  0  0  0  0  0  0  0  0  0  0  0
   52.8290   30.4380   44.9130 O   0  0  0  0  0  0  0  0  0  0  0  0
   48.0012   31.7986   46.4576 H   0  0  0  0  0  0  0  0  0  0  0  0
   47.1423   33.3089   46.5497 H   0  0  0  0  0  0  0  0  0  0  0  0
   45.8671   31.0333   47.1365 H   0  0  0  0  0  0  0  0  0  0  0  0
   44.9942   32.2115   46.1667 H   0  0  0  0  0  0  0  0  0  0  0  0
   46.0352   29.5812   45.4025 H   0  0  0  0  0  0  0  0  0  0  0  0
   44.9795   30.6332   44.4581 H   0  0  0  0  0  0  0  0  0  0  0  0
   46.9649   30.8783   43.1285 H   0  0  0  0  0  0  0  0  0  0  0  0
   45.9333   36.0141   41.9041 H   0  0  0  0  0  0  0  0  0  0  0  0
   49.9458   34.6881   41.8620 H   0  0  0  0  0  0  0  0  0  0  0  0
   48.0484   29.2656   46.3246 H   0  0  0  0  0  0  0  0  0  0  0  0
   50.2336   28.1299   46.2307 H   0  0  0  0  0  0  0  0  0  0  0  0
   51.4734   26.7162   42.9690 H   0  0  0  0  0  0  0  0  0  0  0  0
   53.8268   26.1184   42.5478 H   0  0  0  0  0  0  0  0  0  0  0  0
   56.7352   28.2063   43.5443 H   0  0  0  0  0  0  0  0  0  0  0  0
   56.2323   26.6894   42.7514 H   0  0  0  0  0  0  0  0  0  0  0  0
  1  2  1  0
  2  3  1  0
  4  3  1  0
  5 16  1  0
  5  1  1  0
  5  4  1  0
  6  1  1  0
  7  6  2  0
  7 12  1  0
  8  7  1  0
  9 10  1  0
  9  8  2  0
 10 11  2  0
 11  6  1  0
 12 14  1  0
 13 12  1  0
 15 12  1  0
 16 17  2  0
 18 17  1  0
 19 18  2  0
 20 19  1  0
 20 16  1  0
 21 19  1  0
 21 27  1  0
 22 21  1  0
 23 22  2  0
 23 24  1  0
 24 26  2  0
 25 24  1  0
 26 27  1  0
 27 28  2  0
  2 29  1  0
  2 30  1  0
  3 31  1  0
  3 32  1  0
  4 33  1  0
  4 34  1  0
  5 35  1  6
  8 36  1  0
 10 37  1  0
 17 38  1  0
 18 39  1  0
 22 40  1  0
 23 41  1  0
 25 42  1  0
 25 43  1  0
M  ISO  8  29  13  30  13  31  13  32  13  33  13  34  13  35  13  36  14
M  ISO  5  37  14  38  14  39  14  40  14  41  14
M  END
>  <minimizedAffinity>  (1) 
-4.21378851

>  <minimizedRMSD>  (1) 
0.896647453

$$$$
