
     RDKit          3D

 42 45  0  0  1  0  0  0  0  0999 V2000
   47.2190   32.4660   44.6130 N   0  0  0  0  0  0  0  0  0  0  0  0
   47.0930   32.3730   46.0370 C   0  0  0  0  0  0  0  0  0  0  0  0
   45.8410   31.5940   46.1710 C   0  0  0  0  0  0  0  0  0  0  0  0
   45.8990   30.6240   45.0410 C   0  0  0  0  0  0  0  0  0  0  0  0
   47.0920   31.0460   44.2230 C   0  0  2  0  0  0  0  0  0  0  0  0
   47.4060   33.5140   43.6470 C   0  0  0  0  0  0  0  0  0  0  0  0
   46.3650   34.3580   43.2100 C   0  0  0  0  0  0  0  0  0  0  0  0
   46.6810   35.3340   42.2610 C   0  0  0  0  0  0  0  0  0  0  0  0
   47.9380   35.4080   41.8300 N   0  0  0  0  0  0  0  0  0  0  0  0
   48.9050   34.5940   42.2620 C   0  0  0  0  0  0  0  0  0  0  0  0
   48.6350   33.6440   43.1750 N   0  0  0  0  0  0  0  0  0  0  0  0
   45.0140   34.1230   43.8080 C   0  0  0  0  0  0  0  0  0  0  0  0
   44.1090   35.0070   43.1990 F   0  0  0  0  0  0  0  0  0  0  0  0
   44.9830   34.4070   45.1200 F   0  0  0  0  0  0  0  0  0  0  0  0
   44.5100   32.9230   43.4990 F   0  0  0  0  0  0  0  0  0  0  0  0
   48.2890   30.2620   44.4980 C   0  0  0  0  0  0  0  0  0  0  0  0
   48.6850   29.4350   45.4850 C   0  0  0  0  0  0  0  0  0  0  0  0
   49.8880   28.8400   45.4840 C   0  0  0  0  0  0  0  0  0  0  0  0
   50.7190   29.1420   44.3710 C   0  0  0  0  0  0  0  0  0  0  0  0
   49.6560   30.3040   43.3760 S   0  0  0  0  0  0  0  0  0  0  0  0
   52.0550   28.6870   44.0480 C   0  0  0  0  0  0  0  0  0  0  0  0
   52.2370   27.4040   43.6450 C   0  0  0  0  0  0  0  0  0  0  0  0
   53.5370   27.0400   43.3550 C   0  0  0  0  0  0  0  0  0  0  0  0
   54.5760   27.9440   43.4750 C   0  0  0  0  0  0  0  0  0  0  0  0
   54.3490   29.2600   43.8950 C   0  0  0  0  0  0  0  0  0  0  0  0
   53.0360   29.6480   44.1940 C   0  0  0  0  0  0  0  0  0  0  0  0
   47.9469   31.8414   46.4823 H   0  0  0  0  0  0  0  0  0  0  0  0
   47.0738   33.3456   46.5505 H   0  0  0  0  0  0  0  0  0  0  0  0
   45.8088   31.0683   47.1367 H   0  0  0  0  0  0  0  0  0  0  0  0
   44.9422   32.2274   46.1403 H   0  0  0  0  0  0  0  0  0  0  0  0
   46.0321   29.5992   45.4180 H   0  0  0  0  0  0  0  0  0  0  0  0
   44.9719   30.6247   44.4489 H   0  0  0  0  0  0  0  0  0  0  0  0
   46.9663   30.8910   43.1413 H   0  0  0  0  0  0  0  0  0  0  0  0
   45.9118   36.0223   41.8806 H   0  0  0  0  0  0  0  0  0  0  0  0
   49.9269   34.7011   41.8692 H   0  0  0  0  0  0  0  0  0  0  0  0
   47.9978   29.2405   46.3216 H   0  0  0  0  0  0  0  0  0  0  0  0
   50.2093   28.1641   46.2902 H   0  0  0  0  0  0  0  0  0  0  0  0
   51.3994   26.6967   43.5548 H   0  0  0  0  0  0  0  0  0  0  0  0
   53.7495   26.0131   43.0228 H   0  0  0  0  0  0  0  0  0  0  0  0
   55.6006   27.6231   43.2359 H   0  0  0  0  0  0  0  0  0  0  0  0
   55.1817   29.9727   43.9881 H   0  0  0  0  0  0  0  0  0  0  0  0
   52.7983   30.6685   44.5287 H   0  0  0  0  0  0  0  0  0  0  0  0
  1  2  1  0
  2  3  1  0
  4  3  1  0
  5 16  1  0
  5  1  1  0
  5  4  1  0
  6  1  1  0
  7  6  2  0
  7 12  1  0
  8  7  1  0
  9  8  2  0
  9 10  1  0
 10 11  2  0
 11  6  1  0
 12 14  1  0
 13 12  1  0
 15 12  1  0
 16 17  2  0
 18 17  1  0
 19 18  2  0
 20 19  1  0
 20 16  1  0
 21 26  1  0
 21 19  1  0
 22 21  2  0
 23 24  2  0
 23 22  1  0
 24 25  1  0
 25 26  2  0
  2 27  1  0
  2 28  1  0
  3 29  1  0
  3 30  1  0
  4 31  1  0
  4 32  1  0
  5 33  1  6
  8 34  1  0
 10 35  1  0
 17 36  1  0
 18 37  1  0
 22 38  1  0
 23 39  1  0
 24 40  1  0
 25 41  1  0
 26 42  1  0
M  ISO  8  27  13  28  13  29  13  30  13  31  13  32  13  33  13  34  14
M  ISO  8  35  14  36  14  37  14  38  14  39  14  40  14  41  14  42  14
M  END
>  <minimizedAffinity>  (1) 
-4.14966965

>  <minimizedRMSD>  (1) 
0.32522127

$$$$
