
     RDKit          3D

 40 43  0  0  1  0  0  0  0  0999 V2000
   47.2250   32.4680   44.6150 N   0  0  0  0  0  0  0  0  0  0  0  0
   47.1050   32.3720   46.0400 C   0  0  0  0  0  0  0  0  0  0  0  0
   45.8460   31.5970   46.1750 C   0  0  0  0  0  0  0  0  0  0  0  0
   45.8980   30.6310   45.0460 C   0  0  0  0  0  0  0  0  0  0  0  0
   47.0910   31.0480   44.2260 C   0  0  2  0  0  0  0  0  0  0  0  0
   47.4120   33.5160   43.6480 C   0  0  0  0  0  0  0  0  0  0  0  0
   46.3710   34.3560   43.2120 C   0  0  0  0  0  0  0  0  0  0  0  0
   46.6900   35.3300   42.2590 C   0  0  0  0  0  0  0  0  0  0  0  0
   47.9470   35.4050   41.8270 N   0  0  0  0  0  0  0  0  0  0  0  0
   48.9130   34.5920   42.2610 C   0  0  0  0  0  0  0  0  0  0  0  0
   48.6420   33.6430   43.1770 N   0  0  0  0  0  0  0  0  0  0  0  0
   45.0240   34.1270   43.8090 C   0  0  0  0  0  0  0  0  0  0  0  0
   44.1120   35.0160   43.2160 F   0  0  0  0  0  0  0  0  0  0  0  0
   44.9890   34.4130   45.1240 F   0  0  0  0  0  0  0  0  0  0  0  0
   44.5140   32.9290   43.5020 F   0  0  0  0  0  0  0  0  0  0  0  0
   48.2840   30.2570   44.4890 C   0  0  0  0  0  0  0  0  0  0  0  0
   48.6780   29.4330   45.4900 C   0  0  0  0  0  0  0  0  0  0  0  0
   49.8770   28.8270   45.4700 C   0  0  0  0  0  0  0  0  0  0  0  0
   50.6900   29.1040   44.3460 C   0  0  0  0  0  0  0  0  0  0  0  0
   49.6290   30.2740   43.3430 S   0  0  0  0  0  0  0  0  0  0  0  0
   52.0030   28.6290   44.0210 C   0  0  0  0  0  0  0  0  0  0  0  0
   52.2740   27.2930   43.9030 C   0  0  0  0  0  0  0  0  0  0  0  0
   53.5780   26.9730   43.5850 C   0  0  0  0  0  0  0  0  0  0  0  0
   54.5180   27.9250   43.4040 N   0  0  0  0  0  0  0  0  0  0  0  0
   54.2280   29.2300   43.5250 C   0  0  0  0  0  0  0  0  0  0  0  0
   52.9500   29.5670   43.8380 N   0  0  0  0  0  0  0  0  0  0  0  0
   47.9577   31.8346   46.4805 H   0  0  0  0  0  0  0  0  0  0  0  0
   47.0938   33.3427   46.5573 H   0  0  0  0  0  0  0  0  0  0  0  0
   45.8125   31.0699   47.1399 H   0  0  0  0  0  0  0  0  0  0  0  0
   44.9502   32.2347   46.1468 H   0  0  0  0  0  0  0  0  0  0  0  0
   46.0272   29.6051   45.4214 H   0  0  0  0  0  0  0  0  0  0  0  0
   44.9699   30.6375   44.4555 H   0  0  0  0  0  0  0  0  0  0  0  0
   46.9613   30.8946   43.1445 H   0  0  0  0  0  0  0  0  0  0  0  0
   45.9208   36.0169   41.8762 H   0  0  0  0  0  0  0  0  0  0  0  0
   49.9351   34.6979   41.8684 H   0  0  0  0  0  0  0  0  0  0  0  0
   48.0006   29.2562   46.3385 H   0  0  0  0  0  0  0  0  0  0  0  0
   50.2061   28.1568   46.2778 H   0  0  0  0  0  0  0  0  0  0  0  0
   51.5021   26.5237   44.0520 H   0  0  0  0  0  0  0  0  0  0  0  0
   53.8589   25.9150   43.4762 H   0  0  0  0  0  0  0  0  0  0  0  0
   54.9990   30.0002   43.3758 H   0  0  0  0  0  0  0  0  0  0  0  0
  1  2  1  0
  2  3  1  0
  4  3  1  0
  5 16  1  0
  5  1  1  0
  5  4  1  0
  6  1  1  0
  7  6  2  0
  7 12  1  0
  8  7  1  0
  9  8  2  0
  9 10  1  0
 10 11  2  0
 11  6  1  0
 12 14  1  0
 13 12  1  0
 15 12  1  0
 16 17  2  0
 18 17  1  0
 19 18  2  0
 20 19  1  0
 20 16  1  0
 21 19  1  0
 22 21  2  0
 23 22  1  0
 24 25  1  0
 24 23  2  0
 25 26  2  0
 26 21  1  0
  2 27  1  0
  2 28  1  0
  3 29  1  0
  3 30  1  0
  4 31  1  0
  4 32  1  0
  5 33  1  6
  8 34  1  0
 10 35  1  0
 17 36  1  0
 18 37  1  0
 22 38  1  0
 23 39  1  0
 25 40  1  0
M  ISO  8  27  13  28  13  29  13  30  13  31  13  32  13  33  13  34  14
M  ISO  6  35  14  36  14  37  14  38  14  39  14  40  14
M  END
>  <minimizedAffinity>  (1) 
-4.09331894

>  <minimizedRMSD>  (1) 
0.213061541

$$$$
