
     RDKit          3D

 35 36  0  0  1  0  0  0  0  0999 V2000
   46.9770   35.5700   42.3990 C   0  0  0  0  0  0  0  0  0  0  0  0
   47.9740   35.0350   41.5470 N   0  0  0  0  0  0  0  0  0  0  0  0
   49.2640   35.1750   42.1580 C   0  0  0  0  0  0  0  0  0  0  0  0
   50.0800   33.9520   42.3020 C   0  0  0  0  0  0  0  0  0  0  0  0
   49.1820   32.9170   42.6570 O   0  0  0  0  0  0  0  0  0  0  0  0
   48.5120   32.6270   41.4750 C   0  0  0  0  0  0  0  0  0  0  0  0
   47.7500   33.7930   40.9190 C   0  0  2  0  0  0  0  0  0  0  0  0
   48.0730   33.9270   39.4480 C   0  0  0  0  0  0  0  0  0  0  0  0
   49.0060   32.9990   39.0350 F   0  0  0  0  0  0  0  0  0  0  0  0
   46.9490   33.6970   38.6660 F   0  0  0  0  0  0  0  0  0  0  0  0
   48.5320   35.1730   39.0910 F   0  0  0  0  0  0  0  0  0  0  0  0
   45.7050   34.7750   42.5460 C   0  0  1  0  0  0  0  0  0  0  0  0
   44.7270   35.2450   44.8560 C   0  0  0  0  0  0  0  0  0  0  0  0
   45.5380   34.4490   43.9840 C   0  0  0  0  0  0  0  0  0  0  0  0
   46.1760   33.3460   44.5380 C   0  0  0  0  0  0  0  0  0  0  0  0
   45.9860   33.1010   45.8630 N   0  0  0  0  0  0  0  0  0  0  0  0
   45.2310   33.8460   46.6640 C   0  0  0  0  0  0  0  0  0  0  0  0
   44.5880   34.9420   46.1500 N   0  0  0  0  0  0  0  0  0  0  0  0
   44.5120   35.4680   42.0100 C   0  0  0  0  0  0  0  0  0  0  0  0
   46.7052   36.5623   42.0098 H   0  0  0  0  0  0  0  0  0  0  0  0
   47.4295   35.5736   43.4016 H   0  0  0  0  0  0  0  0  0  0  0  0
   49.8415   35.8884   41.5517 H   0  0  0  0  0  0  0  0  0  0  0  0
   49.0557   35.4993   43.1882 H   0  0  0  0  0  0  0  0  0  0  0  0
   50.5803   33.7134   41.3518 H   0  0  0  0  0  0  0  0  0  0  0  0
   50.8639   34.0807   43.0629 H   0  0  0  0  0  0  0  0  0  0  0  0
   49.2503   32.3043   40.7262 H   0  0  0  0  0  0  0  0  0  0  0  0
   47.7785   31.8396   41.7031 H   0  0  0  0  0  0  0  0  0  0  0  0
   46.6912   33.5619   41.1074 H   0  0  0  0  0  0  0  0  0  0  0  0
   45.7931   33.8584   41.9443 H   0  0  0  0  0  0  0  0  0  0  0  0
   44.2068   36.1257   44.4513 H   0  0  0  0  0  0  0  0  0  0  0  0
   46.8140   32.6920   43.9254 H   0  0  0  0  0  0  0  0  0  0  0  0
   45.1234   33.5860   47.7274 H   0  0  0  0  0  0  0  0  0  0  0  0
   43.8917   35.8283   42.8439 H   0  0  0  0  0  0  0  0  0  0  0  0
   44.8300   36.3220   41.3939 H   0  0  0  0  0  0  0  0  0  0  0  0
   43.9277   34.7687   41.3939 H   0  0  0  0  0  0  0  0  0  0  0  0
  1 12  1  0
  2  3  1  0
  2  1  1  0
  3  4  1  0
  4  5  1  0
  6  5  1  0
  7  6  1  0
  7  2  1  0
  8  7  1  0
  9  8  1  0
 10  8  1  0
 11  8  1  0
 12 14  1  0
 13 18  2  0
 14 15  2  0
 14 13  1  0
 15 16  1  0
 16 17  2  0
 18 17  1  0
 19 12  1  0
  1 20  1  0
  1 21  1  0
  3 22  1  0
  3 23  1  0
  4 24  1  0
  4 25  1  0
  6 26  1  0
  6 27  1  0
  7 28  1  6
 12 29  1  6
 13 30  1  0
 15 31  1  0
 17 32  1  0
 19 33  1  0
 19 34  1  0
 19 35  1  0
M  ISO  8  20   8  21   8  22  13  23  13  24  13  25  13  26  13  27  13
M  ISO  8  28  13  29   8  30  14  31  14  32  14  33   8  34   8  35   8
M  END
>  <minimizedAffinity>  (1) 
-4.73650885

>  <minimizedRMSD>  (1) 
1.18785131

$$$$
