
     RDKit          3D

 35 37  0  0  1  0  0  0  0  0999 V2000
   47.2190   32.4930   44.6860 N   0  0  0  0  0  0  0  0  0  0  0  0
   47.1090   32.4320   46.1130 C   0  0  0  0  0  0  0  0  0  0  0  0
   45.8450   31.6870   46.2830 C   0  0  0  0  0  0  0  0  0  0  0  0
   45.8560   30.6960   45.1720 C   0  0  0  0  0  0  0  0  0  0  0  0
   47.0560   31.0670   44.3370 C   0  0  2  0  0  0  0  0  0  0  0  0
   47.4170   33.5130   43.6910 C   0  0  0  0  0  0  0  0  0  0  0  0
   46.3890   34.3530   43.2350 C   0  0  0  0  0  0  0  0  0  0  0  0
   46.7090   35.3060   42.2580 C   0  0  0  0  0  0  0  0  0  0  0  0
   47.9680   35.3470   41.8280 N   0  0  0  0  0  0  0  0  0  0  0  0
   48.9260   34.5370   42.2790 C   0  0  0  0  0  0  0  0  0  0  0  0
   48.6460   33.6150   43.2170 N   0  0  0  0  0  0  0  0  0  0  0  0
   45.0330   34.1520   43.8380 C   0  0  0  0  0  0  0  0  0  0  0  0
   44.1280   35.0340   43.2230 F   0  0  0  0  0  0  0  0  0  0  0  0
   45.0080   34.4660   45.1470 F   0  0  0  0  0  0  0  0  0  0  0  0
   44.5150   32.9480   43.5570 F   0  0  0  0  0  0  0  0  0  0  0  0
   48.2290   30.2580   44.6000 C   0  0  0  0  0  0  0  0  0  0  0  0
   48.6430   29.5000   45.6390 C   0  0  0  0  0  0  0  0  0  0  0  0
   49.8120   28.8440   45.6060 C   0  0  0  0  0  0  0  0  0  0  0  0
   50.5730   28.9920   44.4280 C   0  0  0  0  0  0  0  0  0  0  0  0
   49.5110   30.1230   43.3910 S   0  0  0  0  0  0  0  0  0  0  0  0
   51.8620   28.4290   44.0670 C   0  0  0  0  0  0  0  0  0  0  0  0
   47.9568   31.8905   46.5580 H   0  0  0  0  0  0  0  0  0  0  0  0
   47.1175   33.4160   46.6045 H   0  0  0  0  0  0  0  0  0  0  0  0
   45.8188   31.1797   47.2587 H   0  0  0  0  0  0  0  0  0  0  0  0
   44.9617   32.3420   46.2560 H   0  0  0  0  0  0  0  0  0  0  0  0
   45.9586   29.6739   45.5654 H   0  0  0  0  0  0  0  0  0  0  0  0
   44.9230   30.7146   44.5896 H   0  0  0  0  0  0  0  0  0  0  0  0
   46.9183   30.8884   43.2604 H   0  0  0  0  0  0  0  0  0  0  0  0
   45.9480   35.9943   41.8615 H   0  0  0  0  0  0  0  0  0  0  0  0
   49.9485   34.6231   41.8827 H   0  0  0  0  0  0  0  0  0  0  0  0
   48.0065   29.4192   46.5325 H   0  0  0  0  0  0  0  0  0  0  0  0
   50.1572   28.2266   46.4484 H   0  0  0  0  0  0  0  0  0  0  0  0
   52.4237   28.1837   44.9804 H   0  0  0  0  0  0  0  0  0  0  0  0
   51.7098   27.5154   43.4736 H   0  0  0  0  0  0  0  0  0  0  0  0
   52.4288   29.1615   43.4736 H   0  0  0  0  0  0  0  0  0  0  0  0
  1  2  1  0
  2  3  1  0
  4  3  1  0
  5 16  1  0
  5  1  1  0
  5  4  1  0
  6  1  1  0
  7  6  2  0
  7 12  1  0
  8  7  1  0
  9  8  2  0
  9 10  1  0
 10 11  2  0
 11  6  1  0
 12 14  1  0
 13 12  1  0
 15 12  1  0
 16 17  2  0
 18 17  1  0
 19 18  2  0
 20 19  1  0
 20 16  1  0
 21 19  1  0
  2 22  1  0
  2 23  1  0
  3 24  1  0
  3 25  1  0
  4 26  1  0
  4 27  1  0
  5 28  1  6
  8 29  1  0
 10 30  1  0
 17 31  1  0
 18 32  1  0
 21 33  1  0
 21 34  1  0
 21 35  1  0
M  ISO  8  22  13  23  13  24  13  25  13  26  13  27  13  28  13  29  14
M  ISO  6  30  14  31  14  32  14  33   8  34   8  35   8
M  END
>  <minimizedAffinity>  (1) 
-4.03921223

>  <minimizedRMSD>  (1) 
0.0228914861

$$$$
