
     RDKit          3D

 41 43  0  0  1  0  0  0  0  0999 V2000
   47.2250   32.4720   44.6240 N   0  0  0  0  0  0  0  0  0  0  0  0
   47.1070   32.3810   46.0510 C   0  0  0  0  0  0  0  0  0  0  0  0
   45.8520   31.6170   46.1960 C   0  0  0  0  0  0  0  0  0  0  0  0
   45.8840   30.6480   45.0670 C   0  0  0  0  0  0  0  0  0  0  0  0
   47.0820   31.0510   44.2450 C   0  0  2  0  0  0  0  0  0  0  0  0
   47.4150   33.5160   43.6520 C   0  0  0  0  0  0  0  0  0  0  0  0
   46.3800   34.3590   43.2170 C   0  0  0  0  0  0  0  0  0  0  0  0
   46.6980   35.3310   42.2630 C   0  0  0  0  0  0  0  0  0  0  0  0
   47.9560   35.3950   41.8310 N   0  0  0  0  0  0  0  0  0  0  0  0
   48.9190   34.5800   42.2620 C   0  0  0  0  0  0  0  0  0  0  0  0
   48.6450   33.6350   43.1800 N   0  0  0  0  0  0  0  0  0  0  0  0
   45.0250   34.1360   43.8160 C   0  0  0  0  0  0  0  0  0  0  0  0
   44.1170   35.0200   43.2110 F   0  0  0  0  0  0  0  0  0  0  0  0
   45.0010   34.4260   45.1270 F   0  0  0  0  0  0  0  0  0  0  0  0
   44.5180   32.9350   43.5120 F   0  0  0  0  0  0  0  0  0  0  0  0
   48.2650   30.2560   44.5000 C   0  0  0  0  0  0  0  0  0  0  0  0
   48.6630   29.4440   45.5160 C   0  0  0  0  0  0  0  0  0  0  0  0
   49.8520   28.8280   45.4750 C   0  0  0  0  0  0  0  0  0  0  0  0
   50.6620   29.0620   44.3420 C   0  0  0  0  0  0  0  0  0  0  0  0
   49.5940   30.2300   43.3370 S   0  0  0  0  0  0  0  0  0  0  0  0
   51.9780   28.5590   43.9930 C   0  0  0  0  0  0  0  0  0  0  0  0
   52.1010   28.0050   42.6150 C   0  0  0  0  0  0  0  0  0  0  0  0
   53.0070   29.6420   44.2350 C   0  0  0  0  0  0  0  0  0  0  0  0
   47.9587   31.8414   46.4908 H   0  0  0  0  0  0  0  0  0  0  0  0
   47.1003   33.3546   46.5629 H   0  0  0  0  0  0  0  0  0  0  0  0
   45.8246   31.0907   47.1615 H   0  0  0  0  0  0  0  0  0  0  0  0
   44.9607   32.2613   46.1740 H   0  0  0  0  0  0  0  0  0  0  0  0
   45.9997   29.6204   45.4419 H   0  0  0  0  0  0  0  0  0  0  0  0
   44.9539   30.6647   44.4799 H   0  0  0  0  0  0  0  0  0  0  0  0
   46.9503   30.8904   43.1648 H   0  0  0  0  0  0  0  0  0  0  0  0
   45.9320   36.0219   41.8810 H   0  0  0  0  0  0  0  0  0  0  0  0
   49.9404   34.6803   41.8661 H   0  0  0  0  0  0  0  0  0  0  0  0
   48.0011   29.2913   46.3812 H   0  0  0  0  0  0  0  0  0  0  0  0
   50.1835   28.1675   46.2898 H   0  0  0  0  0  0  0  0  0  0  0  0
   52.1585   27.6948   44.6492 H   0  0  0  0  0  0  0  0  0  0  0  0
   52.3391   26.9325   42.6709 H   0  0  0  0  0  0  0  0  0  0  0  0
   51.1505   28.1421   42.0785 H   0  0  0  0  0  0  0  0  0  0  0  0
   52.9041   28.5314   42.0785 H   0  0  0  0  0  0  0  0  0  0  0  0
   53.1421   29.7842   45.3174 H   0  0  0  0  0  0  0  0  0  0  0  0
   53.9645   29.3459   43.7818 H   0  0  0  0  0  0  0  0  0  0  0  0
   52.6623   30.5832   43.7818 H   0  0  0  0  0  0  0  0  0  0  0  0
  1  2  1  0
  2  3  1  0
  4  3  1  0
  5 16  1  0
  5  1  1  0
  5  4  1  0
  6  1  1  0
  7  6  2  0
  7 12  1  0
  8  7  1  0
  9 10  1  0
  9  8  2  0
 10 11  2  0
 11  6  1  0
 12 14  1  0
 13 12  1  0
 15 12  1  0
 16 17  2  0
 18 17  1  0
 19 18  2  0
 20 19  1  0
 20 16  1  0
 21 23  1  0
 21 19  1  0
 22 21  1  0
  2 24  1  0
  2 25  1  0
  3 26  1  0
  3 27  1  0
  4 28  1  0
  4 29  1  0
  5 30  1  6
  8 31  1  0
 10 32  1  0
 17 33  1  0
 18 34  1  0
 21 35  1  0
 22 36  1  0
 22 37  1  0
 22 38  1  0
 23 39  1  0
 23 40  1  0
 23 41  1  0
M  ISO  8  24  13  25  13  26  13  27  13  28  13  29  13  30  13  31  14
M  ISO  8  32  14  33  14  34  14  35   8  36   8  37   8  38   8  39   8
M  ISO  2  40   8  41   8
M  END
>  <minimizedAffinity>  (1) 
-4.02461767

>  <minimizedRMSD>  (1) 
0.123935632

$$$$
