
     RDKit          3D

 39 42  0  0  1  0  0  0  0  0999 V2000
   47.2320   32.4620   44.5990 N   0  0  0  0  0  0  0  0  0  0  0  0
   47.1230   32.3600   46.0240 C   0  0  0  0  0  0  0  0  0  0  0  0
   45.8630   31.5860   46.1670 C   0  0  0  0  0  0  0  0  0  0  0  0
   45.9040   30.6270   45.0310 C   0  0  0  0  0  0  0  0  0  0  0  0
   47.0940   31.0450   44.2050 C   0  0  2  0  0  0  0  0  0  0  0  0
   47.4120   33.5150   43.6380 C   0  0  0  0  0  0  0  0  0  0  0  0
   46.3710   34.3610   43.2120 C   0  0  0  0  0  0  0  0  0  0  0  0
   46.6850   35.3410   42.2690 C   0  0  0  0  0  0  0  0  0  0  0  0
   47.9370   35.4180   41.8330 N   0  0  0  0  0  0  0  0  0  0  0  0
   48.9080   34.6030   42.2540 C   0  0  0  0  0  0  0  0  0  0  0  0
   48.6400   33.6460   43.1630 N   0  0  0  0  0  0  0  0  0  0  0  0
   45.0200   34.1240   43.8160 C   0  0  0  0  0  0  0  0  0  0  0  0
   44.1140   35.0130   43.2160 F   0  0  0  0  0  0  0  0  0  0  0  0
   44.9980   34.4000   45.1290 F   0  0  0  0  0  0  0  0  0  0  0  0
   44.5160   32.9260   43.5020 F   0  0  0  0  0  0  0  0  0  0  0  0
   48.2880   30.2490   44.4570 C   0  0  0  0  0  0  0  0  0  0  0  0
   48.6850   29.4170   45.4390 C   0  0  0  0  0  0  0  0  0  0  0  0
   49.8810   28.8110   45.4160 C   0  0  0  0  0  0  0  0  0  0  0  0
   50.6980   29.1070   44.2900 C   0  0  0  0  0  0  0  0  0  0  0  0
   49.6340   30.2840   43.3110 S   0  0  0  0  0  0  0  0  0  0  0  0
   51.9880   28.6360   43.9810 N   0  0  0  0  0  0  0  0  0  0  0  0
   52.4630   27.4090   44.2790 C   0  0  0  0  0  0  0  0  0  0  0  0
   53.7630   27.4430   43.7680 C   0  0  0  0  0  0  0  0  0  0  0  0
   53.9920   28.6450   43.2120 N   0  0  0  0  0  0  0  0  0  0  0  0
   52.8770   29.3830   43.3490 C   0  0  0  0  0  0  0  0  0  0  0  0
   47.9784   31.8194   46.4553 H   0  0  0  0  0  0  0  0  0  0  0  0
   47.1172   33.3288   46.5450 H   0  0  0  0  0  0  0  0  0  0  0  0
   45.8377   31.0530   47.1289 H   0  0  0  0  0  0  0  0  0  0  0  0
   44.9676   32.2248   46.1519 H   0  0  0  0  0  0  0  0  0  0  0  0
   46.0317   29.5982   45.3988 H   0  0  0  0  0  0  0  0  0  0  0  0
   44.9721   30.6410   44.4467 H   0  0  0  0  0  0  0  0  0  0  0  0
   46.9586   30.8964   43.1235 H   0  0  0  0  0  0  0  0  0  0  0  0
   45.9147   36.0322   41.8963 H   0  0  0  0  0  0  0  0  0  0  0  0
   49.9281   34.7136   41.8576 H   0  0  0  0  0  0  0  0  0  0  0  0
   48.0078   29.2290   46.2852 H   0  0  0  0  0  0  0  0  0  0  0  0
   50.2086   28.1299   46.2152 H   0  0  0  0  0  0  0  0  0  0  0  0
   51.9521   26.5841   44.7972 H   0  0  0  0  0  0  0  0  0  0  0  0
   54.4861   26.6153   43.8136 H   0  0  0  0  0  0  0  0  0  0  0  0
   52.7313   30.4160   43.0002 H   0  0  0  0  0  0  0  0  0  0  0  0
  1  2  1  0
  2  3  1  0
  4  3  1  0
  5 16  1  0
  5  1  1  0
  5  4  1  0
  6  1  1  0
  7  6  2  0
  7 12  1  0
  8  7  1  0
  9 10  1  0
  9  8  2  0
 10 11  2  0
 11  6  1  0
 12 14  1  0
 13 12  1  0
 15 12  1  0
 16 17  2  0
 18 17  1  0
 19 18  2  0
 20 19  1  0
 20 16  1  0
 21 22  1  0
 21 19  1  0
 23 22  2  0
 24 25  2  0
 24 23  1  0
 25 21  1  0
  2 26  1  0
  2 27  1  0
  3 28  1  0
  3 29  1  0
  4 30  1  0
  4 31  1  0
  5 32  1  6
  8 33  1  0
 10 34  1  0
 17 35  1  0
 18 36  1  0
 22 37  1  0
 23 38  1  0
 25 39  1  0
M  ISO  8  26  13  27  13  28  13  29  13  30  13  31  13  32  13  33  14
M  ISO  6  34  14  35  14  36  14  37  14  38  14  39  14
M  END
>  <minimizedAffinity>  (1) 
-4.02460766

>  <minimizedRMSD>  (1) 
0.208058879

$$$$
