
     RDKit          3D

 27 29  0  0  0  0  0  0  0  0999 V2000
   43.1750   33.3780   41.2210 N   0  0  0  0  0  0  0  0  0  0  0  0
   43.6880   32.1350   41.1230 C   0  0  0  0  0  0  0  0  0  0  0  0
   44.7810   32.0390   41.9180 N   0  0  0  0  0  0  0  0  0  0  0  0
   44.9870   33.2160   42.5390 C   0  0  0  0  0  0  0  0  0  0  0  0
   45.9470   33.6210   43.4310 C   0  0  0  0  0  0  0  0  0  0  0  0
   46.8750   32.8740   43.8440 O   0  0  0  0  0  0  0  0  0  0  0  0
   45.9180   34.8720   43.9020 N   0  0  0  0  0  0  0  0  0  0  0  0
   44.9360   35.6870   43.4750 C   0  0  0  0  0  0  0  0  0  0  0  0
   44.7570   37.0340   43.8690 N   0  0  0  0  0  0  0  0  0  0  0  0
   43.9920   35.2920   42.5980 N   0  0  0  0  0  0  0  0  0  0  0  0
   43.9700   34.0400   42.0890 C   0  0  0  0  0  0  0  0  0  0  0  0
   41.1720   35.3800   38.8400 C   0  0  0  0  0  0  0  0  0  0  0  0
   42.2760   34.7560   39.4330 C   0  0  0  0  0  0  0  0  0  0  0  0
   42.0530   34.0130   40.6150 C   0  0  0  0  0  0  0  0  0  0  0  0
   40.7960   33.9430   41.1070 N   0  0  0  0  0  0  0  0  0  0  0  0
   39.7570   34.5670   40.4940 C   0  0  0  0  0  0  0  0  0  0  0  0
   39.9350   35.2810   39.3690 N   0  0  0  0  0  0  0  0  0  0  0  0
   41.4180   36.1570   37.6010 C   0  0  0  0  0  0  0  0  0  0  0  0
   43.2831   31.3265   40.4966 H   0  0  0  0  0  0  0  0  0  0  0  0
   46.6268   35.2024   44.5723 H   0  0  0  0  0  0  0  0  0  0  0  0
   43.9729   37.5823   43.4877 H   0  0  0  0  0  0  0  0  0  0  0  0
   45.4108   37.4664   44.5372 H   0  0  0  0  0  0  0  0  0  0  0  0
   43.2814   34.8408   38.9948 H   0  0  0  0  0  0  0  0  0  0  0  0
   38.7490   34.4865   40.9270 H   0  0  0  0  0  0  0  0  0  0  0  0
   41.7403   37.1751   37.8646 H   0  0  0  0  0  0  0  0  0  0  0  0
   42.2043   35.6650   37.0097 H   0  0  0  0  0  0  0  0  0  0  0  0
   40.4918   36.2072   37.0097 H   0  0  0  0  0  0  0  0  0  0  0  0
  1 11  1  0
  2  1  1  0
  2  3  2  0
  3  4  1  0
  4  5  1  0
  5  6  2  0
  5  7  1  0
  8  9  1  0
  8  7  1  0
 10  8  2  0
 11  4  2  0
 11 10  1  0
 12 17  2  0
 12 13  1  0
 13 14  2  0
 14 15  1  0
 14  1  1  0
 16 15  2  0
 17 16  1  0
 18 12  1  0
  2 19  1  0
  7 20  1  0
  9 21  1  0
  9 22  1  0
 13 23  1  0
 16 24  1  0
 18 25  1  0
 18 26  1  0
 18 27  1  0
M  ISO  7  19  14  20   9  23  14  24  14  25   8  26   8  27   8
M  END
>  <minimizedAffinity>  (1) 
-5.12036848

>  <minimizedRMSD>  (1) 
6.30456305

$$$$
