
     RDKit          3D

 23 24  0  0  0  0  0  0  0  0999 V2000
   46.1520   34.5450   43.6200 C   0  0  0  0  0  0  0  0  0  0  0  0
   46.4700   33.6200   44.6170 C   0  0  0  0  0  0  0  0  0  0  0  0
   45.7870   33.6880   45.8280 C   0  0  0  0  0  0  0  0  0  0  0  0
   44.8480   34.6440   45.9840 N   0  0  0  0  0  0  0  0  0  0  0  0
   44.5590   35.5340   44.9910 C   0  0  0  0  0  0  0  0  0  0  0  0
   45.2040   35.4910   43.8120 N   0  0  0  0  0  0  0  0  0  0  0  0
   46.0210   32.7850   46.9480 C   0  0  0  0  0  0  0  0  0  0  0  0
   47.2230   32.1450   47.0160 C   0  0  0  0  0  0  0  0  0  0  0  0
   47.4740   31.2760   48.0770 C   0  0  0  0  0  0  0  0  0  0  0  0
   46.5260   31.0470   49.0690 C   0  0  0  0  0  0  0  0  0  0  0  0
   45.3080   31.6970   48.9990 C   0  0  0  0  0  0  0  0  0  0  0  0
   45.1030   32.5380   47.9450 C   0  0  0  0  0  0  0  0  0  0  0  0
   46.8970   34.4490   42.3400 C   0  0  0  0  0  0  0  0  0  0  0  0
   47.2426   32.8552   44.4491 H   0  0  0  0  0  0  0  0  0  0  0  0
   43.7861   36.2988   45.1576 H   0  0  0  0  0  0  0  0  0  0  0  0
   47.9865   32.3125   46.2421 H   0  0  0  0  0  0  0  0  0  0  0  0
   48.4438   30.7597   48.1309 H   0  0  0  0  0  0  0  0  0  0  0  0
   46.7428   30.3576   49.8983 H   0  0  0  0  0  0  0  0  0  0  0  0
   44.5334   31.5418   49.7644 H   0  0  0  0  0  0  0  0  0  0  0  0
   44.1346   33.0565   47.8868 H   0  0  0  0  0  0  0  0  0  0  0  0
   47.9682   34.3110   42.5487 H   0  0  0  0  0  0  0  0  0  0  0  0
   46.5227   33.5917   41.7613 H   0  0  0  0  0  0  0  0  0  0  0  0
   46.7523   35.3732   41.7613 H   0  0  0  0  0  0  0  0  0  0  0  0
  1  6  2  0
  1  2  1  0
  2  3  2  0
  3  4  1  0
  3  7  1  0
  5  4  2  0
  6  5  1  0
  7  8  2  0
  7 12  1  0
  8  9  1  0
  9 10  2  0
 11 10  1  0
 12 11  2  0
 13  1  1  0
  2 14  1  0
  5 15  1  0
  8 16  1  0
  9 17  1  0
 10 18  1  0
 11 19  1  0
 12 20  1  0
 13 21  1  0
 13 22  1  0
 13 23  1  0
M  ISO  8  14  14  15  14  16  14  17  14  18  14  19  14  20  14  21   8
M  ISO  2  22   8  23   8
M  END
>  <minimizedAffinity>  (1) 
-4.97369385

>  <minimizedRMSD>  (1) 
0.826516747

$$$$
