
     RDKit          3D

 26 27  0  0  0  0  0  0  0  0999 V2000
   46.1290   34.5560   43.7140 C   0  0  0  0  0  0  0  0  0  0  0  0
   46.4170   33.5250   44.6150 C   0  0  0  0  0  0  0  0  0  0  0  0
   45.7420   33.5180   45.8440 C   0  0  0  0  0  0  0  0  0  0  0  0
   44.8450   34.5150   46.0940 N   0  0  0  0  0  0  0  0  0  0  0  0
   44.6020   35.4880   45.1940 C   0  0  0  0  0  0  0  0  0  0  0  0
   45.2390   35.5220   43.9960 N   0  0  0  0  0  0  0  0  0  0  0  0
   45.9770   32.4860   46.8410 C   0  0  0  0  0  0  0  0  0  0  0  0
   44.9920   32.6180   48.0100 C   0  0  0  0  0  0  0  0  0  0  0  0
   45.6600   31.8100   49.1070 C   0  0  0  0  0  0  0  0  0  0  0  0
   47.0950   31.6190   48.7080 C   0  0  0  0  0  0  0  0  0  0  0  0
   47.3160   32.5200   47.5120 C   0  0  0  0  0  0  0  0  0  0  0  0
   46.8530   34.5570   42.4020 C   0  0  0  0  0  0  0  0  0  0  0  0
   47.1506   32.7438   44.3668 H   0  0  0  0  0  0  0  0  0  0  0  0
   43.8704   36.2730   45.4359 H   0  0  0  0  0  0  0  0  0  0  0  0
   45.8753   31.5636   46.2503 H   0  0  0  0  0  0  0  0  0  0  0  0
   44.8719   33.6695   48.3099 H   0  0  0  0  0  0  0  0  0  0  0  0
   43.9785   32.2666   47.7666 H   0  0  0  0  0  0  0  0  0  0  0  0
   45.6036   32.3527   50.0621 H   0  0  0  0  0  0  0  0  0  0  0  0
   45.1588   30.8395   49.2370 H   0  0  0  0  0  0  0  0  0  0  0  0
   47.7632   31.9072   49.5329 H   0  0  0  0  0  0  0  0  0  0  0  0
   47.3109   30.5676   48.4672 H   0  0  0  0  0  0  0  0  0  0  0  0
   48.1027   32.1234   46.8534 H   0  0  0  0  0  0  0  0  0  0  0  0
   47.6521   33.5332   47.7776 H   0  0  0  0  0  0  0  0  0  0  0  0
   47.9382   34.5585   42.5820 H   0  0  0  0  0  0  0  0  0  0  0  0
   46.5774   33.6585   41.8304 H   0  0  0  0  0  0  0  0  0  0  0  0
   46.5749   35.4548   41.8304 H   0  0  0  0  0  0  0  0  0  0  0  0
  1  6  2  0
  1  2  1  0
  2  3  2  0
  3  4  1  0
  3  7  1  0
  5  4  2  0
  6  5  1  0
  7 11  1  0
  7  8  1  0
  8  9  1  0
 10  9  1  0
 11 10  1  0
 12  1  1  0
  2 13  1  0
  5 14  1  0
  7 15  1  0
  8 16  1  0
  8 17  1  0
  9 18  1  0
  9 19  1  0
 10 20  1  0
 10 21  1  0
 11 22  1  0
 11 23  1  0
 12 24  1  0
 12 25  1  0
 12 26  1  0
M  ISO  8  13  14  14  14  15  13  16  13  17  13  18  13  19  13  20  13
M  ISO  6  21  13  22  13  23  13  24   8  25   8  26   8
M  END
>  <minimizedAffinity>  (1) 
-4.57542658

>  <minimizedRMSD>  (1) 
0.827245951

$$$$
