
     RDKit          3D

 26 27  0  0  0  0  0  0  0  0999 V2000
   46.0280   34.8560   43.2580 C   0  0  0  0  0  0  0  0  0  0  0  0
   46.3400   33.8910   44.2190 C   0  0  0  0  0  0  0  0  0  0  0  0
   45.6950   33.9430   45.4580 C   0  0  0  0  0  0  0  0  0  0  0  0
   44.7860   34.9500   45.6550 N   0  0  0  0  0  0  0  0  0  0  0  0
   44.5110   35.8660   44.6980 C   0  0  0  0  0  0  0  0  0  0  0  0
   45.1240   35.8280   43.5000 N   0  0  0  0  0  0  0  0  0  0  0  0
   45.9570   33.0010   46.4850 N   0  0  0  0  0  0  0  0  0  0  0  0
   45.1450   33.0160   47.6830 C   0  0  0  0  0  0  0  0  0  0  0  0
   45.7280   32.2200   48.8070 C   0  0  0  0  0  0  0  0  0  0  0  0
   46.9610   31.6650   48.5610 O   0  0  0  0  0  0  0  0  0  0  0  0
   46.9870   30.9890   47.3410 C   0  0  0  0  0  0  0  0  0  0  0  0
   47.0360   32.0640   46.2830 C   0  0  0  0  0  0  0  0  0  0  0  0
   46.7230   34.7830   41.9510 C   0  0  0  0  0  0  0  0  0  0  0  0
   47.0793   33.1052   44.0046 H   0  0  0  0  0  0  0  0  0  0  0  0
   43.7733   36.6559   44.9025 H   0  0  0  0  0  0  0  0  0  0  0  0
   45.0336   34.0586   48.0155 H   0  0  0  0  0  0  0  0  0  0  0  0
   44.1796   32.5555   47.4262 H   0  0  0  0  0  0  0  0  0  0  0  0
   45.8229   32.8838   49.6790 H   0  0  0  0  0  0  0  0  0  0  0  0
   45.0424   31.3747   48.9662 H   0  0  0  0  0  0  0  0  0  0  0  0
   47.8774   30.3462   47.2770 H   0  0  0  0  0  0  0  0  0  0  0  0
   46.1100   30.3364   47.2182 H   0  0  0  0  0  0  0  0  0  0  0  0
   46.9373   31.6027   45.2893 H   0  0  0  0  0  0  0  0  0  0  0  0
   47.9960   32.5966   46.3518 H   0  0  0  0  0  0  0  0  0  0  0  0
   47.8045   34.6694   42.1167 H   0  0  0  0  0  0  0  0  0  0  0  0
   46.3463   33.9195   41.3831 H   0  0  0  0  0  0  0  0  0  0  0  0
   46.5340   35.7059   41.3831 H   0  0  0  0  0  0  0  0  0  0  0  0
  1  6  2  0
  1  2  1  0
  2  3  2  0
  3  4  1  0
  3  7  1  0
  5  4  2  0
  6  5  1  0
  7  8  1  0
  8  9  1  0
 10  9  1  0
 11 10  1  0
 12  7  1  0
 12 11  1  0
 13  1  1  0
  2 14  1  0
  5 15  1  0
  8 16  1  0
  8 17  1  0
  9 18  1  0
  9 19  1  0
 11 20  1  0
 11 21  1  0
 12 22  1  0
 12 23  1  0
 13 24  1  0
 13 25  1  0
 13 26  1  0
M  ISO  8  14  14  15  14  16  13  17  13  18  13  19  13  20  13  21  13
M  ISO  5  22  13  23  13  24   8  25   8  26   8
M  END
>  <minimizedAffinity>  (1) 
-4.55085945

>  <minimizedRMSD>  (1) 
0.563120484

$$$$
