
     RDKit          3D

 26 27  0  0  0  0  0  0  0  0999 V2000
   47.8600   34.8510   41.6060 C   0  0  0  0  0  0  0  0  0  0  0  0
   47.7910   34.4280   42.9330 C   0  0  0  0  0  0  0  0  0  0  0  0
   46.7520   33.5690   43.2830 C   0  0  0  0  0  0  0  0  0  0  0  0
   45.8660   33.1880   42.3370 N   0  0  0  0  0  0  0  0  0  0  0  0
   45.9640   33.6220   41.0460 C   0  0  0  0  0  0  0  0  0  0  0  0
   46.9710   34.4610   40.6790 N   0  0  0  0  0  0  0  0  0  0  0  0
   46.2110   32.2480   47.2630 C   0  0  0  0  0  0  0  0  0  0  0  0
   45.5680   33.3630   46.7720 C   0  0  0  0  0  0  0  0  0  0  0  0
   45.7550   33.7870   45.4620 C   0  0  0  0  0  0  0  0  0  0  0  0
   46.6010   33.0830   44.6220 C   0  0  0  0  0  0  0  0  0  0  0  0
   47.2100   31.9940   45.1480 C   0  0  0  0  0  0  0  0  0  0  0  0
   47.0620   31.5270   46.4380 C   0  0  0  0  0  0  0  0  0  0  0  0
   45.9570   31.7370   48.9130 S   0  0  0  0  0  0  0  0  0  0  0  0
   44.6650   30.9710   48.9520 O   0  0  0  0  0  0  0  0  0  0  0  0
   47.0870   30.9170   49.4110 O   0  0  0  0  0  0  0  0  0  0  0  0
   48.9660   35.7640   41.2320 C   0  0  0  0  0  0  0  0  0  0  0  0
   48.5304   34.7607   43.6764 H   0  0  0  0  0  0  0  0  0  0  0  0
   45.2262   33.2923   40.2997 H   0  0  0  0  0  0  0  0  0  0  0  0
   44.8928   33.9292   47.4304 H   0  0  0  0  0  0  0  0  0  0  0  0
   45.2314   34.6811   45.0927 H   0  0  0  0  0  0  0  0  0  0  0  0
   47.8843   31.4301   44.4866 H   0  0  0  0  0  0  0  0  0  0  0  0
   47.5909   30.6304   46.7934 H   0  0  0  0  0  0  0  0  0  0  0  0
   45.8892   32.8280   49.7389 H   0  0  0  0  0  0  0  0  0  0  0  0
   49.4414   36.1565   42.1430 H   0  0  0  0  0  0  0  0  0  0  0  0
   49.7105   35.2139   40.6377 H   0  0  0  0  0  0  0  0  0  0  0  0
   48.5669   36.5992   40.6377 H   0  0  0  0  0  0  0  0  0  0  0  0
  1  2  2  0
  2  3  1  0
  3 10  1  0
  4  3  2  0
  5  4  1  0
  6  5  2  0
  6  1  1  0
  7 13  1  0
  8  7  2  0
  9  8  1  0
 10 11  1  0
 10  9  2  0
 11 12  2  0
 12  7  1  0
 13 14  2  0
 13 15  2  0
 16  1  1  0
  2 17  1  0
  5 18  1  0
  8 19  1  0
  9 20  1  0
 11 21  1  0
 12 22  1  0
 13 23  1  0
 16 24  1  0
 16 25  1  0
 16 26  1  0
M  ISO  8  17  14  18  14  19  14  20  14  21  14  22  14  23  11  24   8
M  ISO  2  25   8  26   8
M  END
>  <minimizedAffinity>  (1) 
-4.83301735

>  <minimizedRMSD>  (1) 
2.50879145

$$$$
