
     RDKit          3D

 19 20  0  0  0  0  0  0  0  0999 V2000
   46.0300   34.8690   43.2740 C   0  0  0  0  0  0  0  0  0  0  0  0
   46.3210   33.8960   44.2270 C   0  0  0  0  0  0  0  0  0  0  0  0
   45.6680   33.9480   45.4540 C   0  0  0  0  0  0  0  0  0  0  0  0
   44.7880   34.9520   45.6380 N   0  0  0  0  0  0  0  0  0  0  0  0
   44.5180   35.8830   44.7090 C   0  0  0  0  0  0  0  0  0  0  0  0
   45.1410   35.8450   43.5180 N   0  0  0  0  0  0  0  0  0  0  0  0
   45.9160   32.9560   46.5220 C   0  0  0  0  0  0  0  0  0  0  0  0
   46.9640   32.0130   46.3570 C   0  0  0  0  0  0  0  0  0  0  0  0
   46.8850   31.0170   47.9060 S   0  0  0  0  0  0  0  0  0  0  0  0
   45.4240   32.0820   48.5000 C   0  0  0  0  0  0  0  0  0  0  0  0
   45.2550   32.8250   47.6750 N   0  0  0  0  0  0  0  0  0  0  0  0
   46.7360   34.7910   41.9790 C   0  0  0  0  0  0  0  0  0  0  0  0
   47.0524   33.1025   44.0137 H   0  0  0  0  0  0  0  0  0  0  0  0
   43.7871   36.6769   44.9222 H   0  0  0  0  0  0  0  0  0  0  0  0
   47.6563   31.9031   45.5093 H   0  0  0  0  0  0  0  0  0  0  0  0
   44.8672   31.9900   49.4442 H   0  0  0  0  0  0  0  0  0  0  0  0
   47.8151   34.6718   42.1563 H   0  0  0  0  0  0  0  0  0  0  0  0
   46.3607   33.9288   41.4081 H   0  0  0  0  0  0  0  0  0  0  0  0
   46.5580   35.7143   41.4081 H   0  0  0  0  0  0  0  0  0  0  0  0
  1  6  2  0
  1  2  1  0
  2  3  2  0
  3  4  1  0
  3  7  1  0
  5  4  2  0
  6  5  1  0
  7 11  1  0
  8  7  2  0
  8  9  1  0
  9 10  1  0
 11 10  2  0
 12  1  1  0
  2 13  1  0
  5 14  1  0
  8 15  1  0
 10 16  1  0
 12 17  1  0
 12 18  1  0
 12 19  1  0
M  ISO  7  13  14  14  14  15  14  16  14  17   8  18   8  19   8
M  END
>  <minimizedAffinity>  (1) 
-4.37718725

>  <minimizedRMSD>  (1) 
0.489046752

$$$$
