
     RDKit          3D

 25 26  0  0  0  0  0  0  0  0999 V2000
   46.1000   34.8360   43.2740 C   0  0  0  0  0  0  0  0  0  0  0  0
   46.3860   33.8940   44.2890 C   0  0  0  0  0  0  0  0  0  0  0  0
   45.6820   33.9940   45.4910 C   0  0  0  0  0  0  0  0  0  0  0  0
   44.7690   34.9800   45.6270 N   0  0  0  0  0  0  0  0  0  0  0  0
   44.5170   35.8730   44.6300 C   0  0  0  0  0  0  0  0  0  0  0  0
   45.1770   35.8100   43.4480 N   0  0  0  0  0  0  0  0  0  0  0  0
   45.9360   33.0680   46.5390 N   0  0  0  0  0  0  0  0  0  0  0  0
   47.0380   32.1410   46.5680 C   0  0  0  0  0  0  0  0  0  0  0  0
   47.1140   31.7100   48.0200 C   0  0  0  0  0  0  0  0  0  0  0  0
   45.6560   31.7010   48.4120 C   0  0  0  0  0  0  0  0  0  0  0  0
   45.1230   32.9270   47.7240 C   0  0  0  0  0  0  0  0  0  0  0  0
   46.8570   34.7240   41.9870 C   0  0  0  0  0  0  0  0  0  0  0  0
   47.1394   33.1071   44.1366 H   0  0  0  0  0  0  0  0  0  0  0  0
   43.7642   36.6595   44.7870 H   0  0  0  0  0  0  0  0  0  0  0  0
   46.8415   31.2789   45.9136 H   0  0  0  0  0  0  0  0  0  0  0  0
   47.9770   32.5869   46.2082 H   0  0  0  0  0  0  0  0  0  0  0  0
   47.5622   30.7103   48.1188 H   0  0  0  0  0  0  0  0  0  0  0  0
   47.7415   32.3604   48.6471 H   0  0  0  0  0  0  0  0  0  0  0  0
   45.1531   30.7922   48.0497 H   0  0  0  0  0  0  0  0  0  0  0  0
   45.4958   31.7059   49.5003 H   0  0  0  0  0  0  0  0  0  0  0  0
   45.2256   33.8102   48.3716 H   0  0  0  0  0  0  0  0  0  0  0  0
   44.0530   32.8369   47.4851 H   0  0  0  0  0  0  0  0  0  0  0  0
   47.9242   34.5661   42.2019 H   0  0  0  0  0  0  0  0  0  0  0  0
   46.4700   33.8733   41.4068 H   0  0  0  0  0  0  0  0  0  0  0  0
   46.7329   35.6503   41.4068 H   0  0  0  0  0  0  0  0  0  0  0  0
  1  6  2  0
  1  2  1  0
  2  3  2  0
  3  4  1  0
  3  7  1  0
  5  4  2  0
  6  5  1  0
  7  8  1  0
  7 11  1  0
  8  9  1  0
  9 10  1  0
 11 10  1  0
 12  1  1  0
  2 13  1  0
  5 14  1  0
  8 15  1  0
  8 16  1  0
  9 17  1  0
  9 18  1  0
 10 19  1  0
 10 20  1  0
 11 21  1  0
 11 22  1  0
 12 23  1  0
 12 24  1  0
 12 25  1  0
M  ISO  8  13  14  14  14  15  13  16  13  17  13  18  13  19  13  20  13
M  ISO  5  21  13  22  13  23   8  24   8  25   8
M  END
>  <minimizedAffinity>  (1) 
-4.41191483

>  <minimizedRMSD>  (1) 
0.463625729

$$$$
