
     RDKit          3D

 25 25  0  0  0  0  0  0  0  0999 V2000
   45.5510   34.8470   43.8960 C   0  0  0  0  0  0  0  0  0  0  0  0
   46.5180   35.0090   42.9010 C   0  0  0  0  0  0  0  0  0  0  0  0
   47.6170   34.1450   42.8850 C   0  0  0  0  0  0  0  0  0  0  0  0
   47.6830   33.1890   43.8450 N   0  0  0  0  0  0  0  0  0  0  0  0
   46.7250   33.0530   44.8040 C   0  0  0  0  0  0  0  0  0  0  0  0
   45.6610   33.8840   44.8260 N   0  0  0  0  0  0  0  0  0  0  0  0
   44.3870   35.7750   43.8990 C   0  0  0  0  0  0  0  0  0  0  0  0
   48.6850   34.2640   41.8510 C   0  0  0  0  0  0  0  0  0  0  0  0
   49.1850   32.8350   41.6230 C   0  0  0  0  0  0  0  0  0  0  0  0
   48.2380   34.8760   40.5710 C   0  0  0  0  0  0  0  0  0  0  0  0
   49.8040   35.0660   42.4760 C   0  0  0  0  0  0  0  0  0  0  0  0
   46.4167   35.8012   42.1446 H   0  0  0  0  0  0  0  0  0  0  0  0
   46.8187   32.2629   45.5636 H   0  0  0  0  0  0  0  0  0  0  0  0
   44.1019   36.0023   44.9368 H   0  0  0  0  0  0  0  0  0  0  0  0
   44.6594   36.7065   43.3812 H   0  0  0  0  0  0  0  0  0  0  0  0
   43.5396   35.3020   43.3812 H   0  0  0  0  0  0  0  0  0  0  0  0
   49.3558   32.3470   42.5939 H   0  0  0  0  0  0  0  0  0  0  0  0
   48.4315   32.2690   41.0556 H   0  0  0  0  0  0  0  0  0  0  0  0
   50.1270   32.8623   41.0556 H   0  0  0  0  0  0  0  0  0  0  0  0
   47.6015   35.7475   40.7839 H   0  0  0  0  0  0  0  0  0  0  0  0
   49.1163   35.1963   39.9913 H   0  0  0  0  0  0  0  0  0  0  0  0
   47.6657   34.1368   39.9913 H   0  0  0  0  0  0  0  0  0  0  0  0
   49.7269   35.0108   43.5719 H   0  0  0  0  0  0  0  0  0  0  0  0
   50.7728   34.6554   42.1554 H   0  0  0  0  0  0  0  0  0  0  0  0
   49.7264   36.1154   42.1554 H   0  0  0  0  0  0  0  0  0  0  0  0
  1  7  1  0
  1  6  2  0
  2  1  1  0
  3  2  2  0
  3  4  1  0
  4  5  2  0
  5  6  1  0
  8 11  1  0
  8  3  1  0
  9  8  1  0
 10  8  1  0
  2 12  1  0
  5 13  1  0
  7 14  1  0
  7 15  1  0
  7 16  1  0
  9 17  1  0
  9 18  1  0
  9 19  1  0
 10 20  1  0
 10 21  1  0
 10 22  1  0
 11 23  1  0
 11 24  1  0
 11 25  1  0
M  ISO  8  12  14  13  14  14   8  15   8  16   8  17   8  18   8  19   8
M  ISO  6  20   8  21   8  22   8  23   8  24   8  25   8
M  END
>  <minimizedAffinity>  (1) 
-4.0433836

>  <minimizedRMSD>  (1) 
4.55424881

$$$$
