
     RDKit          3D

 14 14  0  0  0  0  0  0  0  0999 V2000
   46.1850   34.8870   43.1770 C   0  0  0  0  0  0  0  0  0  0  0  0
   46.4370   33.9130   44.1460 C   0  0  0  0  0  0  0  0  0  0  0  0
   45.7130   33.9820   45.3350 C   0  0  0  0  0  0  0  0  0  0  0  0
   44.7980   34.9910   45.4980 N   0  0  0  0  0  0  0  0  0  0  0  0
   44.5920   35.9120   44.5210 C   0  0  0  0  0  0  0  0  0  0  0  0
   45.2830   35.8660   43.3580 N   0  0  0  0  0  0  0  0  0  0  0  0
   46.9660   34.8020   41.9090 C   0  0  0  0  0  0  0  0  0  0  0  0
   46.0620   32.7340   46.5330 S   0  0  0  0  0  0  0  0  0  0  0  0
   47.1802   33.1199   43.9768 H   0  0  0  0  0  0  0  0  0  0  0  0
   43.8505   36.7093   44.6777 H   0  0  0  0  0  0  0  0  0  0  0  0
   48.0344   34.6857   42.1435 H   0  0  0  0  0  0  0  0  0  0  0  0
   46.6226   33.9359   41.3242 H   0  0  0  0  0  0  0  0  0  0  0  0
   46.8169   35.7217   41.3242 H   0  0  0  0  0  0  0  0  0  0  0  0
   45.9162   33.2555   47.7914 H   0  0  0  0  0  0  0  0  0  0  0  0
  1  6  2  0
  1  2  1  0
  2  3  2  0
  3  4  1  0
  3  8  1  0
  5  4  2  0
  6  5  1  0
  7  1  1  0
  2  9  1  0
  5 10  1  0
  7 11  1  0
  7 12  1  0
  7 13  1  0
  8 14  1  0
M  ISO  6   9  14  10  14  11   8  12   8  13   8  14  11
M  END
>  <minimizedAffinity>  (1) 
-3.3599124

>  <minimizedRMSD>  (1) 
0.138112977

$$$$
