
     RDKit          3D

 20 21  0  0  0  0  0  0  0  0999 V2000
   46.1190   34.8550   43.2480 C   0  0  0  0  0  0  0  0  0  0  0  0
   46.3340   33.9310   44.2890 C   0  0  0  0  0  0  0  0  0  0  0  0
   45.5980   34.0810   45.4670 C   0  0  0  0  0  0  0  0  0  0  0  0
   44.7110   35.1040   45.5590 N   0  0  0  0  0  0  0  0  0  0  0  0
   44.5270   35.9730   44.5450 C   0  0  0  0  0  0  0  0  0  0  0  0
   45.2200   35.8670   43.3790 N   0  0  0  0  0  0  0  0  0  0  0  0
   45.8750   33.1170   46.4550 N   0  0  0  0  0  0  0  0  0  0  0  0
   45.2110   32.8830   47.6150 C   0  0  0  0  0  0  0  0  0  0  0  0
   45.8670   31.8320   48.2440 C   0  0  0  0  0  0  0  0  0  0  0  0
   46.8890   31.4750   47.4540 N   0  0  0  0  0  0  0  0  0  0  0  0
   46.9130   32.2460   46.3540 C   0  0  0  0  0  0  0  0  0  0  0  0
   46.9000   34.6950   41.9990 C   0  0  0  0  0  0  0  0  0  0  0  0
   47.0616   33.1135   44.1776 H   0  0  0  0  0  0  0  0  0  0  0  0
   43.7982   36.7884   44.6633 H   0  0  0  0  0  0  0  0  0  0  0  0
   44.3257   33.4207   47.9853 H   0  0  0  0  0  0  0  0  0  0  0  0
   45.5980   31.3782   49.2092 H   0  0  0  0  0  0  0  0  0  0  0  0
   47.6364   32.1839   45.5276 H   0  0  0  0  0  0  0  0  0  0  0  0
   47.9497   34.4800   42.2479 H   0  0  0  0  0  0  0  0  0  0  0  0
   46.4848   33.8633   41.4109 H   0  0  0  0  0  0  0  0  0  0  0  0
   46.8453   35.6230   41.4109 H   0  0  0  0  0  0  0  0  0  0  0  0
  1  6  2  0
  1  2  1  0
  2  3  2  0
  3  4  1  0
  3  7  1  0
  5  4  2  0
  6  5  1  0
  7  8  1  0
  8  9  2  0
 10  9  1  0
 11  7  1  0
 11 10  2  0
 12  1  1  0
  2 13  1  0
  5 14  1  0
  8 15  1  0
  9 16  1  0
 11 17  1  0
 12 18  1  0
 12 19  1  0
 12 20  1  0
M  ISO  8  13  14  14  14  15  14  16  14  17  14  18   8  19   8  20   8
M  END
>  <minimizedAffinity>  (1) 
-4.25325727

>  <minimizedRMSD>  (1) 
0.515830696

$$$$
