
     RDKit          3D

 36 39  0  0  0  0  0  0  0  0999 V2000
   45.9310   34.7200   43.2960 C   0  0  0  0  0  0  0  0  0  0  0  0
   46.1850   33.8110   44.3420 C   0  0  0  0  0  0  0  0  0  0  0  0
   45.5540   33.9990   45.5680 C   0  0  0  0  0  0  0  0  0  0  0  0
   44.7120   35.0650   45.7010 N   0  0  0  0  0  0  0  0  0  0  0  0
   44.4790   35.9200   44.6960 C   0  0  0  0  0  0  0  0  0  0  0  0
   45.0750   35.7630   43.5010 N   0  0  0  0  0  0  0  0  0  0  0  0
   45.8580   33.0530   46.5580 N   0  0  0  0  0  0  0  0  0  0  0  0
   45.2420   32.8410   47.7540 C   0  0  0  0  0  0  0  0  0  0  0  0
   45.9110   31.8030   48.3620 C   0  0  0  0  0  0  0  0  0  0  0  0
   46.8960   31.4220   47.5260 N   0  0  0  0  0  0  0  0  0  0  0  0
   46.8740   32.1740   46.4230 C   0  0  0  0  0  0  0  0  0  0  0  0
   46.6050   34.4900   42.0020 C   0  0  0  0  0  0  0  0  0  0  0  0
   47.9930   33.9890   42.1120 C   0  0  0  0  0  0  0  0  0  0  0  0
   48.9530   34.9510   42.4330 C   0  0  0  0  0  0  0  0  0  0  0  0
   50.2940   34.6400   42.5370 C   0  0  0  0  0  0  0  0  0  0  0  0
   50.7520   33.3560   42.3270 C   0  0  0  0  0  0  0  0  0  0  0  0
   49.8220   32.3860   42.0100 C   0  0  0  0  0  0  0  0  0  0  0  0
   50.1820   31.0710   41.7930 C   0  0  0  0  0  0  0  0  0  0  0  0
   49.2120   30.1070   41.4850 C   0  0  0  0  0  0  0  0  0  0  0  0
   47.8660   30.4560   41.3900 C   0  0  0  0  0  0  0  0  0  0  0  0
   47.5530   31.7660   41.6110 C   0  0  0  0  0  0  0  0  0  0  0  0
   48.4910   32.7280   41.9140 C   0  0  0  0  0  0  0  0  0  0  0  0
   46.8720   32.9651   44.1918 H   0  0  0  0  0  0  0  0  0  0  0  0
   43.7897   36.7631   44.8509 H   0  0  0  0  0  0  0  0  0  0  0  0
   44.3786   33.3917   48.1556 H   0  0  0  0  0  0  0  0  0  0  0  0
   45.6839   31.3666   49.3458 H   0  0  0  0  0  0  0  0  0  0  0  0
   47.5565   32.0926   45.5642 H   0  0  0  0  0  0  0  0  0  0  0  0
   46.6264   35.4424   41.4520 H   0  0  0  0  0  0  0  0  0  0  0  0
   46.0304   33.7069   41.4856 H   0  0  0  0  0  0  0  0  0  0  0  0
   48.6309   35.9881   42.6083 H   0  0  0  0  0  0  0  0  0  0  0  0
   51.0124   35.4328   42.7927 H   0  0  0  0  0  0  0  0  0  0  0  0
   51.8217   33.1131   42.4093 H   0  0  0  0  0  0  0  0  0  0  0  0
   51.2397   30.7770   41.8624 H   0  0  0  0  0  0  0  0  0  0  0  0
   49.5165   29.0635   41.3164 H   0  0  0  0  0  0  0  0  0  0  0  0
   47.0931   29.7115   41.1485 H   0  0  0  0  0  0  0  0  0  0  0  0
   46.4977   32.0690   41.5437 H   0  0  0  0  0  0  0  0  0  0  0  0
  1  6  1  0
  1  2  2  0
  2  3  1  0
  3  4  2  0
  3  7  1  0
  5  4  1  0
  6  5  2  0
  7  8  1  0
  8  9  2  0
 10  9  1  0
 11  7  1  0
 11 10  2  0
 12 13  1  0
 12  1  1  0
 13 14  2  0
 14 15  1  0
 16 15  2  0
 17 16  1  0
 18 17  2  0
 19 18  1  0
 20 19  2  0
 20 21  1  0
 21 22  2  0
 22 17  1  0
 22 13  1  0
  2 23  1  0
  5 24  1  0
  8 25  1  0
  9 26  1  0
 11 27  1  0
 12 28  1  0
 12 29  1  0
 14 30  1  0
 15 31  1  0
 16 32  1  0
 18 33  1  0
 19 34  1  0
 20 35  1  0
 21 36  1  0
M  ISO  8  23  14  24  14  25  14  26  14  27  14  28   8  29   8  30  14
M  ISO  6  31  14  32  14  33  14  34  14  35  14  36  14
M  END
>  <minimizedAffinity>  (1) 
-6.35771799

>  <minimizedRMSD>  (1) 
2.10647488

$$$$
