
     RDKit          3D

 30 32  0  0  0  0  0  0  0  0999 V2000
   45.8030   34.8320   43.2000 C   0  0  0  0  0  0  0  0  0  0  0  0
   46.1060   33.8860   44.1970 C   0  0  0  0  0  0  0  0  0  0  0  0
   45.5530   34.0480   45.4590 C   0  0  0  0  0  0  0  0  0  0  0  0
   44.7340   35.1190   45.6900 N   0  0  0  0  0  0  0  0  0  0  0  0
   44.4710   35.9980   44.7140 C   0  0  0  0  0  0  0  0  0  0  0  0
   44.9920   35.8810   43.4530 N   0  0  0  0  0  0  0  0  0  0  0  0
   45.9020   33.0610   46.4100 N   0  0  0  0  0  0  0  0  0  0  0  0
   45.3060   32.7810   47.5960 C   0  0  0  0  0  0  0  0  0  0  0  0
   46.0210   31.7390   48.1470 C   0  0  0  0  0  0  0  0  0  0  0  0
   47.0100   31.4300   47.2850 N   0  0  0  0  0  0  0  0  0  0  0  0
   46.9630   32.2270   46.2070 C   0  0  0  0  0  0  0  0  0  0  0  0
   46.4060   34.6360   41.8720 C   0  0  0  0  0  0  0  0  0  0  0  0
   47.6640   33.9460   41.9040 N   0  0  0  0  0  0  0  0  0  0  0  0
   47.8070   32.6080   42.0020 C   0  0  0  0  0  0  0  0  0  0  0  0
   49.0810   32.0680   42.0220 C   0  0  0  0  0  0  0  0  0  0  0  0
   50.1810   32.9190   41.9390 C   0  0  0  0  0  0  0  0  0  0  0  0
   51.3530   32.4750   41.9530 O   0  0  0  0  0  0  0  0  0  0  0  0
   49.9920   34.2460   41.8410 N   0  0  0  0  0  0  0  0  0  0  0  0
   48.7340   34.7700   41.8230 C   0  0  0  0  0  0  0  0  0  0  0  0
   48.6750   36.0250   41.7290 O   0  0  0  0  0  0  0  0  0  0  0  0
   46.7682   33.0349   43.9799 H   0  0  0  0  0  0  0  0  0  0  0  0
   43.8094   36.8487   44.9345 H   0  0  0  0  0  0  0  0  0  0  0  0
   44.4293   33.2838   48.0303 H   0  0  0  0  0  0  0  0  0  0  0  0
   45.8212   31.2501   49.1119 H   0  0  0  0  0  0  0  0  0  0  0  0
   47.6392   32.2115   45.3395 H   0  0  0  0  0  0  0  0  0  0  0  0
   46.5634   35.6233   41.4133 H   0  0  0  0  0  0  0  0  0  0  0  0
   45.7112   34.0094   41.2936 H   0  0  0  0  0  0  0  0  0  0  0  0
   46.9235   31.9557   42.0651 H   0  0  0  0  0  0  0  0  0  0  0  0
   49.2234   30.9802   42.1024 H   0  0  0  0  0  0  0  0  0  0  0  0
   50.8064   34.8735   41.7788 H   0  0  0  0  0  0  0  0  0  0  0  0
  1  6  1  0
  1  2  2  0
  2  3  1  0
  3  4  2  0
  3  7  1  0
  5  4  1  0
  6  5  2  0
  7  8  1  0
  8  9  2  0
 10  9  1  0
 11  7  1  0
 11 10  2  0
 12 13  1  0
 12  1  1  0
 13 14  1  0
 14 15  2  0
 16 17  2  0
 16 15  1  0
 18 16  1  0
 19 18  1  0
 19 13  1  0
 20 19  2  0
  2 21  1  0
  5 22  1  0
  8 23  1  0
  9 24  1  0
 11 25  1  0
 12 26  1  0
 12 27  1  0
 14 28  1  0
 15 29  1  0
 18 30  1  0
M  ISO  8  21  14  22  14  23  14  24  14  25  14  26   8  27   8  28  14
M  ISO  2  29  14  30   9
M  END
>  <minimizedAffinity>  (1) 
-5.84457207

>  <minimizedRMSD>  (1) 
2.07819676

$$$$
