
     RDKit          3D

 30 32  0  0  0  0  0  0  0  0999 V2000
   45.9010   34.6680   43.3060 C   0  0  0  0  0  0  0  0  0  0  0  0
   46.1730   33.7540   44.3360 C   0  0  0  0  0  0  0  0  0  0  0  0
   45.5580   33.9780   45.5650 C   0  0  0  0  0  0  0  0  0  0  0  0
   44.7320   35.0590   45.7100 N   0  0  0  0  0  0  0  0  0  0  0  0
   44.4990   35.9090   44.6970 C   0  0  0  0  0  0  0  0  0  0  0  0
   45.0810   35.7270   43.4770 N   0  0  0  0  0  0  0  0  0  0  0  0
   45.8520   33.0480   46.5710 N   0  0  0  0  0  0  0  0  0  0  0  0
   45.2380   32.8140   47.7570 C   0  0  0  0  0  0  0  0  0  0  0  0
   45.9360   31.7800   48.3730 C   0  0  0  0  0  0  0  0  0  0  0  0
   46.9350   31.4240   47.5550 N   0  0  0  0  0  0  0  0  0  0  0  0
   46.9070   32.1850   46.4450 C   0  0  0  0  0  0  0  0  0  0  0  0
   46.5370   34.4610   41.9920 C   0  0  0  0  0  0  0  0  0  0  0  0
   47.9480   34.0160   42.0900 C   0  0  0  0  0  0  0  0  0  0  0  0
   48.3880   32.7200   41.9010 C   0  0  0  0  0  0  0  0  0  0  0  0
   49.7350   32.4390   42.0200 C   0  0  0  0  0  0  0  0  0  0  0  0
   50.6440   33.4300   42.3260 C   0  0  0  0  0  0  0  0  0  0  0  0
   50.2330   34.7410   42.5220 C   0  0  0  0  0  0  0  0  0  0  0  0
   48.8740   35.0130   42.3990 C   0  0  0  0  0  0  0  0  0  0  0  0
   46.8440   32.8966   44.1788 H   0  0  0  0  0  0  0  0  0  0  0  0
   43.8277   36.7662   44.8536 H   0  0  0  0  0  0  0  0  0  0  0  0
   44.3579   33.3401   48.1553 H   0  0  0  0  0  0  0  0  0  0  0  0
   45.7088   31.3358   49.3533 H   0  0  0  0  0  0  0  0  0  0  0  0
   47.6025   32.1246   45.5949 H   0  0  0  0  0  0  0  0  0  0  0  0
   46.5073   35.4096   41.4358 H   0  0  0  0  0  0  0  0  0  0  0  0
   45.9776   33.6643   41.4798 H   0  0  0  0  0  0  0  0  0  0  0  0
   47.6729   31.9202   41.6582 H   0  0  0  0  0  0  0  0  0  0  0  0
   50.0884   31.4084   41.8683 H   0  0  0  0  0  0  0  0  0  0  0  0
   51.7108   33.1775   42.4161 H   0  0  0  0  0  0  0  0  0  0  0  0
   50.9543   35.5350   42.7654 H   0  0  0  0  0  0  0  0  0  0  0  0
   48.5195   36.0434   42.5496 H   0  0  0  0  0  0  0  0  0  0  0  0
  1  6  1  0
  1  2  2  0
  2  3  1  0
  3  4  2  0
  3  7  1  0
  5  4  1  0
  6  5  2  0
  7  8  1  0
  8  9  2  0
 10  9  1  0
 11  7  1  0
 11 10  2  0
 12 13  1  0
 12  1  1  0
 13 18  2  0
 14 15  2  0
 14 13  1  0
 15 16  1  0
 16 17  2  0
 18 17  1  0
  2 19  1  0
  5 20  1  0
  8 21  1  0
  9 22  1  0
 11 23  1  0
 12 24  1  0
 12 25  1  0
 14 26  1  0
 15 27  1  0
 16 28  1  0
 17 29  1  0
 18 30  1  0
M  ISO  8  19  14  20  14  21  14  22  14  23  14  24   8  25   8  26  14
M  ISO  4  27  14  28  14  29  14  30  14
M  END
>  <minimizedAffinity>  (1) 
-5.95985365

>  <minimizedRMSD>  (1) 
1.67508292

$$$$
