
     RDKit          3D

 47 51  0  0  1  0  0  0  0  0999 V2000
   45.9340   30.8130   47.4020 C   0  0  2  0  0  0  0  0  0  0  0  0
   44.7920   34.6950   46.0570 C   0  0  0  0  0  0  0  0  0  0  0  0
   44.6770   35.3450   44.8340 C   0  0  0  0  0  0  0  0  0  0  0  0
   45.2910   34.7630   43.7130 C   0  0  0  0  0  0  0  0  0  0  0  0
   45.9680   33.5980   43.8710 N   0  0  0  0  0  0  0  0  0  0  0  0
   46.0680   32.9750   45.0860 C   0  0  0  0  0  0  0  0  0  0  0  0
   45.4780   33.5380   46.1520 N   0  0  0  0  0  0  0  0  0  0  0  0
   46.7700   31.7690   45.2770 N   0  0  0  0  0  0  0  0  0  0  0  0
   47.6740   31.4450   44.3050 C   0  0  0  0  0  0  0  0  0  0  0  0
   48.2370   30.2290   44.7270 C   0  0  0  0  0  0  0  0  0  0  0  0
   47.6670   29.8690   45.9140 N   0  0  0  0  0  0  0  0  0  0  0  0
   46.7770   30.8230   46.2250 C   0  0  0  0  0  0  0  0  0  0  0  0
   46.7690   31.4590   48.5460 C   0  0  0  0  0  0  0  0  0  0  0  0
   45.6180   29.4190   47.8460 C   0  0  0  0  0  0  0  0  0  0  0  0
   44.7030   28.7420   46.9960 N   0  0  0  0  0  0  0  0  0  0  0  0
   44.0750   29.2790   45.9510 N   0  0  0  0  0  0  0  0  0  0  0  0
   43.2840   28.3390   45.3920 C   0  0  0  0  0  0  0  0  0  0  0  0
   43.4070   27.1560   46.1020 C   0  0  0  0  0  0  0  0  0  0  0  0
   44.3220   27.4430   47.1210 C   0  0  0  0  0  0  0  0  0  0  0  0
   44.8340   26.5600   48.1590 C   0  0  0  0  0  0  0  0  0  0  0  0
   44.0490   26.4960   49.2550 N   0  0  0  0  0  0  0  0  0  0  0  0
   44.3310   25.7440   50.3360 C   0  0  0  0  0  0  0  0  0  0  0  0
   45.4560   25.0060   50.3410 N   0  0  0  0  0  0  0  0  0  0  0  0
   46.2840   25.0230   49.2800 C   0  0  0  0  0  0  0  0  0  0  0  0
   47.4600   24.3080   49.1950 C   0  0  0  0  0  0  0  0  0  0  0  0
   48.2610   24.3830   48.0740 C   0  0  0  0  0  0  0  0  0  0  0  0
   47.9230   25.1830   46.9760 C   0  0  0  0  0  0  0  0  0  0  0  0
   46.7590   25.8930   47.0560 C   0  0  0  0  0  0  0  0  0  0  0  0
   45.9770   25.8010   48.1840 C   0  0  0  0  0  0  0  0  0  0  0  0
   44.9953   31.3400   47.1759 H   0  0  0  0  0  0  0  0  0  0  0  0
   44.3209   35.1267   46.9524 H   0  0  0  0  0  0  0  0  0  0  0  0
   44.1202   36.2896   44.7464 H   0  0  0  0  0  0  0  0  0  0  0  0
   45.2242   35.2428   42.7254 H   0  0  0  0  0  0  0  0  0  0  0  0
   47.9093   32.0120   43.3922 H   0  0  0  0  0  0  0  0  0  0  0  0
   49.0101   29.6604   44.1893 H   0  0  0  0  0  0  0  0  0  0  0  0
   46.3629   31.1448   49.5188 H   0  0  0  0  0  0  0  0  0  0  0  0
   47.8167   31.1340   48.4638 H   0  0  0  0  0  0  0  0  0  0  0  0
   46.7175   32.5547   48.4638 H   0  0  0  0  0  0  0  0  0  0  0  0
   46.5549   28.8434   47.8761 H   0  0  0  0  0  0  0  0  0  0  0  0
   45.1411   29.4970   48.8342 H   0  0  0  0  0  0  0  0  0  0  0  0
   42.6425   28.4888   44.5111 H   0  0  0  0  0  0  0  0  0  0  0  0
   42.8973   26.2008   45.9075 H   0  0  0  0  0  0  0  0  0  0  0  0
   43.6521   25.7333   51.2015 H   0  0  0  0  0  0  0  0  0  0  0  0
   47.7648   23.6669   50.0353 H   0  0  0  0  0  0  0  0  0  0  0  0
   49.1917   23.7975   48.0422 H   0  0  0  0  0  0  0  0  0  0  0  0
   48.5677   25.2375   46.0864 H   0  0  0  0  0  0  0  0  0  0  0  0
   46.4475   26.5369   46.2203 H   0  0  0  0  0  0  0  0  0  0  0  0
  1 14  1  0
  1 13  1  0
  2  7  2  0
  3  2  1  0
  4  5  1  0
  4  3  2  0
  5  6  2  0
  6  8  1  0
  6  7  1  0
  8 12  1  0
  9 10  2  0
  9  8  1  0
 10 11  1  0
 11 12  2  0
 12  1  1  0
 15 19  1  0
 15 14  1  0
 16 15  1  0
 17 16  2  0
 17 18  1  0
 18 19  2  0
 19 20  1  0
 20 29  1  0
 20 21  2  0
 21 22  1  0
 22 23  2  0
 24 23  1  0
 25 24  2  0
 26 25  1  0
 27 28  1  0
 27 26  2  0
 28 29  2  0
 29 24  1  0
  1 30  1  6
  2 31  1  0
  3 32  1  0
  4 33  1  0
  9 34  1  0
 10 35  1  0
 13 36  1  0
 13 37  1  0
 13 38  1  0
 14 39  1  0
 14 40  1  0
 17 41  1  0
 18 42  1  0
 22 43  1  0
 25 44  1  0
 26 45  1  0
 27 46  1  0
 28 47  1  0
M  ISO  8  30   8  31  14  32  14  33  14  34  14  35  14  36   8  37   8
M  ISO  8  38   8  39   8  40   8  41  14  42  14  43  14  44  14  45  14
M  ISO  2  46  14  47  14
M  END
>  <minimizedAffinity>  (1) 
-5.38795042

>  <minimizedRMSD>  (1) 
1.4930464

$$$$
