
     RDKit          3D

 27 28  0  0  0  0  0  0  0  0999 V2000
   46.0080   34.6290   43.3700 C   0  0  0  0  0  0  0  0  0  0  0  0
   46.2560   33.7400   44.4240 C   0  0  0  0  0  0  0  0  0  0  0  0
   45.5770   33.9610   45.6380 C   0  0  0  0  0  0  0  0  0  0  0  0
   44.7180   35.0180   45.7300 N   0  0  0  0  0  0  0  0  0  0  0  0
   44.5190   35.8370   44.6910 C   0  0  0  0  0  0  0  0  0  0  0  0
   45.1440   35.6740   43.4990 N   0  0  0  0  0  0  0  0  0  0  0  0
   45.8600   33.0420   46.6670 N   0  0  0  0  0  0  0  0  0  0  0  0
   45.1600   32.7780   47.7920 C   0  0  0  0  0  0  0  0  0  0  0  0
   45.8720   31.7990   48.4560 C   0  0  0  0  0  0  0  0  0  0  0  0
   46.9680   31.5030   47.7230 N   0  0  0  0  0  0  0  0  0  0  0  0
   46.9790   32.2560   46.6210 C   0  0  0  0  0  0  0  0  0  0  0  0
   46.7300   34.3820   42.1090 C   0  0  0  0  0  0  0  0  0  0  0  0
   47.9940   35.0950   42.1790 N   0  0  0  0  0  0  0  0  0  0  0  0
   49.2080   34.4230   42.4860 C   0  0  0  0  0  0  0  0  0  0  0  0
   49.2430   33.1530   42.2790 N   0  0  0  0  0  0  0  0  0  0  0  0
   50.2910   35.1980   42.9980 N   0  0  0  0  0  0  0  0  0  0  0  0
   50.1630   32.6980   42.5220 H   0  0  0  0  0  0  0  0  0  0  0  0
   46.9560   32.8995   44.3076 H   0  0  0  0  0  0  0  0  0  0  0  0
   43.8192   36.6775   44.8088 H   0  0  0  0  0  0  0  0  0  0  0  0
   44.2177   33.2462   48.1126 H   0  0  0  0  0  0  0  0  0  0  0  0
   45.5949   31.3392   49.4161 H   0  0  0  0  0  0  0  0  0  0  0  0
   47.7413   32.2465   45.8281 H   0  0  0  0  0  0  0  0  0  0  0  0
   46.1375   34.7516   41.2591 H   0  0  0  0  0  0  0  0  0  0  0  0
   46.9017   33.3048   41.9670 H   0  0  0  0  0  0  0  0  0  0  0  0
   48.0106   36.1096   42.0023 H   0  0  0  0  0  0  0  0  0  0  0  0
   51.1851   34.7428   43.2310 H   0  0  0  0  0  0  0  0  0  0  0  0
   50.1787   36.2127   43.1346 H   0  0  0  0  0  0  0  0  0  0  0  0
  1  6  2  0
  1  2  1  0
  2  3  2  0
  3  4  1  0
  3  7  1  0
  5  4  2  0
  6  5  1  0
  7  8  1  0
  8  9  2  0
 10  9  1  0
 11  7  1  0
 11 10  2  0
 12 13  1  0
 12  1  1  0
 13 14  1  0
 14 16  1  0
 15 14  2  0
 15 17  1  0
  2 18  1  0
  5 19  1  0
  8 20  1  0
  9 21  1  0
 11 22  1  0
 12 23  1  0
 12 24  1  0
 13 25  1  0
 16 26  1  0
 16 27  1  0
M  ISO  7  18  14  19  14  20  14  21  14  22  14  23   8  24   8
M  END
>  <minimizedAffinity>  (1) 
-5.42449856

>  <minimizedRMSD>  (1) 
2.257025

$$$$
