
     RDKit          3D

 27 29  0  0  0  0  0  0  0  0999 V2000
   46.4800   34.2380   43.7310 C   0  0  0  0  0  0  0  0  0  0  0  0
   46.6120   33.4370   44.8710 C   0  0  0  0  0  0  0  0  0  0  0  0
   45.7580   33.6720   45.9530 C   0  0  0  0  0  0  0  0  0  0  0  0
   44.8270   34.6710   45.8610 N   0  0  0  0  0  0  0  0  0  0  0  0
   44.7240   35.4280   44.7440 C   0  0  0  0  0  0  0  0  0  0  0  0
   45.5390   35.2300   43.6690 N   0  0  0  0  0  0  0  0  0  0  0  0
   45.9570   32.8260   47.0600 N   0  0  0  0  0  0  0  0  0  0  0  0
   45.1300   32.6080   48.1140 C   0  0  0  0  0  0  0  0  0  0  0  0
   45.7940   31.6850   48.9320 C   0  0  0  0  0  0  0  0  0  0  0  0
   46.9720   31.3960   48.3390 N   0  0  0  0  0  0  0  0  0  0  0  0
   47.0950   32.0820   47.1930 C   0  0  0  0  0  0  0  0  0  0  0  0
   47.3610   34.0060   42.5810 C   0  0  0  0  0  0  0  0  0  0  0  0
   47.6510   35.1950   41.7340 C   0  0  0  0  0  0  0  0  0  0  0  0
   48.4310   34.9940   40.4280 C   0  0  0  0  0  0  0  0  0  0  0  0
   49.0080   35.7690   41.6040 C   0  0  0  0  0  0  0  0  0  0  0  0
   47.3700   32.6410   44.9148 H   0  0  0  0  0  0  0  0  0  0  0  0
   43.9643   36.2224   44.7023 H   0  0  0  0  0  0  0  0  0  0  0  0
   44.1434   33.0618   48.2893 H   0  0  0  0  0  0  0  0  0  0  0  0
   45.4241   31.2719   49.8820 H   0  0  0  0  0  0  0  0  0  0  0  0
   47.9458   32.0515   46.4965 H   0  0  0  0  0  0  0  0  0  0  0  0
   48.3187   33.6221   42.9622 H   0  0  0  0  0  0  0  0  0  0  0  0
   46.8221   33.3014   41.9305 H   0  0  0  0  0  0  0  0  0  0  0  0
   46.6803   35.6223   42.0257 H   0  0  0  0  0  0  0  0  0  0  0  0
   48.1256   35.5204   39.5116 H   0  0  0  0  0  0  0  0  0  0  0  0
   48.7441   34.1329   39.8193 H   0  0  0  0  0  0  0  0  0  0  0  0
   49.8393   35.3418   42.1841 H   0  0  0  0  0  0  0  0  0  0  0  0
   49.4319   36.7765   41.7273 H   0  0  0  0  0  0  0  0  0  0  0  0
  1  2  2  0
  2  3  1  0
  3  7  1  0
  4  3  2  0
  5  4  1  0
  6  1  1  0
  6  5  2  0
  7 11  1  0
  7  8  1  0
  8  9  2  0
 10  9  1  0
 11 10  2  0
 12  1  1  0
 13 12  1  0
 14 15  1  0
 14 13  1  0
 15 13  1  0
  2 16  1  0
  5 17  1  0
  8 18  1  0
  9 19  1  0
 11 20  1  0
 12 21  1  0
 12 22  1  0
 13 23  1  0
 14 24  1  0
 14 25  1  0
 15 26  1  0
 15 27  1  0
M  ISO  8  16  14  17  14  18  14  19  14  20  14  21   8  22   8  23  13
M  ISO  4  24  13  25  13  26  13  27  13
M  END
>  <minimizedAffinity>  (1) 
-5.49226952

>  <minimizedRMSD>  (1) 
1.07618201

$$$$
