
     RDKit          3D

 26 28  0  0  0  0  0  0  0  0999 V2000
   45.9930   34.9770   43.3530 C   0  0  0  0  0  0  0  0  0  0  0  0
   46.2690   33.9760   44.3120 C   0  0  0  0  0  0  0  0  0  0  0  0
   45.5800   34.0630   45.5270 C   0  0  0  0  0  0  0  0  0  0  0  0
   44.6940   35.0880   45.7190 N   0  0  0  0  0  0  0  0  0  0  0  0
   44.4670   36.0130   44.7750 C   0  0  0  0  0  0  0  0  0  0  0  0
   45.1040   35.9790   43.5840 N   0  0  0  0  0  0  0  0  0  0  0  0
   45.8760   33.0530   46.4630 N   0  0  0  0  0  0  0  0  0  0  0  0
   45.2090   32.7000   47.5790 C   0  0  0  0  0  0  0  0  0  0  0  0
   45.9250   31.6450   48.1440 C   0  0  0  0  0  0  0  0  0  0  0  0
   46.9850   31.4060   47.3530 N   0  0  0  0  0  0  0  0  0  0  0  0
   46.9780   32.2560   46.3150 C   0  0  0  0  0  0  0  0  0  0  0  0
   46.7040   34.9120   42.0640 C   0  0  0  0  0  0  0  0  0  0  0  0
   45.8450   34.3060   41.0680 N   0  0  0  0  0  0  0  0  0  0  0  0
   44.5180   34.3240   40.8810 C   0  0  0  0  0  0  0  0  0  0  0  0
   44.2160   33.5830   39.7820 N   0  0  0  0  0  0  0  0  0  0  0  0
   45.3870   33.1020   39.2880 C   0  0  0  0  0  0  0  0  0  0  0  0
   46.3700   33.5600   40.0930 N   0  0  0  0  0  0  0  0  0  0  0  0
   46.9894   33.1689   44.1132 H   0  0  0  0  0  0  0  0  0  0  0  0
   43.7451   36.8185   44.9751 H   0  0  0  0  0  0  0  0  0  0  0  0
   44.2848   33.1531   47.9669 H   0  0  0  0  0  0  0  0  0  0  0  0
   45.6689   31.1066   49.0684 H   0  0  0  0  0  0  0  0  0  0  0  0
   47.7166   32.3030   45.5012 H   0  0  0  0  0  0  0  0  0  0  0  0
   46.9760   35.9286   41.7438 H   0  0  0  0  0  0  0  0  0  0  0  0
   47.6155   34.3070   42.1785 H   0  0  0  0  0  0  0  0  0  0  0  0
   43.7907   34.8529   41.5145 H   0  0  0  0  0  0  0  0  0  0  0  0
   45.5106   32.4620   38.4019 H   0  0  0  0  0  0  0  0  0  0  0  0
  1  6  1  0
  1  2  2  0
  2  3  1  0
  3  4  2  0
  3  7  1  0
  5  4  1  0
  6  5  2  0
  7  8  1  0
  8  9  2  0
 10  9  1  0
 11  7  1  0
 11 10  2  0
 12  1  1  0
 13 12  1  0
 14 13  1  0
 15 14  2  0
 16 15  1  0
 16 17  2  0
 17 13  1  0
  2 18  1  0
  5 19  1  0
  8 20  1  0
  9 21  1  0
 11 22  1  0
 12 23  1  0
 12 24  1  0
 14 25  1  0
 16 26  1  0
M  ISO  8  18  14  19  14  20  14  21  14  22  14  23   8  24   8  25  14
M  ISO  1  26  14
M  END
>  <minimizedAffinity>  (1) 
-4.93076897

>  <minimizedRMSD>  (1) 
0.578059435

$$$$
