
     RDKit          3D

 42 45  0  0  0  0  0  0  0  0999 V2000
   47.8250   34.0750   41.9700 N   0  0  0  0  0  0  0  0  0  0  0  0
   47.9860   35.4150   41.7690 C   0  0  0  0  0  0  0  0  0  0  0  0
   49.3780   35.9520   41.9200 C   0  0  0  0  0  0  0  0  0  0  0  0
   50.2170   35.1690   42.8220 N   0  0  0  0  0  0  0  0  0  0  0  0
   50.1340   33.7500   42.6490 C   0  0  0  0  0  0  0  0  0  0  0  0
   48.8190   33.1760   42.2140 C   0  0  0  0  0  0  0  0  0  0  0  0
   48.9400   31.7360   42.1670 C   0  0  0  0  0  0  0  0  0  0  0  0
   48.8160   30.9150   43.2630 C   0  0  0  0  0  0  0  0  0  0  0  0
   49.0090   29.5730   43.2770 C   0  0  0  0  0  0  0  0  0  0  0  0
   49.3620   28.9070   42.1230 C   0  0  0  0  0  0  0  0  0  0  0  0
   49.5090   29.6610   40.9730 C   0  0  0  0  0  0  0  0  0  0  0  0
   49.2950   31.0170   41.0500 C   0  0  0  0  0  0  0  0  0  0  0  0
   46.4850   33.6110   42.1390 C   0  0  0  0  0  0  0  0  0  0  0  0
   45.8980   34.0560   43.4460 C   0  0  0  0  0  0  0  0  0  0  0  0
   46.1960   33.2660   44.5960 C   0  0  0  0  0  0  0  0  0  0  0  0
   45.6500   33.6630   45.8030 C   0  0  0  0  0  0  0  0  0  0  0  0
   44.8600   34.7800   45.8220 N   0  0  0  0  0  0  0  0  0  0  0  0
   44.6070   35.4930   44.7170 C   0  0  0  0  0  0  0  0  0  0  0  0
   45.1150   35.1490   43.5240 N   0  0  0  0  0  0  0  0  0  0  0  0
   45.9800   32.8490   46.9050 N   0  0  0  0  0  0  0  0  0  0  0  0
   45.3940   32.8080   48.1250 C   0  0  0  0  0  0  0  0  0  0  0  0
   46.0930   31.8320   48.8460 C   0  0  0  0  0  0  0  0  0  0  0  0
   47.0440   31.3440   48.0460 N   0  0  0  0  0  0  0  0  0  0  0  0
   47.0010   31.9450   46.8520 C   0  0  0  0  0  0  0  0  0  0  0  0
   47.3448   35.9407   42.4918 H   0  0  0  0  0  0  0  0  0  0  0  0
   47.7213   35.5850   40.7150 H   0  0  0  0  0  0  0  0  0  0  0  0
   49.8538   35.9659   40.9283 H   0  0  0  0  0  0  0  0  0  0  0  0
   49.2879   36.9570   42.3579 H   0  0  0  0  0  0  0  0  0  0  0  0
   50.8240   35.6051   43.5307 H   0  0  0  0  0  0  0  0  0  0  0  0
   51.0053   33.1031   42.8291 H   0  0  0  0  0  0  0  0  0  0  0  0
   48.5348   31.3899   44.2145 H   0  0  0  0  0  0  0  0  0  0  0  0
   48.8831   29.0124   44.2150 H   0  0  0  0  0  0  0  0  0  0  0  0
   49.5206   27.8185   42.1170 H   0  0  0  0  0  0  0  0  0  0  0  0
   49.7901   29.1878   40.0206 H   0  0  0  0  0  0  0  0  0  0  0  0
   49.4213   31.5878   40.1182 H   0  0  0  0  0  0  0  0  0  0  0  0
   45.8665   34.0050   41.3191 H   0  0  0  0  0  0  0  0  0  0  0  0
   46.5021   32.5112   42.1306 H   0  0  0  0  0  0  0  0  0  0  0  0
   46.8362   32.3743   44.5253 H   0  0  0  0  0  0  0  0  0  0  0  0
   43.9659   36.3839   44.7895 H   0  0  0  0  0  0  0  0  0  0  0  0
   44.5462   33.4145   48.4763 H   0  0  0  0  0  0  0  0  0  0  0  0
   45.8946   31.5235   49.8830 H   0  0  0  0  0  0  0  0  0  0  0  0
   47.6606   31.7488   45.9938 H   0  0  0  0  0  0  0  0  0  0  0  0
  1 13  1  0
  1  6  1  0
  2  3  1  0
  2  1  1  0
  3  4  1  0
  5  4  1  0
  6  5  2  0
  7  6  1  0
  7  8  2  0
  8  9  1  0
 10  9  2  0
 11 12  2  0
 11 10  1  0
 12  7  1  0
 13 14  1  0
 14 19  1  0
 14 15  2  0
 15 16  1  0
 16 17  2  0
 16 20  1  0
 18 17  1  0
 19 18  2  0
 20 21  1  0
 21 22  2  0
 23 22  1  0
 24 20  1  0
 24 23  2  0
  2 25  1  0
  2 26  1  0
  3 27  1  0
  3 28  1  0
  4 29  1  0
  5 30  1  0
  8 31  1  0
  9 32  1  0
 10 33  1  0
 11 34  1  0
 12 35  1  0
 13 36  1  0
 13 37  1  0
 15 38  1  0
 18 39  1  0
 21 40  1  0
 22 41  1  0
 24 42  1  0
M  ISO  8  25  13  26  13  27  13  28  13  30  13  31  14  32  14  33  14
M  ISO  8  34  14  35  14  36   8  37   8  38  14  39  14  40  14  41  14
M  ISO  1  42  14
M  END
>  <minimizedAffinity>  (1) 
-6.13357496

>  <minimizedRMSD>  (1) 
0.377485394

$$$$
