
     RDKit          3D

 45 48  0  0  0  0  0  0  0  0999 V2000
   47.7840   34.1470   41.9460 N   0  0  0  0  0  0  0  0  0  0  0  0
   47.9990   35.4710   41.7100 C   0  0  0  0  0  0  0  0  0  0  0  0
   49.4030   35.9690   41.8920 C   0  0  0  0  0  0  0  0  0  0  0  0
   50.1900   35.1770   42.8320 N   0  0  0  0  0  0  0  0  0  0  0  0
   50.0650   33.7580   42.6890 C   0  0  0  0  0  0  0  0  0  0  0  0
   48.7400   33.2150   42.2390 C   0  0  0  0  0  0  0  0  0  0  0  0
   48.7650   31.8020   42.2310 N   0  0  0  0  0  0  0  0  0  0  0  0
   48.7420   31.0260   43.3270 C   0  0  0  0  0  0  0  0  0  0  0  0
   48.8520   29.6740   43.4370 C   0  0  0  0  0  0  0  0  0  0  0  0
   48.8120   28.9380   44.7200 C   0  0  0  0  0  0  0  0  0  0  0  0
   49.0100   28.9680   42.2470 C   0  0  0  0  0  0  0  0  0  0  0  0
   49.1170   27.7180   42.2790 O   0  0  0  0  0  0  0  0  0  0  0  0
   49.0360   29.7230   41.1160 N   0  0  0  0  0  0  0  0  0  0  0  0
   48.9190   31.0370   41.1400 C   0  0  0  0  0  0  0  0  0  0  0  0
   48.9810   31.4730   39.9660 O   0  0  0  0  0  0  0  0  0  0  0  0
   46.4250   33.7330   42.0940 C   0  0  0  0  0  0  0  0  0  0  0  0
   45.8490   34.1560   43.4120 C   0  0  0  0  0  0  0  0  0  0  0  0
   46.1540   33.3410   44.5420 C   0  0  0  0  0  0  0  0  0  0  0  0
   45.6230   33.7130   45.7600 C   0  0  0  0  0  0  0  0  0  0  0  0
   44.8390   34.8360   45.8100 N   0  0  0  0  0  0  0  0  0  0  0  0
   44.5770   35.5740   44.7230 C   0  0  0  0  0  0  0  0  0  0  0  0
   45.0720   35.2500   43.5200 N   0  0  0  0  0  0  0  0  0  0  0  0
   45.9520   32.8820   46.8490 N   0  0  0  0  0  0  0  0  0  0  0  0
   45.3770   32.8180   48.0680 C   0  0  0  0  0  0  0  0  0  0  0  0
   46.0900   31.8240   48.7690 C   0  0  0  0  0  0  0  0  0  0  0  0
   47.0350   31.3520   47.9500 N   0  0  0  0  0  0  0  0  0  0  0  0
   46.9750   31.9790   46.7710 C   0  0  0  0  0  0  0  0  0  0  0  0
   47.3521   36.0407   42.3934 H   0  0  0  0  0  0  0  0  0  0  0  0
   47.7779   35.6138   40.6419 H   0  0  0  0  0  0  0  0  0  0  0  0
   49.9075   35.9500   40.9147 H   0  0  0  0  0  0  0  0  0  0  0  0
   49.3320   36.9846   42.3085 H   0  0  0  0  0  0  0  0  0  0  0  0
   50.7925   35.6083   43.5474 H   0  0  0  0  0  0  0  0  0  0  0  0
   50.9113   33.0883   42.9017 H   0  0  0  0  0  0  0  0  0  0  0  0
   48.6153   31.5638   44.2782 H   0  0  0  0  0  0  0  0  0  0  0  0
   48.8509   29.6535   45.5546 H   0  0  0  0  0  0  0  0  0  0  0  0
   47.8809   28.3554   44.7796 H   0  0  0  0  0  0  0  0  0  0  0  0
   49.6745   28.2579   44.7796 H   0  0  0  0  0  0  0  0  0  0  0  0
   49.1513   29.2517   40.2074 H   0  0  0  0  0  0  0  0  0  0  0  0
   45.8276   34.1799   41.2856 H   0  0  0  0  0  0  0  0  0  0  0  0
   46.3978   32.6343   42.0484 H   0  0  0  0  0  0  0  0  0  0  0  0
   46.7895   32.4483   44.4460 H   0  0  0  0  0  0  0  0  0  0  0  0
   43.9411   36.4663   44.8198 H   0  0  0  0  0  0  0  0  0  0  0  0
   44.5303   33.4155   48.4371 H   0  0  0  0  0  0  0  0  0  0  0  0
   45.9026   31.4964   49.8022 H   0  0  0  0  0  0  0  0  0  0  0  0
   47.6259   31.8017   45.9022 H   0  0  0  0  0  0  0  0  0  0  0  0
  1 16  1  0
  1  6  1  0
  2  3  1  0
  2  1  1  0
  3  4  1  0
  5  4  1  0
  6  5  2  0
  7  6  1  0
  7  8  1  0
  8  9  2  0
  9 10  1  0
 11 12  2  0
 11  9  1  0
 13 14  1  0
 13 11  1  0
 14  7  1  0
 15 14  2  0
 16 17  1  0
 17 22  1  0
 17 18  2  0
 18 19  1  0
 19 20  2  0
 19 23  1  0
 21 20  1  0
 22 21  2  0
 23 24  1  0
 24 25  2  0
 26 25  1  0
 27 23  1  0
 27 26  2  0
  2 28  1  0
  2 29  1  0
  3 30  1  0
  3 31  1  0
  4 32  1  0
  5 33  1  0
  8 34  1  0
 10 35  1  0
 10 36  1  0
 10 37  1  0
 13 38  1  0
 16 39  1  0
 16 40  1  0
 18 41  1  0
 21 42  1  0
 24 43  1  0
 25 44  1  0
 27 45  1  0
M  ISO  8  28  13  29  13  30  13  31  13  33  13  34  14  35   8  36   8
M  ISO  8  37   8  38   9  39   8  40   8  41  14  42  14  43  14  44  14
M  ISO  1  45  14
M  END
>  <minimizedAffinity>  (1) 
-6.28121233

>  <minimizedRMSD>  (1) 
0.644406855

$$$$
