
     RDKit          3D

 45 48  0  0  0  0  0  0  0  0999 V2000
   46.4710   33.6070   42.1440 C   0  0  0  0  0  0  0  0  0  0  0  0
   45.8930   34.0390   43.4420 C   0  0  0  0  0  0  0  0  0  0  0  0
   46.1860   33.2600   44.5980 C   0  0  0  0  0  0  0  0  0  0  0  0
   45.6400   33.6710   45.8090 C   0  0  0  0  0  0  0  0  0  0  0  0
   44.8590   34.7870   45.8260 N   0  0  0  0  0  0  0  0  0  0  0  0
   44.6030   35.4970   44.7210 C   0  0  0  0  0  0  0  0  0  0  0  0
   45.1150   35.1340   43.5210 N   0  0  0  0  0  0  0  0  0  0  0  0
   45.9580   32.8650   46.9200 N   0  0  0  0  0  0  0  0  0  0  0  0
   45.3880   32.8200   48.1360 C   0  0  0  0  0  0  0  0  0  0  0  0
   46.0680   31.8510   48.8670 C   0  0  0  0  0  0  0  0  0  0  0  0
   47.0240   31.3480   48.0620 N   0  0  0  0  0  0  0  0  0  0  0  0
   46.9810   31.9460   46.8680 C   0  0  0  0  0  0  0  0  0  0  0  0
   47.8200   34.0840   41.9780 N   0  0  0  0  0  0  0  0  0  0  0  0
   47.9840   35.4240   41.7800 C   0  0  0  0  0  0  0  0  0  0  0  0
   49.3860   35.9430   41.9350 C   0  0  0  0  0  0  0  0  0  0  0  0
   50.2110   35.1690   42.8270 N   0  0  0  0  0  0  0  0  0  0  0  0
   50.1320   33.7440   42.6300 C   0  0  0  0  0  0  0  0  0  0  0  0
   48.8130   33.1690   42.2110 C   0  0  0  0  0  0  0  0  0  0  0  0
   48.7490   31.7610   42.1080 N   0  0  0  0  0  0  0  0  0  0  0  0
   48.6980   30.8630   43.2750 C   0  0  0  0  0  0  0  0  0  0  0  0
   49.9580   30.0220   43.3410 C   0  0  0  0  0  0  0  0  0  0  0  0
   50.5920   30.0810   42.0780 O   0  0  0  0  0  0  0  0  0  0  0  0
   49.6030   29.7770   41.1400 C   0  0  0  0  0  0  0  0  0  0  0  0
   48.7210   31.0010   40.8620 C   0  0  0  0  0  0  0  0  0  0  0  0
   46.4737   32.5078   42.1029 H   0  0  0  0  0  0  0  0  0  0  0  0
   45.8554   34.0295   41.3362 H   0  0  0  0  0  0  0  0  0  0  0  0
   46.8219   32.3647   44.5349 H   0  0  0  0  0  0  0  0  0  0  0  0
   43.9656   36.3910   44.7886 H   0  0  0  0  0  0  0  0  0  0  0  0
   44.5444   33.4326   48.4867 H   0  0  0  0  0  0  0  0  0  0  0  0
   45.8637   31.5521   49.9057 H   0  0  0  0  0  0  0  0  0  0  0  0
   47.6371   31.7428   46.0088 H   0  0  0  0  0  0  0  0  0  0  0  0
   47.3469   35.9524   42.5045 H   0  0  0  0  0  0  0  0  0  0  0  0
   47.7136   35.6053   40.7293 H   0  0  0  0  0  0  0  0  0  0  0  0
   49.8624   35.9489   40.9435 H   0  0  0  0  0  0  0  0  0  0  0  0
   49.3024   36.9472   42.3760 H   0  0  0  0  0  0  0  0  0  0  0  0
   50.8087   35.5994   43.5470 H   0  0  0  0  0  0  0  0  0  0  0  0
   51.0104   33.0996   42.7820 H   0  0  0  0  0  0  0  0  0  0  0  0
   48.6130   31.4635   44.1927 H   0  0  0  0  0  0  0  0  0  0  0  0
   47.8264   30.1987   43.1802 H   0  0  0  0  0  0  0  0  0  0  0  0
   50.6312   30.4190   44.1151 H   0  0  0  0  0  0  0  0  0  0  0  0
   49.7087   28.9810   43.5941 H   0  0  0  0  0  0  0  0  0  0  0  0
   50.0813   29.4568   40.2026 H   0  0  0  0  0  0  0  0  0  0  0  0
   48.9713   28.9713   41.5423 H   0  0  0  0  0  0  0  0  0  0  0  0
   49.1322   31.5967   40.0337 H   0  0  0  0  0  0  0  0  0  0  0  0
   47.6994   30.7220   40.5646 H   0  0  0  0  0  0  0  0  0  0  0  0
  1  2  1  0
  2  7  1  0
  2  3  2  0
  3  4  1  0
  4  5  2  0
  4  8  1  0
  6  5  1  0
  7  6  2  0
  8  9  1  0
  9 10  2  0
 11 10  1  0
 12  8  1  0
 12 11  2  0
 13  1  1  0
 13 18  1  0
 14 15  1  0
 14 13  1  0
 15 16  1  0
 17 16  1  0
 18 17  2  0
 19 18  1  0
 19 20  1  0
 20 21  1  0
 22 21  1  0
 23 22  1  0
 24 23  1  0
 24 19  1  0
  1 25  1  0
  1 26  1  0
  3 27  1  0
  6 28  1  0
  9 29  1  0
 10 30  1  0
 12 31  1  0
 14 32  1  0
 14 33  1  0
 15 34  1  0
 15 35  1  0
 16 36  1  0
 17 37  1  0
 20 38  1  0
 20 39  1  0
 21 40  1  0
 21 41  1  0
 23 42  1  0
 23 43  1  0
 24 44  1  0
 24 45  1  0
M  ISO  8  25   8  26   8  27  14  28  14  29  14  30  14  31  14  32  13
M  ISO  8  33  13  34  13  35  13  37  13  38  13  39  13  40  13  41  13
M  ISO  4  42  13  43  13  44  13  45  13
M  END
>  <minimizedAffinity>  (1) 
-6.11312485

>  <minimizedRMSD>  (1) 
0.881032705

$$$$
