
     RDKit          3D

 45 48  0  0  0  0  0  0  0  0999 V2000
   46.4680   33.6200   42.1230 C   0  0  0  0  0  0  0  0  0  0  0  0
   45.8830   34.0650   43.4160 C   0  0  0  0  0  0  0  0  0  0  0  0
   46.1620   33.2850   44.5670 C   0  0  0  0  0  0  0  0  0  0  0  0
   45.6100   33.7000   45.7790 C   0  0  0  0  0  0  0  0  0  0  0  0
   44.8390   34.8270   45.7910 N   0  0  0  0  0  0  0  0  0  0  0  0
   44.6010   35.5370   44.6770 C   0  0  0  0  0  0  0  0  0  0  0  0
   45.1130   35.1730   43.4860 N   0  0  0  0  0  0  0  0  0  0  0  0
   45.9150   32.8920   46.8920 N   0  0  0  0  0  0  0  0  0  0  0  0
   45.3380   32.8730   48.1130 C   0  0  0  0  0  0  0  0  0  0  0  0
   46.0140   31.8870   48.8410 C   0  0  0  0  0  0  0  0  0  0  0  0
   46.9470   31.3660   48.0460 N   0  0  0  0  0  0  0  0  0  0  0  0
   46.9170   31.9550   46.8440 C   0  0  0  0  0  0  0  0  0  0  0  0
   47.8190   34.0930   41.9610 N   0  0  0  0  0  0  0  0  0  0  0  0
   48.0030   35.4330   41.7740 C   0  0  0  0  0  0  0  0  0  0  0  0
   49.4110   35.9320   41.9470 C   0  0  0  0  0  0  0  0  0  0  0  0
   50.2240   35.1400   42.8320 N   0  0  0  0  0  0  0  0  0  0  0  0
   50.1310   33.7170   42.6240 C   0  0  0  0  0  0  0  0  0  0  0  0
   48.8020   33.1640   42.1860 C   0  0  0  0  0  0  0  0  0  0  0  0
   48.6680   31.7290   42.0210 C   0  0  0  0  0  0  0  0  0  0  0  0
   48.7720   30.9800   43.3620 C   0  0  0  0  0  0  0  0  0  0  0  0
   48.9800   29.5730   42.8210 C   0  0  0  0  0  0  0  0  0  0  0  0
   50.1720   29.8130   41.9130 C   0  0  0  0  0  0  0  0  0  0  0  0
   49.7640   31.0760   41.1860 C   0  0  0  0  0  0  0  0  0  0  0  0
   46.4686   32.5205   42.0912 H   0  0  0  0  0  0  0  0  0  0  0  0
   45.8578   34.0365   41.3080 H   0  0  0  0  0  0  0  0  0  0  0  0
   46.7913   32.3848   44.5062 H   0  0  0  0  0  0  0  0  0  0  0  0
   43.9726   36.4378   44.7385 H   0  0  0  0  0  0  0  0  0  0  0  0
   44.5072   33.5031   48.4634 H   0  0  0  0  0  0  0  0  0  0  0  0
   45.8113   31.5951   49.8820 H   0  0  0  0  0  0  0  0  0  0  0  0
   47.5680   31.7317   45.9859 H   0  0  0  0  0  0  0  0  0  0  0  0
   47.3656   35.9649   42.4957 H   0  0  0  0  0  0  0  0  0  0  0  0
   47.7457   35.6253   40.7220 H   0  0  0  0  0  0  0  0  0  0  0  0
   49.8936   35.9461   40.9586 H   0  0  0  0  0  0  0  0  0  0  0  0
   49.3337   36.9294   42.4044 H   0  0  0  0  0  0  0  0  0  0  0  0
   50.8250   35.5574   43.5569 H   0  0  0  0  0  0  0  0  0  0  0  0
   50.9992   33.0597   42.7796 H   0  0  0  0  0  0  0  0  0  0  0  0
   47.6860   31.6458   41.5324 H   0  0  0  0  0  0  0  0  0  0  0  0
   49.6270   31.3233   43.9629 H   0  0  0  0  0  0  0  0  0  0  0  0
   47.9203   31.1068   44.0465 H   0  0  0  0  0  0  0  0  0  0  0  0
   49.2153   28.8579   43.6231 H   0  0  0  0  0  0  0  0  0  0  0  0
   48.1019   29.1326   42.3260 H   0  0  0  0  0  0  0  0  0  0  0  0
   51.0930   29.9663   42.4945 H   0  0  0  0  0  0  0  0  0  0  0  0
   50.3973   28.9692   41.2442 H   0  0  0  0  0  0  0  0  0  0  0  0
   50.6247   31.7546   41.0932 H   0  0  0  0  0  0  0  0  0  0  0  0
   49.4055   30.8495   40.1710 H   0  0  0  0  0  0  0  0  0  0  0  0
  1  2  1  0
  2  7  1  0
  2  3  2  0
  3  4  1  0
  4  5  2  0
  4  8  1  0
  6  5  1  0
  7  6  2  0
  8  9  1  0
  9 10  2  0
 11 10  1  0
 12  8  1  0
 12 11  2  0
 13  1  1  0
 13 18  1  0
 14 15  1  0
 14 13  1  0
 15 16  1  0
 17 16  1  0
 18 17  2  0
 19 18  1  0
 19 20  1  0
 21 20  1  0
 22 21  1  0
 23 22  1  0
 23 19  1  0
  1 24  1  0
  1 25  1  0
  3 26  1  0
  6 27  1  0
  9 28  1  0
 10 29  1  0
 12 30  1  0
 14 31  1  0
 14 32  1  0
 15 33  1  0
 15 34  1  0
 16 35  1  0
 17 36  1  0
 19 37  1  0
 20 38  1  0
 20 39  1  0
 21 40  1  0
 21 41  1  0
 22 42  1  0
 22 43  1  0
 23 44  1  0
 23 45  1  0
M  ISO  8  24   8  25   8  26  14  27  14  28  14  29  14  30  14  31  13
M  ISO  8  32  13  33  13  34  13  36  13  37  13  38  13  39  13  40  13
M  ISO  5  41  13  42  13  43  13  44  13  45  13
M  END
>  <minimizedAffinity>  (1) 
-6.04291582

>  <minimizedRMSD>  (1) 
1.24314058

$$$$
