
     RDKit          3D

 39 42  0  0  0  0  0  0  0  0999 V2000
   46.4630   33.6350   42.1320 C   0  0  0  0  0  0  0  0  0  0  0  0
   45.8840   34.0540   43.4340 C   0  0  0  0  0  0  0  0  0  0  0  0
   46.1800   33.2680   44.5830 C   0  0  0  0  0  0  0  0  0  0  0  0
   45.6420   33.6710   45.7960 C   0  0  0  0  0  0  0  0  0  0  0  0
   44.8610   34.7920   45.8210 N   0  0  0  0  0  0  0  0  0  0  0  0
   44.6000   35.5090   44.7210 C   0  0  0  0  0  0  0  0  0  0  0  0
   45.1020   35.1550   43.5240 N   0  0  0  0  0  0  0  0  0  0  0  0
   45.9600   32.8640   46.9000 N   0  0  0  0  0  0  0  0  0  0  0  0
   45.3930   32.8160   48.1150 C   0  0  0  0  0  0  0  0  0  0  0  0
   46.0780   31.8530   48.8470 C   0  0  0  0  0  0  0  0  0  0  0  0
   47.0420   31.3520   48.0370 N   0  0  0  0  0  0  0  0  0  0  0  0
   46.9860   31.9550   46.8500 C   0  0  0  0  0  0  0  0  0  0  0  0
   47.8120   34.0870   41.9710 N   0  0  0  0  0  0  0  0  0  0  0  0
   47.9960   35.4220   41.7630 C   0  0  0  0  0  0  0  0  0  0  0  0
   49.3950   35.9390   41.9290 C   0  0  0  0  0  0  0  0  0  0  0  0
   50.2140   35.1540   42.8320 N   0  0  0  0  0  0  0  0  0  0  0  0
   50.1150   33.7250   42.6480 C   0  0  0  0  0  0  0  0  0  0  0  0
   48.7920   33.1650   42.2240 C   0  0  0  0  0  0  0  0  0  0  0  0
   48.7940   31.7360   42.1550 C   0  0  0  0  0  0  0  0  0  0  0  0
   48.7880   30.8940   43.2330 C   0  0  0  0  0  0  0  0  0  0  0  0
   48.7930   29.5810   42.8140 C   0  0  0  0  0  0  0  0  0  0  0  0
   48.8020   29.7250   41.4430 C   0  0  0  0  0  0  0  0  0  0  0  0
   48.8030   30.9830   41.0950 O   0  0  0  0  0  0  0  0  0  0  0  0
   46.4479   32.5366   42.0743 H   0  0  0  0  0  0  0  0  0  0  0  0
   45.8575   34.0855   41.3318 H   0  0  0  0  0  0  0  0  0  0  0  0
   46.8137   32.3717   44.5114 H   0  0  0  0  0  0  0  0  0  0  0  0
   43.9640   36.4032   44.7972 H   0  0  0  0  0  0  0  0  0  0  0  0
   44.5460   33.4239   48.4657 H   0  0  0  0  0  0  0  0  0  0  0  0
   45.8759   31.5544   49.8862 H   0  0  0  0  0  0  0  0  0  0  0  0
   47.6418   31.7598   45.9887 H   0  0  0  0  0  0  0  0  0  0  0  0
   47.3534   35.9626   42.4735 H   0  0  0  0  0  0  0  0  0  0  0  0
   47.7478   35.5886   40.7044 H   0  0  0  0  0  0  0  0  0  0  0  0
   49.8797   35.9466   40.9416 H   0  0  0  0  0  0  0  0  0  0  0  0
   49.3113   36.9435   42.3695 H   0  0  0  0  0  0  0  0  0  0  0  0
   50.8185   35.5816   43.5480 H   0  0  0  0  0  0  0  0  0  0  0  0
   50.9826   33.0694   42.8138 H   0  0  0  0  0  0  0  0  0  0  0  0
   48.7803   31.2184   44.2840 H   0  0  0  0  0  0  0  0  0  0  0  0
   48.7905   28.6601   43.4155 H   0  0  0  0  0  0  0  0  0  0  0  0
   48.8076   28.8856   40.7320 H   0  0  0  0  0  0  0  0  0  0  0  0
  1  2  1  0
  2  7  1  0
  2  3  2  0
  3  4  1  0
  4  5  2  0
  4  8  1  0
  6  5  1  0
  7  6  2  0
  8  9  1  0
  9 10  2  0
 11 10  1  0
 12  8  1  0
 12 11  2  0
 13  1  1  0
 13 18  1  0
 14 15  1  0
 14 13  1  0
 15 16  1  0
 17 16  1  0
 18 17  2  0
 19 18  1  0
 19 20  2  0
 21 20  1  0
 22 21  2  0
 23 22  1  0
 23 19  1  0
  1 24  1  0
  1 25  1  0
  3 26  1  0
  6 27  1  0
  9 28  1  0
 10 29  1  0
 12 30  1  0
 14 31  1  0
 14 32  1  0
 15 33  1  0
 15 34  1  0
 16 35  1  0
 17 36  1  0
 20 37  1  0
 21 38  1  0
 22 39  1  0
M  ISO  8  24   8  25   8  26  14  27  14  28  14  29  14  30  14  31  13
M  ISO  7  32  13  33  13  34  13  36  13  37  14  38  14  39  14
M  END
>  <minimizedAffinity>  (1) 
-6.02439499

>  <minimizedRMSD>  (1) 
0.573712289

$$$$
