
     RDKit          3D

 40 43  0  0  0  0  0  0  0  0999 V2000
   46.4560   33.6600   42.1310 C   0  0  0  0  0  0  0  0  0  0  0  0
   45.8770   34.0720   43.4380 C   0  0  0  0  0  0  0  0  0  0  0  0
   46.1770   33.2840   44.5880 C   0  0  0  0  0  0  0  0  0  0  0  0
   45.6400   33.6840   45.7970 C   0  0  0  0  0  0  0  0  0  0  0  0
   44.8550   34.8000   45.8320 N   0  0  0  0  0  0  0  0  0  0  0  0
   44.5940   35.5170   44.7310 C   0  0  0  0  0  0  0  0  0  0  0  0
   45.0960   35.1640   43.5350 N   0  0  0  0  0  0  0  0  0  0  0  0
   45.9770   32.8600   46.8960 N   0  0  0  0  0  0  0  0  0  0  0  0
   45.3900   32.8080   48.1150 C   0  0  0  0  0  0  0  0  0  0  0  0
   46.0790   31.8310   48.8320 C   0  0  0  0  0  0  0  0  0  0  0  0
   47.0330   31.3510   48.0240 N   0  0  0  0  0  0  0  0  0  0  0  0
   46.9980   31.9580   46.8370 C   0  0  0  0  0  0  0  0  0  0  0  0
   47.8020   34.1040   41.9680 N   0  0  0  0  0  0  0  0  0  0  0  0
   47.9830   35.4380   41.7510 C   0  0  0  0  0  0  0  0  0  0  0  0
   49.3800   35.9580   41.9140 C   0  0  0  0  0  0  0  0  0  0  0  0
   50.2030   35.1760   42.8310 N   0  0  0  0  0  0  0  0  0  0  0  0
   50.1030   33.7500   42.6570 C   0  0  0  0  0  0  0  0  0  0  0  0
   48.7850   33.1950   42.2270 C   0  0  0  0  0  0  0  0  0  0  0  0
   48.7960   31.7800   42.1560 C   0  0  0  0  0  0  0  0  0  0  0  0
   48.7900   30.9300   43.2350 C   0  0  0  0  0  0  0  0  0  0  0  0
   48.8170   29.5520   43.2070 C   0  0  0  0  0  0  0  0  0  0  0  0
   48.8550   28.9410   41.9840 N   0  0  0  0  0  0  0  0  0  0  0  0
   48.8630   29.7490   40.8830 C   0  0  0  0  0  0  0  0  0  0  0  0
   48.8340   31.0740   41.0320 N   0  0  0  0  0  0  0  0  0  0  0  0
   46.4359   32.5621   42.0662 H   0  0  0  0  0  0  0  0  0  0  0  0
   45.8520   34.1220   41.3362 H   0  0  0  0  0  0  0  0  0  0  0  0
   46.8132   32.3896   44.5154 H   0  0  0  0  0  0  0  0  0  0  0  0
   43.9574   36.4108   44.8070 H   0  0  0  0  0  0  0  0  0  0  0  0
   44.5421   33.4134   48.4678 H   0  0  0  0  0  0  0  0  0  0  0  0
   45.8772   31.5143   49.8659 H   0  0  0  0  0  0  0  0  0  0  0  0
   47.6613   31.7686   45.9802 H   0  0  0  0  0  0  0  0  0  0  0  0
   47.3391   35.9821   42.4577 H   0  0  0  0  0  0  0  0  0  0  0  0
   47.7344   35.5973   40.6914 H   0  0  0  0  0  0  0  0  0  0  0  0
   49.8662   35.9576   40.9273 H   0  0  0  0  0  0  0  0  0  0  0  0
   49.2951   36.9665   42.3450 H   0  0  0  0  0  0  0  0  0  0  0  0
   50.8064   35.6089   43.5447 H   0  0  0  0  0  0  0  0  0  0  0  0
   50.9670   33.0927   42.8346 H   0  0  0  0  0  0  0  0  0  0  0  0
   48.7604   31.3998   44.2292 H   0  0  0  0  0  0  0  0  0  0  0  0
   48.8083   28.9639   44.1366 H   0  0  0  0  0  0  0  0  0  0  0  0
   48.8933   29.3080   39.8757 H   0  0  0  0  0  0  0  0  0  0  0  0
  1  2  1  0
  2  7  1  0
  2  3  2  0
  3  4  1  0
  4  5  2  0
  4  8  1  0
  6  5  1  0
  7  6  2  0
  8  9  1  0
  9 10  2  0
 11 10  1  0
 12  8  1  0
 12 11  2  0
 13  1  1  0
 13 18  1  0
 14 15  1  0
 14 13  1  0
 15 16  1  0
 17 16  1  0
 18 17  2  0
 19 18  1  0
 19 20  2  0
 21 20  1  0
 22 21  2  0
 23 24  2  0
 23 22  1  0
 24 19  1  0
  1 25  1  0
  1 26  1  0
  3 27  1  0
  6 28  1  0
  9 29  1  0
 10 30  1  0
 12 31  1  0
 14 32  1  0
 14 33  1  0
 15 34  1  0
 15 35  1  0
 16 36  1  0
 17 37  1  0
 20 38  1  0
 21 39  1  0
 23 40  1  0
M  ISO  8  25   8  26   8  27  14  28  14  29  14  30  14  31  14  32  13
M  ISO  7  33  13  34  13  35  13  37  13  38  14  39  14  40  14
M  END
>  <minimizedAffinity>  (1) 
-6.05965853

>  <minimizedRMSD>  (1) 
0.567079961

$$$$
