
     RDKit          3D

 39 42  0  0  0  0  0  0  0  0999 V2000
   46.4630   33.6380   42.1290 C   0  0  0  0  0  0  0  0  0  0  0  0
   45.8820   34.0570   43.4280 C   0  0  0  0  0  0  0  0  0  0  0  0
   46.1710   33.2690   44.5790 C   0  0  0  0  0  0  0  0  0  0  0  0
   45.6320   33.6730   45.7890 C   0  0  0  0  0  0  0  0  0  0  0  0
   44.8540   34.8020   45.8140 N   0  0  0  0  0  0  0  0  0  0  0  0
   44.6030   35.5180   44.7090 C   0  0  0  0  0  0  0  0  0  0  0  0
   45.1090   35.1570   43.5160 N   0  0  0  0  0  0  0  0  0  0  0  0
   45.9560   32.8590   46.8940 N   0  0  0  0  0  0  0  0  0  0  0  0
   45.3720   32.8550   48.1220 C   0  0  0  0  0  0  0  0  0  0  0  0
   46.0700   31.8630   48.8440 C   0  0  0  0  0  0  0  0  0  0  0  0
   47.0010   31.3440   48.0430 N   0  0  0  0  0  0  0  0  0  0  0  0
   46.9530   31.9370   46.8420 C   0  0  0  0  0  0  0  0  0  0  0  0
   47.8170   34.0800   41.9710 N   0  0  0  0  0  0  0  0  0  0  0  0
   47.9970   35.4200   41.7730 C   0  0  0  0  0  0  0  0  0  0  0  0
   49.4010   35.9240   41.9280 C   0  0  0  0  0  0  0  0  0  0  0  0
   50.2190   35.1420   42.8370 N   0  0  0  0  0  0  0  0  0  0  0  0
   50.1190   33.7180   42.6360 C   0  0  0  0  0  0  0  0  0  0  0  0
   48.8030   33.1560   42.2180 C   0  0  0  0  0  0  0  0  0  0  0  0
   48.7270   31.7150   42.1110 C   0  0  0  0  0  0  0  0  0  0  0  0
   49.9370   30.8710   42.4930 C   0  0  0  0  0  0  0  0  0  0  0  0
   48.6960   30.8630   43.3070 C   0  0  0  0  0  0  0  0  0  0  0  0
   46.4401   32.5399   42.0690 H   0  0  0  0  0  0  0  0  0  0  0  0
   45.8637   34.0967   41.3287 H   0  0  0  0  0  0  0  0  0  0  0  0
   46.8010   32.3700   44.5090 H   0  0  0  0  0  0  0  0  0  0  0  0
   43.9722   36.4165   44.7789 H   0  0  0  0  0  0  0  0  0  0  0  0
   44.5413   33.4842   48.4741 H   0  0  0  0  0  0  0  0  0  0  0  0
   45.8790   31.5691   49.8867 H   0  0  0  0  0  0  0  0  0  0  0  0
   47.5982   31.7188   45.9782 H   0  0  0  0  0  0  0  0  0  0  0  0
   47.3653   35.9552   42.4972 H   0  0  0  0  0  0  0  0  0  0  0  0
   47.7301   35.6033   40.7217 H   0  0  0  0  0  0  0  0  0  0  0  0
   49.8813   35.9157   40.9384 H   0  0  0  0  0  0  0  0  0  0  0  0
   49.3278   36.9334   42.3590 H   0  0  0  0  0  0  0  0  0  0  0  0
   50.8170   35.5663   43.5604 H   0  0  0  0  0  0  0  0  0  0  0  0
   50.9903   33.0637   42.7870 H   0  0  0  0  0  0  0  0  0  0  0  0
   48.0846   31.8224   41.2246 H   0  0  0  0  0  0  0  0  0  0  0  0
   50.2114   29.9915   41.8920 H   0  0  0  0  0  0  0  0  0  0  0  0
   51.0027   31.0648   42.6848 H   0  0  0  0  0  0  0  0  0  0  0  0
   48.6970   31.3259   44.3049 H   0  0  0  0  0  0  0  0  0  0  0  0
   48.0212   30.0716   43.6653 H   0  0  0  0  0  0  0  0  0  0  0  0
  1  2  1  0
  2  7  1  0
  2  3  2  0
  3  4  1  0
  4  5  2  0
  4  8  1  0
  6  5  1  0
  7  6  2  0
  8  9  1  0
  9 10  2  0
 11 10  1  0
 12  8  1  0
 12 11  2  0
 13  1  1  0
 13 18  1  0
 14 15  1  0
 14 13  1  0
 15 16  1  0
 17 16  1  0
 18 17  2  0
 19 18  1  0
 19 20  1  0
 19 21  1  0
 20 21  1  0
  1 22  1  0
  1 23  1  0
  3 24  1  0
  6 25  1  0
  9 26  1  0
 10 27  1  0
 12 28  1  0
 14 29  1  0
 14 30  1  0
 15 31  1  0
 15 32  1  0
 16 33  1  0
 17 34  1  0
 19 35  1  0
 20 36  1  0
 20 37  1  0
 21 38  1  0
 21 39  1  0
M  ISO  8  22   8  23   8  24  14  25  14  26  14  27  14  28  14  29  13
M  ISO  8  30  13  31  13  32  13  34  13  35  13  36  13  37  13  38  13
M  ISO  1  39  13
M  END
>  <minimizedAffinity>  (1) 
-5.9567461

>  <minimizedRMSD>  (1) 
0.426164776

$$$$
