
     RDKit          3D

 35 37  0  0  0  0  0  0  0  0999 V2000
   46.4410   33.6450   42.1450 C   0  0  0  0  0  0  0  0  0  0  0  0
   45.8730   34.0770   43.4530 C   0  0  0  0  0  0  0  0  0  0  0  0
   46.1630   33.3070   44.5980 C   0  0  0  0  0  0  0  0  0  0  0  0
   45.6360   33.6830   45.8170 C   0  0  0  0  0  0  0  0  0  0  0  0
   44.8520   34.7990   45.8450 N   0  0  0  0  0  0  0  0  0  0  0  0
   44.5890   35.5210   44.7370 C   0  0  0  0  0  0  0  0  0  0  0  0
   45.0960   35.1680   43.5290 N   0  0  0  0  0  0  0  0  0  0  0  0
   45.9570   32.8680   46.9170 N   0  0  0  0  0  0  0  0  0  0  0  0
   45.3820   32.8250   48.1380 C   0  0  0  0  0  0  0  0  0  0  0  0
   46.0790   31.8430   48.8480 C   0  0  0  0  0  0  0  0  0  0  0  0
   47.0210   31.3460   48.0460 N   0  0  0  0  0  0  0  0  0  0  0  0
   46.9720   31.9540   46.8570 C   0  0  0  0  0  0  0  0  0  0  0  0
   47.7920   34.1120   41.9760 N   0  0  0  0  0  0  0  0  0  0  0  0
   47.9800   35.4470   41.7630 C   0  0  0  0  0  0  0  0  0  0  0  0
   49.3970   35.9300   41.9140 C   0  0  0  0  0  0  0  0  0  0  0  0
   50.1970   35.1740   42.8370 N   0  0  0  0  0  0  0  0  0  0  0  0
   50.0950   33.7440   42.6660 C   0  0  0  0  0  0  0  0  0  0  0  0
   48.7610   33.1800   42.2290 C   0  0  0  0  0  0  0  0  0  0  0  0
   48.7280   31.7400   42.0720 C   0  0  0  0  0  0  0  0  0  0  0  0
   50.0550   31.2530   41.9940 F   0  0  0  0  0  0  0  0  0  0  0  0
   48.2650   31.1480   43.2580 F   0  0  0  0  0  0  0  0  0  0  0  0
   47.9880   31.2080   41.0760 F   0  0  0  0  0  0  0  0  0  0  0  0
   46.4343   32.5460   42.0980 H   0  0  0  0  0  0  0  0  0  0  0  0
   45.8243   34.0753   41.3422 H   0  0  0  0  0  0  0  0  0  0  0  0
   46.8028   32.4156   44.5206 H   0  0  0  0  0  0  0  0  0  0  0  0
   43.9509   36.4137   44.8140 H   0  0  0  0  0  0  0  0  0  0  0  0
   44.5408   33.4352   48.4987 H   0  0  0  0  0  0  0  0  0  0  0  0
   45.8845   31.5346   49.8858 H   0  0  0  0  0  0  0  0  0  0  0  0
   47.6245   31.7566   45.9937 H   0  0  0  0  0  0  0  0  0  0  0  0
   47.3553   35.9970   42.4822 H   0  0  0  0  0  0  0  0  0  0  0  0
   47.7076   35.6283   40.7128 H   0  0  0  0  0  0  0  0  0  0  0  0
   49.8803   35.8861   40.9268 H   0  0  0  0  0  0  0  0  0  0  0  0
   49.3343   36.9495   42.3222 H   0  0  0  0  0  0  0  0  0  0  0  0
   50.7900   35.6126   43.5560 H   0  0  0  0  0  0  0  0  0  0  0  0
   50.9582   33.0867   42.8474 H   0  0  0  0  0  0  0  0  0  0  0  0
  1  2  1  0
  2  7  1  0
  2  3  2  0
  3  4  1  0
  4  5  2  0
  4  8  1  0
  6  5  1  0
  7  6  2  0
  8  9  1  0
  9 10  2  0
 11 10  1  0
 12  8  1  0
 12 11  2  0
 13  1  1  0
 13 18  1  0
 14 15  1  0
 14 13  1  0
 15 16  1  0
 17 16  1  0
 18 17  2  0
 19 18  1  0
 19 21  1  0
 20 19  1  0
 22 19  1  0
  1 23  1  0
  1 24  1  0
  3 25  1  0
  6 26  1  0
  9 27  1  0
 10 28  1  0
 12 29  1  0
 14 30  1  0
 14 31  1  0
 15 32  1  0
 15 33  1  0
 16 34  1  0
 17 35  1  0
M  ISO  8  23   8  24   8  25  14  26  14  27  14  28  14  29  14  30  13
M  ISO  4  31  13  32  13  33  13  35  13
M  END
>  <minimizedAffinity>  (1) 
-5.97276449

>  <minimizedRMSD>  (1) 
0.593114436

$$$$
