
     RDKit          3D

 34 36  0  0  0  0  0  0  0  0999 V2000
   46.3880   33.8100   41.9820 C   0  0  0  0  0  0  0  0  0  0  0  0
   45.8160   34.2240   43.2890 C   0  0  0  0  0  0  0  0  0  0  0  0
   46.1020   33.4220   44.4310 C   0  0  0  0  0  0  0  0  0  0  0  0
   45.5610   33.8220   45.6480 C   0  0  0  0  0  0  0  0  0  0  0  0
   44.7910   34.9510   45.6850 N   0  0  0  0  0  0  0  0  0  0  0  0
   44.5470   35.6780   44.5880 C   0  0  0  0  0  0  0  0  0  0  0  0
   45.0480   35.3320   43.3840 N   0  0  0  0  0  0  0  0  0  0  0  0
   45.8770   32.9820   46.7420 N   0  0  0  0  0  0  0  0  0  0  0  0
   45.2740   32.9360   47.9540 C   0  0  0  0  0  0  0  0  0  0  0  0
   45.9560   31.9370   48.6710 C   0  0  0  0  0  0  0  0  0  0  0  0
   46.9140   31.4450   47.8680 N   0  0  0  0  0  0  0  0  0  0  0  0
   46.8830   32.0700   46.6860 C   0  0  0  0  0  0  0  0  0  0  0  0
   47.7800   34.1720   41.8760 N   0  0  0  0  0  0  0  0  0  0  0  0
   48.0770   35.4980   41.7550 C   0  0  0  0  0  0  0  0  0  0  0  0
   49.5230   35.8620   41.9600 C   0  0  0  0  0  0  0  0  0  0  0  0
   50.2390   34.9860   42.8480 N   0  0  0  0  0  0  0  0  0  0  0  0
   50.0320   33.5820   42.5850 C   0  0  0  0  0  0  0  0  0  0  0  0
   48.6740   33.1560   42.0920 C   0  0  0  0  0  0  0  0  0  0  0  0
   48.4970   31.7840   41.9180 N   0  0  0  0  0  0  0  0  0  0  0  0
   46.2936   32.7188   41.8800 H   0  0  0  0  0  0  0  0  0  0  0  0
   45.8351   34.3270   41.1839 H   0  0  0  0  0  0  0  0  0  0  0  0
   46.7272   32.5203   44.3531 H   0  0  0  0  0  0  0  0  0  0  0  0
   43.9226   36.5799   44.6701 H   0  0  0  0  0  0  0  0  0  0  0  0
   44.4304   33.5495   48.3031 H   0  0  0  0  0  0  0  0  0  0  0  0
   45.7437   31.6167   49.7017 H   0  0  0  0  0  0  0  0  0  0  0  0
   47.5470   31.8813   45.8295 H   0  0  0  0  0  0  0  0  0  0  0  0
   47.7874   35.8187   40.7434 H   0  0  0  0  0  0  0  0  0  0  0  0
   47.5223   36.0051   42.5582 H   0  0  0  0  0  0  0  0  0  0  0  0
   50.0241   35.8430   40.9809 H   0  0  0  0  0  0  0  0  0  0  0  0
   49.5314   36.8571   42.4286 H   0  0  0  0  0  0  0  0  0  0  0  0
   50.8463   35.3304   43.6053 H   0  0  0  0  0  0  0  0  0  0  0  0
   50.8376   32.8490   42.7392 H   0  0  0  0  0  0  0  0  0  0  0  0
   49.2697   31.1348   42.1238 H   0  0  0  0  0  0  0  0  0  0  0  0
   47.5935   31.4196   41.5836 H   0  0  0  0  0  0  0  0  0  0  0  0
  1  2  1  0
  2  7  1  0
  2  3  2  0
  3  4  1  0
  4  5  2  0
  4  8  1  0
  6  5  1  0
  7  6  2  0
  8  9  1  0
  9 10  2  0
 11 10  1  0
 12  8  1  0
 12 11  2  0
 13  1  1  0
 13 18  1  0
 14 13  1  0
 14 15  1  0
 15 16  1  0
 17 16  1  0
 18 17  2  0
 19 18  1  0
  1 20  1  0
  1 21  1  0
  3 22  1  0
  6 23  1  0
  9 24  1  0
 10 25  1  0
 12 26  1  0
 14 27  1  0
 14 28  1  0
 15 29  1  0
 15 30  1  0
 16 31  1  0
 17 32  1  0
 19 33  1  0
 19 34  1  0
M  ISO  8  20   8  21   8  22  14  23  14  24  14  25  14  26  14  27  13
M  ISO  4  28  13  29  13  30  13  32  13
M  END
>  <minimizedAffinity>  (1) 
-5.9092474

>  <minimizedRMSD>  (1) 
0.0190600753

$$$$
