
     RDKit          3D

 39 42  0  0  0  0  0  0  0  0999 V2000
   46.4740   33.6320   42.1340 C   0  0  0  0  0  0  0  0  0  0  0  0
   45.8980   34.0460   43.4380 C   0  0  0  0  0  0  0  0  0  0  0  0
   46.1890   33.2540   44.5870 C   0  0  0  0  0  0  0  0  0  0  0  0
   45.6440   33.6550   45.7950 C   0  0  0  0  0  0  0  0  0  0  0  0
   44.8610   34.7810   45.8240 N   0  0  0  0  0  0  0  0  0  0  0  0
   44.6100   35.5000   44.7220 C   0  0  0  0  0  0  0  0  0  0  0  0
   45.1200   35.1440   43.5300 N   0  0  0  0  0  0  0  0  0  0  0  0
   45.9590   32.8540   46.9050 N   0  0  0  0  0  0  0  0  0  0  0  0
   45.4000   32.8170   48.1260 C   0  0  0  0  0  0  0  0  0  0  0  0
   46.0900   31.8460   48.8560 C   0  0  0  0  0  0  0  0  0  0  0  0
   47.0370   31.3350   48.0450 N   0  0  0  0  0  0  0  0  0  0  0  0
   46.9810   31.9310   46.8490 C   0  0  0  0  0  0  0  0  0  0  0  0
   47.8200   34.0840   41.9720 N   0  0  0  0  0  0  0  0  0  0  0  0
   47.9970   35.4220   41.7630 C   0  0  0  0  0  0  0  0  0  0  0  0
   49.3940   35.9430   41.9230 C   0  0  0  0  0  0  0  0  0  0  0  0
   50.2180   35.1660   42.8300 N   0  0  0  0  0  0  0  0  0  0  0  0
   50.1300   33.7450   42.6450 C   0  0  0  0  0  0  0  0  0  0  0  0
   48.8080   33.1730   42.2190 C   0  0  0  0  0  0  0  0  0  0  0  0
   48.7860   31.7670   42.1280 N   0  0  0  0  0  0  0  0  0  0  0  0
   48.7670   31.0010   41.0620 N   0  0  0  0  0  0  0  0  0  0  0  0
   48.7480   29.7090   41.3990 C   0  0  0  0  0  0  0  0  0  0  0  0
   48.7550   29.6080   42.7710 C   0  0  0  0  0  0  0  0  0  0  0  0
   48.7790   30.9220   43.1760 C   0  0  0  0  0  0  0  0  0  0  0  0
   46.4590   32.5338   42.0725 H   0  0  0  0  0  0  0  0  0  0  0  0
   45.8667   34.0853   41.3367 H   0  0  0  0  0  0  0  0  0  0  0  0
   46.8229   32.3578   44.5165 H   0  0  0  0  0  0  0  0  0  0  0  0
   43.9763   36.3963   44.7935 H   0  0  0  0  0  0  0  0  0  0  0  0
   44.5608   33.4325   48.4823 H   0  0  0  0  0  0  0  0  0  0  0  0
   45.8963   31.5532   49.8985 H   0  0  0  0  0  0  0  0  0  0  0  0
   47.6283   31.7237   45.9841 H   0  0  0  0  0  0  0  0  0  0  0  0
   47.3555   35.9599   42.4766 H   0  0  0  0  0  0  0  0  0  0  0  0
   47.7424   35.5887   40.7059 H   0  0  0  0  0  0  0  0  0  0  0  0
   49.8767   35.9454   40.9346 H   0  0  0  0  0  0  0  0  0  0  0  0
   49.3082   36.9499   42.3576 H   0  0  0  0  0  0  0  0  0  0  0  0
   50.8170   35.5984   43.5477 H   0  0  0  0  0  0  0  0  0  0  0  0
   51.0027   33.0960   42.8099 H   0  0  0  0  0  0  0  0  0  0  0  0
   48.7297   28.8640   40.6950 H   0  0  0  0  0  0  0  0  0  0  0  0
   48.7441   28.6997   43.3914 H   0  0  0  0  0  0  0  0  0  0  0  0
   48.7910   31.2434   44.2279 H   0  0  0  0  0  0  0  0  0  0  0  0
  1  2  1  0
  2  7  1  0
  2  3  2  0
  3  4  1  0
  4  5  2  0
  4  8  1  0
  6  5  1  0
  7  6  2  0
  8  9  1  0
  9 10  2  0
 11 10  1  0
 12  8  1  0
 12 11  2  0
 13  1  1  0
 13 18  1  0
 14 15  1  0
 14 13  1  0
 15 16  1  0
 17 16  1  0
 18 17  2  0
 19 18  1  0
 19 23  1  0
 20 21  2  0
 20 19  1  0
 21 22  1  0
 22 23  2  0
  1 24  1  0
  1 25  1  0
  3 26  1  0
  6 27  1  0
  9 28  1  0
 10 29  1  0
 12 30  1  0
 14 31  1  0
 14 32  1  0
 15 33  1  0
 15 34  1  0
 16 35  1  0
 17 36  1  0
 21 37  1  0
 22 38  1  0
 23 39  1  0
M  ISO  8  24   8  25   8  26  14  27  14  28  14  29  14  30  14  31  13
M  ISO  7  32  13  33  13  34  13  36  13  37  14  38  14  39  14
M  END
>  <minimizedAffinity>  (1) 
-5.98652887

>  <minimizedRMSD>  (1) 
0.55813539

$$$$
