
     RDKit          3D

 33 35  0  0  0  0  0  0  0  0999 V2000
   46.3940   33.8120   41.9860 C   0  0  0  0  0  0  0  0  0  0  0  0
   45.8190   34.2260   43.2920 C   0  0  0  0  0  0  0  0  0  0  0  0
   46.0980   33.4190   44.4320 C   0  0  0  0  0  0  0  0  0  0  0  0
   45.5510   33.8220   45.6490 C   0  0  0  0  0  0  0  0  0  0  0  0
   44.7890   34.9520   45.6850 N   0  0  0  0  0  0  0  0  0  0  0  0
   44.5520   35.6840   44.5880 C   0  0  0  0  0  0  0  0  0  0  0  0
   45.0590   35.3360   43.3830 N   0  0  0  0  0  0  0  0  0  0  0  0
   45.8560   32.9930   46.7470 N   0  0  0  0  0  0  0  0  0  0  0  0
   45.2780   32.9340   47.9570 C   0  0  0  0  0  0  0  0  0  0  0  0
   45.9390   31.9480   48.6780 C   0  0  0  0  0  0  0  0  0  0  0  0
   46.9000   31.4440   47.8690 N   0  0  0  0  0  0  0  0  0  0  0  0
   46.8700   32.0640   46.6840 C   0  0  0  0  0  0  0  0  0  0  0  0
   47.7840   34.1670   41.8780 N   0  0  0  0  0  0  0  0  0  0  0  0
   48.0850   35.4900   41.7420 C   0  0  0  0  0  0  0  0  0  0  0  0
   49.5250   35.8650   41.9680 C   0  0  0  0  0  0  0  0  0  0  0  0
   50.2420   34.9810   42.8460 N   0  0  0  0  0  0  0  0  0  0  0  0
   50.0340   33.5770   42.5910 C   0  0  0  0  0  0  0  0  0  0  0  0
   48.6800   33.1550   42.1040 C   0  0  0  0  0  0  0  0  0  0  0  0
   48.5030   31.8160   41.9430 O   0  0  0  0  0  0  0  0  0  0  0  0
   46.2960   32.7212   41.8835 H   0  0  0  0  0  0  0  0  0  0  0  0
   45.8445   34.3347   41.1892 H   0  0  0  0  0  0  0  0  0  0  0  0
   46.7197   32.5148   44.3551 H   0  0  0  0  0  0  0  0  0  0  0  0
   43.9311   36.5884   44.6691 H   0  0  0  0  0  0  0  0  0  0  0  0
   44.4387   33.5506   48.3110 H   0  0  0  0  0  0  0  0  0  0  0  0
   45.7226   31.6360   49.7104 H   0  0  0  0  0  0  0  0  0  0  0  0
   47.5286   31.8691   45.8248 H   0  0  0  0  0  0  0  0  0  0  0  0
   47.8145   35.7935   40.7199 H   0  0  0  0  0  0  0  0  0  0  0  0
   47.5167   36.0062   42.5297 H   0  0  0  0  0  0  0  0  0  0  0  0
   50.0355   35.8695   40.9937 H   0  0  0  0  0  0  0  0  0  0  0  0
   49.5180   36.8511   42.4555 H   0  0  0  0  0  0  0  0  0  0  0  0
   50.8563   35.3236   43.5984 H   0  0  0  0  0  0  0  0  0  0  0  0
   50.8383   32.8432   42.7478 H   0  0  0  0  0  0  0  0  0  0  0  0
   49.2434   31.1909   42.1457 H   0  0  0  0  0  0  0  0  0  0  0  0
  1  2  1  0
  2  7  1  0
  2  3  2  0
  3  4  1  0
  4  5  2  0
  4  8  1  0
  6  5  1  0
  7  6  2  0
  8  9  1  0
  9 10  2  0
 11 10  1  0
 12  8  1  0
 12 11  2  0
 13  1  1  0
 13 18  1  0
 14 13  1  0
 14 15  1  0
 15 16  1  0
 17 16  1  0
 18 17  2  0
 19 18  1  0
  1 20  1  0
  1 21  1  0
  3 22  1  0
  6 23  1  0
  9 24  1  0
 10 25  1  0
 12 26  1  0
 14 27  1  0
 14 28  1  0
 15 29  1  0
 15 30  1  0
 16 31  1  0
 17 32  1  0
 19 33  1  0
M  ISO  8  20   8  21   8  22  14  23  14  24  14  25  14  26  14  27  13
M  ISO  5  28  13  29  13  30  13  32  13  33   3
M  END
>  <minimizedAffinity>  (1) 
-5.90821934

>  <minimizedRMSD>  (1) 
0.0188201051

$$$$
