
     RDKit          3D

 43 46  0  0  1  0  0  0  0  0999 V2000
   46.3680   31.1400   45.3210 C   0  0  2  0  0  0  0  0  0  0  0  0
   44.7300   35.0750   45.3990 C   0  0  0  0  0  0  0  0  0  0  0  0
   44.5670   36.1190   44.4900 C   0  0  0  0  0  0  0  0  0  0  0  0
   45.2960   36.0820   43.2910 C   0  0  0  0  0  0  0  0  0  0  0  0
   46.1270   35.0370   43.0680 N   0  0  0  0  0  0  0  0  0  0  0  0
   46.2740   34.0210   43.9720 C   0  0  0  0  0  0  0  0  0  0  0  0
   45.5790   34.0660   45.1040 N   0  0  0  0  0  0  0  0  0  0  0  0
   47.1390   32.9300   43.7670 N   0  0  0  0  0  0  0  0  0  0  0  0
   48.1130   33.1130   42.8290 C   0  0  0  0  0  0  0  0  0  0  0  0
   48.8420   31.9040   42.8180 C   0  0  0  0  0  0  0  0  0  0  0  0
   48.2900   31.0570   43.7340 N   0  0  0  0  0  0  0  0  0  0  0  0
   47.2560   31.7020   44.2970 C   0  0  0  0  0  0  0  0  0  0  0  0
   47.1640   31.2080   46.6490 C   0  0  0  0  0  0  0  0  0  0  0  0
   46.1030   29.6930   45.0390 C   0  0  0  0  0  0  0  0  0  0  0  0
   44.7990   29.4370   44.5410 N   0  0  0  0  0  0  0  0  0  0  0  0
   44.2630   29.9880   43.4480 N   0  0  0  0  0  0  0  0  0  0  0  0
   43.0080   29.4990   43.3070 C   0  0  0  0  0  0  0  0  0  0  0  0
   42.7350   28.6150   44.3310 C   0  0  0  0  0  0  0  0  0  0  0  0
   43.8990   28.5900   45.1130 C   0  0  0  0  0  0  0  0  0  0  0  0
   43.9710   27.7560   46.3030 C   0  0  0  0  0  0  0  0  0  0  0  0
   44.7690   27.8840   47.4110 C   0  0  0  0  0  0  0  0  0  0  0  0
   44.6950   26.9950   48.4540 C   0  0  0  0  0  0  0  0  0  0  0  0
   43.8320   25.9380   48.4550 C   0  0  0  0  0  0  0  0  0  0  0  0
   43.0100   25.7570   47.3790 C   0  0  0  0  0  0  0  0  0  0  0  0
   43.1000   26.6600   46.3460 C   0  0  0  0  0  0  0  0  0  0  0  0
   45.4137   31.6863   45.3506 H   0  0  0  0  0  0  0  0  0  0  0  0
   44.1728   35.0725   46.3475 H   0  0  0  0  0  0  0  0  0  0  0  0
   43.8829   36.9526   44.7072 H   0  0  0  0  0  0  0  0  0  0  0  0
   45.1940   36.8862   42.5474 H   0  0  0  0  0  0  0  0  0  0  0  0
   48.2914   34.0080   42.2149 H   0  0  0  0  0  0  0  0  0  0  0  0
   49.7091   31.6823   42.1785 H   0  0  0  0  0  0  0  0  0  0  0  0
   46.4669   31.1484   47.4978 H   0  0  0  0  0  0  0  0  0  0  0  0
   47.8715   30.3670   46.6959 H   0  0  0  0  0  0  0  0  0  0  0  0
   47.7186   32.1568   46.6959 H   0  0  0  0  0  0  0  0  0  0  0  0
   46.8335   29.3452   44.2938 H   0  0  0  0  0  0  0  0  0  0  0  0
   46.1917   29.1581   45.9961 H   0  0  0  0  0  0  0  0  0  0  0  0
   42.3115   29.7660   42.4985 H   0  0  0  0  0  0  0  0  0  0  0  0
   41.8051   28.0516   44.4979 H   0  0  0  0  0  0  0  0  0  0  0  0
   45.4844   28.7179   47.4650 H   0  0  0  0  0  0  0  0  0  0  0  0
   45.3559   27.1399   49.3213 H   0  0  0  0  0  0  0  0  0  0  0  0
   43.7988   25.2437   49.3075 H   0  0  0  0  0  0  0  0  0  0  0  0
   42.3003   24.9175   47.3403 H   0  0  0  0  0  0  0  0  0  0  0  0
   42.4340   26.5094   45.4836 H   0  0  0  0  0  0  0  0  0  0  0  0
  1 13  1  0
  3  2  2  0
  4  3  1  0
  5  4  2  0
  5  6  1  0
  6  7  2  0
  7  2  1  0
  8  6  1  0
  8 12  1  0
  9  8  1  0
 10  9  2  0
 10 11  1  0
 11 12  2  0
 12  1  1  0
 14  1  1  0
 15 14  1  0
 15 19  1  0
 16 15  1  0
 17 16  2  0
 17 18  1  0
 18 19  2  0
 19 20  1  0
 20 25  1  0
 20 21  2  0
 21 22  1  0
 22 23  2  0
 24 23  1  0
 25 24  2  0
  1 26  1  1
  2 27  1  0
  3 28  1  0
  4 29  1  0
  9 30  1  0
 10 31  1  0
 13 32  1  0
 13 33  1  0
 13 34  1  0
 14 35  1  0
 14 36  1  0
 17 37  1  0
 18 38  1  0
 21 39  1  0
 22 40  1  0
 23 41  1  0
 24 42  1  0
 25 43  1  0
M  ISO  8  26   8  27  14  28  14  29  14  30  14  31  14  32   8  33   8
M  ISO  8  34   8  35   8  36   8  37  14  38  14  39  14  40  14  41  14
M  ISO  2  42  14  43  14
M  END
>  <minimizedAffinity>  (1) 
-5.38792229

>  <minimizedRMSD>  (1) 
2.61614108

$$$$
