
     RDKit          3D

 48 51  0  0  0  0  0  0  0  0999 V2000
   47.9790   34.1560   41.8240 N   0  0  0  0  0  0  0  0  0  0  0  0
   48.2430   35.4830   41.8340 C   0  0  0  0  0  0  0  0  0  0  0  0
   49.6640   35.8520   42.1870 C   0  0  0  0  0  0  0  0  0  0  0  0
   50.4060   34.8080   42.8620 N   0  0  0  0  0  0  0  0  0  0  0  0
   50.1910   33.4920   42.3690 C   0  0  0  0  0  0  0  0  0  0  0  0
   48.8560   33.1150   41.8690 C   0  0  0  0  0  0  0  0  0  0  0  0
   48.7600   31.7790   41.4750 N   0  0  0  0  0  0  0  0  0  0  0  0
   48.9420   31.2980   40.2090 N   0  0  0  0  0  0  0  0  0  0  0  0
   48.6100   30.0080   40.1880 C   0  0  0  0  0  0  0  0  0  0  0  0
   48.2100   29.6380   41.4730 C   0  0  0  0  0  0  0  0  0  0  0  0
   48.3380   30.7710   42.2310 C   0  0  0  0  0  0  0  0  0  0  0  0
   48.3260   30.5410   43.6850 C   0  0  0  0  0  0  0  0  0  0  0  0
   49.2220   29.6970   44.3980 C   0  0  0  0  0  0  0  0  0  0  0  0
   46.9810   29.7130   44.0330 C   0  0  0  0  0  0  0  0  0  0  0  0
   46.5860   33.8110   41.8130 C   0  0  0  0  0  0  0  0  0  0  0  0
   45.9210   34.2620   43.0660 C   0  0  0  0  0  0  0  0  0  0  0  0
   46.1600   33.5220   44.2470 C   0  0  0  0  0  0  0  0  0  0  0  0
   45.5410   33.9550   45.4120 C   0  0  0  0  0  0  0  0  0  0  0  0
   44.7370   35.0660   45.3540 N   0  0  0  0  0  0  0  0  0  0  0  0
   44.5350   35.7370   44.2150 C   0  0  0  0  0  0  0  0  0  0  0  0
   45.1190   35.3470   43.0710 N   0  0  0  0  0  0  0  0  0  0  0  0
   45.7990   33.2080   46.5580 N   0  0  0  0  0  0  0  0  0  0  0  0
   45.1860   33.1860   47.7590 C   0  0  0  0  0  0  0  0  0  0  0  0
   45.8440   32.2520   48.5560 C   0  0  0  0  0  0  0  0  0  0  0  0
   46.8450   31.7290   47.8110 N   0  0  0  0  0  0  0  0  0  0  0  0
   46.8140   32.3110   46.5990 C   0  0  0  0  0  0  0  0  0  0  0  0
   48.0269   35.8807   40.8314 H   0  0  0  0  0  0  0  0  0  0  0  0
   47.6099   35.9148   42.6232 H   0  0  0  0  0  0  0  0  0  0  0  0
   50.1945   36.1040   41.2569 H   0  0  0  0  0  0  0  0  0  0  0  0
   49.6024   36.6960   42.8897 H   0  0  0  0  0  0  0  0  0  0  0  0
   51.0453   35.0051   43.6451 H   0  0  0  0  0  0  0  0  0  0  0  0
   51.0133   32.7614   42.3606 H   0  0  0  0  0  0  0  0  0  0  0  0
   48.6451   29.3478   39.3089 H   0  0  0  0  0  0  0  0  0  0  0  0
   47.8655   28.6477   41.8057 H   0  0  0  0  0  0  0  0  0  0  0  0
   48.5377   31.5789   43.9817 H   0  0  0  0  0  0  0  0  0  0  0  0
   49.0746   29.8359   45.4792 H   0  0  0  0  0  0  0  0  0  0  0  0
   49.0263   28.6475   44.1331 H   0  0  0  0  0  0  0  0  0  0  0  0
   50.2580   29.9550   44.1331 H   0  0  0  0  0  0  0  0  0  0  0  0
   46.8661   29.6423   45.1247 H   0  0  0  0  0  0  0  0  0  0  0  0
   46.1102   30.2316   43.6055 H   0  0  0  0  0  0  0  0  0  0  0  0
   47.0519   28.7020   43.6055 H   0  0  0  0  0  0  0  0  0  0  0  0
   46.1011   34.2954   40.9526 H   0  0  0  0  0  0  0  0  0  0  0  0
   46.4937   32.7174   41.7382 H   0  0  0  0  0  0  0  0  0  0  0  0
   46.8121   32.6362   44.2429 H   0  0  0  0  0  0  0  0  0  0  0  0
   43.8808   36.6213   44.2156 H   0  0  0  0  0  0  0  0  0  0  0  0
   44.3207   33.7967   48.0563 H   0  0  0  0  0  0  0  0  0  0  0  0
   45.5964   31.9892   49.5951 H   0  0  0  0  0  0  0  0  0  0  0  0
   47.5043   32.0931   45.7708 H   0  0  0  0  0  0  0  0  0  0  0  0
  1  2  1  0
  1  6  1  0
  2  3  1  0
  3  4  1  0
  5  4  1  0
  6  5  2  0
  7  6  1  0
  7 11  1  0
  8  7  1  0
  9  8  2  0
  9 10  1  0
 10 11  2  0
 11 12  1  0
 12 14  1  0
 12 13  1  0
 15  1  1  0
 15 16  1  0
 16 21  1  0
 16 17  2  0
 17 18  1  0
 18 22  1  0
 19 18  2  0
 20 19  1  0
 21 20  2  0
 22 26  1  0
 22 23  1  0
 23 24  2  0
 25 24  1  0
 26 25  2  0
  2 27  1  0
  2 28  1  0
  3 29  1  0
  3 30  1  0
  4 31  1  0
  5 32  1  0
  9 33  1  0
 10 34  1  0
 12 35  1  0
 13 36  1  0
 13 37  1  0
 13 38  1  0
 14 39  1  0
 14 40  1  0
 14 41  1  0
 15 42  1  0
 15 43  1  0
 17 44  1  0
 20 45  1  0
 23 46  1  0
 24 47  1  0
 26 48  1  0
M  ISO  8  27  13  28  13  29  13  30  13  32  13  33  14  34  14  35   8
M  ISO  8  36   8  37   8  38   8  39   8  40   8  41   8  42   8  43   8
M  ISO  5  44  14  45  14  46  14  47  14  48  14
M  END
>  <minimizedAffinity>  (1) 
-5.7917881

>  <minimizedRMSD>  (1) 
0.84732914

$$$$
