
     RDKit          3D

 41 44  0  0  0  0  0  0  0  0999 V2000
   47.8850   34.1600   41.8590 N   0  0  0  0  0  0  0  0  0  0  0  0
   48.1660   35.4800   41.9100 C   0  0  0  0  0  0  0  0  0  0  0  0
   49.6140   35.8230   42.1880 C   0  0  0  0  0  0  0  0  0  0  0  0
   50.3540   34.7770   42.8610 N   0  0  0  0  0  0  0  0  0  0  0  0
   50.1280   33.4600   42.3560 C   0  0  0  0  0  0  0  0  0  0  0  0
   48.7730   33.1260   41.8320 C   0  0  0  0  0  0  0  0  0  0  0  0
   48.6340   31.7940   41.4240 N   0  0  0  0  0  0  0  0  0  0  0  0
   48.6750   31.2870   40.1890 N   0  0  0  0  0  0  0  0  0  0  0  0
   48.4450   29.9670   40.2330 C   0  0  0  0  0  0  0  0  0  0  0  0
   48.2460   29.5790   41.5550 C   0  0  0  0  0  0  0  0  0  0  0  0
   48.3820   30.7610   42.2640 C   0  0  0  0  0  0  0  0  0  0  0  0
   48.4980   30.9290   43.6590 N   0  0  0  0  0  0  0  0  0  0  0  0
   46.4840   33.8000   41.9020 C   0  0  0  0  0  0  0  0  0  0  0  0
   45.8750   34.2200   43.1940 C   0  0  0  0  0  0  0  0  0  0  0  0
   46.1260   33.4310   44.3440 C   0  0  0  0  0  0  0  0  0  0  0  0
   45.5710   33.8320   45.5530 C   0  0  0  0  0  0  0  0  0  0  0  0
   44.8020   34.9800   45.5590 N   0  0  0  0  0  0  0  0  0  0  0  0
   44.5830   35.7030   44.4550 C   0  0  0  0  0  0  0  0  0  0  0  0
   45.1110   35.3350   43.2700 N   0  0  0  0  0  0  0  0  0  0  0  0
   45.8450   33.0480   46.6650 N   0  0  0  0  0  0  0  0  0  0  0  0
   45.2660   33.0030   47.8750 C   0  0  0  0  0  0  0  0  0  0  0  0
   45.9220   32.0390   48.6250 C   0  0  0  0  0  0  0  0  0  0  0  0
   46.8920   31.5230   47.8380 N   0  0  0  0  0  0  0  0  0  0  0  0
   46.8490   32.1350   46.6380 C   0  0  0  0  0  0  0  0  0  0  0  0
   47.8916   35.9235   40.9415 H   0  0  0  0  0  0  0  0  0  0  0  0
   47.5904   35.8810   42.7573 H   0  0  0  0  0  0  0  0  0  0  0  0
   50.1090   36.0327   41.2283 H   0  0  0  0  0  0  0  0  0  0  0  0
   49.6086   36.6907   42.8640 H   0  0  0  0  0  0  0  0  0  0  0  0
   50.9948   34.9677   43.6445 H   0  0  0  0  0  0  0  0  0  0  0  0
   50.9337   32.7111   42.3538 H   0  0  0  0  0  0  0  0  0  0  0  0
   48.4178   29.2961   39.3617 H   0  0  0  0  0  0  0  0  0  0  0  0
   48.0317   28.5727   41.9441 H   0  0  0  0  0  0  0  0  0  0  0  0
   48.3047   30.1388   44.2907 H   0  0  0  0  0  0  0  0  0  0  0  0
   48.7761   31.8420   44.0464 H   0  0  0  0  0  0  0  0  0  0  0  0
   45.9571   34.2983   41.0749 H   0  0  0  0  0  0  0  0  0  0  0  0
   46.3952   32.7078   41.8063 H   0  0  0  0  0  0  0  0  0  0  0  0
   46.7448   32.5237   44.2811 H   0  0  0  0  0  0  0  0  0  0  0  0
   43.9637   36.6102   44.5146 H   0  0  0  0  0  0  0  0  0  0  0  0
   44.4209   33.6213   48.2119 H   0  0  0  0  0  0  0  0  0  0  0  0
   45.6962   31.7496   49.6619 H   0  0  0  0  0  0  0  0  0  0  0  0
   47.5124   31.9302   45.7848 H   0  0  0  0  0  0  0  0  0  0  0  0
  1 13  1  0
  1  2  1  0
  2  3  1  0
  3  4  1  0
  5  4  1  0
  6  1  1  0
  6  5  2  0
  7  6  1  0
  7 11  1  0
  8  9  2  0
  8  7  1  0
  9 10  1  0
 10 11  2  0
 11 12  1  0
 13 14  1  0
 14 19  1  0
 14 15  2  0
 15 16  1  0
 16 17  2  0
 16 20  1  0
 18 17  1  0
 19 18  2  0
 20 21  1  0
 21 22  2  0
 23 22  1  0
 24 20  1  0
 24 23  2  0
  2 25  1  0
  2 26  1  0
  3 27  1  0
  3 28  1  0
  4 29  1  0
  5 30  1  0
  9 31  1  0
 10 32  1  0
 12 33  1  0
 12 34  1  0
 13 35  1  0
 13 36  1  0
 15 37  1  0
 18 38  1  0
 21 39  1  0
 22 40  1  0
 24 41  1  0
M  ISO  8  25  13  26  13  27  13  28  13  30  13  31  14  32  14  35   8
M  ISO  6  36   8  37  14  38  14  39  14  40  14  41  14
M  END
>  <minimizedAffinity>  (1) 
-5.8953104

>  <minimizedRMSD>  (1) 
0.616797388

$$$$
