
     RDKit          3D

 46 50  0  0  0  0  0  0  0  0999 V2000
   47.9920   34.1680   41.7840 N   0  0  0  0  0  0  0  0  0  0  0  0
   48.2930   35.4570   42.0470 C   0  0  0  0  0  0  0  0  0  0  0  0
   49.7350   35.7260   42.4020 C   0  0  0  0  0  0  0  0  0  0  0  0
   50.4730   34.5580   42.8530 N   0  0  0  0  0  0  0  0  0  0  0  0
   50.2130   33.3560   42.1350 C   0  0  0  0  0  0  0  0  0  0  0  0
   48.8690   33.1250   41.5860 C   0  0  0  0  0  0  0  0  0  0  0  0
   48.7020   31.8780   40.9700 N   0  0  0  0  0  0  0  0  0  0  0  0
   48.5970   31.6350   39.6480 N   0  0  0  0  0  0  0  0  0  0  0  0
   48.3560   30.3410   39.4300 C   0  0  0  0  0  0  0  0  0  0  0  0
   48.3040   29.7100   40.6720 C   0  0  0  0  0  0  0  0  0  0  0  0
   48.5380   30.7120   41.5980 C   0  0  0  0  0  0  0  0  0  0  0  0
   48.9180   30.2790   42.9090 N   0  0  0  0  0  0  0  0  0  0  0  0
   50.1230   29.8240   43.2830 N   0  0  0  0  0  0  0  0  0  0  0  0
   50.1180   29.3880   44.5500 C   0  0  0  0  0  0  0  0  0  0  0  0
   48.8470   29.5570   45.0570 C   0  0  0  0  0  0  0  0  0  0  0  0
   48.1300   30.1110   44.0180 C   0  0  0  0  0  0  0  0  0  0  0  0
   46.5920   33.8430   41.7660 C   0  0  0  0  0  0  0  0  0  0  0  0
   45.9320   34.2820   43.0240 C   0  0  0  0  0  0  0  0  0  0  0  0
   46.1720   33.5410   44.2050 C   0  0  0  0  0  0  0  0  0  0  0  0
   45.5560   33.9630   45.3730 C   0  0  0  0  0  0  0  0  0  0  0  0
   44.7490   35.0690   45.3260 N   0  0  0  0  0  0  0  0  0  0  0  0
   44.5430   35.7480   44.1920 C   0  0  0  0  0  0  0  0  0  0  0  0
   45.1260   35.3670   43.0410 N   0  0  0  0  0  0  0  0  0  0  0  0
   45.8270   33.2080   46.5190 N   0  0  0  0  0  0  0  0  0  0  0  0
   45.1860   33.1570   47.6990 C   0  0  0  0  0  0  0  0  0  0  0  0
   45.8780   32.2280   48.4990 C   0  0  0  0  0  0  0  0  0  0  0  0
   46.9040   31.7590   47.7670 N   0  0  0  0  0  0  0  0  0  0  0  0
   46.8820   32.3490   46.5600 C   0  0  0  0  0  0  0  0  0  0  0  0
   48.0465   36.0518   41.1551 H   0  0  0  0  0  0  0  0  0  0  0  0
   47.7061   35.7297   42.9365 H   0  0  0  0  0  0  0  0  0  0  0  0
   50.2390   36.1277   41.5106 H   0  0  0  0  0  0  0  0  0  0  0  0
   49.7229   36.4329   43.2447 H   0  0  0  0  0  0  0  0  0  0  0  0
   51.1385   34.5970   43.6382 H   0  0  0  0  0  0  0  0  0  0  0  0
   51.0082   32.6094   41.9929 H   0  0  0  0  0  0  0  0  0  0  0  0
   48.2227   29.8601   38.4497 H   0  0  0  0  0  0  0  0  0  0  0  0
   48.1172   28.6448   40.8730 H   0  0  0  0  0  0  0  0  0  0  0  0
   50.9785   28.9682   45.0916 H   0  0  0  0  0  0  0  0  0  0  0  0
   48.4858   29.3059   46.0652 H   0  0  0  0  0  0  0  0  0  0  0  0
   47.0654   30.3826   44.0718 H   0  0  0  0  0  0  0  0  0  0  0  0
   46.1153   34.3485   40.9132 H   0  0  0  0  0  0  0  0  0  0  0  0
   46.4843   32.7522   41.6733 H   0  0  0  0  0  0  0  0  0  0  0  0
   46.8271   32.6574   44.1967 H   0  0  0  0  0  0  0  0  0  0  0  0
   43.8871   36.6310   44.2008 H   0  0  0  0  0  0  0  0  0  0  0  0
   44.2922   33.7309   47.9849 H   0  0  0  0  0  0  0  0  0  0  0  0
   45.6264   31.9396   49.5303 H   0  0  0  0  0  0  0  0  0  0  0  0
   47.5960   32.1683   45.7430 H   0  0  0  0  0  0  0  0  0  0  0  0
  1  2  1  0
  2  3  1  0
  3  4  1  0
  5  4  1  0
  6  1  1  0
  6  5  2  0
  7  6  1  0
  7 11  1  0
  8  7  1  0
  9  8  2  0
  9 10  1  0
 10 11  2  0
 11 12  1  0
 12 13  1  0
 12 16  1  0
 13 14  2  0
 14 15  1  0
 16 15  2  0
 17  1  1  0
 17 18  1  0
 18 23  1  0
 18 19  2  0
 19 20  1  0
 20 24  1  0
 21 20  2  0
 22 21  1  0
 23 22  2  0
 24 28  1  0
 24 25  1  0
 25 26  2  0
 27 26  1  0
 28 27  2  0
  2 29  1  0
  2 30  1  0
  3 31  1  0
  3 32  1  0
  4 33  1  0
  5 34  1  0
  9 35  1  0
 10 36  1  0
 14 37  1  0
 15 38  1  0
 16 39  1  0
 17 40  1  0
 17 41  1  0
 19 42  1  0
 22 43  1  0
 25 44  1  0
 26 45  1  0
 28 46  1  0
M  ISO  8  29  13  30  13  31  13  32  13  34  13  35  14  36  14  37  14
M  ISO  8  38  14  39  14  40   8  41   8  42  14  43  14  44  14  45  14
M  ISO  1  46  14
M  END
>  <minimizedAffinity>  (1) 
-5.79506874

>  <minimizedRMSD>  (1) 
1.29790735

$$$$
