
     RDKit          3D

 42 45  0  0  0  0  0  0  0  0999 V2000
   48.0150   34.1020   41.8170 N   0  0  0  0  0  0  0  0  0  0  0  0
   48.2600   35.4200   41.9870 C   0  0  0  0  0  0  0  0  0  0  0  0
   49.6860   35.7790   42.3120 C   0  0  0  0  0  0  0  0  0  0  0  0
   50.4690   34.6820   42.8390 N   0  0  0  0  0  0  0  0  0  0  0  0
   50.2680   33.4250   42.2140 C   0  0  0  0  0  0  0  0  0  0  0  0
   48.9280   33.0930   41.6920 C   0  0  0  0  0  0  0  0  0  0  0  0
   48.8210   31.8060   41.1590 N   0  0  0  0  0  0  0  0  0  0  0  0
   48.6990   31.4560   39.8560 N   0  0  0  0  0  0  0  0  0  0  0  0
   48.5200   30.1340   39.7710 C   0  0  0  0  0  0  0  0  0  0  0  0
   48.5300   29.5900   41.0580 C   0  0  0  0  0  0  0  0  0  0  0  0
   48.7330   30.6770   41.8790 C   0  0  0  0  0  0  0  0  0  0  0  0
   49.1880   30.4370   43.2820 C   0  0  0  0  0  0  0  0  0  0  0  0
   48.3310   31.0220   44.1700 F   0  0  0  0  0  0  0  0  0  0  0  0
   50.4910   30.3710   43.4920 F   0  0  0  0  0  0  0  0  0  0  0  0
   48.8420   29.0340   43.5920 F   0  0  0  0  0  0  0  0  0  0  0  0
   46.6280   33.7120   41.8330 C   0  0  0  0  0  0  0  0  0  0  0  0
   45.9620   34.1870   43.0740 C   0  0  0  0  0  0  0  0  0  0  0  0
   46.1760   33.4630   44.2730 C   0  0  0  0  0  0  0  0  0  0  0  0
   45.5480   33.9160   45.4220 C   0  0  0  0  0  0  0  0  0  0  0  0
   44.7570   35.0360   45.3390 N   0  0  0  0  0  0  0  0  0  0  0  0
   44.5780   35.6950   44.1860 C   0  0  0  0  0  0  0  0  0  0  0  0
   45.1720   35.2830   43.0550 N   0  0  0  0  0  0  0  0  0  0  0  0
   45.7850   33.1820   46.5820 N   0  0  0  0  0  0  0  0  0  0  0  0
   45.1580   33.1870   47.7740 C   0  0  0  0  0  0  0  0  0  0  0  0
   45.7960   32.2600   48.5950 C   0  0  0  0  0  0  0  0  0  0  0  0
   46.7960   31.7160   47.8730 N   0  0  0  0  0  0  0  0  0  0  0  0
   46.7910   32.2750   46.6480 C   0  0  0  0  0  0  0  0  0  0  0  0
   47.9838   35.9385   41.0570 H   0  0  0  0  0  0  0  0  0  0  0  0
   47.6654   35.7270   42.8601 H   0  0  0  0  0  0  0  0  0  0  0  0
   50.1699   36.1371   41.3913 H   0  0  0  0  0  0  0  0  0  0  0  0
   49.6470   36.5461   43.0994 H   0  0  0  0  0  0  0  0  0  0  0  0
   51.1304   34.8063   43.6187 H   0  0  0  0  0  0  0  0  0  0  0  0
   51.0976   32.7088   42.1198 H   0  0  0  0  0  0  0  0  0  0  0  0
   48.3864   29.5661   38.8385 H   0  0  0  0  0  0  0  0  0  0  0  0
   48.4046   28.5365   41.3485 H   0  0  0  0  0  0  0  0  0  0  0  0
   46.1201   34.1493   40.9608 H   0  0  0  0  0  0  0  0  0  0  0  0
   46.5694   32.6141   41.7987 H   0  0  0  0  0  0  0  0  0  0  0  0
   46.8193   32.5709   44.2911 H   0  0  0  0  0  0  0  0  0  0  0  0
   43.9346   36.5870   44.1661 H   0  0  0  0  0  0  0  0  0  0  0  0
   44.2958   33.8118   48.0500 H   0  0  0  0  0  0  0  0  0  0  0  0
   45.5335   32.0178   49.6354 H   0  0  0  0  0  0  0  0  0  0  0  0
   47.4896   32.0349   45.8330 H   0  0  0  0  0  0  0  0  0  0  0  0
  1 16  1  0
  1  2  1  0
  2  3  1  0
  3  4  1  0
  5  4  1  0
  6  1  1  0
  6  5  2  0
  7  6  1  0
  7 11  1  0
  8  7  1  0
  9  8  2  0
  9 10  1  0
 10 11  2  0
 11 12  1  0
 12 14  1  0
 12 15  1  0
 12 13  1  0
 16 17  1  0
 17 18  2  0
 18 19  1  0
 19 23  1  0
 20 19  2  0
 21 20  1  0
 22 17  1  0
 22 21  2  0
 23 27  1  0
 23 24  1  0
 24 25  2  0
 26 25  1  0
 27 26  2  0
  2 28  1  0
  2 29  1  0
  3 30  1  0
  3 31  1  0
  4 32  1  0
  5 33  1  0
  9 34  1  0
 10 35  1  0
 16 36  1  0
 16 37  1  0
 18 38  1  0
 21 39  1  0
 24 40  1  0
 25 41  1  0
 27 42  1  0
M  ISO  8  28  13  29  13  30  13  31  13  33  13  34  14  35  14  36   8
M  ISO  6  37   8  38  14  39  14  40  14  41  14  42  14
M  END
>  <minimizedAffinity>  (1) 
-5.7962451

>  <minimizedRMSD>  (1) 
0.997202814

$$$$
