
     RDKit          3D

 44 48  0  0  0  0  0  0  0  0999 V2000
   47.9940   34.1820   41.7760 N   0  0  0  0  0  0  0  0  0  0  0  0
   48.2930   35.4620   42.0860 C   0  0  0  0  0  0  0  0  0  0  0  0
   49.7370   35.7210   42.4500 C   0  0  0  0  0  0  0  0  0  0  0  0
   50.4770   34.5420   42.8510 N   0  0  0  0  0  0  0  0  0  0  0  0
   50.2190   33.3630   42.1000 C   0  0  0  0  0  0  0  0  0  0  0  0
   48.8730   33.1540   41.5390 C   0  0  0  0  0  0  0  0  0  0  0  0
   48.7060   31.9320   40.8760 N   0  0  0  0  0  0  0  0  0  0  0  0
   48.6540   31.7100   39.5520 N   0  0  0  0  0  0  0  0  0  0  0  0
   48.4030   30.4160   39.3090 C   0  0  0  0  0  0  0  0  0  0  0  0
   48.2880   29.7610   40.5370 C   0  0  0  0  0  0  0  0  0  0  0  0
   48.4970   30.7500   41.4850 C   0  0  0  0  0  0  0  0  0  0  0  0
   48.8150   30.3450   42.8570 C   0  0  0  0  0  0  0  0  0  0  0  0
   50.0240   29.9830   43.3950 N   0  0  0  0  0  0  0  0  0  0  0  0
   49.8830   29.6140   44.6220 O   0  0  0  0  0  0  0  0  0  0  0  0
   48.6050   29.7020   44.9770 C   0  0  0  0  0  0  0  0  0  0  0  0
   47.9400   30.1510   43.8970 N   0  0  0  0  0  0  0  0  0  0  0  0
   46.5930   33.8480   41.7500 C   0  0  0  0  0  0  0  0  0  0  0  0
   45.9230   34.2970   43.0000 C   0  0  0  0  0  0  0  0  0  0  0  0
   46.1530   33.5600   44.1870 C   0  0  0  0  0  0  0  0  0  0  0  0
   45.5280   33.9880   45.3500 C   0  0  0  0  0  0  0  0  0  0  0  0
   44.7220   35.1020   45.2830 N   0  0  0  0  0  0  0  0  0  0  0  0
   44.5270   35.7730   44.1450 C   0  0  0  0  0  0  0  0  0  0  0  0
   45.1180   35.3830   43.0020 N   0  0  0  0  0  0  0  0  0  0  0  0
   45.7810   33.2460   46.5010 N   0  0  0  0  0  0  0  0  0  0  0  0
   45.1670   33.2270   47.6970 C   0  0  0  0  0  0  0  0  0  0  0  0
   45.8290   32.3110   48.5060 C   0  0  0  0  0  0  0  0  0  0  0  0
   46.8320   31.7950   47.7710 N   0  0  0  0  0  0  0  0  0  0  0  0
   46.8080   32.3600   46.5490 C   0  0  0  0  0  0  0  0  0  0  0  0
   48.0446   36.0885   41.2167 H   0  0  0  0  0  0  0  0  0  0  0  0
   47.7064   35.7008   42.9854 H   0  0  0  0  0  0  0  0  0  0  0  0
   50.2384   36.1599   41.5748 H   0  0  0  0  0  0  0  0  0  0  0  0
   49.7241   36.3930   43.3208 H   0  0  0  0  0  0  0  0  0  0  0  0
   51.1485   34.5571   43.6319 H   0  0  0  0  0  0  0  0  0  0  0  0
   51.0124   32.6180   41.9402 H   0  0  0  0  0  0  0  0  0  0  0  0
   48.3048   29.9516   38.3167 H   0  0  0  0  0  0  0  0  0  0  0  0
   48.0780   28.6957   40.7129 H   0  0  0  0  0  0  0  0  0  0  0  0
   48.1759   29.4563   45.9596 H   0  0  0  0  0  0  0  0  0  0  0  0
   46.1197   34.3423   40.8888 H   0  0  0  0  0  0  0  0  0  0  0  0
   46.4909   32.7560   41.6662 H   0  0  0  0  0  0  0  0  0  0  0  0
   46.8069   32.6755   44.1874 H   0  0  0  0  0  0  0  0  0  0  0  0
   43.8733   36.6577   44.1427 H   0  0  0  0  0  0  0  0  0  0  0  0
   44.2937   33.8307   47.9848 H   0  0  0  0  0  0  0  0  0  0  0  0
   45.5810   32.0565   49.5470 H   0  0  0  0  0  0  0  0  0  0  0  0
   47.5047   32.1401   45.7266 H   0  0  0  0  0  0  0  0  0  0  0  0
  1  2  1  0
  2  3  1  0
  3  4  1  0
  5  4  1  0
  6  1  1  0
  6  5  2  0
  7 11  1  0
  7  6  1  0
  8  7  1  0
  9  8  2  0
  9 10  1  0
 10 11  2  0
 11 12  1  0
 12 13  2  0
 12 16  1  0
 13 14  1  0
 14 15  1  0
 16 15  2  0
 17  1  1  0
 17 18  1  0
 18 23  1  0
 18 19  2  0
 19 20  1  0
 20 24  1  0
 21 20  2  0
 22 21  1  0
 23 22  2  0
 24 28  1  0
 24 25  1  0
 25 26  2  0
 27 26  1  0
 28 27  2  0
  2 29  1  0
  2 30  1  0
  3 31  1  0
  3 32  1  0
  4 33  1  0
  5 34  1  0
  9 35  1  0
 10 36  1  0
 15 37  1  0
 17 38  1  0
 17 39  1  0
 19 40  1  0
 22 41  1  0
 25 42  1  0
 26 43  1  0
 28 44  1  0
M  ISO  8  29  13  30  13  31  13  32  13  34  13  35  14  36  14  37  14
M  ISO  7  38   8  39   8  40  14  41  14  42  14  43  14  44  14
M  END
>  <minimizedAffinity>  (1) 
-5.71937323

>  <minimizedRMSD>  (1) 
1.36554027

$$$$
