
     RDKit          3D

 31 34  0  0  0  0  0  0  0  0999 V2000
   44.4510   35.9790   44.8550 C   0  0  0  0  0  0  0  0  0  0  0  0
   45.1180   35.9300   43.6130 C   0  0  0  0  0  0  0  0  0  0  0  0
   45.9920   34.8800   43.3700 C   0  0  0  0  0  0  0  0  0  0  0  0
   46.1610   33.9460   44.3460 N   0  0  0  0  0  0  0  0  0  0  0  0
   45.5120   34.0170   45.5220 C   0  0  0  0  0  0  0  0  0  0  0  0
   44.6610   35.0220   45.7850 N   0  0  0  0  0  0  0  0  0  0  0  0
   45.7950   32.9560   46.4530 N   0  0  0  0  0  0  0  0  0  0  0  0
   45.3890   32.8160   47.7450 C   0  0  0  0  0  0  0  0  0  0  0  0
   45.8950   31.6700   48.2220 N   0  0  0  0  0  0  0  0  0  0  0  0
   46.6250   31.0630   47.2580 C   0  0  0  0  0  0  0  0  0  0  0  0
   47.3470   29.8700   47.2410 C   0  0  0  0  0  0  0  0  0  0  0  0
   47.9690   29.5620   46.0880 N   0  0  0  0  0  0  0  0  0  0  0  0
   47.8880   30.3700   45.0260 C   0  0  0  0  0  0  0  0  0  0  0  0
   47.1850   31.5430   45.0230 N   0  0  0  0  0  0  0  0  0  0  0  0
   46.5510   31.8820   46.1600 C   0  0  0  0  0  0  0  0  0  0  0  0
   46.7210   34.7420   42.1330 C   0  0  0  0  0  0  0  0  0  0  0  0
   46.2740   34.0090   41.0580 C   0  0  0  0  0  0  0  0  0  0  0  0
   46.9830   33.8880   39.8820 C   0  0  0  0  0  0  0  0  0  0  0  0
   48.2000   34.5130   39.7310 C   0  0  0  0  0  0  0  0  0  0  0  0
   48.6640   35.2490   40.7890 C   0  0  0  0  0  0  0  0  0  0  0  0
   47.9280   35.3490   41.9500 C   0  0  0  0  0  0  0  0  0  0  0  0
   43.7543   36.8031   45.0679 H   0  0  0  0  0  0  0  0  0  0  0  0
   44.9489   36.7075   42.8534 H   0  0  0  0  0  0  0  0  0  0  0  0
   44.7549   33.5218   48.3016 H   0  0  0  0  0  0  0  0  0  0  0  0
   47.4050   29.2155   48.1232 H   0  0  0  0  0  0  0  0  0  0  0  0
   48.4146   30.0758   44.1061 H   0  0  0  0  0  0  0  0  0  0  0  0
   45.3049   33.4951   41.1408 H   0  0  0  0  0  0  0  0  0  0  0  0
   46.5727   33.2868   39.0572 H   0  0  0  0  0  0  0  0  0  0  0  0
   48.7767   34.4250   38.7984 H   0  0  0  0  0  0  0  0  0  0  0  0
   49.6325   35.7647   40.7113 H   0  0  0  0  0  0  0  0  0  0  0  0
   48.3369   35.9517   42.7743 H   0  0  0  0  0  0  0  0  0  0  0  0
  1  6  2  0
  2  1  1  0
  3  2  2  0
  3  4  1  0
  4  5  2  0
  5  6  1  0
  5  7  1  0
  7  8  1  0
  8  9  2  0
 10  9  1  0
 11 10  2  0
 12 11  1  0
 13 12  2  0
 14 13  1  0
 14 15  2  0
 15  7  1  0
 15 10  1  0
 16  3  1  0
 17 16  2  0
 18 17  1  0
 19 18  2  0
 19 20  1  0
 20 21  2  0
 21 16  1  0
  1 22  1  0
  2 23  1  0
  8 24  1  0
 11 25  1  0
 13 26  1  0
 17 27  1  0
 18 28  1  0
 19 29  1  0
 20 30  1  0
 21 31  1  0
M  ISO  8  22  14  23  14  24  14  25  14  26  14  27  14  28  14  29  14
M  ISO  2  30  14  31  14
M  END
>  <minimizedAffinity>  (1) 
-6.93543196

>  <minimizedRMSD>  (1) 
0.762584507

$$$$
