
     RDKit          3D

 30 33  0  0  0  0  0  0  0  0999 V2000
   44.4370   35.9750   44.8700 C   0  0  0  0  0  0  0  0  0  0  0  0
   45.0790   35.9570   43.6300 C   0  0  0  0  0  0  0  0  0  0  0  0
   45.9590   34.9140   43.3730 C   0  0  0  0  0  0  0  0  0  0  0  0
   46.1450   33.9770   44.3350 N   0  0  0  0  0  0  0  0  0  0  0  0
   45.5080   34.0290   45.5180 C   0  0  0  0  0  0  0  0  0  0  0  0
   44.6530   35.0180   45.7990 N   0  0  0  0  0  0  0  0  0  0  0  0
   45.8050   32.9600   46.4470 N   0  0  0  0  0  0  0  0  0  0  0  0
   45.4270   32.8120   47.7380 C   0  0  0  0  0  0  0  0  0  0  0  0
   45.9450   31.6570   48.1990 N   0  0  0  0  0  0  0  0  0  0  0  0
   46.6560   31.0540   47.2130 C   0  0  0  0  0  0  0  0  0  0  0  0
   47.3680   29.8620   47.1920 C   0  0  0  0  0  0  0  0  0  0  0  0
   47.9670   29.5670   46.0130 N   0  0  0  0  0  0  0  0  0  0  0  0
   47.8610   30.3860   44.9640 C   0  0  0  0  0  0  0  0  0  0  0  0
   47.1660   31.5580   44.9690 N   0  0  0  0  0  0  0  0  0  0  0  0
   46.5550   31.8910   46.1210 C   0  0  0  0  0  0  0  0  0  0  0  0
   46.7040   34.7560   42.1300 C   0  0  0  0  0  0  0  0  0  0  0  0
   47.9210   35.3410   41.9030 C   0  0  0  0  0  0  0  0  0  0  0  0
   48.6680   35.2250   40.7490 C   0  0  0  0  0  0  0  0  0  0  0  0
   48.1490   34.4470   39.7200 C   0  0  0  0  0  0  0  0  0  0  0  0
   46.9270   33.8640   39.9590 C   0  0  0  0  0  0  0  0  0  0  0  0
   46.2480   34.0160   41.1090 N   0  0  0  0  0  0  0  0  0  0  0  0
   43.7356   36.7914   45.0969 H   0  0  0  0  0  0  0  0  0  0  0  0
   44.8939   36.7423   42.8823 H   0  0  0  0  0  0  0  0  0  0  0  0
   44.8041   33.5138   48.3120 H   0  0  0  0  0  0  0  0  0  0  0  0
   47.4406   29.2038   48.0704 H   0  0  0  0  0  0  0  0  0  0  0  0
   48.3690   30.0950   44.0328 H   0  0  0  0  0  0  0  0  0  0  0  0
   48.3399   35.9577   42.7119 H   0  0  0  0  0  0  0  0  0  0  0  0
   49.6398   35.7301   40.6465 H   0  0  0  0  0  0  0  0  0  0  0  0
   48.6850   34.3061   38.7698 H   0  0  0  0  0  0  0  0  0  0  0  0
   46.4823   33.2414   39.1687 H   0  0  0  0  0  0  0  0  0  0  0  0
  1  6  2  0
  2  1  1  0
  3  2  2  0
  3  4  1  0
  4  5  2  0
  5  6  1  0
  5  7  1  0
  7  8  1  0
  8  9  2  0
 10  9  1  0
 11 10  2  0
 12 11  1  0
 13 14  1  0
 13 12  2  0
 14 15  2  0
 15  7  1  0
 15 10  1  0
 16  3  1  0
 17 16  2  0
 18 17  1  0
 19 20  1  0
 19 18  2  0
 20 21  2  0
 21 16  1  0
  1 22  1  0
  2 23  1  0
  8 24  1  0
 11 25  1  0
 13 26  1  0
 17 27  1  0
 18 28  1  0
 19 29  1  0
 20 30  1  0
M  ISO  8  22  14  23  14  24  14  25  14  26  14  27  14  28  14  29  14
M  ISO  1  30  14
M  END
>  <minimizedAffinity>  (1) 
-6.68048859

>  <minimizedRMSD>  (1) 
0.547123611

$$$$
