
     RDKit          3D

 34 37  0  0  0  0  0  0  0  0999 V2000
   44.6230   35.9560   44.4860 C   0  0  0  0  0  0  0  0  0  0  0  0
   45.4350   35.7530   43.3510 C   0  0  0  0  0  0  0  0  0  0  0  0
   46.2990   34.6460   43.3430 C   0  0  0  0  0  0  0  0  0  0  0  0
   46.2980   33.8350   44.4390 N   0  0  0  0  0  0  0  0  0  0  0  0
   45.5090   34.0580   45.5080 C   0  0  0  0  0  0  0  0  0  0  0  0
   44.6650   35.1170   45.5460 N   0  0  0  0  0  0  0  0  0  0  0  0
   45.6150   33.1160   46.5930 N   0  0  0  0  0  0  0  0  0  0  0  0
   45.0460   33.1220   47.8110 C   0  0  0  0  0  0  0  0  0  0  0  0
   45.4450   32.0230   48.4840 N   0  0  0  0  0  0  0  0  0  0  0  0
   46.2790   31.2960   47.6970 C   0  0  0  0  0  0  0  0  0  0  0  0
   46.9510   30.0980   47.9190 C   0  0  0  0  0  0  0  0  0  0  0  0
   47.7070   29.6550   46.9060 N   0  0  0  0  0  0  0  0  0  0  0  0
   47.7970   30.3410   45.7540 C   0  0  0  0  0  0  0  0  0  0  0  0
   47.1470   31.5160   45.5170 N   0  0  0  0  0  0  0  0  0  0  0  0
   46.3740   31.9920   46.5200 C   0  0  0  0  0  0  0  0  0  0  0  0
   47.1970   34.3130   42.2340 C   0  0  0  0  0  0  0  0  0  0  0  0
   48.1110   35.4250   41.8290 C   0  0  0  0  0  0  0  0  0  0  0  0
   48.7080   34.8870   40.5420 C   0  0  0  0  0  0  0  0  0  0  0  0
   47.5110   34.2640   39.8560 C   0  0  0  0  0  0  0  0  0  0  0  0
   46.4350   34.0960   40.9260 C   0  0  0  0  0  0  0  0  0  0  0  0
   43.9391   36.8173   44.5098 H   0  0  0  0  0  0  0  0  0  0  0  0
   45.3927   36.4430   42.4953 H   0  0  0  0  0  0  0  0  0  0  0  0
   44.3662   33.8964   48.1959 H   0  0  0  0  0  0  0  0  0  0  0  0
   46.8666   29.5485   48.8682 H   0  0  0  0  0  0  0  0  0  0  0  0
   48.4323   29.9306   44.9553 H   0  0  0  0  0  0  0  0  0  0  0  0
   47.7277   33.4329   42.6261 H   0  0  0  0  0  0  0  0  0  0  0  0
   47.5536   36.3568   41.6525 H   0  0  0  0  0  0  0  0  0  0  0  0
   48.8599   35.6846   42.5917 H   0  0  0  0  0  0  0  0  0  0  0  0
   49.1364   35.6975   39.9341 H   0  0  0  0  0  0  0  0  0  0  0  0
   49.5346   34.1799   40.7059 H   0  0  0  0  0  0  0  0  0  0  0  0
   47.1484   34.9224   39.0529 H   0  0  0  0  0  0  0  0  0  0  0  0
   47.7727   33.2974   39.4008 H   0  0  0  0  0  0  0  0  0  0  0  0
   45.6395   34.8460   40.8051 H   0  0  0  0  0  0  0  0  0  0  0  0
   45.9327   33.1185   40.8794 H   0  0  0  0  0  0  0  0  0  0  0  0
  1  6  2  0
  2  1  1  0
  3  2  2  0
  3  4  1  0
  4  5  2  0
  5  6  1  0
  5  7  1  0
  7  8  1  0
  8  9  2  0
 10 11  2  0
 10  9  1  0
 12 11  1  0
 13 12  2  0
 14 13  1  0
 14 15  2  0
 15  7  1  0
 15 10  1  0
 16  3  1  0
 17 16  1  0
 18 17  1  0
 19 18  1  0
 19 20  1  0
 20 16  1  0
  1 21  1  0
  2 22  1  0
  8 23  1  0
 11 24  1  0
 13 25  1  0
 16 26  1  0
 17 27  1  0
 17 28  1  0
 18 29  1  0
 18 30  1  0
 19 31  1  0
 19 32  1  0
 20 33  1  0
 20 34  1  0
M  ISO  8  21  14  22  14  23  14  24  14  25  14  26  13  27  13  28  13
M  ISO  6  29  13  30  13  31  13  32  13  33  13  34  13
M  END
>  <minimizedAffinity>  (1) 
-6.43035221

>  <minimizedRMSD>  (1) 
0.431894034

$$$$
