
     RDKit          3D

 33 36  0  0  0  0  0  0  0  0999 V2000
   44.4900   36.0170   44.7240 C   0  0  0  0  0  0  0  0  0  0  0  0
   45.2110   35.8960   43.5140 C   0  0  0  0  0  0  0  0  0  0  0  0
   46.0670   34.8110   43.3770 C   0  0  0  0  0  0  0  0  0  0  0  0
   46.1680   33.9290   44.4040 N   0  0  0  0  0  0  0  0  0  0  0  0
   45.4610   34.0790   45.5460 C   0  0  0  0  0  0  0  0  0  0  0  0
   44.6180   35.1110   45.7320 N   0  0  0  0  0  0  0  0  0  0  0  0
   45.6700   33.0600   46.5580 N   0  0  0  0  0  0  0  0  0  0  0  0
   45.2020   32.9890   47.8140 C   0  0  0  0  0  0  0  0  0  0  0  0
   45.6600   31.8590   48.3760 N   0  0  0  0  0  0  0  0  0  0  0  0
   46.4300   31.1940   47.4850 C   0  0  0  0  0  0  0  0  0  0  0  0
   47.1350   29.9880   47.5580 C   0  0  0  0  0  0  0  0  0  0  0  0
   47.8060   29.6230   46.4560 N   0  0  0  0  0  0  0  0  0  0  0  0
   47.7940   30.3800   45.3560 C   0  0  0  0  0  0  0  0  0  0  0  0
   47.1200   31.5600   45.2460 N   0  0  0  0  0  0  0  0  0  0  0  0
   46.4280   31.9600   46.3430 C   0  0  0  0  0  0  0  0  0  0  0  0
   46.8120   34.6480   42.1770 N   0  0  0  0  0  0  0  0  0  0  0  0
   46.4040   33.7590   41.1090 C   0  0  0  0  0  0  0  0  0  0  0  0
   47.3370   34.1320   39.9490 C   0  0  0  0  0  0  0  0  0  0  0  0
   48.5950   34.5180   40.6990 C   0  0  0  0  0  0  0  0  0  0  0  0
   48.0500   35.3160   41.8470 C   0  0  0  0  0  0  0  0  0  0  0  0
   43.8055   36.8681   44.8548 H   0  0  0  0  0  0  0  0  0  0  0  0
   45.0978   36.6362   42.7082 H   0  0  0  0  0  0  0  0  0  0  0  0
   44.5526   33.7315   48.3008 H   0  0  0  0  0  0  0  0  0  0  0  0
   47.1387   29.3726   48.4698 H   0  0  0  0  0  0  0  0  0  0  0  0
   48.3642   30.0292   44.4831 H   0  0  0  0  0  0  0  0  0  0  0  0
   46.5413   32.7072   41.4002 H   0  0  0  0  0  0  0  0  0  0  0  0
   45.3399   33.8632   40.8507 H   0  0  0  0  0  0  0  0  0  0  0  0
   46.9393   34.9763   39.3667 H   0  0  0  0  0  0  0  0  0  0  0  0
   47.4797   33.3317   39.2079 H   0  0  0  0  0  0  0  0  0  0  0  0
   49.1363   33.6285   41.0535 H   0  0  0  0  0  0  0  0  0  0  0  0
   49.3225   35.0693   40.0851 H   0  0  0  0  0  0  0  0  0  0  0  0
   48.7439   35.2984   42.7004 H   0  0  0  0  0  0  0  0  0  0  0  0
   47.9059   36.3772   41.5958 H   0  0  0  0  0  0  0  0  0  0  0  0
  1  6  2  0
  2  1  1  0
  3  2  2  0
  3  4  1  0
  4  5  2  0
  5  6  1  0
  5  7  1  0
  7  8  1  0
  8  9  2  0
 10 11  2  0
 10  9  1  0
 12 11  1  0
 13 12  2  0
 14 13  1  0
 14 15  2  0
 15  7  1  0
 15 10  1  0
 16  3  1  0
 17 16  1  0
 18 19  1  0
 18 17  1  0
 19 20  1  0
 20 16  1  0
  1 21  1  0
  2 22  1  0
  8 23  1  0
 11 24  1  0
 13 25  1  0
 17 26  1  0
 17 27  1  0
 18 28  1  0
 18 29  1  0
 19 30  1  0
 19 31  1  0
 20 32  1  0
 20 33  1  0
M  ISO  8  21  14  22  14  23  14  24  14  25  14  26  13  27  13  28  13
M  ISO  5  29  13  30  13  31  13  32  13  33  13
M  END
>  <minimizedAffinity>  (1) 
-6.05084753

>  <minimizedRMSD>  (1) 
0.425771266

$$$$
