
     RDKit          3D

 35 38  0  0  0  0  0  0  0  0999 V2000
   44.6680   35.9080   44.3800 C   0  0  0  0  0  0  0  0  0  0  0  0
   45.5520   35.7210   43.3120 C   0  0  0  0  0  0  0  0  0  0  0  0
   46.4350   34.6630   43.3680 C   0  0  0  0  0  0  0  0  0  0  0  0
   46.4090   33.8450   44.4620 N   0  0  0  0  0  0  0  0  0  0  0  0
   45.5400   34.0560   45.4780 C   0  0  0  0  0  0  0  0  0  0  0  0
   44.6670   35.0750   45.4580 N   0  0  0  0  0  0  0  0  0  0  0  0
   45.6190   33.1180   46.5720 N   0  0  0  0  0  0  0  0  0  0  0  0
   45.0060   33.1390   47.7710 C   0  0  0  0  0  0  0  0  0  0  0  0
   45.3900   32.0430   48.4680 N   0  0  0  0  0  0  0  0  0  0  0  0
   46.2430   31.3250   47.7230 C   0  0  0  0  0  0  0  0  0  0  0  0
   46.9200   30.1300   47.9660 C   0  0  0  0  0  0  0  0  0  0  0  0
   47.7110   29.6780   46.9850 N   0  0  0  0  0  0  0  0  0  0  0  0
   47.8360   30.3530   45.8340 C   0  0  0  0  0  0  0  0  0  0  0  0
   47.1930   31.5210   45.5590 N   0  0  0  0  0  0  0  0  0  0  0  0
   46.3790   32.0080   46.5350 C   0  0  0  0  0  0  0  0  0  0  0  0
   47.3610   34.4190   42.3140 N   0  0  0  0  0  0  0  0  0  0  0  0
   46.8390   34.3150   40.9630 C   0  0  0  0  0  0  0  0  0  0  0  0
   48.0190   34.4360   40.0340 C   0  0  0  0  0  0  0  0  0  0  0  0
   48.9500   33.3900   40.3510 N   0  0  0  0  0  0  0  0  0  0  0  0
   49.5280   33.4730   41.6510 C   0  0  0  0  0  0  0  0  0  0  0  0
   48.7730   34.2860   42.6450 C   0  0  0  0  0  0  0  0  0  0  0  0
   43.9573   36.7470   44.3486 H   0  0  0  0  0  0  0  0  0  0  0  0
   45.5431   36.4017   42.4480 H   0  0  0  0  0  0  0  0  0  0  0  0
   44.3110   33.9150   48.1244 H   0  0  0  0  0  0  0  0  0  0  0  0
   46.8096   29.5863   48.9158 H   0  0  0  0  0  0  0  0  0  0  0  0
   48.5004   29.9368   45.0624 H   0  0  0  0  0  0  0  0  0  0  0  0
   46.3430   33.3434   40.8217 H   0  0  0  0  0  0  0  0  0  0  0  0
   46.0956   35.1009   40.7638 H   0  0  0  0  0  0  0  0  0  0  0  0
   48.5001   35.4160   40.1691 H   0  0  0  0  0  0  0  0  0  0  0  0
   47.6895   34.3467   38.9883 H   0  0  0  0  0  0  0  0  0  0  0  0
   48.4559   32.4892   40.2777 H   0  0  0  0  0  0  0  0  0  0  0  0
   49.6153   32.4507   42.0475 H   0  0  0  0  0  0  0  0  0  0  0  0
   50.4926   33.9846   41.5172 H   0  0  0  0  0  0  0  0  0  0  0  0
   49.2193   35.2904   42.6883 H   0  0  0  0  0  0  0  0  0  0  0  0
   48.8374   33.7670   43.6127 H   0  0  0  0  0  0  0  0  0  0  0  0
  1  6  2  0
  2  3  2  0
  2  1  1  0
  3  4  1  0
  4  5  2  0
  5  7  1  0
  6  5  1  0
  7  8  1  0
  8  9  2  0
 10 11  2  0
 10  9  1  0
 12 11  1  0
 13 12  2  0
 14 13  1  0
 14 15  2  0
 15  7  1  0
 15 10  1  0
 16 21  1  0
 16  3  1  0
 17 16  1  0
 18 19  1  0
 18 17  1  0
 19 20  1  0
 20 21  1  0
  1 22  1  0
  2 23  1  0
  8 24  1  0
 11 25  1  0
 13 26  1  0
 17 27  1  0
 17 28  1  0
 18 29  1  0
 18 30  1  0
 19 31  1  0
 20 32  1  0
 20 33  1  0
 21 34  1  0
 21 35  1  0
M  ISO  8  22  14  23  14  24  14  25  14  26  14  27  13  28  13  29  13
M  ISO  6  30  13  31   5  32  13  33  13  34  13  35  13
M  END
>  <minimizedAffinity>  (1) 
-6.2483573

>  <minimizedRMSD>  (1) 
0.413049728

$$$$
