
     RDKit          3D

 26 29  0  0  0  0  0  0  0  0999 V2000
   44.4840   36.0710   44.6120 C   0  0  0  0  0  0  0  0  0  0  0  0
   45.1630   36.0570   43.3920 C   0  0  0  0  0  0  0  0  0  0  0  0
   46.0580   35.0190   43.1440 C   0  0  0  0  0  0  0  0  0  0  0  0
   46.2340   34.0600   44.1030 N   0  0  0  0  0  0  0  0  0  0  0  0
   45.5550   34.1130   45.2720 C   0  0  0  0  0  0  0  0  0  0  0  0
   44.6900   35.1030   45.5280 N   0  0  0  0  0  0  0  0  0  0  0  0
   45.8220   33.0410   46.2140 N   0  0  0  0  0  0  0  0  0  0  0  0
   45.4070   32.8770   47.4790 C   0  0  0  0  0  0  0  0  0  0  0  0
   45.9190   31.7240   47.9390 N   0  0  0  0  0  0  0  0  0  0  0  0
   46.6680   31.1350   46.9720 C   0  0  0  0  0  0  0  0  0  0  0  0
   47.3990   29.9520   46.9410 C   0  0  0  0  0  0  0  0  0  0  0  0
   48.0330   29.6770   45.7880 N   0  0  0  0  0  0  0  0  0  0  0  0
   47.9580   30.5030   44.7420 C   0  0  0  0  0  0  0  0  0  0  0  0
   47.2520   31.6620   44.7480 N   0  0  0  0  0  0  0  0  0  0  0  0
   46.5970   31.9780   45.8900 C   0  0  0  0  0  0  0  0  0  0  0  0
   46.8560   34.8290   41.9430 C   0  0  0  0  0  0  0  0  0  0  0  0
   48.0510   35.4130   41.8470 N   0  0  0  0  0  0  0  0  0  0  0  0
   48.5770   35.1070   40.6980 O   0  0  0  0  0  0  0  0  0  0  0  0
   47.7620   34.3320   40.0230 C   0  0  0  0  0  0  0  0  0  0  0  0
   46.6530   34.1360   40.7910 N   0  0  0  0  0  0  0  0  0  0  0  0
   43.7724   36.8814   44.8285 H   0  0  0  0  0  0  0  0  0  0  0  0
   44.9951   36.8466   42.6448 H   0  0  0  0  0  0  0  0  0  0  0  0
   44.7602   33.5666   48.0413 H   0  0  0  0  0  0  0  0  0  0  0  0
   47.4551   29.2801   47.8101 H   0  0  0  0  0  0  0  0  0  0  0  0
   48.4986   30.2289   43.8240 H   0  0  0  0  0  0  0  0  0  0  0  0
   47.9408   33.9162   39.0204 H   0  0  0  0  0  0  0  0  0  0  0  0
  1  6  2  0
  2  1  1  0
  3  2  2  0
  3  4  1  0
  4  5  2  0
  5  6  1  0
  5  7  1  0
  7  8  1  0
  8  9  2  0
 10  9  1  0
 11 10  2  0
 12 11  1  0
 13 14  1  0
 13 12  2  0
 14 15  2  0
 15  7  1  0
 15 10  1  0
 16  3  1  0
 17 16  2  0
 18 17  1  0
 19 18  1  0
 19 20  2  0
 20 16  1  0
  1 21  1  0
  2 22  1  0
  8 23  1  0
 11 24  1  0
 13 25  1  0
 19 26  1  0
M  ISO  6  21  14  22  14  23  14  24  14  25  14  26  14
M  END
>  <minimizedAffinity>  (1) 
-6.00859928

>  <minimizedRMSD>  (1) 
0.542378843

$$$$
