
     RDKit          3D

 33 35  0  0  0  0  0  0  0  0999 V2000
   44.7080   35.9850   44.2200 C   0  0  0  0  0  0  0  0  0  0  0  0
   45.5360   35.7550   43.1190 C   0  0  0  0  0  0  0  0  0  0  0  0
   46.3950   34.6560   43.1610 C   0  0  0  0  0  0  0  0  0  0  0  0
   46.3900   33.8580   44.2660 N   0  0  0  0  0  0  0  0  0  0  0  0
   45.5780   34.1110   45.3070 C   0  0  0  0  0  0  0  0  0  0  0  0
   44.7320   35.1660   45.3020 N   0  0  0  0  0  0  0  0  0  0  0  0
   45.6530   33.2070   46.4200 N   0  0  0  0  0  0  0  0  0  0  0  0
   45.0810   33.2740   47.6390 C   0  0  0  0  0  0  0  0  0  0  0  0
   45.4460   32.1810   48.3560 N   0  0  0  0  0  0  0  0  0  0  0  0
   46.2510   31.4140   47.5990 C   0  0  0  0  0  0  0  0  0  0  0  0
   46.8900   30.2020   47.8590 C   0  0  0  0  0  0  0  0  0  0  0  0
   47.6350   29.7050   46.8520 N   0  0  0  0  0  0  0  0  0  0  0  0
   47.7450   30.3470   45.6870 C   0  0  0  0  0  0  0  0  0  0  0  0
   47.1390   31.5290   45.3980 N   0  0  0  0  0  0  0  0  0  0  0  0
   46.3810   32.0600   46.3820 C   0  0  0  0  0  0  0  0  0  0  0  0
   47.2830   34.3840   42.0180 C   0  0  0  0  0  0  0  0  0  0  0  0
   46.4880   34.1730   40.7420 C   0  0  0  0  0  0  0  0  0  0  0  0
   48.0240   33.0960   42.3110 C   0  0  0  0  0  0  0  0  0  0  0  0
   48.2880   35.4920   41.7990 C   0  0  0  0  0  0  0  0  0  0  0  0
   44.0236   36.8461   44.2100 H   0  0  0  0  0  0  0  0  0  0  0  0
   45.5117   36.4210   42.2439 H   0  0  0  0  0  0  0  0  0  0  0  0
   44.4254   34.0826   47.9945 H   0  0  0  0  0  0  0  0  0  0  0  0
   46.7921   29.6845   48.8247 H   0  0  0  0  0  0  0  0  0  0  0  0
   48.3694   29.8877   44.9065 H   0  0  0  0  0  0  0  0  0  0  0  0
   45.4535   33.8984   40.9957 H   0  0  0  0  0  0  0  0  0  0  0  0
   46.4868   35.1019   40.1529 H   0  0  0  0  0  0  0  0  0  0  0  0
   46.9476   33.3658   40.1529 H   0  0  0  0  0  0  0  0  0  0  0  0
   48.1033   32.9581   43.3994 H   0  0  0  0  0  0  0  0  0  0  0  0
   47.4749   32.2493   41.8732 H   0  0  0  0  0  0  0  0  0  0  0  0
   49.0319   33.1451   41.8732 H   0  0  0  0  0  0  0  0  0  0  0  0
   48.6327   35.8720   42.7720 H   0  0  0  0  0  0  0  0  0  0  0  0
   49.1465   35.1017   41.2328 H   0  0  0  0  0  0  0  0  0  0  0  0
   47.8160   36.3085   41.2328 H   0  0  0  0  0  0  0  0  0  0  0  0
  1  6  2  0
  2  3  2  0
  2  1  1  0
  3  4  1  0
  4  5  2  0
  5  7  1  0
  6  5  1  0
  7  8  1  0
  8  9  2  0
 10 11  2  0
 10  9  1  0
 12 11  1  0
 13 12  2  0
 14 13  1  0
 14 15  2  0
 15  7  1  0
 15 10  1  0
 16 18  1  0
 16  3  1  0
 17 16  1  0
 19 16  1  0
  1 20  1  0
  2 21  1  0
  8 22  1  0
 11 23  1  0
 13 24  1  0
 17 25  1  0
 17 26  1  0
 17 27  1  0
 18 28  1  0
 18 29  1  0
 18 30  1  0
 19 31  1  0
 19 32  1  0
 19 33  1  0
M  ISO  8  20  14  21  14  22  14  23  14  24  14  25   8  26   8  27   8
M  ISO  6  28   8  29   8  30   8  31   8  32   8  33   8
M  END
>  <minimizedAffinity>  (1) 
-5.90886831

>  <minimizedRMSD>  (1) 
0.627394736

$$$$
