
     RDKit          3D

 22 24  0  0  0  0  0  0  0  0999 V2000
   44.5340   35.9840   44.5380 C   0  0  0  0  0  0  0  0  0  0  0  0
   45.2930   35.8590   43.3680 C   0  0  0  0  0  0  0  0  0  0  0  0
   46.1820   34.7830   43.2860 C   0  0  0  0  0  0  0  0  0  0  0  0
   46.2690   33.9190   44.3280 N   0  0  0  0  0  0  0  0  0  0  0  0
   45.5070   34.0870   45.4460 C   0  0  0  0  0  0  0  0  0  0  0  0
   44.6460   35.1050   45.5590 N   0  0  0  0  0  0  0  0  0  0  0  0
   45.6910   33.1030   46.4850 N   0  0  0  0  0  0  0  0  0  0  0  0
   45.2240   33.0890   47.7520 C   0  0  0  0  0  0  0  0  0  0  0  0
   45.6560   31.9630   48.3480 N   0  0  0  0  0  0  0  0  0  0  0  0
   46.4060   31.2390   47.4730 C   0  0  0  0  0  0  0  0  0  0  0  0
   47.0690   30.0230   47.5950 C   0  0  0  0  0  0  0  0  0  0  0  0
   47.7240   29.5990   46.5100 N   0  0  0  0  0  0  0  0  0  0  0  0
   47.7280   30.3230   45.3740 C   0  0  0  0  0  0  0  0  0  0  0  0
   47.0880   31.5130   45.2290 N   0  0  0  0  0  0  0  0  0  0  0  0
   46.4120   31.9740   46.3150 C   0  0  0  0  0  0  0  0  0  0  0  0
   47.1650   34.5900   41.8080 S   0  0  0  0  0  0  0  0  0  0  0  0
   43.8264   36.8213   44.6290 H   0  0  0  0  0  0  0  0  0  0  0  0
   45.1935   36.5807   42.5438 H   0  0  0  0  0  0  0  0  0  0  0  0
   44.5980   33.8649   48.2168 H   0  0  0  0  0  0  0  0  0  0  0  0
   47.0552   29.4437   48.5300 H   0  0  0  0  0  0  0  0  0  0  0  0
   48.2832   29.9267   44.5110 H   0  0  0  0  0  0  0  0  0  0  0  0
   48.4656   34.3346   42.1547 H   0  0  0  0  0  0  0  0  0  0  0  0
  1  6  2  0
  2  1  1  0
  3  2  2  0
  3  4  1  0
  4  5  2  0
  5  6  1  0
  5  7  1  0
  7  8  1  0
  8  9  2  0
 10 11  2  0
 10  9  1  0
 12 11  1  0
 13 12  2  0
 14 13  1  0
 14 15  2  0
 15  7  1  0
 15 10  1  0
 16  3  1  0
  1 17  1  0
  2 18  1  0
  8 19  1  0
 11 20  1  0
 13 21  1  0
 16 22  1  0
M  ISO  6  17  14  18  14  19  14  20  14  21  14  22  11
M  END
>  <minimizedAffinity>  (1) 
-5.08366346

>  <minimizedRMSD>  (1) 
0.0377972238

$$$$
