
     RDKit          3D

 37 41  0  0  1  0  0  0  0  0999 V2000
   44.6630   36.0310   44.2940 C   0  0  0  0  0  0  0  0  0  0  0  0
   45.4770   35.8730   43.1820 C   0  0  0  0  0  0  0  0  0  0  0  0
   46.3410   34.8000   43.1860 C   0  0  0  0  0  0  0  0  0  0  0  0
   46.3720   33.9450   44.2500 N   0  0  0  0  0  0  0  0  0  0  0  0
   45.5560   34.1410   45.3130 C   0  0  0  0  0  0  0  0  0  0  0  0
   44.6940   35.1890   45.3410 N   0  0  0  0  0  0  0  0  0  0  0  0
   45.6400   33.1980   46.3800 N   0  0  0  0  0  0  0  0  0  0  0  0
   45.0580   33.1920   47.6060 C   0  0  0  0  0  0  0  0  0  0  0  0
   45.4460   32.0690   48.2560 N   0  0  0  0  0  0  0  0  0  0  0  0
   46.2710   31.3470   47.4700 C   0  0  0  0  0  0  0  0  0  0  0  0
   46.9330   30.1400   47.6560 C   0  0  0  0  0  0  0  0  0  0  0  0
   47.6860   29.7060   46.6420 N   0  0  0  0  0  0  0  0  0  0  0  0
   47.7970   30.4110   45.4930 C   0  0  0  0  0  0  0  0  0  0  0  0
   47.1620   31.5890   45.2860 N   0  0  0  0  0  0  0  0  0  0  0  0
   46.3940   32.0600   46.2840 C   0  0  0  0  0  0  0  0  0  0  0  0
   47.2630   34.5130   42.0340 C   0  0  1  0  0  0  0  0  0  0  0  0
   48.3650   35.5130   41.7430 C   0  0  0  0  0  0  0  0  0  0  0  0
   48.6440   34.1300   42.3190 C   0  0  2  0  0  0  0  0  0  0  0  0
   49.4220   33.1670   41.5170 C   0  0  0  0  0  0  0  0  0  0  0  0
   50.7070   32.8440   41.9440 C   0  0  0  0  0  0  0  0  0  0  0  0
   51.4960   31.9470   41.2400 C   0  0  0  0  0  0  0  0  0  0  0  0
   50.9300   31.3990   40.0970 C   0  0  0  0  0  0  0  0  0  0  0  0
   49.6420   31.7470   39.7020 C   0  0  0  0  0  0  0  0  0  0  0  0
   48.8970   32.6210   40.4030 N   0  0  0  0  0  0  0  0  0  0  0  0
   43.9638   36.8798   44.3199 H   0  0  0  0  0  0  0  0  0  0  0  0
   45.4345   36.5733   42.3347 H   0  0  0  0  0  0  0  0  0  0  0  0
   44.3860   33.9668   48.0037 H   0  0  0  0  0  0  0  0  0  0  0  0
   46.8415   29.5698   48.5922 H   0  0  0  0  0  0  0  0  0  0  0  0
   48.4322   30.0090   44.6899 H   0  0  0  0  0  0  0  0  0  0  0  0
   46.4515   34.0620   41.4441 H   0  0  0  0  0  0  0  0  0  0  0  0
   48.6419   35.7503   40.7052 H   0  0  0  0  0  0  0  0  0  0  0  0
   48.5893   36.5510   42.0299 H   0  0  0  0  0  0  0  0  0  0  0  0
   49.1266   33.7148   43.2161 H   0  0  0  0  0  0  0  0  0  0  0  0
   51.1043   33.3096   42.8580 H   0  0  0  0  0  0  0  0  0  0  0  0
   52.5125   31.6846   41.5685 H   0  0  0  0  0  0  0  0  0  0  0  0
   51.5070   30.6807   39.4961 H   0  0  0  0  0  0  0  0  0  0  0  0
   49.2213   31.2951   38.7916 H   0  0  0  0  0  0  0  0  0  0  0  0
  1  6  2  0
  2  3  2  0
  2  1  1  0
  3  4  1  0
  4  5  2  0
  5  6  1  0
  5  7  1  0
  7  8  1  0
  8  9  2  0
 10 11  2  0
 10  9  1  0
 12 11  1  0
 13 12  2  0
 14 13  1  0
 14 15  2  0
 15  7  1  0
 15 10  1  0
 16 18  1  0
 16  3  1  0
 17 16  1  0
 17 18  1  0
 19 20  2  0
 19 18  1  0
 21 20  1  0
 22 21  2  0
 23 22  1  0
 23 24  2  0
 24 19  1  0
  1 25  1  0
  2 26  1  0
  8 27  1  0
 11 28  1  0
 13 29  1  0
 16 30  1  6
 17 31  1  0
 17 32  1  0
 18 33  1  1
 20 34  1  0
 21 35  1  0
 22 36  1  0
 23 37  1  0
M  ISO  8  25  14  26  14  27  14  28  14  29  14  30  13  31  13  32  13
M  ISO  5  33  13  34  14  35  14  36  14  37  14
M  END
>  <minimizedAffinity>  (1) 
-6.84833765

>  <minimizedRMSD>  (1) 
0.327872723

$$$$
