
     RDKit          3D

 35 39  0  0  1  0  0  0  0  0999 V2000
   44.7120   35.9480   44.2790 C   0  0  0  0  0  0  0  0  0  0  0  0
   45.5430   35.7170   43.1910 C   0  0  0  0  0  0  0  0  0  0  0  0
   46.3870   34.6290   43.2580 C   0  0  0  0  0  0  0  0  0  0  0  0
   46.3760   33.8350   44.3680 N   0  0  0  0  0  0  0  0  0  0  0  0
   45.5420   34.1020   45.4120 C   0  0  0  0  0  0  0  0  0  0  0  0
   44.7020   35.1610   45.3790 N   0  0  0  0  0  0  0  0  0  0  0  0
   45.6020   33.2030   46.5270 N   0  0  0  0  0  0  0  0  0  0  0  0
   45.0000   33.2700   47.7350 C   0  0  0  0  0  0  0  0  0  0  0  0
   45.3740   32.1710   48.4400 N   0  0  0  0  0  0  0  0  0  0  0  0
   46.1940   31.4090   47.7170 C   0  0  0  0  0  0  0  0  0  0  0  0
   46.8430   30.2090   47.9690 C   0  0  0  0  0  0  0  0  0  0  0  0
   47.6070   29.7120   47.0030 N   0  0  0  0  0  0  0  0  0  0  0  0
   47.7440   30.3560   45.8200 C   0  0  0  0  0  0  0  0  0  0  0  0
   47.1280   31.5280   45.5390 N   0  0  0  0  0  0  0  0  0  0  0  0
   46.3400   32.0600   46.5070 C   0  0  0  0  0  0  0  0  0  0  0  0
   47.3180   34.2720   42.1430 C   0  0  1  0  0  0  0  0  0  0  0  0
   48.3800   35.2930   41.7770 C   0  0  0  0  0  0  0  0  0  0  0  0
   48.7100   33.9670   42.4630 C   0  0  2  0  0  0  0  0  0  0  0  0
   49.5470   33.1200   41.6710 N   0  0  0  0  0  0  0  0  0  0  0  0
   50.8390   32.8190   41.9930 C   0  0  0  0  0  0  0  0  0  0  0  0
   51.3680   31.9910   41.0430 C   0  0  0  0  0  0  0  0  0  0  0  0
   50.4240   31.7650   40.1250 N   0  0  0  0  0  0  0  0  0  0  0  0
   49.3230   32.4580   40.5200 C   0  0  0  0  0  0  0  0  0  0  0  0
   44.0304   36.8107   44.2448 H   0  0  0  0  0  0  0  0  0  0  0  0
   45.5285   36.3760   42.3104 H   0  0  0  0  0  0  0  0  0  0  0  0
   44.3293   34.0690   48.0838 H   0  0  0  0  0  0  0  0  0  0  0  0
   46.7292   29.6892   48.9317 H   0  0  0  0  0  0  0  0  0  0  0  0
   48.3871   29.9049   45.0499 H   0  0  0  0  0  0  0  0  0  0  0  0
   46.5318   33.7360   41.5910 H   0  0  0  0  0  0  0  0  0  0  0  0
   48.6540   35.4595   40.7248 H   0  0  0  0  0  0  0  0  0  0  0  0
   48.5601   36.3587   41.9818 H   0  0  0  0  0  0  0  0  0  0  0  0
   49.1566   33.5968   43.3976 H   0  0  0  0  0  0  0  0  0  0  0  0
   51.3729   33.1868   42.8816 H   0  0  0  0  0  0  0  0  0  0  0  0
   52.3896   31.5831   41.0355 H   0  0  0  0  0  0  0  0  0  0  0  0
   48.3708   32.4756   39.9696 H   0  0  0  0  0  0  0  0  0  0  0  0
  1  6  2  0
  2  3  2  0
  2  1  1  0
  3  4  1  0
  4  5  2  0
  5  7  1  0
  6  5  1  0
  7  8  1  0
  8  9  2  0
 10 11  2  0
 10  9  1  0
 12 11  1  0
 13 12  2  0
 14 13  1  0
 14 15  2  0
 15  7  1  0
 15 10  1  0
 16 18  1  0
 16  3  1  0
 17 16  1  0
 17 18  1  0
 19 20  1  0
 19 18  1  0
 21 20  2  0
 22 23  2  0
 22 21  1  0
 23 19  1  0
  1 24  1  0
  2 25  1  0
  8 26  1  0
 11 27  1  0
 13 28  1  0
 16 29  1  6
 17 30  1  0
 17 31  1  0
 18 32  1  1
 20 33  1  0
 21 34  1  0
 23 35  1  0
M  ISO  8  24  14  25  14  26  14  27  14  28  14  29  13  30  13  31  13
M  ISO  4  32  13  33  14  34  14  35  14
M  END
>  <minimizedAffinity>  (1) 
-6.44879389

>  <minimizedRMSD>  (1) 
0.401946187

$$$$
