
     RDKit          3D

 31 34  0  0  1  0  0  0  0  0999 V2000
   45.0690   35.7840   43.6610 C   0  0  0  0  0  0  0  0  0  0  0  0
   45.8790   35.3730   42.6130 C   0  0  0  0  0  0  0  0  0  0  0  0
   46.6370   34.2370   42.8030 C   0  0  0  0  0  0  0  0  0  0  0  0
   46.5730   33.5670   43.9840 N   0  0  0  0  0  0  0  0  0  0  0  0
   45.7560   34.0150   44.9920 C   0  0  0  0  0  0  0  0  0  0  0  0
   45.0050   35.1210   44.8320 N   0  0  0  0  0  0  0  0  0  0  0  0
   45.7520   33.2330   46.1860 N   0  0  0  0  0  0  0  0  0  0  0  0
   45.1360   33.4590   47.3720 C   0  0  0  0  0  0  0  0  0  0  0  0
   45.4100   32.4420   48.2110 N   0  0  0  0  0  0  0  0  0  0  0  0
   46.2010   31.5520   47.5820 C   0  0  0  0  0  0  0  0  0  0  0  0
   46.7670   30.3390   47.9850 C   0  0  0  0  0  0  0  0  0  0  0  0
   47.5180   29.7000   47.0770 N   0  0  0  0  0  0  0  0  0  0  0  0
   47.7080   30.2090   45.8480 C   0  0  0  0  0  0  0  0  0  0  0  0
   47.1740   31.3770   45.4310 N   0  0  0  0  0  0  0  0  0  0  0  0
   46.4170   32.0540   46.2980 C   0  0  0  0  0  0  0  0  0  0  0  0
   47.5330   33.6920   41.7360 C   0  0  1  0  0  0  0  0  0  0  0  0
   48.0010   34.6560   40.6580 C   0  0  0  0  0  0  0  0  0  0  0  0
   48.9370   34.0940   41.7270 C   0  0  1  0  0  0  0  0  0  0  0  0
   49.4530   35.1690   42.6590 C   0  0  0  0  0  0  0  0  0  0  0  0
   44.4545   36.6870   43.5310 H   0  0  0  0  0  0  0  0  0  0  0  0
   45.9154   35.9320   41.6663 H   0  0  0  0  0  0  0  0  0  0  0  0
   44.5123   34.3330   47.6108 H   0  0  0  0  0  0  0  0  0  0  0  0
   46.6048   29.9307   48.9934 H   0  0  0  0  0  0  0  0  0  0  0  0
   48.3334   29.6426   45.1423 H   0  0  0  0  0  0  0  0  0  0  0  0
   47.0207   32.7186   41.7377 H   0  0  0  0  0  0  0  0  0  0  0  0
   47.6955   35.7124   40.6841 H   0  0  0  0  0  0  0  0  0  0  0  0
   47.9803   34.6880   39.5587 H   0  0  0  0  0  0  0  0  0  0  0  0
   49.8575   33.4946   41.7850 H   0  0  0  0  0  0  0  0  0  0  0  0
   49.3016   34.8537   43.7019 H   0  0  0  0  0  0  0  0  0  0  0  0
   50.5259   35.3287   42.4762 H   0  0  0  0  0  0  0  0  0  0  0  0
   48.9065   36.1060   42.4762 H   0  0  0  0  0  0  0  0  0  0  0  0
  1  6  2  0
  2  3  2  0
  2  1  1  0
  3  4  1  0
  4  5  2  0
  5  7  1  0
  6  5  1  0
  7 15  1  0
  7  8  1  0
  8  9  2  0
 10 11  2  0
 10  9  1  0
 12 11  1  0
 13 12  2  0
 14 13  1  0
 14 15  2  0
 15 10  1  0
 16  3  1  0
 17 18  1  0
 17 16  1  0
 18 16  1  0
 18 19  1  0
  1 20  1  0
  2 21  1  0
  8 22  1  0
 11 23  1  0
 13 24  1  0
 16 25  1  6
 17 26  1  0
 17 27  1  0
 18 28  1  6
 19 29  1  0
 19 30  1  0
 19 31  1  0
M  ISO  8  20  14  21  14  22  14  23  14  24  14  25  13  26  13  27  13
M  ISO  4  28  13  29   8  30   8  31   8
M  END
>  <minimizedAffinity>  (1) 
-5.64959717

>  <minimizedRMSD>  (1) 
0.698787689

$$$$
