
     RDKit          3D

 47 51  0  0  1  0  0  0  0  0999 V2000
   44.6530   35.7130   44.3410 C   0  0  0  0  0  0  0  0  0  0  0  0
   44.2680   35.2310   43.1010 C   0  0  0  0  0  0  0  0  0  0  0  0
   44.5030   33.9080   42.8170 C   0  0  0  0  0  0  0  0  0  0  0  0
   45.0960   33.1010   43.7250 N   0  0  0  0  0  0  0  0  0  0  0  0
   45.4640   33.6120   44.9420 C   0  0  0  0  0  0  0  0  0  0  0  0
   45.2470   34.9180   45.2590 N   0  0  0  0  0  0  0  0  0  0  0  0
   46.0860   32.7060   45.8500 N   0  0  0  0  0  0  0  0  0  0  0  0
   46.6560   32.9280   47.0720 C   0  0  0  0  0  0  0  0  0  0  0  0
   47.1090   31.7530   47.5410 N   0  0  0  0  0  0  0  0  0  0  0  0
   46.8530   30.7730   46.6620 C   0  0  0  0  0  0  0  0  0  0  0  0
   47.1100   29.4060   46.6670 C   0  0  0  0  0  0  0  0  0  0  0  0
   46.7070   28.7180   45.6030 N   0  0  0  0  0  0  0  0  0  0  0  0
   46.0770   29.3250   44.5680 C   0  0  0  0  0  0  0  0  0  0  0  0
   45.8190   30.6490   44.5470 N   0  0  0  0  0  0  0  0  0  0  0  0
   46.2110   31.3850   45.6060 C   0  0  0  0  0  0  0  0  0  0  0  0
   44.1370   33.2970   41.5120 C   0  0  1  0  0  0  0  0  0  0  0  0
   44.5050   33.9710   40.2340 C   0  0  0  0  0  0  0  0  0  0  0  0
   45.2080   32.7080   40.6840 C   0  0  1  0  0  0  0  0  0  0  0  0
   46.6580   32.8750   40.8790 C   0  0  0  0  0  0  0  0  0  0  0  0
   47.0450   34.2910   40.4600 C   0  0  0  0  0  0  0  0  0  0  0  0
   48.5450   34.4940   40.5700 C   0  0  0  0  0  0  0  0  0  0  0  0
   49.2690   33.3170   41.1490 C   0  0  0  0  0  0  0  0  0  0  0  0
   49.8520   33.7420   42.4550 C   0  0  0  0  0  0  0  0  0  0  0  0
   49.7610   35.2460   42.5230 C   0  0  0  0  0  0  0  0  0  0  0  0
   48.9250   35.7090   41.3580 C   0  0  0  0  0  0  0  0  0  0  0  0
   44.4708   36.7700   44.5852 H   0  0  0  0  0  0  0  0  0  0  0  0
   43.7869   35.8901   42.3634 H   0  0  0  0  0  0  0  0  0  0  0  0
   46.7309   33.8993   47.5828 H   0  0  0  0  0  0  0  0  0  0  0  0
   47.6215   28.9181   47.5098 H   0  0  0  0  0  0  0  0  0  0  0  0
   45.7631   28.7129   43.7096 H   0  0  0  0  0  0  0  0  0  0  0  0
   43.1873   32.9353   41.9331 H   0  0  0  0  0  0  0  0  0  0  0  0
   45.0352   34.9347   40.2495 H   0  0  0  0  0  0  0  0  0  0  0  0
   43.9640   34.2883   39.3303 H   0  0  0  0  0  0  0  0  0  0  0  0
   45.3671   31.6638   40.3769 H   0  0  0  0  0  0  0  0  0  0  0  0
   46.9099   32.7200   41.9385 H   0  0  0  0  0  0  0  0  0  0  0  0
   47.2063   32.1399   40.2716 H   0  0  0  0  0  0  0  0  0  0  0  0
   46.5343   35.0130   41.1141 H   0  0  0  0  0  0  0  0  0  0  0  0
   46.7441   34.4438   39.4130 H   0  0  0  0  0  0  0  0  0  0  0  0
   48.8578   34.6282   39.5240 H   0  0  0  0  0  0  0  0  0  0  0  0
   48.5669   32.4847   41.3050 H   0  0  0  0  0  0  0  0  0  0  0  0
   50.0609   32.9769   40.4655 H   0  0  0  0  0  0  0  0  0  0  0  0
   49.2844   33.2934   43.2836 H   0  0  0  0  0  0  0  0  0  0  0  0
   50.8982   33.4126   42.5382 H   0  0  0  0  0  0  0  0  0  0  0  0
   49.2872   35.5500   43.4680 H   0  0  0  0  0  0  0  0  0  0  0  0
   50.7645   35.6945   42.4787 H   0  0  0  0  0  0  0  0  0  0  0  0
   49.5062   36.3989   40.7286 H   0  0  0  0  0  0  0  0  0  0  0  0
   48.0284   36.2404   41.7097 H   0  0  0  0  0  0  0  0  0  0  0  0
  1  6  2  0
  2  1  1  0
  3  2  2  0
  3  4  1  0
  4  5  2  0
  5  6  1  0
  5  7  1  0
  7  8  1  0
  8  9  2  0
 10 11  2  0
 10  9  1  0
 12 11  1  0
 13 12  2  0
 14 13  1  0
 14 15  2  0
 15  7  1  0
 15 10  1  0
 16  3  1  0
 17 18  1  0
 17 16  1  0
 18 19  1  0
 18 16  1  0
 20 21  1  0
 20 19  1  0
 21 22  1  0
 21 25  1  0
 22 23  1  0
 23 24  1  0
 25 24  1  0
  1 26  1  0
  2 27  1  0
  8 28  1  0
 11 29  1  0
 13 30  1  0
 16 31  1  1
 17 32  1  0
 17 33  1  0
 18 34  1  6
 19 35  1  0
 19 36  1  0
 20 37  1  0
 20 38  1  0
 21 39  1  0
 22 40  1  0
 22 41  1  0
 23 42  1  0
 23 43  1  0
 24 44  1  0
 24 45  1  0
 25 46  1  0
 25 47  1  0
M  ISO  8  26  14  27  14  28  14  29  14  30  14  31  13  32  13  33  13
M  ISO  8  34  13  35   8  36   8  37   8  38   8  39  13  40  13  41  13
M  ISO  6  42  13  43  13  44  13  45  13  46  13  47  13
M  END
>  <minimizedAffinity>  (1) 
-5.89462757

>  <minimizedRMSD>  (1) 
2.71947885

$$$$
