
     RDKit          3D

 43 47  0  0  1  0  0  0  0  0999 V2000
   46.6510   33.8580   41.7950 C   0  0  1  0  0  0  0  0  0  0  0  0
   47.3320   34.7750   40.8610 C   0  0  0  0  0  0  0  0  0  0  0  0
   48.1400   33.8750   41.7630 C   0  0  1  0  0  0  0  0  0  0  0  0
   44.7340   35.9880   44.2450 C   0  0  0  0  0  0  0  0  0  0  0  0
   45.3300   35.5820   43.0500 C   0  0  0  0  0  0  0  0  0  0  0  0
   45.9840   34.3530   43.0220 C   0  0  0  0  0  0  0  0  0  0  0  0
   46.0260   33.5990   44.1320 N   0  0  0  0  0  0  0  0  0  0  0  0
   45.4340   34.0230   45.2860 C   0  0  0  0  0  0  0  0  0  0  0  0
   44.7830   35.2190   45.3570 N   0  0  0  0  0  0  0  0  0  0  0  0
   45.5470   33.1490   46.4150 N   0  0  0  0  0  0  0  0  0  0  0  0
   45.1550   33.3410   47.7040 C   0  0  0  0  0  0  0  0  0  0  0  0
   45.4770   32.2480   48.3970 N   0  0  0  0  0  0  0  0  0  0  0  0
   46.0720   31.3370   47.5990 C   0  0  0  0  0  0  0  0  0  0  0  0
   46.5830   30.0700   47.8250 C   0  0  0  0  0  0  0  0  0  0  0  0
   47.1130   29.4430   46.7710 N   0  0  0  0  0  0  0  0  0  0  0  0
   47.1410   30.0290   45.5530 C   0  0  0  0  0  0  0  0  0  0  0  0
   46.6480   31.2600   45.3200 N   0  0  0  0  0  0  0  0  0  0  0  0
   46.1080   31.9260   46.3430 C   0  0  0  0  0  0  0  0  0  0  0  0
   49.0380   34.5630   42.6870 C   0  0  0  0  0  0  0  0  0  0  0  0
   50.4560   34.0020   42.5210 C   0  0  0  0  0  0  0  0  0  0  0  0
   50.4520   32.9790   41.5740 O   0  0  0  0  0  0  0  0  0  0  0  0
   51.3180   31.9080   41.5110 C   0  0  0  0  0  0  0  0  0  0  0  0
   51.2830   30.9720   42.5230 C   0  0  0  0  0  0  0  0  0  0  0  0
   52.1180   29.8730   42.5290 C   0  0  0  0  0  0  0  0  0  0  0  0
   52.9950   29.7190   41.5060 N   0  0  0  0  0  0  0  0  0  0  0  0
   53.0300   30.6290   40.5190 C   0  0  0  0  0  0  0  0  0  0  0  0
   52.2030   31.7140   40.5160 N   0  0  0  0  0  0  0  0  0  0  0  0
   45.8621   33.1035   41.6595 H   0  0  0  0  0  0  0  0  0  0  0  0
   47.3112   35.8599   41.0415 H   0  0  0  0  0  0  0  0  0  0  0  0
   47.2892   34.9551   39.7767 H   0  0  0  0  0  0  0  0  0  0  0  0
   48.8621   33.0464   41.7189 H   0  0  0  0  0  0  0  0  0  0  0  0
   44.2123   36.9557   44.2836 H   0  0  0  0  0  0  0  0  0  0  0  0
   45.2842   36.2169   42.1529 H   0  0  0  0  0  0  0  0  0  0  0  0
   44.6603   34.2386   48.1035 H   0  0  0  0  0  0  0  0  0  0  0  0
   46.5540   29.6038   48.8209 H   0  0  0  0  0  0  0  0  0  0  0  0
   47.5869   29.4747   44.7140 H   0  0  0  0  0  0  0  0  0  0  0  0
   49.0399   35.6404   42.4651 H   0  0  0  0  0  0  0  0  0  0  0  0
   48.6965   34.4065   43.7209 H   0  0  0  0  0  0  0  0  0  0  0  0
   51.1297   34.8052   42.1878 H   0  0  0  0  0  0  0  0  0  0  0  0
   50.8034   33.6025   43.4852 H   0  0  0  0  0  0  0  0  0  0  0  0
   50.5691   31.1050   43.3492 H   0  0  0  0  0  0  0  0  0  0  0  0
   52.0731   29.1378   43.3460 H   0  0  0  0  0  0  0  0  0  0  0  0
   53.7434   30.4962   39.6923 H   0  0  0  0  0  0  0  0  0  0  0  0
  1  6  1  0
  2  3  1  0
  2  1  1  0
  3  1  1  0
  3 19  1  0
  4  9  2  0
  5  4  1  0
  6  5  2  0
  6  7  1  0
  7  8  2  0
  8  9  1  0
  8 10  1  0
 10 11  1  0
 11 12  2  0
 13 14  2  0
 13 12  1  0
 15 14  1  0
 16 15  2  0
 17 16  1  0
 17 18  2  0
 18 10  1  0
 18 13  1  0
 20 19  1  0
 21 20  1  0
 22 21  1  0
 22 23  2  0
 23 24  1  0
 25 24  2  0
 26 25  1  0
 27 26  2  0
 27 22  1  0
  1 28  1  6
  2 29  1  0
  2 30  1  0
  3 31  1  6
  4 32  1  0
  5 33  1  0
 11 34  1  0
 14 35  1  0
 16 36  1  0
 19 37  1  0
 19 38  1  0
 20 39  1  0
 20 40  1  0
 23 41  1  0
 24 42  1  0
 26 43  1  0
M  ISO  8  28  13  29  13  30  13  31  13  32  14  33  14  34  14  35  14
M  ISO  8  36  14  37   8  38   8  39   8  40   8  41  14  42  14  43  14
M  END
>  <minimizedAffinity>  (1) 
-5.88537407

>  <minimizedRMSD>  (1) 
2.3389833

$$$$
