
     RDKit          3D

 46 51  0  0  1  0  0  0  0  0999 V2000
   46.6170   33.8790   41.8480 C   0  0  1  0  0  0  0  0  0  0  0  0
   47.3490   34.8340   40.9960 C   0  0  0  0  0  0  0  0  0  0  0  0
   48.1060   33.8170   41.8170 C   0  0  1  0  0  0  0  0  0  0  0  0
   44.7280   35.8490   44.4490 C   0  0  0  0  0  0  0  0  0  0  0  0
   45.2910   35.5150   43.2170 C   0  0  0  0  0  0  0  0  0  0  0  0
   45.9740   34.3090   43.1150 C   0  0  0  0  0  0  0  0  0  0  0  0
   46.0750   33.5010   44.1910 N   0  0  0  0  0  0  0  0  0  0  0  0
   45.5110   33.8620   45.3810 C   0  0  0  0  0  0  0  0  0  0  0  0
   44.8330   35.0360   45.5220 N   0  0  0  0  0  0  0  0  0  0  0  0
   45.6850   32.9530   46.4620 N   0  0  0  0  0  0  0  0  0  0  0  0
   45.3340   33.0770   47.7860 C   0  0  0  0  0  0  0  0  0  0  0  0
   45.7110   31.9670   48.4180 N   0  0  0  0  0  0  0  0  0  0  0  0
   46.3040   31.1070   47.5520 C   0  0  0  0  0  0  0  0  0  0  0  0
   46.8530   29.8520   47.7090 C   0  0  0  0  0  0  0  0  0  0  0  0
   47.3620   29.2750   46.6180 N   0  0  0  0  0  0  0  0  0  0  0  0
   47.3300   29.9100   45.4250 C   0  0  0  0  0  0  0  0  0  0  0  0
   46.7970   31.1360   45.2540 N   0  0  0  0  0  0  0  0  0  0  0  0
   46.2810   31.7410   46.3190 C   0  0  0  0  0  0  0  0  0  0  0  0
   49.0360   34.3680   42.7970 C   0  0  0  0  0  0  0  0  0  0  0  0
   50.4530   33.8710   42.4800 C   0  0  0  0  0  0  0  0  0  0  0  0
   50.3900   32.7950   41.6120 O   0  0  0  0  0  0  0  0  0  0  0  0
   51.6920   28.7080   43.0670 N   0  0  0  0  0  0  0  0  0  0  0  0
   50.6330   29.1720   43.7630 C   0  0  0  0  0  0  0  0  0  0  0  0
   50.2940   30.3810   43.2880 N   0  0  0  0  0  0  0  0  0  0  0  0
   51.1380   30.6950   42.2850 C   0  0  0  0  0  0  0  0  0  0  0  0
   51.2820   31.7760   41.4390 C   0  0  0  0  0  0  0  0  0  0  0  0
   52.2650   31.7660   40.5190 N   0  0  0  0  0  0  0  0  0  0  0  0
   53.1180   30.7060   40.4090 C   0  0  0  0  0  0  0  0  0  0  0  0
   53.0140   29.6280   41.2150 N   0  0  0  0  0  0  0  0  0  0  0  0
   52.0300   29.6330   42.1400 C   0  0  0  0  0  0  0  0  0  0  0  0
   45.7899   33.1815   41.6496 H   0  0  0  0  0  0  0  0  0  0  0  0
   47.3857   35.8989   41.2690 H   0  0  0  0  0  0  0  0  0  0  0  0
   47.3194   35.1084   39.9312 H   0  0  0  0  0  0  0  0  0  0  0  0
   48.7838   32.9586   41.7000 H   0  0  0  0  0  0  0  0  0  0  0  0
   44.1841   36.7999   44.5489 H   0  0  0  0  0  0  0  0  0  0  0  0
   45.1970   36.1870   42.3512 H   0  0  0  0  0  0  0  0  0  0  0  0
   44.8302   33.9415   48.2429 H   0  0  0  0  0  0  0  0  0  0  0  0
   46.8708   29.3497   48.6874 H   0  0  0  0  0  0  0  0  0  0  0  0
   47.7605   29.4007   44.5502 H   0  0  0  0  0  0  0  0  0  0  0  0
   49.0120   35.4667   42.7503 H   0  0  0  0  0  0  0  0  0  0  0  0
   48.7463   34.0418   43.8068 H   0  0  0  0  0  0  0  0  0  0  0  0
   51.0288   34.6835   42.0129 H   0  0  0  0  0  0  0  0  0  0  0  0
   50.9443   33.5566   43.4126 H   0  0  0  0  0  0  0  0  0  0  0  0
   52.1624   27.8039   43.2162 H   0  0  0  0  0  0  0  0  0  0  0  0
   50.1290   28.6448   44.5864 H   0  0  0  0  0  0  0  0  0  0  0  0
   53.9092   30.7308   39.6452 H   0  0  0  0  0  0  0  0  0  0  0  0
  1  6  1  0
  2  3  1  0
  2  1  1  0
  3  1  1  0
  3 19  1  0
  4  9  2  0
  5  4  1  0
  6  5  2  0
  6  7  1  0
  7  8  2  0
  8  9  1  0
  8 10  1  0
 10 11  1  0
 11 12  2  0
 13 14  2  0
 13 12  1  0
 15 14  1  0
 16 15  2  0
 17 16  1  0
 17 18  2  0
 18 10  1  0
 18 13  1  0
 20 19  1  0
 21 20  1  0
 22 23  1  0
 24 23  2  0
 25 24  1  0
 26 21  1  0
 26 25  2  0
 27 26  1  0
 28 27  2  0
 28 29  1  0
 29 30  2  0
 30 25  1  0
 30 22  1  0
  1 31  1  6
  2 32  1  0
  2 33  1  0
  3 34  1  6
  4 35  1  0
  5 36  1  0
 11 37  1  0
 14 38  1  0
 16 39  1  0
 19 40  1  0
 19 41  1  0
 20 42  1  0
 20 43  1  0
 22 44  1  0
 23 45  1  0
 28 46  1  0
M  ISO  8  31  13  32  13  33  13  34  13  35  14  36  14  37  14  38  14
M  ISO  8  39  14  40   8  41   8  42   8  43   8  44   9  45  14  46  14
M  END
>  <minimizedAffinity>  (1) 
-6.00652885

>  <minimizedRMSD>  (1) 
2.59479809

$$$$
