
     RDKit          3D

 48 52  0  0  1  0  0  0  0  0999 V2000
   45.4390   33.6330   42.1750 C   0  0  1  0  0  0  0  0  0  0  0  0
   45.2290   34.5830   41.0650 C   0  0  0  0  0  0  0  0  0  0  0  0
   46.6290   34.1590   41.4610 C   0  0  1  0  0  0  0  0  0  0  0  0
   44.5090   35.6100   45.2490 C   0  0  0  0  0  0  0  0  0  0  0  0
   44.6770   35.2900   43.9040 C   0  0  0  0  0  0  0  0  0  0  0  0
   45.2120   34.0450   43.5820 C   0  0  0  0  0  0  0  0  0  0  0  0
   45.5470   33.1950   44.5630 N   0  0  0  0  0  0  0  0  0  0  0  0
   45.3680   33.5450   45.8740 C   0  0  0  0  0  0  0  0  0  0  0  0
   44.8470   34.7550   46.2250 N   0  0  0  0  0  0  0  0  0  0  0  0
   45.7620   32.5760   46.8510 N   0  0  0  0  0  0  0  0  0  0  0  0
   45.7970   32.6670   48.2070 C   0  0  0  0  0  0  0  0  0  0  0  0
   46.2360   31.5140   48.7080 N   0  0  0  0  0  0  0  0  0  0  0  0
   46.4960   30.6480   47.6860 C   0  0  0  0  0  0  0  0  0  0  0  0
   46.9640   29.3450   47.6610 C   0  0  0  0  0  0  0  0  0  0  0  0
   47.1070   28.7870   46.4470 N   0  0  0  0  0  0  0  0  0  0  0  0
   46.8050   29.4750   45.3280 C   0  0  0  0  0  0  0  0  0  0  0  0
   46.3490   30.7420   45.3390 N   0  0  0  0  0  0  0  0  0  0  0  0
   46.1900   31.3420   46.5280 C   0  0  0  0  0  0  0  0  0  0  0  0
   47.4930   35.2650   41.9110 C   0  0  0  0  0  0  0  0  0  0  0  0
   48.9220   34.9370   41.5310 C   0  0  0  0  0  0  0  0  0  0  0  0
   49.0370   33.6470   41.0960 O   0  0  0  0  0  0  0  0  0  0  0  0
   50.6620   30.3420   43.0510 C   0  0  0  0  0  0  0  0  0  0  0  0
   51.4990   31.1170   42.3040 C   0  0  0  0  0  0  0  0  0  0  0  0
   51.0160   32.2180   41.6390 C   0  0  0  0  0  0  0  0  0  0  0  0
   49.6650   32.5690   41.7120 C   0  0  0  0  0  0  0  0  0  0  0  0
   48.8500   31.7370   42.4930 C   0  0  0  0  0  0  0  0  0  0  0  0
   49.3380   30.6330   43.1580 C   0  0  0  0  0  0  0  0  0  0  0  0
   51.2380   28.9270   43.9160 S   0  0  0  0  0  0  0  0  0  0  0  0
   50.8150   27.6830   43.1960 O   0  0  0  0  0  0  0  0  0  0  0  0
   50.6320   28.8590   45.3030 O   0  0  0  0  0  0  0  0  0  0  0  0
   45.0415   32.6319   42.3984 H   0  0  0  0  0  0  0  0  0  0  0  0
   44.8832   35.6063   41.2729 H   0  0  0  0  0  0  0  0  0  0  0  0
   44.6459   34.5777   40.1323 H   0  0  0  0  0  0  0  0  0  0  0  0
   47.5085   33.6374   41.0557 H   0  0  0  0  0  0  0  0  0  0  0  0
   44.0879   36.5900   45.5177 H   0  0  0  0  0  0  0  0  0  0  0  0
   44.3942   36.0029   43.1155 H   0  0  0  0  0  0  0  0  0  0  0  0
   45.5091   33.5507   48.7954 H   0  0  0  0  0  0  0  0  0  0  0  0
   47.2053   28.7971   48.5838 H   0  0  0  0  0  0  0  0  0  0  0  0
   46.9377   28.9763   44.3566 H   0  0  0  0  0  0  0  0  0  0  0  0
   47.1837   36.2009   41.4227 H   0  0  0  0  0  0  0  0  0  0  0  0
   47.4101   35.3915   43.0005 H   0  0  0  0  0  0  0  0  0  0  0  0
   49.2439   35.6160   40.7276 H   0  0  0  0  0  0  0  0  0  0  0  0
   49.5550   35.0603   42.4221 H   0  0  0  0  0  0  0  0  0  0  0  0
   52.5661   30.8595   42.2334 H   0  0  0  0  0  0  0  0  0  0  0  0
   51.7034   32.8330   41.0396 H   0  0  0  0  0  0  0  0  0  0  0  0
   47.7794   31.9748   42.5782 H   0  0  0  0  0  0  0  0  0  0  0  0
   48.6709   30.0008   43.7623 H   0  0  0  0  0  0  0  0  0  0  0  0
   52.6026   29.0204   43.9941 H   0  0  0  0  0  0  0  0  0  0  0  0
  1  6  1  0
  2  3  1  0
  2  1  1  0
  3 19  1  0
  3  1  1  0
  4  9  2  0
  5  4  1  0
  6  5  2  0
  6  7  1  0
  7  8  2  0
  8  9  1  0
  8 10  1  0
 10 11  1  0
 11 12  2  0
 13 12  1  0
 14 13  2  0
 15 14  1  0
 16 17  1  0
 16 15  2  0
 17 18  2  0
 18 10  1  0
 18 13  1  0
 20 19  1  0
 21 20  1  0
 21 25  1  0
 22 27  2  0
 22 28  1  0
 23 22  1  0
 24 25  1  0
 24 23  2  0
 25 26  2  0
 26 27  1  0
 28 30  2  0
 29 28  2  0
  1 31  1  6
  2 32  1  0
  2 33  1  0
  3 34  1  6
  4 35  1  0
  5 36  1  0
 11 37  1  0
 14 38  1  0
 16 39  1  0
 19 40  1  0
 19 41  1  0
 20 42  1  0
 20 43  1  0
 23 44  1  0
 24 45  1  0
 26 46  1  0
 27 47  1  0
 28 48  1  0
M  ISO  8  31  13  32  13  33  13  34  13  35  14  36  14  37  14  38  14
M  ISO  8  39  14  40   8  41   8  42   8  43   8  44  14  45  14  46  14
M  ISO  2  47  14  48  11
M  END
>  <minimizedAffinity>  (1) 
-5.41614008

>  <minimizedRMSD>  (1) 
0.747449815

$$$$
