
     RDKit          3D

 44 48  0  0  1  0  0  0  0  0999 V2000
   45.4250   33.6300   42.1790 C   0  0  1  0  0  0  0  0  0  0  0  0
   45.3250   34.5920   41.0650 C   0  0  0  0  0  0  0  0  0  0  0  0
   46.6820   34.0680   41.5100 C   0  0  1  0  0  0  0  0  0  0  0  0
   44.4920   35.6090   45.2490 C   0  0  0  0  0  0  0  0  0  0  0  0
   44.6620   35.2850   43.9000 C   0  0  0  0  0  0  0  0  0  0  0  0
   45.2090   34.0480   43.5790 C   0  0  0  0  0  0  0  0  0  0  0  0
   45.5590   33.2020   44.5710 N   0  0  0  0  0  0  0  0  0  0  0  0
   45.3800   33.5510   45.8780 C   0  0  0  0  0  0  0  0  0  0  0  0
   44.8440   34.7590   46.2320 N   0  0  0  0  0  0  0  0  0  0  0  0
   45.7870   32.5890   46.8610 N   0  0  0  0  0  0  0  0  0  0  0  0
   45.8280   32.6830   48.2110 C   0  0  0  0  0  0  0  0  0  0  0  0
   46.2770   31.5240   48.6920 N   0  0  0  0  0  0  0  0  0  0  0  0
   46.5390   30.6530   47.6790 C   0  0  0  0  0  0  0  0  0  0  0  0
   47.0110   29.3590   47.6630 C   0  0  0  0  0  0  0  0  0  0  0  0
   47.1480   28.8000   46.4450 N   0  0  0  0  0  0  0  0  0  0  0  0
   46.8340   29.4900   45.3170 C   0  0  0  0  0  0  0  0  0  0  0  0
   46.3730   30.7560   45.3450 N   0  0  0  0  0  0  0  0  0  0  0  0
   46.2210   31.3470   46.5240 C   0  0  0  0  0  0  0  0  0  0  0  0
   47.6110   35.0890   41.9760 C   0  0  0  0  0  0  0  0  0  0  0  0
   48.8110   34.3980   42.6470 C   0  0  0  0  0  0  0  0  0  0  0  0
   49.0060   33.1710   42.0950 O   0  0  0  0  0  0  0  0  0  0  0  0
   49.9960   32.5840   41.4140 C   0  0  0  0  0  0  0  0  0  0  0  0
   49.4500   32.1850   40.1690 C   0  0  0  0  0  0  0  0  0  0  0  0
   50.2020   31.5280   39.1830 C   0  0  0  0  0  0  0  0  0  0  0  0
   51.5520   31.2670   39.4630 C   0  0  0  0  0  0  0  0  0  0  0  0
   52.0420   31.6700   40.6820 C   0  0  0  0  0  0  0  0  0  0  0  0
   51.2770   32.2940   41.5890 N   0  0  0  0  0  0  0  0  0  0  0  0
   44.9318   32.6674   42.3797 H   0  0  0  0  0  0  0  0  0  0  0  0
   45.0460   35.6374   41.2630 H   0  0  0  0  0  0  0  0  0  0  0  0
   44.7768   34.6278   40.1120 H   0  0  0  0  0  0  0  0  0  0  0  0
   47.5368   33.4833   41.1392 H   0  0  0  0  0  0  0  0  0  0  0  0
   44.0590   36.5847   45.5147 H   0  0  0  0  0  0  0  0  0  0  0  0
   44.3696   35.9928   43.1103 H   0  0  0  0  0  0  0  0  0  0  0  0
   45.5410   33.5621   48.8066 H   0  0  0  0  0  0  0  0  0  0  0  0
   47.2604   28.8162   48.5867 H   0  0  0  0  0  0  0  0  0  0  0  0
   46.9612   28.9955   44.3427 H   0  0  0  0  0  0  0  0  0  0  0  0
   47.9596   35.6890   41.1225 H   0  0  0  0  0  0  0  0  0  0  0  0
   47.1088   35.7501   42.6976 H   0  0  0  0  0  0  0  0  0  0  0  0
   49.7129   35.0108   42.5018 H   0  0  0  0  0  0  0  0  0  0  0  0
   48.6085   34.2836   43.7221 H   0  0  0  0  0  0  0  0  0  0  0  0
   48.3903   32.3996   39.9664 H   0  0  0  0  0  0  0  0  0  0  0  0
   49.7499   31.2287   38.2259 H   0  0  0  0  0  0  0  0  0  0  0  0
   52.1962   30.7571   38.7316 H   0  0  0  0  0  0  0  0  0  0  0  0
   53.0975   31.4740   40.9216 H   0  0  0  0  0  0  0  0  0  0  0  0
  1  6  1  0
  2  3  1  0
  2  1  1  0
  3 19  1  0
  3  1  1  0
  4  9  2  0
  5  4  1  0
  6  5  2  0
  6  7  1  0
  7  8  2  0
  8  9  1  0
  8 10  1  0
 10 11  1  0
 11 12  2  0
 13 12  1  0
 14 13  2  0
 15 14  1  0
 16 17  1  0
 16 15  2  0
 17 18  2  0
 18 10  1  0
 18 13  1  0
 19 20  1  0
 21 20  1  0
 22 27  1  0
 22 21  1  0
 23 22  2  0
 24 25  2  0
 24 23  1  0
 25 26  1  0
 26 27  2  0
  1 28  1  6
  2 29  1  0
  2 30  1  0
  3 31  1  6
  4 32  1  0
  5 33  1  0
 11 34  1  0
 14 35  1  0
 16 36  1  0
 19 37  1  0
 19 38  1  0
 20 39  1  0
 20 40  1  0
 23 41  1  0
 24 42  1  0
 25 43  1  0
 26 44  1  0
M  ISO  8  28  13  29  13  30  13  31  13  32  14  33  14  34  14  35  14
M  ISO  8  36  14  37   8  38   8  39   8  40   8  41  14  42  14  43  14
M  ISO  1  44  14
M  END
>  <minimizedAffinity>  (1) 
-5.62088585

>  <minimizedRMSD>  (1) 
1.48588943

$$$$
