
     RDKit          3D

 37 40  0  0  1  0  0  0  0  0999 V2000
   44.6100   35.6940   44.5440 C   0  0  0  0  0  0  0  0  0  0  0  0
   45.1030   35.2890   43.3030 C   0  0  0  0  0  0  0  0  0  0  0  0
   45.8050   34.0880   43.2330 C   0  0  0  0  0  0  0  0  0  0  0  0
   45.9890   33.3600   44.3460 N   0  0  0  0  0  0  0  0  0  0  0  0
   45.4930   33.7860   45.5480 C   0  0  0  0  0  0  0  0  0  0  0  0
   44.8000   34.9540   45.6600 N   0  0  0  0  0  0  0  0  0  0  0  0
   45.7550   32.9400   46.6690 N   0  0  0  0  0  0  0  0  0  0  0  0
   45.4820   33.1570   47.9990 C   0  0  0  0  0  0  0  0  0  0  0  0
   45.9170   32.0770   48.6650 N   0  0  0  0  0  0  0  0  0  0  0  0
   46.4580   31.1720   47.8260 C   0  0  0  0  0  0  0  0  0  0  0  0
   47.0290   29.9300   48.0370 C   0  0  0  0  0  0  0  0  0  0  0  0
   47.4750   29.2970   46.9250 N   0  0  0  0  0  0  0  0  0  0  0  0
   47.3590   29.8590   45.7100 C   0  0  0  0  0  0  0  0  0  0  0  0
   46.8040   31.0680   45.5000 N   0  0  0  0  0  0  0  0  0  0  0  0
   46.3470   31.7360   46.5650 C   0  0  0  0  0  0  0  0  0  0  0  0
   46.3690   33.5960   41.9560 C   0  0  1  0  0  0  0  0  0  0  0  0
   46.3340   34.4060   40.7270 C   0  0  0  0  0  0  0  0  0  0  0  0
   47.6380   34.2120   41.4760 C   0  0  1  0  0  0  0  0  0  0  0  0
   48.2600   35.4370   41.9640 C   0  0  0  0  0  0  0  0  0  0  0  0
   49.6850   35.1250   42.4350 C   0  0  0  0  0  0  0  0  0  0  0  0
   49.8080   33.7560   42.6710 O   0  0  0  0  0  0  0  0  0  0  0  0
   50.9540   33.0720   42.3080 C   0  0  0  0  0  0  0  0  0  0  0  0
   51.0280   32.3430   41.2850 O   0  0  0  0  0  0  0  0  0  0  0  0
   44.0525   36.6395   44.6165 H   0  0  0  0  0  0  0  0  0  0  0  0
   44.9415   35.9019   42.4039 H   0  0  0  0  0  0  0  0  0  0  0  0
   44.9998   34.0452   48.4332 H   0  0  0  0  0  0  0  0  0  0  0  0
   47.1152   29.4861   49.0398 H   0  0  0  0  0  0  0  0  0  0  0  0
   47.7376   29.3018   44.8404 H   0  0  0  0  0  0  0  0  0  0  0  0
   46.0184   32.5792   42.1868 H   0  0  0  0  0  0  0  0  0  0  0  0
   45.8388   35.3883   40.7289 H   0  0  0  0  0  0  0  0  0  0  0  0
   45.9971   34.2391   39.6933 H   0  0  0  0  0  0  0  0  0  0  0  0
   48.6411   33.7789   41.3489 H   0  0  0  0  0  0  0  0  0  0  0  0
   48.2946   36.1802   41.1538 H   0  0  0  0  0  0  0  0  0  0  0  0
   47.6735   35.8409   42.8024 H   0  0  0  0  0  0  0  0  0  0  0  0
   50.4025   35.4290   41.6586 H   0  0  0  0  0  0  0  0  0  0  0  0
   49.8931   35.6770   43.3634 H   0  0  0  0  0  0  0  0  0  0  0  0
   51.8452   33.1702   42.9453 H   0  0  0  0  0  0  0  0  0  0  0  0
  1  6  2  0
  2  1  1  0
  3  2  2  0
  3  4  1  0
  4  5  2  0
  5  6  1  0
  5  7  1  0
  7  8  1  0
  8  9  2  0
 10 11  2  0
 10  9  1  0
 12 11  1  0
 13 12  2  0
 14 13  1  0
 14 15  2  0
 15  7  1  0
 15 10  1  0
 16  3  1  0
 17 18  1  0
 17 16  1  0
 18 16  1  0
 18 19  1  0
 19 20  1  0
 20 21  1  0
 22 21  1  0
 23 22  2  0
  1 24  1  0
  2 25  1  0
  8 26  1  0
 11 27  1  0
 13 28  1  0
 16 29  1  6
 17 30  1  0
 17 31  1  0
 18 32  1  6
 19 33  1  0
 19 34  1  0
 20 35  1  0
 20 36  1  0
 22 37  1  0
M  ISO  8  24  14  25  14  26  14  27  14  28  14  29  13  30  13  31  13
M  ISO  6  32  13  33   8  34   8  35   8  36   8  37   6
M  END
>  <minimizedAffinity>  (1) 
-5.43896627

>  <minimizedRMSD>  (1) 
1.11208332

$$$$
