
     RDKit          3D

 38 41  0  0  1  0  0  0  0  0999 V2000
   44.5680   35.6560   44.8220 C   0  0  0  0  0  0  0  0  0  0  0  0
   44.5580   35.2530   43.4840 C   0  0  0  0  0  0  0  0  0  0  0  0
   44.9780   33.9610   43.1890 C   0  0  0  0  0  0  0  0  0  0  0  0
   45.3780   33.1380   44.1790 N   0  0  0  0  0  0  0  0  0  0  0  0
   45.3750   33.5670   45.4690 C   0  0  0  0  0  0  0  0  0  0  0  0
   44.9700   34.8310   45.8110 N   0  0  0  0  0  0  0  0  0  0  0  0
   45.8250   32.6300   46.4530 N   0  0  0  0  0  0  0  0  0  0  0  0
   46.0240   32.7930   47.7940 C   0  0  0  0  0  0  0  0  0  0  0  0
   46.4480   31.6310   48.2850 N   0  0  0  0  0  0  0  0  0  0  0  0
   46.5370   30.6990   47.3100 C   0  0  0  0  0  0  0  0  0  0  0  0
   46.9170   29.3720   47.3180 C   0  0  0  0  0  0  0  0  0  0  0  0
   46.8810   28.7430   46.1330 N   0  0  0  0  0  0  0  0  0  0  0  0
   46.4880   29.3970   45.0050 C   0  0  0  0  0  0  0  0  0  0  0  0
   46.1180   30.6840   44.9970 N   0  0  0  0  0  0  0  0  0  0  0  0
   46.1370   31.3540   46.1550 C   0  0  0  0  0  0  0  0  0  0  0  0
   45.0130   33.4550   41.7960 C   0  0  1  0  0  0  0  0  0  0  0  0
   44.8520   34.3580   40.6410 C   0  0  0  0  0  0  0  0  0  0  0  0
   46.2120   33.7820   40.9720 C   0  0  1  0  0  0  0  0  0  0  0  0
   47.2480   34.7620   41.2710 C   0  0  0  0  0  0  0  0  0  0  0  0
   48.3290   34.7030   40.1840 C   0  0  0  0  0  0  0  0  0  0  0  0
   48.0100   33.7100   39.2670 O   0  0  0  0  0  0  0  0  0  0  0  0
   48.2510   34.0640   37.9490 C   0  0  0  0  0  0  0  0  0  0  0  0
   47.1320   34.1150   37.1630 F   0  0  0  0  0  0  0  0  0  0  0  0
   49.2350   33.2340   37.4430 F   0  0  0  0  0  0  0  0  0  0  0  0
   48.8150   35.3440   38.0130 F   0  0  0  0  0  0  0  0  0  0  0  0
   44.2389   36.6744   45.0760 H   0  0  0  0  0  0  0  0  0  0  0  0
   44.2279   35.9372   42.6884 H   0  0  0  0  0  0  0  0  0  0  0  0
   45.8628   33.7187   48.3659 H   0  0  0  0  0  0  0  0  0  0  0  0
   47.2305   28.8608   48.2402 H   0  0  0  0  0  0  0  0  0  0  0  0
   46.4738   28.8418   44.0555 H   0  0  0  0  0  0  0  0  0  0  0  0
   44.4886   32.5389   42.1054 H   0  0  0  0  0  0  0  0  0  0  0  0
   44.6533   35.4278   40.8022 H   0  0  0  0  0  0  0  0  0  0  0  0
   44.2092   34.3737   39.7485 H   0  0  0  0  0  0  0  0  0  0  0  0
   46.9893   33.1284   40.5494 H   0  0  0  0  0  0  0  0  0  0  0  0
   46.8056   35.7688   41.2953 H   0  0  0  0  0  0  0  0  0  0  0  0
   47.6966   34.5377   42.2500 H   0  0  0  0  0  0  0  0  0  0  0  0
   48.3845   35.6734   39.6691 H   0  0  0  0  0  0  0  0  0  0  0  0
   49.3013   34.4768   40.6459 H   0  0  0  0  0  0  0  0  0  0  0  0
  1  6  2  0
  2  1  1  0
  3  2  2  0
  3  4  1  0
  4  5  2  0
  5  6  1  0
  5  7  1  0
  7  8  1  0
  8  9  2  0
 10 11  2  0
 10  9  1  0
 12 11  1  0
 13 12  2  0
 14 13  1  0
 14 15  2  0
 15  7  1  0
 15 10  1  0
 16  3  1  0
 17 18  1  0
 17 16  1  0
 18 19  1  0
 18 16  1  0
 20 19  1  0
 21 20  1  0
 22 25  1  0
 22 21  1  0
 23 22  1  0
 24 22  1  0
  1 26  1  0
  2 27  1  0
  8 28  1  0
 11 29  1  0
 13 30  1  0
 16 31  1  1
 17 32  1  0
 17 33  1  0
 18 34  1  6
 19 35  1  0
 19 36  1  0
 20 37  1  0
 20 38  1  0
M  ISO  8  26  14  27  14  28  14  29  14  30  14  31  13  32  13  33  13
M  ISO  5  34  13  35   8  36   8  37   8  38   8
M  END
>  <minimizedAffinity>  (1) 
-5.37247276

>  <minimizedRMSD>  (1) 
1.36784828

$$$$
