
     RDKit          3D

 27 28  0  0  0  0  0  0  0  0999 V2000
   46.1810   34.2850   43.4300 C   0  0  0  0  0  0  0  0  0  0  0  0
   45.5610   34.6310   42.2120 C   0  0  0  0  0  0  0  0  0  0  0  0
   44.4350   35.4560   42.2330 C   0  0  0  0  0  0  0  0  0  0  0  0
   43.9850   35.8920   43.4470 N   0  0  0  0  0  0  0  0  0  0  0  0
   44.6100   35.5370   44.5960 C   0  0  0  0  0  0  0  0  0  0  0  0
   45.6950   34.7430   44.5890 N   0  0  0  0  0  0  0  0  0  0  0  0
   47.3620   33.4130   43.3380 C   0  0  0  0  0  0  0  0  0  0  0  0
   48.6000   34.2380   43.0500 C   0  0  0  0  0  0  0  0  0  0  0  0
   49.2730   33.8120   41.7630 C   0  0  0  0  0  0  0  0  0  0  0  0
   49.7630   32.3830   42.0130 C   0  0  0  0  0  0  0  0  0  0  0  0
   48.5610   31.5310   42.4020 C   0  0  0  0  0  0  0  0  0  0  0  0
   47.2590   32.3320   42.2970 C   0  0  0  0  0  0  0  0  0  0  0  0
   46.2060   34.0200   40.6330 S   0  0  0  0  0  0  0  0  0  0  0  0
   43.9263   35.7458   41.3017 H   0  0  0  0  0  0  0  0  0  0  0  0
   44.2208   35.9069   45.5560 H   0  0  0  0  0  0  0  0  0  0  0  0
   47.4269   32.9135   44.3159 H   0  0  0  0  0  0  0  0  0  0  0  0
   48.3113   35.2962   42.9674 H   0  0  0  0  0  0  0  0  0  0  0  0
   49.3118   34.0854   43.8746 H   0  0  0  0  0  0  0  0  0  0  0  0
   50.1206   34.4749   41.5344 H   0  0  0  0  0  0  0  0  0  0  0  0
   48.5858   33.8643   40.9057 H   0  0  0  0  0  0  0  0  0  0  0  0
   50.2240   31.9817   41.0985 H   0  0  0  0  0  0  0  0  0  0  0  0
   50.5133   32.3729   42.8173 H   0  0  0  0  0  0  0  0  0  0  0  0
   48.5036   30.6625   41.7293 H   0  0  0  0  0  0  0  0  0  0  0  0
   48.6871   31.2050   43.4450 H   0  0  0  0  0  0  0  0  0  0  0  0
   47.1598   32.7732   41.2943 H   0  0  0  0  0  0  0  0  0  0  0  0
   46.3763   31.6956   42.4580 H   0  0  0  0  0  0  0  0  0  0  0  0
   47.1858   33.0918   40.8684 H   0  0  0  0  0  0  0  0  0  0  0  0
  1  6  2  0
  2  3  2  0
  2  1  1  0
  3  4  1  0
  4  5  2  0
  6  5  1  0
  7  1  1  0
  8  7  1  0
  9 10  1  0
  9  8  1  0
 10 11  1  0
 12 11  1  0
 12  7  1  0
 13  2  1  0
  3 14  1  0
  5 15  1  0
  7 16  1  0
  8 17  1  0
  8 18  1  0
  9 19  1  0
  9 20  1  0
 10 21  1  0
 10 22  1  0
 11 23  1  0
 11 24  1  0
 12 25  1  0
 12 26  1  0
 13 27  1  0
M  ISO  8  14  14  15  14  16  13  17  13  18  13  19  13  20  13  21  13
M  ISO  6  22  13  23  13  24  13  25  13  26  13  27  11
M  END
>  <minimizedAffinity>  (1) 
-3.46403837

>  <minimizedRMSD>  (1) 
5.44293833

$$$$
