
     RDKit          3D

 17 17  0  0  0  0  0  0  0  0999 V2000
   46.2050   34.8740   42.9680 C   0  0  0  0  0  0  0  0  0  0  0  0
   46.2280   33.9460   44.0420 C   0  0  0  0  0  0  0  0  0  0  0  0
   45.4470   34.2010   45.1580 C   0  0  0  0  0  0  0  0  0  0  0  0
   44.6780   35.3330   45.2010 N   0  0  0  0  0  0  0  0  0  0  0  0
   44.6860   36.1840   44.1640 C   0  0  0  0  0  0  0  0  0  0  0  0
   45.4300   35.9670   43.0640 N   0  0  0  0  0  0  0  0  0  0  0  0
   47.2680   32.4650   43.9440 S   0  0  0  0  0  0  0  0  0  0  0  0
   47.0230   34.6100   41.7530 C   0  0  0  0  0  0  0  0  0  0  0  0
   48.2800   35.4830   41.8910 C   0  0  0  0  0  0  0  0  0  0  0  0
   45.4449   33.4982   46.0042 H   0  0  0  0  0  0  0  0  0  0  0  0
   44.0635   37.0895   44.2146 H   0  0  0  0  0  0  0  0  0  0  0  0
   47.5702   32.0347   45.2091 H   0  0  0  0  0  0  0  0  0  0  0  0
   46.4629   34.8867   40.8476 H   0  0  0  0  0  0  0  0  0  0  0  0
   47.2803   33.5442   41.6642 H   0  0  0  0  0  0  0  0  0  0  0  0
   48.5034   35.6382   42.9568 H   0  0  0  0  0  0  0  0  0  0  0  0
   49.1305   34.9802   41.4075 H   0  0  0  0  0  0  0  0  0  0  0  0
   48.1059   36.4556   41.4075 H   0  0  0  0  0  0  0  0  0  0  0  0
  1  6  2  0
  1  2  1  0
  2  3  2  0
  3  4  1  0
  5  4  2  0
  6  5  1  0
  7  2  1  0
  8  9  1  0
  8  1  1  0
  3 10  1  0
  5 11  1  0
  7 12  1  0
  8 13  1  0
  8 14  1  0
  9 15  1  0
  9 16  1  0
  9 17  1  0
M  ISO  8  10  14  11  14  12  11  13   8  14   8  15   8  16   8  17   8
M  END
>  <minimizedAffinity>  (1) 
-3.45012712

>  <minimizedRMSD>  (1) 
3.68370295

$$$$
