
     RDKit          3D

 18 18  0  0  0  0  0  0  0  0999 V2000
   45.1830   34.3690   43.6780 C   0  0  0  0  0  0  0  0  0  0  0  0
   44.7150   33.2350   42.9630 C   0  0  0  0  0  0  0  0  0  0  0  0
   43.9330   33.4230   41.8360 C   0  0  0  0  0  0  0  0  0  0  0  0
   43.6370   34.7020   41.4490 N   0  0  0  0  0  0  0  0  0  0  0  0
   44.1070   35.7590   42.1640 C   0  0  0  0  0  0  0  0  0  0  0  0
   44.8640   35.5990   43.2560 N   0  0  0  0  0  0  0  0  0  0  0  0
   45.9900   34.1770   44.8400 N   0  0  0  0  0  0  0  0  0  0  0  0
   45.3780   34.0560   46.1400 C   0  0  0  0  0  0  0  0  0  0  0  0
   44.3080   34.7850   46.3490 N   0  0  0  0  0  0  0  0  0  0  0  0
   45.9970   33.1530   47.0800 N   0  0  0  0  0  0  0  0  0  0  0  0
   43.8680   34.7010   47.2790 H   0  0  0  0  0  0  0  0  0  0  0  0
   45.1480   31.5720   43.5360 S   0  0  0  0  0  0  0  0  0  0  0  0
   43.5573   32.5621   41.2634 H   0  0  0  0  0  0  0  0  0  0  0  0
   43.8570   36.7782   41.8342 H   0  0  0  0  0  0  0  0  0  0  0  0
   47.0147   34.1246   44.7492 H   0  0  0  0  0  0  0  0  0  0  0  0
   45.5951   33.0339   48.0208 H   0  0  0  0  0  0  0  0  0  0  0  0
   46.8408   32.6275   46.8101 H   0  0  0  0  0  0  0  0  0  0  0  0
   45.1542   31.5482   44.9058 H   0  0  0  0  0  0  0  0  0  0  0  0
  1  7  1  0
  2 12  1  0
  2  1  2  0
  3  2  1  0
  4  3  2  0
  4  5  1  0
  5  6  2  0
  6  1  1  0
  7  8  1  0
  8  9  2  0
  8 10  1  0
  9 11  1  0
  3 13  1  0
  5 14  1  0
  7 15  1  0
 10 16  1  0
 10 17  1  0
 12 18  1  0
M  ISO  3  13  14  14  14  18  11
M  END
>  <minimizedAffinity>  (1) 
-3.7447083

>  <minimizedRMSD>  (1) 
4.04244614

$$$$
