
     RDKit          3D

 51 54  0  0  1  0  0  0  0  0999 V2000
   45.7310   34.6630   42.3520 C   0  0  2  0  0  0  0  0  0  0  0  0
   44.7250   35.3930   44.5780 C   0  0  0  0  0  0  0  0  0  0  0  0
   45.4950   34.4790   43.8080 C   0  0  0  0  0  0  0  0  0  0  0  0
   46.0240   33.3910   44.5330 C   0  0  0  0  0  0  0  0  0  0  0  0
   45.7680   33.3060   45.8520 N   0  0  0  0  0  0  0  0  0  0  0  0
   45.0340   34.1950   46.5370 C   0  0  0  0  0  0  0  0  0  0  0  0
   44.4880   35.2820   45.8840 N   0  0  0  0  0  0  0  0  0  0  0  0
   47.0150   35.3970   42.2140 C   0  0  0  0  0  0  0  0  0  0  0  0
   48.0200   34.7430   41.4340 N   0  0  0  0  0  0  0  0  0  0  0  0
   49.3080   35.0540   41.9770 C   0  0  0  0  0  0  0  0  0  0  0  0
   50.1890   33.8980   42.3110 C   0  0  0  0  0  0  0  0  0  0  0  0
   49.3450   32.9230   42.8490 O   0  0  0  0  0  0  0  0  0  0  0  0
   48.6820   32.4100   41.7470 C   0  0  0  0  0  0  0  0  0  0  0  0
   47.8720   33.4470   40.9960 C   0  0  2  0  0  0  0  0  0  0  0  0
   48.4160   33.4410   39.5520 C   0  0  0  0  0  0  0  0  0  0  0  0
   44.5680   35.2620   41.7210 C   0  0  0  0  0  0  0  0  0  0  0  0
   43.7460   34.6360   40.7300 C   0  0  0  0  0  0  0  0  0  0  0  0
   44.3950   33.7090   39.8930 C   0  0  0  0  0  0  0  0  0  0  0  0
   43.8030   33.0580   38.8330 C   0  0  0  0  0  0  0  0  0  0  0  0
   42.4820   33.2980   38.5320 C   0  0  0  0  0  0  0  0  0  0  0  0
   41.7740   34.1880   39.3020 C   0  0  0  0  0  0  0  0  0  0  0  0
   40.4380   34.4610   39.1010 C   0  0  0  0  0  0  0  0  0  0  0  0
   39.7090   35.3200   39.8890 C   0  0  0  0  0  0  0  0  0  0  0  0
   40.3790   35.9390   40.9470 C   0  0  0  0  0  0  0  0  0  0  0  0
   41.7100   35.6700   41.1500 C   0  0  0  0  0  0  0  0  0  0  0  0
   42.4290   34.8010   40.3420 C   0  0  0  0  0  0  0  0  0  0  0  0
   45.8461   33.7157   41.8048 H   0  0  0  0  0  0  0  0  0  0  0  0
   44.2917   36.2583   44.0551 H   0  0  0  0  0  0  0  0  0  0  0  0
   46.6343   32.6263   44.0302 H   0  0  0  0  0  0  0  0  0  0  0  0
   44.8675   34.0586   47.6157 H   0  0  0  0  0  0  0  0  0  0  0  0
   46.8008   36.3683   41.7442 H   0  0  0  0  0  0  0  0  0  0  0  0
   47.4272   35.4760   43.2308 H   0  0  0  0  0  0  0  0  0  0  0  0
   49.8387   35.6764   41.2415 H   0  0  0  0  0  0  0  0  0  0  0  0
   49.1055   35.5511   42.9372 H   0  0  0  0  0  0  0  0  0  0  0  0
   50.6845   33.5189   41.4050 H   0  0  0  0  0  0  0  0  0  0  0  0
   50.9826   34.1829   43.0174 H   0  0  0  0  0  0  0  0  0  0  0  0
   49.4270   31.9841   41.0589 H   0  0  0  0  0  0  0  0  0  0  0  0
   47.9761   31.6516   42.1165 H   0  0  0  0  0  0  0  0  0  0  0  0
   46.8135   33.1772   41.1256 H   0  0  0  0  0  0  0  0  0  0  0  0
   49.5157   33.4289   39.5745 H   0  0  0  0  0  0  0  0  0  0  0  0
   48.0501   32.5468   39.0261 H   0  0  0  0  0  0  0  0  0  0  0  0
   48.0700   34.3430   39.0261 H   0  0  0  0  0  0  0  0  0  0  0  0
   43.8867   35.5147   42.5468 H   0  0  0  0  0  0  0  0  0  0  0  0
   45.0567   36.0333   41.1076 H   0  0  0  0  0  0  0  0  0  0  0  0
   45.4524   33.4881   40.1005 H   0  0  0  0  0  0  0  0  0  0  0  0
   44.3855   32.3474   38.2282 H   0  0  0  0  0  0  0  0  0  0  0  0
   42.0000   32.7845   37.6870 H   0  0  0  0  0  0  0  0  0  0  0  0
   39.9266   33.9639   38.2635 H   0  0  0  0  0  0  0  0  0  0  0  0
   38.6434   35.5117   39.6946 H   0  0  0  0  0  0  0  0  0  0  0  0
   39.8455   36.6351   41.6109 H   0  0  0  0  0  0  0  0  0  0  0  0
   42.2269   36.1631   41.9865 H   0  0  0  0  0  0  0  0  0  0  0  0
  1  3  1  0
  2  7  2  0
  3  4  2  0
  3  2  1  0
  4  5  1  0
  5  6  2  0
  7  6  1  0
  8  1  1  0
  9 10  1  0
  9  8  1  0
 10 11  1  0
 11 12  1  0
 13 12  1  0
 14  9  1  0
 14 13  1  0
 15 14  1  0
 16  1  1  0
 17 16  1  0
 18 17  2  0
 19 18  1  0
 20 19  2  0
 20 21  1  0
 21 26  2  0
 22 21  1  0
 22 23  2  0
 23 24  1  0
 24 25  2  0
 26 17  1  0
 26 25  1  0
  1 27  1  6
  2 28  1  0
  4 29  1  0
  6 30  1  0
  8 31  1  0
  8 32  1  0
 10 33  1  0
 10 34  1  0
 11 35  1  0
 11 36  1  0
 13 37  1  0
 13 38  1  0
 14 39  1  6
 15 40  1  0
 15 41  1  0
 15 42  1  0
 16 43  1  0
 16 44  1  0
 18 45  1  0
 19 46  1  0
 20 47  1  0
 22 48  1  0
 23 49  1  0
 24 50  1  0
 25 51  1  0
M  ISO  8  27   8  28  14  29  14  30  14  31   8  32   8  33  13  34  13
M  ISO  8  35  13  36  13  37  13  38  13  39  13  40   8  41   8  42   8
M  ISO  8  43   8  44   8  45  14  46  14  47  14  48  14  49  14  50  14
M  ISO  1  51  14
M  END
>  <minimizedAffinity>  (1) 
-6.38458824

>  <minimizedRMSD>  (1) 
2.31935287

$$$$
