
     RDKit          3D

 13 13  0  0  0  0  0  0  0  0999 V2000
   44.8330   35.1930   44.2330 C   0  0  0  0  0  0  0  0  0  0  0  0
   45.1830   34.2270   43.2690 C   0  0  0  0  0  0  0  0  0  0  0  0
   45.6950   32.9990   43.7160 C   0  0  0  0  0  0  0  0  0  0  0  0
   45.8260   32.8050   45.0640 N   0  0  0  0  0  0  0  0  0  0  0  0
   45.4760   33.7620   45.9380 C   0  0  0  0  0  0  0  0  0  0  0  0
   44.9860   34.9430   45.5390 N   0  0  0  0  0  0  0  0  0  0  0  0
   44.3140   36.4390   43.7800 N   0  0  0  0  0  0  0  0  0  0  0  0
   44.9900   34.5340   41.5100 S   0  0  0  0  0  0  0  0  0  0  0  0
   45.9832   32.2137   43.0017 H   0  0  0  0  0  0  0  0  0  0  0  0
   45.5953   33.5704   47.0146 H   0  0  0  0  0  0  0  0  0  0  0  0
   44.2029   36.6144   42.7711 H   0  0  0  0  0  0  0  0  0  0  0  0
   44.0496   37.1650   44.4611 H   0  0  0  0  0  0  0  0  0  0  0  0
   44.2676   35.6831   41.3235 H   0  0  0  0  0  0  0  0  0  0  0  0
  1  6  2  0
  2  3  2  0
  2  1  1  0
  3  4  1  0
  4  5  2  0
  6  5  1  0
  7  1  1  0
  8  2  1  0
  3  9  1  0
  5 10  1  0
  7 11  1  0
  7 12  1  0
  8 13  1  0
M  ISO  3   9  14  10  14  13  11
M  END
>  <minimizedAffinity>  (1) 
-2.90300512

>  <minimizedRMSD>  (1) 
0.859642804

$$$$
