
     RDKit          3D

 37 39  0  0  0  0  0  0  0  0999 V2000
   45.8460   34.4890   41.4670 C   0  0  0  0  0  0  0  0  0  0  0  0
   44.4510   34.3310   41.3260 C   0  0  0  0  0  0  0  0  0  0  0  0
   43.6210   34.9940   42.2020 C   0  0  0  0  0  0  0  0  0  0  0  0
   44.1530   35.7860   43.1820 N   0  0  0  0  0  0  0  0  0  0  0  0
   45.4910   35.9090   43.2810 C   0  0  0  0  0  0  0  0  0  0  0  0
   46.3290   35.2790   42.4470 N   0  0  0  0  0  0  0  0  0  0  0  0
   46.6670   33.7350   40.4750 C   0  0  0  0  0  0  0  0  0  0  0  0
   45.9450   33.2640   39.2790 C   0  0  0  0  0  0  0  0  0  0  0  0
   47.1190   32.4840   41.2530 C   0  0  0  0  0  0  0  0  0  0  0  0
   47.9670   34.4630   40.1720 C   0  0  0  0  0  0  0  0  0  0  0  0
   43.7740   33.3040   40.0630 S   0  0  0  0  0  0  0  0  0  0  0  0
   42.3030   34.0830   39.4340 C   0  0  0  0  0  0  0  0  0  0  0  0
   42.4100   35.0620   38.5130 N   0  0  0  0  0  0  0  0  0  0  0  0
   41.2950   35.6700   38.0200 C   0  0  0  0  0  0  0  0  0  0  0  0
   40.1020   35.2590   38.4830 N   0  0  0  0  0  0  0  0  0  0  0  0
   39.9320   34.2990   39.3900 C   0  0  0  0  0  0  0  0  0  0  0  0
   38.7100   33.8740   39.8680 C   0  0  0  0  0  0  0  0  0  0  0  0
   38.6580   32.8540   40.8250 C   0  0  0  0  0  0  0  0  0  0  0  0
   39.8020   32.2410   41.3200 C   0  0  0  0  0  0  0  0  0  0  0  0
   41.0210   32.6690   40.8400 C   0  0  0  0  0  0  0  0  0  0  0  0
   41.0630   33.6840   39.8890 C   0  0  0  0  0  0  0  0  0  0  0  0
   42.5298   34.8867   42.1136 H   0  0  0  0  0  0  0  0  0  0  0  0
   45.9092   36.5479   44.0728 H   0  0  0  0  0  0  0  0  0  0  0  0
   45.0608   32.6872   39.5880 H   0  0  0  0  0  0  0  0  0  0  0  0
   45.6270   34.1289   38.6783 H   0  0  0  0  0  0  0  0  0  0  0  0
   46.6085   32.6245   38.6783 H   0  0  0  0  0  0  0  0  0  0  0  0
   47.0486   32.6788   42.3333 H   0  0  0  0  0  0  0  0  0  0  0  0
   46.4708   31.6349   40.9905 H   0  0  0  0  0  0  0  0  0  0  0  0
   48.1602   32.2453   40.9905 H   0  0  0  0  0  0  0  0  0  0  0  0
   48.4608   34.7395   41.1152 H   0  0  0  0  0  0  0  0  0  0  0  0
   48.6292   33.8044   39.5908 H   0  0  0  0  0  0  0  0  0  0  0  0
   47.7515   35.3717   39.5908 H   0  0  0  0  0  0  0  0  0  0  0  0
   41.3686   36.4700   37.2686 H   0  0  0  0  0  0  0  0  0  0  0  0
   37.7814   34.3341   39.4991 H   0  0  0  0  0  0  0  0  0  0  0  0
   37.6766   32.5262   41.1983 H   0  0  0  0  0  0  0  0  0  0  0  0
   39.7371   31.4398   42.0709 H   0  0  0  0  0  0  0  0  0  0  0  0
   41.9526   32.2122   41.2055 H   0  0  0  0  0  0  0  0  0  0  0  0
  1  6  2  0
  2  1  1  0
  2  3  2  0
  3  4  1  0
  4  5  2  0
  6  5  1  0
  7  9  1  0
  7  1  1  0
  8  7  1  0
 10  7  1  0
 11  2  1  0
 12 21  1  0
 12 11  1  0
 13 12  2  0
 14 15  2  0
 14 13  1  0
 15 16  1  0
 16 17  1  0
 16 21  2  0
 17 18  2  0
 18 19  1  0
 20 19  2  0
 21 20  1  0
  3 22  1  0
  5 23  1  0
  8 24  1  0
  8 25  1  0
  8 26  1  0
  9 27  1  0
  9 28  1  0
  9 29  1  0
 10 30  1  0
 10 31  1  0
 10 32  1  0
 14 33  1  0
 17 34  1  0
 18 35  1  0
 19 36  1  0
 20 37  1  0
M  ISO  8  22  14  23  14  24   8  25   8  26   8  27   8  28   8  29   8
M  ISO  8  30   8  31   8  32   8  33  14  34  14  35  14  36  14  37  14
M  END
>  <minimizedAffinity>  (1) 
-5.46588516

>  <minimizedRMSD>  (1) 
3.80839396

$$$$
