
     RDKit          3D

 39 41  0  0  0  0  0  0  0  0999 V2000
   46.6180   34.8580   41.6950 C   0  0  0  0  0  0  0  0  0  0  0  0
   45.5510   34.2440   40.9870 C   0  0  0  0  0  0  0  0  0  0  0  0
   44.2590   34.4450   41.4500 C   0  0  0  0  0  0  0  0  0  0  0  0
   44.0550   35.2200   42.5660 N   0  0  0  0  0  0  0  0  0  0  0  0
   45.1140   35.7770   43.1960 C   0  0  0  0  0  0  0  0  0  0  0  0
   46.3660   35.6000   42.7700 N   0  0  0  0  0  0  0  0  0  0  0  0
   47.9770   34.5820   41.1130 C   0  0  0  0  0  0  0  0  0  0  0  0
   47.9770   34.3240   39.6380 C   0  0  0  0  0  0  0  0  0  0  0  0
   48.4450   33.3190   41.7980 C   0  0  0  0  0  0  0  0  0  0  0  0
   48.9520   35.6860   41.4980 C   0  0  0  0  0  0  0  0  0  0  0  0
   45.8380   33.2470   39.5630 S   0  0  0  0  0  0  0  0  0  0  0  0
   45.2210   31.6080   39.6500 C   0  0  0  0  0  0  0  0  0  0  0  0
   45.8050   30.4970   40.1710 C   0  0  0  0  0  0  0  0  0  0  0  0
   45.2240   29.2460   40.1820 C   0  0  0  0  0  0  0  0  0  0  0  0
   43.9650   29.0880   39.6330 C   0  0  0  0  0  0  0  0  0  0  0  0
   43.3440   30.1980   39.0930 C   0  0  0  0  0  0  0  0  0  0  0  0
   42.0930   29.9450   38.5680 C   0  0  0  0  0  0  0  0  0  0  0  0
   41.3960   30.9950   38.0080 C   0  0  0  0  0  0  0  0  0  0  0  0
   41.9670   32.2510   37.9910 C   0  0  0  0  0  0  0  0  0  0  0  0
   43.2190   32.4730   38.5230 C   0  0  0  0  0  0  0  0  0  0  0  0
   43.9470   31.4450   39.0930 C   0  0  0  0  0  0  0  0  0  0  0  0
   43.4052   33.9879   40.9283 H   0  0  0  0  0  0  0  0  0  0  0  0
   44.9376   36.3958   44.0882 H   0  0  0  0  0  0  0  0  0  0  0  0
   49.0141   34.2608   39.2768 H   0  0  0  0  0  0  0  0  0  0  0  0
   47.4585   33.3761   39.4316 H   0  0  0  0  0  0  0  0  0  0  0  0
   47.4585   35.1455   39.1221 H   0  0  0  0  0  0  0  0  0  0  0  0
   48.3952   33.4534   42.8886 H   0  0  0  0  0  0  0  0  0  0  0  0
   47.7980   32.4800   41.5020 H   0  0  0  0  0  0  0  0  0  0  0  0
   49.4824   33.1042   41.5020 H   0  0  0  0  0  0  0  0  0  0  0  0
   49.0132   35.7553   42.5941 H   0  0  0  0  0  0  0  0  0  0  0  0
   49.9468   35.4557   41.0890 H   0  0  0  0  0  0  0  0  0  0  0  0
   48.6004   36.6447   41.0890 H   0  0  0  0  0  0  0  0  0  0  0  0
   46.8068   30.6023   40.6130 H   0  0  0  0  0  0  0  0  0  0  0  0
   45.7540   28.3877   40.6206 H   0  0  0  0  0  0  0  0  0  0  0  0
   43.4710   28.1052   39.6263 H   0  0  0  0  0  0  0  0  0  0  0  0
   41.6633   28.9328   38.5955 H   0  0  0  0  0  0  0  0  0  0  0  0
   40.3959   30.8330   37.5796 H   0  0  0  0  0  0  0  0  0  0  0  0
   41.4131   33.0902   37.5449 H   0  0  0  0  0  0  0  0  0  0  0  0
   43.6466   33.4861   38.4936 H   0  0  0  0  0  0  0  0  0  0  0  0
  1  6  2  0
  2  3  2  0
  2  1  1  0
  3  4  1  0
  4  5  2  0
  6  5  1  0
  7 10  1  0
  7  1  1  0
  7  9  1  0
  8  7  1  0
 11 12  1  0
 11  2  1  0
 12 13  2  0
 13 14  1  0
 15 14  2  0
 16 15  1  0
 17 16  2  0
 18 17  1  0
 19 18  2  0
 19 20  1  0
 20 21  2  0
 21 16  1  0
 21 12  1  0
  3 22  1  0
  5 23  1  0
  8 24  1  0
  8 25  1  0
  8 26  1  0
  9 27  1  0
  9 28  1  0
  9 29  1  0
 10 30  1  0
 10 31  1  0
 10 32  1  0
 13 33  1  0
 14 34  1  0
 15 35  1  0
 17 36  1  0
 18 37  1  0
 19 38  1  0
 20 39  1  0
M  ISO  8  22  14  23  14  24   8  25   8  26   8  27   8  28   8  29   8
M  ISO  8  30   8  31   8  32   8  33  14  34  14  35  14  36  14  37  14
M  ISO  2  38  14  39  14
M  END
>  <minimizedAffinity>  (1) 
-4.20057583

>  <minimizedRMSD>  (1) 
1.75251329

$$$$
