
     RDKit          3D

 33 34  0  0  0  0  0  0  0  0999 V2000
   46.6600   34.8940   41.7240 C   0  0  0  0  0  0  0  0  0  0  0  0
   45.6150   34.2250   41.0350 C   0  0  0  0  0  0  0  0  0  0  0  0
   44.3150   34.4050   41.5160 C   0  0  0  0  0  0  0  0  0  0  0  0
   44.0920   35.1980   42.6100 N   0  0  0  0  0  0  0  0  0  0  0  0
   45.1330   35.8020   43.2150 C   0  0  0  0  0  0  0  0  0  0  0  0
   46.3810   35.6540   42.7860 N   0  0  0  0  0  0  0  0  0  0  0  0
   48.0170   34.6630   41.1260 C   0  0  0  0  0  0  0  0  0  0  0  0
   48.0280   34.3740   39.6690 C   0  0  0  0  0  0  0  0  0  0  0  0
   48.5280   33.4280   41.8480 C   0  0  0  0  0  0  0  0  0  0  0  0
   48.9580   35.7940   41.5160 C   0  0  0  0  0  0  0  0  0  0  0  0
   45.9040   33.2230   39.6300 S   0  0  0  0  0  0  0  0  0  0  0  0
   44.5400   32.3930   38.9280 C   0  0  0  0  0  0  0  0  0  0  0  0
   44.6660   31.0080   39.1200 C   0  0  0  0  0  0  0  0  0  0  0  0
   43.7000   30.1050   38.6670 C   0  0  0  0  0  0  0  0  0  0  0  0
   42.5760   30.5570   38.0060 C   0  0  0  0  0  0  0  0  0  0  0  0
   42.4380   31.9140   37.8090 C   0  0  0  0  0  0  0  0  0  0  0  0
   43.3990   32.7860   38.2630 C   0  0  0  0  0  0  0  0  0  0  0  0
   43.4703   33.9092   41.0153 H   0  0  0  0  0  0  0  0  0  0  0  0
   44.9433   36.4380   44.0922 H   0  0  0  0  0  0  0  0  0  0  0  0
   48.0694   33.2862   39.5113 H   0  0  0  0  0  0  0  0  0  0  0  0
   47.1139   34.7768   39.2084 H   0  0  0  0  0  0  0  0  0  0  0  0
   48.9089   34.8451   39.2084 H   0  0  0  0  0  0  0  0  0  0  0  0
   48.4629   33.5854   42.9347 H   0  0  0  0  0  0  0  0  0  0  0  0
   47.9157   32.5588   41.5660 H   0  0  0  0  0  0  0  0  0  0  0  0
   49.5755   33.2456   41.5660 H   0  0  0  0  0  0  0  0  0  0  0  0
   49.0147   35.8622   42.6124 H   0  0  0  0  0  0  0  0  0  0  0  0
   49.9601   35.5942   41.1087 H   0  0  0  0  0  0  0  0  0  0  0  0
   48.5792   36.7430   41.1087 H   0  0  0  0  0  0  0  0  0  0  0  0
   45.5528   30.6213   39.6434 H   0  0  0  0  0  0  0  0  0  0  0  0
   43.8366   29.0271   38.8385 H   0  0  0  0  0  0  0  0  0  0  0  0
   41.8110   29.8532   37.6461 H   0  0  0  0  0  0  0  0  0  0  0  0
   41.5524   32.3023   37.2846 H   0  0  0  0  0  0  0  0  0  0  0  0
   43.2481   33.8609   38.0848 H   0  0  0  0  0  0  0  0  0  0  0  0
  1  6  2  0
  2  3  2  0
  2  1  1  0
  3  4  1  0
  4  5  2  0
  6  5  1  0
  7 10  1  0
  7  1  1  0
  7  9  1  0
  8  7  1  0
 11  2  1  0
 12 13  2  0
 12 11  1  0
 14 13  1  0
 15 14  2  0
 16 15  1  0
 16 17  2  0
 17 12  1  0
  3 18  1  0
  5 19  1  0
  8 20  1  0
  8 21  1  0
  8 22  1  0
  9 23  1  0
  9 24  1  0
  9 25  1  0
 10 26  1  0
 10 27  1  0
 10 28  1  0
 13 29  1  0
 14 30  1  0
 15 31  1  0
 16 32  1  0
 17 33  1  0
M  ISO  8  18  14  19  14  20   8  21   8  22   8  23   8  24   8  25   8
M  ISO  8  26   8  27   8  28   8  29  14  30  14  31  14  32  14  33  14
M  END
>  <minimizedAffinity>  (1) 
-4.07621717

>  <minimizedRMSD>  (1) 
2.5452373

$$$$
