
     RDKit          3D

 29 30  0  0  0  0  0  0  0  0999 V2000
   45.9600   34.5960   41.5860 C   0  0  0  0  0  0  0  0  0  0  0  0
   44.6110   34.4360   41.1890 C   0  0  0  0  0  0  0  0  0  0  0  0
   43.6120   35.0010   41.9670 C   0  0  0  0  0  0  0  0  0  0  0  0
   43.9660   35.6970   43.0990 N   0  0  0  0  0  0  0  0  0  0  0  0
   45.2680   35.8200   43.4340 C   0  0  0  0  0  0  0  0  0  0  0  0
   46.2480   35.2910   42.7080 N   0  0  0  0  0  0  0  0  0  0  0  0
   46.9600   33.9510   40.6740 C   0  0  0  0  0  0  0  0  0  0  0  0
   46.4220   33.4490   39.3970 C   0  0  0  0  0  0  0  0  0  0  0  0
   47.4390   32.7330   41.4750 C   0  0  0  0  0  0  0  0  0  0  0  0
   48.1960   34.8220   40.5280 C   0  0  0  0  0  0  0  0  0  0  0  0
   44.1960   33.5120   39.7420 S   0  0  0  0  0  0  0  0  0  0  0  0
   42.5440   33.9910   39.2520 C   0  0  0  0  0  0  0  0  0  0  0  0
   41.3450   33.1830   39.6350 C   0  0  0  0  0  0  0  0  0  0  0  0
   40.0470   34.2140   38.8310 S   0  0  0  0  0  0  0  0  0  0  0  0
   41.2930   35.4850   38.1580 C   0  0  0  0  0  0  0  0  0  0  0  0
   42.4730   35.1100   38.5290 N   0  0  0  0  0  0  0  0  0  0  0  0
   42.5545   34.8943   41.6836 H   0  0  0  0  0  0  0  0  0  0  0  0
   45.5284   36.3803   44.3441 H   0  0  0  0  0  0  0  0  0  0  0  0
   45.6312   32.7111   39.5971 H   0  0  0  0  0  0  0  0  0  0  0  0
   46.0039   34.2873   38.8204 H   0  0  0  0  0  0  0  0  0  0  0  0
   47.2294   32.9740   38.8204 H   0  0  0  0  0  0  0  0  0  0  0  0
   47.3553   32.9458   42.5510 H   0  0  0  0  0  0  0  0  0  0  0  0
   46.8167   31.8613   41.2241 H   0  0  0  0  0  0  0  0  0  0  0  0
   48.4884   32.5188   41.2241 H   0  0  0  0  0  0  0  0  0  0  0  0
   48.5758   35.0896   41.5251 H   0  0  0  0  0  0  0  0  0  0  0  0
   48.9710   34.2694   39.9766 H   0  0  0  0  0  0  0  0  0  0  0  0
   47.9362   35.7377   39.9766 H   0  0  0  0  0  0  0  0  0  0  0  0
   41.2631   32.2547   40.2195 H   0  0  0  0  0  0  0  0  0  0  0  0
   41.0526   36.3773   37.5613 H   0  0  0  0  0  0  0  0  0  0  0  0
  1  6  2  0
  2  1  1  0
  2  3  2  0
  3  4  1  0
  4  5  2  0
  6  5  1  0
  7  9  1  0
  7  1  1  0
  8  7  1  0
 10  7  1  0
 11  2  1  0
 12 13  2  0
 12 11  1  0
 14 13  1  0
 15 16  2  0
 15 14  1  0
 16 12  1  0
  3 17  1  0
  5 18  1  0
  8 19  1  0
  8 20  1  0
  8 21  1  0
  9 22  1  0
  9 23  1  0
  9 24  1  0
 10 25  1  0
 10 26  1  0
 10 27  1  0
 13 28  1  0
 15 29  1  0
M  ISO  8  17  14  18  14  19   8  20   8  21   8  22   8  23   8  24   8
M  ISO  5  25   8  26   8  27   8  28  14  29  14
M  END
>  <minimizedAffinity>  (1) 
-4.07812023

>  <minimizedRMSD>  (1) 
2.29776454

$$$$
