
     RDKit          3D

 31 32  0  0  0  0  0  0  0  0999 V2000
   46.6620   34.9060   41.7390 C   0  0  0  0  0  0  0  0  0  0  0  0
   45.6100   34.2430   41.0530 C   0  0  0  0  0  0  0  0  0  0  0  0
   44.3090   34.4170   41.5160 C   0  0  0  0  0  0  0  0  0  0  0  0
   44.0890   35.2170   42.6120 N   0  0  0  0  0  0  0  0  0  0  0  0
   45.1310   35.8220   43.2240 C   0  0  0  0  0  0  0  0  0  0  0  0
   46.3870   35.6690   42.7960 N   0  0  0  0  0  0  0  0  0  0  0  0
   48.0200   34.6620   41.1480 C   0  0  0  0  0  0  0  0  0  0  0  0
   48.0120   34.3850   39.6800 C   0  0  0  0  0  0  0  0  0  0  0  0
   48.5260   33.4180   41.8500 C   0  0  0  0  0  0  0  0  0  0  0  0
   48.9660   35.7920   41.5230 C   0  0  0  0  0  0  0  0  0  0  0  0
   45.9050   33.2120   39.6610 S   0  0  0  0  0  0  0  0  0  0  0  0
   44.5160   32.3330   39.0450 C   0  0  0  0  0  0  0  0  0  0  0  0
   43.4880   32.7820   38.2410 C   0  0  0  0  0  0  0  0  0  0  0  0
   42.4640   31.9180   37.8580 C   0  0  0  0  0  0  0  0  0  0  0  0
   42.4530   30.6230   38.2630 N   0  0  0  0  0  0  0  0  0  0  0  0
   43.4660   30.2200   39.0430 C   0  0  0  0  0  0  0  0  0  0  0  0
   44.4730   31.0240   39.4350 N   0  0  0  0  0  0  0  0  0  0  0  0
   43.4672   33.9205   41.0111 H   0  0  0  0  0  0  0  0  0  0  0  0
   44.9392   36.4590   44.1001 H   0  0  0  0  0  0  0  0  0  0  0  0
   47.9806   33.2983   39.5121 H   0  0  0  0  0  0  0  0  0  0  0  0
   47.1270   34.8523   39.2235 H   0  0  0  0  0  0  0  0  0  0  0  0
   48.9225   34.8004   39.2235 H   0  0  0  0  0  0  0  0  0  0  0  0
   48.4674   33.5620   42.9390 H   0  0  0  0  0  0  0  0  0  0  0  0
   47.9070   32.5561   41.5603 H   0  0  0  0  0  0  0  0  0  0  0  0
   49.5709   33.2329   41.5603 H   0  0  0  0  0  0  0  0  0  0  0  0
   49.0299   35.8684   42.6185 H   0  0  0  0  0  0  0  0  0  0  0  0
   49.9649   35.5860   41.1109 H   0  0  0  0  0  0  0  0  0  0  0  0
   48.5875   36.7391   41.1109 H   0  0  0  0  0  0  0  0  0  0  0  0
   43.4769   33.8279   37.9006 H   0  0  0  0  0  0  0  0  0  0  0  0
   41.6517   32.2917   37.2172 H   0  0  0  0  0  0  0  0  0  0  0  0
   43.4754   29.1736   39.3821 H   0  0  0  0  0  0  0  0  0  0  0  0
  1  6  2  0
  2  3  2  0
  2  1  1  0
  3  4  1  0
  4  5  2  0
  6  5  1  0
  7 10  1  0
  7  1  1  0
  7  9  1  0
  8  7  1  0
 11  2  1  0
 12 17  1  0
 12 11  1  0
 13 12  2  0
 14 13  1  0
 14 15  2  0
 15 16  1  0
 16 17  2  0
  3 18  1  0
  5 19  1  0
  8 20  1  0
  8 21  1  0
  8 22  1  0
  9 23  1  0
  9 24  1  0
  9 25  1  0
 10 26  1  0
 10 27  1  0
 10 28  1  0
 13 29  1  0
 14 30  1  0
 16 31  1  0
M  ISO  8  18  14  19  14  20   8  21   8  22   8  23   8  24   8  25   8
M  ISO  6  26   8  27   8  28   8  29  14  30  14  31  14
M  END
>  <minimizedAffinity>  (1) 
-4.01894474

>  <minimizedRMSD>  (1) 
2.61787724

$$$$
