
     RDKit          3D

 36 37  0  0  0  0  0  0  0  0999 V2000
   46.6560   34.9160   41.7470 C   0  0  0  0  0  0  0  0  0  0  0  0
   45.5980   34.2470   41.0790 C   0  0  0  0  0  0  0  0  0  0  0  0
   44.3040   34.4350   41.5630 C   0  0  0  0  0  0  0  0  0  0  0  0
   44.0970   35.2450   42.6510 N   0  0  0  0  0  0  0  0  0  0  0  0
   45.1480   35.8520   43.2420 C   0  0  0  0  0  0  0  0  0  0  0  0
   46.3980   35.6990   42.8100 N   0  0  0  0  0  0  0  0  0  0  0  0
   48.0070   34.6670   41.1360 C   0  0  0  0  0  0  0  0  0  0  0  0
   48.0040   34.3690   39.6880 C   0  0  0  0  0  0  0  0  0  0  0  0
   48.5210   33.4380   41.8680 C   0  0  0  0  0  0  0  0  0  0  0  0
   48.9720   35.7830   41.5170 C   0  0  0  0  0  0  0  0  0  0  0  0
   45.8810   33.2220   39.6860 S   0  0  0  0  0  0  0  0  0  0  0  0
   42.4450   30.5460   38.3020 C   0  0  0  0  0  0  0  0  0  0  0  0
   42.5330   31.7880   37.7210 C   0  0  0  0  0  0  0  0  0  0  0  0
   43.5260   32.6620   38.0760 C   0  0  0  0  0  0  0  0  0  0  0  0
   44.4950   32.3900   39.0150 C   0  0  0  0  0  0  0  0  0  0  0  0
   44.3960   31.1160   39.6030 C   0  0  0  0  0  0  0  0  0  0  0  0
   43.3860   30.2090   39.2500 C   0  0  0  0  0  0  0  0  0  0  0  0
   41.1550   29.5060   37.7880 S   0  0  0  0  0  0  0  0  0  0  0  0
   41.4800   28.0520   38.0610 O   0  0  0  0  0  0  0  0  0  0  0  0
   39.8370   29.8370   38.4310 O   0  0  0  0  0  0  0  0  0  0  0  0
   43.4534   33.9365   41.0751 H   0  0  0  0  0  0  0  0  0  0  0  0
   44.9647   36.4975   44.1136 H   0  0  0  0  0  0  0  0  0  0  0  0
   47.9930   33.2793   39.5379 H   0  0  0  0  0  0  0  0  0  0  0  0
   47.1103   34.8120   39.2243 H   0  0  0  0  0  0  0  0  0  0  0  0
   48.9065   34.7939   39.2243 H   0  0  0  0  0  0  0  0  0  0  0  0
   48.4523   33.6023   42.9535 H   0  0  0  0  0  0  0  0  0  0  0  0
   47.9127   32.5646   41.5901 H   0  0  0  0  0  0  0  0  0  0  0  0
   49.5699   33.2577   41.5901 H   0  0  0  0  0  0  0  0  0  0  0  0
   49.0346   35.8554   42.6128 H   0  0  0  0  0  0  0  0  0  0  0  0
   49.9684   35.5622   41.1066 H   0  0  0  0  0  0  0  0  0  0  0  0
   48.6096   36.7371   41.1066 H   0  0  0  0  0  0  0  0  0  0  0  0
   41.7958   32.0845   36.9603 H   0  0  0  0  0  0  0  0  0  0  0  0
   43.5507   33.6432   37.5794 H   0  0  0  0  0  0  0  0  0  0  0  0
   45.1340   30.8217   40.3637 H   0  0  0  0  0  0  0  0  0  0  0  0
   43.3450   29.2218   39.7335 H   0  0  0  0  0  0  0  0  0  0  0  0
   41.0336   29.7152   36.4395 H   0  0  0  0  0  0  0  0  0  0  0  0
  1  6  2  0
  2  3  2  0
  2  1  1  0
  3  4  1  0
  4  5  2  0
  6  5  1  0
  7 10  1  0
  7  1  1  0
  7  9  1  0
  8  7  1  0
 11  2  1  0
 12 17  2  0
 13 14  2  0
 13 12  1  0
 14 15  1  0
 15 16  2  0
 15 11  1  0
 17 16  1  0
 18 19  2  0
 18 12  1  0
 18 20  2  0
  3 21  1  0
  5 22  1  0
  8 23  1  0
  8 24  1  0
  8 25  1  0
  9 26  1  0
  9 27  1  0
  9 28  1  0
 10 29  1  0
 10 30  1  0
 10 31  1  0
 13 32  1  0
 14 33  1  0
 16 34  1  0
 17 35  1  0
 18 36  1  0
M  ISO  8  21  14  22  14  23   8  24   8  25   8  26   8  27   8  28   8
M  ISO  8  29   8  30   8  31   8  32  14  33  14  34  14  35  14  36  11
M  END
>  <minimizedAffinity>  (1) 
-3.9891696

>  <minimizedRMSD>  (1) 
4.03412151

$$$$
