
     RDKit          3D

 26 26  0  0  0  0  0  0  0  0999 V2000
   48.0950   34.6970   41.0790 C   0  0  0  0  0  0  0  0  0  0  0  0
   46.7220   34.8490   41.6630 C   0  0  0  0  0  0  0  0  0  0  0  0
   45.7060   34.1540   40.9500 C   0  0  0  0  0  0  0  0  0  0  0  0
   44.4010   34.2310   41.4080 C   0  0  0  0  0  0  0  0  0  0  0  0
   44.1320   34.9740   42.5330 N   0  0  0  0  0  0  0  0  0  0  0  0
   45.1460   35.6150   43.1710 C   0  0  0  0  0  0  0  0  0  0  0  0
   46.4110   35.5570   42.7500 N   0  0  0  0  0  0  0  0  0  0  0  0
   46.0910   33.1760   39.5370 S   0  0  0  0  0  0  0  0  0  0  0  0
   46.0070   31.4090   39.7940 C   0  0  0  0  0  0  0  0  0  0  0  0
   48.1330   34.5190   39.5970 C   0  0  0  0  0  0  0  0  0  0  0  0
   48.6290   33.4230   41.7030 C   0  0  0  0  0  0  0  0  0  0  0  0
   48.9970   35.8380   41.5270 C   0  0  0  0  0  0  0  0  0  0  0  0
   43.5920   33.7055   40.8795 H   0  0  0  0  0  0  0  0  0  0  0  0
   44.9150   36.2051   44.0701 H   0  0  0  0  0  0  0  0  0  0  0  0
   45.9969   31.1955   40.8730 H   0  0  0  0  0  0  0  0  0  0  0  0
   45.0891   31.0147   39.3336 H   0  0  0  0  0  0  0  0  0  0  0  0
   46.8834   30.9294   39.3336 H   0  0  0  0  0  0  0  0  0  0  0  0
   48.3572   33.4686   39.3595 H   0  0  0  0  0  0  0  0  0  0  0  0
   47.1565   34.7911   39.1699 H   0  0  0  0  0  0  0  0  0  0  0  0
   48.9132   35.1661   39.1699 H   0  0  0  0  0  0  0  0  0  0  0  0
   48.5931   33.5086   42.7991 H   0  0  0  0  0  0  0  0  0  0  0  0
   48.0124   32.5708   41.3814 H   0  0  0  0  0  0  0  0  0  0  0  0
   49.6690   33.2651   41.3814 H   0  0  0  0  0  0  0  0  0  0  0  0
   49.0250   35.8734   42.6261 H   0  0  0  0  0  0  0  0  0  0  0  0
   50.0136   35.6757   41.1394 H   0  0  0  0  0  0  0  0  0  0  0  0
   48.6044   36.7896   41.1394 H   0  0  0  0  0  0  0  0  0  0  0  0
  1 12  1  0
  1  2  1  0
  1 11  1  0
  2  7  2  0
  3  4  2  0
  3  2  1  0
  4  5  1  0
  5  6  2  0
  7  6  1  0
  8  9  1  0
  8  3  1  0
 10  1  1  0
  4 13  1  0
  6 14  1  0
  9 15  1  0
  9 16  1  0
  9 17  1  0
 10 18  1  0
 10 19  1  0
 10 20  1  0
 11 21  1  0
 11 22  1  0
 11 23  1  0
 12 24  1  0
 12 25  1  0
 12 26  1  0
M  ISO  8  13  14  14  14  15   8  16   8  17   8  18   8  19   8  20   8
M  ISO  6  21   8  22   8  23   8  24   8  25   8  26   8
M  END
>  <minimizedAffinity>  (1) 
-3.69019628

>  <minimizedRMSD>  (1) 
0.157666922

$$$$
