
     RDKit          3D

 39 40  0  0  0  0  0  0  0  0999 V2000
   46.7140   34.8080   41.6500 C   0  0  0  0  0  0  0  0  0  0  0  0
   45.7100   34.1480   40.9070 C   0  0  0  0  0  0  0  0  0  0  0  0
   44.3970   34.2600   41.3880 C   0  0  0  0  0  0  0  0  0  0  0  0
   44.1350   34.9810   42.5280 N   0  0  0  0  0  0  0  0  0  0  0  0
   45.1490   35.5810   43.1800 C   0  0  0  0  0  0  0  0  0  0  0  0
   46.4130   35.5060   42.7670 N   0  0  0  0  0  0  0  0  0  0  0  0
   48.0840   34.6720   41.0490 C   0  0  0  0  0  0  0  0  0  0  0  0
   48.1220   34.4500   39.5850 C   0  0  0  0  0  0  0  0  0  0  0  0
   48.6410   33.4210   41.7070 C   0  0  0  0  0  0  0  0  0  0  0  0
   48.9800   35.8190   41.5010 C   0  0  0  0  0  0  0  0  0  0  0  0
   46.0190   33.2820   39.4390 S   0  0  0  0  0  0  0  0  0  0  0  0
   45.6360   31.5810   39.2950 C   0  0  0  0  0  0  0  0  0  0  0  0
   45.7610   30.8850   38.0030 C   0  0  0  0  0  0  0  0  0  0  0  0
   44.8790   29.6280   38.0620 C   0  0  0  0  0  0  0  0  0  0  0  0
   44.7210   29.1280   39.4670 C   0  0  0  0  0  0  0  0  0  0  0  0
   46.0110   29.2780   40.2040 C   0  0  0  0  0  0  0  0  0  0  0  0
   46.4000   30.7250   40.3310 C   0  0  0  0  0  0  0  0  0  0  0  0
   43.5732   33.7683   40.8500 H   0  0  0  0  0  0  0  0  0  0  0  0
   44.9243   36.1562   44.0903 H   0  0  0  0  0  0  0  0  0  0  0  0
   48.3043   33.3847   39.3803 H   0  0  0  0  0  0  0  0  0  0  0  0
   47.1597   34.7487   39.1437 H   0  0  0  0  0  0  0  0  0  0  0  0
   48.9302   35.0517   39.1437 H   0  0  0  0  0  0  0  0  0  0  0  0
   48.5927   33.5294   42.8006 H   0  0  0  0  0  0  0  0  0  0  0  0
   48.0463   32.5486   41.3984 H   0  0  0  0  0  0  0  0  0  0  0  0
   49.6873   33.2792   41.3984 H   0  0  0  0  0  0  0  0  0  0  0  0
   49.0062   35.8526   42.6002 H   0  0  0  0  0  0  0  0  0  0  0  0
   49.9980   35.6632   41.1145 H   0  0  0  0  0  0  0  0  0  0  0  0
   48.5825   36.7691   41.1145 H   0  0  0  0  0  0  0  0  0  0  0  0
   44.5516   31.6544   39.4645 H   0  0  0  0  0  0  0  0  0  0  0  0
   46.8093   30.5993   37.8313 H   0  0  0  0  0  0  0  0  0  0  0  0
   45.4421   31.5410   37.1796 H   0  0  0  0  0  0  0  0  0  0  0  0
   43.8858   29.8698   37.6556 H   0  0  0  0  0  0  0  0  0  0  0  0
   45.3654   28.8391   37.4695 H   0  0  0  0  0  0  0  0  0  0  0  0
   43.9392   29.7105   39.9764 H   0  0  0  0  0  0  0  0  0  0  0  0
   44.4359   28.0658   39.4452 H   0  0  0  0  0  0  0  0  0  0  0  0
   45.9018   28.8463   41.2098 H   0  0  0  0  0  0  0  0  0  0  0  0
   46.7971   28.7543   39.6402 H   0  0  0  0  0  0  0  0  0  0  0  0
   47.4816   30.8262   40.1579 H   0  0  0  0  0  0  0  0  0  0  0  0
   46.1447   31.0759   41.3418 H   0  0  0  0  0  0  0  0  0  0  0  0
  1  6  2  0
  2  3  2  0
  2  1  1  0
  3  4  1  0
  4  5  2  0
  6  5  1  0
  7 10  1  0
  7  1  1  0
  7  9  1  0
  8  7  1  0
 11  2  1  0
 12 11  1  0
 12 17  1  0
 13 14  1  0
 13 12  1  0
 14 15  1  0
 15 16  1  0
 16 17  1  0
  3 18  1  0
  5 19  1  0
  8 20  1  0
  8 21  1  0
  8 22  1  0
  9 23  1  0
  9 24  1  0
  9 25  1  0
 10 26  1  0
 10 27  1  0
 10 28  1  0
 12 29  1  0
 13 30  1  0
 13 31  1  0
 14 32  1  0
 14 33  1  0
 15 34  1  0
 15 35  1  0
 16 36  1  0
 16 37  1  0
 17 38  1  0
 17 39  1  0
M  ISO  8  18  14  19  14  20   8  21   8  22   8  23   8  24   8  25   8
M  ISO  8  26   8  27   8  28   8  29  13  30  13  31  13  32  13  33  13
M  ISO  6  34  13  35  13  36  13  37  13  38  13  39  13
M  END
>  <minimizedAffinity>  (1) 
-3.72764325

>  <minimizedRMSD>  (1) 
0.569275737

$$$$
