
     RDKit          3D

 29 29  0  0  0  0  0  0  0  0999 V2000
   48.1020   34.6930   41.0330 C   0  0  0  0  0  0  0  0  0  0  0  0
   46.7280   34.8070   41.6170 C   0  0  0  0  0  0  0  0  0  0  0  0
   45.7350   34.0550   40.9570 C   0  0  0  0  0  0  0  0  0  0  0  0
   44.4340   34.1190   41.4400 C   0  0  0  0  0  0  0  0  0  0  0  0
   44.1510   34.8870   42.5180 N   0  0  0  0  0  0  0  0  0  0  0  0
   45.1330   35.5930   43.1220 C   0  0  0  0  0  0  0  0  0  0  0  0
   46.3880   35.5580   42.6890 N   0  0  0  0  0  0  0  0  0  0  0  0
   46.1300   33.0500   39.5660 S   0  0  0  0  0  0  0  0  0  0  0  0
   44.7520   33.0560   38.3740 C   0  0  0  0  0  0  0  0  0  0  0  0
   45.3130   33.1370   36.9680 C   0  0  0  0  0  0  0  0  0  0  0  0
   48.1380   34.4770   39.5740 C   0  0  0  0  0  0  0  0  0  0  0  0
   48.6810   33.4440   41.7000 C   0  0  0  0  0  0  0  0  0  0  0  0
   48.9890   35.8370   41.5020 C   0  0  0  0  0  0  0  0  0  0  0  0
   43.6348   33.5462   40.9469 H   0  0  0  0  0  0  0  0  0  0  0  0
   44.8858   36.2134   43.9960 H   0  0  0  0  0  0  0  0  0  0  0  0
   44.1657   32.1318   38.4840 H   0  0  0  0  0  0  0  0  0  0  0  0
   44.1013   33.9223   38.5640 H   0  0  0  0  0  0  0  0  0  0  0  0
   46.4007   33.2940   37.0157 H   0  0  0  0  0  0  0  0  0  0  0  0
   45.1010   32.1989   36.4340 H   0  0  0  0  0  0  0  0  0  0  0  0
   44.8443   33.9768   36.4340 H   0  0  0  0  0  0  0  0  0  0  0  0
   48.3156   33.4117   39.3653 H   0  0  0  0  0  0  0  0  0  0  0  0
   47.1767   34.7815   39.1344 H   0  0  0  0  0  0  0  0  0  0  0  0
   48.9486   35.0768   39.1344 H   0  0  0  0  0  0  0  0  0  0  0  0
   48.6296   33.5549   42.7932 H   0  0  0  0  0  0  0  0  0  0  0  0
   48.1000   32.5618   41.3932 H   0  0  0  0  0  0  0  0  0  0  0  0
   49.7297   33.3172   41.3932 H   0  0  0  0  0  0  0  0  0  0  0  0
   49.0069   35.8600   42.6016 H   0  0  0  0  0  0  0  0  0  0  0  0
   50.0105   35.6886   41.1217 H   0  0  0  0  0  0  0  0  0  0  0  0
   48.5909   36.7893   41.1217 H   0  0  0  0  0  0  0  0  0  0  0  0
  1 13  1  0
  1  2  1  0
  1 12  1  0
  2  7  2  0
  3  4  2  0
  3  2  1  0
  4  5  1  0
  5  6  2  0
  7  6  1  0
  8  3  1  0
  9  8  1  0
 10  9  1  0
 11  1  1  0
  4 14  1  0
  6 15  1  0
  9 16  1  0
  9 17  1  0
 10 18  1  0
 10 19  1  0
 10 20  1  0
 11 21  1  0
 11 22  1  0
 11 23  1  0
 12 24  1  0
 12 25  1  0
 12 26  1  0
 13 27  1  0
 13 28  1  0
 13 29  1  0
M  ISO  8  14  14  15  14  16   8  17   8  18   8  19   8  20   8  21   8
M  ISO  8  22   8  23   8  24   8  25   8  26   8  27   8  28   8  29   8
M  END
>  <minimizedAffinity>  (1) 
-3.81168008

>  <minimizedRMSD>  (1) 
0.534195185

$$$$
