
     RDKit          3D

 30 30  0  0  0  0  0  0  0  0999 V2000
   46.7000   34.7050   41.6460 C   0  0  0  0  0  0  0  0  0  0  0  0
   45.6450   34.0770   40.9440 C   0  0  0  0  0  0  0  0  0  0  0  0
   44.3380   34.3300   41.3430 C   0  0  0  0  0  0  0  0  0  0  0  0
   44.1110   35.1700   42.3910 N   0  0  0  0  0  0  0  0  0  0  0  0
   45.1500   35.7480   43.0340 C   0  0  0  0  0  0  0  0  0  0  0  0
   46.4060   35.5240   42.6740 N   0  0  0  0  0  0  0  0  0  0  0  0
   48.0660   34.3700   41.1230 C   0  0  0  0  0  0  0  0  0  0  0  0
   48.2520   34.5110   39.6800 C   0  0  0  0  0  0  0  0  0  0  0  0
   48.2620   32.9200   41.5310 C   0  0  0  0  0  0  0  0  0  0  0  0
   49.1180   35.1120   41.9630 C   0  0  0  0  0  0  0  0  0  0  0  0
   49.2400   36.4360   41.5980 O   0  0  0  0  0  0  0  0  0  0  0  0
   45.9470   32.9840   39.6150 S   0  0  0  0  0  0  0  0  0  0  0  0
   44.6710   33.1000   38.3490 C   0  0  0  0  0  0  0  0  0  0  0  0
   45.2940   33.1410   36.9700 C   0  0  0  0  0  0  0  0  0  0  0  0
   43.4953   33.8567   40.8178 H   0  0  0  0  0  0  0  0  0  0  0  0
   44.9478   36.4226   43.8790 H   0  0  0  0  0  0  0  0  0  0  0  0
   49.1145   35.1648   39.4836 H   0  0  0  0  0  0  0  0  0  0  0  0
   48.4333   33.5214   39.2352 H   0  0  0  0  0  0  0  0  0  0  0  0
   47.3482   34.9529   39.2352 H   0  0  0  0  0  0  0  0  0  0  0  0
   48.2720   32.8460   42.6285 H   0  0  0  0  0  0  0  0  0  0  0  0
   47.4379   32.3117   41.1300 H   0  0  0  0  0  0  0  0  0  0  0  0
   49.2180   32.5523   41.1300 H   0  0  0  0  0  0  0  0  0  0  0  0
   48.8243   35.0626   43.0219 H   0  0  0  0  0  0  0  0  0  0  0  0
   50.0895   34.6250   41.7925 H   0  0  0  0  0  0  0  0  0  0  0  0
   49.2919   36.9989   42.4107 H   0  0  0  0  0  0  0  0  0  0  0  0
   44.0089   32.2245   38.4212 H   0  0  0  0  0  0  0  0  0  0  0  0
   44.0962   34.0244   38.5071 H   0  0  0  0  0  0  0  0  0  0  0  0
   46.3876   33.2130   37.0637 H   0  0  0  0  0  0  0  0  0  0  0  0
   45.0325   32.2237   36.4221 H   0  0  0  0  0  0  0  0  0  0  0  0
   44.9146   34.0161   36.4221 H   0  0  0  0  0  0  0  0  0  0  0  0
  1  6  2  0
  2  3  2  0
  2  1  1  0
  3  4  1  0
  4  5  2  0
  6  5  1  0
  7  9  1  0
  7  1  1  0
  7 10  1  0
  8  7  1  0
 11 10  1  0
 12  2  1  0
 13 12  1  0
 14 13  1  0
  3 15  1  0
  5 16  1  0
  8 17  1  0
  8 18  1  0
  8 19  1  0
  9 20  1  0
  9 21  1  0
  9 22  1  0
 10 23  1  0
 10 24  1  0
 11 25  1  0
 13 26  1  0
 13 27  1  0
 14 28  1  0
 14 29  1  0
 14 30  1  0
M  ISO  8  15  14  16  14  17   8  18   8  19   8  20   8  21   8  22   8
M  ISO  8  23   8  24   8  25   3  26   8  27   8  28   8  29   8  30   8
M  END
>  <minimizedAffinity>  (1) 
-3.62846947

>  <minimizedRMSD>  (1) 
0.433542192

$$$$
