
     RDKit          3D

 45 47  0  0  0  0  0  0  0  0999 V2000
   46.5690   34.5460   41.5010 C   0  0  0  0  0  0  0  0  0  0  0  0
   45.4950   33.8830   40.8540 C   0  0  0  0  0  0  0  0  0  0  0  0
   44.2000   34.1850   41.2690 C   0  0  0  0  0  0  0  0  0  0  0  0
   43.9890   35.0800   42.2520 N   0  0  0  0  0  0  0  0  0  0  0  0
   45.0570   35.7000   42.8530 C   0  0  0  0  0  0  0  0  0  0  0  0
   46.3040   35.4310   42.4790 N   0  0  0  0  0  0  0  0  0  0  0  0
   47.9190   34.1560   40.9880 C   0  0  0  0  0  0  0  0  0  0  0  0
   48.1150   34.3040   39.5480 C   0  0  0  0  0  0  0  0  0  0  0  0
   48.0550   32.7010   41.3800 C   0  0  0  0  0  0  0  0  0  0  0  0
   48.9860   34.8790   41.8190 C   0  0  0  0  0  0  0  0  0  0  0  0
   49.2730   36.1810   41.3130 N   0  0  0  0  0  0  0  0  0  0  0  0
   45.7590   32.7230   39.5810 S   0  0  0  0  0  0  0  0  0  0  0  0
   44.7910   33.1600   38.1040 C   0  0  0  0  0  0  0  0  0  0  0  0
   45.6960   33.1440   36.9050 C   0  0  0  0  0  0  0  0  0  0  0  0
   45.2760   32.0120   36.0400 C   0  0  0  0  0  0  0  0  0  0  0  0
   44.0850   31.4330   36.3290 N   0  0  0  0  0  0  0  0  0  0  0  0
   43.6520   30.4070   35.5380 C   0  0  0  0  0  0  0  0  0  0  0  0
   44.3710   29.9520   34.4790 N   0  0  0  0  0  0  0  0  0  0  0  0
   45.5670   30.5160   34.1710 C   0  0  0  0  0  0  0  0  0  0  0  0
   46.3200   30.0700   33.1070 C   0  0  0  0  0  0  0  0  0  0  0  0
   47.5520   30.6780   32.8350 C   0  0  0  0  0  0  0  0  0  0  0  0
   48.0210   31.7310   33.6290 C   0  0  0  0  0  0  0  0  0  0  0  0
   47.2280   32.1370   34.6800 C   0  0  0  0  0  0  0  0  0  0  0  0
   46.0190   31.5660   34.9740 C   0  0  0  0  0  0  0  0  0  0  0  0
   43.3434   33.6884   40.7898 H   0  0  0  0  0  0  0  0  0  0  0  0
   44.8779   36.4302   43.6560 H   0  0  0  0  0  0  0  0  0  0  0  0
   48.9801   34.9572   39.3609 H   0  0  0  0  0  0  0  0  0  0  0  0
   48.2975   33.3164   39.0994 H   0  0  0  0  0  0  0  0  0  0  0  0
   47.2150   34.7499   39.0994 H   0  0  0  0  0  0  0  0  0  0  0  0
   48.0630   32.6159   42.4767 H   0  0  0  0  0  0  0  0  0  0  0  0
   47.2062   32.1310   40.9742 H   0  0  0  0  0  0  0  0  0  0  0  0
   48.9947   32.2982   40.9742 H   0  0  0  0  0  0  0  0  0  0  0  0
   48.6253   34.9729   42.8539 H   0  0  0  0  0  0  0  0  0  0  0  0
   49.9113   34.2862   41.7693 H   0  0  0  0  0  0  0  0  0  0  0  0
   49.4163   36.8310   42.0991 H   0  0  0  0  0  0  0  0  0  0  0  0
   50.1263   36.1452   40.7372 H   0  0  0  0  0  0  0  0  0  0  0  0
   43.9807   32.4293   37.9644 H   0  0  0  0  0  0  0  0  0  0  0  0
   44.3552   34.1624   38.2279 H   0  0  0  0  0  0  0  0  0  0  0  0
   45.6047   34.0914   36.3535 H   0  0  0  0  0  0  0  0  0  0  0  0
   46.7449   33.0251   37.2144 H   0  0  0  0  0  0  0  0  0  0  0  0
   42.6865   29.9322   35.7667 H   0  0  0  0  0  0  0  0  0  0  0  0
   45.9571   29.2444   32.4772 H   0  0  0  0  0  0  0  0  0  0  0  0
   48.1579   30.3240   31.9879 H   0  0  0  0  0  0  0  0  0  0  0  0
   48.9863   32.2161   33.4217 H   0  0  0  0  0  0  0  0  0  0  0  0
   47.5843   32.9616   35.3149 H   0  0  0  0  0  0  0  0  0  0  0  0
  1  6  2  0
  2  3  2  0
  2  1  1  0
  3  4  1  0
  4  5  2  0
  6  5  1  0
  7  9  1  0
  7  1  1  0
  7 10  1  0
  8  7  1  0
 11 10  1  0
 12  2  1  0
 13 12  1  0
 14 13  1  0
 15 16  2  0
 15 14  1  0
 17 16  1  0
 18 17  2  0
 19 18  1  0
 19 24  2  0
 20 19  1  0
 21 20  2  0
 21 22  1  0
 22 23  2  0
 23 24  1  0
 24 15  1  0
  3 25  1  0
  5 26  1  0
  8 27  1  0
  8 28  1  0
  8 29  1  0
  9 30  1  0
  9 31  1  0
  9 32  1  0
 10 33  1  0
 10 34  1  0
 11 35  1  0
 11 36  1  0
 13 37  1  0
 13 38  1  0
 14 39  1  0
 14 40  1  0
 17 41  1  0
 20 42  1  0
 21 43  1  0
 22 44  1  0
 23 45  1  0
M  ISO  8  25  14  26  14  27   8  28   8  29   8  30   8  31   8  32   8
M  ISO  8  33   8  34   8  35   5  36   5  37   8  38   8  39   8  40   8
M  ISO  5  41  14  42  14  43  14  44  14  45  14
M  END
>  <minimizedAffinity>  (1) 
-4.60973787

>  <minimizedRMSD>  (1) 
1.41880715

$$$$
