
     RDKit          3D

 38 41  0  0  1  0  0  0  0  0999 V2000
   45.9050   32.3280   46.4840 C   0  0  0  0  0  0  0  0  0  0  0  0
   45.9200   32.4940   45.0780 C   0  0  0  0  0  0  0  0  0  0  0  0
   45.7930   31.3430   44.2510 C   0  0  0  0  0  0  0  0  0  0  0  0
   45.6630   30.1370   44.8710 N   0  0  0  0  0  0  0  0  0  0  0  0
   45.6550   30.0350   46.2070 C   0  0  0  0  0  0  0  0  0  0  0  0
   45.7720   31.1000   47.0050 N   0  0  0  0  0  0  0  0  0  0  0  0
   46.0650   33.8650   44.5260 C   0  0  2  0  0  0  0  0  0  0  0  0
   45.0740   34.7780   45.2010 C   0  0  0  0  0  0  0  0  0  0  0  0
   44.5980   35.9540   44.4920 C   0  0  0  0  0  0  0  0  0  0  0  0
   45.0970   36.2150   43.1410 C   0  0  0  0  0  0  0  0  0  0  0  0
   46.1960   35.3560   42.6560 C   0  0  0  0  0  0  0  0  0  0  0  0
   45.9150   33.9260   43.0410 C   0  0  0  0  0  0  0  0  0  0  0  0
   45.5120   28.7220   46.8370 C   0  0  0  0  0  0  0  0  0  0  0  0
   46.4120   28.0880   47.7010 C   0  0  0  0  0  0  0  0  0  0  0  0
   45.8990   26.8940   48.0520 N   0  0  0  0  0  0  0  0  0  0  0  0
   44.7070   26.6980   47.4700 C   0  0  0  0  0  0  0  0  0  0  0  0
   43.7750   25.6800   47.4830 C   0  0  0  0  0  0  0  0  0  0  0  0
   42.6010   25.7610   46.7610 C   0  0  0  0  0  0  0  0  0  0  0  0
   42.3190   26.8760   45.9920 C   0  0  0  0  0  0  0  0  0  0  0  0
   43.2800   27.8730   46.0070 C   0  0  0  0  0  0  0  0  0  0  0  0
   44.4610   27.8330   46.7120 C   0  0  0  0  0  0  0  0  0  0  0  0
   46.0019   33.2018   47.1451 H   0  0  0  0  0  0  0  0  0  0  0  0
   45.7995   31.4239   43.1540 H   0  0  0  0  0  0  0  0  0  0  0  0
   47.0925   34.1971   44.7356 H   0  0  0  0  0  0  0  0  0  0  0  0
   44.7156   34.5571   46.2172 H   0  0  0  0  0  0  0  0  0  0  0  0
   43.8750   36.6364   44.9627 H   0  0  0  0  0  0  0  0  0  0  0  0
   44.2522   36.0973   42.4464 H   0  0  0  0  0  0  0  0  0  0  0  0
   45.5232   37.2282   43.1840 H   0  0  0  0  0  0  0  0  0  0  0  0
   47.1439   35.6798   43.1105 H   0  0  0  0  0  0  0  0  0  0  0  0
   46.2716   35.4358   41.5615 H   0  0  0  0  0  0  0  0  0  0  0  0
   44.8928   33.6446   42.7478 H   0  0  0  0  0  0  0  0  0  0  0  0
   46.6011   33.2296   42.5367 H   0  0  0  0  0  0  0  0  0  0  0  0
   47.3765   28.4967   48.0368 H   0  0  0  0  0  0  0  0  0  0  0  0
   46.3597   26.2220   48.6822 H   0  0  0  0  0  0  0  0  0  0  0  0
   43.9728   24.7805   48.0844 H   0  0  0  0  0  0  0  0  0  0  0  0
   41.8817   24.9296   46.7976 H   0  0  0  0  0  0  0  0  0  0  0  0
   41.3918   26.9648   45.4068 H   0  0  0  0  0  0  0  0  0  0  0  0
   43.0827   28.7722   45.4049 H   0  0  0  0  0  0  0  0  0  0  0  0
  1  6  2  0
  2  1  1  0
  3  4  1  0
  3  2  2  0
  4  5  2  0
  5 13  1  0
  5  6  1  0
  7  2  1  0
  7  8  1  0
  9  8  2  0
 10  9  1  0
 11 12  1  0
 11 10  1  0
 12  7  1  0
 13 14  2  0
 14 15  1  0
 16 17  2  0
 16 15  1  0
 18 17  1  0
 19 20  1  0
 19 18  2  0
 20 21  2  0
 21 13  1  0
 21 16  1  0
  1 22  1  0
  3 23  1  0
  7 24  1  6
  8 25  1  0
  9 26  1  0
 10 27  1  0
 10 28  1  0
 11 29  1  0
 11 30  1  0
 12 31  1  0
 12 32  1  0
 14 33  1  0
 15 34  1  0
 17 35  1  0
 18 36  1  0
 19 37  1  0
 20 38  1  0
M  ISO  8  22  14  23  14  24  13  25  13  26  13  27  13  28  13  29  13
M  ISO  8  30  13  31  13  32  13  33  14  34   9  35  14  36  14  37  14
M  ISO  1  38  14
M  END
>  <minimizedAffinity>  (1) 
-5.56903744

>  <minimizedRMSD>  (1) 
2.2536149

$$$$
