
     RDKit          3D

 34 36  0  0  1  0  0  0  0  0999 V2000
   45.6710   31.5390   44.2980 C   0  0  0  0  0  0  0  0  0  0  0  0
   46.0110   32.3120   45.4080 C   0  0  0  0  0  0  0  0  0  0  0  0
   45.6650   33.6680   45.3770 C   0  0  0  0  0  0  0  0  0  0  0  0
   45.0220   34.1740   44.2880 N   0  0  0  0  0  0  0  0  0  0  0  0
   44.7120   33.3880   43.2330 C   0  0  0  0  0  0  0  0  0  0  0  0
   45.0370   32.0730   43.2400 N   0  0  0  0  0  0  0  0  0  0  0  0
   44.0390   33.8830   42.0710 N   0  0  0  0  0  0  0  0  0  0  0  0
   43.2250   33.1030   41.3430 C   0  0  0  0  0  0  0  0  0  0  0  0
   42.5480   33.5220   40.2130 C   0  0  0  0  0  0  0  0  0  0  0  0
   42.7240   34.8420   39.8080 C   0  0  0  0  0  0  0  0  0  0  0  0
   42.1150   35.2300   38.7880 O   0  0  0  0  0  0  0  0  0  0  0  0
   43.5400   35.5980   40.5520 N   0  0  0  0  0  0  0  0  0  0  0  0
   44.1800   35.1550   41.6420 C   0  0  0  0  0  0  0  0  0  0  0  0
   44.9440   35.9280   42.3060 O   0  0  0  0  0  0  0  0  0  0  0  0
   46.7160   31.7000   46.5360 C   0  0  2  0  0  0  0  0  0  0  0  0
   45.8340   30.6530   47.1730 C   0  0  0  0  0  0  0  0  0  0  0  0
   46.1400   30.2590   48.5300 C   0  0  0  0  0  0  0  0  0  0  0  0
   47.2700   30.8730   49.2330 C   0  0  0  0  0  0  0  0  0  0  0  0
   48.1000   31.8320   48.4840 C   0  0  0  0  0  0  0  0  0  0  0  0
   47.2140   32.6590   47.5750 C   0  0  0  0  0  0  0  0  0  0  0  0
   45.9272   30.4693   44.2882 H   0  0  0  0  0  0  0  0  0  0  0  0
   45.9109   34.3212   46.2272 H   0  0  0  0  0  0  0  0  0  0  0  0
   43.0874   32.0609   41.6671 H   0  0  0  0  0  0  0  0  0  0  0  0
   41.8937   32.8369   39.6540 H   0  0  0  0  0  0  0  0  0  0  0  0
   43.6843   36.5780   40.2699 H   0  0  0  0  0  0  0  0  0  0  0  0
   47.6240   31.2490   46.1094 H   0  0  0  0  0  0  0  0  0  0  0  0
   44.9907   30.2070   46.6254 H   0  0  0  0  0  0  0  0  0  0  0  0
   45.5252   29.4990   49.0344 H   0  0  0  0  0  0  0  0  0  0  0  0
   46.8648   31.4020   50.1082 H   0  0  0  0  0  0  0  0  0  0  0  0
   47.9464   30.0355   49.4591 H   0  0  0  0  0  0  0  0  0  0  0  0
   48.6228   32.4946   49.1894 H   0  0  0  0  0  0  0  0  0  0  0  0
   48.8394   31.2858   47.8800 H   0  0  0  0  0  0  0  0  0  0  0  0
   47.7912   33.4700   47.1068 H   0  0  0  0  0  0  0  0  0  0  0  0
   46.3890   33.1348   48.1255 H   0  0  0  0  0  0  0  0  0  0  0  0
  1  2  2  0
  2 15  1  0
  3  2  1  0
  4  3  2  0
  5  6  2  0
  5  4  1  0
  6  1  1  0
  7  5  1  0
  8  7  1  0
  9  8  2  0
 10  9  1  0
 10 12  1  0
 11 10  2  0
 12 13  1  0
 13  7  1  0
 13 14  2  0
 15 16  1  0
 15 20  1  0
 16 17  2  0
 17 18  1  0
 19 18  1  0
 20 19  1  0
  1 21  1  0
  3 22  1  0
  8 23  1  0
  9 24  1  0
 12 25  1  0
 15 26  1  6
 16 27  1  0
 17 28  1  0
 18 29  1  0
 18 30  1  0
 19 31  1  0
 19 32  1  0
 20 33  1  0
 20 34  1  0
M  ISO  8  21  14  22  14  23  14  24  14  25   9  26  13  27  13  28  13
M  ISO  6  29  13  30  13  31  13  32  13  33  13  34  13
M  END
>  <minimizedAffinity>  (1) 
-5.37501955

>  <minimizedRMSD>  (1) 
8.24276352

$$$$
