
     RDKit          3D

 39 41  0  0  1  0  0  0  0  0999 V2000
   45.8270   32.5190   46.5640 C   0  0  0  0  0  0  0  0  0  0  0  0
   46.1550   32.6440   45.2140 C   0  0  0  0  0  0  0  0  0  0  0  0
   46.5180   31.4760   44.5310 C   0  0  0  0  0  0  0  0  0  0  0  0
   46.5400   30.2890   45.1870 N   0  0  0  0  0  0  0  0  0  0  0  0
   46.2160   30.2090   46.4970 C   0  0  0  0  0  0  0  0  0  0  0  0
   45.8600   31.3190   47.1850 N   0  0  0  0  0  0  0  0  0  0  0  0
   46.2420   28.9630   47.1760 N   0  0  0  0  0  0  0  0  0  0  0  0
   45.1560   28.5460   48.0720 C   0  0  0  0  0  0  0  0  0  0  0  0
   44.5740   27.2990   47.4460 C   0  0  0  0  0  0  0  0  0  0  0  0
   45.6260   26.2410   47.2350 C   0  0  0  0  0  0  0  0  0  0  0  0
   47.0090   26.7050   47.6220 C   0  0  0  0  0  0  0  0  0  0  0  0
   47.3470   28.0460   47.0110 C   0  0  0  0  0  0  0  0  0  0  0  0
   46.1210   33.9710   44.5930 C   0  0  2  0  0  0  0  0  0  0  0  0
   45.0420   34.8080   45.2380 C   0  0  0  0  0  0  0  0  0  0  0  0
   44.5410   35.9400   44.4900 C   0  0  0  0  0  0  0  0  0  0  0  0
   45.0770   36.2380   43.1650 C   0  0  0  0  0  0  0  0  0  0  0  0
   46.1680   35.3890   42.6580 C   0  0  0  0  0  0  0  0  0  0  0  0
   45.9590   33.9620   43.1040 C   0  0  0  0  0  0  0  0  0  0  0  0
   45.5360   33.4138   47.1338 H   0  0  0  0  0  0  0  0  0  0  0  0
   46.7847   31.5214   43.4648 H   0  0  0  0  0  0  0  0  0  0  0  0
   45.5486   28.3253   49.0756 H   0  0  0  0  0  0  0  0  0  0  0  0
   44.3988   29.3350   48.1911 H   0  0  0  0  0  0  0  0  0  0  0  0
   43.7927   26.8983   48.1086 H   0  0  0  0  0  0  0  0  0  0  0  0
   44.1566   27.5694   46.4649 H   0  0  0  0  0  0  0  0  0  0  0  0
   45.3672   25.3620   47.8436 H   0  0  0  0  0  0  0  0  0  0  0  0
   45.6452   26.0030   46.1612 H   0  0  0  0  0  0  0  0  0  0  0  0
   47.0616   26.7902   48.7174 H   0  0  0  0  0  0  0  0  0  0  0  0
   47.7331   25.9674   47.2456 H   0  0  0  0  0  0  0  0  0  0  0  0
   47.5532   27.9149   45.9385 H   0  0  0  0  0  0  0  0  0  0  0  0
   48.2331   28.4574   47.5165 H   0  0  0  0  0  0  0  0  0  0  0  0
   47.1121   34.4139   44.7706 H   0  0  0  0  0  0  0  0  0  0  0  0
   44.6523   34.5661   46.2378 H   0  0  0  0  0  0  0  0  0  0  0  0
   43.7546   36.5776   44.9202 H   0  0  0  0  0  0  0  0  0  0  0  0
   44.2443   36.1636   42.4501 H   0  0  0  0  0  0  0  0  0  0  0  0
   45.5278   37.2362   43.2671 H   0  0  0  0  0  0  0  0  0  0  0  0
   47.1280   35.7565   43.0495 H   0  0  0  0  0  0  0  0  0  0  0  0
   46.1753   35.4272   41.5587 H   0  0  0  0  0  0  0  0  0  0  0  0
   44.9501   33.6193   42.8307 H   0  0  0  0  0  0  0  0  0  0  0  0
   46.6749   33.2790   42.6234 H   0  0  0  0  0  0  0  0  0  0  0  0
  1  6  2  0
  2  1  1  0
  3  4  1  0
  3  2  2  0
  4  5  2  0
  5  7  1  0
  5  6  1  0
  7  8  1  0
  9  8  1  0
 10  9  1  0
 10 11  1  0
 12  7  1  0
 12 11  1  0
 13  2  1  0
 13 14  1  0
 15 14  2  0
 16 15  1  0
 17 18  1  0
 17 16  1  0
 18 13  1  0
  1 19  1  0
  3 20  1  0
  8 21  1  0
  8 22  1  0
  9 23  1  0
  9 24  1  0
 10 25  1  0
 10 26  1  0
 11 27  1  0
 11 28  1  0
 12 29  1  0
 12 30  1  0
 13 31  1  6
 14 32  1  0
 15 33  1  0
 16 34  1  0
 16 35  1  0
 17 36  1  0
 17 37  1  0
 18 38  1  0
 18 39  1  0
M  ISO  8  19  14  20  14  21  13  22  13  23  13  24  13  25  13  26  13
M  ISO  8  27  13  28  13  29  13  30  13  31  13  32  13  33  13  34  13
M  ISO  5  35  13  36  13  37  13  38  13  39  13
M  END
>  <minimizedAffinity>  (1) 
-4.77295542

>  <minimizedRMSD>  (1) 
1.66088784

$$$$
