
     RDKit          3D

 27 28  0  0  1  0  0  0  0  0999 V2000
   45.9750   34.0230   45.1200 C   0  0  2  0  0  0  0  0  0  0  0  0
   44.8670   35.0220   45.3610 C   0  0  0  0  0  0  0  0  0  0  0  0
   44.5220   35.9560   44.3020 C   0  0  0  0  0  0  0  0  0  0  0  0
   45.2610   35.8820   43.0440 C   0  0  0  0  0  0  0  0  0  0  0  0
   46.3970   34.9490   42.9610 C   0  0  0  0  0  0  0  0  0  0  0  0
   46.0450   33.6650   43.6700 C   0  0  0  0  0  0  0  0  0  0  0  0
   45.2850   33.0750   47.3160 C   0  0  0  0  0  0  0  0  0  0  0  0
   45.7750   32.8500   46.0080 C   0  0  0  0  0  0  0  0  0  0  0  0
   46.0590   31.5130   45.6130 C   0  0  0  0  0  0  0  0  0  0  0  0
   45.8440   30.5280   46.5160 N   0  0  0  0  0  0  0  0  0  0  0  0
   45.3750   30.7890   47.7570 C   0  0  0  0  0  0  0  0  0  0  0  0
   45.0970   32.0540   48.1520 N   0  0  0  0  0  0  0  0  0  0  0  0
   45.1860   29.6090   48.6420 C   0  0  0  0  0  0  0  0  0  0  0  0
   46.9518   34.4613   45.3725 H   0  0  0  0  0  0  0  0  0  0  0  0
   44.3308   35.0420   46.3213 H   0  0  0  0  0  0  0  0  0  0  0  0
   43.7244   36.7000   44.4443 H   0  0  0  0  0  0  0  0  0  0  0  0
   44.5443   35.5946   42.2606 H   0  0  0  0  0  0  0  0  0  0  0  0
   45.7159   36.8775   42.9349 H   0  0  0  0  0  0  0  0  0  0  0  0
   46.6201   34.7357   41.9052 H   0  0  0  0  0  0  0  0  0  0  0  0
   47.2791   35.4015   43.4377 H   0  0  0  0  0  0  0  0  0  0  0  0
   45.0742   33.2847   43.3195 H   0  0  0  0  0  0  0  0  0  0  0  0
   46.7844   32.8736   43.4776 H   0  0  0  0  0  0  0  0  0  0  0  0
   45.0576   34.0996   47.6453 H   0  0  0  0  0  0  0  0  0  0  0  0
   46.4409   31.2872   44.6064 H   0  0  0  0  0  0  0  0  0  0  0  0
   45.2370   29.9275   49.6936 H   0  0  0  0  0  0  0  0  0  0  0  0
   44.2037   29.1554   48.4435 H   0  0  0  0  0  0  0  0  0  0  0  0
   45.9774   28.8713   48.4435 H   0  0  0  0  0  0  0  0  0  0  0  0
  1  2  1  0
  1  8  1  0
  3  2  2  0
  4  3  1  0
  5  4  1  0
  5  6  1  0
  6  1  1  0
  7 12  2  0
  8  7  1  0
  9  8  2  0
  9 10  1  0
 10 11  2  0
 11 12  1  0
 11 13  1  0
  1 14  1  1
  2 15  1  0
  3 16  1  0
  4 17  1  0
  4 18  1  0
  5 19  1  0
  5 20  1  0
  6 21  1  0
  6 22  1  0
  7 23  1  0
  9 24  1  0
 13 25  1  0
 13 26  1  0
 13 27  1  0
M  ISO  8  14  13  15  13  16  13  17  13  18  13  19  13  20  13  21  13
M  ISO  6  22  13  23  14  24  14  25   8  26   8  27   8
M  END
>  <minimizedAffinity>  (1) 
-4.35472822

>  <minimizedRMSD>  (1) 
0.203593463

$$$$
