
     RDKit          3D

 41 45  0  0  1  0  0  0  0  0999 V2000
   46.0850   34.1120   44.4880 C   0  0  0  0  0  0  0  0  0  0  0  0
   47.0880   33.7070   43.6250 C   0  0  0  0  0  0  0  0  0  0  0  0
   47.6910   32.4260   43.8260 C   0  0  0  0  0  0  0  0  0  0  0  0
   47.2520   31.6650   44.8560 N   0  0  0  0  0  0  0  0  0  0  0  0
   46.2550   32.1030   45.6890 C   0  0  0  0  0  0  0  0  0  0  0  0
   45.6930   33.3020   45.4980 N   0  0  0  0  0  0  0  0  0  0  0  0
   45.7880   31.2350   46.8110 C   0  0  0  0  0  0  0  0  0  0  0  0
   45.7650   31.4880   48.2720 C   0  0  0  0  0  0  0  0  0  0  0  0
   45.1070   29.8610   48.7620 S   0  0  0  0  0  0  0  0  0  0  0  0
   44.9820   29.1950   47.1370 C   0  0  0  0  0  0  0  0  0  0  0  0
   45.4180   30.1370   46.2000 N   0  0  0  0  0  0  0  0  0  0  0  0
   44.4700   27.8050   46.8990 N   0  0  0  0  0  0  0  0  0  0  0  0
   43.3510   27.5590   46.1930 C   0  0  0  0  0  0  0  0  0  0  0  0
   43.2050   26.2110   46.1890 N   0  0  0  0  0  0  0  0  0  0  0  0
   44.2250   25.6620   46.8830 C   0  0  0  0  0  0  0  0  0  0  0  0
   44.6430   24.3780   47.2380 C   0  0  0  0  0  0  0  0  0  0  0  0
   45.7570   24.1930   47.9690 N   0  0  0  0  0  0  0  0  0  0  0  0
   46.5210   25.2240   48.3940 C   0  0  0  0  0  0  0  0  0  0  0  0
   46.1470   26.4780   48.0700 N   0  0  0  0  0  0  0  0  0  0  0  0
   45.0440   26.6910   47.3430 C   0  0  0  0  0  0  0  0  0  0  0  0
   47.5100   34.6150   42.5510 C   0  0  2  0  0  0  0  0  0  0  0  0
   47.0600   34.0260   41.2130 C   0  0  0  0  0  0  0  0  0  0  0  0
   47.7650   34.4730   40.0300 C   0  0  0  0  0  0  0  0  0  0  0  0
   48.8520   35.4320   40.1320 C   0  0  0  0  0  0  0  0  0  0  0  0
   49.1590   35.9840   41.4630 C   0  0  0  0  0  0  0  0  0  0  0  0
   48.9480   34.9620   42.5330 C   0  0  0  0  0  0  0  0  0  0  0  0
   45.6062   35.0931   44.3527 H   0  0  0  0  0  0  0  0  0  0  0  0
   48.4908   32.0682   43.1609 H   0  0  0  0  0  0  0  0  0  0  0  0
   46.0513   32.3689   48.8653 H   0  0  0  0  0  0  0  0  0  0  0  0
   42.6908   28.2991   45.7172 H   0  0  0  0  0  0  0  0  0  0  0  0
   44.0539   23.5067   46.9159 H   0  0  0  0  0  0  0  0  0  0  0  0
   47.4274   25.0438   48.9907 H   0  0  0  0  0  0  0  0  0  0  0  0
   47.0199   35.5802   42.7462 H   0  0  0  0  0  0  0  0  0  0  0  0
   46.2388   33.2966   41.1524 H   0  0  0  0  0  0  0  0  0  0  0  0
   47.4747   34.0825   39.0435 H   0  0  0  0  0  0  0  0  0  0  0  0
   49.7625   34.9360   39.7646 H   0  0  0  0  0  0  0  0  0  0  0  0
   48.5131   36.2981   39.5446 H   0  0  0  0  0  0  0  0  0  0  0  0
   50.2087   36.3122   41.4821 H   0  0  0  0  0  0  0  0  0  0  0  0
   48.4844   36.8319   41.6528 H   0  0  0  0  0  0  0  0  0  0  0  0
   49.5466   34.0648   42.3166 H   0  0  0  0  0  0  0  0  0  0  0  0
   49.2592   35.3596   43.5103 H   0  0  0  0  0  0  0  0  0  0  0  0
  1  6  2  0
  2  3  2  0
  2  1  1  0
  3  4  1  0
  4  5  2  0
  5  7  1  0
  6  5  1  0
  7  8  2  0
  8  9  1  0
 10  9  1  0
 11  7  1  0
 11 10  2  0
 12 10  1  0
 12 20  1  0
 13 12  1  0
 14 13  2  0
 14 15  1  0
 15 16  2  0
 15 20  1  0
 16 17  1  0
 17 18  2  0
 19 18  1  0
 20 19  2  0
 21  2  1  0
 22 21  1  0
 23 24  1  0
 23 22  2  0
 24 25  1  0
 25 26  1  0
 26 21  1  0
  1 27  1  0
  3 28  1  0
  8 29  1  0
 13 30  1  0
 16 31  1  0
 18 32  1  0
 21 33  1  1
 22 34  1  0
 23 35  1  0
 24 36  1  0
 24 37  1  0
 25 38  1  0
 25 39  1  0
 26 40  1  0
 26 41  1  0
M  ISO  8  27  14  28  14  29  14  30  14  31  14  32  14  33  13  34  13
M  ISO  7  35  13  36  13  37  13  38  13  39  13  40  13  41  13
M  END
>  <minimizedAffinity>  (1) 
-6.13510132

>  <minimizedRMSD>  (1) 
3.42426825

$$$$
