
     RDKit          3D

 40 43  0  0  1  0  0  0  0  0999 V2000
   46.1060   34.3200   44.5140 C   0  0  0  0  0  0  0  0  0  0  0  0
   47.0680   33.8350   43.6450 C   0  0  0  0  0  0  0  0  0  0  0  0
   47.6700   32.5640   43.9040 C   0  0  0  0  0  0  0  0  0  0  0  0
   47.2640   31.8870   45.0030 N   0  0  0  0  0  0  0  0  0  0  0  0
   46.3260   32.3790   45.8350 C   0  0  0  0  0  0  0  0  0  0  0  0
   45.7500   33.5870   45.5940 N   0  0  0  0  0  0  0  0  0  0  0  0
   47.4640   34.6590   42.4860 C   0  0  2  0  0  0  0  0  0  0  0  0
   46.9820   33.9690   41.2120 C   0  0  0  0  0  0  0  0  0  0  0  0
   47.6380   34.3280   39.9870 C   0  0  0  0  0  0  0  0  0  0  0  0
   48.7200   35.3110   39.9690 C   0  0  0  0  0  0  0  0  0  0  0  0
   49.0710   35.9420   41.2530 C   0  0  0  0  0  0  0  0  0  0  0  0
   48.9040   34.9890   42.3960 C   0  0  0  0  0  0  0  0  0  0  0  0
   45.8870   31.6140   47.0420 C   0  0  0  0  0  0  0  0  0  0  0  0
   45.8430   31.9760   48.4660 C   0  0  0  0  0  0  0  0  0  0  0  0
   45.1590   30.4200   49.1010 S   0  0  0  0  0  0  0  0  0  0  0  0
   45.0510   29.6150   47.5380 C   0  0  0  0  0  0  0  0  0  0  0  0
   45.5070   30.4610   46.5330 N   0  0  0  0  0  0  0  0  0  0  0  0
   44.5230   28.1930   47.3830 C   0  0  0  0  0  0  0  0  0  0  0  0
   44.7710   27.3620   48.4220 C   0  0  0  0  0  0  0  0  0  0  0  0
   44.2670   26.0760   48.2300 C   0  0  0  0  0  0  0  0  0  0  0  0
   43.5800   25.7180   47.0650 C   0  0  0  0  0  0  0  0  0  0  0  0
   43.3830   26.6620   46.0580 C   0  0  0  0  0  0  0  0  0  0  0  0
   43.8650   27.9620   46.1980 C   0  0  0  0  0  0  0  0  0  0  0  0
   45.6336   35.2958   44.3276 H   0  0  0  0  0  0  0  0  0  0  0  0
   48.4371   32.1507   43.2326 H   0  0  0  0  0  0  0  0  0  0  0  0
   46.9804   35.6375   42.6228 H   0  0  0  0  0  0  0  0  0  0  0  0
   46.1680   33.2295   41.2322 H   0  0  0  0  0  0  0  0  0  0  0  0
   47.3212   33.8554   39.0455 H   0  0  0  0  0  0  0  0  0  0  0  0
   49.6208   34.8062   39.5900 H   0  0  0  0  0  0  0  0  0  0  0  0
   48.3493   36.1327   39.3385 H   0  0  0  0  0  0  0  0  0  0  0  0
   50.1192   36.2732   41.2139 H   0  0  0  0  0  0  0  0  0  0  0  0
   48.3965   36.7959   41.4140 H   0  0  0  0  0  0  0  0  0  0  0  0
   49.4890   34.0755   42.2132 H   0  0  0  0  0  0  0  0  0  0  0  0
   49.2601   35.4394   43.3343 H   0  0  0  0  0  0  0  0  0  0  0  0
   46.1339   32.9014   48.9847 H   0  0  0  0  0  0  0  0  0  0  0  0
   45.3154   27.6700   49.3269 H   0  0  0  0  0  0  0  0  0  0  0  0
   44.4138   25.3216   49.0170 H   0  0  0  0  0  0  0  0  0  0  0  0
   43.1962   24.6943   46.9438 H   0  0  0  0  0  0  0  0  0  0  0  0
   42.8416   26.3777   45.1437 H   0  0  0  0  0  0  0  0  0  0  0  0
   43.7308   28.7358   45.4278 H   0  0  0  0  0  0  0  0  0  0  0  0
  1  6  2  0
  2  3  2  0
  2  1  1  0
  3  4  1  0
  4  5  2  0
  5 13  1  0
  6  5  1  0
  7  2  1  0
  8  7  1  0
  9  8  2  0
 10  9  1  0
 10 11  1  0
 11 12  1  0
 12  7  1  0
 13 14  2  0
 14 15  1  0
 16 15  1  0
 17 13  1  0
 17 16  2  0
 18 16  1  0
 18 19  2  0
 20 19  1  0
 21 20  2  0
 22 23  2  0
 22 21  1  0
 23 18  1  0
  1 24  1  0
  3 25  1  0
  7 26  1  1
  8 27  1  0
  9 28  1  0
 10 29  1  0
 10 30  1  0
 11 31  1  0
 11 32  1  0
 12 33  1  0
 12 34  1  0
 14 35  1  0
 19 36  1  0
 20 37  1  0
 21 38  1  0
 22 39  1  0
 23 40  1  0
M  ISO  8  24  14  25  14  26  13  27  13  28  13  29  13  30  13  31  13
M  ISO  8  32  13  33  13  34  13  35  14  36  14  37  14  38  14  39  14
M  ISO  1  40  14
M  END
>  <minimizedAffinity>  (1) 
-6.15728569

>  <minimizedRMSD>  (1) 
3.38707638

$$$$
