
     RDKit          3D

 44 47  0  0  1  0  0  0  0  0999 V2000
   46.0520   34.2100   44.6130 C   0  0  0  0  0  0  0  0  0  0  0  0
   47.0260   33.7770   43.7210 C   0  0  0  0  0  0  0  0  0  0  0  0
   47.6230   32.4990   43.9580 C   0  0  0  0  0  0  0  0  0  0  0  0
   47.2110   31.7840   45.0300 N   0  0  0  0  0  0  0  0  0  0  0  0
   46.2440   32.2600   45.8790 C   0  0  0  0  0  0  0  0  0  0  0  0
   45.6800   33.4530   45.6680 N   0  0  0  0  0  0  0  0  0  0  0  0
   47.4350   34.6230   42.6030 C   0  0  2  0  0  0  0  0  0  0  0  0
   46.9240   33.9790   41.3080 C   0  0  0  0  0  0  0  0  0  0  0  0
   47.5880   34.3570   40.0850 C   0  0  0  0  0  0  0  0  0  0  0  0
   48.6960   35.3040   40.0940 C   0  0  0  0  0  0  0  0  0  0  0  0
   49.0550   35.9110   41.3970 C   0  0  0  0  0  0  0  0  0  0  0  0
   48.8840   34.9080   42.4980 C   0  0  0  0  0  0  0  0  0  0  0  0
   45.8170   31.4320   47.0420 C   0  0  0  0  0  0  0  0  0  0  0  0
   45.5000   31.7940   48.4300 C   0  0  0  0  0  0  0  0  0  0  0  0
   45.1640   30.1250   49.0590 S   0  0  0  0  0  0  0  0  0  0  0  0
   45.4600   29.2850   47.5440 C   0  0  0  0  0  0  0  0  0  0  0  0
   45.8090   30.2110   46.5600 N   0  0  0  0  0  0  0  0  0  0  0  0
   45.3920   27.8210   47.2510 N   0  0  0  0  0  0  0  0  0  0  0  0
   46.4430   26.8430   47.2610 C   0  0  0  0  0  0  0  0  0  0  0  0
   46.2450   26.0260   48.5240 C   0  0  0  0  0  0  0  0  0  0  0  0
   44.8820   26.1370   49.0110 N   0  0  0  0  0  0  0  0  0  0  0  0
   43.8970   26.1200   47.9470 C   0  0  0  0  0  0  0  0  0  0  0  0
   44.1170   27.2120   46.9200 C   0  0  0  0  0  0  0  0  0  0  0  0
   45.5746   35.1886   44.4567 H   0  0  0  0  0  0  0  0  0  0  0  0
   48.3990   32.1067   43.2843 H   0  0  0  0  0  0  0  0  0  0  0  0
   46.9873   35.6109   42.7863 H   0  0  0  0  0  0  0  0  0  0  0  0
   46.0897   33.2621   41.3120 H   0  0  0  0  0  0  0  0  0  0  0  0
   47.2532   33.9241   39.1308 H   0  0  0  0  0  0  0  0  0  0  0  0
   49.5853   34.7770   39.7178 H   0  0  0  0  0  0  0  0  0  0  0  0
   48.3560   36.1454   39.4723 H   0  0  0  0  0  0  0  0  0  0  0  0
   50.1033   36.2430   41.3671 H   0  0  0  0  0  0  0  0  0  0  0  0
   48.3952   36.7703   41.5875 H   0  0  0  0  0  0  0  0  0  0  0  0
   49.4339   33.9861   42.2578 H   0  0  0  0  0  0  0  0  0  0  0  0
   49.2772   35.2978   43.4485 H   0  0  0  0  0  0  0  0  0  0  0  0
   45.4743   32.7724   48.9320 H   0  0  0  0  0  0  0  0  0  0  0  0
   46.3720   26.1971   46.3734 H   0  0  0  0  0  0  0  0  0  0  0  0
   47.4347   27.3184   47.2411 H   0  0  0  0  0  0  0  0  0  0  0  0
   46.4638   24.9701   48.3066 H   0  0  0  0  0  0  0  0  0  0  0  0
   46.9247   26.4107   49.2986 H   0  0  0  0  0  0  0  0  0  0  0  0
   44.6945   25.3468   49.6445 H   0  0  0  0  0  0  0  0  0  0  0  0
   43.9465   25.1456   47.4389 H   0  0  0  0  0  0  0  0  0  0  0  0
   42.9128   26.2936   48.4066 H   0  0  0  0  0  0  0  0  0  0  0  0
   43.3108   27.9582   46.9767 H   0  0  0  0  0  0  0  0  0  0  0  0
   44.1165   26.8088   45.8966 H   0  0  0  0  0  0  0  0  0  0  0  0
  1  6  2  0
  2  3  2  0
  2  1  1  0
  3  4  1  0
  4  5  2  0
  5 13  1  0
  6  5  1  0
  7  2  1  0
  8  7  1  0
  9 10  1  0
  9  8  2  0
 10 11  1  0
 11 12  1  0
 12  7  1  0
 13 14  2  0
 14 15  1  0
 16 15  1  0
 17 13  1  0
 17 16  2  0
 18 19  1  0
 18 16  1  0
 19 20  1  0
 20 21  1  0
 22 21  1  0
 23 18  1  0
 23 22  1  0
  1 24  1  0
  3 25  1  0
  7 26  1  1
  8 27  1  0
  9 28  1  0
 10 29  1  0
 10 30  1  0
 11 31  1  0
 11 32  1  0
 12 33  1  0
 12 34  1  0
 14 35  1  0
 19 36  1  0
 19 37  1  0
 20 38  1  0
 20 39  1  0
 21 40  1  0
 22 41  1  0
 22 42  1  0
 23 43  1  0
 23 44  1  0
M  ISO  8  24  14  25  14  26  13  27  13  28  13  29  13  30  13  31  13
M  ISO  8  32  13  33  13  34  13  35  14  36  13  37  13  38  13  39  13
M  ISO  5  40   5  41  13  42  13  43  13  44  13
M  END
>  <minimizedAffinity>  (1) 
-6.04170322

>  <minimizedRMSD>  (1) 
3.41136169

$$$$
