
     RDKit          3D

 40 43  0  0  1  0  0  0  0  0999 V2000
   47.6700   32.8760   43.5140 C   0  0  0  0  0  0  0  0  0  0  0  0
   46.9080   33.9200   43.0210 C   0  0  0  0  0  0  0  0  0  0  0  0
   45.9210   34.5080   43.8730 C   0  0  0  0  0  0  0  0  0  0  0  0
   45.7760   34.0160   45.1260 N   0  0  0  0  0  0  0  0  0  0  0  0
   46.5510   32.9830   45.5720 C   0  0  0  0  0  0  0  0  0  0  0  0
   47.4750   32.4320   44.7740 N   0  0  0  0  0  0  0  0  0  0  0  0
   47.1220   34.3760   41.6400 C   0  0  2  0  0  0  0  0  0  0  0  0
   46.4260   33.3960   40.6930 C   0  0  0  0  0  0  0  0  0  0  0  0
   46.8820   33.3740   39.3280 C   0  0  0  0  0  0  0  0  0  0  0  0
   47.9540   34.2470   38.8820 C   0  0  0  0  0  0  0  0  0  0  0  0
   48.5270   35.1790   39.8700 C   0  0  0  0  0  0  0  0  0  0  0  0
   48.5310   34.5910   41.2440 C   0  0  0  0  0  0  0  0  0  0  0  0
   46.3670   32.4710   46.9640 C   0  0  0  0  0  0  0  0  0  0  0  0
   45.1580   32.2830   47.7780 C   0  0  0  0  0  0  0  0  0  0  0  0
   45.9570   31.6420   49.2740 S   0  0  0  0  0  0  0  0  0  0  0  0
   47.6060   31.7140   48.6520 C   0  0  0  0  0  0  0  0  0  0  0  0
   47.5980   32.2070   47.3440 N   0  0  0  0  0  0  0  0  0  0  0  0
   48.8810   31.3010   49.4160 C   0  0  0  0  0  0  0  0  0  0  0  0
   48.9490   30.0050   49.8650 C   0  0  0  0  0  0  0  0  0  0  0  0
   50.1250   29.6790   50.5530 C   0  0  0  0  0  0  0  0  0  0  0  0
   51.1030   30.6420   50.7300 C   0  0  0  0  0  0  0  0  0  0  0  0
   50.9570   31.9340   50.2440 C   0  0  0  0  0  0  0  0  0  0  0  0
   49.7950   32.2950   49.5520 C   0  0  0  0  0  0  0  0  0  0  0  0
   48.4357   32.4070   42.8786 H   0  0  0  0  0  0  0  0  0  0  0  0
   45.2947   35.3400   43.5187 H   0  0  0  0  0  0  0  0  0  0  0  0
   46.6822   35.3821   41.5739 H   0  0  0  0  0  0  0  0  0  0  0  0
   45.6148   32.7388   41.0394 H   0  0  0  0  0  0  0  0  0  0  0  0
   46.4113   32.6852   38.6111 H   0  0  0  0  0  0  0  0  0  0  0  0
   48.7718   33.6065   38.5200 H   0  0  0  0  0  0  0  0  0  0  0  0
   47.4916   34.8934   38.1216 H   0  0  0  0  0  0  0  0  0  0  0  0
   49.5614   35.4151   39.5798 H   0  0  0  0  0  0  0  0  0  0  0  0
   47.9063   36.0870   39.8864 H   0  0  0  0  0  0  0  0  0  0  0  0
   49.0706   33.6324   41.2407 H   0  0  0  0  0  0  0  0  0  0  0  0
   49.0339   35.2656   41.9525 H   0  0  0  0  0  0  0  0  0  0  0  0
   44.0985   32.4722   47.5506 H   0  0  0  0  0  0  0  0  0  0  0  0
   48.1410   29.2777   49.6971 H   0  0  0  0  0  0  0  0  0  0  0  0
   50.2702   28.6635   50.9502 H   0  0  0  0  0  0  0  0  0  0  0  0
   52.0227   30.3759   51.2715 H   0  0  0  0  0  0  0  0  0  0  0  0
   51.7548   32.6745   50.4027 H   0  0  0  0  0  0  0  0  0  0  0  0
   49.6350   33.3062   49.1495 H   0  0  0  0  0  0  0  0  0  0  0  0
  1  6  2  0
  2  1  1  0
  2  3  2  0
  3  4  1  0
  4  5  2  0
  5 13  1  0
  6  5  1  0
  7  2  1  0
  8  7  1  0
  9  8  2  0
 10  9  1  0
 10 11  1  0
 11 12  1  0
 12  7  1  0
 13 17  1  0
 13 14  2  0
 14 15  1  0
 16 15  1  0
 16 18  1  0
 17 16  2  0
 18 23  1  0
 18 19  2  0
 19 20  1  0
 20 21  2  0
 22 21  1  0
 23 22  2  0
  1 24  1  0
  3 25  1  0
  7 26  1  1
  8 27  1  0
  9 28  1  0
 10 29  1  0
 10 30  1  0
 11 31  1  0
 11 32  1  0
 12 33  1  0
 12 34  1  0
 14 35  1  0
 19 36  1  0
 20 37  1  0
 21 38  1  0
 22 39  1  0
 23 40  1  0
M  ISO  8  24  14  25  14  26  13  27  13  28  13  29  13  30  13  31  13
M  ISO  8  32  13  33  13  34  13  35  14  36  14  37  14  38  14  39  14
M  ISO  1  40  14
M  END
>  <minimizedAffinity>  (1) 
-5.71787691

>  <minimizedRMSD>  (1) 
6.42267895

$$$$
