
     RDKit          3D

 42 45  0  0  1  0  0  0  0  0999 V2000
   45.8590   32.6550   45.0280 C   0  0  2  0  0  0  0  0  0  0  0  0
   44.7060   31.5030   41.0810 C   0  0  0  0  0  0  0  0  0  0  0  0
   44.5290   32.1410   39.8580 C   0  0  0  0  0  0  0  0  0  0  0  0
   44.4440   33.5400   39.8440 C   0  0  0  0  0  0  0  0  0  0  0  0
   44.5350   34.2070   41.0160 N   0  0  0  0  0  0  0  0  0  0  0  0
   44.7090   33.5660   42.2110 C   0  0  0  0  0  0  0  0  0  0  0  0
   44.7900   32.2270   42.2180 N   0  0  0  0  0  0  0  0  0  0  0  0
   44.7980   34.2390   43.4440 N   0  0  0  0  0  0  0  0  0  0  0  0
   44.3150   35.5160   43.4560 C   0  0  0  0  0  0  0  0  0  0  0  0
   44.5050   35.9580   44.7830 C   0  0  0  0  0  0  0  0  0  0  0  0
   45.0840   34.9520   45.5030 N   0  0  0  0  0  0  0  0  0  0  0  0
   45.2510   33.9200   44.6620 C   0  0  0  0  0  0  0  0  0  0  0  0
   45.6600   32.4970   46.5650 C   0  0  0  0  0  0  0  0  0  0  0  0
   47.3350   32.6450   44.7800 C   0  0  0  0  0  0  0  0  0  0  0  0
   47.7550   31.6510   43.8580 N   0  0  0  0  0  0  0  0  0  0  0  0
   47.6750   30.3320   44.0570 N   0  0  0  0  0  0  0  0  0  0  0  0
   48.1810   29.7180   42.9540 C   0  0  0  0  0  0  0  0  0  0  0  0
   48.5870   30.6720   42.0360 C   0  0  0  0  0  0  0  0  0  0  0  0
   48.3050   31.8920   42.6370 C   0  0  0  0  0  0  0  0  0  0  0  0
   48.5450   33.2230   42.0790 C   0  0  0  0  0  0  0  0  0  0  0  0
   49.4050   34.0740   42.7390 C   0  0  0  0  0  0  0  0  0  0  0  0
   49.6430   35.3420   42.2200 C   0  0  0  0  0  0  0  0  0  0  0  0
   49.0330   35.7760   41.0470 C   0  0  0  0  0  0  0  0  0  0  0  0
   48.1840   34.8770   40.4340 C   0  0  0  0  0  0  0  0  0  0  0  0
   47.9480   33.6360   40.9380 N   0  0  0  0  0  0  0  0  0  0  0  0
   45.3983   31.8537   44.4317 H   0  0  0  0  0  0  0  0  0  0  0  0
   44.7778   30.4061   41.1224 H   0  0  0  0  0  0  0  0  0  0  0  0
   44.4575   31.5623   38.9252 H   0  0  0  0  0  0  0  0  0  0  0  0
   44.3060   34.0842   38.8981 H   0  0  0  0  0  0  0  0  0  0  0  0
   43.8753   36.0761   42.6176 H   0  0  0  0  0  0  0  0  0  0  0  0
   44.2317   36.9495   45.1731 H   0  0  0  0  0  0  0  0  0  0  0  0
   46.4145   33.0961   47.0959 H   0  0  0  0  0  0  0  0  0  0  0  0
   44.6540   32.8451   46.8422 H   0  0  0  0  0  0  0  0  0  0  0  0
   45.7710   31.4383   46.8422 H   0  0  0  0  0  0  0  0  0  0  0  0
   47.6269   33.6294   44.3853 H   0  0  0  0  0  0  0  0  0  0  0  0
   47.8194   32.4156   45.7406 H   0  0  0  0  0  0  0  0  0  0  0  0
   48.2563   28.6297   42.8127 H   0  0  0  0  0  0  0  0  0  0  0  0
   49.0353   30.5008   41.0462 H   0  0  0  0  0  0  0  0  0  0  0  0
   49.8988   33.7531   43.6681 H   0  0  0  0  0  0  0  0  0  0  0  0
   50.3301   36.0183   42.7496 H   0  0  0  0  0  0  0  0  0  0  0  0
   49.2169   36.7780   40.6322 H   0  0  0  0  0  0  0  0  0  0  0  0
   47.6794   35.1753   39.5032 H   0  0  0  0  0  0  0  0  0  0  0  0
  1 13  1  0
  2  7  2  0
  3  2  1  0
  4  3  2  0
  4  5  1  0
  5  6  2  0
  6  7  1  0
  6  8  1  0
  8  9  1  0
  8 12  1  0
  9 10  2  0
 10 11  1  0
 12  1  1  0
 12 11  2  0
 14  1  1  0
 15 16  1  0
 15 14  1  0
 17 16  2  0
 18 19  2  0
 18 17  1  0
 19 15  1  0
 20 19  1  0
 20 21  2  0
 22 21  1  0
 23 22  2  0
 24 25  2  0
 24 23  1  0
 25 20  1  0
  1 26  1  6
  2 27  1  0
  3 28  1  0
  4 29  1  0
  9 30  1  0
 10 31  1  0
 13 32  1  0
 13 33  1  0
 13 34  1  0
 14 35  1  0
 14 36  1  0
 17 37  1  0
 18 38  1  0
 21 39  1  0
 22 40  1  0
 23 41  1  0
 24 42  1  0
M  ISO  8  26   8  27  14  28  14  29  14  30  14  31  14  32   8  33   8
M  ISO  8  34   8  35   8  36   8  37  14  38  14  39  14  40  14  41  14
M  ISO  1  42  14
M  END
>  <minimizedAffinity>  (1) 
-5.30441093

>  <minimizedRMSD>  (1) 
6.96410799

$$$$
