
     RDKit          3D

 49 51  0  0  1  0  0  0  0  0999 V2000
   45.6410   34.8820   42.6170 C   0  0  2  0  0  0  0  0  0  0  0  0
   44.7200   35.1860   44.9720 C   0  0  0  0  0  0  0  0  0  0  0  0
   45.5120   34.4680   44.0380 C   0  0  0  0  0  0  0  0  0  0  0  0
   46.1870   33.3420   44.5480 C   0  0  0  0  0  0  0  0  0  0  0  0
   46.0270   33.0440   45.8560 N   0  0  0  0  0  0  0  0  0  0  0  0
   45.2690   33.7460   46.7080 C   0  0  0  0  0  0  0  0  0  0  0  0
   44.5930   34.8530   46.2530 N   0  0  0  0  0  0  0  0  0  0  0  0
   46.9170   35.6440   42.4880 C   0  0  0  0  0  0  0  0  0  0  0  0
   47.8750   35.1290   41.5800 N   0  0  0  0  0  0  0  0  0  0  0  0
   49.1790   35.1820   42.1580 C   0  0  0  0  0  0  0  0  0  0  0  0
   49.9680   33.9360   42.1870 C   0  0  0  0  0  0  0  0  0  0  0  0
   49.0370   32.9170   42.4860 O   0  0  0  0  0  0  0  0  0  0  0  0
   48.3410   32.7340   41.3030 C   0  0  0  0  0  0  0  0  0  0  0  0
   47.6270   33.9850   40.8280 C   0  0  2  0  0  0  0  0  0  0  0  0
   48.1820   34.2840   39.4240 C   0  0  0  0  0  0  0  0  0  0  0  0
   44.4600   35.5950   42.1670 C   0  0  0  0  0  0  0  0  0  0  0  0
   43.4020   35.1360   41.4510 N   0  0  0  0  0  0  0  0  0  0  0  0
   43.6830   33.8670   40.8060 C   0  0  0  0  0  0  0  0  0  0  0  0
   42.9700   32.7500   41.5380 C   0  0  0  0  0  0  0  0  0  0  0  0
   41.5730   32.9780   41.7350 N   0  0  0  0  0  0  0  0  0  0  0  0
   41.1690   34.1930   41.0990 C   0  0  0  0  0  0  0  0  0  0  0  0
   42.0510   35.3360   41.5880 C   0  0  0  0  0  0  0  0  0  0  0  0
   45.6955   34.0131   41.9446 H   0  0  0  0  0  0  0  0  0  0  0  0
   44.1775   36.0733   44.6136 H   0  0  0  0  0  0  0  0  0  0  0  0
   46.8257   32.7234   43.9004 H   0  0  0  0  0  0  0  0  0  0  0  0
   45.1881   33.4398   47.7614 H   0  0  0  0  0  0  0  0  0  0  0  0
   46.6649   36.6645   42.1638 H   0  0  0  0  0  0  0  0  0  0  0  0
   47.3930   35.5818   43.4777 H   0  0  0  0  0  0  0  0  0  0  0  0
   49.7594   35.9251   41.5914 H   0  0  0  0  0  0  0  0  0  0  0  0
   49.0039   35.4245   43.2165 H   0  0  0  0  0  0  0  0  0  0  0  0
   50.4386   33.7542   41.2095 H   0  0  0  0  0  0  0  0  0  0  0  0
   50.7813   33.9807   42.9263 H   0  0  0  0  0  0  0  0  0  0  0  0
   49.0520   32.4207   40.5243 H   0  0  0  0  0  0  0  0  0  0  0  0
   47.5713   31.9712   41.4922 H   0  0  0  0  0  0  0  0  0  0  0  0
   46.5481   33.7801   40.8906 H   0  0  0  0  0  0  0  0  0  0  0  0
   49.1471   34.8040   39.5143 H   0  0  0  0  0  0  0  0  0  0  0  0
   48.3238   33.3402   38.8771 H   0  0  0  0  0  0  0  0  0  0  0  0
   47.4718   34.9216   38.8771 H   0  0  0  0  0  0  0  0  0  0  0  0
   44.0127   35.9915   43.0904 H   0  0  0  0  0  0  0  0  0  0  0  0
   44.9341   36.1925   41.3744 H   0  0  0  0  0  0  0  0  0  0  0  0
   43.3333   33.9019   39.7637 H   0  0  0  0  0  0  0  0  0  0  0  0
   44.7670   33.6811   40.8276 H   0  0  0  0  0  0  0  0  0  0  0  0
   43.0899   31.8243   40.9560 H   0  0  0  0  0  0  0  0  0  0  0  0
   43.4243   32.6862   42.5378 H   0  0  0  0  0  0  0  0  0  0  0  0
   41.0415   32.1924   41.3335 H   0  0  0  0  0  0  0  0  0  0  0  0
   40.1191   34.4066   41.3483 H   0  0  0  0  0  0  0  0  0  0  0  0
   41.2714   34.0895   40.0087 H   0  0  0  0  0  0  0  0  0  0  0  0
   41.8380   35.4966   42.6552 H   0  0  0  0  0  0  0  0  0  0  0  0
   41.8063   36.2009   40.9539 H   0  0  0  0  0  0  0  0  0  0  0  0
  1  3  1  0
  2  7  2  0
  3  4  2  0
  3  2  1  0
  4  5  1  0
  5  6  2  0
  7  6  1  0
  8  1  1  0
  9 10  1  0
  9  8  1  0
 10 11  1  0
 11 12  1  0
 13 12  1  0
 14 13  1  0
 14  9  1  0
 15 14  1  0
 16  1  1  0
 17 22  1  0
 17 16  1  0
 18 17  1  0
 18 19  1  0
 19 20  1  0
 21 22  1  0
 21 20  1  0
  1 23  1  6
  2 24  1  0
  4 25  1  0
  6 26  1  0
  8 27  1  0
  8 28  1  0
 10 29  1  0
 10 30  1  0
 11 31  1  0
 11 32  1  0
 13 33  1  0
 13 34  1  0
 14 35  1  6
 15 36  1  0
 15 37  1  0
 15 38  1  0
 16 39  1  0
 16 40  1  0
 18 41  1  0
 18 42  1  0
 19 43  1  0
 19 44  1  0
 20 45  1  0
 21 46  1  0
 21 47  1  0
 22 48  1  0
 22 49  1  0
M  ISO  8  23   8  24  14  25  14  26  14  27   8  28   8  29  13  30  13
M  ISO  8  31  13  32  13  33  13  34  13  35  13  36   8  37   8  38   8
M  ISO  8  39   8  40   8  41  13  42  13  43  13  44  13  45   5  46  13
M  ISO  3  47  13  48  13  49  13
M  END
>  <minimizedAffinity>  (1) 
-5.08973837

>  <minimizedRMSD>  (1) 
2.15091062

$$$$
