
     RDKit          3D

 37 40  0  0  1  0  0  0  0  0999 V2000
   45.8730   32.2030   46.3390 C   0  0  0  0  0  0  0  0  0  0  0  0
   45.7610   32.4260   44.9780 C   0  0  0  0  0  0  0  0  0  0  0  0
   45.4700   31.3250   44.1130 C   0  0  0  0  0  0  0  0  0  0  0  0
   45.3180   30.1040   44.6760 N   0  0  0  0  0  0  0  0  0  0  0  0
   45.4310   29.9100   46.0020 C   0  0  0  0  0  0  0  0  0  0  0  0
   45.7070   30.9540   46.8330 N   0  0  0  0  0  0  0  0  0  0  0  0
   45.9700   33.7910   44.4600 C   0  0  2  0  0  0  0  0  0  0  0  0
   45.0140   34.7380   45.1620 C   0  0  0  0  0  0  0  0  0  0  0  0
   44.6920   35.9730   44.4980 C   0  0  0  0  0  0  0  0  0  0  0  0
   45.2670   36.2850   43.1980 C   0  0  0  0  0  0  0  0  0  0  0  0
   46.2750   35.3500   42.6640 C   0  0  0  0  0  0  0  0  0  0  0  0
   45.9120   33.9300   42.9890 C   0  0  0  0  0  0  0  0  0  0  0  0
   45.2510   28.5510   46.5940 C   0  0  0  0  0  0  0  0  0  0  0  0
   46.1020   27.7760   47.5170 C   0  0  0  0  0  0  0  0  0  0  0  0
   45.0300   26.3120   47.6600 S   0  0  0  0  0  0  0  0  0  0  0  0
   43.7730   26.9010   46.5920 C   0  0  0  0  0  0  0  0  0  0  0  0
   44.0890   28.1660   46.1050 N   0  0  0  0  0  0  0  0  0  0  0  0
   42.5740   26.0990   46.3030 C   0  0  0  0  0  0  0  0  0  0  0  0
   41.2740   26.2170   46.4550 C   0  0  0  0  0  0  0  0  0  0  0  0
   40.4720   25.1950   46.0320 C   0  0  0  0  0  0  0  0  0  0  0  0
   40.9950   24.0400   45.4470 C   0  0  0  0  0  0  0  0  0  0  0  0
   42.8350   24.4150   45.4880 S   0  0  0  0  0  0  0  0  0  0  0  0
   46.0965   33.0391   47.0180 H   0  0  0  0  0  0  0  0  0  0  0  0
   45.3730   31.4660   43.0264 H   0  0  0  0  0  0  0  0  0  0  0  0
   47.0115   34.0576   44.6926 H   0  0  0  0  0  0  0  0  0  0  0  0
   44.5829   34.4891   46.1429 H   0  0  0  0  0  0  0  0  0  0  0  0
   44.0058   36.6871   44.9767 H   0  0  0  0  0  0  0  0  0  0  0  0
   44.4408   36.3301   42.4731 H   0  0  0  0  0  0  0  0  0  0  0  0
   45.8089   37.2305   43.3476 H   0  0  0  0  0  0  0  0  0  0  0  0
   47.2538   35.5826   43.1089 H   0  0  0  0  0  0  0  0  0  0  0  0
   46.3144   35.4618   41.5704 H   0  0  0  0  0  0  0  0  0  0  0  0
   44.8964   33.7085   42.6290 H   0  0  0  0  0  0  0  0  0  0  0  0
   46.6050   33.2280   42.5023 H   0  0  0  0  0  0  0  0  0  0  0  0
   47.0752   28.0090   47.9737 H   0  0  0  0  0  0  0  0  0  0  0  0
   40.8411   27.1187   46.9127 H   0  0  0  0  0  0  0  0  0  0  0  0
   39.3827   25.2846   46.1559 H   0  0  0  0  0  0  0  0  0  0  0  0
   40.4712   23.1511   45.0654 H   0  0  0  0  0  0  0  0  0  0  0  0
  1  6  2  0
  2  1  1  0
  3  4  1  0
  3  2  2  0
  4  5  2  0
  5 13  1  0
  5  6  1  0
  7  2  1  0
  7  8  1  0
  9  8  2  0
 10  9  1  0
 11 12  1  0
 11 10  1  0
 12  7  1  0
 13 14  2  0
 14 15  1  0
 16 15  1  0
 17 16  2  0
 17 13  1  0
 18 19  2  0
 18 16  1  0
 20 19  1  0
 21 22  1  0
 21 20  2  0
 22 18  1  0
  1 23  1  0
  3 24  1  0
  7 25  1  1
  8 26  1  0
  9 27  1  0
 10 28  1  0
 10 29  1  0
 11 30  1  0
 11 31  1  0
 12 32  1  0
 12 33  1  0
 14 34  1  0
 19 35  1  0
 20 36  1  0
 21 37  1  0
M  ISO  8  23  14  24  14  25  13  26  13  27  13  28  13  29  13  30  13
M  ISO  7  31  13  32  13  33  13  34  14  35  14  36  14  37  14
M  END
>  <minimizedAffinity>  (1) 
-5.05140352

>  <minimizedRMSD>  (1) 
1.02822101

$$$$
