
     RDKit          3D

 39 41  0  0  1  0  0  0  0  0999 V2000
   46.7730   32.2190   46.4870 C   0  0  0  0  0  0  0  0  0  0  0  0
   46.2300   32.4200   45.2310 C   0  0  0  0  0  0  0  0  0  0  0  0
   45.7700   31.2890   44.4860 C   0  0  0  0  0  0  0  0  0  0  0  0
   45.8900   30.0620   45.0530 N   0  0  0  0  0  0  0  0  0  0  0  0
   46.4330   29.9070   46.2970 C   0  0  0  0  0  0  0  0  0  0  0  0
   46.8600   30.9710   46.9880 N   0  0  0  0  0  0  0  0  0  0  0  0
   46.1620   33.7860   44.6840 C   0  0  2  0  0  0  0  0  0  0  0  0
   45.1040   34.5630   45.4520 C   0  0  0  0  0  0  0  0  0  0  0  0
   44.5490   35.7200   44.8140 C   0  0  0  0  0  0  0  0  0  0  0  0
   44.9860   36.1320   43.4830 C   0  0  0  0  0  0  0  0  0  0  0  0
   46.0560   35.3270   42.8480 C   0  0  0  0  0  0  0  0  0  0  0  0
   45.9160   33.8890   43.2270 C   0  0  0  0  0  0  0  0  0  0  0  0
   46.5440   28.5370   46.8870 C   0  0  0  0  0  0  0  0  0  0  0  0
   47.6970   27.6040   46.9400 C   0  0  0  0  0  0  0  0  0  0  0  0
   46.8370   26.2450   47.8030 S   0  0  0  0  0  0  0  0  0  0  0  0
   45.2760   27.0510   47.9340 C   0  0  0  0  0  0  0  0  0  0  0  0
   45.3400   28.3190   47.3570 N   0  0  0  0  0  0  0  0  0  0  0  0
   43.9810   26.4550   48.5980 C   0  0  0  0  0  0  0  0  0  0  0  0
   44.4090   25.8550   49.9070 C   0  0  0  0  0  0  0  0  0  0  0  0
   43.3980   25.4360   47.6420 C   0  0  0  0  0  0  0  0  0  0  0  0
   47.1330   33.0757   47.0756 H   0  0  0  0  0  0  0  0  0  0  0  0
   45.3324   31.4101   43.4841 H   0  0  0  0  0  0  0  0  0  0  0  0
   47.1669   34.2134   44.8162 H   0  0  0  0  0  0  0  0  0  0  0  0
   44.7784   34.2501   46.4550 H   0  0  0  0  0  0  0  0  0  0  0  0
   43.7801   36.3082   45.3363 H   0  0  0  0  0  0  0  0  0  0  0  0
   44.1085   36.0994   42.8205 H   0  0  0  0  0  0  0  0  0  0  0  0
   45.4243   37.1313   43.6224 H   0  0  0  0  0  0  0  0  0  0  0  0
   47.0361   35.6970   43.1833 H   0  0  0  0  0  0  0  0  0  0  0  0
   45.9726   35.4191   41.7550 H   0  0  0  0  0  0  0  0  0  0  0  0
   44.9012   33.5358   42.9917 H   0  0  0  0  0  0  0  0  0  0  0  0
   46.6334   33.2698   42.6685 H   0  0  0  0  0  0  0  0  0  0  0  0
   48.7312   27.7001   46.5778 H   0  0  0  0  0  0  0  0  0  0  0  0
   43.1998   27.2040   48.7949 H   0  0  0  0  0  0  0  0  0  0  0  0
   43.9887   26.4443   50.7353 H   0  0  0  0  0  0  0  0  0  0  0  0
   44.0447   24.8191   49.9721 H   0  0  0  0  0  0  0  0  0  0  0  0
   45.5070   25.8623   49.9721 H   0  0  0  0  0  0  0  0  0  0  0  0
   42.9316   24.6208   48.2147 H   0  0  0  0  0  0  0  0  0  0  0  0
   42.6398   25.9194   47.0084 H   0  0  0  0  0  0  0  0  0  0  0  0
   44.1990   25.0274   47.0084 H   0  0  0  0  0  0  0  0  0  0  0  0
  1  6  2  0
  2  1  1  0
  3  4  1  0
  3  2  2  0
  4  5  2  0
  5 13  1  0
  5  6  1  0
  7  2  1  0
  7  8  1  0
  9  8  2  0
 10  9  1  0
 11 12  1  0
 11 10  1  0
 12  7  1  0
 13 14  2  0
 13 17  1  0
 14 15  1  0
 15 16  1  0
 16 18  1  0
 17 16  2  0
 18 19  1  0
 20 18  1  0
  1 21  1  0
  3 22  1  0
  7 23  1  6
  8 24  1  0
  9 25  1  0
 10 26  1  0
 10 27  1  0
 11 28  1  0
 11 29  1  0
 12 30  1  0
 12 31  1  0
 14 32  1  0
 18 33  1  0
 19 34  1  0
 19 35  1  0
 19 36  1  0
 20 37  1  0
 20 38  1  0
 20 39  1  0
M  ISO  8  21  14  22  14  23  13  24  13  25  13  26  13  27  13  28  13
M  ISO  8  29  13  30  13  31  13  32  14  33   8  34   8  35   8  36   8
M  ISO  3  37   8  38   8  39   8
M  END
>  <minimizedAffinity>  (1) 
-4.98388767

>  <minimizedRMSD>  (1) 
0.850633562

$$$$
