
     RDKit          3D

 37 40  0  0  1  0  0  0  0  0999 V2000
   46.1070   31.8210   46.2150 C   0  0  0  0  0  0  0  0  0  0  0  0
   46.3360   32.2180   44.9100 C   0  0  0  0  0  0  0  0  0  0  0  0
   46.7170   31.2390   43.9390 C   0  0  0  0  0  0  0  0  0  0  0  0
   46.8340   29.9550   44.3530 N   0  0  0  0  0  0  0  0  0  0  0  0
   46.5990   29.5980   45.6510 C   0  0  0  0  0  0  0  0  0  0  0  0
   46.2450   30.5180   46.5540 N   0  0  0  0  0  0  0  0  0  0  0  0
   46.2040   33.6470   44.5700 C   0  0  2  0  0  0  0  0  0  0  0  0
   45.2490   34.3020   45.5670 C   0  0  0  0  0  0  0  0  0  0  0  0
   44.6000   35.5250   45.1620 C   0  0  0  0  0  0  0  0  0  0  0  0
   44.8550   36.0950   43.8500 C   0  0  0  0  0  0  0  0  0  0  0  0
   45.8770   35.4350   43.0130 C   0  0  0  0  0  0  0  0  0  0  0  0
   45.8050   33.9440   43.1800 C   0  0  0  0  0  0  0  0  0  0  0  0
   46.7380   28.1680   46.0630 C   0  0  0  0  0  0  0  0  0  0  0  0
   47.4850   27.0550   45.4630 C   0  0  0  0  0  0  0  0  0  0  0  0
   46.9960   25.7690   46.6560 S   0  0  0  0  0  0  0  0  0  0  0  0
   45.9890   26.8070   47.6570 C   0  0  0  0  0  0  0  0  0  0  0  0
   45.9860   28.1030   47.1430 N   0  0  0  0  0  0  0  0  0  0  0  0
   45.2770   26.2790   48.8650 C   0  0  0  0  0  0  0  0  0  0  0  0
   44.1600   26.8620   49.3670 C   0  0  0  0  0  0  0  0  0  0  0  0
   43.8630   26.0440   50.4630 C   0  0  0  0  0  0  0  0  0  0  0  0
   44.7690   25.0330   50.5880 N   0  0  0  0  0  0  0  0  0  0  0  0
   45.6380   25.2040   49.5800 N   0  0  0  0  0  0  0  0  0  0  0  0
   45.8140   32.5612   46.9741 H   0  0  0  0  0  0  0  0  0  0  0  0
   46.9082   31.5194   42.8927 H   0  0  0  0  0  0  0  0  0  0  0  0
   47.2156   34.0728   44.6435 H   0  0  0  0  0  0  0  0  0  0  0  0
   45.0635   33.8578   46.5560 H   0  0  0  0  0  0  0  0  0  0  0  0
   43.9071   36.0297   45.8513 H   0  0  0  0  0  0  0  0  0  0  0  0
   43.9076   36.0760   43.2914 H   0  0  0  0  0  0  0  0  0  0  0  0
   45.2588   37.0983   44.0511 H   0  0  0  0  0  0  0  0  0  0  0  0
   46.8749   35.7860   43.3146 H   0  0  0  0  0  0  0  0  0  0  0  0
   45.6918   35.6860   41.9581 H   0  0  0  0  0  0  0  0  0  0  0  0
   44.7787   33.5923   42.9980 H   0  0  0  0  0  0  0  0  0  0  0  0
   46.4673   33.4357   42.4637 H   0  0  0  0  0  0  0  0  0  0  0  0
   48.1335   27.0119   44.5755 H   0  0  0  0  0  0  0  0  0  0  0  0
   43.6239   27.7516   49.0048 H   0  0  0  0  0  0  0  0  0  0  0  0
   43.0077   26.1972   51.1375 H   0  0  0  0  0  0  0  0  0  0  0  0
   44.7834   24.2937   51.3051 H   0  0  0  0  0  0  0  0  0  0  0  0
  1  6  2  0
  2  1  1  0
  3  4  1  0
  3  2  2  0
  4  5  2  0
  5 13  1  0
  5  6  1  0
  7  2  1  0
  7  8  1  0
  9  8  2  0
 10  9  1  0
 11 12  1  0
 11 10  1  0
 12  7  1  0
 13 17  1  0
 14 13  2  0
 14 15  1  0
 15 16  1  0
 16 18  1  0
 17 16  2  0
 18 19  1  0
 18 22  2  0
 19 20  2  0
 20 21  1  0
 22 21  1  0
  1 23  1  0
  3 24  1  0
  7 25  1  1
  8 26  1  0
  9 27  1  0
 10 28  1  0
 10 29  1  0
 11 30  1  0
 11 31  1  0
 12 32  1  0
 12 33  1  0
 14 34  1  0
 19 35  1  0
 20 36  1  0
 21 37  1  0
M  ISO  8  23  14  24  14  25  13  26  13  27  13  28  13  29  13  30  13
M  ISO  7  31  13  32  13  33  13  34  14  35  14  36  14  37   9
M  END
>  <minimizedAffinity>  (1) 
-5.05202055

>  <minimizedRMSD>  (1) 
1.92131793

$$$$
