
     RDKit          3D

 35 38  0  0  0  0  0  0  0  0999 V2000
   44.5260   36.0110   44.6620 C   0  0  0  0  0  0  0  0  0  0  0  0
   45.2780   35.9600   43.4620 C   0  0  0  0  0  0  0  0  0  0  0  0
   46.1470   34.9050   43.3230 C   0  0  0  0  0  0  0  0  0  0  0  0
   46.2710   33.9540   44.3070 N   0  0  0  0  0  0  0  0  0  0  0  0
   45.5170   34.0580   45.4410 C   0  0  0  0  0  0  0  0  0  0  0  0
   44.6520   35.0740   45.6240 N   0  0  0  0  0  0  0  0  0  0  0  0
   45.6610   33.0630   46.4480 N   0  0  0  0  0  0  0  0  0  0  0  0
   45.0940   33.0190   47.6580 C   0  0  0  0  0  0  0  0  0  0  0  0
   45.4850   31.9040   48.3140 N   0  0  0  0  0  0  0  0  0  0  0  0
   46.3170   31.2160   47.5190 C   0  0  0  0  0  0  0  0  0  0  0  0
   46.9600   30.0200   47.7680 C   0  0  0  0  0  0  0  0  0  0  0  0
   47.7540   29.5500   46.7650 N   0  0  0  0  0  0  0  0  0  0  0  0
   47.8740   30.2550   45.6050 C   0  0  0  0  0  0  0  0  0  0  0  0
   47.2250   31.4200   45.4040 N   0  0  0  0  0  0  0  0  0  0  0  0
   46.4150   31.9530   46.3580 C   0  0  0  0  0  0  0  0  0  0  0  0
   46.9430   34.8090   42.1070 C   0  0  0  0  0  0  0  0  0  0  0  0
   48.2560   35.2190   41.9430 C   0  0  0  0  0  0  0  0  0  0  0  0
   48.5200   34.8950   40.6000 C   0  0  0  0  0  0  0  0  0  0  0  0
   47.3920   34.3280   40.0470 C   0  0  0  0  0  0  0  0  0  0  0  0
   46.4910   34.3080   41.0070 O   0  0  0  0  0  0  0  0  0  0  0  0
   47.2380   33.8620   38.7200 N   0  0  0  0  0  0  0  0  0  0  0  0
   48.2650   33.9740   37.7610 C   0  0  0  0  0  0  0  0  0  0  0  0
   49.0260   35.0520   37.8050 N   0  0  0  0  0  0  0  0  0  0  0  0
   48.4140   32.9010   36.8010 N   0  0  0  0  0  0  0  0  0  0  0  0
   49.8130   35.0640   37.1240 H   0  0  0  0  0  0  0  0  0  0  0  0
   43.8184   36.8395   44.8135 H   0  0  0  0  0  0  0  0  0  0  0  0
   45.1713   36.7269   42.6807 H   0  0  0  0  0  0  0  0  0  0  0  0
   44.4090   33.7796   48.0609 H   0  0  0  0  0  0  0  0  0  0  0  0
   46.8388   29.4792   48.7182 H   0  0  0  0  0  0  0  0  0  0  0  0
   48.5208   29.8613   44.8071 H   0  0  0  0  0  0  0  0  0  0  0  0
   48.9266   35.6834   42.6810 H   0  0  0  0  0  0  0  0  0  0  0  0
   49.4720   35.0663   40.0762 H   0  0  0  0  0  0  0  0  0  0  0  0
   46.3459   33.4265   38.4456 H   0  0  0  0  0  0  0  0  0  0  0  0
   47.7789   32.0907   36.8316 H   0  0  0  0  0  0  0  0  0  0  0  0
   49.1551   32.9478   36.0872 H   0  0  0  0  0  0  0  0  0  0  0  0
  1  6  2  0
  2  1  1  0
  3  2  2  0
  3  4  1  0
  4  5  2  0
  5  6  1  0
  5  7  1  0
  7  8  1  0
  8  9  2  0
 10 11  2  0
 10  9  1  0
 12 11  1  0
 13 12  2  0
 14 13  1  0
 14 15  2  0
 15  7  1  0
 15 10  1  0
 16  3  1  0
 17 16  2  0
 18 17  1  0
 19 18  2  0
 19 20  1  0
 20 16  1  0
 21 19  1  0
 22 23  2  0
 22 21  1  0
 24 22  1  0
 25 23  1  0
  1 26  1  0
  2 27  1  0
  8 28  1  0
 11 29  1  0
 13 30  1  0
 17 31  1  0
 18 32  1  0
 21 33  1  0
 24 34  1  0
 24 35  1  0
M  ISO  7  26  14  27  14  28  14  29  14  30  14  31  14  32  14
M  END
>  <minimizedAffinity>  (1) 
-7.57576227

>  <minimizedRMSD>  (1) 
0.150313988

$$$$
