
     RDKit          3D

 39 41  0  0  0  0  0  0  0  0999 V2000
   46.9580   34.7960   42.1130 C   0  0  0  0  0  0  0  0  0  0  0  0
   48.2450   35.2640   41.9380 C   0  0  0  0  0  0  0  0  0  0  0  0
   48.5210   34.9620   40.5900 C   0  0  0  0  0  0  0  0  0  0  0  0
   47.4130   34.3450   40.0500 C   0  0  0  0  0  0  0  0  0  0  0  0
   46.5240   34.2810   41.0130 O   0  0  0  0  0  0  0  0  0  0  0  0
   44.5710   35.9370   44.7210 C   0  0  0  0  0  0  0  0  0  0  0  0
   45.3260   35.9180   43.5220 C   0  0  0  0  0  0  0  0  0  0  0  0
   46.1670   34.8500   43.3340 C   0  0  0  0  0  0  0  0  0  0  0  0
   46.2660   33.8480   44.2690 N   0  0  0  0  0  0  0  0  0  0  0  0
   45.5080   33.9230   45.4110 C   0  0  0  0  0  0  0  0  0  0  0  0
   44.6710   34.9550   45.6340 N   0  0  0  0  0  0  0  0  0  0  0  0
   45.6540   32.8700   46.3270 N   0  0  0  0  0  0  0  0  0  0  0  0
   45.1470   33.0440   47.6830 C   0  0  0  0  0  0  0  0  0  0  0  0
   46.0190   32.3670   48.6980 C   0  0  0  0  0  0  0  0  0  0  0  0
   47.3920   32.0280   48.2210 C   0  0  0  0  0  0  0  0  0  0  0  0
   47.4720   31.3990   46.8730 C   0  0  0  0  0  0  0  0  0  0  0  0
   46.2890   31.6150   45.9870 C   0  0  0  0  0  0  0  0  0  0  0  0
   47.2620   33.8770   38.7260 N   0  0  0  0  0  0  0  0  0  0  0  0
   48.2960   34.0040   37.7590 C   0  0  0  0  0  0  0  0  0  0  0  0
   49.0370   35.0660   37.8080 N   0  0  0  0  0  0  0  0  0  0  0  0
   48.4590   32.9540   36.7910 N   0  0  0  0  0  0  0  0  0  0  0  0
   49.8000   35.1350   37.1080 H   0  0  0  0  0  0  0  0  0  0  0  0
   48.8982   35.7549   42.6744 H   0  0  0  0  0  0  0  0  0  0  0  0
   49.4594   35.1809   40.0595 H   0  0  0  0  0  0  0  0  0  0  0  0
   43.8857   36.7765   44.9096 H   0  0  0  0  0  0  0  0  0  0  0  0
   45.2418   36.7223   42.7763 H   0  0  0  0  0  0  0  0  0  0  0  0
   45.1045   34.1192   47.9114 H   0  0  0  0  0  0  0  0  0  0  0  0
   44.1475   32.5876   47.7341 H   0  0  0  0  0  0  0  0  0  0  0  0
   46.1143   33.0352   49.5666 H   0  0  0  0  0  0  0  0  0  0  0  0
   45.5302   31.4107   48.9358 H   0  0  0  0  0  0  0  0  0  0  0  0
   47.9797   32.9575   48.1953 H   0  0  0  0  0  0  0  0  0  0  0  0
   47.7763   31.2757   48.9255 H   0  0  0  0  0  0  0  0  0  0  0  0
   48.3564   31.8068   46.3616 H   0  0  0  0  0  0  0  0  0  0  0  0
   47.5202   30.3144   47.0502 H   0  0  0  0  0  0  0  0  0  0  0  0
   45.5722   30.7922   46.1254 H   0  0  0  0  0  0  0  0  0  0  0  0
   46.6173   31.6429   44.9375 H   0  0  0  0  0  0  0  0  0  0  0  0
   46.3753   33.4299   38.4527 H   0  0  0  0  0  0  0  0  0  0  0  0
   47.8339   32.1356   36.8088 H   0  0  0  0  0  0  0  0  0  0  0  0
   49.2009   33.0200   36.0796 H   0  0  0  0  0  0  0  0  0  0  0  0
  1  8  1  0
  2  1  2  0
  3  2  1  0
  4  3  2  0
  4  5  1  0
  5  1  1  0
  6 11  2  0
  7  6  1  0
  8  7  2  0
  8  9  1  0
  9 10  2  0
 10 11  1  0
 10 12  1  0
 12 13  1  0
 13 14  1  0
 15 14  1  0
 16 15  1  0
 17 12  1  0
 17 16  1  0
 18  4  1  0
 19 20  2  0
 19 18  1  0
 21 19  1  0
 22 20  1  0
  2 23  1  0
  3 24  1  0
  6 25  1  0
  7 26  1  0
 13 27  1  0
 13 28  1  0
 14 29  1  0
 14 30  1  0
 15 31  1  0
 15 32  1  0
 16 33  1  0
 16 34  1  0
 17 35  1  0
 17 36  1  0
 18 37  1  0
 21 38  1  0
 21 39  1  0
M  ISO  8  23  14  24  14  25  14  26  14  27  13  28  13  29  13  30  13
M  ISO  6  31  13  32  13  33  13  34  13  35  13  36  13
M  END
>  <minimizedAffinity>  (1) 
-7.27502394

>  <minimizedRMSD>  (1) 
0.218047723

$$$$
