
     RDKit          3D

 29 31  0  0  0  0  0  0  0  0999 V2000
   46.9670   34.8120   42.0980 C   0  0  0  0  0  0  0  0  0  0  0  0
   48.2590   35.2230   41.9210 C   0  0  0  0  0  0  0  0  0  0  0  0
   48.5250   34.9070   40.5850 C   0  0  0  0  0  0  0  0  0  0  0  0
   47.4010   34.3330   40.0340 C   0  0  0  0  0  0  0  0  0  0  0  0
   46.4940   34.3010   40.9920 O   0  0  0  0  0  0  0  0  0  0  0  0
   44.4610   35.9150   44.6180 C   0  0  0  0  0  0  0  0  0  0  0  0
   45.2090   35.8830   43.4080 C   0  0  0  0  0  0  0  0  0  0  0  0
   46.1630   34.8990   43.3190 C   0  0  0  0  0  0  0  0  0  0  0  0
   46.3690   34.0100   44.3470 N   0  0  0  0  0  0  0  0  0  0  0  0
   45.6210   34.0910   45.4780 C   0  0  0  0  0  0  0  0  0  0  0  0
   44.6730   35.0400   45.6130 N   0  0  0  0  0  0  0  0  0  0  0  0
   46.0000   33.0570   46.4390 C   0  0  0  0  0  0  0  0  0  0  0  0
   46.9550   32.1160   46.5640 N   0  0  0  0  0  0  0  0  0  0  0  0
   46.7660   31.4710   47.6810 O   0  0  0  0  0  0  0  0  0  0  0  0
   45.7160   31.9420   48.3150 C   0  0  0  0  0  0  0  0  0  0  0  0
   45.2240   32.9360   47.5500 N   0  0  0  0  0  0  0  0  0  0  0  0
   47.2480   33.8710   38.7150 N   0  0  0  0  0  0  0  0  0  0  0  0
   48.2810   33.9640   37.7590 C   0  0  0  0  0  0  0  0  0  0  0  0
   49.0370   35.0450   37.7880 N   0  0  0  0  0  0  0  0  0  0  0  0
   48.4580   32.8910   36.8090 N   0  0  0  0  0  0  0  0  0  0  0  0
   49.8070   35.0900   37.1030 H   0  0  0  0  0  0  0  0  0  0  0  0
   48.9304   35.6914   42.6557 H   0  0  0  0  0  0  0  0  0  0  0  0
   49.4751   35.0872   40.0608 H   0  0  0  0  0  0  0  0  0  0  0  0
   43.6830   36.6827   44.7419 H   0  0  0  0  0  0  0  0  0  0  0  0
   45.0340   36.6020   42.5941 H   0  0  0  0  0  0  0  0  0  0  0  0
   45.3175   31.5938   49.2793 H   0  0  0  0  0  0  0  0  0  0  0  0
   46.3501   33.4498   38.4370 H   0  0  0  0  0  0  0  0  0  0  0  0
   47.8351   32.0711   36.8362 H   0  0  0  0  0  0  0  0  0  0  0  0
   49.2071   32.9455   36.1042 H   0  0  0  0  0  0  0  0  0  0  0  0
  1  8  1  0
  2  1  2  0
  3  2  1  0
  4  3  2  0
  4  5  1  0
  5  1  1  0
  6 11  2  0
  7  6  1  0
  8  7  2  0
  8  9  1  0
  9 10  2  0
 10 11  1  0
 10 12  1  0
 12 13  2  0
 12 16  1  0
 13 14  1  0
 14 15  1  0
 16 15  2  0
 17  4  1  0
 18 19  2  0
 18 17  1  0
 20 18  1  0
 21 19  1  0
  2 22  1  0
  3 23  1  0
  6 24  1  0
  7 25  1  0
 15 26  1  0
 17 27  1  0
 20 28  1  0
 20 29  1  0
M  ISO  5  22  14  23  14  24  14  25  14  26  14
M  END
>  <minimizedAffinity>  (1) 
-6.68098593

>  <minimizedRMSD>  (1) 
0.17577447

$$$$
