
     RDKit          3D

 31 33  0  0  0  0  0  0  0  0999 V2000
   46.9890   34.8070   42.1010 C   0  0  0  0  0  0  0  0  0  0  0  0
   48.2630   35.2640   41.9050 C   0  0  0  0  0  0  0  0  0  0  0  0
   48.5260   34.9610   40.5680 C   0  0  0  0  0  0  0  0  0  0  0  0
   47.4140   34.3480   40.0310 C   0  0  0  0  0  0  0  0  0  0  0  0
   46.5300   34.2870   41.0060 O   0  0  0  0  0  0  0  0  0  0  0  0
   44.4970   35.8400   44.6660 C   0  0  0  0  0  0  0  0  0  0  0  0
   45.2390   35.8390   43.4480 C   0  0  0  0  0  0  0  0  0  0  0  0
   46.1950   34.8630   43.3320 C   0  0  0  0  0  0  0  0  0  0  0  0
   46.4160   33.9470   44.3330 N   0  0  0  0  0  0  0  0  0  0  0  0
   45.6730   34.0030   45.4690 C   0  0  0  0  0  0  0  0  0  0  0  0
   44.7160   34.9500   45.6340 N   0  0  0  0  0  0  0  0  0  0  0  0
   45.9330   33.0380   46.4810 N   0  0  0  0  0  0  0  0  0  0  0  0
   45.2440   32.9880   47.6470 C   0  0  0  0  0  0  0  0  0  0  0  0
   45.8040   31.9110   48.3430 C   0  0  0  0  0  0  0  0  0  0  0  0
   46.7800   31.3580   47.6140 N   0  0  0  0  0  0  0  0  0  0  0  0
   46.8620   32.0590   46.4530 C   0  0  0  0  0  0  0  0  0  0  0  0
   47.2450   33.8730   38.7050 N   0  0  0  0  0  0  0  0  0  0  0  0
   48.2890   33.9660   37.7490 C   0  0  0  0  0  0  0  0  0  0  0  0
   49.0400   35.0420   37.7810 N   0  0  0  0  0  0  0  0  0  0  0  0
   48.4570   32.8780   36.8100 N   0  0  0  0  0  0  0  0  0  0  0  0
   49.8320   35.0450   37.1020 H   0  0  0  0  0  0  0  0  0  0  0  0
   48.9262   35.7559   42.6318 H   0  0  0  0  0  0  0  0  0  0  0  0
   49.4629   35.1753   40.0329 H   0  0  0  0  0  0  0  0  0  0  0  0
   43.7169   36.6017   44.8117 H   0  0  0  0  0  0  0  0  0  0  0  0
   45.0558   36.5752   42.6515 H   0  0  0  0  0  0  0  0  0  0  0  0
   44.4264   33.6474   47.9736 H   0  0  0  0  0  0  0  0  0  0  0  0
   45.4889   31.5701   49.3402 H   0  0  0  0  0  0  0  0  0  0  0  0
   47.5654   31.8623   45.6305 H   0  0  0  0  0  0  0  0  0  0  0  0
   46.3459   33.4520   38.4307 H   0  0  0  0  0  0  0  0  0  0  0  0
   47.8267   32.0642   36.8466 H   0  0  0  0  0  0  0  0  0  0  0  0
   49.2068   32.9174   36.1050 H   0  0  0  0  0  0  0  0  0  0  0  0
  1  8  1  0
  2  1  2  0
  3  2  1  0
  4  3  2  0
  4  5  1  0
  5  1  1  0
  6 11  2  0
  7  6  1  0
  8  7  2  0
  8  9  1  0
  9 10  2  0
 10 11  1  0
 10 12  1  0
 12 13  1  0
 13 14  2  0
 15 14  1  0
 16 12  1  0
 16 15  2  0
 17  4  1  0
 18 19  2  0
 18 17  1  0
 20 18  1  0
 21 19  1  0
  2 22  1  0
  3 23  1  0
  6 24  1  0
  7 25  1  0
 13 26  1  0
 14 27  1  0
 16 28  1  0
 17 29  1  0
 20 30  1  0
 20 31  1  0
M  ISO  7  22  14  23  14  24  14  25  14  26  14  27  14  28  14
M  END
>  <minimizedAffinity>  (1) 
-6.95802307

>  <minimizedRMSD>  (1) 
0.105268806

$$$$
