
     RDKit          3D

 42 44  0  0  1  0  0  0  0  0999 V2000
   46.9220   35.6580   42.5180 C   0  0  0  0  0  0  0  0  0  0  0  0
   47.8700   35.1170   41.6010 N   0  0  0  0  0  0  0  0  0  0  0  0
   49.1900   35.1750   42.1650 C   0  0  0  0  0  0  0  0  0  0  0  0
   49.9580   33.9210   42.1770 C   0  0  0  0  0  0  0  0  0  0  0  0
   49.0360   32.9100   42.5040 O   0  0  0  0  0  0  0  0  0  0  0  0
   48.3160   32.7340   41.3280 C   0  0  0  0  0  0  0  0  0  0  0  0
   47.5970   33.9820   40.8680 C   0  0  2  0  0  0  0  0  0  0  0  0
   48.1210   34.2800   39.4480 C   0  0  0  0  0  0  0  0  0  0  0  0
   45.6230   34.8870   42.6530 C   0  0  1  0  0  0  0  0  0  0  0  0
   44.7120   35.1830   45.0100 C   0  0  0  0  0  0  0  0  0  0  0  0
   45.5090   34.4690   44.0530 C   0  0  0  0  0  0  0  0  0  0  0  0
   46.1710   33.3540   44.5490 C   0  0  0  0  0  0  0  0  0  0  0  0
   46.0200   33.0340   45.8620 N   0  0  0  0  0  0  0  0  0  0  0  0
   45.2670   33.7260   46.7290 C   0  0  0  0  0  0  0  0  0  0  0  0
   44.5860   34.8420   46.2880 N   0  0  0  0  0  0  0  0  0  0  0  0
   44.4580   35.6660   42.2140 C   0  0  0  0  0  0  0  0  0  0  0  0
   43.5640   35.0950   41.2680 C   0  0  0  0  0  0  0  0  0  0  0  0
   43.6800   34.2950   40.1190 C   0  0  0  0  0  0  0  0  0  0  0  0
   42.5390   33.9390   39.4530 C   0  0  0  0  0  0  0  0  0  0  0  0
   41.3260   34.3480   39.8920 C   0  0  0  0  0  0  0  0  0  0  0  0
   41.6890   35.3510   41.3990 S   0  0  0  0  0  0  0  0  0  0  0  0
   46.6767   36.6782   42.1878 H   0  0  0  0  0  0  0  0  0  0  0  0
   47.4018   35.6122   43.5068 H   0  0  0  0  0  0  0  0  0  0  0  0
   49.7666   35.9137   41.5889 H   0  0  0  0  0  0  0  0  0  0  0  0
   49.0412   35.4334   43.2238 H   0  0  0  0  0  0  0  0  0  0  0  0
   50.3985   33.7321   41.1869 H   0  0  0  0  0  0  0  0  0  0  0  0
   50.7875   33.9612   42.8983 H   0  0  0  0  0  0  0  0  0  0  0  0
   49.0132   32.4222   40.5364 H   0  0  0  0  0  0  0  0  0  0  0  0
   47.5471   31.9738   41.5303 H   0  0  0  0  0  0  0  0  0  0  0  0
   46.5197   33.7787   40.9578 H   0  0  0  0  0  0  0  0  0  0  0  0
   49.0754   34.8228   39.5157 H   0  0  0  0  0  0  0  0  0  0  0  0
   48.2746   33.3341   38.9079 H   0  0  0  0  0  0  0  0  0  0  0  0
   47.3866   34.8956   38.9079 H   0  0  0  0  0  0  0  0  0  0  0  0
   45.6400   34.0083   41.9915 H   0  0  0  0  0  0  0  0  0  0  0  0
   44.1683   36.0734   44.6614 H   0  0  0  0  0  0  0  0  0  0  0  0
   46.8057   32.7410   43.8922 H   0  0  0  0  0  0  0  0  0  0  0  0
   45.1930   33.4078   47.7794 H   0  0  0  0  0  0  0  0  0  0  0  0
   43.8694   35.9001   43.1133 H   0  0  0  0  0  0  0  0  0  0  0  0
   44.8983   36.5201   41.6787 H   0  0  0  0  0  0  0  0  0  0  0  0
   44.6661   33.9622   39.7627 H   0  0  0  0  0  0  0  0  0  0  0  0
   42.6084   33.3135   38.5508 H   0  0  0  0  0  0  0  0  0  0  0  0
   40.3426   34.1311   39.4495 H   0  0  0  0  0  0  0  0  0  0  0  0
  1  9  1  0
  2  3  1  0
  2  1  1  0
  3  4  1  0
  4  5  1  0
  6  5  1  0
  7  6  1  0
  7  2  1  0
  8  7  1  0
  9 11  1  0
 10 15  2  0
 11 12  2  0
 11 10  1  0
 12 13  1  0
 13 14  2  0
 15 14  1  0
 16  9  1  0
 17 21  1  0
 17 16  1  0
 18 17  2  0
 19 20  2  0
 19 18  1  0
 20 21  1  0
  1 22  1  0
  1 23  1  0
  3 24  1  0
  3 25  1  0
  4 26  1  0
  4 27  1  0
  6 28  1  0
  6 29  1  0
  7 30  1  6
  8 31  1  0
  8 32  1  0
  8 33  1  0
  9 34  1  6
 10 35  1  0
 12 36  1  0
 14 37  1  0
 16 38  1  0
 16 39  1  0
 18 40  1  0
 19 41  1  0
 20 42  1  0
M  ISO  8  22   8  23   8  24  13  25  13  26  13  27  13  28  13  29  13
M  ISO  8  30  13  31   8  32   8  33   8  34   8  35  14  36  14  37  14
M  ISO  5  38   8  39   8  40  14  41  14  42  14
M  END
>  <minimizedAffinity>  (1) 
-4.93328047

>  <minimizedRMSD>  (1) 
2.15029263

$$$$
