
     RDKit          3D

 25 26  0  0  0  0  0  0  0  0999 V2000
   46.9780   34.8290   42.0840 C   0  0  0  0  0  0  0  0  0  0  0  0
   48.2780   35.2160   41.9150 C   0  0  0  0  0  0  0  0  0  0  0  0
   48.5520   34.8940   40.5850 C   0  0  0  0  0  0  0  0  0  0  0  0
   47.4200   34.3380   40.0300 C   0  0  0  0  0  0  0  0  0  0  0  0
   46.5130   34.3310   40.9890 O   0  0  0  0  0  0  0  0  0  0  0  0
   44.4320   35.9740   44.5440 C   0  0  0  0  0  0  0  0  0  0  0  0
   45.1970   35.8970   43.3550 C   0  0  0  0  0  0  0  0  0  0  0  0
   46.1740   34.9340   43.2930 C   0  0  0  0  0  0  0  0  0  0  0  0
   46.3800   34.0910   44.3580 N   0  0  0  0  0  0  0  0  0  0  0  0
   45.6220   34.2030   45.4750 C   0  0  0  0  0  0  0  0  0  0  0  0
   44.6440   35.1500   45.5690 N   0  0  0  0  0  0  0  0  0  0  0  0
   45.8860   33.3160   46.5150 O   0  0  0  0  0  0  0  0  0  0  0  0
   47.2540   33.8670   38.7020 N   0  0  0  0  0  0  0  0  0  0  0  0
   48.2860   33.9620   37.7420 C   0  0  0  0  0  0  0  0  0  0  0  0
   49.0360   35.0370   37.7790 N   0  0  0  0  0  0  0  0  0  0  0  0
   48.4470   32.8820   36.7930 N   0  0  0  0  0  0  0  0  0  0  0  0
   49.8170   35.0540   37.0880 H   0  0  0  0  0  0  0  0  0  0  0  0
   48.9511   35.6742   42.6546 H   0  0  0  0  0  0  0  0  0  0  0  0
   49.5091   35.0565   40.0677 H   0  0  0  0  0  0  0  0  0  0  0  0
   43.6414   36.7347   44.6234 H   0  0  0  0  0  0  0  0  0  0  0  0
   45.0157   36.5820   42.5136 H   0  0  0  0  0  0  0  0  0  0  0  0
   45.3568   33.3612   47.3505 H   0  0  0  0  0  0  0  0  0  0  0  0
   46.3553   33.4437   38.4301 H   0  0  0  0  0  0  0  0  0  0  0  0
   47.8167   32.0681   36.8273 H   0  0  0  0  0  0  0  0  0  0  0  0
   49.1919   32.9270   36.0831 H   0  0  0  0  0  0  0  0  0  0  0  0
  1  8  1  0
  2  1  2  0
  3  2  1  0
  4  3  2  0
  4  5  1  0
  5  1  1  0
  6 11  2  0
  7  6  1  0
  8  7  2  0
  8  9  1  0
  9 10  2  0
 10 11  1  0
 10 12  1  0
 13  4  1  0
 14 15  2  0
 14 13  1  0
 16 14  1  0
 17 15  1  0
  2 18  1  0
  3 19  1  0
  6 20  1  0
  7 21  1  0
 12 22  1  0
 13 23  1  0
 16 24  1  0
 16 25  1  0
M  ISO  5  18  14  19  14  20  14  21  14  22   3
M  END
>  <minimizedAffinity>  (1) 
-5.92927408

>  <minimizedRMSD>  (1) 
0.129044309

$$$$
