
     RDKit          3D

 27 28  0  0  0  0  0  0  0  0999 V2000
   47.0450   34.7500   42.0820 C   0  0  0  0  0  0  0  0  0  0  0  0
   48.2910   35.3010   41.8580 C   0  0  0  0  0  0  0  0  0  0  0  0
   48.5190   35.0310   40.5050 C   0  0  0  0  0  0  0  0  0  0  0  0
   47.4340   34.3510   39.9940 C   0  0  0  0  0  0  0  0  0  0  0  0
   46.5890   34.2180   41.0000 O   0  0  0  0  0  0  0  0  0  0  0  0
   44.5840   35.5810   44.7410 C   0  0  0  0  0  0  0  0  0  0  0  0
   45.2760   35.6320   43.4970 C   0  0  0  0  0  0  0  0  0  0  0  0
   46.3050   34.7390   43.3340 C   0  0  0  0  0  0  0  0  0  0  0  0
   46.6350   33.8520   44.3310 N   0  0  0  0  0  0  0  0  0  0  0  0
   45.9390   33.8490   45.5010 C   0  0  0  0  0  0  0  0  0  0  0  0
   44.9210   34.7050   45.7080 N   0  0  0  0  0  0  0  0  0  0  0  0
   46.3070   32.8990   46.5460 C   0  0  0  0  0  0  0  0  0  0  0  0
   45.7250   31.7870   46.6250 O   0  0  0  0  0  0  0  0  0  0  0  0
   47.2990   33.2100   47.4600 O   0  0  0  0  0  0  0  0  0  0  0  0
   47.2640   33.8910   38.6700 N   0  0  0  0  0  0  0  0  0  0  0  0
   48.2940   33.9680   37.7060 C   0  0  0  0  0  0  0  0  0  0  0  0
   49.0730   35.0120   37.7460 N   0  0  0  0  0  0  0  0  0  0  0  0
   48.4200   32.8930   36.7440 N   0  0  0  0  0  0  0  0  0  0  0  0
   49.8570   35.0160   37.0580 H   0  0  0  0  0  0  0  0  0  0  0  0
   48.9452   35.8249   42.5705 H   0  0  0  0  0  0  0  0  0  0  0  0
   49.4188   35.3153   39.9397 H   0  0  0  0  0  0  0  0  0  0  0  0
   43.7505   36.2768   44.9174 H   0  0  0  0  0  0  0  0  0  0  0  0
   45.0003   36.3487   42.7094 H   0  0  0  0  0  0  0  0  0  0  0  0
   47.5430   32.5603   48.1660 H   0  0  0  0  0  0  0  0  0  0  0  0
   46.3574   33.4851   38.3974 H   0  0  0  0  0  0  0  0  0  0  0  0
   47.7667   32.0972   36.7725 H   0  0  0  0  0  0  0  0  0  0  0  0
   49.1629   32.9242   36.0312 H   0  0  0  0  0  0  0  0  0  0  0  0
  1  8  1  0
  2  1  2  0
  3  2  1  0
  4  3  2  0
  4  5  1  0
  5  1  1  0
  6 11  2  0
  7  6  1  0
  8  7  2  0
  8  9  1  0
  9 10  2  0
 10 11  1  0
 10 12  1  0
 12 13  2  0
 12 14  1  0
 15  4  1  0
 16 17  2  0
 16 15  1  0
 18 16  1  0
 19 17  1  0
  2 20  1  0
  3 21  1  0
  6 22  1  0
  7 23  1  0
 14 24  1  0
 15 25  1  0
 18 26  1  0
 18 27  1  0
M  ISO  5  20  14  21  14  22  14  23  14  24   3
M  END
>  <minimizedAffinity>  (1) 
-6.53726101

>  <minimizedRMSD>  (1) 
0.364223033

$$$$
