
     RDKit          3D

 38 41  0  0  1  0  0  0  0  0999 V2000
   44.5320   32.7230   41.8000 C   0  0  2  0  0  0  0  0  0  0  0  0
   46.2760   31.1590   45.3710 C   0  0  0  0  0  0  0  0  0  0  0  0
   46.2960   31.5100   46.7150 C   0  0  0  0  0  0  0  0  0  0  0  0
   45.8900   32.7990   47.0800 C   0  0  0  0  0  0  0  0  0  0  0  0
   45.4930   33.6490   46.1060 N   0  0  0  0  0  0  0  0  0  0  0  0
   45.4750   33.2920   44.7860 C   0  0  0  0  0  0  0  0  0  0  0  0
   45.8680   32.0550   44.4470 N   0  0  0  0  0  0  0  0  0  0  0  0
   45.0730   34.1600   43.7540 N   0  0  0  0  0  0  0  0  0  0  0  0
   45.0780   35.4900   44.0690 C   0  0  0  0  0  0  0  0  0  0  0  0
   44.6570   36.1420   42.8900 C   0  0  0  0  0  0  0  0  0  0  0  0
   44.4210   35.1990   41.9310 N   0  0  0  0  0  0  0  0  0  0  0  0
   44.6810   34.0060   42.4810 C   0  0  0  0  0  0  0  0  0  0  0  0
   45.7980   32.5610   40.9110 C   0  0  0  0  0  0  0  0  0  0  0  0
   43.3480   32.7160   40.8880 C   0  0  0  0  0  0  0  0  0  0  0  0
   42.1670   32.2000   41.4890 N   0  0  0  0  0  0  0  0  0  0  0  0
   42.0770   31.0450   42.1500 N   0  0  0  0  0  0  0  0  0  0  0  0
   40.7910   30.9110   42.5660 C   0  0  0  0  0  0  0  0  0  0  0  0
   40.0510   32.0030   42.1620 C   0  0  0  0  0  0  0  0  0  0  0  0
   40.9480   32.8100   41.4780 C   0  0  0  0  0  0  0  0  0  0  0  0
   40.6920   34.0970   40.8390 C   0  0  0  0  0  0  0  0  0  0  0  0
   40.4170   34.4780   39.5700 N   0  0  0  0  0  0  0  0  0  0  0  0
   40.2710   35.7780   39.5340 O   0  0  0  0  0  0  0  0  0  0  0  0
   40.4420   36.2820   40.7520 C   0  0  0  0  0  0  0  0  0  0  0  0
   40.7030   35.2310   41.5630 N   0  0  0  0  0  0  0  0  0  0  0  0
   44.4034   31.9227   42.5437 H   0  0  0  0  0  0  0  0  0  0  0  0
   46.5922   30.1524   45.0600 H   0  0  0  0  0  0  0  0  0  0  0  0
   46.6246   30.7888   47.4778 H   0  0  0  0  0  0  0  0  0  0  0  0
   45.8938   33.1131   48.1342 H   0  0  0  0  0  0  0  0  0  0  0  0
   45.3502   35.9509   45.0300 H   0  0  0  0  0  0  0  0  0  0  0  0
   44.5388   37.2284   42.7647 H   0  0  0  0  0  0  0  0  0  0  0  0
   46.6844   32.4476   41.5524 H   0  0  0  0  0  0  0  0  0  0  0  0
   45.6885   31.6695   40.2759 H   0  0  0  0  0  0  0  0  0  0  0  0
   45.9165   33.4513   40.2759 H   0  0  0  0  0  0  0  0  0  0  0  0
   43.5893   32.0985   40.0102 H   0  0  0  0  0  0  0  0  0  0  0  0
   43.1418   33.7629   40.6206 H   0  0  0  0  0  0  0  0  0  0  0  0
   40.3980   30.0587   43.1396 H   0  0  0  0  0  0  0  0  0  0  0  0
   38.9826   32.1924   42.3429 H   0  0  0  0  0  0  0  0  0  0  0  0
   40.3831   37.3413   41.0424 H   0  0  0  0  0  0  0  0  0  0  0  0
  1 12  1  0
  2  3  2  0
  3  4  1  0
  5  4  2  0
  6  5  1  0
  7  6  2  0
  7  2  1  0
  8  9  1  0
  8  6  1  0
 10  9  2  0
 11 12  2  0
 11 10  1  0
 12  8  1  0
 13  1  1  0
 14 15  1  0
 14  1  1  0
 15 16  1  0
 16 17  2  0
 18 17  1  0
 19 15  1  0
 19 18  2  0
 20 19  1  0
 20 24  1  0
 21 20  2  0
 22 21  1  0
 22 23  1  0
 23 24  2  0
  1 25  1  1
  2 26  1  0
  3 27  1  0
  4 28  1  0
  9 29  1  0
 10 30  1  0
 13 31  1  0
 13 32  1  0
 13 33  1  0
 14 34  1  0
 14 35  1  0
 17 36  1  0
 18 37  1  0
 23 38  1  0
M  ISO  8  25   8  26  14  27  14  28  14  29  14  30  14  31   8  32   8
M  ISO  6  33   8  34   8  35   8  36  14  37  14  38  14
M  END
>  <minimizedAffinity>  (1) 
-5.30158043

>  <minimizedRMSD>  (1) 
8.12598038

$$$$
