
     RDKit          3D

 23 25  0  0  0  0  0  0  0  0999 V2000
   45.2840   36.1110   43.1610 C   0  0  0  0  0  0  0  0  0  0  0  0
   45.8740   34.8290   42.9660 C   0  0  0  0  0  0  0  0  0  0  0  0
   45.7950   33.9300   44.0130 C   0  0  0  0  0  0  0  0  0  0  0  0
   45.1660   34.3060   45.1650 N   0  0  0  0  0  0  0  0  0  0  0  0
   44.6170   35.5450   45.3060 C   0  0  0  0  0  0  0  0  0  0  0  0
   44.6820   36.4360   44.2990 N   0  0  0  0  0  0  0  0  0  0  0  0
   46.3800   32.6140   43.8550 C   0  0  0  0  0  0  0  0  0  0  0  0
   47.6730   32.2520   44.1370 C   0  0  0  0  0  0  0  0  0  0  0  0
   47.7270   30.9060   43.8190 C   0  0  0  0  0  0  0  0  0  0  0  0
   46.4700   30.5250   43.3630 C   0  0  0  0  0  0  0  0  0  0  0  0
   45.6710   31.5970   43.3980 O   0  0  0  0  0  0  0  0  0  0  0  0
   46.5340   34.5130   41.6800 C   0  0  0  0  0  0  0  0  0  0  0  0
   47.8840   34.8520   41.3360 C   0  0  0  0  0  0  0  0  0  0  0  0
   48.0190   34.1860   39.6770 S   0  0  0  0  0  0  0  0  0  0  0  0
   46.2080   33.5410   39.6990 C   0  0  0  0  0  0  0  0  0  0  0  0
   45.7800   33.8560   40.7860 N   0  0  0  0  0  0  0  0  0  0  0  0
   45.3283   36.8506   42.3479 H   0  0  0  0  0  0  0  0  0  0  0  0
   44.1181   35.8186   46.2474 H   0  0  0  0  0  0  0  0  0  0  0  0
   48.4823   32.8868   44.5269 H   0  0  0  0  0  0  0  0  0  0  0  0
   48.6079   30.2536   43.9107 H   0  0  0  0  0  0  0  0  0  0  0  0
   46.1824   29.5165   43.0309 H   0  0  0  0  0  0  0  0  0  0  0  0
   48.6397   35.3824   41.9340 H   0  0  0  0  0  0  0  0  0  0  0  0
   45.6775   33.0036   38.8991 H   0  0  0  0  0  0  0  0  0  0  0  0
  1  6  2  0
  2  1  1  0
  2  3  2  0
  3  4  1  0
  4  5  2  0
  6  5  1  0
  7  3  1  0
  7  8  2  0
  9  8  1  0
 10 11  1  0
 10  9  2  0
 11  7  1  0
 12  2  1  0
 13 12  2  0
 14 15  1  0
 14 13  1  0
 15 16  2  0
 16 12  1  0
  1 17  1  0
  5 18  1  0
  8 19  1  0
  9 20  1  0
 10 21  1  0
 13 22  1  0
 15 23  1  0
M  ISO  7  17  14  18  14  19  14  20  14  21  14  22  14  23  14
M  END
>  <minimizedAffinity>  (1) 
-4.14591742

>  <minimizedRMSD>  (1) 
3.50314403

$$$$
