
     RDKit          3D

 19 20  0  0  0  0  0  0  0  0999 V2000
   44.8980   34.9360   45.0430 C   0  0  0  0  0  0  0  0  0  0  0  0
   45.5200   35.1540   43.7930 C   0  0  0  0  0  0  0  0  0  0  0  0
   46.6170   34.3630   43.4750 C   0  0  0  0  0  0  0  0  0  0  0  0
   47.0520   33.4200   44.3560 N   0  0  0  0  0  0  0  0  0  0  0  0
   46.4100   33.2480   45.5590 C   0  0  0  0  0  0  0  0  0  0  0  0
   45.3390   34.0090   45.8880 N   0  0  0  0  0  0  0  0  0  0  0  0
   47.2770   34.5690   42.1880 C   0  0  0  0  0  0  0  0  0  0  0  0
   48.3480   35.3900   41.9330 C   0  0  0  0  0  0  0  0  0  0  0  0
   48.5880   35.2300   40.5840 C   0  0  0  0  0  0  0  0  0  0  0  0
   47.6510   34.3240   40.0960 C   0  0  0  0  0  0  0  0  0  0  0  0
   46.8780   33.9510   41.1110 O   0  0  0  0  0  0  0  0  0  0  0  0
   44.9890   36.1840   42.9100 C   0  0  0  0  0  0  0  0  0  0  0  0
   44.0800   35.9000   42.0650 O   0  0  0  0  0  0  0  0  0  0  0  0
   44.0281   35.5479   45.3237 H   0  0  0  0  0  0  0  0  0  0  0  0
   46.7702   32.4833   46.2629 H   0  0  0  0  0  0  0  0  0  0  0  0
   48.8914   36.0302   42.6435 H   0  0  0  0  0  0  0  0  0  0  0  0
   49.3764   35.7278   40.0003 H   0  0  0  0  0  0  0  0  0  0  0  0
   47.5653   33.9781   39.0553 H   0  0  0  0  0  0  0  0  0  0  0  0
   45.3753   37.2120   42.9737 H   0  0  0  0  0  0  0  0  0  0  0  0
  1  6  2  0
  2  1  1  0
  3  2  2  0
  3  4  1  0
  4  5  2  0
  5  6  1  0
  7  3  1  0
  8  7  2  0
  9  8  1  0
 10  9  2  0
 10 11  1  0
 11  7  1  0
 12  2  1  0
 13 12  2  0
  1 14  1  0
  5 15  1  0
  8 16  1  0
  9 17  1  0
 10 18  1  0
 12 19  1  0
M  ISO  6  14  14  15  14  16  14  17  14  18  14  19   6
M  END
>  <minimizedAffinity>  (1) 
-4.39297676

>  <minimizedRMSD>  (1) 
0.882096708

$$$$
