
     RDKit          3D

 42 44  0  0  1  0  0  0  0  0999 V2000
   45.7120   34.8510   42.7380 C   0  0  2  0  0  0  0  0  0  0  0  0
   44.8640   34.8860   45.1500 C   0  0  0  0  0  0  0  0  0  0  0  0
   45.6790   34.3230   44.1080 C   0  0  0  0  0  0  0  0  0  0  0  0
   46.4450   33.2280   44.4930 C   0  0  0  0  0  0  0  0  0  0  0  0
   46.3590   32.7990   45.7800 N   0  0  0  0  0  0  0  0  0  0  0  0
   45.5920   33.3450   46.7200 C   0  0  0  0  0  0  0  0  0  0  0  0
   44.8100   34.4330   46.3940 N   0  0  0  0  0  0  0  0  0  0  0  0
   47.0130   35.6200   42.5980 C   0  0  0  0  0  0  0  0  0  0  0  0
   47.9320   35.1080   41.6380 N   0  0  0  0  0  0  0  0  0  0  0  0
   49.2640   35.1500   42.1580 C   0  0  0  0  0  0  0  0  0  0  0  0
   50.0350   33.8930   42.1240 C   0  0  0  0  0  0  0  0  0  0  0  0
   49.1240   32.8710   42.4500 O   0  0  0  0  0  0  0  0  0  0  0  0
   48.3680   32.7240   41.3000 C   0  0  0  0  0  0  0  0  0  0  0  0
   47.6300   33.9770   40.8900 C   0  0  2  0  0  0  0  0  0  0  0  0
   48.1200   34.3090   39.4600 C   0  0  0  0  0  0  0  0  0  0  0  0
   44.5410   35.6790   42.4510 C   0  0  0  0  0  0  0  0  0  0  0  0
   43.6310   35.2270   41.4270 N   0  0  0  0  0  0  0  0  0  0  0  0
   42.3350   35.5660   41.3170 N   0  0  0  0  0  0  0  0  0  0  0  0
   41.8220   34.9320   40.2490 C   0  0  0  0  0  0  0  0  0  0  0  0
   42.7680   34.1510   39.6190 C   0  0  0  0  0  0  0  0  0  0  0  0
   43.8870   34.3680   40.3940 C   0  0  0  0  0  0  0  0  0  0  0  0
   45.6730   34.0353   42.0010 H   0  0  0  0  0  0  0  0  0  0  0  0
   44.2402   35.7557   44.8962 H   0  0  0  0  0  0  0  0  0  0  0  0
   47.1047   32.7212   43.7733 H   0  0  0  0  0  0  0  0  0  0  0  0
   45.5818   32.9352   47.7408 H   0  0  0  0  0  0  0  0  0  0  0  0
   46.7660   36.6531   42.3122 H   0  0  0  0  0  0  0  0  0  0  0  0
   47.5179   35.5355   43.5716 H   0  0  0  0  0  0  0  0  0  0  0  0
   49.8235   35.8985   41.5778 H   0  0  0  0  0  0  0  0  0  0  0  0
   49.1469   35.3850   43.2262 H   0  0  0  0  0  0  0  0  0  0  0  0
   50.4521   33.7274   41.1197 H   0  0  0  0  0  0  0  0  0  0  0  0
   50.8802   33.9193   42.8275 H   0  0  0  0  0  0  0  0  0  0  0  0
   49.0393   32.4327   40.4787 H   0  0  0  0  0  0  0  0  0  0  0  0
   47.6065   31.9594   41.5133 H   0  0  0  0  0  0  0  0  0  0  0  0
   46.5568   33.7678   41.0098 H   0  0  0  0  0  0  0  0  0  0  0  0
   49.0294   34.9252   39.5178 H   0  0  0  0  0  0  0  0  0  0  0  0
   48.3432   33.3754   38.9229 H   0  0  0  0  0  0  0  0  0  0  0  0
   47.3356   34.8624   38.9229 H   0  0  0  0  0  0  0  0  0  0  0  0
   43.9659   35.7684   43.3844 H   0  0  0  0  0  0  0  0  0  0  0  0
   44.9564   36.6182   42.0568 H   0  0  0  0  0  0  0  0  0  0  0  0
   40.7770   35.0245   39.9183 H   0  0  0  0  0  0  0  0  0  0  0  0
   42.6578   33.5173   38.7267 H   0  0  0  0  0  0  0  0  0  0  0  0
   44.8672   33.9062   40.2046 H   0  0  0  0  0  0  0  0  0  0  0  0
  1  3  1  0
  2  7  2  0
  3  4  2  0
  3  2  1  0
  4  5  1  0
  5  6  2  0
  7  6  1  0
  8  1  1  0
  9 10  1  0
  9  8  1  0
 11 10  1  0
 11 12  1  0
 13 12  1  0
 14 13  1  0
 14  9  1  0
 15 14  1  0
 16  1  1  0
 17 16  1  0
 18 17  1  0
 19 18  2  0
 20 19  1  0
 20 21  2  0
 21 17  1  0
  1 22  1  6
  2 23  1  0
  4 24  1  0
  6 25  1  0
  8 26  1  0
  8 27  1  0
 10 28  1  0
 10 29  1  0
 11 30  1  0
 11 31  1  0
 13 32  1  0
 13 33  1  0
 14 34  1  6
 15 35  1  0
 15 36  1  0
 15 37  1  0
 16 38  1  0
 16 39  1  0
 19 40  1  0
 20 41  1  0
 21 42  1  0
M  ISO  8  22   8  23  14  24  14  25  14  26   8  27   8  28  13  29  13
M  ISO  8  30  13  31  13  32  13  33  13  34  13  35   8  36   8  37   8
M  ISO  5  38   8  39   8  40  14  41  14  42  14
M  END
>  <minimizedAffinity>  (1) 
-4.82207489

>  <minimizedRMSD>  (1) 
2.18995953

$$$$
