
     RDKit          3D

 20 21  0  0  0  0  0  0  0  0999 V2000
   44.8290   34.8960   45.2710 C   0  0  0  0  0  0  0  0  0  0  0  0
   45.4180   35.0870   44.0010 C   0  0  0  0  0  0  0  0  0  0  0  0
   46.5030   34.2990   43.6520 C   0  0  0  0  0  0  0  0  0  0  0  0
   46.9570   33.3750   44.5400 N   0  0  0  0  0  0  0  0  0  0  0  0
   46.3630   33.2150   45.7600 C   0  0  0  0  0  0  0  0  0  0  0  0
   45.3040   33.9760   46.1200 N   0  0  0  0  0  0  0  0  0  0  0  0
   47.1120   34.4910   42.3490 C   0  0  0  0  0  0  0  0  0  0  0  0
   48.1680   35.3420   42.0570 C   0  0  0  0  0  0  0  0  0  0  0  0
   48.3740   35.1680   40.7050 C   0  0  0  0  0  0  0  0  0  0  0  0
   47.4460   34.2340   40.2520 C   0  0  0  0  0  0  0  0  0  0  0  0
   46.7020   33.8520   41.2860 O   0  0  0  0  0  0  0  0  0  0  0  0
   44.9170   36.0710   43.0840 C   0  0  0  0  0  0  0  0  0  0  0  0
   44.2200   35.6900   42.1290 O   0  0  0  0  0  0  0  0  0  0  0  0
   45.1780   37.4150   43.2190 O   0  0  0  0  0  0  0  0  0  0  0  0
   43.9672   35.5124   45.5667 H   0  0  0  0  0  0  0  0  0  0  0  0
   46.7506   32.4582   46.4579 H   0  0  0  0  0  0  0  0  0  0  0  0
   48.7148   36.0031   42.7454 H   0  0  0  0  0  0  0  0  0  0  0  0
   49.1348   35.6758   40.0939 H   0  0  0  0  0  0  0  0  0  0  0  0
   47.3456   33.8742   39.2174 H   0  0  0  0  0  0  0  0  0  0  0  0
   44.8115   38.0588   42.5623 H   0  0  0  0  0  0  0  0  0  0  0  0
  1  6  2  0
  2  1  1  0
  3  2  2  0
  3  4  1  0
  4  5  2  0
  5  6  1  0
  7  3  1  0
  8  7  2  0
  9  8  1  0
 10  9  2  0
 10 11  1  0
 11  7  1  0
 12 14  1  0
 12  2  1  0
 13 12  2  0
  1 15  1  0
  5 16  1  0
  8 17  1  0
  9 18  1  0
 10 19  1  0
 14 20  1  0
M  ISO  6  15  14  16  14  17  14  18  14  19  14  20   3
M  END
>  <minimizedAffinity>  (1) 
-4.85014582

>  <minimizedRMSD>  (1) 
1.09966147

$$$$
