
     RDKit          3D

 26 27  0  0  0  0  0  0  0  0999 V2000
   44.9570   34.7620   45.5010 C   0  0  0  0  0  0  0  0  0  0  0  0
   45.5180   34.9710   44.2060 C   0  0  0  0  0  0  0  0  0  0  0  0
   46.5330   34.1150   43.7780 C   0  0  0  0  0  0  0  0  0  0  0  0
   46.9490   33.1170   44.6020 N   0  0  0  0  0  0  0  0  0  0  0  0
   46.3810   32.9540   45.8370 C   0  0  0  0  0  0  0  0  0  0  0  0
   45.3950   33.7690   46.2820 N   0  0  0  0  0  0  0  0  0  0  0  0
   47.0980   34.3300   42.4650 C   0  0  0  0  0  0  0  0  0  0  0  0
   48.2850   35.0070   42.1860 C   0  0  0  0  0  0  0  0  0  0  0  0
   48.3930   34.9470   40.8170 C   0  0  0  0  0  0  0  0  0  0  0  0
   47.2960   34.2570   40.3400 C   0  0  0  0  0  0  0  0  0  0  0  0
   46.5370   33.9020   41.3790 O   0  0  0  0  0  0  0  0  0  0  0  0
   45.0580   36.0310   43.3600 C   0  0  0  0  0  0  0  0  0  0  0  0
   43.9650   35.9180   42.8000 O   0  0  0  0  0  0  0  0  0  0  0  0
   45.8040   37.1710   43.1580 O   0  0  0  0  0  0  0  0  0  0  0  0
   45.3340   38.4220   43.5730 C   0  0  0  0  0  0  0  0  0  0  0  0
   45.1260   39.3790   42.8100 O   0  0  0  0  0  0  0  0  0  0  0  0
   45.0880   38.5960   44.9370 O   0  0  0  0  0  0  0  0  0  0  0  0
   45.1870   39.8560   45.5130 C   0  0  0  0  0  0  0  0  0  0  0  0
   44.8440   40.8170   44.7770 O   0  0  0  0  0  0  0  0  0  0  0  0
   45.6270   40.1110   46.8060 O   0  0  0  0  0  0  0  0  0  0  0  0
   44.1559   35.4245   45.8606 H   0  0  0  0  0  0  0  0  0  0  0  0
   46.7350   32.1390   46.4854 H   0  0  0  0  0  0  0  0  0  0  0  0
   48.9765   35.4806   42.8984 H   0  0  0  0  0  0  0  0  0  0  0  0
   49.2065   35.3720   40.2107 H   0  0  0  0  0  0  0  0  0  0  0  0
   47.0837   34.0373   39.2833 H   0  0  0  0  0  0  0  0  0  0  0  0
   45.6676   41.0419   47.1405 H   0  0  0  0  0  0  0  0  0  0  0  0
  1  6  2  0
  2  1  1  0
  3  2  2  0
  3  4  1  0
  4  5  2  0
  5  6  1  0
  7  3  1  0
  8  7  2  0
  9  8  1  0
 10  9  2  0
 10 11  1  0
 11  7  1  0
 12  2  1  0
 13 12  2  0
 14 12  1  0
 14 15  1  0
 15 17  1  0
 16 15  2  0
 17 18  1  0
 18 20  1  0
 19 18  2  0
  1 21  1  0
  5 22  1  0
  8 23  1  0
  9 24  1  0
 10 25  1  0
 20 26  1  0
M  ISO  6  21  14  22  14  23  14  24  14  25  14  26   3
M  END
>  <minimizedAffinity>  (1) 
-4.48793268

>  <minimizedRMSD>  (1) 
0.671598256

$$$$
