
     RDKit          3D

 48 50  0  0  1  0  0  0  0  0999 V2000
   46.9790   35.0610   41.4850 C   0  0  0  0  0  0  0  0  0  0  0  0
   48.1010   34.3160   41.0420 N   0  0  0  0  0  0  0  0  0  0  0  0
   49.2700   34.7190   41.7750 C   0  0  0  0  0  0  0  0  0  0  0  0
   50.0550   33.6700   42.4350 C   0  0  0  0  0  0  0  0  0  0  0  0
   49.0980   32.7750   42.9860 O   0  0  0  0  0  0  0  0  0  0  0  0
   48.6440   32.0680   41.8810 C   0  0  0  0  0  0  0  0  0  0  0  0
   48.0190   32.9490   40.8160 C   0  0  2  0  0  0  0  0  0  0  0  0
   48.8370   32.7040   39.5340 C   0  0  0  0  0  0  0  0  0  0  0  0
   45.7350   34.2920   41.7760 C   0  0  1  0  0  0  0  0  0  0  0  0
   44.7340   35.6810   43.6470 C   0  0  0  0  0  0  0  0  0  0  0  0
   45.3960   34.5110   43.1990 C   0  0  0  0  0  0  0  0  0  0  0  0
   45.7230   33.5670   44.1920 C   0  0  0  0  0  0  0  0  0  0  0  0
   45.3870   33.8490   45.4740 N   0  0  0  0  0  0  0  0  0  0  0  0
   44.7600   34.9660   45.8610 C   0  0  0  0  0  0  0  0  0  0  0  0
   44.4240   35.9100   44.9220 N   0  0  0  0  0  0  0  0  0  0  0  0
   44.6020   34.5860   40.9030 C   0  0  0  0  0  0  0  0  0  0  0  0
   43.8170   33.5920   40.3100 N   0  0  0  0  0  0  0  0  0  0  0  0
   42.5920   33.4510   41.1330 C   0  0  0  0  0  0  0  0  0  0  0  0
   41.9370   34.7830   41.2100 C   0  0  0  0  0  0  0  0  0  0  0  0
   41.8250   35.4740   40.0550 O   0  0  0  0  0  0  0  0  0  0  0  0
   42.3440   34.9800   38.9040 C   0  0  0  0  0  0  0  0  0  0  0  0
   43.2340   33.8020   39.0170 C   0  0  0  0  0  0  0  0  0  0  0  0
   46.7398   35.7984   40.7046 H   0  0  0  0  0  0  0  0  0  0  0  0
   47.2828   35.4936   42.4496 H   0  0  0  0  0  0  0  0  0  0  0  0
   49.9382   35.2353   41.0701 H   0  0  0  0  0  0  0  0  0  0  0  0
   48.8830   35.3371   42.5985 H   0  0  0  0  0  0  0  0  0  0  0  0
   50.6933   33.1500   41.7055 H   0  0  0  0  0  0  0  0  0  0  0  0
   50.7227   34.0817   43.2062 H   0  0  0  0  0  0  0  0  0  0  0  0
   49.4958   31.5334   41.4353 H   0  0  0  0  0  0  0  0  0  0  0  0
   47.8606   31.3815   42.2347 H   0  0  0  0  0  0  0  0  0  0  0  0
   46.9510   32.6879   40.7812 H   0  0  0  0  0  0  0  0  0  0  0  0
   49.8586   32.3980   39.8038 H   0  0  0  0  0  0  0  0  0  0  0  0
   48.3606   31.9091   38.9414 H   0  0  0  0  0  0  0  0  0  0  0  0
   48.8760   33.6299   38.9414 H   0  0  0  0  0  0  0  0  0  0  0  0
   45.9443   33.2321   41.5689 H   0  0  0  0  0  0  0  0  0  0  0  0
   44.4611   36.4419   42.9009 H   0  0  0  0  0  0  0  0  0  0  0  0
   46.2359   32.6287   43.9343 H   0  0  0  0  0  0  0  0  0  0  0  0
   44.5160   35.1266   46.9215 H   0  0  0  0  0  0  0  0  0  0  0  0
   43.9120   35.2009   41.4995 H   0  0  0  0  0  0  0  0  0  0  0  0
   45.1071   35.0182   40.0266 H   0  0  0  0  0  0  0  0  0  0  0  0
   41.9096   32.7255   40.6661 H   0  0  0  0  0  0  0  0  0  0  0  0
   42.8469   33.0908   42.1406 H   0  0  0  0  0  0  0  0  0  0  0  0
   40.9224   34.6325   41.6075 H   0  0  0  0  0  0  0  0  0  0  0  0
   42.5959   35.3915   41.8468 H   0  0  0  0  0  0  0  0  0  0  0  0
   42.9205   35.7865   38.4274 H   0  0  0  0  0  0  0  0  0  0  0  0
   41.4756   34.6268   38.3285 H   0  0  0  0  0  0  0  0  0  0  0  0
   42.6472   32.9077   38.7603 H   0  0  0  0  0  0  0  0  0  0  0  0
   44.0746   33.9912   38.3332 H   0  0  0  0  0  0  0  0  0  0  0  0
  1  9  1  0
  2  1  1  0
  2  3  1  0
  3  4  1  0
  4  5  1  0
  6  5  1  0
  7  2  1  0
  7  6  1  0
  8  7  1  0
  9 11  1  0
 10 15  2  0
 11 10  1  0
 11 12  2  0
 12 13  1  0
 13 14  2  0
 15 14  1  0
 16  9  1  0
 17 16  1  0
 17 18  1  0
 18 19  1  0
 20 19  1  0
 21 22  1  0
 21 20  1  0
 22 17  1  0
  1 23  1  0
  1 24  1  0
  3 25  1  0
  3 26  1  0
  4 27  1  0
  4 28  1  0
  6 29  1  0
  6 30  1  0
  7 31  1  6
  8 32  1  0
  8 33  1  0
  8 34  1  0
  9 35  1  1
 10 36  1  0
 12 37  1  0
 14 38  1  0
 16 39  1  0
 16 40  1  0
 18 41  1  0
 18 42  1  0
 19 43  1  0
 19 44  1  0
 21 45  1  0
 21 46  1  0
 22 47  1  0
 22 48  1  0
M  ISO  8  23   8  24   8  25  13  26  13  27  13  28  13  29  13  30  13
M  ISO  8  31  13  32   8  33   8  34   8  35   8  36  14  37  14  38  14
M  ISO  8  39   8  40   8  41  13  42  13  43  13  44  13  45  13  46  13
M  ISO  2  47  13  48  13
M  END
>  <minimizedAffinity>  (1) 
-4.77955389

>  <minimizedRMSD>  (1) 
1.28754723

$$$$
