
     RDKit          3D

 28 30  0  0  0  0  0  0  0  0999 V2000
   44.6310   35.4170   45.3930 C   0  0  0  0  0  0  0  0  0  0  0  0
   45.2970   35.4890   44.1400 C   0  0  0  0  0  0  0  0  0  0  0  0
   46.1830   34.4680   43.8190 C   0  0  0  0  0  0  0  0  0  0  0  0
   46.3820   33.4510   44.6940 N   0  0  0  0  0  0  0  0  0  0  0  0
   45.7250   33.4210   45.8800 C   0  0  0  0  0  0  0  0  0  0  0  0
   44.8490   34.4040   46.2290 N   0  0  0  0  0  0  0  0  0  0  0  0
   46.8670   34.5360   42.5400 C   0  0  0  0  0  0  0  0  0  0  0  0
   48.1490   35.0420   42.3220 C   0  0  0  0  0  0  0  0  0  0  0  0
   48.3440   34.8900   40.9640 C   0  0  0  0  0  0  0  0  0  0  0  0
   47.1980   34.3120   40.4350 C   0  0  0  0  0  0  0  0  0  0  0  0
   46.3340   34.1180   41.4250 O   0  0  0  0  0  0  0  0  0  0  0  0
   45.0760   36.5670   43.2300 C   0  0  0  0  0  0  0  0  0  0  0  0
   44.1290   36.4970   42.4450 O   0  0  0  0  0  0  0  0  0  0  0  0
   45.8930   37.6810   43.2080 O   0  0  0  0  0  0  0  0  0  0  0  0
   45.4630   38.8880   43.7910 C   0  0  0  0  0  0  0  0  0  0  0  0
   45.2360   39.9300   43.1670 O   0  0  0  0  0  0  0  0  0  0  0  0
   45.2790   38.9060   45.1840 O   0  0  0  0  0  0  0  0  0  0  0  0
   44.9060   40.1120   45.7660 C   0  0  0  0  0  0  0  0  0  0  0  0
   44.7330   40.5690   46.9960 N   0  0  0  0  0  0  0  0  0  0  0  0
   44.3670   41.8200   46.9210 O   0  0  0  0  0  0  0  0  0  0  0  0
   44.2970   42.1950   45.6520 C   0  0  0  0  0  0  0  0  0  0  0  0
   44.6370   41.1250   44.8940 N   0  0  0  0  0  0  0  0  0  0  0  0
   43.9242   36.2106   45.6768 H   0  0  0  0  0  0  0  0  0  0  0  0
   45.9030   32.5863   46.5739 H   0  0  0  0  0  0  0  0  0  0  0  0
   48.8443   35.4648   43.0621 H   0  0  0  0  0  0  0  0  0  0  0  0
   49.2454   35.1755   40.4020 H   0  0  0  0  0  0  0  0  0  0  0  0
   47.0337   34.0582   39.3774 H   0  0  0  0  0  0  0  0  0  0  0  0
   44.0147   43.1918   45.2821 H   0  0  0  0  0  0  0  0  0  0  0  0
  1  6  2  0
  2  1  1  0
  3  2  2  0
  3  4  1  0
  4  5  2  0
  5  6  1  0
  7  3  1  0
  8  7  2  0
  9  8  1  0
 10  9  2  0
 10 11  1  0
 11  7  1  0
 12  2  1  0
 13 12  2  0
 14 12  1  0
 14 15  1  0
 15 17  1  0
 16 15  2  0
 17 18  1  0
 18 19  2  0
 20 19  1  0
 21 20  1  0
 22 21  2  0
 22 18  1  0
  1 23  1  0
  5 24  1  0
  8 25  1  0
  9 26  1  0
 10 27  1  0
 21 28  1  0
M  ISO  6  23  14  24  14  25  14  26  14  27  14  28  14
M  END
>  <minimizedAffinity>  (1) 
-4.47796249

>  <minimizedRMSD>  (1) 
0.851595283

$$$$
