
     RDKit          3D

 35 38  0  0  0  0  0  0  0  0999 V2000
   45.3860   34.8260   43.3520 C   0  0  0  0  0  0  0  0  0  0  0  0
   44.6590   35.5750   44.0250 O   0  0  0  0  0  0  0  0  0  0  0  0
   45.7170   32.5210   44.1820 C   0  0  0  0  0  0  0  0  0  0  0  0
   45.0940   33.4350   43.3210 C   0  0  0  0  0  0  0  0  0  0  0  0
   44.1450   32.9410   42.3960 C   0  0  0  0  0  0  0  0  0  0  0  0
   43.8800   31.6120   42.3810 N   0  0  0  0  0  0  0  0  0  0  0  0
   44.5120   30.7550   43.2400 C   0  0  0  0  0  0  0  0  0  0  0  0
   45.4270   31.2130   44.1350 N   0  0  0  0  0  0  0  0  0  0  0  0
   43.4980   33.8810   41.5040 C   0  0  0  0  0  0  0  0  0  0  0  0
   43.8000   34.1140   40.1750 C   0  0  0  0  0  0  0  0  0  0  0  0
   42.9260   35.0780   39.7650 C   0  0  0  0  0  0  0  0  0  0  0  0
   42.1340   35.3890   40.8600 C   0  0  0  0  0  0  0  0  0  0  0  0
   42.5140   34.6420   41.8910 O   0  0  0  0  0  0  0  0  0  0  0  0
   46.4500   35.3850   42.6630 O   0  0  0  0  0  0  0  0  0  0  0  0
   47.1830   34.5920   41.7750 C   0  0  0  0  0  0  0  0  0  0  0  0
   47.0450   34.6270   40.5440 O   0  0  0  0  0  0  0  0  0  0  0  0
   48.1390   33.6980   42.3030 O   0  0  0  0  0  0  0  0  0  0  0  0
   48.4990   32.6550   41.4740 C   0  0  0  0  0  0  0  0  0  0  0  0
   47.5880   31.6720   41.1630 C   0  0  0  0  0  0  0  0  0  0  0  0
   48.6040   30.5340   40.0230 S   0  0  0  0  0  0  0  0  0  0  0  0
   50.1020   31.7040   40.2380 C   0  0  0  0  0  0  0  0  0  0  0  0
   49.6760   32.5010   40.9290 N   0  0  0  0  0  0  0  0  0  0  0  0
   51.3820   31.4830   39.6090 N   0  0  0  0  0  0  0  0  0  0  0  0
   51.4030   31.1530   38.3080 C   0  0  0  0  0  0  0  0  0  0  0  0
   52.7020   31.0130   38.0020 N   0  0  0  0  0  0  0  0  0  0  0  0
   53.4610   31.2530   39.0920 C   0  0  0  0  0  0  0  0  0  0  0  0
   52.5990   31.5470   40.0950 N   0  0  0  0  0  0  0  0  0  0  0  0
   46.4577   32.8838   44.9098 H   0  0  0  0  0  0  0  0  0  0  0  0
   44.2766   29.6810   43.2060 H   0  0  0  0  0  0  0  0  0  0  0  0
   44.5810   33.6248   39.5744 H   0  0  0  0  0  0  0  0  0  0  0  0
   42.8620   35.5223   38.7608 H   0  0  0  0  0  0  0  0  0  0  0  0
   41.3236   36.1326   40.8729 H   0  0  0  0  0  0  0  0  0  0  0  0
   46.5424   31.5697   41.4888 H   0  0  0  0  0  0  0  0  0  0  0  0
   50.5408   31.0249   37.6370 H   0  0  0  0  0  0  0  0  0  0  0  0
   54.5587   31.2171   39.1536 H   0  0  0  0  0  0  0  0  0  0  0  0
  1  2  2  0
  4  1  1  0
  4  3  2  0
  5  4  1  0
  6  5  2  0
  6  7  1  0
  7  8  2  0
  8  3  1  0
  9 13  1  0
  9  5  1  0
 10  9  2  0
 11 10  1  0
 11 12  2  0
 12 13  1  0
 14  1  1  0
 15 17  1  0
 15 14  1  0
 16 15  2  0
 18 17  1  0
 19 18  2  0
 20 21  1  0
 20 19  1  0
 21 22  2  0
 22 18  1  0
 23 27  1  0
 23 21  1  0
 24 23  1  0
 25 24  2  0
 25 26  1  0
 26 27  2  0
  3 28  1  0
  7 29  1  0
 10 30  1  0
 11 31  1  0
 12 32  1  0
 19 33  1  0
 24 34  1  0
 26 35  1  0
M  ISO  8  28  14  29  14  30  14  31  14  32  14  33  14  34  14  35  14
M  END
>  <minimizedAffinity>  (1) 
-4.64333153

>  <minimizedRMSD>  (1) 
1.73031855

$$$$
