
     RDKit          3D

 31 33  0  0  0  0  0  0  0  0999 V2000
   45.8530   32.6950   44.3740 C   0  0  0  0  0  0  0  0  0  0  0  0
   45.2280   33.5760   43.4800 C   0  0  0  0  0  0  0  0  0  0  0  0
   44.3070   33.0550   42.5460 C   0  0  0  0  0  0  0  0  0  0  0  0
   44.0610   31.7170   42.5550 N   0  0  0  0  0  0  0  0  0  0  0  0
   44.6960   30.8880   43.4490 C   0  0  0  0  0  0  0  0  0  0  0  0
   45.5850   31.3850   44.3500 N   0  0  0  0  0  0  0  0  0  0  0  0
   43.6590   33.9530   41.6230 C   0  0  0  0  0  0  0  0  0  0  0  0
   43.9260   34.0940   40.2790 C   0  0  0  0  0  0  0  0  0  0  0  0
   43.0650   35.0550   39.8360 C   0  0  0  0  0  0  0  0  0  0  0  0
   42.3150   35.4540   40.9290 C   0  0  0  0  0  0  0  0  0  0  0  0
   42.6990   34.7660   42.0050 O   0  0  0  0  0  0  0  0  0  0  0  0
   45.4990   34.9810   43.4770 C   0  0  0  0  0  0  0  0  0  0  0  0
   44.9140   35.6910   44.3170 O   0  0  0  0  0  0  0  0  0  0  0  0
   46.3720   35.5800   42.5910 O   0  0  0  0  0  0  0  0  0  0  0  0
   47.3170   34.7870   41.9460 C   0  0  0  0  0  0  0  0  0  0  0  0
   47.2930   34.5450   40.7130 O   0  0  0  0  0  0  0  0  0  0  0  0
   48.3710   34.2170   42.7100 O   0  0  0  0  0  0  0  0  0  0  0  0
   48.9360   33.0840   42.1680 C   0  0  0  0  0  0  0  0  0  0  0  0
   48.1970   31.9350   42.0440 C   0  0  0  0  0  0  0  0  0  0  0  0
   49.4360   30.7320   41.2590 S   0  0  0  0  0  0  0  0  0  0  0  0
   50.7400   32.1110   41.2730 C   0  0  0  0  0  0  0  0  0  0  0  0
   50.1590   32.9610   41.7320 N   0  0  0  0  0  0  0  0  0  0  0  0
   52.0630   31.7310   40.7220 C   0  0  0  0  0  0  0  0  0  0  0  0
   52.2470   31.5920   39.5010 O   0  0  0  0  0  0  0  0  0  0  0  0
   46.5744   33.0872   45.1059 H   0  0  0  0  0  0  0  0  0  0  0  0
   44.4823   29.8090   43.4354 H   0  0  0  0  0  0  0  0  0  0  0  0
   44.6753   33.5472   39.6878 H   0  0  0  0  0  0  0  0  0  0  0  0
   42.9826   35.4388   38.8084 H   0  0  0  0  0  0  0  0  0  0  0  0
   41.5252   36.2194   40.9126 H   0  0  0  0  0  0  0  0  0  0  0  0
   47.1495   31.7562   42.3282 H   0  0  0  0  0  0  0  0  0  0  0  0
   52.9038   31.5678   41.4123 H   0  0  0  0  0  0  0  0  0  0  0  0
  2  1  2  0
  3  4  2  0
  3  2  1  0
  4  5  1  0
  5  6  2  0
  6  1  1  0
  7 11  1  0
  7  3  1  0
  8  7  2  0
  9  8  1  0
  9 10  2  0
 10 11  1  0
 12  2  1  0
 12 13  2  0
 14 12  1  0
 15 14  1  0
 15 17  1  0
 16 15  2  0
 18 17  1  0
 19 18  2  0
 20 21  1  0
 20 19  1  0
 21 22  2  0
 22 18  1  0
 23 21  1  0
 24 23  2  0
  1 25  1  0
  5 26  1  0
  8 27  1  0
  9 28  1  0
 10 29  1  0
 19 30  1  0
 23 31  1  0
M  ISO  7  25  14  26  14  27  14  28  14  29  14  30  14  31   6
M  END
>  <minimizedAffinity>  (1) 
-4.27044249

>  <minimizedRMSD>  (1) 
0.698136747

$$$$
