
     RDKit          3D

 33 35  0  0  0  0  0  0  0  0999 V2000
   45.2200   34.2870   44.4820 C   0  0  0  0  0  0  0  0  0  0  0  0
   45.0690   33.3810   43.4020 C   0  0  0  0  0  0  0  0  0  0  0  0
   45.3760   32.0370   43.6420 C   0  0  0  0  0  0  0  0  0  0  0  0
   45.7970   31.6850   44.8820 N   0  0  0  0  0  0  0  0  0  0  0  0
   45.9280   32.5770   45.8850 C   0  0  0  0  0  0  0  0  0  0  0  0
   45.6380   33.8850   45.6860 N   0  0  0  0  0  0  0  0  0  0  0  0
   46.3770   32.0980   47.1460 N   0  0  0  0  0  0  0  0  0  0  0  0
   47.5000   31.1820   47.1670 C   0  0  0  0  0  0  0  0  0  0  0  0
   48.0650   31.0700   48.5630 C   0  0  0  0  0  0  0  0  0  0  0  0
   47.0990   30.7710   49.5720 N   0  0  0  0  0  0  0  0  0  0  0  0
   45.8030   31.3350   49.3790 C   0  0  0  0  0  0  0  0  0  0  0  0
   45.7620   32.4830   48.3960 C   0  0  0  0  0  0  0  0  0  0  0  0
   44.6280   33.9180   42.2060 N   0  0  0  0  0  0  0  0  0  0  0  0
   44.9750   33.6360   40.9550 C   0  0  0  0  0  0  0  0  0  0  0  0
   44.2300   34.4670   40.0990 C   0  0  0  0  0  0  0  0  0  0  0  0
   43.4370   35.2430   40.8710 N   0  0  0  0  0  0  0  0  0  0  0  0
   43.6820   34.9040   42.1530 C   0  0  0  0  0  0  0  0  0  0  0  0
   42.9210   35.6360   43.0990 N   0  0  0  0  0  0  0  0  0  0  0  0
   44.9866   35.3504   44.3245 H   0  0  0  0  0  0  0  0  0  0  0  0
   45.2783   31.2852   42.8450 H   0  0  0  0  0  0  0  0  0  0  0  0
   47.1641   30.1897   46.8317 H   0  0  0  0  0  0  0  0  0  0  0  0
   48.2833   31.5639   46.4957 H   0  0  0  0  0  0  0  0  0  0  0  0
   48.8213   30.2712   48.5642 H   0  0  0  0  0  0  0  0  0  0  0  0
   48.4810   32.0575   48.8117 H   0  0  0  0  0  0  0  0  0  0  0  0
   46.9946   29.7472   49.6157 H   0  0  0  0  0  0  0  0  0  0  0  0
   45.1343   30.5429   49.0111 H   0  0  0  0  0  0  0  0  0  0  0  0
   45.4899   31.7428   50.3515 H   0  0  0  0  0  0  0  0  0  0  0  0
   46.3054   33.3412   48.8181 H   0  0  0  0  0  0  0  0  0  0  0  0
   44.7128   32.7551   48.2086 H   0  0  0  0  0  0  0  0  0  0  0  0
   45.7152   32.8844   40.6433 H   0  0  0  0  0  0  0  0  0  0  0  0
   44.2831   34.4826   39.0004 H   0  0  0  0  0  0  0  0  0  0  0  0
   43.0354   35.4512   44.1058 H   0  0  0  0  0  0  0  0  0  0  0  0
   42.2538   36.3527   42.7795 H   0  0  0  0  0  0  0  0  0  0  0  0
  1  6  2  0
  2  3  2  0
  2  1  1  0
  3  4  1  0
  4  5  2  0
  5  7  1  0
  6  5  1  0
  7  8  1  0
  7 12  1  0
  8  9  1  0
  9 10  1  0
 11 10  1  0
 12 11  1  0
 13  2  1  0
 14 13  1  0
 15 16  1  0
 15 14  2  0
 16 17  2  0
 17 13  1  0
 17 18  1  0
  1 19  1  0
  3 20  1  0
  8 21  1  0
  8 22  1  0
  9 23  1  0
  9 24  1  0
 10 25  1  0
 11 26  1  0
 11 27  1  0
 12 28  1  0
 12 29  1  0
 14 30  1  0
 15 31  1  0
 18 32  1  0
 18 33  1  0
M  ISO  8  19  14  20  14  21  13  22  13  23  13  24  13  25   5  26  13
M  ISO  5  27  13  28  13  29  13  30  14  31  14
M  END
>  <minimizedAffinity>  (1) 
-5.45151186

>  <minimizedRMSD>  (1) 
1.96917593

$$$$
