
     RDKit          3D

 37 38  0  0  1  0  0  0  0  0999 V2000
   47.0780   34.8510   41.4090 C   0  0  0  0  0  0  0  0  0  0  0  0
   48.2390   34.1320   41.0110 N   0  0  0  0  0  0  0  0  0  0  0  0
   49.3950   34.6450   41.6980 C   0  0  0  0  0  0  0  0  0  0  0  0
   50.2230   33.6670   42.4310 C   0  0  0  0  0  0  0  0  0  0  0  0
   49.3280   32.7630   43.0160 O   0  0  0  0  0  0  0  0  0  0  0  0
   48.9020   31.9760   41.9540 C   0  0  0  0  0  0  0  0  0  0  0  0
   48.2150   32.7520   40.8550 C   0  0  2  0  0  0  0  0  0  0  0  0
   49.0460   32.4940   39.5730 C   0  0  0  0  0  0  0  0  0  0  0  0
   45.8790   33.9920   41.7630 C   0  0  1  0  0  0  0  0  0  0  0  0
   44.7130   35.5860   43.3970 C   0  0  0  0  0  0  0  0  0  0  0  0
   45.4650   34.3930   43.1260 C   0  0  0  0  0  0  0  0  0  0  0  0
   45.7920   33.6280   44.2430 C   0  0  0  0  0  0  0  0  0  0  0  0
   45.3880   34.0510   45.4630 N   0  0  0  0  0  0  0  0  0  0  0  0
   44.6850   35.1730   45.6770 C   0  0  0  0  0  0  0  0  0  0  0  0
   44.3360   35.9640   44.6130 N   0  0  0  0  0  0  0  0  0  0  0  0
   44.7810   34.1540   40.8120 C   0  0  0  0  0  0  0  0  0  0  0  0
   45.1620   33.9530   39.4370 N   0  0  0  0  0  0  0  0  0  0  0  0
   46.7886   35.5157   40.5817 H   0  0  0  0  0  0  0  0  0  0  0  0
   47.3513   35.3893   42.3285 H   0  0  0  0  0  0  0  0  0  0  0  0
   50.0383   35.1308   40.9496 H   0  0  0  0  0  0  0  0  0  0  0  0
   48.9951   35.3190   42.4699 H   0  0  0  0  0  0  0  0  0  0  0  0
   50.8976   33.1425   41.7383 H   0  0  0  0  0  0  0  0  0  0  0  0
   50.8506   34.1590   43.1887 H   0  0  0  0  0  0  0  0  0  0  0  0
   49.7789   31.4695   41.5245 H   0  0  0  0  0  0  0  0  0  0  0  0
   48.1618   31.2691   42.3569 H   0  0  0  0  0  0  0  0  0  0  0  0
   47.1646   32.4256   40.8421 H   0  0  0  0  0  0  0  0  0  0  0  0
   50.0622   32.1785   39.8520 H   0  0  0  0  0  0  0  0  0  0  0  0
   48.5666   31.7024   38.9784 H   0  0  0  0  0  0  0  0  0  0  0  0
   49.0992   33.4179   38.9784 H   0  0  0  0  0  0  0  0  0  0  0  0
   46.1493   32.9265   41.7214 H   0  0  0  0  0  0  0  0  0  0  0  0
   44.4325   36.2249   42.5466 H   0  0  0  0  0  0  0  0  0  0  0  0
   46.3681   32.6971   44.1353 H   0  0  0  0  0  0  0  0  0  0  0  0
   44.3907   35.4564   46.6983 H   0  0  0  0  0  0  0  0  0  0  0  0
   43.9956   33.4260   41.0632 H   0  0  0  0  0  0  0  0  0  0  0  0
   44.4367   35.1952   40.8978 H   0  0  0  0  0  0  0  0  0  0  0  0
   46.0724   33.4727   39.3997 H   0  0  0  0  0  0  0  0  0  0  0  0
   44.4506   33.3775   38.9642 H   0  0  0  0  0  0  0  0  0  0  0  0
  1  9  1  0
  2  1  1  0
  2  3  1  0
  3  4  1  0
  4  5  1  0
  6  5  1  0
  7  2  1  0
  7  6  1  0
  8  7  1  0
  9 11  1  0
 10 15  2  0
 11 10  1  0
 11 12  2  0
 12 13  1  0
 13 14  2  0
 15 14  1  0
 16  9  1  0
 17 16  1  0
  1 18  1  0
  1 19  1  0
  3 20  1  0
  3 21  1  0
  4 22  1  0
  4 23  1  0
  6 24  1  0
  6 25  1  0
  7 26  1  6
  8 27  1  0
  8 28  1  0
  8 29  1  0
  9 30  1  1
 10 31  1  0
 12 32  1  0
 14 33  1  0
 16 34  1  0
 16 35  1  0
 17 36  1  0
 17 37  1  0
M  ISO  8  18   8  19   8  20  13  21  13  22  13  23  13  24  13  25  13
M  ISO  8  26  13  27   8  28   8  29   8  30   8  31  14  32  14  33  14
M  ISO  4  34   8  35   8  36   5  37   5
M  END
>  <minimizedAffinity>  (1) 
-4.0706296

>  <minimizedRMSD>  (1) 
0.221276447

$$$$
