
     RDKit          3D

 33 36  0  0  0  0  0  0  0  0999 V2000
   43.8280   32.8880   41.7660 C   0  0  0  0  0  0  0  0  0  0  0  0
   44.2710   34.0700   41.1450 C   0  0  0  0  0  0  0  0  0  0  0  0
   43.3400   34.7820   40.3790 C   0  0  0  0  0  0  0  0  0  0  0  0
   42.0670   34.2910   40.2820 N   0  0  0  0  0  0  0  0  0  0  0  0
   41.7010   33.1500   40.9020 C   0  0  0  0  0  0  0  0  0  0  0  0
   42.5820   32.4430   41.6490 N   0  0  0  0  0  0  0  0  0  0  0  0
   45.5940   34.4240   41.3460 N   0  0  0  0  0  0  0  0  0  0  0  0
   46.6780   34.1620   40.6120 C   0  0  0  0  0  0  0  0  0  0  0  0
   47.7810   34.7510   41.2550 C   0  0  0  0  0  0  0  0  0  0  0  0
   47.3340   35.3610   42.3730 N   0  0  0  0  0  0  0  0  0  0  0  0
   45.9970   35.1650   42.4330 C   0  0  0  0  0  0  0  0  0  0  0  0
   45.3680   35.7470   43.5570 N   0  0  0  0  0  0  0  0  0  0  0  0
   40.3280   32.6790   40.7600 C   0  0  0  0  0  0  0  0  0  0  0  0
   39.2230   33.3010   41.3020 C   0  0  0  0  0  0  0  0  0  0  0  0
   38.1210   32.5730   40.9580 N   0  0  0  0  0  0  0  0  0  0  0  0
   38.5350   31.5090   40.2100 C   0  0  0  0  0  0  0  0  0  0  0  0
   37.8250   30.4820   39.6220 C   0  0  0  0  0  0  0  0  0  0  0  0
   38.5270   29.5150   38.9030 C   0  0  0  0  0  0  0  0  0  0  0  0
   39.9080   29.5320   38.7470 C   0  0  0  0  0  0  0  0  0  0  0  0
   40.5780   30.5830   39.3550 C   0  0  0  0  0  0  0  0  0  0  0  0
   39.9040   31.5590   40.0760 C   0  0  0  0  0  0  0  0  0  0  0  0
   44.5411   32.3099   42.3720 H   0  0  0  0  0  0  0  0  0  0  0  0
   43.6253   35.7133   39.8678 H   0  0  0  0  0  0  0  0  0  0  0  0
   46.7036   33.5888   39.6735 H   0  0  0  0  0  0  0  0  0  0  0  0
   48.8244   34.7201   40.9080 H   0  0  0  0  0  0  0  0  0  0  0  0
   45.9266   36.2703   44.2463 H   0  0  0  0  0  0  0  0  0  0  0  0
   44.3510   35.6479   43.6868 H   0  0  0  0  0  0  0  0  0  0  0  0
   39.2287   34.2211   41.9049 H   0  0  0  0  0  0  0  0  0  0  0  0
   37.1478   32.7887   41.2173 H   0  0  0  0  0  0  0  0  0  0  0  0
   36.7306   30.4274   39.7182 H   0  0  0  0  0  0  0  0  0  0  0  0
   37.9589   28.6972   38.4356 H   0  0  0  0  0  0  0  0  0  0  0  0
   40.4386   28.7569   38.1746 H   0  0  0  0  0  0  0  0  0  0  0  0
   41.6724   30.6448   39.2635 H   0  0  0  0  0  0  0  0  0  0  0  0
  2  7  1  0
  2  1  2  0
  3  2  1  0
  4  3  2  0
  4  5  1  0
  5  6  2  0
  6  1  1  0
  7 11  1  0
  8  9  2  0
  8  7  1  0
  9 10  1  0
 10 11  2  0
 11 12  1  0
 13  5  1  0
 13 14  2  0
 15 14  1  0
 16 15  1  0
 17 16  2  0
 18 17  1  0
 19 18  2  0
 19 20  1  0
 20 21  2  0
 21 16  1  0
 21 13  1  0
  1 22  1  0
  3 23  1  0
  8 24  1  0
  9 25  1  0
 12 26  1  0
 12 27  1  0
 14 28  1  0
 15 29  1  0
 17 30  1  0
 18 31  1  0
 19 32  1  0
 20 33  1  0
M  ISO  8  22  14  23  14  24  14  25  14  28  14  29   9  30  14  31  14
M  ISO  2  32  14  33  14
M  END
>  <minimizedAffinity>  (1) 
-5.32121277

>  <minimizedRMSD>  (1) 
8.01490784

$$$$
