
     RDKit          3D

 24 26  0  0  0  0  0  0  0  0999 V2000
   43.5900   35.4400   42.3170 C   0  0  0  0  0  0  0  0  0  0  0  0
   43.1820   34.7400   41.1680 C   0  0  0  0  0  0  0  0  0  0  0  0
   44.1580   34.1000   40.4000 C   0  0  0  0  0  0  0  0  0  0  0  0
   45.4590   34.1810   40.7960 N   0  0  0  0  0  0  0  0  0  0  0  0
   45.8130   34.8660   41.9150 C   0  0  0  0  0  0  0  0  0  0  0  0
   44.8710   35.4980   42.6760 N   0  0  0  0  0  0  0  0  0  0  0  0
   41.8160   34.7480   40.8940 N   0  0  0  0  0  0  0  0  0  0  0  0
   41.0820   35.6520   40.2320 C   0  0  0  0  0  0  0  0  0  0  0  0
   39.7490   35.1850   40.2360 C   0  0  0  0  0  0  0  0  0  0  0  0
   39.7190   34.0110   40.9010 N   0  0  0  0  0  0  0  0  0  0  0  0
   40.9810   33.7490   41.3010 C   0  0  0  0  0  0  0  0  0  0  0  0
   41.1270   32.5400   42.0200 N   0  0  0  0  0  0  0  0  0  0  0  0
   47.2500   34.8500   42.1910 C   0  0  0  0  0  0  0  0  0  0  0  0
   47.8750   34.2080   43.2030 N   0  0  0  0  0  0  0  0  0  0  0  0
   49.1560   34.4130   43.1420 O   0  0  0  0  0  0  0  0  0  0  0  0
   49.4180   35.1760   42.1170 C   0  0  0  0  0  0  0  0  0  0  0  0
   48.2390   35.4730   41.4920 N   0  0  0  0  0  0  0  0  0  0  0  0
   42.8349   35.9507   42.9326 H   0  0  0  0  0  0  0  0  0  0  0  0
   43.8814   33.5417   39.4935 H   0  0  0  0  0  0  0  0  0  0  0  0
   41.4480   36.5819   39.7723 H   0  0  0  0  0  0  0  0  0  0  0  0
   38.8861   35.6899   39.7773 H   0  0  0  0  0  0  0  0  0  0  0  0
   40.3056   31.9449   42.1990 H   0  0  0  0  0  0  0  0  0  0  0  0
   42.0547   32.2546   42.3646 H   0  0  0  0  0  0  0  0  0  0  0  0
   50.4159   35.5211   41.8086 H   0  0  0  0  0  0  0  0  0  0  0  0
  1  6  2  0
  2  1  1  0
  3  4  1  0
  3  2  2  0
  4  5  2  0
  5 13  1  0
  5  6  1  0
  7  2  1  0
  7 11  1  0
  8  9  2  0
  8  7  1  0
  9 10  1  0
 10 11  2  0
 11 12  1  0
 13 14  2  0
 15 14  1  0
 16 15  1  0
 17 16  2  0
 17 13  1  0
  1 18  1  0
  3 19  1  0
  8 20  1  0
  9 21  1  0
 12 22  1  0
 12 23  1  0
 16 24  1  0
M  ISO  5  18  14  19  14  20  14  21  14  24  14
M  END
>  <minimizedAffinity>  (1) 
-4.88228369

>  <minimizedRMSD>  (1) 
3.54034019

$$$$
