
     RDKit          3D

 26 26  0  0  0  0  0  0  0  0999 V2000
   46.1580   34.1730   44.1950 C   0  0  0  0  0  0  0  0  0  0  0  0
   47.1660   33.2720   43.7870 C   0  0  0  0  0  0  0  0  0  0  0  0
   47.4850   32.2050   44.6600 C   0  0  0  0  0  0  0  0  0  0  0  0
   46.8080   32.1080   45.8390 N   0  0  0  0  0  0  0  0  0  0  0  0
   45.8600   32.9730   46.1990 C   0  0  0  0  0  0  0  0  0  0  0  0
   45.5520   33.9890   45.3720 N   0  0  0  0  0  0  0  0  0  0  0  0
   45.8570   35.2450   43.3140 N   0  0  0  0  0  0  0  0  0  0  0  0
   44.8410   36.1710   43.6730 C   0  0  0  0  0  0  0  0  0  0  0  0
   43.7440   35.8040   44.2270 N   0  0  0  0  0  0  0  0  0  0  0  0
   45.0030   37.5800   43.4200 N   0  0  0  0  0  0  0  0  0  0  0  0
   43.5830   34.8010   44.4240 H   0  0  0  0  0  0  0  0  0  0  0  0
   47.9020   33.3610   42.5110 C   0  0  0  0  0  0  0  0  0  0  0  0
   46.9430   33.3680   41.3560 C   0  0  0  0  0  0  0  0  0  0  0  0
   48.7830   34.5760   42.5700 C   0  0  0  0  0  0  0  0  0  0  0  0
   48.2605   31.4717   44.3936 H   0  0  0  0  0  0  0  0  0  0  0  0
   45.3363   32.8579   47.1594 H   0  0  0  0  0  0  0  0  0  0  0  0
   46.3685   35.3500   42.4262 H   0  0  0  0  0  0  0  0  0  0  0  0
   44.2581   38.2399   43.6856 H   0  0  0  0  0  0  0  0  0  0  0  0
   45.8637   37.9274   42.9735 H   0  0  0  0  0  0  0  0  0  0  0  0
   48.5447   32.4822   42.3540 H   0  0  0  0  0  0  0  0  0  0  0  0
   45.9109   33.3755   41.7364 H   0  0  0  0  0  0  0  0  0  0  0  0
   47.1143   34.2649   40.7426 H   0  0  0  0  0  0  0  0  0  0  0  0
   47.1012   32.4687   40.7426 H   0  0  0  0  0  0  0  0  0  0  0  0
   48.9742   34.8396   43.6207 H   0  0  0  0  0  0  0  0  0  0  0  0
   49.7371   34.3619   42.0663 H   0  0  0  0  0  0  0  0  0  0  0  0
   48.2829   35.4163   42.0663 H   0  0  0  0  0  0  0  0  0  0  0  0
  1  6  2  0
  2  1  1  0
  2  3  2  0
  3  4  1  0
  4  5  2  0
  6  5  1  0
  7  8  1  0
  7  1  1  0
  8  9  2  0
  9 11  1  0
 10  8  1  0
 12 14  1  0
 12  2  1  0
 13 12  1  0
  3 15  1  0
  5 16  1  0
  7 17  1  0
 10 18  1  0
 10 19  1  0
 12 20  1  0
 13 21  1  0
 13 22  1  0
 13 23  1  0
 14 24  1  0
 14 25  1  0
 14 26  1  0
M  ISO  8  15  14  16  14  20   8  21   8  22   8  23   8  24   8  25   8
M  ISO  1  26   8
M  END
>  <minimizedAffinity>  (1) 
-4.68356228

>  <minimizedRMSD>  (1) 
2.27430463

$$$$
