
     RDKit          3D

 30 33  0  0  0  0  0  0  0  0999 V2000
   44.6990   34.5580   43.1690 C   0  0  0  0  0  0  0  0  0  0  0  0
   44.1130   33.6510   42.2790 C   0  0  0  0  0  0  0  0  0  0  0  0
   44.2340   32.2840   42.5480 C   0  0  0  0  0  0  0  0  0  0  0  0
   44.9210   31.9090   43.6660 N   0  0  0  0  0  0  0  0  0  0  0  0
   45.4710   32.8170   44.4970 C   0  0  0  0  0  0  0  0  0  0  0  0
   45.3580   34.1500   44.2450 N   0  0  0  0  0  0  0  0  0  0  0  0
   46.1610   32.2940   45.6310 N   0  0  0  0  0  0  0  0  0  0  0  0
   46.9300   32.9240   46.5330 C   0  0  0  0  0  0  0  0  0  0  0  0
   47.3680   32.0070   47.4270 N   0  0  0  0  0  0  0  0  0  0  0  0
   46.8600   30.8110   47.0590 C   0  0  0  0  0  0  0  0  0  0  0  0
   47.0010   29.5430   47.6350 C   0  0  0  0  0  0  0  0  0  0  0  0
   46.3680   28.5160   47.0400 N   0  0  0  0  0  0  0  0  0  0  0  0
   45.6190   28.6740   45.9320 C   0  0  0  0  0  0  0  0  0  0  0  0
   45.4810   29.8940   45.3760 N   0  0  0  0  0  0  0  0  0  0  0  0
   46.0850   30.9680   45.9150 C   0  0  0  0  0  0  0  0  0  0  0  0
   43.4450   34.1930   41.1820 N   0  0  0  0  0  0  0  0  0  0  0  0
   43.6860   34.0480   39.8710 C   0  0  0  0  0  0  0  0  0  0  0  0
   42.7320   34.7980   39.1700 C   0  0  0  0  0  0  0  0  0  0  0  0
   41.9390   35.3780   40.0670 N   0  0  0  0  0  0  0  0  0  0  0  0
   42.3650   35.0160   41.3090 C   0  0  0  0  0  0  0  0  0  0  0  0
   41.6280   35.5480   42.3990 N   0  0  0  0  0  0  0  0  0  0  0  0
   44.6108   35.6365   42.9711 H   0  0  0  0  0  0  0  0  0  0  0  0
   43.7887   31.5334   41.8784 H   0  0  0  0  0  0  0  0  0  0  0  0
   47.1636   33.9988   46.5437 H   0  0  0  0  0  0  0  0  0  0  0  0
   47.6069   29.3920   48.5406 H   0  0  0  0  0  0  0  0  0  0  0  0
   45.1186   27.8051   45.4796 H   0  0  0  0  0  0  0  0  0  0  0  0
   44.4911   33.4461   39.4242 H   0  0  0  0  0  0  0  0  0  0  0  0
   42.6532   34.8903   38.0767 H   0  0  0  0  0  0  0  0  0  0  0  0
   40.8246   36.1682   42.2236 H   0  0  0  0  0  0  0  0  0  0  0  0
   41.8966   35.3139   43.3654 H   0  0  0  0  0  0  0  0  0  0  0  0
  1  6  2  0
  2  3  2  0
  2  1  1  0
  3  4  1  0
  4  5  2  0
  5  7  1  0
  6  5  1  0
  7 15  1  0
  7  8  1  0
  8  9  2  0
 10  9  1  0
 10 11  2  0
 12 11  1  0
 13 12  2  0
 14 15  2  0
 14 13  1  0
 15 10  1  0
 16 20  1  0
 16  2  1  0
 17 16  1  0
 18 17  2  0
 18 19  1  0
 19 20  2  0
 20 21  1  0
  1 22  1  0
  3 23  1  0
  8 24  1  0
 11 25  1  0
 13 26  1  0
 17 27  1  0
 18 28  1  0
 21 29  1  0
 21 30  1  0
M  ISO  7  22  14  23  14  24  14  25  14  26  14  27  14  28  14
M  END
>  <minimizedAffinity>  (1) 
-4.99154806

>  <minimizedRMSD>  (1) 
1.52891183

$$$$
