
     RDKit          3D

 27 29  0  0  0  0  0  0  0  0999 V2000
   43.0500   33.0900   40.9410 C   0  0  0  0  0  0  0  0  0  0  0  0
   43.4770   34.4250   40.9840 C   0  0  0  0  0  0  0  0  0  0  0  0
   42.7730   35.3510   40.2080 C   0  0  0  0  0  0  0  0  0  0  0  0
   41.7220   34.9170   39.4560 N   0  0  0  0  0  0  0  0  0  0  0  0
   41.3560   33.6100   39.4550 C   0  0  0  0  0  0  0  0  0  0  0  0
   42.0170   32.6880   40.1980 N   0  0  0  0  0  0  0  0  0  0  0  0
   44.5590   34.7030   41.7980 N   0  0  0  0  0  0  0  0  0  0  0  0
   45.8650   34.4880   41.6090 C   0  0  0  0  0  0  0  0  0  0  0  0
   46.5540   34.9540   42.7390 C   0  0  0  0  0  0  0  0  0  0  0  0
   45.6460   35.4490   43.6050 N   0  0  0  0  0  0  0  0  0  0  0  0
   44.4270   35.2940   43.0270 C   0  0  0  0  0  0  0  0  0  0  0  0
   43.3400   35.7670   43.8070 N   0  0  0  0  0  0  0  0  0  0  0  0
   40.2290   33.1630   38.6460 C   0  0  0  0  0  0  0  0  0  0  0  0
   40.0530   31.8310   38.3470 C   0  0  0  0  0  0  0  0  0  0  0  0
   38.9620   31.4600   37.5720 C   0  0  0  0  0  0  0  0  0  0  0  0
   38.0570   32.3620   37.0960 N   0  0  0  0  0  0  0  0  0  0  0  0
   38.2650   33.6460   37.4110 C   0  0  0  0  0  0  0  0  0  0  0  0
   39.3210   34.0310   38.1630 N   0  0  0  0  0  0  0  0  0  0  0  0
   43.5883   32.3440   41.5441 H   0  0  0  0  0  0  0  0  0  0  0  0
   43.0625   36.4122   40.2044 H   0  0  0  0  0  0  0  0  0  0  0  0
   46.3207   34.0256   40.7210 H   0  0  0  0  0  0  0  0  0  0  0  0
   47.6429   34.9214   42.8918 H   0  0  0  0  0  0  0  0  0  0  0  0
   43.5135   36.1852   44.7321 H   0  0  0  0  0  0  0  0  0  0  0  0
   42.3775   35.6921   43.4480 H   0  0  0  0  0  0  0  0  0  0  0  0
   40.7626   31.0752   38.7147 H   0  0  0  0  0  0  0  0  0  0  0  0
   38.8223   30.3955   37.3325 H   0  0  0  0  0  0  0  0  0  0  0  0
   37.5589   34.4078   37.0489 H   0  0  0  0  0  0  0  0  0  0  0  0
  1  2  2  0
  2  7  1  0
  3  2  1  0
  4  3  2  0
  5  4  1  0
  5  6  2  0
  6  1  1  0
  7 11  1  0
  8  7  1  0
  8  9  2  0
  9 10  1  0
 11 10  2  0
 11 12  1  0
 13  5  1  0
 14 13  2  0
 15 14  1  0
 16 17  1  0
 16 15  2  0
 17 18  2  0
 18 13  1  0
  1 19  1  0
  3 20  1  0
  8 21  1  0
  9 22  1  0
 12 23  1  0
 12 24  1  0
 14 25  1  0
 15 26  1  0
 17 27  1  0
M  ISO  7  19  14  20  14  21  14  22  14  25  14  26  14  27  14
M  END
>  <minimizedAffinity>  (1) 
-4.76320887

>  <minimizedRMSD>  (1) 
8.09433842

$$$$
