
     RDKit          3D

 25 27  0  0  0  0  0  0  0  0999 V2000
   42.5700   35.0390   41.3720 C   0  0  0  0  0  0  0  0  0  0  0  0
   42.0910   34.0330   40.5130 C   0  0  0  0  0  0  0  0  0  0  0  0
   43.0170   33.2060   39.8690 C   0  0  0  0  0  0  0  0  0  0  0  0
   44.3430   33.4240   40.1140 N   0  0  0  0  0  0  0  0  0  0  0  0
   44.7570   34.4010   40.9460 C   0  0  0  0  0  0  0  0  0  0  0  0
   43.8680   35.2220   41.5870 N   0  0  0  0  0  0  0  0  0  0  0  0
   40.7070   33.9450   40.3750 N   0  0  0  0  0  0  0  0  0  0  0  0
   39.8880   34.5180   39.4970 C   0  0  0  0  0  0  0  0  0  0  0  0
   38.5780   34.1020   39.7930 C   0  0  0  0  0  0  0  0  0  0  0  0
   38.6310   33.2850   40.8450 N   0  0  0  0  0  0  0  0  0  0  0  0
   39.9300   33.1820   41.2100 C   0  0  0  0  0  0  0  0  0  0  0  0
   40.1790   32.3340   42.3350 N   0  0  0  0  0  0  0  0  0  0  0  0
   46.2260   34.5080   41.1040 C   0  0  0  0  0  0  0  0  0  0  0  0
   46.6040   34.8830   42.3530 C   0  0  0  0  0  0  0  0  0  0  0  0
   48.4350   34.9310   42.2500 S   0  0  0  0  0  0  0  0  0  0  0  0
   48.3480   34.3970   40.4100 C   0  0  0  0  0  0  0  0  0  0  0  0
   47.2330   34.3150   40.2860 N   0  0  0  0  0  0  0  0  0  0  0  0
   41.8476   35.6940   41.8811 H   0  0  0  0  0  0  0  0  0  0  0  0
   42.6885   32.4069   39.1881 H   0  0  0  0  0  0  0  0  0  0  0  0
   40.1834   35.1970   38.6835 H   0  0  0  0  0  0  0  0  0  0  0  0
   37.6680   34.3989   39.2510 H   0  0  0  0  0  0  0  0  0  0  0  0
   39.3956   31.8573   42.8040 H   0  0  0  0  0  0  0  0  0  0  0  0
   41.1417   32.2002   42.6760 H   0  0  0  0  0  0  0  0  0  0  0  0
   45.9646   35.1051   43.2201 H   0  0  0  0  0  0  0  0  0  0  0  0
   49.1560   34.2214   39.6846 H   0  0  0  0  0  0  0  0  0  0  0  0
  1  6  2  0
  2  1  1  0
  3  4  1  0
  3  2  2  0
  4  5  2  0
  5 13  1  0
  5  6  1  0
  7  2  1  0
  7 11  1  0
  8  9  2  0
  8  7  1  0
  9 10  1  0
 10 11  2  0
 11 12  1  0
 13 14  2  0
 15 14  1  0
 16 15  1  0
 17 16  2  0
 17 13  1  0
  1 18  1  0
  3 19  1  0
  8 20  1  0
  9 21  1  0
 12 22  1  0
 12 23  1  0
 14 24  1  0
 16 25  1  0
M  ISO  6  18  14  19  14  20  14  21  14  24  14  25  14
M  END
>  <minimizedAffinity>  (1) 
-4.69037437

>  <minimizedRMSD>  (1) 
4.48035336

$$$$
