
     RDKit          3D

 25 27  0  0  0  0  0  0  0  0999 V2000
   42.9440   35.4500   41.2010 C   0  0  0  0  0  0  0  0  0  0  0  0
   42.3330   34.2200   40.8810 C   0  0  0  0  0  0  0  0  0  0  0  0
   43.0550   33.0380   41.0840 C   0  0  0  0  0  0  0  0  0  0  0  0
   44.3190   33.1400   41.5850 N   0  0  0  0  0  0  0  0  0  0  0  0
   44.8690   34.3380   41.8800 C   0  0  0  0  0  0  0  0  0  0  0  0
   44.1820   35.4890   41.6880 N   0  0  0  0  0  0  0  0  0  0  0  0
   46.1930   34.2310   42.3900 N   0  0  0  0  0  0  0  0  0  0  0  0
   46.7380   33.4730   43.3560 C   0  0  0  0  0  0  0  0  0  0  0  0
   48.0300   33.8110   43.3880 N   0  0  0  0  0  0  0  0  0  0  0  0
   48.2970   34.7520   42.4730 C   0  0  0  0  0  0  0  0  0  0  0  0
   47.1160   35.0070   41.8480 N   0  0  0  0  0  0  0  0  0  0  0  0
   41.0320   34.2860   40.3760 N   0  0  0  0  0  0  0  0  0  0  0  0
   40.5990   34.6450   39.1540 C   0  0  0  0  0  0  0  0  0  0  0  0
   39.1990   34.5410   39.1590 C   0  0  0  0  0  0  0  0  0  0  0  0
   38.8170   34.1250   40.3740 N   0  0  0  0  0  0  0  0  0  0  0  0
   39.9350   33.9650   41.1310 C   0  0  0  0  0  0  0  0  0  0  0  0
   39.7110   33.5270   42.4540 N   0  0  0  0  0  0  0  0  0  0  0  0
   42.3909   36.3882   41.0463 H   0  0  0  0  0  0  0  0  0  0  0  0
   42.6163   32.0576   40.8467 H   0  0  0  0  0  0  0  0  0  0  0  0
   46.2280   32.7306   43.9874 H   0  0  0  0  0  0  0  0  0  0  0  0
   49.2705   35.2217   42.2690 H   0  0  0  0  0  0  0  0  0  0  0  0
   41.2260   34.9615   38.3074 H   0  0  0  0  0  0  0  0  0  0  0  0
   38.5319   34.7624   38.3129 H   0  0  0  0  0  0  0  0  0  0  0  0
   38.7508   33.3518   42.7829 H   0  0  0  0  0  0  0  0  0  0  0  0
   40.5078   33.3826   43.0905 H   0  0  0  0  0  0  0  0  0  0  0  0
  1  6  2  0
  2  3  2  0
  2  1  1  0
  3  4  1  0
  4  5  2  0
  5  7  1  0
  6  5  1  0
  7  8  1  0
  8  9  2  0
 10  9  1  0
 11  7  1  0
 11 10  2  0
 12  2  1  0
 12 16  1  0
 13 14  2  0
 13 12  1  0
 14 15  1  0
 15 16  2  0
 16 17  1  0
  1 18  1  0
  3 19  1  0
  8 20  1  0
 10 21  1  0
 13 22  1  0
 14 23  1  0
 17 24  1  0
 17 25  1  0
M  ISO  6  18  14  19  14  20  14  21  14  22  14  23  14
M  END
>  <minimizedAffinity>  (1) 
-5.04883432

>  <minimizedRMSD>  (1) 
3.3952589

$$$$
