
     RDKit          3D

 33 36  0  0  0  0  0  0  0  0999 V2000
   43.8590   33.6600   42.2330 C   0  0  0  0  0  0  0  0  0  0  0  0
   42.7800   33.0960   41.5430 C   0  0  0  0  0  0  0  0  0  0  0  0
   42.6770   31.7060   41.5640 C   0  0  0  0  0  0  0  0  0  0  0  0
   43.6040   30.9910   42.2370 N   0  0  0  0  0  0  0  0  0  0  0  0
   44.6230   31.5490   42.8860 C   0  0  0  0  0  0  0  0  0  0  0  0
   44.7350   32.8920   42.8750 N   0  0  0  0  0  0  0  0  0  0  0  0
   45.7080   30.9380   43.6580 C   0  0  0  0  0  0  0  0  0  0  0  0
   47.0120   31.2390   43.5000 N   0  0  0  0  0  0  0  0  0  0  0  0
   48.0140   30.6950   44.1930 C   0  0  0  0  0  0  0  0  0  0  0  0
   47.7920   29.7660   45.1390 N   0  0  0  0  0  0  0  0  0  0  0  0
   46.5090   29.3900   45.3780 C   0  0  0  0  0  0  0  0  0  0  0  0
   46.2990   28.4400   46.3480 C   0  0  0  0  0  0  0  0  0  0  0  0
   45.0230   28.0190   46.6330 C   0  0  0  0  0  0  0  0  0  0  0  0
   43.9860   28.5930   45.9070 C   0  0  0  0  0  0  0  0  0  0  0  0
   44.2660   29.5400   44.9480 C   0  0  0  0  0  0  0  0  0  0  0  0
   45.5180   29.9860   44.6330 C   0  0  0  0  0  0  0  0  0  0  0  0
   41.9200   33.9670   40.8960 N   0  0  0  0  0  0  0  0  0  0  0  0
   42.0950   34.6620   39.7680 C   0  0  0  0  0  0  0  0  0  0  0  0
   40.9040   35.4040   39.5670 C   0  0  0  0  0  0  0  0  0  0  0  0
   40.0510   35.1320   40.5770 N   0  0  0  0  0  0  0  0  0  0  0  0
   40.6690   34.2560   41.3890 C   0  0  0  0  0  0  0  0  0  0  0  0
   39.9070   33.8600   42.5170 N   0  0  0  0  0  0  0  0  0  0  0  0
   43.9844   34.7528   42.2446 H   0  0  0  0  0  0  0  0  0  0  0  0
   41.8531   31.1992   41.0403 H   0  0  0  0  0  0  0  0  0  0  0  0
   49.0460   31.0142   43.9854 H   0  0  0  0  0  0  0  0  0  0  0  0
   47.1531   28.0163   46.8966 H   0  0  0  0  0  0  0  0  0  0  0  0
   44.8297   27.2588   47.4042 H   0  0  0  0  0  0  0  0  0  0  0  0
   42.9455   28.2917   46.0981 H   0  0  0  0  0  0  0  0  0  0  0  0
   43.4183   29.9696   44.3941 H   0  0  0  0  0  0  0  0  0  0  0  0
   42.9864   34.6589   39.1234 H   0  0  0  0  0  0  0  0  0  0  0  0
   40.7077   36.0875   38.7278 H   0  0  0  0  0  0  0  0  0  0  0  0
   38.9599   34.2395   42.6577 H   0  0  0  0  0  0  0  0  0  0  0  0
   40.3005   33.1928   43.1958 H   0  0  0  0  0  0  0  0  0  0  0  0
  1  6  2  0
  2  3  2  0
  2  1  1  0
  3  4  1  0
  4  5  2  0
  5  7  1  0
  6  5  1  0
  7 16  1  0
  8  7  2  0
  8  9  1  0
  9 10  2  0
 10 11  1  0
 11 12  2  0
 12 13  1  0
 14 13  2  0
 15 14  1  0
 16 15  2  0
 16 11  1  0
 17 21  1  0
 17  2  1  0
 18 17  1  0
 19 18  2  0
 19 20  1  0
 20 21  2  0
 21 22  1  0
  1 23  1  0
  3 24  1  0
  9 25  1  0
 12 26  1  0
 13 27  1  0
 14 28  1  0
 15 29  1  0
 18 30  1  0
 19 31  1  0
 22 32  1  0
 22 33  1  0
M  ISO  8  23  14  24  14  25  14  26  14  27  14  28  14  29  14  30  14
M  ISO  1  31  14
M  END
>  <minimizedAffinity>  (1) 
-4.23916864

>  <minimizedRMSD>  (1) 
3.70983171

$$$$
