
     RDKit          3D

 29 30  0  0  0  0  0  0  0  0999 V2000
   46.0050   34.4690   41.6600 C   0  0  0  0  0  0  0  0  0  0  0  0
   45.2690   33.9820   40.5840 C   0  0  0  0  0  0  0  0  0  0  0  0
   43.9180   34.3650   40.4820 C   0  0  0  0  0  0  0  0  0  0  0  0
   43.4170   35.1880   41.4400 N   0  0  0  0  0  0  0  0  0  0  0  0
   44.1330   35.6440   42.4620 C   0  0  0  0  0  0  0  0  0  0  0  0
   45.4260   35.2860   42.5730 N   0  0  0  0  0  0  0  0  0  0  0  0
   47.4010   34.3000   41.9670 C   0  0  0  0  0  0  0  0  0  0  0  0
   48.1780   35.4580   41.7640 C   0  0  0  0  0  0  0  0  0  0  0  0
   49.5410   35.6250   42.0010 C   0  0  0  0  0  0  0  0  0  0  0  0
   50.2000   34.5230   42.4920 C   0  0  0  0  0  0  0  0  0  0  0  0
   49.5180   33.3520   42.7190 C   0  0  0  0  0  0  0  0  0  0  0  0
   48.1760   33.2880   42.4540 C   0  0  0  0  0  0  0  0  0  0  0  0
   45.8640   33.1010   39.5700 C   0  0  0  0  0  0  0  0  0  0  0  0
   47.0980   33.6560   38.9730 C   0  0  0  0  0  0  0  0  0  0  0  0
   45.9900   31.7170   40.1340 C   0  0  0  0  0  0  0  0  0  0  0  0
   43.2882   34.0093   39.6532 H   0  0  0  0  0  0  0  0  0  0  0  0
   43.6740   36.3073   43.2099 H   0  0  0  0  0  0  0  0  0  0  0  0
   47.6442   36.3359   41.3711 H   0  0  0  0  0  0  0  0  0  0  0  0
   50.0564   36.5773   41.8076 H   0  0  0  0  0  0  0  0  0  0  0  0
   51.2779   34.5789   42.7041 H   0  0  0  0  0  0  0  0  0  0  0  0
   50.0470   32.4710   43.1114 H   0  0  0  0  0  0  0  0  0  0  0  0
   47.6749   32.3291   42.6527 H   0  0  0  0  0  0  0  0  0  0  0  0
   45.1915   33.0327   38.7022 H   0  0  0  0  0  0  0  0  0  0  0  0
   47.7857   33.9653   39.7738 H   0  0  0  0  0  0  0  0  0  0  0  0
   47.5814   32.8886   38.3506 H   0  0  0  0  0  0  0  0  0  0  0  0
   46.8446   34.5269   38.3506 H   0  0  0  0  0  0  0  0  0  0  0  0
   45.9854   31.7670   41.2329 H   0  0  0  0  0  0  0  0  0  0  0  0
   45.1440   31.1030   39.7914 H   0  0  0  0  0  0  0  0  0  0  0  0
   46.9329   31.2659   39.7914 H   0  0  0  0  0  0  0  0  0  0  0  0
  1  7  1  0
  1  6  1  0
  2  1  2  0
  3  2  1  0
  3  4  2  0
  4  5  1  0
  5  6  2  0
  7 12  1  0
  8  7  2  0
  8  9  1  0
  9 10  2  0
 10 11  1  0
 12 11  2  0
 13 15  1  0
 13  2  1  0
 14 13  1  0
  3 16  1  0
  5 17  1  0
  8 18  1  0
  9 19  1  0
 10 20  1  0
 11 21  1  0
 12 22  1  0
 13 23  1  0
 14 24  1  0
 14 25  1  0
 14 26  1  0
 15 27  1  0
 15 28  1  0
 15 29  1  0
M  ISO  8  16  14  17  14  18  14  19  14  20  14  21  14  22  14  23   8
M  ISO  6  24   8  25   8  26   8  27   8  28   8  29   8
M  END
>  <minimizedAffinity>  (1) 
-4.39587021

>  <minimizedRMSD>  (1) 
4.43054867

$$$$
