
     RDKit          3D

 26 28  0  0  0  0  0  0  0  0999 V2000
   43.9550   33.0490   41.0040 C   0  0  0  0  0  0  0  0  0  0  0  0
   44.3710   34.3170   41.4420 C   0  0  0  0  0  0  0  0  0  0  0  0
   43.5300   35.4160   41.2270 C   0  0  0  0  0  0  0  0  0  0  0  0
   42.3460   35.1920   40.6030 N   0  0  0  0  0  0  0  0  0  0  0  0
   41.9720   33.9630   40.1930 C   0  0  0  0  0  0  0  0  0  0  0  0
   42.7830   32.8750   40.3950 N   0  0  0  0  0  0  0  0  0  0  0  0
   45.6200   34.3640   42.0660 N   0  0  0  0  0  0  0  0  0  0  0  0
   46.8270   34.6550   41.5460 C   0  0  0  0  0  0  0  0  0  0  0  0
   47.7670   34.5670   42.5770 C   0  0  0  0  0  0  0  0  0  0  0  0
   47.1120   34.2240   43.7070 N   0  0  0  0  0  0  0  0  0  0  0  0
   45.7920   34.1010   43.3850 C   0  0  0  0  0  0  0  0  0  0  0  0
   44.9550   33.7410   44.4640 N   0  0  0  0  0  0  0  0  0  0  0  0
   40.6680   33.9010   39.5390 C   0  0  0  0  0  0  0  0  0  0  0  0
   40.4440   34.4190   38.1760 C   0  0  0  0  0  0  0  0  0  0  0  0
   39.1920   34.3120   37.6650 C   0  0  0  0  0  0  0  0  0  0  0  0
   38.1440   33.7110   38.4440 C   0  0  0  0  0  0  0  0  0  0  0  0
   39.0830   33.2810   40.0410 S   0  0  0  0  0  0  0  0  0  0  0  0
   44.6109   32.1811   41.1673 H   0  0  0  0  0  0  0  0  0  0  0  0
   43.8193   36.4261   41.5528 H   0  0  0  0  0  0  0  0  0  0  0  0
   47.0362   34.9153   40.4979 H   0  0  0  0  0  0  0  0  0  0  0  0
   48.8484   34.7455   42.4842 H   0  0  0  0  0  0  0  0  0  0  0  0
   45.3568   33.5956   45.4012 H   0  0  0  0  0  0  0  0  0  0  0  0
   43.9428   33.6239   44.3138 H   0  0  0  0  0  0  0  0  0  0  0  0
   41.2606   34.8744   37.5965 H   0  0  0  0  0  0  0  0  0  0  0  0
   38.9783   34.6858   36.6528 H   0  0  0  0  0  0  0  0  0  0  0  0
   37.0875   33.5451   38.1867 H   0  0  0  0  0  0  0  0  0  0  0  0
  1  2  2  0
  2  7  1  0
  3  2  1  0
  4  3  2  0
  5  6  2  0
  5  4  1  0
  6  1  1  0
  7 11  1  0
  8  7  1  0
  8  9  2  0
  9 10  1  0
 11 10  2  0
 11 12  1  0
 13 17  1  0
 13  5  1  0
 14 13  2  0
 15 14  1  0
 15 16  2  0
 16 17  1  0
  1 18  1  0
  3 19  1  0
  8 20  1  0
  9 21  1  0
 12 22  1  0
 12 23  1  0
 14 24  1  0
 15 25  1  0
 16 26  1  0
M  ISO  7  18  14  19  14  20  14  21  14  24  14  25  14  26  14
M  END
>  <minimizedAffinity>  (1) 
-4.63587236

>  <minimizedRMSD>  (1) 
7.35641003

$$$$
