
     RDKit          3D

 45 48  0  0  0  0  0  0  0  0999 V2000
   46.2040   32.3060   43.7720 C   0  0  0  0  0  0  0  0  0  0  0  0
   43.8990   34.6460   42.2060 C   0  0  0  0  0  0  0  0  0  0  0  0
   42.9470   33.8080   41.5890 C   0  0  0  0  0  0  0  0  0  0  0  0
   43.0900   32.4110   41.7050 C   0  0  0  0  0  0  0  0  0  0  0  0
   44.1550   31.9340   42.4170 N   0  0  0  0  0  0  0  0  0  0  0  0
   45.0350   32.7720   42.9880 C   0  0  0  0  0  0  0  0  0  0  0  0
   44.9180   34.1230   42.8890 N   0  0  0  0  0  0  0  0  0  0  0  0
   41.9170   34.4490   40.8980 N   0  0  0  0  0  0  0  0  0  0  0  0
   41.9390   35.1240   39.7570 C   0  0  0  0  0  0  0  0  0  0  0  0
   40.6270   35.5670   39.5050 C   0  0  0  0  0  0  0  0  0  0  0  0
   39.8380   35.1440   40.5110 N   0  0  0  0  0  0  0  0  0  0  0  0
   40.6240   34.4600   41.3650 C   0  0  0  0  0  0  0  0  0  0  0  0
   39.9450   33.9360   42.5000 N   0  0  0  0  0  0  0  0  0  0  0  0
   47.2020   31.5690   42.8960 C   0  0  0  0  0  0  0  0  0  0  0  0
   46.8600   33.5110   44.4160 C   0  0  0  0  0  0  0  0  0  0  0  0
   45.7700   31.3430   44.8640 C   0  0  0  0  0  0  0  0  0  0  0  0
   46.1450   31.7980   46.2120 C   0  0  0  0  0  0  0  0  0  0  0  0
   45.7190   32.7780   47.0810 C   0  0  0  0  0  0  0  0  0  0  0  0
   46.4290   32.7620   48.2230 N   0  0  0  0  0  0  0  0  0  0  0  0
   47.3170   31.7780   48.1110 C   0  0  0  0  0  0  0  0  0  0  0  0
   48.2740   31.3730   49.0370 C   0  0  0  0  0  0  0  0  0  0  0  0
   49.1160   30.3120   48.7250 C   0  0  0  0  0  0  0  0  0  0  0  0
   48.9970   29.6810   47.5200 C   0  0  0  0  0  0  0  0  0  0  0  0
   48.0470   30.0930   46.6150 C   0  0  0  0  0  0  0  0  0  0  0  0
   47.1820   31.1570   46.8950 C   0  0  0  0  0  0  0  0  0  0  0  0
   43.8003   35.7384   42.1233 H   0  0  0  0  0  0  0  0  0  0  0  0
   42.3675   31.7259   41.2374 H   0  0  0  0  0  0  0  0  0  0  0  0
   42.8203   35.3045   39.1239 H   0  0  0  0  0  0  0  0  0  0  0  0
   40.3020   36.1574   38.6356 H   0  0  0  0  0  0  0  0  0  0  0  0
   38.9336   34.0945   42.6136 H   0  0  0  0  0  0  0  0  0  0  0  0
   40.4648   33.3982   43.2081 H   0  0  0  0  0  0  0  0  0  0  0  0
   47.9241   31.0357   43.5317 H   0  0  0  0  0  0  0  0  0  0  0  0
   46.6688   30.8463   42.2609 H   0  0  0  0  0  0  0  0  0  0  0  0
   47.7359   32.2912   42.2609 H   0  0  0  0  0  0  0  0  0  0  0  0
   46.8080   33.4155   45.5106 H   0  0  0  0  0  0  0  0  0  0  0  0
   47.9129   33.5666   44.1024 H   0  0  0  0  0  0  0  0  0  0  0  0
   46.3352   34.4255   44.1024 H   0  0  0  0  0  0  0  0  0  0  0  0
   44.6761   31.2348   44.8219 H   0  0  0  0  0  0  0  0  0  0  0  0
   46.2836   30.3871   44.6839 H   0  0  0  0  0  0  0  0  0  0  0  0
   44.9024   33.4836   46.8681 H   0  0  0  0  0  0  0  0  0  0  0  0
   46.3083   33.3910   49.0296 H   0  0  0  0  0  0  0  0  0  0  0  0
   48.3630   31.8871   50.0054 H   0  0  0  0  0  0  0  0  0  0  0  0
   49.8767   29.9813   49.4475 H   0  0  0  0  0  0  0  0  0  0  0  0
   49.6627   28.8410   47.2725 H   0  0  0  0  0  0  0  0  0  0  0  0
   47.9651   29.5742   45.6485 H   0  0  0  0  0  0  0  0  0  0  0  0
  1 15  1  0
  1 16  1  0
  2  7  2  0
  3  4  2  0
  3  2  1  0
  4  5  1  0
  5  6  2  0
  6  1  1  0
  7  6  1  0
  8 12  1  0
  8  3  1  0
  9  8  1  0
 10  9  2  0
 10 11  1  0
 11 12  2  0
 12 13  1  0
 14  1  1  0
 16 17  1  0
 17 25  1  0
 17 18  2  0
 18 19  1  0
 20 19  1  0
 20 21  2  0
 22 21  1  0
 23 22  2  0
 24 25  2  0
 24 23  1  0
 25 20  1  0
  2 26  1  0
  4 27  1  0
  9 28  1  0
 10 29  1  0
 13 30  1  0
 13 31  1  0
 14 32  1  0
 14 33  1  0
 14 34  1  0
 15 35  1  0
 15 36  1  0
 15 37  1  0
 16 38  1  0
 16 39  1  0
 18 40  1  0
 19 41  1  0
 21 42  1  0
 22 43  1  0
 23 44  1  0
 24 45  1  0
M  ISO  8  26  14  27  14  28  14  29  14  32   8  33   8  34   8  35   8
M  ISO  8  36   8  37   8  38   8  39   8  40  14  41   9  42  14  43  14
M  ISO  2  44  14  45  14
M  END
>  <minimizedAffinity>  (1) 
-6.12153673

>  <minimizedRMSD>  (1) 
2.34106469

$$$$
