
     RDKit          3D

 42 44  0  0  0  0  0  0  0  0999 V2000
   45.9810   32.9710   44.3350 C   0  0  0  0  0  0  0  0  0  0  0  0
   43.7240   35.0040   42.3310 C   0  0  0  0  0  0  0  0  0  0  0  0
   42.9890   34.0670   41.5860 C   0  0  0  0  0  0  0  0  0  0  0  0
   43.2760   32.7030   41.7760 C   0  0  0  0  0  0  0  0  0  0  0  0
   44.2510   32.3670   42.6740 N   0  0  0  0  0  0  0  0  0  0  0  0
   44.9270   33.3250   43.3650 C   0  0  0  0  0  0  0  0  0  0  0  0
   44.6640   34.6310   43.1920 N   0  0  0  0  0  0  0  0  0  0  0  0
   42.0320   34.5690   40.7150 N   0  0  0  0  0  0  0  0  0  0  0  0
   42.1750   35.1290   39.5110 C   0  0  0  0  0  0  0  0  0  0  0  0
   40.9030   35.4710   39.0370 C   0  0  0  0  0  0  0  0  0  0  0  0
   40.0050   35.1040   39.9820 N   0  0  0  0  0  0  0  0  0  0  0  0
   40.7000   34.5550   41.0010 C   0  0  0  0  0  0  0  0  0  0  0  0
   39.9040   34.1100   42.0910 N   0  0  0  0  0  0  0  0  0  0  0  0
   47.3570   33.2040   43.7490 C   0  0  0  0  0  0  0  0  0  0  0  0
   45.7910   33.9000   45.5450 C   0  0  0  0  0  0  0  0  0  0  0  0
   45.8890   31.5570   44.8080 C   0  0  0  0  0  0  0  0  0  0  0  0
   46.5410   31.2720   46.0400 N   0  0  0  0  0  0  0  0  0  0  0  0
   45.9440   31.7420   47.1760 C   0  0  0  0  0  0  0  0  0  0  0  0
   46.4540   31.5510   48.4540 C   0  0  0  0  0  0  0  0  0  0  0  0
   47.6380   30.8350   48.5030 C   0  0  0  0  0  0  0  0  0  0  0  0
   48.2000   30.6120   49.7930 N   0  0  0  0  0  0  0  0  0  0  0  0
   48.2590   30.3540   47.4120 N   0  0  0  0  0  0  0  0  0  0  0  0
   47.6900   30.5900   46.2180 C   0  0  0  0  0  0  0  0  0  0  0  0
   48.2460   30.1530   45.1770 O   0  0  0  0  0  0  0  0  0  0  0  0
   43.5154   36.0758   42.1977 H   0  0  0  0  0  0  0  0  0  0  0  0
   42.7310   31.9278   41.2174 H   0  0  0  0  0  0  0  0  0  0  0  0
   43.1264   35.2929   38.9838 H   0  0  0  0  0  0  0  0  0  0  0  0
   40.6747   35.9501   38.0735 H   0  0  0  0  0  0  0  0  0  0  0  0
   38.8802   34.2188   42.0593 H   0  0  0  0  0  0  0  0  0  0  0  0
   40.3508   33.6787   42.9127 H   0  0  0  0  0  0  0  0  0  0  0  0
   48.0862   33.3275   44.5633 H   0  0  0  0  0  0  0  0  0  0  0  0
   47.6423   32.3414   43.1289 H   0  0  0  0  0  0  0  0  0  0  0  0
   47.3424   34.1125   43.1289 H   0  0  0  0  0  0  0  0  0  0  0  0
   45.9092   33.3218   46.4733 H   0  0  0  0  0  0  0  0  0  0  0  0
   46.5438   34.7014   45.5138 H   0  0  0  0  0  0  0  0  0  0  0  0
   44.7840   34.3415   45.5138 H   0  0  0  0  0  0  0  0  0  0  0  0
   44.8237   31.3089   44.9248 H   0  0  0  0  0  0  0  0  0  0  0  0
   46.4085   30.9539   44.0488 H   0  0  0  0  0  0  0  0  0  0  0  0
   45.0045   32.3046   47.0723 H   0  0  0  0  0  0  0  0  0  0  0  0
   45.9566   31.9380   49.3556 H   0  0  0  0  0  0  0  0  0  0  0  0
   49.0800   30.0852   49.8873 H   0  0  0  0  0  0  0  0  0  0  0  0
   47.7263   30.9776   50.6313 H   0  0  0  0  0  0  0  0  0  0  0  0
  1 16  1  0
  1 15  1  0
  2  7  2  0
  3  4  2  0
  3  2  1  0
  4  5  1  0
  5  6  2  0
  6  1  1  0
  7  6  1  0
  8 12  1  0
  8  3  1  0
  9  8  1  0
 10  9  2  0
 10 11  1  0
 11 12  2  0
 12 13  1  0
 14  1  1  0
 16 17  1  0
 17 23  1  0
 17 18  1  0
 18 19  2  0
 19 20  1  0
 20 21  1  0
 22 20  2  0
 23 22  1  0
 24 23  2  0
  2 25  1  0
  4 26  1  0
  9 27  1  0
 10 28  1  0
 13 29  1  0
 13 30  1  0
 14 31  1  0
 14 32  1  0
 14 33  1  0
 15 34  1  0
 15 35  1  0
 15 36  1  0
 16 37  1  0
 16 38  1  0
 18 39  1  0
 19 40  1  0
 21 41  1  0
 21 42  1  0
M  ISO  8  25  14  26  14  27  14  28  14  31   8  32   8  33   8  34   8
M  ISO  6  35   8  36   8  37   8  38   8  39  14  40  14
M  END
>  <minimizedAffinity>  (1) 
-5.94679737

>  <minimizedRMSD>  (1) 
1.61120355

$$$$
