
     RDKit          3D

 41 43  0  0  0  0  0  0  0  0999 V2000
   46.1120   33.4710   43.9550 C   0  0  0  0  0  0  0  0  0  0  0  0
   43.4780   35.1460   42.0650 C   0  0  0  0  0  0  0  0  0  0  0  0
   42.8010   34.0730   41.4460 C   0  0  0  0  0  0  0  0  0  0  0  0
   43.2530   32.7680   41.6830 C   0  0  0  0  0  0  0  0  0  0  0  0
   44.3350   32.6470   42.5120 N   0  0  0  0  0  0  0  0  0  0  0  0
   44.9520   33.6850   43.0810 C   0  0  0  0  0  0  0  0  0  0  0  0
   44.5220   34.9380   42.8570 N   0  0  0  0  0  0  0  0  0  0  0  0
   41.7160   34.4230   40.6350 N   0  0  0  0  0  0  0  0  0  0  0  0
   41.6890   34.9070   39.4000 C   0  0  0  0  0  0  0  0  0  0  0  0
   40.3420   35.0860   39.0440 C   0  0  0  0  0  0  0  0  0  0  0  0
   39.5820   34.6970   40.0940 N   0  0  0  0  0  0  0  0  0  0  0  0
   40.4210   34.2880   41.0750 C   0  0  0  0  0  0  0  0  0  0  0  0
   39.7860   33.8410   42.2570 N   0  0  0  0  0  0  0  0  0  0  0  0
   47.3630   34.1340   43.3470 C   0  0  0  0  0  0  0  0  0  0  0  0
   45.8140   34.2430   45.2570 C   0  0  0  0  0  0  0  0  0  0  0  0
   46.4680   32.0650   44.2300 C   0  0  0  0  0  0  0  0  0  0  0  0
   46.1590   31.4530   45.4640 N   0  0  0  0  0  0  0  0  0  0  0  0
   46.5320   31.7230   46.7230 C   0  0  0  0  0  0  0  0  0  0  0  0
   46.1530   31.0840   47.8750 C   0  0  0  0  0  0  0  0  0  0  0  0
   45.2680   30.0160   47.7540 C   0  0  0  0  0  0  0  0  0  0  0  0
   44.9100   29.4220   48.7820 O   0  0  0  0  0  0  0  0  0  0  0  0
   44.8640   29.7140   46.4850 N   0  0  0  0  0  0  0  0  0  0  0  0
   45.2910   30.3990   45.3970 C   0  0  0  0  0  0  0  0  0  0  0  0
   44.7460   29.8880   44.3830 O   0  0  0  0  0  0  0  0  0  0  0  0
   43.1331   36.1753   41.8871 H   0  0  0  0  0  0  0  0  0  0  0  0
   42.7665   31.8920   41.2292 H   0  0  0  0  0  0  0  0  0  0  0  0
   42.5628   35.1280   38.7694 H   0  0  0  0  0  0  0  0  0  0  0  0
   39.9712   35.4732   38.0835 H   0  0  0  0  0  0  0  0  0  0  0  0
   38.7581   33.8456   42.3227 H   0  0  0  0  0  0  0  0  0  0  0  0
   40.3514   33.5109   43.0521 H   0  0  0  0  0  0  0  0  0  0  0  0
   48.0223   34.4834   44.1553 H   0  0  0  0  0  0  0  0  0  0  0  0
   47.9005   33.4024   42.7258 H   0  0  0  0  0  0  0  0  0  0  0  0
   47.0593   34.9895   42.7258 H   0  0  0  0  0  0  0  0  0  0  0  0
   46.0584   33.6099   46.1227 H   0  0  0  0  0  0  0  0  0  0  0  0
   46.4235   35.1582   45.2883 H   0  0  0  0  0  0  0  0  0  0  0  0
   44.7477   34.5113   45.2883 H   0  0  0  0  0  0  0  0  0  0  0  0
   45.9749   31.4625   43.4529 H   0  0  0  0  0  0  0  0  0  0  0  0
   47.5672   32.0999   44.2525 H   0  0  0  0  0  0  0  0  0  0  0  0
   47.2305   32.5636   46.8474 H   0  0  0  0  0  0  0  0  0  0  0  0
   46.5333   31.4026   48.8568 H   0  0  0  0  0  0  0  0  0  0  0  0
   44.2069   28.9325   46.3493 H   0  0  0  0  0  0  0  0  0  0  0  0
  1 16  1  0
  1 15  1  0
  2  7  2  0
  3  4  2  0
  3  2  1  0
  4  5  1  0
  5  6  2  0
  6  1  1  0
  7  6  1  0
  8 12  1  0
  8  3  1  0
  9  8  1  0
 10  9  2  0
 10 11  1  0
 11 12  2  0
 12 13  1  0
 14  1  1  0
 16 17  1  0
 17 18  1  0
 18 19  2  0
 20 19  1  0
 20 21  2  0
 22 20  1  0
 23 17  1  0
 23 22  1  0
 24 23  2  0
  2 25  1  0
  4 26  1  0
  9 27  1  0
 10 28  1  0
 13 29  1  0
 13 30  1  0
 14 31  1  0
 14 32  1  0
 14 33  1  0
 15 34  1  0
 15 35  1  0
 15 36  1  0
 16 37  1  0
 16 38  1  0
 18 39  1  0
 19 40  1  0
 22 41  1  0
M  ISO  8  25  14  26  14  27  14  28  14  31   8  32   8  33   8  34   8
M  ISO  7  35   8  36   8  37   8  38   8  39  14  40  14  41   9
M  END
>  <minimizedAffinity>  (1) 
-5.57967663

>  <minimizedRMSD>  (1) 
1.61232972

$$$$
