
     RDKit          3D

 37 39  0  0  0  0  0  0  0  0999 V2000
   43.5800   35.1210   42.2650 C   0  0  0  0  0  0  0  0  0  0  0  0
   42.8690   34.1120   41.5770 C   0  0  0  0  0  0  0  0  0  0  0  0
   43.2580   32.7660   41.7470 C   0  0  0  0  0  0  0  0  0  0  0  0
   44.3180   32.5520   42.5850 N   0  0  0  0  0  0  0  0  0  0  0  0
   44.9660   33.5350   43.2200 C   0  0  0  0  0  0  0  0  0  0  0  0
   44.6030   34.8230   43.0640 N   0  0  0  0  0  0  0  0  0  0  0  0
   41.8170   34.5420   40.7670 N   0  0  0  0  0  0  0  0  0  0  0  0
   41.8480   35.1060   39.5510 C   0  0  0  0  0  0  0  0  0  0  0  0
   40.5190   35.3500   39.1700 C   0  0  0  0  0  0  0  0  0  0  0  0
   39.7170   34.9210   40.1790 N   0  0  0  0  0  0  0  0  0  0  0  0
   40.5120   34.4300   41.1490 C   0  0  0  0  0  0  0  0  0  0  0  0
   39.8320   33.9370   42.2820 N   0  0  0  0  0  0  0  0  0  0  0  0
   46.1030   33.2410   44.1030 C   0  0  0  0  0  0  0  0  0  0  0  0
   47.3760   33.9250   43.6060 C   0  0  0  0  0  0  0  0  0  0  0  0
   45.7460   33.8370   45.4810 C   0  0  0  0  0  0  0  0  0  0  0  0
   46.4140   31.7950   44.2750 C   0  0  0  0  0  0  0  0  0  0  0  0
   46.4620   31.2990   45.6240 N   0  0  0  0  0  0  0  0  0  0  0  0
   47.2840   31.4120   46.6800 C   0  0  0  0  0  0  0  0  0  0  0  0
   46.8050   30.6540   47.7090 N   0  0  0  0  0  0  0  0  0  0  0  0
   45.6550   30.0590   47.2750 C   0  0  0  0  0  0  0  0  0  0  0  0
   45.4830   30.4730   46.0140 N   0  0  0  0  0  0  0  0  0  0  0  0
   43.2829   36.1725   42.1382 H   0  0  0  0  0  0  0  0  0  0  0  0
   42.7407   31.9399   41.2371 H   0  0  0  0  0  0  0  0  0  0  0  0
   42.7479   35.3351   38.9613 H   0  0  0  0  0  0  0  0  0  0  0  0
   40.1872   35.8060   38.2255 H   0  0  0  0  0  0  0  0  0  0  0  0
   38.8033   33.9710   42.3204 H   0  0  0  0  0  0  0  0  0  0  0  0
   40.3641   33.5430   43.0710 H   0  0  0  0  0  0  0  0  0  0  0  0
   47.9785   34.2488   44.4675 H   0  0  0  0  0  0  0  0  0  0  0  0
   47.9580   33.2181   42.9964 H   0  0  0  0  0  0  0  0  0  0  0  0
   47.1078   34.8005   42.9964 H   0  0  0  0  0  0  0  0  0  0  0  0
   46.1370   33.1842   46.2753 H   0  0  0  0  0  0  0  0  0  0  0  0
   46.1937   34.8373   45.5750 H   0  0  0  0  0  0  0  0  0  0  0  0
   44.6528   33.9143   45.5750 H   0  0  0  0  0  0  0  0  0  0  0  0
   45.6441   31.2225   43.7370 H   0  0  0  0  0  0  0  0  0  0  0  0
   47.4355   31.6716   43.8860 H   0  0  0  0  0  0  0  0  0  0  0  0
   48.2000   32.0203   46.7108 H   0  0  0  0  0  0  0  0  0  0  0  0
   45.0041   29.3794   47.8446 H   0  0  0  0  0  0  0  0  0  0  0  0
  1  6  2  0
  2  3  2  0
  2  1  1  0
  3  4  1  0
  4  5  2  0
  5 13  1  0
  6  5  1  0
  7 11  1  0
  7  2  1  0
  8  7  1  0
  9  8  2  0
  9 10  1  0
 10 11  2  0
 11 12  1  0
 13 16  1  0
 13 15  1  0
 14 13  1  0
 16 17  1  0
 17 21  1  0
 17 18  1  0
 18 19  2  0
 20 19  1  0
 21 20  2  0
  1 22  1  0
  3 23  1  0
  8 24  1  0
  9 25  1  0
 12 26  1  0
 12 27  1  0
 14 28  1  0
 14 29  1  0
 14 30  1  0
 15 31  1  0
 15 32  1  0
 15 33  1  0
 16 34  1  0
 16 35  1  0
 18 36  1  0
 20 37  1  0
M  ISO  8  22  14  23  14  24  14  25  14  28   8  29   8  30   8  31   8
M  ISO  6  32   8  33   8  34   8  35   8  36  14  37  14
M  END
>  <minimizedAffinity>  (1) 
-5.05316639

>  <minimizedRMSD>  (1) 
1.34177577

$$$$
