
     RDKit          3D

 29 30  0  0  0  0  0  0  0  0999 V2000
   45.5360   33.9380   43.8120 C   0  0  0  0  0  0  0  0  0  0  0  0
   45.5750   34.9720   42.8830 C   0  0  0  0  0  0  0  0  0  0  0  0
   45.1270   36.2440   43.2820 C   0  0  0  0  0  0  0  0  0  0  0  0
   44.6870   36.3800   44.5530 N   0  0  0  0  0  0  0  0  0  0  0  0
   44.6510   35.3920   45.4390 C   0  0  0  0  0  0  0  0  0  0  0  0
   45.0780   34.1710   45.0620 N   0  0  0  0  0  0  0  0  0  0  0  0
   45.9870   32.5760   43.6910 C   0  0  0  0  0  0  0  0  0  0  0  0
   47.1510   32.2940   44.4360 C   0  0  0  0  0  0  0  0  0  0  0  0
   47.7930   31.0520   44.5360 C   0  0  0  0  0  0  0  0  0  0  0  0
   47.2470   30.0180   43.8510 C   0  0  0  0  0  0  0  0  0  0  0  0
   46.1250   30.2120   43.1120 C   0  0  0  0  0  0  0  0  0  0  0  0
   45.5420   31.4500   43.0540 C   0  0  0  0  0  0  0  0  0  0  0  0
   46.0940   34.7630   41.5190 C   0  0  0  0  0  0  0  0  0  0  0  0
   47.4900   34.2620   41.5040 C   0  0  0  0  0  0  0  0  0  0  0  0
   45.1170   33.9670   40.7260 C   0  0  0  0  0  0  0  0  0  0  0  0
   45.1343   37.0960   42.5862 H   0  0  0  0  0  0  0  0  0  0  0  0
   44.2802   35.5666   46.4598 H   0  0  0  0  0  0  0  0  0  0  0  0
   47.5986   33.1304   44.9929 H   0  0  0  0  0  0  0  0  0  0  0  0
   48.7005   30.9223   45.1440 H   0  0  0  0  0  0  0  0  0  0  0  0
   47.7126   29.0223   43.8938 H   0  0  0  0  0  0  0  0  0  0  0  0
   45.6822   29.3715   42.5575 H   0  0  0  0  0  0  0  0  0  0  0  0
   44.6345   31.5477   42.4401 H   0  0  0  0  0  0  0  0  0  0  0  0
   46.1831   35.7343   41.0105 H   0  0  0  0  0  0  0  0  0  0  0  0
   47.8450   34.1346   42.5373 H   0  0  0  0  0  0  0  0  0  0  0  0
   47.5268   33.2946   40.9818 H   0  0  0  0  0  0  0  0  0  0  0  0
   48.1335   34.9853   40.9818 H   0  0  0  0  0  0  0  0  0  0  0  0
   44.4482   33.4221   41.4085 H   0  0  0  0  0  0  0  0  0  0  0  0
   44.5232   34.6417   40.0918 H   0  0  0  0  0  0  0  0  0  0  0  0
   45.6578   33.2491   40.0918 H   0  0  0  0  0  0  0  0  0  0  0  0
  1  6  2  0
  2  3  2  0
  2  1  1  0
  3  4  1  0
  4  5  2  0
  6  5  1  0
  7  1  1  0
  7  8  2  0
  8  9  1  0
 10  9  2  0
 11 10  1  0
 12 11  2  0
 12  7  1  0
 13  2  1  0
 14 13  1  0
 15 13  1  0
  3 16  1  0
  5 17  1  0
  8 18  1  0
  9 19  1  0
 10 20  1  0
 11 21  1  0
 12 22  1  0
 13 23  1  0
 14 24  1  0
 14 25  1  0
 14 26  1  0
 15 27  1  0
 15 28  1  0
 15 29  1  0
M  ISO  8  16  14  17  14  18  14  19  14  20  14  21  14  22  14  23   8
M  ISO  6  24   8  25   8  26   8  27   8  28   8  29   8
M  END
>  <minimizedAffinity>  (1) 
-3.82146406

>  <minimizedRMSD>  (1) 
5.10854483

$$$$
