
     RDKit          3D

 27 28  0  0  1  0  0  0  0  0999 V2000
   46.9270   34.1680   43.2750 C   0  0  2  0  0  0  0  0  0  0  0  0
   46.2630   33.3460   42.0800 C   0  0  0  0  0  0  0  0  0  0  0  0
   46.6910   33.6910   40.7520 C   0  0  0  0  0  0  0  0  0  0  0  0
   47.7380   34.7210   40.5820 C   0  0  0  0  0  0  0  0  0  0  0  0
   48.4190   35.2590   41.7600 C   0  0  0  0  0  0  0  0  0  0  0  0
   48.3330   34.3590   42.9430 C   0  0  0  0  0  0  0  0  0  0  0  0
   45.6970   33.8060   45.3650 C   0  0  0  0  0  0  0  0  0  0  0  0
   46.6650   33.3400   44.4800 C   0  0  0  0  0  0  0  0  0  0  0  0
   47.4310   32.1400   44.8060 C   0  0  0  0  0  0  0  0  0  0  0  0
   47.1580   31.5220   45.9750 N   0  0  0  0  0  0  0  0  0  0  0  0
   46.1950   32.0090   46.8150 C   0  0  0  0  0  0  0  0  0  0  0  0
   45.4870   33.1270   46.5070 N   0  0  0  0  0  0  0  0  0  0  0  0
   44.9280   35.0230   45.2920 C   0  0  0  0  0  0  0  0  0  0  0  0
   44.5570   35.7370   44.3480 O   0  0  0  0  0  0  0  0  0  0  0  0
   44.4040   35.6980   46.3640 O   0  0  0  0  0  0  0  0  0  0  0  0
   46.5280   35.1776   43.4526 H   0  0  0  0  0  0  0  0  0  0  0  0
   45.5178   32.5577   42.2625 H   0  0  0  0  0  0  0  0  0  0  0  0
   46.2465   33.1964   39.8757 H   0  0  0  0  0  0  0  0  0  0  0  0
   48.5138   34.2846   39.9357 H   0  0  0  0  0  0  0  0  0  0  0  0
   47.1865   35.5862   40.1855 H   0  0  0  0  0  0  0  0  0  0  0  0
   49.4798   35.4121   41.5123 H   0  0  0  0  0  0  0  0  0  0  0  0
   47.9196   36.2021   42.0269 H   0  0  0  0  0  0  0  0  0  0  0  0
   48.7937   33.3887   42.7058 H   0  0  0  0  0  0  0  0  0  0  0  0
   48.8654   34.8047   43.7962 H   0  0  0  0  0  0  0  0  0  0  0  0
   48.2025   31.7536   44.1238 H   0  0  0  0  0  0  0  0  0  0  0  0
   45.9893   31.4846   47.7598 H   0  0  0  0  0  0  0  0  0  0  0  0
   43.8866   36.5298   46.2204 H   0  0  0  0  0  0  0  0  0  0  0  0
  1  8  1  0
  2  1  1  0
  3  2  2  0
  4  3  1  0
  4  5  1  0
  5  6  1  0
  6  1  1  0
  7 12  2  0
  8  9  2  0
  8  7  1  0
  9 10  1  0
 10 11  2  0
 12 11  1  0
 13  7  1  0
 13 15  1  0
 14 13  2  0
  1 16  1  1
  2 17  1  0
  3 18  1  0
  4 19  1  0
  4 20  1  0
  5 21  1  0
  5 22  1  0
  6 23  1  0
  6 24  1  0
  9 25  1  0
 11 26  1  0
 15 27  1  0
M  ISO  8  16  13  17  13  18  13  19  13  20  13  21  13  22  13  23  13
M  ISO  4  24  13  25  14  26  14  27   3
M  END
>  <minimizedAffinity>  (1) 
-5.26507092

>  <minimizedRMSD>  (1) 
2.90040994

$$$$
