
     RDKit          3D

 26 27  0  0  1  0  0  0  0  0999 V2000
   46.2210   35.0940   42.8270 C   0  0  2  0  0  0  0  0  0  0  0  0
   46.2210   33.8450   43.8170 C   0  0  0  0  0  0  0  0  0  0  0  0
   45.4930   34.0080   45.0520 C   0  0  0  0  0  0  0  0  0  0  0  0
   44.7610   35.2550   45.2910 C   0  0  0  0  0  0  0  0  0  0  0  0
   44.6980   36.2730   44.2440 C   0  0  0  0  0  0  0  0  0  0  0  0
   44.9070   35.7180   42.8790 C   0  0  0  0  0  0  0  0  0  0  0  0
   47.8830   34.8010   41.0510 C   0  0  0  0  0  0  0  0  0  0  0  0
   46.6060   34.5110   41.5160 C   0  0  0  0  0  0  0  0  0  0  0  0
   45.6840   33.7600   40.6820 C   0  0  0  0  0  0  0  0  0  0  0  0
   46.1310   33.3700   39.4590 N   0  0  0  0  0  0  0  0  0  0  0  0
   47.3970   33.6730   39.0430 C   0  0  0  0  0  0  0  0  0  0  0  0
   48.2560   34.3770   39.8310 N   0  0  0  0  0  0  0  0  0  0  0  0
   48.9060   35.5710   41.6950 C   0  0  0  0  0  0  0  0  0  0  0  0
   49.8430   35.3960   42.4900 O   0  0  0  0  0  0  0  0  0  0  0  0
   46.9207   35.9066   43.0723 H   0  0  0  0  0  0  0  0  0  0  0  0
   46.7469   32.9104   43.5723 H   0  0  0  0  0  0  0  0  0  0  0  0
   45.4875   33.2061   45.8050 H   0  0  0  0  0  0  0  0  0  0  0  0
   43.7234   34.9751   45.5258 H   0  0  0  0  0  0  0  0  0  0  0  0
   45.3427   35.7434   46.0866 H   0  0  0  0  0  0  0  0  0  0  0  0
   43.7083   36.7517   44.2798 H   0  0  0  0  0  0  0  0  0  0  0  0
   45.5091   36.9912   44.4346 H   0  0  0  0  0  0  0  0  0  0  0  0
   44.8521   36.5284   42.1372 H   0  0  0  0  0  0  0  0  0  0  0  0
   44.1288   34.9742   42.6528 H   0  0  0  0  0  0  0  0  0  0  0  0
   44.6676   33.5173   41.0254 H   0  0  0  0  0  0  0  0  0  0  0  0
   47.7298   33.3405   38.0487 H   0  0  0  0  0  0  0  0  0  0  0  0
   48.8419   36.6279   41.3971 H   0  0  0  0  0  0  0  0  0  0  0  0
  1  6  1  0
  1  2  1  0
  2  3  2  0
  3  4  1  0
  5  4  1  0
  6  5  1  0
  7  8  2  0
  7 13  1  0
  8  1  1  0
  9  8  1  0
 10  9  2  0
 11 10  1  0
 11 12  2  0
 12  7  1  0
 13 14  2  0
  1 15  1  1
  2 16  1  0
  3 17  1  0
  4 18  1  0
  4 19  1  0
  5 20  1  0
  5 21  1  0
  6 22  1  0
  6 23  1  0
  9 24  1  0
 11 25  1  0
 13 26  1  0
M  ISO  8  15  13  16  13  17  13  18  13  19  13  20  13  21  13  22  13
M  ISO  4  23  13  24  14  25  14  26   6
M  END
>  <minimizedAffinity>  (1) 
-4.85994387

>  <minimizedRMSD>  (1) 
5.99083805

$$$$
