
     RDKit          3D

 25 26  0  0  1  0  0  0  0  0999 V2000
   46.4100   33.4150   45.4650 C   0  0  2  0  0  0  0  0  0  0  0  0
   45.1170   34.2160   45.0660 C   0  0  0  0  0  0  0  0  0  0  0  0
   45.1450   34.9400   43.8200 C   0  0  0  0  0  0  0  0  0  0  0  0
   46.3410   34.8660   42.9870 C   0  0  0  0  0  0  0  0  0  0  0  0
   47.5130   34.1340   43.4800 C   0  0  0  0  0  0  0  0  0  0  0  0
   47.1000   32.9420   44.2810 C   0  0  0  0  0  0  0  0  0  0  0  0
   45.1620   32.7940   47.4930 C   0  0  0  0  0  0  0  0  0  0  0  0
   45.9460   32.3490   46.4020 C   0  0  0  0  0  0  0  0  0  0  0  0
   46.3600   30.9640   46.2950 C   0  0  0  0  0  0  0  0  0  0  0  0
   45.9540   30.1360   47.2930 N   0  0  0  0  0  0  0  0  0  0  0  0
   45.1950   30.5930   48.3360 C   0  0  0  0  0  0  0  0  0  0  0  0
   44.8060   31.8970   48.4330 N   0  0  0  0  0  0  0  0  0  0  0  0
   44.7320   34.0900   47.6650 O   0  0  0  0  0  0  0  0  0  0  0  0
   47.1678   34.0272   45.9759 H   0  0  0  0  0  0  0  0  0  0  0  0
   44.2267   34.2235   45.7120 H   0  0  0  0  0  0  0  0  0  0  0  0
   44.2787   35.5387   43.5020 H   0  0  0  0  0  0  0  0  0  0  0  0
   46.6646   35.9000   42.7969 H   0  0  0  0  0  0  0  0  0  0  0  0
   46.0157   34.2811   42.1140 H   0  0  0  0  0  0  0  0  0  0  0  0
   48.1159   33.8003   42.6226 H   0  0  0  0  0  0  0  0  0  0  0  0
   48.0999   34.8044   44.1251 H   0  0  0  0  0  0  0  0  0  0  0  0
   46.4274   32.3070   43.6857 H   0  0  0  0  0  0  0  0  0  0  0  0
   47.9814   32.3479   44.5641 H   0  0  0  0  0  0  0  0  0  0  0  0
   46.9689   30.6033   45.4529 H   0  0  0  0  0  0  0  0  0  0  0  0
   44.8888   29.8863   49.1213 H   0  0  0  0  0  0  0  0  0  0  0  0
   44.9698   34.7829   46.9991 H   0  0  0  0  0  0  0  0  0  0  0  0
  1  8  1  0
  2  1  1  0
  3  2  2  0
  4  5  1  0
  4  3  1  0
  5  6  1  0
  6  1  1  0
  7 13  1  0
  7 12  2  0
  8  7  1  0
  9  8  2  0
  9 10  1  0
 10 11  2  0
 11 12  1  0
  1 14  1  1
  2 15  1  0
  3 16  1  0
  4 17  1  0
  4 18  1  0
  5 19  1  0
  5 20  1  0
  6 21  1  0
  6 22  1  0
  9 23  1  0
 11 24  1  0
 13 25  1  0
M  ISO  8  14  13  15  13  16  13  17  13  18  13  19  13  20  13  21  13
M  ISO  4  22  13  23  14  24  14  25   3
M  END
>  <minimizedAffinity>  (1) 
-4.75533676

>  <minimizedRMSD>  (1) 
0.862263322

$$$$
