
     RDKit          3D

 33 34  0  0  1  0  0  0  0  0999 V2000
   46.8560   32.7920   45.4710 C   0  0  2  0  0  0  0  0  0  0  0  0
   46.0810   31.4730   45.0300 C   0  0  0  0  0  0  0  0  0  0  0  0
   46.2360   30.3450   45.9280 C   0  0  0  0  0  0  0  0  0  0  0  0
   47.0310   30.5140   47.1790 C   0  0  0  0  0  0  0  0  0  0  0  0
   47.3590   31.8690   47.6120 C   0  0  0  0  0  0  0  0  0  0  0  0
   46.6130   32.9380   46.9030 C   0  0  0  0  0  0  0  0  0  0  0  0
   46.9700   34.1790   43.4520 C   0  0  0  0  0  0  0  0  0  0  0  0
   46.2660   33.8530   44.6160 C   0  0  0  0  0  0  0  0  0  0  0  0
   45.0680   34.5980   44.9880 C   0  0  0  0  0  0  0  0  0  0  0  0
   44.6770   35.5980   44.1690 N   0  0  0  0  0  0  0  0  0  0  0  0
   45.3910   35.8860   43.0370 C   0  0  0  0  0  0  0  0  0  0  0  0
   46.5140   35.1780   42.7000 N   0  0  0  0  0  0  0  0  0  0  0  0
   48.2170   33.6590   42.9050 C   0  0  0  0  0  0  0  0  0  0  0  0
   49.2250   34.7690   42.5950 C   0  0  0  0  0  0  0  0  0  0  0  0
   47.9780   32.9520   41.5670 C   0  0  0  0  0  0  0  0  0  0  0  0
   47.9478   32.8064   45.3378 H   0  0  0  0  0  0  0  0  0  0  0  0
   45.4742   31.4213   44.1139 H   0  0  0  0  0  0  0  0  0  0  0  0
   45.7729   29.3762   45.6896 H   0  0  0  0  0  0  0  0  0  0  0  0
   46.4623   30.0406   47.9929 H   0  0  0  0  0  0  0  0  0  0  0  0
   48.0053   30.0600   46.9453 H   0  0  0  0  0  0  0  0  0  0  0  0
   47.1373   31.9497   48.6864 H   0  0  0  0  0  0  0  0  0  0  0  0
   48.4232   32.0230   47.3802 H   0  0  0  0  0  0  0  0  0  0  0  0
   46.9639   33.9241   47.2415 H   0  0  0  0  0  0  0  0  0  0  0  0
   45.5370   32.8552   47.1158 H   0  0  0  0  0  0  0  0  0  0  0  0
   44.5047   34.3544   45.9009 H   0  0  0  0  0  0  0  0  0  0  0  0
   45.0552   36.7045   42.3833 H   0  0  0  0  0  0  0  0  0  0  0  0
   48.6054   32.9768   43.6755 H   0  0  0  0  0  0  0  0  0  0  0  0
   49.6076   35.1903   43.5364 H   0  0  0  0  0  0  0  0  0  0  0  0
   50.0607   34.3533   42.0130 H   0  0  0  0  0  0  0  0  0  0  0  0
   48.7309   35.5609   42.0130 H   0  0  0  0  0  0  0  0  0  0  0  0
   47.6307   31.9248   41.7520 H   0  0  0  0  0  0  0  0  0  0  0  0
   47.2150   33.4994   40.9942 H   0  0  0  0  0  0  0  0  0  0  0  0
   48.9167   32.9242   40.9942 H   0  0  0  0  0  0  0  0  0  0  0  0
  1  6  1  0
  2  1  1  0
  2  3  2  0
  3  4  1  0
  4  5  1  0
  6  5  1  0
  7  8  2  0
  8  9  1  0
  8  1  1  0
 10  9  2  0
 11 10  1  0
 12 11  2  0
 12  7  1  0
 13  7  1  0
 14 13  1  0
 15 13  1  0
  1 16  1  1
  2 17  1  0
  3 18  1  0
  4 19  1  0
  4 20  1  0
  5 21  1  0
  5 22  1  0
  6 23  1  0
  6 24  1  0
  9 25  1  0
 11 26  1  0
 13 27  1  0
 14 28  1  0
 14 29  1  0
 14 30  1  0
 15 31  1  0
 15 32  1  0
 15 33  1  0
M  ISO  8  16  13  17  13  18  13  19  13  20  13  21  13  22  13  23  13
M  ISO  8  24  13  25  14  26  14  27   8  28   8  29   8  30   8  31   8
M  ISO  2  32   8  33   8
M  END
>  <minimizedAffinity>  (1) 
-4.55536079

>  <minimizedRMSD>  (1) 
5.57184315

$$$$
