
     RDKit          3D

 27 28  0  0  1  0  0  0  0  0999 V2000
   46.1330   33.6660   44.4350 C   0  0  2  0  0  0  0  0  0  0  0  0
   44.9720   34.4840   45.1390 C   0  0  0  0  0  0  0  0  0  0  0  0
   44.6500   35.7630   44.5530 C   0  0  0  0  0  0  0  0  0  0  0  0
   45.3790   36.2070   43.3420 C   0  0  0  0  0  0  0  0  0  0  0  0
   46.3020   35.2750   42.6850 C   0  0  0  0  0  0  0  0  0  0  0  0
   46.0030   33.8500   42.9960 C   0  0  0  0  0  0  0  0  0  0  0  0
   46.4280   31.9870   46.2060 C   0  0  0  0  0  0  0  0  0  0  0  0
   45.9490   32.2700   44.9170 C   0  0  0  0  0  0  0  0  0  0  0  0
   45.4160   31.2060   44.0810 C   0  0  0  0  0  0  0  0  0  0  0  0
   45.4080   29.9610   44.5980 N   0  0  0  0  0  0  0  0  0  0  0  0
   45.8830   29.7250   45.8590 C   0  0  0  0  0  0  0  0  0  0  0  0
   46.3830   30.7180   46.6500 N   0  0  0  0  0  0  0  0  0  0  0  0
   47.0140   32.9230   47.1820 C   0  0  0  0  0  0  0  0  0  0  0  0
   47.1579   33.9865   44.6735 H   0  0  0  0  0  0  0  0  0  0  0  0
   44.4424   34.0991   46.0230 H   0  0  0  0  0  0  0  0  0  0  0  0
   43.8729   36.4004   45.0000 H   0  0  0  0  0  0  0  0  0  0  0  0
   44.6219   36.4903   42.5960 H   0  0  0  0  0  0  0  0  0  0  0  0
   46.0335   37.0115   43.7086 H   0  0  0  0  0  0  0  0  0  0  0  0
   47.3255   35.5002   43.0191 H   0  0  0  0  0  0  0  0  0  0  0  0
   46.1883   35.4074   41.5989 H   0  0  0  0  0  0  0  0  0  0  0  0
   44.9781   33.6061   42.6797 H   0  0  0  0  0  0  0  0  0  0  0  0
   46.7004   33.1880   42.4618 H   0  0  0  0  0  0  0  0  0  0  0  0
   45.0353   31.4086   43.0691 H   0  0  0  0  0  0  0  0  0  0  0  0
   45.8610   28.6969   46.2496 H   0  0  0  0  0  0  0  0  0  0  0  0
   46.7953   32.5737   48.2019 H   0  0  0  0  0  0  0  0  0  0  0  0
   48.1033   32.9703   47.0363 H   0  0  0  0  0  0  0  0  0  0  0  0
   46.5808   33.9235   47.0363 H   0  0  0  0  0  0  0  0  0  0  0  0
  1  8  1  0
  1  2  1  0
  3  2  2  0
  4  3  1  0
  5  6  1  0
  5  4  1  0
  6  1  1  0
  7 12  2  0
  7 13  1  0
  8  7  1  0
  9 10  1  0
  9  8  2  0
 10 11  2  0
 11 12  1  0
  1 14  1  1
  2 15  1  0
  3 16  1  0
  4 17  1  0
  4 18  1  0
  5 19  1  0
  5 20  1  0
  6 21  1  0
  6 22  1  0
  9 23  1  0
 11 24  1  0
 13 25  1  0
 13 26  1  0
 13 27  1  0
M  ISO  8  14  13  15  13  16  13  17  13  18  13  19  13  20  13  21  13
M  ISO  6  22  13  23  14  24  14  25   8  26   8  27   8
M  END
>  <minimizedAffinity>  (1) 
-3.63693213

>  <minimizedRMSD>  (1) 
1.61034584

$$$$
