
     RDKit          3D

 35 37  0  0  1  0  0  0  0  0999 V2000
   46.8180   34.1450   41.3070 C   0  0  0  0  0  0  0  0  0  0  0  0
   45.6370   33.4630   41.6850 C   0  0  0  0  0  0  0  0  0  0  0  0
   44.8900   32.5980   40.7740 C   0  0  0  0  0  0  0  0  0  0  0  0
   45.3790   32.4680   39.5340 N   0  0  0  0  0  0  0  0  0  0  0  0
   46.5200   33.1250   39.1740 C   0  0  0  0  0  0  0  0  0  0  0  0
   47.2000   33.9280   40.0390 N   0  0  0  0  0  0  0  0  0  0  0  0
   45.2820   33.7820   43.0970 C   0  0  2  0  0  0  0  0  0  0  0  0
   44.5210   35.1760   42.9720 C   0  0  0  0  0  0  0  0  0  0  0  0
   44.2960   35.8600   44.2140 C   0  0  0  0  0  0  0  0  0  0  0  0
   44.7560   35.2500   45.4660 C   0  0  0  0  0  0  0  0  0  0  0  0
   45.4570   33.9690   45.3170 C   0  0  0  0  0  0  0  0  0  0  0  0
   46.3140   33.8890   44.0600 C   0  0  0  0  0  0  0  0  0  0  0  0
   47.0030   32.9420   37.8100 C   0  0  0  0  0  0  0  0  0  0  0  0
   48.2430   33.3900   37.4310 C   0  0  0  0  0  0  0  0  0  0  0  0
   48.7160   33.2210   36.1310 C   0  0  0  0  0  0  0  0  0  0  0  0
   47.8650   32.5860   35.2730 N   0  0  0  0  0  0  0  0  0  0  0  0
   46.6500   32.1470   35.6430 C   0  0  0  0  0  0  0  0  0  0  0  0
   46.2390   32.3350   36.9130 N   0  0  0  0  0  0  0  0  0  0  0  0
   47.6490   35.0800   42.0200 C   0  0  0  0  0  0  0  0  0  0  0  0
   46.8170   36.1530   42.4380 F   0  0  0  0  0  0  0  0  0  0  0  0
   48.7680   35.5890   41.5440 F   0  0  0  0  0  0  0  0  0  0  0  0
   48.0980   34.5360   43.2230 F   0  0  0  0  0  0  0  0  0  0  0  0
   43.9727   32.0801   41.0908 H   0  0  0  0  0  0  0  0  0  0  0  0
   44.7149   32.9287   43.4973 H   0  0  0  0  0  0  0  0  0  0  0  0
   44.1921   35.5844   42.0050 H   0  0  0  0  0  0  0  0  0  0  0  0
   43.7831   36.8330   44.2265 H   0  0  0  0  0  0  0  0  0  0  0  0
   45.4403   35.9571   45.9576 H   0  0  0  0  0  0  0  0  0  0  0  0
   43.8500   35.0356   46.0518 H   0  0  0  0  0  0  0  0  0  0  0  0
   46.1076   33.8241   46.1920 H   0  0  0  0  0  0  0  0  0  0  0  0
   44.6882   33.1865   45.2353 H   0  0  0  0  0  0  0  0  0  0  0  0
   46.9693   33.0055   44.0627 H   0  0  0  0  0  0  0  0  0  0  0  0
   47.0161   34.7227   43.9114 H   0  0  0  0  0  0  0  0  0  0  0  0
   48.8800   33.8953   38.1718 H   0  0  0  0  0  0  0  0  0  0  0  0
   49.7089   33.5756   35.8172 H   0  0  0  0  0  0  0  0  0  0  0  0
   45.9976   31.6395   34.9171 H   0  0  0  0  0  0  0  0  0  0  0  0
  1  2  2  0
  1 19  1  0
  2  7  1  0
  3  2  1  0
  4  3  2  0
  5  4  1  0
  5  6  2  0
  6  1  1  0
  7 12  1  0
  8  7  1  0
  8  9  2  0
  9 10  1  0
 11 10  1  0
 12 11  1  0
 13  5  1  0
 14 13  2  0
 15 14  1  0
 16 17  1  0
 16 15  2  0
 17 18  2  0
 18 13  1  0
 19 20  1  0
 19 22  1  0
 21 19  1  0
  3 23  1  0
  7 24  1  1
  8 25  1  0
  9 26  1  0
 10 27  1  0
 10 28  1  0
 11 29  1  0
 11 30  1  0
 12 31  1  0
 12 32  1  0
 14 33  1  0
 15 34  1  0
 17 35  1  0
M  ISO  8  23  14  24  13  25  13  26  13  27  13  28  13  29  13  30  13
M  ISO  5  31  13  32  13  33  14  34  14  35  14
M  END
>  <minimizedAffinity>  (1) 
-5.51129007

>  <minimizedRMSD>  (1) 
1.15280104

$$$$
