
     RDKit          3D

 32 35  0  0  0  0  0  0  0  0999 V2000
   47.5550   33.9310   42.1520 C   0  0  0  0  0  0  0  0  0  0  0  0
   48.4940   34.9390   42.1040 C   0  0  0  0  0  0  0  0  0  0  0  0
   48.9270   35.4770   40.8950 C   0  0  0  0  0  0  0  0  0  0  0  0
   48.3880   34.9680   39.7400 C   0  0  0  0  0  0  0  0  0  0  0  0
   47.4430   33.9530   39.7900 C   0  0  0  0  0  0  0  0  0  0  0  0
   47.0350   33.4450   40.9830 N   0  0  0  0  0  0  0  0  0  0  0  0
   46.7940   33.3260   38.6870 N   0  0  0  0  0  0  0  0  0  0  0  0
   45.5100   32.8790   38.8050 C   0  0  0  0  0  0  0  0  0  0  0  0
   45.0980   32.3230   37.6520 N   0  0  0  0  0  0  0  0  0  0  0  0
   46.1170   32.4080   36.7850 C   0  0  0  0  0  0  0  0  0  0  0  0
   46.3430   32.0400   35.4760 C   0  0  0  0  0  0  0  0  0  0  0  0
   47.5320   32.3030   34.9340 N   0  0  0  0  0  0  0  0  0  0  0  0
   48.5560   32.9090   35.5630 C   0  0  0  0  0  0  0  0  0  0  0  0
   48.3510   33.2810   36.8580 N   0  0  0  0  0  0  0  0  0  0  0  0
   47.1610   33.0270   37.4280 C   0  0  0  0  0  0  0  0  0  0  0  0
   47.1130   33.3810   43.4390 C   0  0  0  0  0  0  0  0  0  0  0  0
   47.5980   32.2820   43.7950 O   0  0  0  0  0  0  0  0  0  0  0  0
   46.1490   34.1250   44.2310 C   0  0  0  0  0  0  0  0  0  0  0  0
   45.9030   33.6490   45.5280 C   0  0  0  0  0  0  0  0  0  0  0  0
   44.9860   34.3430   46.3000 C   0  0  0  0  0  0  0  0  0  0  0  0
   44.3920   35.4350   45.7470 N   0  0  0  0  0  0  0  0  0  0  0  0
   44.6410   35.8760   44.5010 C   0  0  0  0  0  0  0  0  0  0  0  0
   45.5200   35.2200   43.7450 N   0  0  0  0  0  0  0  0  0  0  0  0
   48.9117   35.3281   43.0443 H   0  0  0  0  0  0  0  0  0  0  0  0
   49.6756   36.2825   40.8665 H   0  0  0  0  0  0  0  0  0  0  0  0
   48.7078   35.3680   38.7665 H   0  0  0  0  0  0  0  0  0  0  0  0
   44.8981   32.9619   39.7153 H   0  0  0  0  0  0  0  0  0  0  0  0
   45.5579   31.5393   34.8904 H   0  0  0  0  0  0  0  0  0  0  0  0
   49.5139   33.0954   35.0554 H   0  0  0  0  0  0  0  0  0  0  0  0
   46.4188   32.7586   45.9168 H   0  0  0  0  0  0  0  0  0  0  0  0
   44.7463   34.0224   47.3246 H   0  0  0  0  0  0  0  0  0  0  0  0
   44.1257   36.7664   44.1115 H   0  0  0  0  0  0  0  0  0  0  0  0
  1 16  1  0
  2  1  2  0
  3  2  1  0
  4  5  1  0
  4  3  2  0
  5  6  2  0
  6  1  1  0
  7  8  1  0
  7  5  1  0
  9  8  2  0
 10 15  2  0
 10  9  1  0
 11 10  1  0
 12 11  2  0
 12 13  1  0
 13 14  2  0
 14 15  1  0
 15  7  1  0
 16 17  2  0
 16 18  1  0
 18 19  2  0
 19 20  1  0
 21 20  2  0
 22 21  1  0
 23 18  1  0
 23 22  2  0
  2 24  1  0
  3 25  1  0
  4 26  1  0
  8 27  1  0
 11 28  1  0
 13 29  1  0
 19 30  1  0
 20 31  1  0
 22 32  1  0
M  ISO  8  24  14  25  14  26  14  27  14  28  14  29  14  30  14  31  14
M  ISO  1  32  14
M  END
>  <minimizedAffinity>  (1) 
-6.00828457

>  <minimizedRMSD>  (1) 
1.45405352

$$$$
