
     RDKit          3D

 35 38  0  0  0  0  0  0  0  0999 V2000
   47.6850   34.0640   42.1990 C   0  0  0  0  0  0  0  0  0  0  0  0
   48.5110   35.1530   42.4180 C   0  0  0  0  0  0  0  0  0  0  0  0
   49.1110   35.8810   41.4110 C   0  0  0  0  0  0  0  0  0  0  0  0
   48.8410   35.4610   40.1160 C   0  0  0  0  0  0  0  0  0  0  0  0
   48.0070   34.3610   39.8730 C   0  0  0  0  0  0  0  0  0  0  0  0
   47.4500   33.6900   40.9200 N   0  0  0  0  0  0  0  0  0  0  0  0
   47.7550   33.9620   38.5050 C   0  0  0  0  0  0  0  0  0  0  0  0
   48.5360   34.2160   37.4090 C   0  0  0  0  0  0  0  0  0  0  0  0
   47.9660   33.6810   36.3170 N   0  0  0  0  0  0  0  0  0  0  0  0
   46.8380   33.0900   36.6910 C   0  0  0  0  0  0  0  0  0  0  0  0
   45.9030   32.3990   35.9150 C   0  0  0  0  0  0  0  0  0  0  0  0
   44.7860   31.8610   36.5480 C   0  0  0  0  0  0  0  0  0  0  0  0
   44.6110   32.0110   37.9150 C   0  0  0  0  0  0  0  0  0  0  0  0
   45.5430   32.6960   38.6710 C   0  0  0  0  0  0  0  0  0  0  0  0
   46.6680   33.2430   38.0600 C   0  0  0  0  0  0  0  0  0  0  0  0
   47.0920   33.3500   43.3120 C   0  0  0  0  0  0  0  0  0  0  0  0
   47.4200   32.1380   43.4750 O   0  0  0  0  0  0  0  0  0  0  0  0
   46.1590   34.0380   44.1880 C   0  0  0  0  0  0  0  0  0  0  0  0
   46.0210   33.5100   45.4990 C   0  0  0  0  0  0  0  0  0  0  0  0
   45.1350   34.1590   46.3400 C   0  0  0  0  0  0  0  0  0  0  0  0
   44.4700   35.2380   45.8620 N   0  0  0  0  0  0  0  0  0  0  0  0
   44.6170   35.7230   44.6120 C   0  0  0  0  0  0  0  0  0  0  0  0
   45.4580   35.1220   43.7860 N   0  0  0  0  0  0  0  0  0  0  0  0
   48.7006   35.4565   43.4582 H   0  0  0  0  0  0  0  0  0  0  0  0
   49.7632   36.7414   41.6217 H   0  0  0  0  0  0  0  0  0  0  0  0
   49.2883   35.9995   39.2675 H   0  0  0  0  0  0  0  0  0  0  0  0
   49.4846   34.7728   37.4213 H   0  0  0  0  0  0  0  0  0  0  0  0
   48.3388   33.7221   35.3577 H   0  0  0  0  0  0  0  0  0  0  0  0
   46.0464   32.2832   34.8306 H   0  0  0  0  0  0  0  0  0  0  0  0
   44.0363   31.3125   35.9589 H   0  0  0  0  0  0  0  0  0  0  0  0
   43.7231   31.5813   38.4018 H   0  0  0  0  0  0  0  0  0  0  0  0
   45.3961   32.8091   39.7553 H   0  0  0  0  0  0  0  0  0  0  0  0
   46.5904   32.6287   45.8293 H   0  0  0  0  0  0  0  0  0  0  0  0
   44.9746   33.8080   47.3701 H   0  0  0  0  0  0  0  0  0  0  0  0
   44.0465   36.6046   44.2843 H   0  0  0  0  0  0  0  0  0  0  0  0
  1  2  2  0
  1 16  1  0
  3  2  1  0
  4  3  2  0
  5  4  1  0
  5  6  2  0
  6  1  1  0
  7  5  1  0
  8  7  2  0
  9 10  1  0
  9  8  1  0
 10 15  2  0
 11 12  2  0
 11 10  1  0
 12 13  1  0
 13 14  2  0
 15  7  1  0
 15 14  1  0
 16 17  2  0
 16 18  1  0
 18 19  2  0
 19 20  1  0
 21 20  2  0
 22 21  1  0
 23 18  1  0
 23 22  2  0
  2 24  1  0
  3 25  1  0
  4 26  1  0
  8 27  1  0
  9 28  1  0
 11 29  1  0
 12 30  1  0
 13 31  1  0
 14 32  1  0
 19 33  1  0
 20 34  1  0
 22 35  1  0
M  ISO  8  24  14  25  14  26  14  27  14  28   9  29  14  30  14  31  14
M  ISO  4  32  14  33  14  34  14  35  14
M  END
>  <minimizedAffinity>  (1) 
-6.1948967

>  <minimizedRMSD>  (1) 
1.2440635

$$$$
