
     RDKit          3D

 36 38  0  0  0  0  0  0  0  0999 V2000
   47.8790   34.0460   42.2980 C   0  0  0  0  0  0  0  0  0  0  0  0
   48.7040   35.1290   42.5160 C   0  0  0  0  0  0  0  0  0  0  0  0
   49.2150   35.8950   41.4940 C   0  0  0  0  0  0  0  0  0  0  0  0
   48.8630   35.5350   40.2190 C   0  0  0  0  0  0  0  0  0  0  0  0
   48.0340   34.4490   39.9760 C   0  0  0  0  0  0  0  0  0  0  0  0
   47.5620   33.7310   41.0250 N   0  0  0  0  0  0  0  0  0  0  0  0
   47.6160   34.0020   38.6920 N   0  0  0  0  0  0  0  0  0  0  0  0
   48.2350   34.4140   37.4440 C   0  0  0  0  0  0  0  0  0  0  0  0
   49.0220   33.1910   36.9550 C   0  0  0  0  0  0  0  0  0  0  0  0
   47.9830   32.2150   36.4790 C   0  0  0  0  0  0  0  0  0  0  0  0
   46.8320   32.0410   37.3860 C   0  0  0  0  0  0  0  0  0  0  0  0
   46.5610   33.1040   38.3840 C   0  0  0  0  0  0  0  0  0  0  0  0
   47.3610   33.2600   43.4270 C   0  0  0  0  0  0  0  0  0  0  0  0
   47.8130   32.0870   43.5670 O   0  0  0  0  0  0  0  0  0  0  0  0
   46.3750   33.8640   44.3080 C   0  0  0  0  0  0  0  0  0  0  0  0
   46.2970   33.2850   45.6030 C   0  0  0  0  0  0  0  0  0  0  0  0
   45.3650   33.8420   46.4590 C   0  0  0  0  0  0  0  0  0  0  0  0
   44.6050   34.8780   46.0180 N   0  0  0  0  0  0  0  0  0  0  0  0
   44.7150   35.3980   44.7700 C   0  0  0  0  0  0  0  0  0  0  0  0
   45.6020   34.8840   43.9230 N   0  0  0  0  0  0  0  0  0  0  0  0
   48.9648   35.3918   43.5518 H   0  0  0  0  0  0  0  0  0  0  0  0
   49.8735   36.7540   41.6902 H   0  0  0  0  0  0  0  0  0  0  0  0
   49.2461   36.1199   39.3698 H   0  0  0  0  0  0  0  0  0  0  0  0
   47.4672   34.6965   36.7087 H   0  0  0  0  0  0  0  0  0  0  0  0
   48.8853   35.2906   37.5803 H   0  0  0  0  0  0  0  0  0  0  0  0
   49.6947   33.4701   36.1307 H   0  0  0  0  0  0  0  0  0  0  0  0
   49.6520   32.7643   37.7494 H   0  0  0  0  0  0  0  0  0  0  0  0
   47.6031   32.5667   35.5084 H   0  0  0  0  0  0  0  0  0  0  0  0
   48.4820   31.2363   36.4227 H   0  0  0  0  0  0  0  0  0  0  0  0
   45.9335   31.9455   36.7586 H   0  0  0  0  0  0  0  0  0  0  0  0
   47.0910   31.1589   37.9899 H   0  0  0  0  0  0  0  0  0  0  0  0
   45.7192   33.7028   38.0063 H   0  0  0  0  0  0  0  0  0  0  0  0
   46.3721   32.5632   39.3231 H   0  0  0  0  0  0  0  0  0  0  0  0
   46.9390   32.4448   45.9062 H   0  0  0  0  0  0  0  0  0  0  0  0
   45.2410   33.4527   47.4803 H   0  0  0  0  0  0  0  0  0  0  0  0
   44.0756   36.2381   44.4611 H   0  0  0  0  0  0  0  0  0  0  0  0
  1  2  2  0
  1 13  1  0
  3  2  1  0
  4  3  2  0
  5  4  1  0
  5  6  2  0
  6  1  1  0
  7  5  1  0
  8  7  1  0
  9  8  1  0
 10  9  1  0
 10 11  1  0
 11 12  1  0
 12  7  1  0
 13 14  2  0
 13 15  1  0
 15 16  2  0
 16 17  1  0
 18 17  2  0
 19 18  1  0
 20 15  1  0
 20 19  2  0
  2 21  1  0
  3 22  1  0
  4 23  1  0
  8 24  1  0
  8 25  1  0
  9 26  1  0
  9 27  1  0
 10 28  1  0
 10 29  1  0
 11 30  1  0
 11 31  1  0
 12 32  1  0
 12 33  1  0
 16 34  1  0
 17 35  1  0
 19 36  1  0
M  ISO  8  21  14  22  14  23  14  24  13  25  13  26  13  27  13  28  13
M  ISO  8  29  13  30  13  31  13  32  13  33  13  34  14  35  14  36  14
M  END
>  <minimizedAffinity>  (1) 
-5.6650281

>  <minimizedRMSD>  (1) 
0.908898711

$$$$
