
     RDKit          3D

 35 37  0  0  0  0  0  0  0  0999 V2000
   48.1280   33.7190   42.3760 C   0  0  0  0  0  0  0  0  0  0  0  0
   48.8270   34.8870   42.6280 C   0  0  0  0  0  0  0  0  0  0  0  0
   49.1640   35.7860   41.6370 C   0  0  0  0  0  0  0  0  0  0  0  0
   48.7760   35.4800   40.3440 C   0  0  0  0  0  0  0  0  0  0  0  0
   48.0760   34.3140   40.0770 C   0  0  0  0  0  0  0  0  0  0  0  0
   47.7740   33.4720   41.0910 N   0  0  0  0  0  0  0  0  0  0  0  0
   47.6760   33.9990   38.7490 N   0  0  0  0  0  0  0  0  0  0  0  0
   46.4690   33.2200   38.5440 C   0  0  0  0  0  0  0  0  0  0  0  0
   46.2180   33.1890   37.0500 C   0  0  0  0  0  0  0  0  0  0  0  0
   47.3860   32.5720   36.4560 N   0  0  0  0  0  0  0  0  0  0  0  0
   48.5440   33.4380   36.5130 C   0  0  0  0  0  0  0  0  0  0  0  0
   48.4540   34.4440   37.6290 C   0  0  0  0  0  0  0  0  0  0  0  0
   47.7870   32.7890   43.4480 C   0  0  0  0  0  0  0  0  0  0  0  0
   48.3400   31.6680   43.4280 O   0  0  0  0  0  0  0  0  0  0  0  0
   46.8430   33.2220   44.4560 C   0  0  0  0  0  0  0  0  0  0  0  0
   46.9020   32.5160   45.6880 C   0  0  0  0  0  0  0  0  0  0  0  0
   46.0170   32.8950   46.6810 C   0  0  0  0  0  0  0  0  0  0  0  0
   45.1620   33.9020   46.4130 N   0  0  0  0  0  0  0  0  0  0  0  0
   45.1210   34.5640   45.2290 C   0  0  0  0  0  0  0  0  0  0  0  0
   45.9630   34.2120   44.2680 N   0  0  0  0  0  0  0  0  0  0  0  0
   49.1267   35.1080   43.6630 H   0  0  0  0  0  0  0  0  0  0  0  0
   49.7184   36.7083   41.8652 H   0  0  0  0  0  0  0  0  0  0  0  0
   49.0251   36.1674   39.5222 H   0  0  0  0  0  0  0  0  0  0  0  0
   46.6082   32.1979   38.9261 H   0  0  0  0  0  0  0  0  0  0  0  0
   45.6165   33.6639   39.0789 H   0  0  0  0  0  0  0  0  0  0  0  0
   45.3187   32.5962   36.8268 H   0  0  0  0  0  0  0  0  0  0  0  0
   46.0525   34.2005   36.6506 H   0  0  0  0  0  0  0  0  0  0  0  0
   47.1819   32.3539   35.4703 H   0  0  0  0  0  0  0  0  0  0  0  0
   49.4405   32.8194   36.6666 H   0  0  0  0  0  0  0  0  0  0  0  0
   48.5947   33.9929   35.5646 H   0  0  0  0  0  0  0  0  0  0  0  0
   49.4729   34.6642   37.9802 H   0  0  0  0  0  0  0  0  0  0  0  0
   47.9483   35.3312   37.2202 H   0  0  0  0  0  0  0  0  0  0  0  0
   47.6230   31.7004   45.8456 H   0  0  0  0  0  0  0  0  0  0  0  0
   46.0111   32.3906   47.6585 H   0  0  0  0  0  0  0  0  0  0  0  0
   44.4004   35.3797   45.0695 H   0  0  0  0  0  0  0  0  0  0  0  0
  1  2  2  0
  1 13  1  0
  3  2  1  0
  4  3  2  0
  5  4  1  0
  5  6  2  0
  6  1  1  0
  7  5  1  0
  8  7  1  0
  9  8  1  0
 10 11  1  0
 10  9  1  0
 11 12  1  0
 12  7  1  0
 13 15  1  0
 14 13  2  0
 15 16  2  0
 16 17  1  0
 18 17  2  0
 19 18  1  0
 20 15  1  0
 20 19  2  0
  2 21  1  0
  3 22  1  0
  4 23  1  0
  8 24  1  0
  8 25  1  0
  9 26  1  0
  9 27  1  0
 10 28  1  0
 11 29  1  0
 11 30  1  0
 12 31  1  0
 12 32  1  0
 16 33  1  0
 17 34  1  0
 19 35  1  0
M  ISO  8  21  14  22  14  23  14  24  13  25  13  26  13  27  13  28   5
M  ISO  7  29  13  30  13  31  13  32  13  33  14  34  14  35  14
M  END
>  <minimizedAffinity>  (1) 
-5.74699163

>  <minimizedRMSD>  (1) 
0.619498312

$$$$
