
     RDKit          3D

 28 30  0  0  0  0  0  0  0  0999 V2000
   47.7170   34.0950   42.2630 C   0  0  0  0  0  0  0  0  0  0  0  0
   48.5540   35.1810   42.4970 C   0  0  0  0  0  0  0  0  0  0  0  0
   49.1500   35.9040   41.4780 C   0  0  0  0  0  0  0  0  0  0  0  0
   48.8770   35.4970   40.1760 C   0  0  0  0  0  0  0  0  0  0  0  0
   48.0430   34.4140   39.9420 C   0  0  0  0  0  0  0  0  0  0  0  0
   47.4780   33.7310   40.9690 N   0  0  0  0  0  0  0  0  0  0  0  0
   47.7730   34.0070   38.5650 C   0  0  0  0  0  0  0  0  0  0  0  0
   46.8770   33.0390   38.1690 C   0  0  0  0  0  0  0  0  0  0  0  0
   46.9890   33.0290   36.7820 C   0  0  0  0  0  0  0  0  0  0  0  0
   47.9050   33.9440   36.3890 N   0  0  0  0  0  0  0  0  0  0  0  0
   48.3690   34.5260   37.4800 N   0  0  0  0  0  0  0  0  0  0  0  0
   47.1100   33.3620   43.3700 C   0  0  0  0  0  0  0  0  0  0  0  0
   47.4430   32.1670   43.5250 O   0  0  0  0  0  0  0  0  0  0  0  0
   46.1640   34.0560   44.2190 C   0  0  0  0  0  0  0  0  0  0  0  0
   46.0180   33.5220   45.5260 C   0  0  0  0  0  0  0  0  0  0  0  0
   45.1170   34.1660   46.3660 C   0  0  0  0  0  0  0  0  0  0  0  0
   44.4470   35.2470   45.8870 N   0  0  0  0  0  0  0  0  0  0  0  0
   44.6130   35.7200   44.6440 C   0  0  0  0  0  0  0  0  0  0  0  0
   45.4600   35.1400   43.8100 N   0  0  0  0  0  0  0  0  0  0  0  0
   48.7510   35.4784   43.5375 H   0  0  0  0  0  0  0  0  0  0  0  0
   49.8083   36.7599   41.6879 H   0  0  0  0  0  0  0  0  0  0  0  0
   49.3246   36.0366   39.3284 H   0  0  0  0  0  0  0  0  0  0  0  0
   46.2250   32.4186   38.8015 H   0  0  0  0  0  0  0  0  0  0  0  0
   46.4183   32.3751   36.1062 H   0  0  0  0  0  0  0  0  0  0  0  0
   48.1877   34.1485   35.4199 H   0  0  0  0  0  0  0  0  0  0  0  0
   46.5893   32.6424   45.8576 H   0  0  0  0  0  0  0  0  0  0  0  0
   44.9504   33.8094   47.3932 H   0  0  0  0  0  0  0  0  0  0  0  0
   44.0394   36.5988   44.3144 H   0  0  0  0  0  0  0  0  0  0  0  0
  1  2  2  0
  1 12  1  0
  3  2  1  0
  4  3  2  0
  5  4  1  0
  5  6  2  0
  6  1  1  0
  7  5  1  0
  8  7  1  0
  9  8  2  0
 10  9  1  0
 10 11  1  0
 11  7  2  0
 12 13  2  0
 12 14  1  0
 14 15  2  0
 15 16  1  0
 17 16  2  0
 18 17  1  0
 19 14  1  0
 19 18  2  0
  2 20  1  0
  3 21  1  0
  4 22  1  0
  8 23  1  0
  9 24  1  0
 10 25  1  0
 15 26  1  0
 16 27  1  0
 18 28  1  0
M  ISO  8  20  14  21  14  22  14  23  14  24  14  25   9  26  14  27  14
M  ISO  1  28  14
M  END
>  <minimizedAffinity>  (1) 
-5.58018684

>  <minimizedRMSD>  (1) 
1.26698768

$$$$
