
     RDKit          3D

 31 33  0  0  0  0  0  0  0  0999 V2000
   47.7150   34.0920   42.2670 C   0  0  0  0  0  0  0  0  0  0  0  0
   48.4990   35.2060   42.4770 C   0  0  0  0  0  0  0  0  0  0  0  0
   49.0770   35.8980   41.4250 C   0  0  0  0  0  0  0  0  0  0  0  0
   48.8360   35.4260   40.1440 C   0  0  0  0  0  0  0  0  0  0  0  0
   48.0480   34.3070   39.9360 C   0  0  0  0  0  0  0  0  0  0  0  0
   47.5020   33.6580   40.9880 N   0  0  0  0  0  0  0  0  0  0  0  0
   47.7630   33.7700   38.6110 C   0  0  0  0  0  0  0  0  0  0  0  0
   46.5740   33.1010   38.4220 C   0  0  0  0  0  0  0  0  0  0  0  0
   46.2290   32.5560   37.1820 C   0  0  0  0  0  0  0  0  0  0  0  0
   47.0580   32.6650   36.1010 C   0  0  0  0  0  0  0  0  0  0  0  0
   48.2460   33.3360   36.2970 C   0  0  0  0  0  0  0  0  0  0  0  0
   48.5870   33.8730   37.5210 C   0  0  0  0  0  0  0  0  0  0  0  0
   47.1120   33.3720   43.3890 C   0  0  0  0  0  0  0  0  0  0  0  0
   47.4500   32.1730   43.5640 O   0  0  0  0  0  0  0  0  0  0  0  0
   46.1570   34.0670   44.2400 C   0  0  0  0  0  0  0  0  0  0  0  0
   45.9920   33.5540   45.5410 C   0  0  0  0  0  0  0  0  0  0  0  0
   45.0990   34.1840   46.3760 C   0  0  0  0  0  0  0  0  0  0  0  0
   44.4370   35.2590   45.8880 N   0  0  0  0  0  0  0  0  0  0  0  0
   44.6060   35.7440   44.6320 C   0  0  0  0  0  0  0  0  0  0  0  0
   45.4690   35.1360   43.8240 N   0  0  0  0  0  0  0  0  0  0  0  0
   48.6702   35.5546   43.5062 H   0  0  0  0  0  0  0  0  0  0  0  0
   49.7020   36.7863   41.5992 H   0  0  0  0  0  0  0  0  0  0  0  0
   49.2767   35.9475   39.2815 H   0  0  0  0  0  0  0  0  0  0  0  0
   45.8789   32.9930   39.2677 H   0  0  0  0  0  0  0  0  0  0  0  0
   45.2700   32.0282   37.0739 H   0  0  0  0  0  0  0  0  0  0  0  0
   46.7905   32.2384   35.1230 H   0  0  0  0  0  0  0  0  0  0  0  0
   48.9424   33.4465   35.4527 H   0  0  0  0  0  0  0  0  0  0  0  0
   49.5476   34.3988   37.6250 H   0  0  0  0  0  0  0  0  0  0  0  0
   46.5606   32.6753   45.8795 H   0  0  0  0  0  0  0  0  0  0  0  0
   44.9290   33.8274   47.4026 H   0  0  0  0  0  0  0  0  0  0  0  0
   44.0401   36.6228   44.2892 H   0  0  0  0  0  0  0  0  0  0  0  0
  1  2  2  0
  1 13  1  0
  3  2  1  0
  4  3  2  0
  5  4  1  0
  5  6  2  0
  6  1  1  0
  7  5  1  0
  8  7  2  0
  9  8  1  0
 10 11  1  0
 10  9  2  0
 11 12  2  0
 12  7  1  0
 13 14  2  0
 13 15  1  0
 15 16  2  0
 16 17  1  0
 18 17  2  0
 19 18  1  0
 20 15  1  0
 20 19  2  0
  2 21  1  0
  3 22  1  0
  4 23  1  0
  8 24  1  0
  9 25  1  0
 10 26  1  0
 11 27  1  0
 12 28  1  0
 16 29  1  0
 17 30  1  0
 19 31  1  0
M  ISO  8  21  14  22  14  23  14  24  14  25  14  26  14  27  14  28  14
M  ISO  3  29  14  30  14  31  14
M  END
>  <minimizedAffinity>  (1) 
-5.43979263

>  <minimizedRMSD>  (1) 
1.37475693

$$$$
