
     RDKit          3D

 31 33  0  0  0  0  0  0  0  0999 V2000
   47.7140   34.1000   42.2690 C   0  0  0  0  0  0  0  0  0  0  0  0
   48.5010   35.2120   42.4770 C   0  0  0  0  0  0  0  0  0  0  0  0
   49.0800   35.8990   41.4220 C   0  0  0  0  0  0  0  0  0  0  0  0
   48.8330   35.4210   40.1420 C   0  0  0  0  0  0  0  0  0  0  0  0
   48.0410   34.3040   39.9330 C   0  0  0  0  0  0  0  0  0  0  0  0
   47.4970   33.6640   40.9920 N   0  0  0  0  0  0  0  0  0  0  0  0
   47.7490   33.7600   38.6150 C   0  0  0  0  0  0  0  0  0  0  0  0
   46.5510   33.1050   38.4310 C   0  0  0  0  0  0  0  0  0  0  0  0
   46.1930   32.5540   37.1950 C   0  0  0  0  0  0  0  0  0  0  0  0
   47.0770   32.6810   36.1460 C   0  0  0  0  0  0  0  0  0  0  0  0
   48.2870   33.3290   36.2850 C   0  0  0  0  0  0  0  0  0  0  0  0
   48.5870   33.8530   37.5260 C   0  0  0  0  0  0  0  0  0  0  0  0
   47.1070   33.3830   43.3940 C   0  0  0  0  0  0  0  0  0  0  0  0
   47.4470   32.1770   43.5710 O   0  0  0  0  0  0  0  0  0  0  0  0
   46.1630   34.0630   44.2440 C   0  0  0  0  0  0  0  0  0  0  0  0
   46.0000   33.5480   45.5400 C   0  0  0  0  0  0  0  0  0  0  0  0
   45.0990   34.1850   46.3760 C   0  0  0  0  0  0  0  0  0  0  0  0
   44.4350   35.2560   45.8950 N   0  0  0  0  0  0  0  0  0  0  0  0
   44.6060   35.7390   44.6370 C   0  0  0  0  0  0  0  0  0  0  0  0
   45.4690   35.1380   43.8220 N   0  0  0  0  0  0  0  0  0  0  0  0
   48.6737   35.5627   43.5052 H   0  0  0  0  0  0  0  0  0  0  0  0
   49.7087   36.7856   41.5914 H   0  0  0  0  0  0  0  0  0  0  0  0
   49.2745   35.9390   39.2778 H   0  0  0  0  0  0  0  0  0  0  0  0
   45.8565   33.0124   39.2790 H   0  0  0  0  0  0  0  0  0  0  0  0
   45.2324   32.0340   37.0649 H   0  0  0  0  0  0  0  0  0  0  0  0
   46.8101   32.2530   35.1685 H   0  0  0  0  0  0  0  0  0  0  0  0
   48.9850   33.4242   35.4402 H   0  0  0  0  0  0  0  0  0  0  0  0
   49.5479   34.3733   37.6523 H   0  0  0  0  0  0  0  0  0  0  0  0
   46.5682   32.6693   45.8791 H   0  0  0  0  0  0  0  0  0  0  0  0
   44.9295   33.8281   47.4026 H   0  0  0  0  0  0  0  0  0  0  0  0
   44.0376   36.6168   44.2960 H   0  0  0  0  0  0  0  0  0  0  0  0
  1  2  2  0
  1 13  1  0
  3  2  1  0
  4  3  2  0
  5  4  1  0
  5  6  2  0
  6  1  1  0
  7  5  1  0
  8  7  2  0
  9  8  1  0
 10 11  1  0
 10  9  2  0
 11 12  2  0
 12  7  1  0
 13 14  2  0
 13 15  1  0
 15 16  2  0
 16 17  1  0
 18 17  2  0
 19 18  1  0
 20 15  1  0
 20 19  2  0
  2 21  1  0
  3 22  1  0
  4 23  1  0
  8 24  1  0
  9 25  1  0
 10 26  1  0
 11 27  1  0
 12 28  1  0
 16 29  1  0
 17 30  1  0
 19 31  1  0
M  ISO  8  21  14  22  14  23  14  24  14  25  14  26  14  27  14  28  14
M  ISO  3  29  14  30  14  31  14
M  END
>  <minimizedAffinity>  (1) 
-5.43658972

>  <minimizedRMSD>  (1) 
1.40741611

$$$$
