
     RDKit          3D

 22 22  0  0  0  0  0  0  0  0999 V2000
   45.1730   35.5220   43.6960 C   0  0  0  0  0  0  0  0  0  0  0  0
   46.0850   34.4610   43.4630 C   0  0  0  0  0  0  0  0  0  0  0  0
   46.3150   33.5620   44.5350 C   0  0  0  0  0  0  0  0  0  0  0  0
   45.6560   33.7720   45.7000 N   0  0  0  0  0  0  0  0  0  0  0  0
   44.8010   34.7770   45.8990 C   0  0  0  0  0  0  0  0  0  0  0  0
   44.5700   35.6380   44.8940 N   0  0  0  0  0  0  0  0  0  0  0  0
   46.7800   34.2690   42.1930 C   0  0  0  0  0  0  0  0  0  0  0  0
   45.8480   34.2500   41.0430 C   0  0  0  0  0  0  0  0  0  0  0  0
   47.8790   35.2920   42.0740 C   0  0  0  0  0  0  0  0  0  0  0  0
   44.9020   36.4790   42.6120 C   0  0  0  0  0  0  0  0  0  0  0  0
   47.0099   32.7166   44.4238 H   0  0  0  0  0  0  0  0  0  0  0  0
   44.2947   34.8982   46.8680 H   0  0  0  0  0  0  0  0  0  0  0  0
   47.2487   33.2740   42.1758 H   0  0  0  0  0  0  0  0  0  0  0  0
   44.8117   34.2289   41.4112 H   0  0  0  0  0  0  0  0  0  0  0  0
   46.0016   35.1515   40.4316 H   0  0  0  0  0  0  0  0  0  0  0  0
   46.0382   33.3555   40.4316 H   0  0  0  0  0  0  0  0  0  0  0  0
   48.2065   35.5969   43.0789 H   0  0  0  0  0  0  0  0  0  0  0  0
   48.7285   34.8557   41.5281 H   0  0  0  0  0  0  0  0  0  0  0  0
   47.5046   36.1705   41.5281 H   0  0  0  0  0  0  0  0  0  0  0  0
   44.6263   37.4528   43.0430 H   0  0  0  0  0  0  0  0  0  0  0  0
   45.8027   36.5946   41.9912 H   0  0  0  0  0  0  0  0  0  0  0  0
   44.0744   36.1052   41.9912 H   0  0  0  0  0  0  0  0  0  0  0  0
  1  6  2  0
  2  1  1  0
  2  3  2  0
  3  4  1  0
  4  5  2  0
  6  5  1  0
  7  2  1  0
  8  7  1  0
  9  7  1  0
 10  1  1  0
  3 11  1  0
  5 12  1  0
  7 13  1  0
  8 14  1  0
  8 15  1  0
  8 16  1  0
  9 17  1  0
  9 18  1  0
  9 19  1  0
 10 20  1  0
 10 21  1  0
 10 22  1  0
M  ISO  8  11  14  12  14  13   8  14   8  15   8  16   8  17   8  18   8
M  ISO  4  19   8  20   8  21   8  22   8
M  END
>  <minimizedAffinity>  (1) 
-3.50906777

>  <minimizedRMSD>  (1) 
0.693038106

$$$$
