
     RDKit          3D

 28 30  0  0  0  0  0  0  0  0999 V2000
   47.8600   34.0050   42.4550 C   0  0  0  0  0  0  0  0  0  0  0  0
   48.6770   35.1100   42.6410 C   0  0  0  0  0  0  0  0  0  0  0  0
   49.1780   35.8630   41.6020 C   0  0  0  0  0  0  0  0  0  0  0  0
   48.8270   35.4660   40.3180 C   0  0  0  0  0  0  0  0  0  0  0  0
   48.0110   34.3620   40.1170 C   0  0  0  0  0  0  0  0  0  0  0  0
   47.5500   33.6640   41.1800 N   0  0  0  0  0  0  0  0  0  0  0  0
   47.6440   33.9480   38.7650 C   0  0  0  0  0  0  0  0  0  0  0  0
   48.4930   33.9380   37.6800 C   0  0  0  0  0  0  0  0  0  0  0  0
   47.7580   33.4900   36.6400 N   0  0  0  0  0  0  0  0  0  0  0  0
   46.5030   33.2320   37.0510 C   0  0  0  0  0  0  0  0  0  0  0  0
   46.4420   33.5210   38.3820 N   0  0  0  0  0  0  0  0  0  0  0  0
   47.3580   33.2450   43.5850 C   0  0  0  0  0  0  0  0  0  0  0  0
   47.8210   32.0870   43.7650 O   0  0  0  0  0  0  0  0  0  0  0  0
   46.3530   33.8460   44.4530 C   0  0  0  0  0  0  0  0  0  0  0  0
   46.2530   33.2860   45.7520 C   0  0  0  0  0  0  0  0  0  0  0  0
   45.2990   33.8540   46.5820 C   0  0  0  0  0  0  0  0  0  0  0  0
   44.5450   34.8740   46.1190 N   0  0  0  0  0  0  0  0  0  0  0  0
   44.6750   35.3780   44.8680 C   0  0  0  0  0  0  0  0  0  0  0  0
   45.5790   34.8580   44.0460 N   0  0  0  0  0  0  0  0  0  0  0  0
   48.9380   35.3997   43.6696 H   0  0  0  0  0  0  0  0  0  0  0  0
   49.8239   36.7353   41.7803 H   0  0  0  0  0  0  0  0  0  0  0  0
   49.1997   36.0325   39.4519 H   0  0  0  0  0  0  0  0  0  0  0  0
   49.5522   34.2342   37.6643 H   0  0  0  0  0  0  0  0  0  0  0  0
   45.6779   32.8569   36.4277 H   0  0  0  0  0  0  0  0  0  0  0  0
   45.6125   33.4259   38.9851 H   0  0  0  0  0  0  0  0  0  0  0  0
   46.8923   32.4532   46.0804 H   0  0  0  0  0  0  0  0  0  0  0  0
   45.1578   33.4781   47.6061 H   0  0  0  0  0  0  0  0  0  0  0  0
   44.0373   36.2106   44.5362 H   0  0  0  0  0  0  0  0  0  0  0  0
  1  2  2  0
  1 12  1  0
  3  2  1  0
  4  3  2  0
  5  4  1  0
  5  6  2  0
  6  1  1  0
  7  5  1  0
  8  7  2  0
  9 10  2  0
  9  8  1  0
 10 11  1  0
 11  7  1  0
 12 13  2  0
 12 14  1  0
 14 15  2  0
 15 16  1  0
 17 16  2  0
 18 17  1  0
 19 14  1  0
 19 18  2  0
  2 20  1  0
  3 21  1  0
  4 22  1  0
  8 23  1  0
 10 24  1  0
 11 25  1  0
 15 26  1  0
 16 27  1  0
 18 28  1  0
M  ISO  8  20  14  21  14  22  14  23  14  24  14  25   9  26  14  27  14
M  ISO  1  28  14
M  END
>  <minimizedAffinity>  (1) 
-5.33663416

>  <minimizedRMSD>  (1) 
0.888967097

$$$$
