
     RDKit          3D

 27 28  0  0  0  0  0  0  0  0999 V2000
   47.8460   33.9660   42.2850 C   0  0  0  0  0  0  0  0  0  0  0  0
   48.6360   35.1020   42.4430 C   0  0  0  0  0  0  0  0  0  0  0  0
   49.1130   35.8380   41.3610 C   0  0  0  0  0  0  0  0  0  0  0  0
   48.7720   35.3970   40.1000 C   0  0  0  0  0  0  0  0  0  0  0  0
   47.9870   34.2680   39.9380 C   0  0  0  0  0  0  0  0  0  0  0  0
   47.5340   33.5690   41.0120 N   0  0  0  0  0  0  0  0  0  0  0  0
   47.3710   33.2310   43.4390 C   0  0  0  0  0  0  0  0  0  0  0  0
   47.8470   32.0800   43.6240 O   0  0  0  0  0  0  0  0  0  0  0  0
   46.3870   33.8410   44.3170 C   0  0  0  0  0  0  0  0  0  0  0  0
   46.2850   33.2970   45.6070 C   0  0  0  0  0  0  0  0  0  0  0  0
   45.3470   33.8680   46.4610 C   0  0  0  0  0  0  0  0  0  0  0  0
   44.6040   34.9000   45.9960 N   0  0  0  0  0  0  0  0  0  0  0  0
   44.7300   35.3940   44.7520 C   0  0  0  0  0  0  0  0  0  0  0  0
   45.6100   34.8740   43.9180 N   0  0  0  0  0  0  0  0  0  0  0  0
   47.5950   33.7590   38.5770 C   0  0  0  0  0  0  0  0  0  0  0  0
   48.4200   34.5220   37.5480 C   0  0  0  0  0  0  0  0  0  0  0  0
   48.8930   35.4304   43.4609 H   0  0  0  0  0  0  0  0  0  0  0  0
   49.7354   36.7332   41.5064 H   0  0  0  0  0  0  0  0  0  0  0  0
   49.1264   35.9465   39.2155 H   0  0  0  0  0  0  0  0  0  0  0  0
   46.9183   32.4569   45.9282 H   0  0  0  0  0  0  0  0  0  0  0  0
   45.2126   33.4915   47.4858 H   0  0  0  0  0  0  0  0  0  0  0  0
   44.0977   36.2340   44.4287 H   0  0  0  0  0  0  0  0  0  0  0  0
   47.8059   32.6819   38.5037 H   0  0  0  0  0  0  0  0  0  0  0  0
   46.5198   33.9107   38.4014 H   0  0  0  0  0  0  0  0  0  0  0  0
   49.1327   35.1812   38.0652 H   0  0  0  0  0  0  0  0  0  0  0  0
   48.9713   33.8085   36.9179 H   0  0  0  0  0  0  0  0  0  0  0  0
   47.7516   35.1272   36.9179 H   0  0  0  0  0  0  0  0  0  0  0  0
  1  2  2  0
  1  7  1  0
  3  2  1  0
  4  3  2  0
  5  4  1  0
  5  6  2  0
  6  1  1  0
  7  8  2  0
  7  9  1  0
  9 10  2  0
 10 11  1  0
 12 11  2  0
 13 12  1  0
 14  9  1  0
 14 13  2  0
 15  5  1  0
 16 15  1  0
  2 17  1  0
  3 18  1  0
  4 19  1  0
 10 20  1  0
 11 21  1  0
 13 22  1  0
 15 23  1  0
 15 24  1  0
 16 25  1  0
 16 26  1  0
 16 27  1  0
M  ISO  8  17  14  18  14  19  14  20  14  21  14  22  14  23   8  24   8
M  ISO  3  25   8  26   8  27   8
M  END
>  <minimizedAffinity>  (1) 
-4.83256435

>  <minimizedRMSD>  (1) 
0.876889646

$$$$
