
     RDKit          3D

 32 34  0  0  0  0  0  0  0  0999 V2000
   46.8850   34.6570   41.2910 C   0  0  0  0  0  0  0  0  0  0  0  0
   46.9320   35.0610   42.6230 C   0  0  0  0  0  0  0  0  0  0  0  0
   45.8400   34.9520   43.4420 C   0  0  0  0  0  0  0  0  0  0  0  0
   44.6840   34.4360   42.9360 C   0  0  0  0  0  0  0  0  0  0  0  0
   44.6390   34.0300   41.5960 C   0  0  0  0  0  0  0  0  0  0  0  0
   45.7260   34.1430   40.7950 N   0  0  0  0  0  0  0  0  0  0  0  0
   48.0640   34.7840   40.4370 C   0  0  0  0  0  0  0  0  0  0  0  0
   48.8660   35.7340   40.6800 O   0  0  0  0  0  0  0  0  0  0  0  0
   48.2700   33.8300   39.3590 C   0  0  0  0  0  0  0  0  0  0  0  0
   48.1780   34.3370   38.0560 C   0  0  0  0  0  0  0  0  0  0  0  0
   48.3710   33.4480   37.0080 C   0  0  0  0  0  0  0  0  0  0  0  0
   48.6330   32.1540   37.3350 N   0  0  0  0  0  0  0  0  0  0  0  0
   48.7150   31.6990   38.5930 C   0  0  0  0  0  0  0  0  0  0  0  0
   48.5330   32.5380   39.5980 N   0  0  0  0  0  0  0  0  0  0  0  0
   43.5350   33.4880   40.9470 O   0  0  0  0  0  0  0  0  0  0  0  0
   42.5010   34.3670   40.6460 C   0  0  0  0  0  0  0  0  0  0  0  0
   42.3590   34.5600   39.2710 C   0  0  0  0  0  0  0  0  0  0  0  0
   41.3790   35.4020   38.7950 C   0  0  0  0  0  0  0  0  0  0  0  0
   40.5230   36.0700   39.6460 C   0  0  0  0  0  0  0  0  0  0  0  0
   40.6800   35.8640   41.0090 C   0  0  0  0  0  0  0  0  0  0  0  0
   41.6540   35.0260   41.5140 C   0  0  0  0  0  0  0  0  0  0  0  0
   47.8672   35.4769   43.0261 H   0  0  0  0  0  0  0  0  0  0  0  0
   45.8947   35.2757   44.4919 H   0  0  0  0  0  0  0  0  0  0  0  0
   43.7937   34.3392   43.5748 H   0  0  0  0  0  0  0  0  0  0  0  0
   47.9610   35.3994   37.8708 H   0  0  0  0  0  0  0  0  0  0  0  0
   48.3146   33.7753   35.9593 H   0  0  0  0  0  0  0  0  0  0  0  0
   48.9316   30.6381   38.7871 H   0  0  0  0  0  0  0  0  0  0  0  0
   43.0283   34.0407   38.5693 H   0  0  0  0  0  0  0  0  0  0  0  0
   41.2761   35.5456   37.7093 H   0  0  0  0  0  0  0  0  0  0  0  0
   39.7436   36.7421   39.2577 H   0  0  0  0  0  0  0  0  0  0  0  0
   40.0084   36.3838   41.7081 H   0  0  0  0  0  0  0  0  0  0  0  0
   41.7543   34.8845   42.6002 H   0  0  0  0  0  0  0  0  0  0  0  0
  1  2  2  0
  2  3  1  0
  4  3  2  0
  5  4  1  0
  6  1  1  0
  6  5  2  0
  7  8  2  0
  7  1  1  0
  9 14  1  0
  9  7  1  0
 10  9  2  0
 11 12  2  0
 11 10  1  0
 12 13  1  0
 13 14  2  0
 15  5  1  0
 16 15  1  0
 16 21  1  0
 17 16  2  0
 18 17  1  0
 18 19  2  0
 19 20  1  0
 20 21  2  0
  2 22  1  0
  3 23  1  0
  4 24  1  0
 10 25  1  0
 11 26  1  0
 13 27  1  0
 17 28  1  0
 18 29  1  0
 19 30  1  0
 20 31  1  0
 21 32  1  0
M  ISO  8  22  14  23  14  24  14  25  14  26  14  27  14  28  14  29  14
M  ISO  3  30  14  31  14  32  14
M  END
>  <minimizedAffinity>  (1) 
-5.42991114

>  <minimizedRMSD>  (1) 
6.23461914

$$$$
