
     RDKit          3D

 36 39  0  0  0  0  0  0  0  0999 V2000
   47.6160   33.9360   41.7810 C   0  0  0  0  0  0  0  0  0  0  0  0
   48.4800   34.9930   41.5790 C   0  0  0  0  0  0  0  0  0  0  0  0
   48.8360   35.4130   40.3170 C   0  0  0  0  0  0  0  0  0  0  0  0
   48.2950   34.7340   39.2480 C   0  0  0  0  0  0  0  0  0  0  0  0
   47.4220   33.6660   39.4430 C   0  0  0  0  0  0  0  0  0  0  0  0
   47.1050   33.2950   40.7040 N   0  0  0  0  0  0  0  0  0  0  0  0
   47.2600   33.5160   43.1380 C   0  0  0  0  0  0  0  0  0  0  0  0
   47.8520   32.4990   43.6110 O   0  0  0  0  0  0  0  0  0  0  0  0
   46.2620   34.2680   43.8740 C   0  0  0  0  0  0  0  0  0  0  0  0
   45.9700   33.7830   45.1620 C   0  0  0  0  0  0  0  0  0  0  0  0
   45.0110   34.4880   45.8940 C   0  0  0  0  0  0  0  0  0  0  0  0
   44.4390   35.5870   45.3010 N   0  0  0  0  0  0  0  0  0  0  0  0
   44.7580   36.0030   44.0700 C   0  0  0  0  0  0  0  0  0  0  0  0
   45.6570   35.3570   43.3600 N   0  0  0  0  0  0  0  0  0  0  0  0
   46.8260   32.9210   38.4600 O   0  0  0  0  0  0  0  0  0  0  0  0
   47.2160   32.7420   37.1700 C   0  0  0  0  0  0  0  0  0  0  0  0
   48.3660   33.0210   36.5320 N   0  0  0  0  0  0  0  0  0  0  0  0
   48.5700   32.7660   35.2280 C   0  0  0  0  0  0  0  0  0  0  0  0
   47.5940   32.2050   34.4980 N   0  0  0  0  0  0  0  0  0  0  0  0
   46.4030   31.8860   35.0410 C   0  0  0  0  0  0  0  0  0  0  0  0
   45.4820   31.3210   34.2110 C   0  0  0  0  0  0  0  0  0  0  0  0
   44.2630   30.9860   34.7320 C   0  0  0  0  0  0  0  0  0  0  0  0
   44.0060   31.2270   36.0630 C   0  0  0  0  0  0  0  0  0  0  0  0
   44.9680   31.8010   36.8650 C   0  0  0  0  0  0  0  0  0  0  0  0
   46.2110   32.1580   36.3970 C   0  0  0  0  0  0  0  0  0  0  0  0
   48.8968   35.5157   42.4525 H   0  0  0  0  0  0  0  0  0  0  0  0
   49.5252   36.2574   40.1685 H   0  0  0  0  0  0  0  0  0  0  0  0
   48.5563   35.0397   38.2241 H   0  0  0  0  0  0  0  0  0  0  0  0
   46.4713   32.8938   45.5720 H   0  0  0  0  0  0  0  0  0  0  0  0
   44.7245   34.1742   46.9086 H   0  0  0  0  0  0  0  0  0  0  0  0
   44.2649   36.8915   43.6489 H   0  0  0  0  0  0  0  0  0  0  0  0
   49.5339   33.0164   34.7610 H   0  0  0  0  0  0  0  0  0  0  0  0
   45.7127   31.1393   33.1509 H   0  0  0  0  0  0  0  0  0  0  0  0
   43.4939   30.5277   34.0929 H   0  0  0  0  0  0  0  0  0  0  0  0
   43.0274   30.9598   36.4883 H   0  0  0  0  0  0  0  0  0  0  0  0
   44.7320   31.9813   37.9241 H   0  0  0  0  0  0  0  0  0  0  0  0
  1  7  1  0
  2  1  2  0
  3  2  1  0
  4  5  1  0
  4  3  2  0
  5  6  2  0
  6  1  1  0
  7  8  2  0
  7  9  1  0
  9 10  2  0
 10 11  1  0
 12 11  2  0
 13 12  1  0
 14  9  1  0
 14 13  2  0
 15  5  1  0
 16 15  1  0
 17 16  2  0
 18 17  1  0
 19 20  1  0
 19 18  2  0
 20 25  2  0
 21 22  2  0
 21 20  1  0
 22 23  1  0
 23 24  2  0
 25 24  1  0
 25 16  1  0
  2 26  1  0
  3 27  1  0
  4 28  1  0
 10 29  1  0
 11 30  1  0
 13 31  1  0
 18 32  1  0
 21 33  1  0
 22 34  1  0
 23 35  1  0
 24 36  1  0
M  ISO  8  26  14  27  14  28  14  29  14  30  14  31  14  32  14  33  14
M  ISO  3  34  14  35  14  36  14
M  END
>  <minimizedAffinity>  (1) 
-5.71899223

>  <minimizedRMSD>  (1) 
2.84577537

$$$$
