
     RDKit          3D

 26 27  0  0  0  0  0  0  0  0999 V2000
   48.0630   33.6720   42.4630 C   0  0  0  0  0  0  0  0  0  0  0  0
   48.8520   34.7950   42.6920 C   0  0  0  0  0  0  0  0  0  0  0  0
   49.1930   35.6760   41.6880 C   0  0  0  0  0  0  0  0  0  0  0  0
   48.7260   35.4150   40.4260 C   0  0  0  0  0  0  0  0  0  0  0  0
   47.9260   34.2760   40.1930 C   0  0  0  0  0  0  0  0  0  0  0  0
   47.6270   33.4550   41.2100 N   0  0  0  0  0  0  0  0  0  0  0  0
   47.7290   32.7670   43.5630 C   0  0  0  0  0  0  0  0  0  0  0  0
   48.2870   31.6360   43.5790 O   0  0  0  0  0  0  0  0  0  0  0  0
   46.7780   33.2170   44.5720 C   0  0  0  0  0  0  0  0  0  0  0  0
   46.8260   32.5130   45.7950 C   0  0  0  0  0  0  0  0  0  0  0  0
   45.9410   32.9070   46.7790 C   0  0  0  0  0  0  0  0  0  0  0  0
   45.0940   33.9380   46.5000 N   0  0  0  0  0  0  0  0  0  0  0  0
   45.0740   34.5940   45.3130 C   0  0  0  0  0  0  0  0  0  0  0  0
   45.9210   34.2200   44.3630 N   0  0  0  0  0  0  0  0  0  0  0  0
   47.4000   33.9150   38.9650 O   0  0  0  0  0  0  0  0  0  0  0  0
   48.1780   33.8050   37.8230 C   0  0  0  0  0  0  0  0  0  0  0  0
   47.6730   34.6550   36.7780 N   0  0  0  0  0  0  0  0  0  0  0  0
   49.1880   33.1150   37.6000 O   0  0  0  0  0  0  0  0  0  0  0  0
   49.2171   34.9869   43.7117 H   0  0  0  0  0  0  0  0  0  0  0  0
   49.8181   36.5577   41.8925 H   0  0  0  0  0  0  0  0  0  0  0  0
   48.9745   36.0925   39.5958 H   0  0  0  0  0  0  0  0  0  0  0  0
   47.5359   31.6884   45.9565 H   0  0  0  0  0  0  0  0  0  0  0  0
   45.9201   32.4046   47.7574 H   0  0  0  0  0  0  0  0  0  0  0  0
   44.3688   35.4205   45.1413 H   0  0  0  0  0  0  0  0  0  0  0  0
   48.1464   34.6838   35.8637 H   0  0  0  0  0  0  0  0  0  0  0  0
   46.8381   35.2348   36.9441 H   0  0  0  0  0  0  0  0  0  0  0  0
  1  2  2  0
  1  7  1  0
  3  2  1  0
  4  3  2  0
  5  4  1  0
  5  6  2  0
  6  1  1  0
  7  8  2  0
  7  9  1  0
  9 10  2  0
 10 11  1  0
 12 11  2  0
 13 12  1  0
 14  9  1  0
 14 13  2  0
 15  5  1  0
 16 15  1  0
 17 16  1  0
 18 16  2  0
  2 19  1  0
  3 20  1  0
  4 21  1  0
 10 22  1  0
 11 23  1  0
 13 24  1  0
 17 25  1  0
 17 26  1  0
M  ISO  6  19  14  20  14  21  14  22  14  23  14  24  14
M  END
>  <minimizedAffinity>  (1) 
-5.08537722

>  <minimizedRMSD>  (1) 
1.4728353

$$$$
