
     RDKit          3D

 25 26  0  0  0  0  0  0  0  0999 V2000
   48.0670   33.6920   42.4920 C   0  0  0  0  0  0  0  0  0  0  0  0
   48.9300   34.7450   42.7270 C   0  0  0  0  0  0  0  0  0  0  0  0
   49.2900   35.6400   41.7530 C   0  0  0  0  0  0  0  0  0  0  0  0
   48.7620   35.4660   40.4950 C   0  0  0  0  0  0  0  0  0  0  0  0
   47.8920   34.4030   40.2560 C   0  0  0  0  0  0  0  0  0  0  0  0
   47.5670   33.5510   41.2420 N   0  0  0  0  0  0  0  0  0  0  0  0
   47.7080   32.7590   43.5600 C   0  0  0  0  0  0  0  0  0  0  0  0
   48.2360   31.6110   43.5350 O   0  0  0  0  0  0  0  0  0  0  0  0
   46.7770   33.1880   44.5830 C   0  0  0  0  0  0  0  0  0  0  0  0
   46.8310   32.4710   45.7880 C   0  0  0  0  0  0  0  0  0  0  0  0
   45.9490   32.8560   46.7950 C   0  0  0  0  0  0  0  0  0  0  0  0
   45.1020   33.9010   46.5320 N   0  0  0  0  0  0  0  0  0  0  0  0
   45.0890   34.5550   45.3620 C   0  0  0  0  0  0  0  0  0  0  0  0
   45.9080   34.2120   44.3980 N   0  0  0  0  0  0  0  0  0  0  0  0
   47.2840   34.1060   39.0360 O   0  0  0  0  0  0  0  0  0  0  0  0
   48.2160   33.9110   37.9620 C   0  0  0  0  0  0  0  0  0  0  0  0
   49.1390   32.9910   38.4120 F   0  0  0  0  0  0  0  0  0  0  0  0
   47.5210   33.3420   36.8870 F   0  0  0  0  0  0  0  0  0  0  0  0
   48.7610   35.0800   37.5120 F   0  0  0  0  0  0  0  0  0  0  0  0
   49.3455   34.8704   43.7377 H   0  0  0  0  0  0  0  0  0  0  0  0
   49.9784   36.4699   41.9704 H   0  0  0  0  0  0  0  0  0  0  0  0
   49.0242   36.1605   39.6833 H   0  0  0  0  0  0  0  0  0  0  0  0
   47.5388   31.6413   45.9311 H   0  0  0  0  0  0  0  0  0  0  0  0
   45.9328   32.3400   47.7663 H   0  0  0  0  0  0  0  0  0  0  0  0
   44.3851   35.3865   45.2097 H   0  0  0  0  0  0  0  0  0  0  0  0
  1  2  2  0
  1  7  1  0
  3  2  1  0
  4  3  2  0
  5  4  1  0
  5  6  2  0
  6  1  1  0
  7  9  1  0
  8  7  2  0
  9 10  2  0
 10 11  1  0
 12 11  2  0
 13 12  1  0
 14  9  1  0
 14 13  2  0
 15  5  1  0
 16 17  1  0
 16 15  1  0
 18 16  1  0
 19 16  1  0
  2 20  1  0
  3 21  1  0
  4 22  1  0
 10 23  1  0
 11 24  1  0
 13 25  1  0
M  ISO  6  20  14  21  14  22  14  23  14  24  14  25  14
M  END
>  <minimizedAffinity>  (1) 
-5.02523565

>  <minimizedRMSD>  (1) 
0.61925602

$$$$
