
     RDKit          3D

 34 36  0  0  1  0  0  0  0  0999 V2000
   48.0200   33.8480   42.5230 C   0  0  0  0  0  0  0  0  0  0  0  0
   48.8760   34.9180   42.7720 C   0  0  0  0  0  0  0  0  0  0  0  0
   49.2970   35.7660   41.7790 C   0  0  0  0  0  0  0  0  0  0  0  0
   48.8330   35.5130   40.5020 C   0  0  0  0  0  0  0  0  0  0  0  0
   47.9790   34.4480   40.2360 C   0  0  0  0  0  0  0  0  0  0  0  0
   47.5990   33.6490   41.2520 N   0  0  0  0  0  0  0  0  0  0  0  0
   47.5960   32.9680   43.6150 C   0  0  0  0  0  0  0  0  0  0  0  0
   48.1060   31.8130   43.6690 O   0  0  0  0  0  0  0  0  0  0  0  0
   46.6280   33.4490   44.5710 C   0  0  0  0  0  0  0  0  0  0  0  0
   46.6050   32.7850   45.8110 C   0  0  0  0  0  0  0  0  0  0  0  0
   45.6860   33.2240   46.7520 C   0  0  0  0  0  0  0  0  0  0  0  0
   44.8690   34.2750   46.4000 N   0  0  0  0  0  0  0  0  0  0  0  0
   44.9270   34.8770   45.2080 C   0  0  0  0  0  0  0  0  0  0  0  0
   45.7950   34.4720   44.3020 N   0  0  0  0  0  0  0  0  0  0  0  0
   47.4710   34.1110   39.0210 O   0  0  0  0  0  0  0  0  0  0  0  0
   49.3470   33.0160   38.0720 N   0  0  0  0  0  0  0  0  0  0  0  0
   49.4820   32.2570   36.8580 C   0  0  0  0  0  0  0  0  0  0  0  0
   48.5380   32.8560   35.8430 C   0  0  0  0  0  0  0  0  0  0  0  0
   47.4310   33.3730   36.7450 C   0  0  0  0  0  0  0  0  0  0  0  0
   48.2530   33.9600   37.8830 C   0  0  1  0  0  0  0  0  0  0  0  0
   49.2267   35.0892   43.8004 H   0  0  0  0  0  0  0  0  0  0  0  0
   49.9725   36.6082   41.9895 H   0  0  0  0  0  0  0  0  0  0  0  0
   49.1464   36.1693   39.6767 H   0  0  0  0  0  0  0  0  0  0  0  0
   47.2889   31.9506   46.0256 H   0  0  0  0  0  0  0  0  0  0  0  0
   45.6124   32.7506   47.7422 H   0  0  0  0  0  0  0  0  0  0  0  0
   44.2485   35.7129   44.9822 H   0  0  0  0  0  0  0  0  0  0  0  0
   49.1348   32.3856   38.8584 H   0  0  0  0  0  0  0  0  0  0  0  0
   50.5169   32.3172   36.4902 H   0  0  0  0  0  0  0  0  0  0  0  0
   49.2421   31.1979   37.0336 H   0  0  0  0  0  0  0  0  0  0  0  0
   48.1648   32.0960   35.1408 H   0  0  0  0  0  0  0  0  0  0  0  0
   48.9927   33.6229   35.1987 H   0  0  0  0  0  0  0  0  0  0  0  0
   46.8242   34.1415   36.2438 H   0  0  0  0  0  0  0  0  0  0  0  0
   46.6980   32.6130   37.0532 H   0  0  0  0  0  0  0  0  0  0  0  0
   48.6369   34.9673   37.6640 H   0  0  0  0  0  0  0  0  0  0  0  0
  1  2  2  0
  1  7  1  0
  3  2  1  0
  4  3  2  0
  5  4  1  0
  5  6  2  0
  6  1  1  0
  7  8  2  0
  7  9  1  0
  9 10  2  0
 10 11  1  0
 12 11  2  0
 13 12  1  0
 14  9  1  0
 14 13  2  0
 15  5  1  0
 17 16  1  0
 18 19  1  0
 18 17  1  0
 19 20  1  0
 20 16  1  0
 20 15  1  0
  2 21  1  0
  3 22  1  0
  4 23  1  0
 10 24  1  0
 11 25  1  0
 13 26  1  0
 16 27  1  0
 17 28  1  0
 17 29  1  0
 18 30  1  0
 18 31  1  0
 19 32  1  0
 19 33  1  0
 20 34  1  6
M  ISO  8  21  14  22  14  23  14  24  14  25  14  26  14  27   5  28  13
M  ISO  6  29  13  30  13  31  13  32  13  33  13  34  13
M  END
>  <minimizedAffinity>  (1) 
-5.23323059

>  <minimizedRMSD>  (1) 
1.18450451

$$$$
