
     RDKit          3D

 29 31  0  0  0  0  0  0  0  0999 V2000
   48.0360   32.7460   43.1780 C   0  0  0  0  0  0  0  0  0  0  0  0
   49.0860   31.9990   42.6600 C   0  0  0  0  0  0  0  0  0  0  0  0
   49.3390   30.6990   43.0310 C   0  0  0  0  0  0  0  0  0  0  0  0
   48.5020   30.1290   43.9600 C   0  0  0  0  0  0  0  0  0  0  0  0
   47.4430   30.8810   44.4840 C   0  0  0  0  0  0  0  0  0  0  0  0
   47.2330   32.1590   44.0860 N   0  0  0  0  0  0  0  0  0  0  0  0
   47.8210   34.1160   42.7450 C   0  0  0  0  0  0  0  0  0  0  0  0
   48.8070   34.8990   42.7630 O   0  0  0  0  0  0  0  0  0  0  0  0
   46.4800   34.5130   42.3130 C   0  0  0  0  0  0  0  0  0  0  0  0
   45.8140   35.4150   43.1700 C   0  0  0  0  0  0  0  0  0  0  0  0
   44.5470   35.8160   42.8020 C   0  0  0  0  0  0  0  0  0  0  0  0
   44.0360   35.3090   41.6370 N   0  0  0  0  0  0  0  0  0  0  0  0
   44.7000   34.4500   40.8430 C   0  0  0  0  0  0  0  0  0  0  0  0
   45.9140   34.0590   41.1860 N   0  0  0  0  0  0  0  0  0  0  0  0
   46.5270   30.4250   45.4270 O   0  0  0  0  0  0  0  0  0  0  0  0
   46.4730   31.2030   46.5990 C   0  0  0  0  0  0  0  0  0  0  0  0
   47.2340   31.4850   47.7340 C   0  0  0  0  0  0  0  0  0  0  0  0
   46.5050   32.3700   48.4650 N   0  0  0  0  0  0  0  0  0  0  0  0
   45.3490   32.6280   47.8240 C   0  0  0  0  0  0  0  0  0  0  0  0
   45.3200   31.9100   46.6680 N   0  0  0  0  0  0  0  0  0  0  0  0
   49.7470   32.4697   41.9174 H   0  0  0  0  0  0  0  0  0  0  0  0
   50.1802   30.1363   42.6000 H   0  0  0  0  0  0  0  0  0  0  0  0
   48.6623   29.0917   44.2890 H   0  0  0  0  0  0  0  0  0  0  0  0
   46.2859   35.7828   44.0930 H   0  0  0  0  0  0  0  0  0  0  0  0
   43.9682   36.5171   43.4212 H   0  0  0  0  0  0  0  0  0  0  0  0
   44.2367   34.0770   39.9176 H   0  0  0  0  0  0  0  0  0  0  0  0
   48.2229   31.0747   47.9862 H   0  0  0  0  0  0  0  0  0  0  0  0
   44.5586   33.3070   48.1765 H   0  0  0  0  0  0  0  0  0  0  0  0
   44.5600   31.9053   45.9728 H   0  0  0  0  0  0  0  0  0  0  0  0
  1  6  2  0
  2  3  2  0
  2  1  1  0
  3  4  1  0
  4  5  2  0
  5 15  1  0
  6  5  1  0
  7  8  2  0
  7  1  1  0
  9  7  1  0
  9 10  2  0
 11 10  1  0
 12 11  2  0
 13 14  2  0
 13 12  1  0
 14  9  1  0
 15 16  1  0
 16 20  1  0
 16 17  2  0
 17 18  1  0
 19 18  2  0
 20 19  1  0
  2 21  1  0
  3 22  1  0
  4 23  1  0
 10 24  1  0
 11 25  1  0
 13 26  1  0
 17 27  1  0
 19 28  1  0
 20 29  1  0
M  ISO  8  21  14  22  14  23  14  24  14  25  14  26  14  27  14  28  14
M  ISO  1  29   9
M  END
>  <minimizedAffinity>  (1) 
-4.38576317

>  <minimizedRMSD>  (1) 
6.77205944

$$$$
