
     RDKit          3D

 43 47  0  0  1  0  0  0  0  0999 V2000
   46.8010   33.3800   38.7720 O   0  0  0  0  0  0  0  0  0  0  0  0
   47.5530   33.9450   42.1940 C   0  0  0  0  0  0  0  0  0  0  0  0
   48.4960   34.9530   42.1240 C   0  0  0  0  0  0  0  0  0  0  0  0
   48.9320   35.5030   40.9420 C   0  0  0  0  0  0  0  0  0  0  0  0
   48.3920   35.0120   39.7890 C   0  0  0  0  0  0  0  0  0  0  0  0
   47.4480   34.0030   39.8260 C   0  0  0  0  0  0  0  0  0  0  0  0
   47.0620   33.5050   41.0280 N   0  0  0  0  0  0  0  0  0  0  0  0
   47.1350   33.3990   43.4750 C   0  0  0  0  0  0  0  0  0  0  0  0
   47.6650   32.2930   43.8330 O   0  0  0  0  0  0  0  0  0  0  0  0
   46.1620   34.1120   44.2700 C   0  0  0  0  0  0  0  0  0  0  0  0
   45.9520   33.6030   45.5740 C   0  0  0  0  0  0  0  0  0  0  0  0
   45.0200   34.2790   46.3580 C   0  0  0  0  0  0  0  0  0  0  0  0
   44.3920   35.3660   45.8090 N   0  0  0  0  0  0  0  0  0  0  0  0
   44.6320   35.8020   44.5710 C   0  0  0  0  0  0  0  0  0  0  0  0
   45.5080   35.1830   43.8050 N   0  0  0  0  0  0  0  0  0  0  0  0
   47.4320   32.6740   37.7340 C   0  0  1  0  0  0  0  0  0  0  0  0
   46.7820   31.2870   37.5440 C   0  0  0  0  0  0  0  0  0  0  0  0
   46.7190   32.3710   36.4910 C   0  0  2  0  0  0  0  0  0  0  0  0
   47.5500   32.2380   35.3110 N   0  0  0  0  0  0  0  0  0  0  0  0
   48.7080   32.7630   34.9150 C   0  0  0  0  0  0  0  0  0  0  0  0
   49.0600   32.3000   33.7010 N   0  0  0  0  0  0  0  0  0  0  0  0
   48.0840   31.4400   33.3030 C   0  0  0  0  0  0  0  0  0  0  0  0
   47.8940   30.6710   32.1700 C   0  0  0  0  0  0  0  0  0  0  0  0
   48.7470   30.6880   31.2300 O   0  0  0  0  0  0  0  0  0  0  0  0
   46.8260   29.8830   32.0030 N   0  0  0  0  0  0  0  0  0  0  0  0
   45.9280   29.8650   32.9920 C   0  0  0  0  0  0  0  0  0  0  0  0
   44.7400   29.0650   32.9400 N   0  0  0  0  0  0  0  0  0  0  0  0
   46.0670   30.5920   34.1110 N   0  0  0  0  0  0  0  0  0  0  0  0
   47.1400   31.4050   34.3150 C   0  0  0  0  0  0  0  0  0  0  0  0
   48.9202   35.3355   43.0641 H   0  0  0  0  0  0  0  0  0  0  0  0
   49.6845   36.3052   40.9263 H   0  0  0  0  0  0  0  0  0  0  0  0
   48.7113   35.4234   38.8201 H   0  0  0  0  0  0  0  0  0  0  0  0
   46.4948   32.7222   45.9476 H   0  0  0  0  0  0  0  0  0  0  0  0
   44.7956   33.9511   47.3837 H   0  0  0  0  0  0  0  0  0  0  0  0
   44.0959   36.6827   44.1876 H   0  0  0  0  0  0  0  0  0  0  0  0
   48.4251   33.1153   37.9045 H   0  0  0  0  0  0  0  0  0  0  0  0
   47.4069   30.3951   37.3891 H   0  0  0  0  0  0  0  0  0  0  0  0
   46.0548   30.6697   38.0918 H   0  0  0  0  0  0  0  0  0  0  0  0
   45.8846   32.8266   35.9376 H   0  0  0  0  0  0  0  0  0  0  0  0
   49.2992   33.4807   35.5027 H   0  0  0  0  0  0  0  0  0  0  0  0
   46.7018   29.3166   31.1517 H   0  0  0  0  0  0  0  0  0  0  0  0
   44.0736   29.0809   33.7252 H   0  0  0  0  0  0  0  0  0  0  0  0
   44.5526   28.4741   32.1174 H   0  0  0  0  0  0  0  0  0  0  0  0
  1  6  1  0
  2  8  1  0
  3  2  2  0
  4  3  1  0
  5  6  1  0
  5  4  2  0
  6  7  2  0
  7  2  1  0
  8  9  2  0
  8 10  1  0
 10 11  2  0
 11 12  1  0
 13 12  2  0
 14 13  1  0
 15 10  1  0
 15 14  2  0
 16  1  1  0
 17 16  1  0
 18 17  1  0
 18 16  1  0
 19 18  1  0
 20 19  1  0
 21 20  2  0
 22 21  1  0
 22 29  2  0
 23 22  1  0
 24 23  2  0
 25 23  1  0
 25 26  1  0
 26 28  2  0
 27 26  1  0
 28 29  1  0
 29 19  1  0
  3 30  1  0
  4 31  1  0
  5 32  1  0
 11 33  1  0
 12 34  1  0
 14 35  1  0
 16 36  1  6
 17 37  1  0
 17 38  1  0
 18 39  1  6
 20 40  1  0
 25 41  1  0
 27 42  1  0
 27 43  1  0
M  ISO  8  30  14  31  14  32  14  33  14  34  14  35  14  36  13  37  13
M  ISO  4  38  13  39  13  40  14  41   9
M  END
>  <minimizedAffinity>  (1) 
-6.42479467

>  <minimizedRMSD>  (1) 
1.57677567

$$$$
