
     RDKit          3D

 36 38  0  0  1  0  0  0  0  0999 V2000
   47.0550   33.9570   41.6200 C   0  0  0  0  0  0  0  0  0  0  0  0
   47.9770   34.8890   42.0340 C   0  0  0  0  0  0  0  0  0  0  0  0
   48.8340   35.5380   41.1740 C   0  0  0  0  0  0  0  0  0  0  0  0
   48.7460   35.2240   39.8480 C   0  0  0  0  0  0  0  0  0  0  0  0
   47.8280   34.2910   39.4040 C   0  0  0  0  0  0  0  0  0  0  0  0
   47.0130   33.6900   40.3090 N   0  0  0  0  0  0  0  0  0  0  0  0
   46.1780   33.2930   42.5780 C   0  0  0  0  0  0  0  0  0  0  0  0
   45.9720   32.0420   42.4080 O   0  0  0  0  0  0  0  0  0  0  0  0
   45.5930   34.0600   43.6540 C   0  0  0  0  0  0  0  0  0  0  0  0
   45.7440   33.5080   44.9480 C   0  0  0  0  0  0  0  0  0  0  0  0
   45.1870   34.2310   46.0000 C   0  0  0  0  0  0  0  0  0  0  0  0
   44.5550   35.3930   45.7030 N   0  0  0  0  0  0  0  0  0  0  0  0
   44.4380   35.8760   44.4580 C   0  0  0  0  0  0  0  0  0  0  0  0
   44.9550   35.2140   43.4410 N   0  0  0  0  0  0  0  0  0  0  0  0
   47.6010   33.8440   38.1130 O   0  0  0  0  0  0  0  0  0  0  0  0
   48.6000   33.5980   37.1540 C   0  0  1  0  0  0  0  0  0  0  0  0
   48.8470   32.0820   37.0070 C   0  0  0  0  0  0  0  0  0  0  0  0
   48.2880   32.8840   35.9110 C   0  0  1  0  0  0  0  0  0  0  0  0
   46.9270   32.9410   35.5120 N   0  0  0  0  0  0  0  0  0  0  0  0
   46.4020   32.7270   34.1950 C   0  0  0  0  0  0  0  0  0  0  0  0
   47.2630   32.5890   33.2440 N   0  0  0  0  0  0  0  0  0  0  0  0
   44.9830   32.6670   33.9330 N   0  0  0  0  0  0  0  0  0  0  0  0
   46.8900   32.4340   32.2830 H   0  0  0  0  0  0  0  0  0  0  0  0
   48.0327   35.1281   43.1062 H   0  0  0  0  0  0  0  0  0  0  0  0
   49.5598   36.2791   41.5400 H   0  0  0  0  0  0  0  0  0  0  0  0
   49.4124   35.7185   39.1260 H   0  0  0  0  0  0  0  0  0  0  0  0
   46.2733   32.5582   45.1143 H   0  0  0  0  0  0  0  0  0  0  0  0
   45.2575   33.8713   47.0371 H   0  0  0  0  0  0  0  0  0  0  0  0
   43.9103   36.8254   44.2843 H   0  0  0  0  0  0  0  0  0  0  0  0
   49.1503   34.5317   37.3421 H   0  0  0  0  0  0  0  0  0  0  0  0
   49.8730   31.6909   36.9409 H   0  0  0  0  0  0  0  0  0  0  0  0
   48.5447   31.1775   37.5553 H   0  0  0  0  0  0  0  0  0  0  0  0
   48.5831   32.8995   34.8514 H   0  0  0  0  0  0  0  0  0  0  0  0
   46.2417   33.1600   36.2491 H   0  0  0  0  0  0  0  0  0  0  0  0
   44.6426   32.5116   32.9734 H   0  0  0  0  0  0  0  0  0  0  0  0
   44.3114   32.7796   34.7058 H   0  0  0  0  0  0  0  0  0  0  0  0
  1  2  2  0
  1  7  1  0
  3  2  1  0
  4  3  2  0
  5  4  1  0
  5  6  2  0
  6  1  1  0
  7  9  1  0
  8  7  2  0
  9 10  2  0
 10 11  1  0
 12 11  2  0
 13 12  1  0
 14  9  1  0
 14 13  2  0
 15  5  1  0
 16 15  1  0
 17 16  1  0
 18 17  1  0
 18 16  1  0
 19 18  1  0
 20 19  1  0
 21 20  2  0
 22 20  1  0
 23 21  1  0
  2 24  1  0
  3 25  1  0
  4 26  1  0
 10 27  1  0
 11 28  1  0
 13 29  1  0
 16 30  1  6
 17 31  1  0
 17 32  1  0
 18 33  1  6
 19 34  1  0
 22 35  1  0
 22 36  1  0
M  ISO  8  24  14  25  14  26  14  27  14  28  14  29  14  30  13  31  13
M  ISO  2  32  13  33  13
M  END
>  <minimizedAffinity>  (1) 
-6.27549124

>  <minimizedRMSD>  (1) 
1.54629648

$$$$
