
     RDKit          3D

 43 47  0  0  1  0  0  0  0  0999 V2000
   47.3430   34.0490   41.9100 C   0  0  0  0  0  0  0  0  0  0  0  0
   48.2310   35.0270   42.3180 C   0  0  0  0  0  0  0  0  0  0  0  0
   49.0120   35.7530   41.4500 C   0  0  0  0  0  0  0  0  0  0  0  0
   48.8850   35.4710   40.1280 C   0  0  0  0  0  0  0  0  0  0  0  0
   48.0050   34.4960   39.6870 C   0  0  0  0  0  0  0  0  0  0  0  0
   47.2620   33.8180   40.5920 N   0  0  0  0  0  0  0  0  0  0  0  0
   46.5490   33.3170   42.8760 C   0  0  0  0  0  0  0  0  0  0  0  0
   46.5280   32.0450   42.7620 O   0  0  0  0  0  0  0  0  0  0  0  0
   45.8290   34.0310   43.9060 C   0  0  0  0  0  0  0  0  0  0  0  0
   45.8730   33.4650   45.1980 C   0  0  0  0  0  0  0  0  0  0  0  0
   45.1820   34.1450   46.2000 C   0  0  0  0  0  0  0  0  0  0  0  0
   44.5230   35.2930   45.8530 N   0  0  0  0  0  0  0  0  0  0  0  0
   44.5090   35.7920   44.6100 C   0  0  0  0  0  0  0  0  0  0  0  0
   45.1630   35.1560   43.6480 N   0  0  0  0  0  0  0  0  0  0  0  0
   47.7610   34.0800   38.3860 O   0  0  0  0  0  0  0  0  0  0  0  0
   48.7110   34.0340   37.3510 C   0  0  1  0  0  0  0  0  0  0  0  0
   49.3310   32.6240   37.2470 C   0  0  0  0  0  0  0  0  0  0  0  0
   48.4840   33.2330   36.1470 C   0  0  1  0  0  0  0  0  0  0  0  0
   47.2080   32.5440   35.9020 C   0  0  0  0  0  0  0  0  0  0  0  0
   46.2220   32.8180   36.7780 N   0  0  0  0  0  0  0  0  0  0  0  0
   45.0020   32.2270   36.6310 C   0  0  0  0  0  0  0  0  0  0  0  0
   44.7710   31.3700   35.6170 N   0  0  0  0  0  0  0  0  0  0  0  0
   45.7570   31.0830   34.7240 C   0  0  0  0  0  0  0  0  0  0  0  0
   45.5190   30.2030   33.6840 C   0  0  0  0  0  0  0  0  0  0  0  0
   46.5360   29.9230   32.7850 C   0  0  0  0  0  0  0  0  0  0  0  0
   47.7620   30.5340   32.9520 C   0  0  0  0  0  0  0  0  0  0  0  0
   48.0500   31.4170   33.9720 C   0  0  0  0  0  0  0  0  0  0  0  0
   47.0140   31.6730   34.8500 C   0  0  0  0  0  0  0  0  0  0  0  0
   48.3173   35.2354   43.3946 H   0  0  0  0  0  0  0  0  0  0  0  0
   49.7071   36.5260   41.8097 H   0  0  0  0  0  0  0  0  0  0  0  0
   49.4903   36.0253   39.3956 H   0  0  0  0  0  0  0  0  0  0  0  0
   46.4240   32.5354   45.4039 H   0  0  0  0  0  0  0  0  0  0  0  0
   45.1671   33.7713   47.2345 H   0  0  0  0  0  0  0  0  0  0  0  0
   43.9606   36.7198   44.3897 H   0  0  0  0  0  0  0  0  0  0  0  0
   49.0261   35.0819   37.4637 H   0  0  0  0  0  0  0  0  0  0  0  0
   50.4156   32.5003   37.1120 H   0  0  0  0  0  0  0  0  0  0  0  0
   49.3113   31.7016   37.8460 H   0  0  0  0  0  0  0  0  0  0  0  0
   48.6026   33.4820   35.0821 H   0  0  0  0  0  0  0  0  0  0  0  0
   44.1982   32.4521   37.3474 H   0  0  0  0  0  0  0  0  0  0  0  0
   44.5323   29.7300   33.5714 H   0  0  0  0  0  0  0  0  0  0  0  0
   46.3686   29.2248   31.9516 H   0  0  0  0  0  0  0  0  0  0  0  0
   48.5575   30.3031   32.2282 H   0  0  0  0  0  0  0  0  0  0  0  0
   49.0390   31.8863   34.0794 H   0  0  0  0  0  0  0  0  0  0  0  0
  1  2  2  0
  1  7  1  0
  3  2  1  0
  4  3  2  0
  5  4  1  0
  5  6  2  0
  6  1  1  0
  7  9  1  0
  8  7  2  0
  9 10  2  0
 10 11  1  0
 12 11  2  0
 13 12  1  0
 14  9  1  0
 14 13  2  0
 15  5  1  0
 16 15  1  0
 17 16  1  0
 18 17  1  0
 18 16  1  0
 19 18  1  0
 19 20  2  0
 21 20  1  0
 22 21  2  0
 23 28  2  0
 23 22  1  0
 24 23  1  0
 25 26  1  0
 25 24  2  0
 26 27  2  0
 27 28  1  0
 28 19  1  0
  2 29  1  0
  3 30  1  0
  4 31  1  0
 10 32  1  0
 11 33  1  0
 13 34  1  0
 16 35  1  6
 17 36  1  0
 17 37  1  0
 18 38  1  6
 21 39  1  0
 24 40  1  0
 25 41  1  0
 26 42  1  0
 27 43  1  0
M  ISO  8  29  14  30  14  31  14  32  14  33  14  34  14  35  13  36  13
M  ISO  7  37  13  38  13  39  14  40  14  41  14  42  14  43  14
M  END
>  <minimizedAffinity>  (1) 
-6.22503281

>  <minimizedRMSD>  (1) 
2.51906466

$$$$
