
     RDKit          3D

 32 33  0  0  0  0  0  0  0  0999 V2000
   45.6310   33.8170   43.6600 C   0  0  0  0  0  0  0  0  0  0  0  0
   46.7630   32.9770   43.8070 C   0  0  0  0  0  0  0  0  0  0  0  0
   47.1870   32.6570   45.1050 C   0  0  0  0  0  0  0  0  0  0  0  0
   46.4950   33.1660   46.1530 N   0  0  0  0  0  0  0  0  0  0  0  0
   45.4250   33.9610   46.0010 C   0  0  0  0  0  0  0  0  0  0  0  0
   45.0100   34.2730   44.7630 N   0  0  0  0  0  0  0  0  0  0  0  0
   45.0880   34.2030   42.3720 C   0  0  0  0  0  0  0  0  0  0  0  0
   43.8870   33.4320   41.9350 C   0  0  0  0  0  0  0  0  0  0  0  0
   43.3010   34.3500   40.8500 C   0  0  0  0  0  0  0  0  0  0  0  0
   43.7010   35.7290   41.2590 C   0  0  0  0  0  0  0  0  0  0  0  0
   44.4600   35.6000   42.5570 C   0  0  0  0  0  0  0  0  0  0  0  0
   47.4820   32.4610   42.6360 C   0  0  0  0  0  0  0  0  0  0  0  0
   46.7890   31.3490   41.9630 C   0  0  0  0  0  0  0  0  0  0  0  0
   47.9220   33.5980   41.7650 C   0  0  0  0  0  0  0  0  0  0  0  0
   48.0603   32.0084   45.2684 H   0  0  0  0  0  0  0  0  0  0  0  0
   44.8937   34.3528   46.8809 H   0  0  0  0  0  0  0  0  0  0  0  0
   45.9192   34.0811   41.6618 H   0  0  0  0  0  0  0  0  0  0  0  0
   44.1687   32.4524   41.5214 H   0  0  0  0  0  0  0  0  0  0  0  0
   43.1851   33.2015   42.7500 H   0  0  0  0  0  0  0  0  0  0  0  0
   42.2053   34.2587   40.8157 H   0  0  0  0  0  0  0  0  0  0  0  0
   43.6683   34.0922   39.8457 H   0  0  0  0  0  0  0  0  0  0  0  0
   44.3435   36.1804   40.4886 H   0  0  0  0  0  0  0  0  0  0  0  0
   42.8186   36.3741   41.3820 H   0  0  0  0  0  0  0  0  0  0  0  0
   43.7872   35.6318   43.4267 H   0  0  0  0  0  0  0  0  0  0  0  0
   45.1819   36.4072   42.7502 H   0  0  0  0  0  0  0  0  0  0  0  0
   48.4069   31.9678   42.9696 H   0  0  0  0  0  0  0  0  0  0  0  0
   46.3659   30.6701   42.7180 H   0  0  0  0  0  0  0  0  0  0  0  0
   45.9796   31.7483   41.3342 H   0  0  0  0  0  0  0  0  0  0  0  0
   47.5040   30.7982   41.3342 H   0  0  0  0  0  0  0  0  0  0  0  0
   48.2473   34.4385   42.3957 H   0  0  0  0  0  0  0  0  0  0  0  0
   48.7585   33.2710   41.1299 H   0  0  0  0  0  0  0  0  0  0  0  0
   47.0833   33.9193   41.1299 H   0  0  0  0  0  0  0  0  0  0  0  0
  1  2  2  0
  1  6  1  0
  2  3  1  0
  3  4  2  0
  5  4  1  0
  6  5  2  0
  7 11  1  0
  7  1  1  0
  8  7  1  0
  9 10  1  0
  9  8  1  0
 10 11  1  0
 12  2  1  0
 13 12  1  0
 14 12  1  0
  3 15  1  0
  5 16  1  0
  7 17  1  0
  8 18  1  0
  8 19  1  0
  9 20  1  0
  9 21  1  0
 10 22  1  0
 10 23  1  0
 11 24  1  0
 11 25  1  0
 12 26  1  0
 13 27  1  0
 13 28  1  0
 13 29  1  0
 14 30  1  0
 14 31  1  0
 14 32  1  0
M  ISO  8  15  14  16  14  17  13  18  13  19  13  20  13  21  13  22  13
M  ISO  8  23  13  24  13  25  13  26   8  27   8  28   8  29   8  30   8
M  ISO  2  31   8  32   8
M  END
>  <minimizedAffinity>  (1) 
-3.41406679

>  <minimizedRMSD>  (1) 
2.47628284

$$$$
