
     RDKit          3D

 36 38  0  0  1  0  0  0  0  0999 V2000
   44.5060   35.6700   44.7810 C   0  0  0  0  0  0  0  0  0  0  0  0
   45.2210   35.6140   43.5710 C   0  0  0  0  0  0  0  0  0  0  0  0
   46.2070   34.6270   43.4750 C   0  0  0  0  0  0  0  0  0  0  0  0
   46.4040   33.8050   44.5400 N   0  0  0  0  0  0  0  0  0  0  0  0
   45.6910   33.9020   45.6750 C   0  0  0  0  0  0  0  0  0  0  0  0
   44.7380   34.8370   45.7990 N   0  0  0  0  0  0  0  0  0  0  0  0
   45.9880   32.9980   46.6970 N   0  0  0  0  0  0  0  0  0  0  0  0
   45.0820   32.4830   47.6930 C   0  0  0  0  0  0  0  0  0  0  0  0
   45.9960   32.3630   48.8820 C   0  0  0  0  0  0  0  0  0  0  0  0
   47.1810   31.6250   48.2240 C   0  0  2  0  0  0  0  0  0  0  0  0
   47.3060   32.3910   46.9520 C   0  0  0  0  0  0  0  0  0  0  0  0
   46.7070   30.2620   47.9530 N   0  0  0  0  0  0  0  0  0  0  0  0
   46.5820   30.0830   46.4990 C   0  0  0  0  0  0  0  0  0  0  0  0
   45.4920   29.1050   46.1370 C   0  0  0  0  0  0  0  0  0  0  0  0
   45.3360   28.1060   47.2050 N   0  0  0  0  0  0  0  0  0  0  0  0
   44.7680   28.8040   48.3190 C   0  0  0  0  0  0  0  0  0  0  0  0
   45.3740   30.1780   48.5250 C   0  0  0  0  0  0  0  0  0  0  0  0
   43.7217   36.4330   44.8938 H   0  0  0  0  0  0  0  0  0  0  0  0
   45.0155   36.3097   42.7441 H   0  0  0  0  0  0  0  0  0  0  0  0
   46.8084   34.5183   42.5604 H   0  0  0  0  0  0  0  0  0  0  0  0
   44.2563   33.1831   47.8879 H   0  0  0  0  0  0  0  0  0  0  0  0
   44.5836   31.5444   47.4090 H   0  0  0  0  0  0  0  0  0  0  0  0
   46.2924   33.3479   49.2720 H   0  0  0  0  0  0  0  0  0  0  0  0
   45.5599   31.8587   49.7569 H   0  0  0  0  0  0  0  0  0  0  0  0
   48.1196   31.5654   48.7944 H   0  0  0  0  0  0  0  0  0  0  0  0
   47.5793   31.7161   46.1275 H   0  0  0  0  0  0  0  0  0  0  0  0
   48.0898   33.1593   47.0261 H   0  0  0  0  0  0  0  0  0  0  0  0
   46.3514   31.0561   46.0408 H   0  0  0  0  0  0  0  0  0  0  0  0
   47.5349   29.6803   46.1251 H   0  0  0  0  0  0  0  0  0  0  0  0
   44.5446   29.6481   46.0053 H   0  0  0  0  0  0  0  0  0  0  0  0
   45.7626   28.5935   45.2015 H   0  0  0  0  0  0  0  0  0  0  0  0
   44.7076   27.3497   46.8985 H   0  0  0  0  0  0  0  0  0  0  0  0
   43.6876   28.9190   48.1473 H   0  0  0  0  0  0  0  0  0  0  0  0
   44.9781   28.2117   49.2218 H   0  0  0  0  0  0  0  0  0  0  0  0
   45.4341   30.3843   49.6038 H   0  0  0  0  0  0  0  0  0  0  0  0
   44.7342   30.9171   48.0206 H   0  0  0  0  0  0  0  0  0  0  0  0
  1  6  2  0
  2  1  1  0
  3  2  2  0
  3  4  1  0
  4  5  2  0
  5  6  1  0
  5  7  1  0
  7 11  1  0
  7  8  1  0
  8  9  1  0
 10  9  1  0
 11 10  1  0
 12 10  1  0
 12 17  1  0
 13 12  1  0
 14 13  1  0
 14 15  1  0
 15 16  1  0
 16 17  1  0
  1 18  1  0
  2 19  1  0
  3 20  1  0
  8 21  1  0
  8 22  1  0
  9 23  1  0
  9 24  1  0
 10 25  1  1
 11 26  1  0
 11 27  1  0
 13 28  1  0
 13 29  1  0
 14 30  1  0
 14 31  1  0
 15 32  1  0
 16 33  1  0
 16 34  1  0
 17 35  1  0
 17 36  1  0
M  ISO  8  18  14  19  14  20  14  21  13  22  13  23  13  24  13  25  13
M  ISO  8  26  13  27  13  28  13  29  13  30  13  31  13  32   5  33  13
M  ISO  3  34  13  35  13  36  13
M  END
>  <minimizedAffinity>  (1) 
-4.91438723

>  <minimizedRMSD>  (1) 
0.460428625

$$$$
