
     RDKit          3D

 34 35  0  0  1  0  0  0  0  0999 V2000
   44.5340   34.3040   42.1930 C   0  0  0  0  0  0  0  0  0  0  0  0
   44.1320   35.5860   42.6670 C   0  0  0  0  0  0  0  0  0  0  0  0
   44.4830   35.9350   43.9960 C   0  0  0  0  0  0  0  0  0  0  0  0
   45.1790   35.0190   44.7240 N   0  0  0  0  0  0  0  0  0  0  0  0
   45.5340   33.8150   44.2180 C   0  0  0  0  0  0  0  0  0  0  0  0
   45.2130   33.4690   42.9700 N   0  0  0  0  0  0  0  0  0  0  0  0
   46.2550   32.9600   45.0740 N   0  0  0  0  0  0  0  0  0  0  0  0
   47.2090   31.9490   44.6410 C   0  0  0  0  0  0  0  0  0  0  0  0
   46.9950   30.9210   45.7490 C   0  0  0  0  0  0  0  0  0  0  0  0
   47.1100   31.8390   46.9600 C   0  0  1  0  0  0  0  0  0  0  0  0
   46.1620   32.9460   46.5470 C   0  0  0  0  0  0  0  0  0  0  0  0
   46.7230   31.1880   48.2440 C   0  0  0  0  0  0  0  0  0  0  0  0
   45.8730   29.9570   48.0800 C   0  0  0  0  0  0  0  0  0  0  0  0
   45.8610   32.2070   49.0000 C   0  0  0  0  0  0  0  0  0  0  0  0
   47.9050   30.9240   49.1490 C   0  0  0  0  0  0  0  0  0  0  0  0
   44.2777   34.0014   41.1670 H   0  0  0  0  0  0  0  0  0  0  0  0
   43.5696   36.2801   42.0252 H   0  0  0  0  0  0  0  0  0  0  0  0
   44.2033   36.9095   44.4227 H   0  0  0  0  0  0  0  0  0  0  0  0
   46.9579   31.5439   43.6496 H   0  0  0  0  0  0  0  0  0  0  0  0
   48.2441   32.3002   44.5177 H   0  0  0  0  0  0  0  0  0  0  0  0
   46.0045   30.4469   45.6847 H   0  0  0  0  0  0  0  0  0  0  0  0
   47.6876   30.0665   45.7386 H   0  0  0  0  0  0  0  0  0  0  0  0
   48.1363   32.1683   47.1800 H   0  0  0  0  0  0  0  0  0  0  0  0
   46.4795   33.9111   46.9686 H   0  0  0  0  0  0  0  0  0  0  0  0
   45.1353   32.7821   46.9063 H   0  0  0  0  0  0  0  0  0  0  0  0
   45.6017   29.5641   49.0710 H   0  0  0  0  0  0  0  0  0  0  0  0
   44.9589   30.2139   47.5246 H   0  0  0  0  0  0  0  0  0  0  0  0
   46.4371   29.1932   47.5246 H   0  0  0  0  0  0  0  0  0  0  0  0
   45.9851   32.0603   50.0831 H   0  0  0  0  0  0  0  0  0  0  0  0
   46.1756   33.2258   48.7295 H   0  0  0  0  0  0  0  0  0  0  0  0
   44.8042   32.0656   48.7295 H   0  0  0  0  0  0  0  0  0  0  0  0
   47.5858   30.9953   50.1993 H   0  0  0  0  0  0  0  0  0  0  0  0
   48.2988   29.9158   48.9531 H   0  0  0  0  0  0  0  0  0  0  0  0
   48.6904   31.6689   48.9531 H   0  0  0  0  0  0  0  0  0  0  0  0
  1  2  2  0
  1  6  1  0
  2  3  1  0
  3  4  2  0
  5  4  1  0
  5  7  1  0
  6  5  2  0
  7 11  1  0
  8  7  1  0
  8  9  1  0
  9 10  1  0
 10 12  1  0
 11 10  1  0
 12 14  1  0
 12 15  1  0
 13 12  1  0
  1 16  1  0
  2 17  1  0
  3 18  1  0
  8 19  1  0
  8 20  1  0
  9 21  1  0
  9 22  1  0
 10 23  1  1
 11 24  1  0
 11 25  1  0
 13 26  1  0
 13 27  1  0
 13 28  1  0
 14 29  1  0
 14 30  1  0
 14 31  1  0
 15 32  1  0
 15 33  1  0
 15 34  1  0
M  ISO  8  16  14  17  14  18  14  19  13  20  13  21  13  22  13  23  13
M  ISO  8  24  13  25  13  26   8  27   8  28   8  29   8  30   8  31   8
M  ISO  3  32   8  33   8  34   8
M  END
>  <minimizedAffinity>  (1) 
-4.64552498

>  <minimizedRMSD>  (1) 
2.55767369

$$$$
