
     RDKit          3D

 29 31  0  0  1  0  0  0  0  0999 V2000
   44.5420   35.6980   44.8420 C   0  0  0  0  0  0  0  0  0  0  0  0
   45.1740   35.5720   43.5950 C   0  0  0  0  0  0  0  0  0  0  0  0
   46.0780   34.5120   43.4490 C   0  0  0  0  0  0  0  0  0  0  0  0
   46.3020   33.6680   44.4990 N   0  0  0  0  0  0  0  0  0  0  0  0
   45.6660   33.8370   45.6720 C   0  0  0  0  0  0  0  0  0  0  0  0
   44.8010   34.8420   45.8280 N   0  0  0  0  0  0  0  0  0  0  0  0
   45.9320   32.9440   46.7180 N   0  0  0  0  0  0  0  0  0  0  0  0
   45.0390   32.5230   47.7650 C   0  0  0  0  0  0  0  0  0  0  0  0
   46.0040   32.3290   48.9140 C   0  0  0  0  0  0  0  0  0  0  0  0
   47.0920   31.5230   48.1950 C   0  0  1  0  0  0  0  0  0  0  0  0
   47.2270   32.2610   46.9250 C   0  0  0  0  0  0  0  0  0  0  0  0
   48.3340   31.6120   49.0240 C   0  0  0  0  0  0  0  0  0  0  0  0
   48.8040   30.3290   49.7240 C   0  0  0  0  0  0  0  0  0  0  0  0
   49.6430   31.0570   48.6690 C   0  0  0  0  0  0  0  0  0  0  0  0
   43.8235   36.5145   45.0066 H   0  0  0  0  0  0  0  0  0  0  0  0
   44.9692   36.2722   42.7718 H   0  0  0  0  0  0  0  0  0  0  0  0
   46.6040   34.3604   42.4949 H   0  0  0  0  0  0  0  0  0  0  0  0
   44.2915   33.2971   47.9927 H   0  0  0  0  0  0  0  0  0  0  0  0
   44.4442   31.6309   47.5195 H   0  0  0  0  0  0  0  0  0  0  0  0
   46.3870   33.2873   49.2949 H   0  0  0  0  0  0  0  0  0  0  0  0
   45.5785   31.8492   49.8077 H   0  0  0  0  0  0  0  0  0  0  0  0
   46.8833   30.4548   48.0354 H   0  0  0  0  0  0  0  0  0  0  0  0
   47.4302   31.5656   46.0973 H   0  0  0  0  0  0  0  0  0  0  0  0
   48.0619   32.9764   46.9586 H   0  0  0  0  0  0  0  0  0  0  0  0
   48.0375   32.6354   49.2975 H   0  0  0  0  0  0  0  0  0  0  0  0
   49.1006   30.3479   50.7831 H   0  0  0  0  0  0  0  0  0  0  0  0
   48.4120   29.3107   49.8634 H   0  0  0  0  0  0  0  0  0  0  0  0
   49.7917   30.5999   47.6796 H   0  0  0  0  0  0  0  0  0  0  0  0
   50.6668   31.4585   48.6444 H   0  0  0  0  0  0  0  0  0  0  0  0
  1  6  2  0
  2  1  1  0
  3  2  2  0
  3  4  1  0
  4  5  2  0
  5  6  1  0
  5  7  1  0
  7 11  1  0
  7  8  1  0
  8  9  1  0
 10  9  1  0
 10 12  1  0
 11 10  1  0
 12 13  1  0
 14 12  1  0
 14 13  1  0
  1 15  1  0
  2 16  1  0
  3 17  1  0
  8 18  1  0
  8 19  1  0
  9 20  1  0
  9 21  1  0
 10 22  1  6
 11 23  1  0
 11 24  1  0
 12 25  1  0
 13 26  1  0
 13 27  1  0
 14 28  1  0
 14 29  1  0
M  ISO  8  15  14  16  14  17  14  18  13  19  13  20  13  21  13  22  13
M  ISO  7  23  13  24  13  25  13  26  13  27  13  28  13  29  13
M  END
>  <minimizedAffinity>  (1) 
-4.69648027

>  <minimizedRMSD>  (1) 
0.44881171

$$$$
