
     RDKit          3D

 24 25  0  0  1  0  0  0  0  0999 V2000
   44.5550   35.5740   44.9410 C   0  0  0  0  0  0  0  0  0  0  0  0
   45.2740   35.4380   43.7190 C   0  0  0  0  0  0  0  0  0  0  0  0
   46.2080   34.3890   43.6230 C   0  0  0  0  0  0  0  0  0  0  0  0
   46.3560   33.5860   44.6950 N   0  0  0  0  0  0  0  0  0  0  0  0
   45.6710   33.7310   45.8300 C   0  0  0  0  0  0  0  0  0  0  0  0
   44.7700   34.7250   45.9550 N   0  0  0  0  0  0  0  0  0  0  0  0
   45.9110   32.8330   46.8790 N   0  0  0  0  0  0  0  0  0  0  0  0
   44.9670   32.4200   47.9100 C   0  0  0  0  0  0  0  0  0  0  0  0
   45.9330   32.2580   49.0800 C   0  0  0  0  0  0  0  0  0  0  0  0
   47.0100   31.4090   48.4070 C   0  0  2  0  0  0  0  0  0  0  0  0
   47.1950   32.1510   47.1040 C   0  0  0  0  0  0  0  0  0  0  0  0
   46.5180   30.0600   48.2390 N   0  0  0  0  0  0  0  0  0  0  0  0
   43.8175   36.3824   45.0531 H   0  0  0  0  0  0  0  0  0  0  0  0
   45.1054   36.1285   42.8795 H   0  0  0  0  0  0  0  0  0  0  0  0
   46.7954   34.2307   42.7066 H   0  0  0  0  0  0  0  0  0  0  0  0
   44.2092   33.1927   48.1067 H   0  0  0  0  0  0  0  0  0  0  0  0
   44.3679   31.5295   47.6688 H   0  0  0  0  0  0  0  0  0  0  0  0
   46.3284   33.2259   49.4219 H   0  0  0  0  0  0  0  0  0  0  0  0
   45.4952   31.8214   49.9898 H   0  0  0  0  0  0  0  0  0  0  0  0
   47.9549   31.2925   48.9579 H   0  0  0  0  0  0  0  0  0  0  0  0
   47.4106   31.4492   46.2848 H   0  0  0  0  0  0  0  0  0  0  0  0
   48.0398   32.8545   47.1412 H   0  0  0  0  0  0  0  0  0  0  0  0
   46.3625   29.6336   49.1636 H   0  0  0  0  0  0  0  0  0  0  0  0
   45.6304   30.0808   47.7168 H   0  0  0  0  0  0  0  0  0  0  0  0
  1  6  2  0
  2  1  1  0
  3  2  2  0
  3  4  1  0
  4  5  2  0
  5  6  1  0
  5  7  1  0
  7 11  1  0
  7  8  1  0
  8  9  1  0
 10  9  1  0
 11 10  1  0
 12 10  1  0
  1 13  1  0
  2 14  1  0
  3 15  1  0
  8 16  1  0
  8 17  1  0
  9 18  1  0
  9 19  1  0
 10 20  1  1
 11 21  1  0
 11 22  1  0
 12 23  1  0
 12 24  1  0
M  ISO  8  13  14  14  14  15  14  16  13  17  13  18  13  19  13  20  13
M  ISO  4  21  13  22  13  23   5  24   5
M  END
>  <minimizedAffinity>  (1) 
-4.51114941

>  <minimizedRMSD>  (1) 
0.198931396

$$$$
