
     RDKit          3D

 29 31  0  0  1  0  0  0  0  0999 V2000
   44.6350   35.7400   44.9040 C   0  0  0  0  0  0  0  0  0  0  0  0
   44.9220   35.4560   43.5580 C   0  0  0  0  0  0  0  0  0  0  0  0
   45.5140   34.2180   43.2850 C   0  0  0  0  0  0  0  0  0  0  0  0
   45.7780   33.3620   44.3180 N   0  0  0  0  0  0  0  0  0  0  0  0
   45.4810   33.6860   45.5870 C   0  0  0  0  0  0  0  0  0  0  0  0
   44.9110   34.8720   45.8850 N   0  0  0  0  0  0  0  0  0  0  0  0
   45.7900   32.7430   46.5820 N   0  0  0  0  0  0  0  0  0  0  0  0
   45.0680   32.5340   47.8180 C   0  0  0  0  0  0  0  0  0  0  0  0
   46.1710   32.1310   48.7400 C   0  0  0  0  0  0  0  0  0  0  0  0
   46.9200   31.1150   47.8810 C   0  0  1  0  0  0  0  0  0  0  0  0
   46.9040   31.8060   46.5310 C   0  0  0  0  0  0  0  0  0  0  0  0
   48.2870   31.0280   48.4140 C   0  0  0  0  0  0  0  0  0  0  0  0
   49.0730   31.9140   49.2430 C   0  0  0  0  0  0  0  0  0  0  0  0
   50.3390   31.5020   49.5520 C   0  0  0  0  0  0  0  0  0  0  0  0
   50.8270   30.2780   49.0760 C   0  0  0  0  0  0  0  0  0  0  0  0
   49.3610   29.6320   48.0920 S   0  0  0  0  0  0  0  0  0  0  0  0
   44.1700   36.7037   45.1589 H   0  0  0  0  0  0  0  0  0  0  0  0
   44.6920   36.1734   42.7565 H   0  0  0  0  0  0  0  0  0  0  0  0
   45.7641   33.9366   42.2514 H   0  0  0  0  0  0  0  0  0  0  0  0
   44.5769   33.4577   48.1580 H   0  0  0  0  0  0  0  0  0  0  0  0
   44.2533   31.7987   47.7436 H   0  0  0  0  0  0  0  0  0  0  0  0
   46.8105   32.9869   49.0016 H   0  0  0  0  0  0  0  0  0  0  0  0
   45.8285   31.7378   49.7086 H   0  0  0  0  0  0  0  0  0  0  0  0
   46.5082   30.0955   47.8473 H   0  0  0  0  0  0  0  0  0  0  0  0
   46.7514   31.0720   45.7260 H   0  0  0  0  0  0  0  0  0  0  0  0
   47.8559   32.3173   46.3249 H   0  0  0  0  0  0  0  0  0  0  0  0
   48.6723   32.8716   49.6068 H   0  0  0  0  0  0  0  0  0  0  0  0
   50.9807   32.1373   50.1802 H   0  0  0  0  0  0  0  0  0  0  0  0
   51.8119   29.8152   49.2363 H   0  0  0  0  0  0  0  0  0  0  0  0
  1  6  2  0
  2  1  1  0
  3  2  2  0
  3  4  1  0
  4  5  2  0
  5  6  1  0
  5  7  1  0
  7  8  1  0
  8  9  1  0
 10 12  1  0
 10  9  1  0
 11  7  1  0
 11 10  1  0
 12 13  2  0
 13 14  1  0
 15 14  2  0
 16 12  1  0
 16 15  1  0
  1 17  1  0
  2 18  1  0
  3 19  1  0
  8 20  1  0
  8 21  1  0
  9 22  1  0
  9 23  1  0
 10 24  1  6
 11 25  1  0
 11 26  1  0
 13 27  1  0
 14 28  1  0
 15 29  1  0
M  ISO  8  17  14  18  14  19  14  20  13  21  13  22  13  23  13  24  13
M  ISO  5  25  13  26  13  27  14  28  14  29  14
M  END
>  <minimizedAffinity>  (1) 
-4.91178083

>  <minimizedRMSD>  (1) 
0.839409947

$$$$
