
     RDKit          3D

 42 45  0  0  1  0  0  0  0  0999 V2000
   44.5650   35.6120   45.0990 C   0  0  0  0  0  0  0  0  0  0  0  0
   45.0830   35.4710   43.7890 C   0  0  0  0  0  0  0  0  0  0  0  0
   45.9090   34.3570   43.5380 C   0  0  0  0  0  0  0  0  0  0  0  0
   46.1650   33.4810   44.5580 N   0  0  0  0  0  0  0  0  0  0  0  0
   45.6460   33.6640   45.7850 C   0  0  0  0  0  0  0  0  0  0  0  0
   44.8480   34.7250   46.0600 N   0  0  0  0  0  0  0  0  0  0  0  0
   45.9660   32.7090   46.7680 N   0  0  0  0  0  0  0  0  0  0  0  0
   45.1240   32.2890   47.8530 C   0  0  0  0  0  0  0  0  0  0  0  0
   46.1340   31.9930   48.9260 C   0  0  0  0  0  0  0  0  0  0  0  0
   47.1550   31.2070   48.1510 C   0  0  1  0  0  0  0  0  0  0  0  0
   47.2220   31.9920   46.8350 C   0  0  0  0  0  0  0  0  0  0  0  0
   48.4340   31.2780   48.8700 C   0  0  0  0  0  0  0  0  0  0  0  0
   49.2680   32.3760   49.2510 C   0  0  0  0  0  0  0  0  0  0  0  0
   50.4230   32.0820   49.9060 C   0  0  0  0  0  0  0  0  0  0  0  0
   50.7460   30.7580   50.1760 C   0  0  0  0  0  0  0  0  0  0  0  0
   49.3060   29.8310   49.4510 S   0  0  0  0  0  0  0  0  0  0  0  0
   53.9550   29.1010   52.1990 C   0  0  0  0  0  0  0  0  0  0  0  0
   53.8830   28.9500   50.8300 C   0  0  0  0  0  0  0  0  0  0  0  0
   52.8310   29.4860   50.1160 C   0  0  0  0  0  0  0  0  0  0  0  0
   51.8690   30.1710   50.8330 C   0  0  0  0  0  0  0  0  0  0  0  0
   51.9420   30.3220   52.2070 C   0  0  0  0  0  0  0  0  0  0  0  0
   52.9960   29.7840   52.9120 C   0  0  0  0  0  0  0  0  0  0  0  0
   55.3630   28.3550   52.9530 S   0  0  0  0  0  0  0  0  0  0  0  0
   55.6560   28.9600   54.2960 O   0  0  0  0  0  0  0  0  0  0  0  0
   55.0770   26.8840   53.2130 O   0  0  0  0  0  0  0  0  0  0  0  0
   43.9160   36.4691   45.3318 H   0  0  0  0  0  0  0  0  0  0  0  0
   44.8504   36.2009   42.9996 H   0  0  0  0  0  0  0  0  0  0  0  0
   46.3406   34.1943   42.5394 H   0  0  0  0  0  0  0  0  0  0  0  0
   44.4361   33.0905   48.1601 H   0  0  0  0  0  0  0  0  0  0  0  0
   44.4709   31.4385   47.6078 H   0  0  0  0  0  0  0  0  0  0  0  0
   46.5648   32.9162   49.3408 H   0  0  0  0  0  0  0  0  0  0  0  0
   45.7248   31.4661   49.8006 H   0  0  0  0  0  0  0  0  0  0  0  0
   46.9234   30.1414   48.0065 H   0  0  0  0  0  0  0  0  0  0  0  0
   47.3235   31.3073   45.9801 H   0  0  0  0  0  0  0  0  0  0  0  0
   48.0888   32.6683   46.7985 H   0  0  0  0  0  0  0  0  0  0  0  0
   48.9868   33.4149   49.0236 H   0  0  0  0  0  0  0  0  0  0  0  0
   51.0995   32.8901   50.2211 H   0  0  0  0  0  0  0  0  0  0  0  0
   54.6729   28.3962   50.3015 H   0  0  0  0  0  0  0  0  0  0  0  0
   52.7613   29.3729   49.0240 H   0  0  0  0  0  0  0  0  0  0  0  0
   51.1537   30.8748   52.7390 H   0  0  0  0  0  0  0  0  0  0  0  0
   53.0686   29.8960   54.0039 H   0  0  0  0  0  0  0  0  0  0  0  0
   56.4199   28.5434   52.1020 H   0  0  0  0  0  0  0  0  0  0  0  0
  1  6  2  0
  2  1  1  0
  3  2  2  0
  3  4  1  0
  4  5  2  0
  5  6  1  0
  5  7  1  0
  7 11  1  0
  7  8  1  0
  8  9  1  0
 10 12  1  0
 10  9  1  0
 11 10  1  0
 12 13  2  0
 12 16  1  0
 13 14  1  0
 14 15  2  0
 15 20  1  0
 16 15  1  0
 17 22  2  0
 17 23  1  0
 18 17  1  0
 19 18  2  0
 19 20  1  0
 20 21  2  0
 21 22  1  0
 23 25  2  0
 23 24  2  0
  1 26  1  0
  2 27  1  0
  3 28  1  0
  8 29  1  0
  8 30  1  0
  9 31  1  0
  9 32  1  0
 10 33  1  6
 11 34  1  0
 11 35  1  0
 13 36  1  0
 14 37  1  0
 18 38  1  0
 19 39  1  0
 21 40  1  0
 22 41  1  0
 23 42  1  0
M  ISO  8  26  14  27  14  28  14  29  13  30  13  31  13  32  13  33  13
M  ISO  8  34  13  35  13  36  14  37  14  38  14  39  14  40  14  41  14
M  ISO  1  42  11
M  END
>  <minimizedAffinity>  (1) 
-5.67166901

>  <minimizedRMSD>  (1) 
1.76530099

$$$$
