
     RDKit          3D

 36 38  0  0  1  0  0  0  0  0999 V2000
   44.6170   35.6080   45.1430 C   0  0  0  0  0  0  0  0  0  0  0  0
   45.1250   35.4910   43.8270 C   0  0  0  0  0  0  0  0  0  0  0  0
   45.9120   34.3550   43.5460 C   0  0  0  0  0  0  0  0  0  0  0  0
   46.1380   33.4480   44.5310 N   0  0  0  0  0  0  0  0  0  0  0  0
   45.6320   33.6080   45.7670 C   0  0  0  0  0  0  0  0  0  0  0  0
   44.8690   34.6870   46.0810 N   0  0  0  0  0  0  0  0  0  0  0  0
   45.9160   32.6240   46.7240 N   0  0  0  0  0  0  0  0  0  0  0  0
   45.0750   32.1960   47.8060 C   0  0  0  0  0  0  0  0  0  0  0  0
   46.0730   31.8190   48.8530 C   0  0  0  0  0  0  0  0  0  0  0  0
   47.0770   31.0410   48.0520 C   0  0  1  0  0  0  0  0  0  0  0  0
   47.1610   31.8580   46.7630 C   0  0  0  0  0  0  0  0  0  0  0  0
   48.3530   31.0590   48.7700 C   0  0  0  0  0  0  0  0  0  0  0  0
   49.1680   32.1100   49.2790 C   0  0  0  0  0  0  0  0  0  0  0  0
   50.3350   31.7780   49.9010 C   0  0  0  0  0  0  0  0  0  0  0  0
   50.6860   30.4390   50.0150 C   0  0  0  0  0  0  0  0  0  0  0  0
   49.2600   29.5700   49.1800 S   0  0  0  0  0  0  0  0  0  0  0  0
   51.7300   29.7600   50.5470 N   0  0  0  0  0  0  0  0  0  0  0  0
   51.7120   29.2710   51.8830 C   0  0  0  0  0  0  0  0  0  0  0  0
   50.6110   29.3470   52.5490 N   0  0  0  0  0  0  0  0  0  0  0  0
   52.9240   28.7220   52.4130 N   0  0  0  0  0  0  0  0  0  0  0  0
   50.4610   29.0340   53.5130 H   0  0  0  0  0  0  0  0  0  0  0  0
   43.9981   36.4798   45.4019 H   0  0  0  0  0  0  0  0  0  0  0  0
   44.9157   36.2506   43.0594 H   0  0  0  0  0  0  0  0  0  0  0  0
   46.3370   34.2057   42.5425 H   0  0  0  0  0  0  0  0  0  0  0  0
   44.4237   33.0123   48.1516 H   0  0  0  0  0  0  0  0  0  0  0  0
   44.3896   31.3793   47.5355 H   0  0  0  0  0  0  0  0  0  0  0  0
   46.5288   32.7091   49.3112 H   0  0  0  0  0  0  0  0  0  0  0  0
   45.6443   31.2582   49.6966 H   0  0  0  0  0  0  0  0  0  0  0  0
   46.8216   29.9861   47.8733 H   0  0  0  0  0  0  0  0  0  0  0  0
   47.2356   31.1951   45.8883 H   0  0  0  0  0  0  0  0  0  0  0  0
   48.0487   32.5072   46.7402 H   0  0  0  0  0  0  0  0  0  0  0  0
   48.8641   33.1619   49.1732 H   0  0  0  0  0  0  0  0  0  0  0  0
   50.9910   32.5616   50.3079 H   0  0  0  0  0  0  0  0  0  0  0  0
   52.5637   29.5922   49.9659 H   0  0  0  0  0  0  0  0  0  0  0  0
   52.9467   28.3589   53.3766 H   0  0  0  0  0  0  0  0  0  0  0  0
   53.7729   28.6903   51.8305 H   0  0  0  0  0  0  0  0  0  0  0  0
  1  6  2  0
  2  1  1  0
  3  2  2  0
  3  4  1  0
  4  5  2  0
  5  6  1  0
  5  7  1  0
  7 11  1  0
  7  8  1  0
  8  9  1  0
 10 12  1  0
 10  9  1  0
 11 10  1  0
 12 16  1  0
 12 13  2  0
 13 14  1  0
 14 15  2  0
 15 17  1  0
 16 15  1  0
 17 18  1  0
 18 20  1  0
 18 19  2  0
 19 21  1  0
  1 22  1  0
  2 23  1  0
  3 24  1  0
  8 25  1  0
  8 26  1  0
  9 27  1  0
  9 28  1  0
 10 29  1  6
 11 30  1  0
 11 31  1  0
 13 32  1  0
 14 33  1  0
 17 34  1  0
 20 35  1  0
 20 36  1  0
M  ISO  8  22  14  23  14  24  14  25  13  26  13  27  13  28  13  29  13
M  ISO  4  30  13  31  13  32  14  33  14
M  END
>  <minimizedAffinity>  (1) 
-5.63347912

>  <minimizedRMSD>  (1) 
1.02976429

$$$$
