
     RDKit          3D

 38 41  0  0  1  0  0  0  0  0999 V2000
   44.5280   35.6600   45.1570 C   0  0  0  0  0  0  0  0  0  0  0  0
   45.0060   35.5290   43.8320 C   0  0  0  0  0  0  0  0  0  0  0  0
   45.8070   34.4020   43.5540 C   0  0  0  0  0  0  0  0  0  0  0  0
   46.0790   33.5080   44.5600 N   0  0  0  0  0  0  0  0  0  0  0  0
   45.5850   33.7030   45.8040 C   0  0  0  0  0  0  0  0  0  0  0  0
   44.8160   34.7670   46.1030 N   0  0  0  0  0  0  0  0  0  0  0  0
   45.9190   32.7280   46.7630 N   0  0  0  0  0  0  0  0  0  0  0  0
   45.0860   32.3050   47.8660 C   0  0  0  0  0  0  0  0  0  0  0  0
   46.1130   31.9840   48.9140 C   0  0  0  0  0  0  0  0  0  0  0  0
   47.1030   31.1900   48.1120 C   0  0  1  0  0  0  0  0  0  0  0  0
   47.1580   31.9830   46.8010 C   0  0  0  0  0  0  0  0  0  0  0  0
   48.3940   31.2410   48.8100 C   0  0  0  0  0  0  0  0  0  0  0  0
   49.2150   32.3140   49.2630 C   0  0  0  0  0  0  0  0  0  0  0  0
   50.3840   31.9990   49.8600 C   0  0  0  0  0  0  0  0  0  0  0  0
   50.7620   30.6770   50.0240 C   0  0  0  0  0  0  0  0  0  0  0  0
   49.3220   29.7670   49.2570 S   0  0  0  0  0  0  0  0  0  0  0  0
   51.9470   30.0440   50.6230 C   0  0  0  0  0  0  0  0  0  0  0  0
   53.1180   29.9950   49.8950 C   0  0  0  0  0  0  0  0  0  0  0  0
   54.1680   29.3820   50.5480 C   0  0  0  0  0  0  0  0  0  0  0  0
   54.0140   28.8760   51.8220 C   0  0  0  0  0  0  0  0  0  0  0  0
   52.8180   28.9530   52.5070 C   0  0  0  0  0  0  0  0  0  0  0  0
   51.7800   29.5620   51.8540 N   0  0  0  0  0  0  0  0  0  0  0  0
   43.8995   36.5254   45.4141 H   0  0  0  0  0  0  0  0  0  0  0  0
   44.7646   36.2703   43.0560 H   0  0  0  0  0  0  0  0  0  0  0  0
   46.2092   34.2411   42.5429 H   0  0  0  0  0  0  0  0  0  0  0  0
   44.4153   33.1124   48.1952 H   0  0  0  0  0  0  0  0  0  0  0  0
   44.4156   31.4669   47.6248 H   0  0  0  0  0  0  0  0  0  0  0  0
   46.5673   32.8966   49.3272 H   0  0  0  0  0  0  0  0  0  0  0  0
   45.7141   31.4560   49.7927 H   0  0  0  0  0  0  0  0  0  0  0  0
   46.8523   30.1297   47.9605 H   0  0  0  0  0  0  0  0  0  0  0  0
   47.2265   31.3022   45.9397 H   0  0  0  0  0  0  0  0  0  0  0  0
   48.0380   32.6412   46.7524 H   0  0  0  0  0  0  0  0  0  0  0  0
   48.9071   33.3617   49.1309 H   0  0  0  0  0  0  0  0  0  0  0  0
   51.0440   32.8018   50.2204 H   0  0  0  0  0  0  0  0  0  0  0  0
   53.2072   30.4095   48.8800 H   0  0  0  0  0  0  0  0  0  0  0  0
   55.1424   29.2956   50.0449 H   0  0  0  0  0  0  0  0  0  0  0  0
   54.8745   28.3942   52.3092 H   0  0  0  0  0  0  0  0  0  0  0  0
   52.7049   28.5469   53.5230 H   0  0  0  0  0  0  0  0  0  0  0  0
  1  6  2  0
  2  1  1  0
  3  2  2  0
  3  4  1  0
  4  5  2  0
  5  6  1  0
  5  7  1  0
  7 11  1  0
  7  8  1  0
  8  9  1  0
 10 12  1  0
 10  9  1  0
 11 10  1  0
 12 16  1  0
 12 13  2  0
 13 14  1  0
 14 15  2  0
 15 17  1  0
 16 15  1  0
 17 22  2  0
 18 19  2  0
 18 17  1  0
 19 20  1  0
 20 21  2  0
 22 21  1  0
  1 23  1  0
  2 24  1  0
  3 25  1  0
  8 26  1  0
  8 27  1  0
  9 28  1  0
  9 29  1  0
 10 30  1  6
 11 31  1  0
 11 32  1  0
 13 33  1  0
 14 34  1  0
 18 35  1  0
 19 36  1  0
 20 37  1  0
 21 38  1  0
M  ISO  8  23  14  24  14  25  14  26  13  27  13  28  13  29  13  30  13
M  ISO  8  31  13  32  13  33  14  34  14  35  14  36  14  37  14  38  14
M  END
>  <minimizedAffinity>  (1) 
-5.44027948

>  <minimizedRMSD>  (1) 
1.11858368

$$$$
