
     RDKit          3D

 39 42  0  0  1  0  0  0  0  0999 V2000
   44.5990   35.6010   45.1710 C   0  0  0  0  0  0  0  0  0  0  0  0
   45.0830   35.4600   43.8480 C   0  0  0  0  0  0  0  0  0  0  0  0
   45.8560   34.3270   43.5540 C   0  0  0  0  0  0  0  0  0  0  0  0
   46.1080   33.4150   44.5480 N   0  0  0  0  0  0  0  0  0  0  0  0
   45.6200   33.6010   45.7940 C   0  0  0  0  0  0  0  0  0  0  0  0
   44.8690   34.6880   46.1130 N   0  0  0  0  0  0  0  0  0  0  0  0
   45.9250   32.6200   46.7530 N   0  0  0  0  0  0  0  0  0  0  0  0
   45.0990   32.1990   47.8480 C   0  0  0  0  0  0  0  0  0  0  0  0
   46.1200   31.8430   48.8870 C   0  0  0  0  0  0  0  0  0  0  0  0
   47.1090   31.0570   48.0750 C   0  0  1  0  0  0  0  0  0  0  0  0
   47.1710   31.8590   46.7760 C   0  0  0  0  0  0  0  0  0  0  0  0
   48.4040   31.0770   48.7730 C   0  0  0  0  0  0  0  0  0  0  0  0
   49.2050   32.1420   49.2820 C   0  0  0  0  0  0  0  0  0  0  0  0
   50.3780   31.8160   49.8750 C   0  0  0  0  0  0  0  0  0  0  0  0
   50.7670   30.4870   49.9720 C   0  0  0  0  0  0  0  0  0  0  0  0
   49.3350   29.6050   49.1440 S   0  0  0  0  0  0  0  0  0  0  0  0
   51.9390   29.8470   50.5390 C   0  0  0  0  0  0  0  0  0  0  0  0
   53.1070   29.8190   49.8050 C   0  0  0  0  0  0  0  0  0  0  0  0
   54.1680   29.1920   50.4230 C   0  0  0  0  0  0  0  0  0  0  0  0
   54.0490   28.6390   51.6810 C   0  0  0  0  0  0  0  0  0  0  0  0
   52.8620   28.6900   52.3820 C   0  0  0  0  0  0  0  0  0  0  0  0
   51.7720   29.3080   51.8070 C   0  0  0  0  0  0  0  0  0  0  0  0
   43.9886   36.4785   45.4306 H   0  0  0  0  0  0  0  0  0  0  0  0
   44.8606   36.2128   43.0774 H   0  0  0  0  0  0  0  0  0  0  0  0
   46.2547   34.1717   42.5406 H   0  0  0  0  0  0  0  0  0  0  0  0
   44.4452   33.0139   48.1923 H   0  0  0  0  0  0  0  0  0  0  0  0
   44.4145   31.3753   47.5971 H   0  0  0  0  0  0  0  0  0  0  0  0
   46.5811   32.7418   49.3223 H   0  0  0  0  0  0  0  0  0  0  0  0
   45.7114   31.2962   49.7496 H   0  0  0  0  0  0  0  0  0  0  0  0
   46.8482   30.0010   47.9110 H   0  0  0  0  0  0  0  0  0  0  0  0
   47.2317   31.1870   45.9073 H   0  0  0  0  0  0  0  0  0  0  0  0
   48.0574   32.5086   46.7288 H   0  0  0  0  0  0  0  0  0  0  0  0
   48.8816   33.1899   49.1959 H   0  0  0  0  0  0  0  0  0  0  0  0
   51.0250   32.6073   50.2814 H   0  0  0  0  0  0  0  0  0  0  0  0
   53.1857   30.2636   48.8019 H   0  0  0  0  0  0  0  0  0  0  0  0
   55.1336   29.1312   49.8997 H   0  0  0  0  0  0  0  0  0  0  0  0
   54.9208   28.1459   52.1358 H   0  0  0  0  0  0  0  0  0  0  0  0
   52.7863   28.2442   53.3848 H   0  0  0  0  0  0  0  0  0  0  0  0
   50.8078   29.3714   52.3326 H   0  0  0  0  0  0  0  0  0  0  0  0
  1  6  2  0
  2  1  1  0
  3  2  2  0
  3  4  1  0
  4  5  2  0
  5  6  1  0
  5  7  1  0
  7 11  1  0
  7  8  1  0
  8  9  1  0
 10 12  1  0
 10  9  1  0
 11 10  1  0
 12 16  1  0
 12 13  2  0
 13 14  1  0
 14 15  2  0
 15 17  1  0
 16 15  1  0
 17 22  2  0
 18 19  2  0
 18 17  1  0
 19 20  1  0
 20 21  2  0
 22 21  1  0
  1 23  1  0
  2 24  1  0
  3 25  1  0
  8 26  1  0
  8 27  1  0
  9 28  1  0
  9 29  1  0
 10 30  1  6
 11 31  1  0
 11 32  1  0
 13 33  1  0
 14 34  1  0
 18 35  1  0
 19 36  1  0
 20 37  1  0
 21 38  1  0
 22 39  1  0
M  ISO  8  23  14  24  14  25  14  26  13  27  13  28  13  29  13  30  13
M  ISO  8  31  13  32  13  33  14  34  14  35  14  36  14  37  14  38  14
M  ISO  1  39  14
M  END
>  <minimizedAffinity>  (1) 
-5.48212385

>  <minimizedRMSD>  (1) 
1.01727951

$$$$
