
     RDKit          3D

 36 39  0  0  1  0  0  0  0  0999 V2000
   44.6250   35.7490   44.9160 C   0  0  0  0  0  0  0  0  0  0  0  0
   44.9930   35.4870   43.5740 C   0  0  0  0  0  0  0  0  0  0  0  0
   45.6340   34.2660   43.3110 C   0  0  0  0  0  0  0  0  0  0  0  0
   45.8660   33.4060   44.3450 N   0  0  0  0  0  0  0  0  0  0  0  0
   45.5000   33.6980   45.6010 C   0  0  0  0  0  0  0  0  0  0  0  0
   44.8770   34.8700   45.8950 N   0  0  0  0  0  0  0  0  0  0  0  0
   45.7780   32.7560   46.6100 N   0  0  0  0  0  0  0  0  0  0  0  0
   45.0100   32.4940   47.7950 C   0  0  0  0  0  0  0  0  0  0  0  0
   46.0790   32.1060   48.7700 C   0  0  0  0  0  0  0  0  0  0  0  0
   46.9070   31.1640   47.9420 C   0  0  1  0  0  0  0  0  0  0  0  0
   46.9420   31.8740   46.5860 C   0  0  0  0  0  0  0  0  0  0  0  0
   48.2480   31.0770   48.5290 C   0  0  0  0  0  0  0  0  0  0  0  0
   49.0570   32.0310   49.2140 C   0  0  0  0  0  0  0  0  0  0  0  0
   50.2850   31.6420   49.6330 C   0  0  0  0  0  0  0  0  0  0  0  0
   50.7130   30.3440   49.3860 C   0  0  0  0  0  0  0  0  0  0  0  0
   49.2420   29.6000   48.4750 S   0  0  0  0  0  0  0  0  0  0  0  0
   51.9590   29.6910   49.7240 N   0  0  0  0  0  0  0  0  0  0  0  0
   52.6000   29.9230   50.8540 N   0  0  0  0  0  0  0  0  0  0  0  0
   53.7320   29.1750   50.8990 C   0  0  0  0  0  0  0  0  0  0  0  0
   53.7750   28.4390   49.7100 C   0  0  0  0  0  0  0  0  0  0  0  0
   52.6350   28.8000   49.0020 C   0  0  0  0  0  0  0  0  0  0  0  0
   44.1208   36.6957   45.1601 H   0  0  0  0  0  0  0  0  0  0  0  0
   44.7853   36.2098   42.7713 H   0  0  0  0  0  0  0  0  0  0  0  0
   45.9443   34.0066   42.2880 H   0  0  0  0  0  0  0  0  0  0  0  0
   44.4693   33.3918   48.1291 H   0  0  0  0  0  0  0  0  0  0  0  0
   44.2291   31.7309   47.6614 H   0  0  0  0  0  0  0  0  0  0  0  0
   46.6650   32.9790   49.0932 H   0  0  0  0  0  0  0  0  0  0  0  0
   45.6982   31.6678   49.7043 H   0  0  0  0  0  0  0  0  0  0  0  0
   46.5217   30.1357   47.8766 H   0  0  0  0  0  0  0  0  0  0  0  0
   46.8635   31.1476   45.7637 H   0  0  0  0  0  0  0  0  0  0  0  0
   47.8815   32.4225   46.4230 H   0  0  0  0  0  0  0  0  0  0  0  0
   48.6942   33.0532   49.3968 H   0  0  0  0  0  0  0  0  0  0  0  0
   50.9385   32.3490   50.1650 H   0  0  0  0  0  0  0  0  0  0  0  0
   54.4720   29.1520   51.7126 H   0  0  0  0  0  0  0  0  0  0  0  0
   54.5504   27.7230   49.3999 H   0  0  0  0  0  0  0  0  0  0  0  0
   52.3415   28.4154   48.0141 H   0  0  0  0  0  0  0  0  0  0  0  0
  1  6  2  0
  2  1  1  0
  3  2  2  0
  3  4  1  0
  4  5  2  0
  5  6  1  0
  5  7  1  0
  7  8  1  0
  8  9  1  0
 10 12  1  0
 10  9  1  0
 11  7  1  0
 11 10  1  0
 12 13  2  0
 13 14  1  0
 15 14  2  0
 15 17  1  0
 16 12  1  0
 16 15  1  0
 17 18  1  0
 18 19  2  0
 20 19  1  0
 21 20  2  0
 21 17  1  0
  1 22  1  0
  2 23  1  0
  3 24  1  0
  8 25  1  0
  8 26  1  0
  9 27  1  0
  9 28  1  0
 10 29  1  6
 11 30  1  0
 11 31  1  0
 13 32  1  0
 14 33  1  0
 19 34  1  0
 20 35  1  0
 21 36  1  0
M  ISO  8  22  14  23  14  24  14  25  13  26  13  27  13  28  13  29  13
M  ISO  7  30  13  31  13  32  14  33  14  34  14  35  14  36  14
M  END
>  <minimizedAffinity>  (1) 
-5.25376129

>  <minimizedRMSD>  (1) 
0.328253806

$$$$
