
     RDKit          3D

 38 40  0  0  1  0  0  0  0  0999 V2000
   44.6260   35.7460   44.9000 C   0  0  0  0  0  0  0  0  0  0  0  0
   44.9240   35.4500   43.5570 C   0  0  0  0  0  0  0  0  0  0  0  0
   45.5270   34.2090   43.2710 C   0  0  0  0  0  0  0  0  0  0  0  0
   45.7900   33.3590   44.3100 N   0  0  0  0  0  0  0  0  0  0  0  0
   45.4840   33.6900   45.5860 C   0  0  0  0  0  0  0  0  0  0  0  0
   44.9050   34.8730   45.8880 N   0  0  0  0  0  0  0  0  0  0  0  0
   45.7930   32.7500   46.5830 N   0  0  0  0  0  0  0  0  0  0  0  0
   45.0660   32.5370   47.8130 C   0  0  0  0  0  0  0  0  0  0  0  0
   46.1680   32.1400   48.7450 C   0  0  0  0  0  0  0  0  0  0  0  0
   46.9200   31.1510   47.9000 C   0  0  1  0  0  0  0  0  0  0  0  0
   46.9160   31.8280   46.5280 C   0  0  0  0  0  0  0  0  0  0  0  0
   48.2810   31.0490   48.4250 C   0  0  0  0  0  0  0  0  0  0  0  0
   49.0700   31.9100   49.2450 C   0  0  0  0  0  0  0  0  0  0  0  0
   50.3510   31.5080   49.5550 C   0  0  0  0  0  0  0  0  0  0  0  0
   50.8130   30.2960   49.0600 C   0  0  0  0  0  0  0  0  0  0  0  0
   49.3620   29.6530   48.0850 S   0  0  0  0  0  0  0  0  0  0  0  0
   52.0070   29.5210   49.1210 C   0  0  0  0  0  0  0  0  0  0  0  0
   52.9280   30.1450   50.1760 C   0  0  0  0  0  0  0  0  0  0  0  0
   52.7590   29.5750   47.7900 C   0  0  0  0  0  0  0  0  0  0  0  0
   44.1560   36.7090   45.1483 H   0  0  0  0  0  0  0  0  0  0  0  0
   44.6931   36.1660   42.7544 H   0  0  0  0  0  0  0  0  0  0  0  0
   45.7801   33.9305   42.2374 H   0  0  0  0  0  0  0  0  0  0  0  0
   44.5670   33.4577   48.1496 H   0  0  0  0  0  0  0  0  0  0  0  0
   44.2567   31.7963   47.7335 H   0  0  0  0  0  0  0  0  0  0  0  0
   46.7975   33.0006   49.0153 H   0  0  0  0  0  0  0  0  0  0  0  0
   45.8224   31.7401   49.7097 H   0  0  0  0  0  0  0  0  0  0  0  0
   46.4987   30.1352   47.8757 H   0  0  0  0  0  0  0  0  0  0  0  0
   46.7720   31.0864   45.7284 H   0  0  0  0  0  0  0  0  0  0  0  0
   47.8662   32.3371   46.3089 H   0  0  0  0  0  0  0  0  0  0  0  0
   48.6685   32.8639   49.6176 H   0  0  0  0  0  0  0  0  0  0  0  0
   50.9972   32.1373   50.1846 H   0  0  0  0  0  0  0  0  0  0  0  0
   51.7388   28.4809   49.3581 H   0  0  0  0  0  0  0  0  0  0  0  0
   52.5575   29.8939   51.1808 H   0  0  0  0  0  0  0  0  0  0  0  0
   53.9474   29.7508   50.0521 H   0  0  0  0  0  0  0  0  0  0  0  0
   52.9399   31.2379   50.0521 H   0  0  0  0  0  0  0  0  0  0  0  0
   53.8393   29.6526   47.9821 H   0  0  0  0  0  0  0  0  0  0  0  0
   52.5536   28.6598   47.2154 H   0  0  0  0  0  0  0  0  0  0  0  0
   52.4249   30.4515   47.2154 H   0  0  0  0  0  0  0  0  0  0  0  0
  1  6  2  0
  2  1  1  0
  3  2  2  0
  3  4  1  0
  4  5  2  0
  5  6  1  0
  5  7  1  0
  7  8  1  0
  8  9  1  0
 10 12  1  0
 10  9  1  0
 11  7  1  0
 11 10  1  0
 12 13  2  0
 13 14  1  0
 15 17  1  0
 15 14  2  0
 16 12  1  0
 16 15  1  0
 17 18  1  0
 19 17  1  0
  1 20  1  0
  2 21  1  0
  3 22  1  0
  8 23  1  0
  8 24  1  0
  9 25  1  0
  9 26  1  0
 10 27  1  6
 11 28  1  0
 11 29  1  0
 13 30  1  0
 14 31  1  0
 17 32  1  0
 18 33  1  0
 18 34  1  0
 18 35  1  0
 19 36  1  0
 19 37  1  0
 19 38  1  0
M  ISO  8  20  14  21  14  22  14  23  13  24  13  25  13  26  13  27  13
M  ISO  8  28  13  29  13  30  14  31  14  32   8  33   8  34   8  35   8
M  ISO  3  36   8  37   8  38   8
M  END
>  <minimizedAffinity>  (1) 
-5.07984877

>  <minimizedRMSD>  (1) 
0.079023622

$$$$
