
     RDKit          3D

 32 34  0  0  1  0  0  0  0  0999 V2000
   44.6250   35.7340   44.9100 C   0  0  0  0  0  0  0  0  0  0  0  0
   44.9460   35.4520   43.5610 C   0  0  0  0  0  0  0  0  0  0  0  0
   45.5670   34.2160   43.2890 C   0  0  0  0  0  0  0  0  0  0  0  0
   45.8260   33.3610   44.3270 N   0  0  0  0  0  0  0  0  0  0  0  0
   45.4940   33.6910   45.5960 C   0  0  0  0  0  0  0  0  0  0  0  0
   44.8940   34.8730   45.8920 N   0  0  0  0  0  0  0  0  0  0  0  0
   45.7970   32.7580   46.5960 N   0  0  0  0  0  0  0  0  0  0  0  0
   45.0580   32.5210   47.8030 C   0  0  0  0  0  0  0  0  0  0  0  0
   46.1330   32.1190   48.7630 C   0  0  0  0  0  0  0  0  0  0  0  0
   46.9450   31.1720   47.9300 C   0  0  1  0  0  0  0  0  0  0  0  0
   46.9480   31.8560   46.5630 C   0  0  0  0  0  0  0  0  0  0  0  0
   48.2950   31.0900   48.4880 C   0  0  0  0  0  0  0  0  0  0  0  0
   49.0840   32.0100   49.2340 C   0  0  0  0  0  0  0  0  0  0  0  0
   50.3350   31.6280   49.6020 C   0  0  0  0  0  0  0  0  0  0  0  0
   50.8020   30.3760   49.2450 C   0  0  0  0  0  0  0  0  0  0  0  0
   49.3550   29.6700   48.3110 S   0  0  0  0  0  0  0  0  0  0  0  0
   51.9920   29.6150   49.4170 C   0  0  0  0  0  0  0  0  0  0  0  0
   52.1090   28.4920   48.8740 O   0  0  0  0  0  0  0  0  0  0  0  0
   52.9880   30.1550   50.1910 O   0  0  0  0  0  0  0  0  0  0  0  0
   44.1400   36.6903   45.1554 H   0  0  0  0  0  0  0  0  0  0  0  0
   44.7201   36.1682   42.7572 H   0  0  0  0  0  0  0  0  0  0  0  0
   45.8393   33.9425   42.2589 H   0  0  0  0  0  0  0  0  0  0  0  0
   44.5436   33.4329   48.1404 H   0  0  0  0  0  0  0  0  0  0  0  0
   44.2635   31.7684   47.6918 H   0  0  0  0  0  0  0  0  0  0  0  0
   46.7304   32.9858   49.0822 H   0  0  0  0  0  0  0  0  0  0  0  0
   45.7555   31.6802   49.6984 H   0  0  0  0  0  0  0  0  0  0  0  0
   46.5592   30.1428   47.8873 H   0  0  0  0  0  0  0  0  0  0  0  0
   46.8367   31.1145   45.7581 H   0  0  0  0  0  0  0  0  0  0  0  0
   47.8895   32.3901   46.3672 H   0  0  0  0  0  0  0  0  0  0  0  0
   48.6924   33.0016   49.5048 H   0  0  0  0  0  0  0  0  0  0  0  0
   50.9734   32.3114   50.1812 H   0  0  0  0  0  0  0  0  0  0  0  0
   53.8304   29.6549   50.3334 H   0  0  0  0  0  0  0  0  0  0  0  0
  1  6  2  0
  2  1  1  0
  3  2  2  0
  3  4  1  0
  4  5  2  0
  5  6  1  0
  5  7  1  0
  7  8  1  0
  8  9  1  0
 10 12  1  0
 10  9  1  0
 11  7  1  0
 11 10  1  0
 12 13  2  0
 13 14  1  0
 15 17  1  0
 15 14  2  0
 16 12  1  0
 16 15  1  0
 17 19  1  0
 18 17  2  0
  1 20  1  0
  2 21  1  0
  3 22  1  0
  8 23  1  0
  8 24  1  0
  9 25  1  0
  9 26  1  0
 10 27  1  6
 11 28  1  0
 11 29  1  0
 13 30  1  0
 14 31  1  0
 19 32  1  0
M  ISO  8  20  14  21  14  22  14  23  13  24  13  25  13  26  13  27  13
M  ISO  5  28  13  29  13  30  14  31  14  32   3
M  END
>  <minimizedAffinity>  (1) 
-5.01809359

>  <minimizedRMSD>  (1) 
0.177142099

$$$$
