
     RDKit          3D

 46 51  0  0  1  0  0  0  0  0999 V2000
   48.3570   31.0660   48.7470 C   0  0  0  0  0  0  0  0  0  0  0  0
   49.1660   32.1020   49.2500 C   0  0  0  0  0  0  0  0  0  0  0  0
   50.3490   31.7760   49.8450 C   0  0  0  0  0  0  0  0  0  0  0  0
   50.7040   30.4460   49.9290 C   0  0  0  0  0  0  0  0  0  0  0  0
   49.2700   29.5650   49.1100 S   0  0  0  0  0  0  0  0  0  0  0  0
   44.6040   35.6340   45.1500 C   0  0  0  0  0  0  0  0  0  0  0  0
   45.1000   35.4970   43.8320 C   0  0  0  0  0  0  0  0  0  0  0  0
   45.8720   34.3530   43.5260 C   0  0  0  0  0  0  0  0  0  0  0  0
   46.1020   33.4340   44.5220 N   0  0  0  0  0  0  0  0  0  0  0  0
   45.6080   33.6100   45.7610 C   0  0  0  0  0  0  0  0  0  0  0  0
   44.8570   34.7070   46.0860 N   0  0  0  0  0  0  0  0  0  0  0  0
   45.8890   32.6260   46.7220 N   0  0  0  0  0  0  0  0  0  0  0  0
   45.0610   32.1790   47.7930 C   0  0  0  0  0  0  0  0  0  0  0  0
   46.0750   31.8380   48.8520 C   0  0  0  0  0  0  0  0  0  0  0  0
   47.0630   31.0640   48.0580 C   0  0  1  0  0  0  0  0  0  0  0  0
   47.1510   31.8860   46.7510 C   0  0  0  0  0  0  0  0  0  0  0  0
   51.8660   29.8480   50.4960 N   0  0  0  0  0  0  0  0  0  0  0  0
   52.5980   28.8660   50.0280 C   0  0  0  0  0  0  0  0  0  0  0  0
   53.6070   28.5900   50.8800 N   0  0  0  0  0  0  0  0  0  0  0  0
   53.4900   29.4350   51.9070 C   0  0  0  0  0  0  0  0  0  0  0  0
   52.3920   30.2260   51.6620 N   0  0  0  0  0  0  0  0  0  0  0  0
   54.2660   29.6020   53.0890 N   0  0  0  0  0  0  0  0  0  0  0  0
   55.4210   29.0240   53.5180 C   0  0  0  0  0  0  0  0  0  0  0  0
   55.7350   29.5520   54.7360 N   0  0  0  0  0  0  0  0  0  0  0  0
   54.7910   30.4520   55.0710 C   0  0  0  0  0  0  0  0  0  0  0  0
   54.6300   31.2640   56.1850 C   0  0  0  0  0  0  0  0  0  0  0  0
   53.5550   32.0860   56.2400 N   0  0  0  0  0  0  0  0  0  0  0  0
   52.6480   32.1260   55.2360 C   0  0  0  0  0  0  0  0  0  0  0  0
   52.8390   31.3270   54.1810 N   0  0  0  0  0  0  0  0  0  0  0  0
   53.8690   30.4790   54.0290 C   0  0  0  0  0  0  0  0  0  0  0  0
   48.8508   33.1524   49.1650 H   0  0  0  0  0  0  0  0  0  0  0  0
   51.0073   32.5587   50.2501 H   0  0  0  0  0  0  0  0  0  0  0  0
   44.0006   36.5157   45.4116 H   0  0  0  0  0  0  0  0  0  0  0  0
   44.8908   36.2592   43.0670 H   0  0  0  0  0  0  0  0  0  0  0  0
   46.2788   34.2019   42.5152 H   0  0  0  0  0  0  0  0  0  0  0  0
   44.3816   32.9750   48.1319 H   0  0  0  0  0  0  0  0  0  0  0  0
   44.4022   31.3403   47.5237 H   0  0  0  0  0  0  0  0  0  0  0  0
   46.5254   32.7426   49.2865 H   0  0  0  0  0  0  0  0  0  0  0  0
   45.6636   31.2967   49.7167 H   0  0  0  0  0  0  0  0  0  0  0  0
   46.7889   30.0107   47.8986 H   0  0  0  0  0  0  0  0  0  0  0  0
   47.2382   31.2244   45.8765 H   0  0  0  0  0  0  0  0  0  0  0  0
   48.0321   32.5438   46.7192 H   0  0  0  0  0  0  0  0  0  0  0  0
   52.4157   28.3427   49.0778 H   0  0  0  0  0  0  0  0  0  0  0  0
   56.0012   28.2625   52.9762 H   0  0  0  0  0  0  0  0  0  0  0  0
   55.3608   31.2404   57.0068 H   0  0  0  0  0  0  0  0  0  0  0  0
   51.7780   32.7972   55.2866 H   0  0  0  0  0  0  0  0  0  0  0  0
  1  5  1  0
  1  2  2  0
  2  3  1  0
  3  4  2  0
  4 17  1  0
  5  4  1  0
  6 11  2  0
  7  6  1  0
  8  7  2  0
  8  9  1  0
  9 10  2  0
 10 11  1  0
 10 12  1  0
 12 16  1  0
 12 13  1  0
 13 14  1  0
 15  1  1  0
 15 14  1  0
 16 15  1  0
 17 21  1  0
 18 17  1  0
 18 19  2  0
 19 20  1  0
 20 22  1  0
 21 20  2  0
 22 23  1  0
 22 30  1  0
 23 24  2  0
 24 25  1  0
 25 26  2  0
 26 27  1  0
 28 27  2  0
 29 28  1  0
 30 29  2  0
 30 25  1  0
  2 31  1  0
  3 32  1  0
  6 33  1  0
  7 34  1  0
  8 35  1  0
 13 36  1  0
 13 37  1  0
 14 38  1  0
 14 39  1  0
 15 40  1  6
 16 41  1  0
 16 42  1  0
 18 43  1  0
 23 44  1  0
 26 45  1  0
 28 46  1  0
M  ISO  8  31  14  32  14  33  14  34  14  35  14  36  13  37  13  38  13
M  ISO  8  39  13  40  13  41  13  42  13  43  14  44  14  45  14  46  14
M  END
>  <minimizedAffinity>  (1) 
-6.99140501

>  <minimizedRMSD>  (1) 
2.14391279

$$$$
