
     RDKit          3D

 45 47  0  0  1  0  0  0  0  0999 V2000
   42.8140   33.6170   41.4310 C   0  0  0  0  0  0  0  0  0  0  0  0
   44.0850   33.5200   42.0330 C   0  0  0  0  0  0  0  0  0  0  0  0
   44.4360   32.3070   42.6570 C   0  0  0  0  0  0  0  0  0  0  0  0
   43.5610   31.3010   42.6570 N   0  0  0  0  0  0  0  0  0  0  0  0
   42.3570   31.3810   42.0910 C   0  0  0  0  0  0  0  0  0  0  0  0
   42.0030   32.5240   41.4920 N   0  0  0  0  0  0  0  0  0  0  0  0
   42.2810   34.7720   40.7990 C   0  0  0  0  0  0  0  0  0  0  0  0
   41.6610   34.4300   39.4140 C   0  0  0  0  0  0  0  0  0  0  0  0
   40.8760   35.7520   39.1750 C   0  0  0  0  0  0  0  0  0  0  0  0
   40.4860   36.2260   40.5300 C   0  0  0  0  0  0  0  0  0  0  0  0
   41.0260   35.2150   41.5190 C   0  0  0  0  0  0  0  0  0  0  0  0
   45.0020   34.6880   41.9840 C   0  0  1  0  0  0  0  0  0  0  0  0
   44.5390   35.8180   42.7920 C   0  0  0  0  0  0  0  0  0  0  0  0
   46.3920   34.2110   42.0810 C   0  0  0  0  0  0  0  0  0  0  0  0
   47.0290   34.1980   40.7330 N   0  0  0  0  0  0  0  0  0  0  0  0
   46.5310   33.5100   39.6900 C   0  0  0  0  0  0  0  0  0  0  0  0
   47.0460   33.4820   38.4190 C   0  0  0  0  0  0  0  0  0  0  0  0
   46.3910   32.6760   37.3550 C   0  0  0  0  0  0  0  0  0  0  0  0
   48.1780   34.2290   38.1960 C   0  0  0  0  0  0  0  0  0  0  0  0
   48.6630   34.2160   37.0390 O   0  0  0  0  0  0  0  0  0  0  0  0
   48.6940   34.9240   39.2240 N   0  0  0  0  0  0  0  0  0  0  0  0
   48.1360   34.9040   40.4440 C   0  0  0  0  0  0  0  0  0  0  0  0
   48.7390   35.6010   41.2980 O   0  0  0  0  0  0  0  0  0  0  0  0
   45.4186   32.1913   43.1377 H   0  0  0  0  0  0  0  0  0  0  0  0
   41.6677   30.5241   42.1158 H   0  0  0  0  0  0  0  0  0  0  0  0
   43.1114   35.4928   40.7694 H   0  0  0  0  0  0  0  0  0  0  0  0
   42.4306   34.2612   38.6464 H   0  0  0  0  0  0  0  0  0  0  0  0
   41.0631   33.5075   39.3747 H   0  0  0  0  0  0  0  0  0  0  0  0
   41.5153   36.4951   38.6758 H   0  0  0  0  0  0  0  0  0  0  0  0
   40.0011   35.5984   38.5262 H   0  0  0  0  0  0  0  0  0  0  0  0
   40.9224   37.2168   40.7248 H   0  0  0  0  0  0  0  0  0  0  0  0
   39.3933   36.3183   40.6166 H   0  0  0  0  0  0  0  0  0  0  0  0
   40.3267   34.3792   41.6687 H   0  0  0  0  0  0  0  0  0  0  0  0
   41.1925   35.6079   42.5329 H   0  0  0  0  0  0  0  0  0  0  0  0
   44.9864   35.1954   41.0081 H   0  0  0  0  0  0  0  0  0  0  0  0
   44.6400   35.5714   43.8592 H   0  0  0  0  0  0  0  0  0  0  0  0
   45.1457   36.7063   42.5619 H   0  0  0  0  0  0  0  0  0  0  0  0
   43.4835   36.0252   42.5619 H   0  0  0  0  0  0  0  0  0  0  0  0
   46.9599   34.8799   42.7444 H   0  0  0  0  0  0  0  0  0  0  0  0
   46.3924   33.1887   42.4872 H   0  0  0  0  0  0  0  0  0  0  0  0
   45.6252   32.9135   39.8736 H   0  0  0  0  0  0  0  0  0  0  0  0
   45.7614   31.9013   37.8170 H   0  0  0  0  0  0  0  0  0  0  0  0
   45.7665   33.3316   36.7304 H   0  0  0  0  0  0  0  0  0  0  0  0
   47.1605   32.1988   36.7304 H   0  0  0  0  0  0  0  0  0  0  0  0
   49.5421   35.4881   39.0709 H   0  0  0  0  0  0  0  0  0  0  0  0
  1  6  2  0
  1  2  1  0
  2  3  2  0
  4  3  1  0
  5  4  2  0
  6  5  1  0
  7  1  1  0
  7 11  1  0
  8  7  1  0
  9  8  1  0
  9 10  1  0
 10 11  1  0
 12  2  1  0
 12 14  1  0
 12 13  1  0
 15 14  1  0
 16 15  1  0
 17 16  2  0
 18 17  1  0
 19 17  1  0
 19 21  1  0
 20 19  2  0
 21 22  1  0
 22 15  1  0
 22 23  2  0
  3 24  1  0
  5 25  1  0
  7 26  1  0
  8 27  1  0
  8 28  1  0
  9 29  1  0
  9 30  1  0
 10 31  1  0
 10 32  1  0
 11 33  1  0
 11 34  1  0
 12 35  1  6
 13 36  1  0
 13 37  1  0
 13 38  1  0
 14 39  1  0
 14 40  1  0
 16 41  1  0
 18 42  1  0
 18 43  1  0
 18 44  1  0
 21 45  1  0
M  ISO  8  24  14  25  14  26  13  27  13  28  13  29  13  30  13  31  13
M  ISO  8  32  13  33  13  34  13  35   8  36   8  37   8  38   8  39   8
M  ISO  6  40   8  41  14  42   8  43   8  44   8  45   9
M  END
>  <minimizedAffinity>  (1) 
-6.04846621

>  <minimizedRMSD>  (1) 
3.73912597

$$$$
