
     RDKit          3D

 48 52  0  0  1  0  0  0  0  0999 V2000
   44.5630   35.5660   45.1080 C   0  0  0  0  0  0  0  0  0  0  0  0
   45.1230   35.4390   43.8160 C   0  0  0  0  0  0  0  0  0  0  0  0
   46.0020   34.3490   43.5810 C   0  0  0  0  0  0  0  0  0  0  0  0
   46.2630   33.4830   44.6060 N   0  0  0  0  0  0  0  0  0  0  0  0
   45.6970   33.6560   45.8260 C   0  0  0  0  0  0  0  0  0  0  0  0
   44.8460   34.6940   46.0850 N   0  0  0  0  0  0  0  0  0  0  0  0
   46.0160   32.7240   46.8190 N   0  0  0  0  0  0  0  0  0  0  0  0
   45.1650   32.2470   47.8700 C   0  0  0  0  0  0  0  0  0  0  0  0
   46.1460   31.9830   48.9740 C   0  0  0  0  0  0  0  0  0  0  0  0
   47.2320   31.2800   48.2480 C   0  0  1  0  0  0  0  0  0  0  0  0
   47.3180   32.0790   46.9290 C   0  0  0  0  0  0  0  0  0  0  0  0
   48.4860   31.3950   48.9980 C   0  0  0  0  0  0  0  0  0  0  0  0
   49.3660   32.4740   49.2070 C   0  0  0  0  0  0  0  0  0  0  0  0
   50.4890   32.2650   49.9630 C   0  0  0  0  0  0  0  0  0  0  0  0
   50.7050   31.0050   50.4820 C   0  0  0  0  0  0  0  0  0  0  0  0
   49.2360   30.0370   49.8760 S   0  0  0  0  0  0  0  0  0  0  0  0
   51.7800   30.5340   51.2860 N   0  0  0  0  0  0  0  0  0  0  0  0
   52.4220   29.3930   51.2150 C   0  0  0  0  0  0  0  0  0  0  0  0
   53.3820   29.3320   52.1630 N   0  0  0  0  0  0  0  0  0  0  0  0
   53.3220   30.4820   52.8380 C   0  0  0  0  0  0  0  0  0  0  0  0
   52.3300   31.2280   52.2960 N   0  0  0  0  0  0  0  0  0  0  0  0
   54.1770   30.8080   53.9250 N   0  0  0  0  0  0  0  0  0  0  0  0
   55.1730   29.8340   54.3270 C   0  0  0  0  0  0  0  0  0  0  0  0
   55.9230   30.4790   55.4880 C   0  0  0  0  0  0  0  0  0  0  0  0
   55.1030   30.9200   56.4950 O   0  0  0  0  0  0  0  0  0  0  0  0
   54.0340   31.6890   56.1140 C   0  0  0  0  0  0  0  0  0  0  0  0
   54.0980   32.0640   54.6490 C   0  0  0  0  0  0  0  0  0  0  0  0
   43.8781   36.4013   45.3162 H   0  0  0  0  0  0  0  0  0  0  0  0
   44.8858   36.1601   43.0199 H   0  0  0  0  0  0  0  0  0  0  0  0
   46.4640   34.2042   42.5933 H   0  0  0  0  0  0  0  0  0  0  0  0
   44.4285   33.0092   48.1642 H   0  0  0  0  0  0  0  0  0  0  0  0
   44.5668   31.3674   47.5900 H   0  0  0  0  0  0  0  0  0  0  0  0
   46.5054   32.9202   49.4239 H   0  0  0  0  0  0  0  0  0  0  0  0
   45.7283   31.4115   49.8159 H   0  0  0  0  0  0  0  0  0  0  0  0
   47.0519   30.2050   48.1001 H   0  0  0  0  0  0  0  0  0  0  0  0
   47.4943   31.4070   46.0761 H   0  0  0  0  0  0  0  0  0  0  0  0
   48.1483   32.8005   46.9257 H   0  0  0  0  0  0  0  0  0  0  0  0
   49.1564   33.4627   48.7729 H   0  0  0  0  0  0  0  0  0  0  0  0
   51.2012   33.0818   50.1517 H   0  0  0  0  0  0  0  0  0  0  0  0
   52.2087   28.5974   50.4859 H   0  0  0  0  0  0  0  0  0  0  0  0
   54.6898   28.9007   54.6518 H   0  0  0  0  0  0  0  0  0  0  0  0
   55.8476   29.5722   53.4985 H   0  0  0  0  0  0  0  0  0  0  0  0
   56.6196   29.7377   55.9065 H   0  0  0  0  0  0  0  0  0  0  0  0
   56.4423   31.3613   55.0857 H   0  0  0  0  0  0  0  0  0  0  0  0
   53.1077   31.1243   56.2958 H   0  0  0  0  0  0  0  0  0  0  0  0
   54.0565   32.6175   56.7034 H   0  0  0  0  0  0  0  0  0  0  0  0
   54.9881   32.6786   54.4490 H   0  0  0  0  0  0  0  0  0  0  0  0
   53.2222   32.6549   54.3425 H   0  0  0  0  0  0  0  0  0  0  0  0
  1  6  2  0
  2  1  1  0
  3  2  2  0
  3  4  1  0
  4  5  2  0
  5  6  1  0
  5  7  1  0
  7 11  1  0
  7  8  1  0
  8  9  1  0
 10  9  1  0
 10 12  1  0
 11 10  1  0
 12 13  2  0
 12 16  1  0
 13 14  1  0
 14 15  2  0
 15 17  1  0
 16 15  1  0
 17 21  1  0
 18 17  1  0
 18 19  2  0
 19 20  1  0
 20 22  1  0
 21 20  2  0
 22 23  1  0
 22 27  1  0
 23 24  1  0
 24 25  1  0
 26 25  1  0
 27 26  1  0
  1 28  1  0
  2 29  1  0
  3 30  1  0
  8 31  1  0
  8 32  1  0
  9 33  1  0
  9 34  1  0
 10 35  1  6
 11 36  1  0
 11 37  1  0
 13 38  1  0
 14 39  1  0
 18 40  1  0
 23 41  1  0
 23 42  1  0
 24 43  1  0
 24 44  1  0
 26 45  1  0
 26 46  1  0
 27 47  1  0
 27 48  1  0
M  ISO  8  28  14  29  14  30  14  31  13  32  13  33  13  34  13  35  13
M  ISO  8  36  13  37  13  38  14  39  14  40  14  41  13  42  13  43  13
M  ISO  5  44  13  45  13  46  13  47  13  48  13
M  END
>  <minimizedAffinity>  (1) 
-6.37274837

>  <minimizedRMSD>  (1) 
2.28211451

$$$$
