
     RDKit          3D

 45 49  0  0  1  0  0  0  0  0999 V2000
   44.5600   35.5850   45.0900 C   0  0  0  0  0  0  0  0  0  0  0  0
   45.1110   35.4310   43.7960 C   0  0  0  0  0  0  0  0  0  0  0  0
   45.9610   34.3410   43.5590 C   0  0  0  0  0  0  0  0  0  0  0  0
   46.2210   33.4700   44.5970 N   0  0  0  0  0  0  0  0  0  0  0  0
   45.6690   33.6620   45.8180 C   0  0  0  0  0  0  0  0  0  0  0  0
   44.8420   34.7120   46.0700 N   0  0  0  0  0  0  0  0  0  0  0  0
   45.9870   32.7290   46.8130 N   0  0  0  0  0  0  0  0  0  0  0  0
   45.1440   32.2590   47.8710 C   0  0  0  0  0  0  0  0  0  0  0  0
   46.1390   32.0150   48.9720 C   0  0  0  0  0  0  0  0  0  0  0  0
   47.2030   31.2830   48.2370 C   0  0  1  0  0  0  0  0  0  0  0  0
   47.2880   32.0740   46.9120 C   0  0  0  0  0  0  0  0  0  0  0  0
   48.4690   31.3930   48.9720 C   0  0  0  0  0  0  0  0  0  0  0  0
   49.3410   32.4710   49.2150 C   0  0  0  0  0  0  0  0  0  0  0  0
   50.4710   32.2450   49.9450 C   0  0  0  0  0  0  0  0  0  0  0  0
   50.7110   30.9690   50.4100 C   0  0  0  0  0  0  0  0  0  0  0  0
   49.2490   29.9980   49.7880 S   0  0  0  0  0  0  0  0  0  0  0  0
   51.7910   30.4810   51.1870 N   0  0  0  0  0  0  0  0  0  0  0  0
   52.6170   29.4930   50.9400 C   0  0  0  0  0  0  0  0  0  0  0  0
   53.4970   29.3390   51.9380 N   0  0  0  0  0  0  0  0  0  0  0  0
   53.2120   30.2730   52.8530 C   0  0  0  0  0  0  0  0  0  0  0  0
   52.1420   30.9930   52.3860 N   0  0  0  0  0  0  0  0  0  0  0  0
   53.9300   30.4640   54.1100 C   0  0  0  0  0  0  0  0  0  0  0  0
   55.1090   29.7680   54.3110 C   0  0  0  0  0  0  0  0  0  0  0  0
   55.7590   29.9830   55.5260 C   0  0  0  0  0  0  0  0  0  0  0  0
   55.2610   30.8430   56.4870 C   0  0  0  0  0  0  0  0  0  0  0  0
   54.0670   31.5120   56.2170 C   0  0  0  0  0  0  0  0  0  0  0  0
   53.3710   31.3390   55.0210 C   0  0  0  0  0  0  0  0  0  0  0  0
   43.8904   36.4330   45.2962 H   0  0  0  0  0  0  0  0  0  0  0  0
   44.8784   36.1486   42.9955 H   0  0  0  0  0  0  0  0  0  0  0  0
   46.4105   34.1839   42.5674 H   0  0  0  0  0  0  0  0  0  0  0  0
   44.4040   33.0193   48.1612 H   0  0  0  0  0  0  0  0  0  0  0  0
   44.5476   31.3737   47.6054 H   0  0  0  0  0  0  0  0  0  0  0  0
   46.5153   32.9591   49.3927 H   0  0  0  0  0  0  0  0  0  0  0  0
   45.7321   31.4731   49.8385 H   0  0  0  0  0  0  0  0  0  0  0  0
   47.0028   30.2101   48.0999 H   0  0  0  0  0  0  0  0  0  0  0  0
   47.4513   31.3964   46.0610 H   0  0  0  0  0  0  0  0  0  0  0  0
   48.1255   32.7870   46.8953 H   0  0  0  0  0  0  0  0  0  0  0  0
   49.1160   33.4744   48.8245 H   0  0  0  0  0  0  0  0  0  0  0  0
   51.1754   33.0626   50.1581 H   0  0  0  0  0  0  0  0  0  0  0  0
   52.5907   28.8721   50.0323 H   0  0  0  0  0  0  0  0  0  0  0  0
   55.5123   29.0812   53.5523 H   0  0  0  0  0  0  0  0  0  0  0  0
   56.7001   29.4500   55.7265 H   0  0  0  0  0  0  0  0  0  0  0  0
   55.7916   30.9956   57.4384 H   0  0  0  0  0  0  0  0  0  0  0  0
   53.6606   32.1995   56.9734 H   0  0  0  0  0  0  0  0  0  0  0  0
   52.4297   31.8695   54.8147 H   0  0  0  0  0  0  0  0  0  0  0  0
  1  6  2  0
  2  1  1  0
  3  2  2  0
  3  4  1  0
  4  5  2  0
  5  6  1  0
  5  7  1  0
  7 11  1  0
  7  8  1  0
  8  9  1  0
 10 12  1  0
 10  9  1  0
 11 10  1  0
 12 13  2  0
 12 16  1  0
 13 14  1  0
 14 15  2  0
 15 17  1  0
 16 15  1  0
 17 21  1  0
 18 17  1  0
 18 19  2  0
 19 20  1  0
 20 22  1  0
 21 20  2  0
 22 23  2  0
 22 27  1  0
 23 24  1  0
 24 25  2  0
 26 25  1  0
 27 26  2  0
  1 28  1  0
  2 29  1  0
  3 30  1  0
  8 31  1  0
  8 32  1  0
  9 33  1  0
  9 34  1  0
 10 35  1  6
 11 36  1  0
 11 37  1  0
 13 38  1  0
 14 39  1  0
 18 40  1  0
 23 41  1  0
 24 42  1  0
 25 43  1  0
 26 44  1  0
 27 45  1  0
M  ISO  8  28  14  29  14  30  14  31  13  32  13  33  13  34  13  35  13
M  ISO  8  36  13  37  13  38  14  39  14  40  14  41  14  42  14  43  14
M  ISO  2  44  14  45  14
M  END
>  <minimizedAffinity>  (1) 
-6.59443378

>  <minimizedRMSD>  (1) 
2.42925739

$$$$
