
     RDKit          3D

 42 44  0  0  1  0  0  0  0  0999 V2000
   45.5250   34.3300   41.6920 C   0  0  0  0  0  0  0  0  0  0  0  0
   44.8970   33.8480   40.5120 C   0  0  0  0  0  0  0  0  0  0  0  0
   45.6980   33.5290   39.4180 C   0  0  0  0  0  0  0  0  0  0  0  0
   47.0300   33.6890   39.5080 N   0  0  0  0  0  0  0  0  0  0  0  0
   47.6300   34.1410   40.6040 C   0  0  0  0  0  0  0  0  0  0  0  0
   46.8790   34.4510   41.6680 N   0  0  0  0  0  0  0  0  0  0  0  0
   44.8670   34.7380   42.8840 C   0  0  0  0  0  0  0  0  0  0  0  0
   45.5340   34.1170   44.1440 C   0  0  0  0  0  0  0  0  0  0  0  0
   44.8620   35.0030   45.2300 C   0  0  0  0  0  0  0  0  0  0  0  0
   44.6450   36.3250   44.5690 C   0  0  0  0  0  0  0  0  0  0  0  0
   45.1580   36.2000   43.1510 C   0  0  0  0  0  0  0  0  0  0  0  0
   43.4300   33.6980   40.5050 C   0  0  1  0  0  0  0  0  0  0  0  0
   42.9300   32.6870   41.4570 C   0  0  0  0  0  0  0  0  0  0  0  0
   42.7870   35.0270   40.4690 C   0  0  0  0  0  0  0  0  0  0  0  0
   41.4060   34.8100   39.7950 C   0  0  0  0  0  0  0  0  0  0  0  0
   41.2910   34.4470   38.4480 C   0  0  0  0  0  0  0  0  0  0  0  0
   40.1090   34.2310   37.7960 C   0  0  0  0  0  0  0  0  0  0  0  0
   38.9620   34.3870   38.5380 C   0  0  0  0  0  0  0  0  0  0  0  0
   38.9970   34.7420   39.8680 C   0  0  0  0  0  0  0  0  0  0  0  0
   40.2280   34.9410   40.4480 C   0  0  0  0  0  0  0  0  0  0  0  0
   45.2454   33.1500   38.4898 H   0  0  0  0  0  0  0  0  0  0  0  0
   48.7232   34.2583   40.6365 H   0  0  0  0  0  0  0  0  0  0  0  0
   43.8109   34.4662   42.7399 H   0  0  0  0  0  0  0  0  0  0  0  0
   45.2809   33.0532   44.2637 H   0  0  0  0  0  0  0  0  0  0  0  0
   46.6340   34.1147   44.1467 H   0  0  0  0  0  0  0  0  0  0  0  0
   43.9031   34.5666   45.5463 H   0  0  0  0  0  0  0  0  0  0  0  0
   45.4817   35.0897   46.1347 H   0  0  0  0  0  0  0  0  0  0  0  0
   43.5733   36.5728   44.5626 H   0  0  0  0  0  0  0  0  0  0  0  0
   45.1731   37.1251   45.1085 H   0  0  0  0  0  0  0  0  0  0  0  0
   46.2341   36.4188   43.0871 H   0  0  0  0  0  0  0  0  0  0  0  0
   44.7016   36.8981   42.4338 H   0  0  0  0  0  0  0  0  0  0  0  0
   43.0997   33.2240   39.5689 H   0  0  0  0  0  0  0  0  0  0  0  0
   43.1023   33.0355   42.4860 H   0  0  0  0  0  0  0  0  0  0  0  0
   41.8524   32.5342   41.2972 H   0  0  0  0  0  0  0  0  0  0  0  0
   43.4626   31.7379   41.2972 H   0  0  0  0  0  0  0  0  0  0  0  0
   42.6582   35.4181   41.4890 H   0  0  0  0  0  0  0  0  0  0  0  0
   43.3969   35.7572   39.9168 H   0  0  0  0  0  0  0  0  0  0  0  0
   42.2202   34.3267   37.8716 H   0  0  0  0  0  0  0  0  0  0  0  0
   40.0772   33.9473   36.7337 H   0  0  0  0  0  0  0  0  0  0  0  0
   37.9875   34.2234   38.0548 H   0  0  0  0  0  0  0  0  0  0  0  0
   38.0701   34.8625   40.4479 H   0  0  0  0  0  0  0  0  0  0  0  0
   40.2569   35.2247   41.5104 H   0  0  0  0  0  0  0  0  0  0  0  0
  1  7  1  0
  2  1  2  0
  3  4  2  0
  3  2  1  0
  4  5  1  0
  5  6  2  0
  6  1  1  0
  7 11  1  0
  7  8  1  0
  8  9  1  0
 10  9  1  0
 11 10  1  0
 12  2  1  0
 12 13  1  0
 14 12  1  0
 15 20  1  0
 15 14  1  0
 16 15  2  0
 17 16  1  0
 17 18  2  0
 18 19  1  0
 19 20  2  0
  3 21  1  0
  5 22  1  0
  7 23  1  0
  8 24  1  0
  8 25  1  0
  9 26  1  0
  9 27  1  0
 10 28  1  0
 10 29  1  0
 11 30  1  0
 11 31  1  0
 12 32  1  6
 13 33  1  0
 13 34  1  0
 13 35  1  0
 14 36  1  0
 14 37  1  0
 16 38  1  0
 17 39  1  0
 18 40  1  0
 19 41  1  0
 20 42  1  0
M  ISO  8  21  14  22  14  23  13  24  13  25  13  26  13  27  13  28  13
M  ISO  8  29  13  30  13  31  13  32   8  33   8  34   8  35   8  36   8
M  ISO  6  37   8  38  14  39  14  40  14  41  14  42  14
M  END
>  <minimizedAffinity>  (1) 
-5.81013298

>  <minimizedRMSD>  (1) 
7.00358534

$$$$
