
     RDKit          3D

 42 46  0  0  1  0  0  0  0  0999 V2000
   44.6210   35.7490   44.9480 C   0  0  0  0  0  0  0  0  0  0  0  0
   45.0720   35.5400   43.6240 C   0  0  0  0  0  0  0  0  0  0  0  0
   45.7970   34.3530   43.3450 C   0  0  0  0  0  0  0  0  0  0  0  0
   46.0230   33.4750   44.3710 N   0  0  0  0  0  0  0  0  0  0  0  0
   45.5740   33.7190   45.6160 C   0  0  0  0  0  0  0  0  0  0  0  0
   44.8710   34.8530   45.9160 N   0  0  0  0  0  0  0  0  0  0  0  0
   45.8510   32.7670   46.6070 N   0  0  0  0  0  0  0  0  0  0  0  0
   45.0390   32.3950   47.7200 C   0  0  0  0  0  0  0  0  0  0  0  0
   46.0740   32.0600   48.7640 C   0  0  0  0  0  0  0  0  0  0  0  0
   47.0030   31.2130   47.9750 C   0  0  1  0  0  0  0  0  0  0  0  0
   47.0840   31.9820   46.6350 C   0  0  0  0  0  0  0  0  0  0  0  0
   48.3170   31.1890   48.6220 C   0  0  0  0  0  0  0  0  0  0  0  0
   49.0950   32.1970   49.2230 C   0  0  0  0  0  0  0  0  0  0  0  0
   50.3140   31.8640   49.7460 C   0  0  0  0  0  0  0  0  0  0  0  0
   50.7310   30.5520   49.6600 C   0  0  0  0  0  0  0  0  0  0  0  0
   49.3060   29.7100   48.7800 S   0  0  0  0  0  0  0  0  0  0  0  0
   51.9320   29.9440   50.1130 N   0  0  0  0  0  0  0  0  0  0  0  0
   52.6100   28.9520   49.5870 C   0  0  0  0  0  0  0  0  0  0  0  0
   53.6860   28.6760   50.3480 N   0  0  0  0  0  0  0  0  0  0  0  0
   53.6770   29.5250   51.3800 C   0  0  0  0  0  0  0  0  0  0  0  0
   52.5680   30.3240   51.2270 N   0  0  0  0  0  0  0  0  0  0  0  0
   54.6130   29.6180   52.4510 N   0  0  0  0  0  0  0  0  0  0  0  0
   55.3030   30.7210   52.7900 C   0  0  0  0  0  0  0  0  0  0  0  0
   56.0770   30.3510   53.8720 C   0  0  0  0  0  0  0  0  0  0  0  0
   55.8310   29.0560   54.1420 N   0  0  0  0  0  0  0  0  0  0  0  0
   54.9210   28.5900   53.2630 C   0  0  0  0  0  0  0  0  0  0  0  0
   44.0557   36.6614   45.1888 H   0  0  0  0  0  0  0  0  0  0  0  0
   44.8665   36.2766   42.8333 H   0  0  0  0  0  0  0  0  0  0  0  0
   46.1679   34.1434   42.3308 H   0  0  0  0  0  0  0  0  0  0  0  0
   44.3991   33.2288   48.0445 H   0  0  0  0  0  0  0  0  0  0  0  0
   44.3423   31.5713   47.5054 H   0  0  0  0  0  0  0  0  0  0  0  0
   46.5735   32.9638   49.1431 H   0  0  0  0  0  0  0  0  0  0  0  0
   45.6706   31.5751   49.6652 H   0  0  0  0  0  0  0  0  0  0  0  0
   46.6810   30.1666   47.8684 H   0  0  0  0  0  0  0  0  0  0  0  0
   47.1238   31.2848   45.7851 H   0  0  0  0  0  0  0  0  0  0  0  0
   47.9867   32.6057   46.5569 H   0  0  0  0  0  0  0  0  0  0  0  0
   48.7291   33.2332   49.2710 H   0  0  0  0  0  0  0  0  0  0  0  0
   50.9476   32.6253   50.2245 H   0  0  0  0  0  0  0  0  0  0  0  0
   52.3395   28.4236   48.6609 H   0  0  0  0  0  0  0  0  0  0  0  0
   55.2601   31.7087   52.3077 H   0  0  0  0  0  0  0  0  0  0  0  0
   56.7744   31.0026   54.4189 H   0  0  0  0  0  0  0  0  0  0  0  0
   54.5110   27.5702   53.2184 H   0  0  0  0  0  0  0  0  0  0  0  0
  1  6  2  0
  2  1  1  0
  3  2  2  0
  3  4  1  0
  4  5  2  0
  5  6  1  0
  5  7  1  0
  7 11  1  0
  7  8  1  0
  8  9  1  0
 10 12  1  0
 10  9  1  0
 11 10  1  0
 12 16  1  0
 12 13  2  0
 13 14  1  0
 15 14  2  0
 15 17  1  0
 16 15  1  0
 17 21  1  0
 18 17  1  0
 18 19  2  0
 19 20  1  0
 20 22  1  0
 21 20  2  0
 22 23  1  0
 22 26  1  0
 23 24  2  0
 24 25  1  0
 26 25  2  0
  1 27  1  0
  2 28  1  0
  3 29  1  0
  8 30  1  0
  8 31  1  0
  9 32  1  0
  9 33  1  0
 10 34  1  6
 11 35  1  0
 11 36  1  0
 13 37  1  0
 14 38  1  0
 18 39  1  0
 23 40  1  0
 24 41  1  0
 26 42  1  0
M  ISO  8  27  14  28  14  29  14  30  13  31  13  32  13  33  13  34  13
M  ISO  8  35  13  36  13  37  14  38  14  39  14  40  14  41  14  42  14
M  END
>  <minimizedAffinity>  (1) 
-5.76355839

>  <minimizedRMSD>  (1) 
1.11160278

$$$$
