
     RDKit          3D

 42 46  0  0  1  0  0  0  0  0999 V2000
   44.6150   35.7560   44.9060 C   0  0  0  0  0  0  0  0  0  0  0  0
   44.9660   35.4830   43.5740 C   0  0  0  0  0  0  0  0  0  0  0  0
   45.6040   34.2560   43.2910 C   0  0  0  0  0  0  0  0  0  0  0  0
   45.8490   33.3890   44.3310 N   0  0  0  0  0  0  0  0  0  0  0  0
   45.4860   33.7050   45.5940 C   0  0  0  0  0  0  0  0  0  0  0  0
   44.8670   34.8870   45.8960 N   0  0  0  0  0  0  0  0  0  0  0  0
   45.7710   32.7660   46.5990 N   0  0  0  0  0  0  0  0  0  0  0  0
   45.0060   32.4820   47.7690 C   0  0  0  0  0  0  0  0  0  0  0  0
   46.0800   32.1130   48.7600 C   0  0  0  0  0  0  0  0  0  0  0  0
   46.9040   31.1810   47.9480 C   0  0  1  0  0  0  0  0  0  0  0  0
   46.9510   31.9050   46.5800 C   0  0  0  0  0  0  0  0  0  0  0  0
   48.2570   31.1180   48.5270 C   0  0  0  0  0  0  0  0  0  0  0  0
   49.0520   32.0470   49.2310 C   0  0  0  0  0  0  0  0  0  0  0  0
   50.2850   31.6680   49.6140 C   0  0  0  0  0  0  0  0  0  0  0  0
   50.7500   30.4030   49.3240 C   0  0  0  0  0  0  0  0  0  0  0  0
   49.2880   29.6580   48.4060 S   0  0  0  0  0  0  0  0  0  0  0  0
   51.9870   29.7800   49.6220 N   0  0  0  0  0  0  0  0  0  0  0  0
   52.3610   28.5420   49.4120 C   0  0  0  0  0  0  0  0  0  0  0  0
   53.6180   28.3400   49.8390 N   0  0  0  0  0  0  0  0  0  0  0  0
   54.0370   29.5280   50.3390 C   0  0  0  0  0  0  0  0  0  0  0  0
   53.0170   30.4230   50.2010 N   0  0  0  0  0  0  0  0  0  0  0  0
   55.2940   29.9440   50.9410 C   0  0  0  0  0  0  0  0  0  0  0  0
   56.5730   29.7350   50.6190 C   0  0  0  0  0  0  0  0  0  0  0  0
   57.5970   30.2380   51.3530 C   0  0  0  0  0  0  0  0  0  0  0  0
   57.1970   30.9970   52.4790 C   0  0  0  0  0  0  0  0  0  0  0  0
   55.3510   30.9340   52.4050 S   0  0  0  0  0  0  0  0  0  0  0  0
   44.1197   36.7089   45.1440 H   0  0  0  0  0  0  0  0  0  0  0  0
   44.7497   36.2054   42.7732 H   0  0  0  0  0  0  0  0  0  0  0  0
   45.8985   33.9989   42.2628 H   0  0  0  0  0  0  0  0  0  0  0  0
   44.4408   33.3651   48.1017 H   0  0  0  0  0  0  0  0  0  0  0  0
   44.2464   31.6996   47.6246 H   0  0  0  0  0  0  0  0  0  0  0  0
   46.6585   32.9937   49.0759 H   0  0  0  0  0  0  0  0  0  0  0  0
   45.7027   31.6843   49.7002 H   0  0  0  0  0  0  0  0  0  0  0  0
   46.5186   30.1522   47.8930 H   0  0  0  0  0  0  0  0  0  0  0  0
   46.8953   31.1825   45.7524 H   0  0  0  0  0  0  0  0  0  0  0  0
   47.8845   32.4669   46.4286 H   0  0  0  0  0  0  0  0  0  0  0  0
   48.6740   33.0542   49.4606 H   0  0  0  0  0  0  0  0  0  0  0  0
   50.9269   32.3729   50.1627 H   0  0  0  0  0  0  0  0  0  0  0  0
   51.7292   27.7705   48.9476 H   0  0  0  0  0  0  0  0  0  0  0  0
   56.8044   29.1339   49.7273 H   0  0  0  0  0  0  0  0  0  0  0  0
   58.6528   30.0697   51.0941 H   0  0  0  0  0  0  0  0  0  0  0  0
   57.8326   31.5031   53.2205 H   0  0  0  0  0  0  0  0  0  0  0  0
  1  6  2  0
  2  1  1  0
  3  2  2  0
  3  4  1  0
  4  5  2  0
  5  6  1  0
  5  7  1  0
  7  8  1  0
  8  9  1  0
 10 12  1  0
 10  9  1  0
 11  7  1  0
 11 10  1  0
 12 13  2  0
 13 14  1  0
 15 14  2  0
 15 17  1  0
 16 12  1  0
 16 15  1  0
 17 21  1  0
 18 17  1  0
 18 19  2  0
 19 20  1  0
 20 22  1  0
 21 20  2  0
 22 26  1  0
 23 22  2  0
 23 24  1  0
 24 25  2  0
 26 25  1  0
  1 27  1  0
  2 28  1  0
  3 29  1  0
  8 30  1  0
  8 31  1  0
  9 32  1  0
  9 33  1  0
 10 34  1  6
 11 35  1  0
 11 36  1  0
 13 37  1  0
 14 38  1  0
 18 39  1  0
 23 40  1  0
 24 41  1  0
 25 42  1  0
M  ISO  8  27  14  28  14  29  14  30  13  31  13  32  13  33  13  34  13
M  ISO  8  35  13  36  13  37  14  38  14  39  14  40  14  41  14  42  14
M  END
>  <minimizedAffinity>  (1) 
-5.17565489

>  <minimizedRMSD>  (1) 
0.0867713615

$$$$
