
     RDKit          3D

 41 44  0  0  1  0  0  0  0  0999 V2000
   44.5560   35.5400   45.1300 C   0  0  0  0  0  0  0  0  0  0  0  0
   45.1450   35.4500   43.8460 C   0  0  0  0  0  0  0  0  0  0  0  0
   46.0600   34.3890   43.6040 C   0  0  0  0  0  0  0  0  0  0  0  0
   46.3190   33.5110   44.6300 N   0  0  0  0  0  0  0  0  0  0  0  0
   45.7220   33.6520   45.8390 C   0  0  0  0  0  0  0  0  0  0  0  0
   44.8420   34.6570   46.1000 N   0  0  0  0  0  0  0  0  0  0  0  0
   46.0550   32.7000   46.8200 N   0  0  0  0  0  0  0  0  0  0  0  0
   45.2000   32.1690   47.8390 C   0  0  0  0  0  0  0  0  0  0  0  0
   46.1710   31.9310   48.9610 C   0  0  0  0  0  0  0  0  0  0  0  0
   47.2890   31.2670   48.2450 C   0  0  1  0  0  0  0  0  0  0  0  0
   47.3720   32.0960   46.9430 C   0  0  0  0  0  0  0  0  0  0  0  0
   48.5220   31.4170   49.0250 C   0  0  0  0  0  0  0  0  0  0  0  0
   49.4210   32.4860   49.2000 C   0  0  0  0  0  0  0  0  0  0  0  0
   50.5090   32.3010   50.0000 C   0  0  0  0  0  0  0  0  0  0  0  0
   50.6860   31.0750   50.6070 C   0  0  0  0  0  0  0  0  0  0  0  0
   49.2090   30.0910   50.0130 S   0  0  0  0  0  0  0  0  0  0  0  0
   51.7220   30.6280   51.4750 N   0  0  0  0  0  0  0  0  0  0  0  0
   52.5690   29.6410   51.3080 C   0  0  0  0  0  0  0  0  0  0  0  0
   53.3880   29.5440   52.3770 N   0  0  0  0  0  0  0  0  0  0  0  0
   53.0310   30.5080   53.2300 C   0  0  0  0  0  0  0  0  0  0  0  0
   51.9830   31.1880   52.6580 N   0  0  0  0  0  0  0  0  0  0  0  0
   53.6790   30.7590   54.5440 C   0  0  0  0  0  0  0  0  0  0  0  0
   52.7180   31.4100   55.5200 C   0  0  0  0  0  0  0  0  0  0  0  0
   43.8460   36.3540   45.3383 H   0  0  0  0  0  0  0  0  0  0  0  0
   44.9021   36.1791   43.0590 H   0  0  0  0  0  0  0  0  0  0  0  0
   46.5467   34.2739   42.6243 H   0  0  0  0  0  0  0  0  0  0  0  0
   44.4236   32.8928   48.1278 H   0  0  0  0  0  0  0  0  0  0  0  0
   44.6452   31.2703   47.5316 H   0  0  0  0  0  0  0  0  0  0  0  0
   46.4933   32.8765   49.4215 H   0  0  0  0  0  0  0  0  0  0  0  0
   45.7593   31.3437   49.7950 H   0  0  0  0  0  0  0  0  0  0  0  0
   47.1489   30.1894   48.0745 H   0  0  0  0  0  0  0  0  0  0  0  0
   47.5859   31.4475   46.0806 H   0  0  0  0  0  0  0  0  0  0  0  0
   48.1778   32.8443   46.9707 H   0  0  0  0  0  0  0  0  0  0  0  0
   49.2489   33.4512   48.7012 H   0  0  0  0  0  0  0  0  0  0  0  0
   51.2325   33.1143   50.1586 H   0  0  0  0  0  0  0  0  0  0  0  0
   52.6068   28.9866   50.4246 H   0  0  0  0  0  0  0  0  0  0  0  0
   54.0206   29.8011   54.9633 H   0  0  0  0  0  0  0  0  0  0  0  0
   54.5274   31.4412   54.3867 H   0  0  0  0  0  0  0  0  0  0  0  0
   53.0382   31.1931   56.5497 H   0  0  0  0  0  0  0  0  0  0  0  0
   52.7131   32.4982   55.3591 H   0  0  0  0  0  0  0  0  0  0  0  0
   51.7056   31.0110   55.3591 H   0  0  0  0  0  0  0  0  0  0  0  0
  1  6  2  0
  2  1  1  0
  3  2  2  0
  3  4  1  0
  4  5  2  0
  5  6  1  0
  5  7  1  0
  7 11  1  0
  7  8  1  0
  8  9  1  0
 10  9  1  0
 10 12  1  0
 11 10  1  0
 12 13  2  0
 12 16  1  0
 13 14  1  0
 14 15  2  0
 15 17  1  0
 16 15  1  0
 17 21  1  0
 18 17  1  0
 18 19  2  0
 19 20  1  0
 20 22  1  0
 21 20  2  0
 22 23  1  0
  1 24  1  0
  2 25  1  0
  3 26  1  0
  8 27  1  0
  8 28  1  0
  9 29  1  0
  9 30  1  0
 10 31  1  6
 11 32  1  0
 11 33  1  0
 13 34  1  0
 14 35  1  0
 18 36  1  0
 22 37  1  0
 22 38  1  0
 23 39  1  0
 23 40  1  0
 23 41  1  0
M  ISO  8  24  14  25  14  26  14  27  13  28  13  29  13  30  13  31  13
M  ISO  8  32  13  33  13  34  14  35  14  36  14  37   8  38   8  39   8
M  ISO  2  40   8  41   8
M  END
>  <minimizedAffinity>  (1) 
-5.69241524

>  <minimizedRMSD>  (1) 
1.89401662

$$$$
