
     RDKit          3D

 37 40  0  0  1  0  0  0  0  0999 V2000
   44.6200   35.7630   44.9040 C   0  0  0  0  0  0  0  0  0  0  0  0
   44.9560   35.4700   43.5630 C   0  0  0  0  0  0  0  0  0  0  0  0
   45.5790   34.2230   43.2830 C   0  0  0  0  0  0  0  0  0  0  0  0
   45.8200   33.3740   44.3330 N   0  0  0  0  0  0  0  0  0  0  0  0
   45.4820   33.6960   45.5920 C   0  0  0  0  0  0  0  0  0  0  0  0
   44.8820   34.8910   45.8870 N   0  0  0  0  0  0  0  0  0  0  0  0
   45.7640   32.7720   46.6080 N   0  0  0  0  0  0  0  0  0  0  0  0
   45.0120   32.5080   47.7910 C   0  0  0  0  0  0  0  0  0  0  0  0
   46.0870   32.1260   48.7680 C   0  0  0  0  0  0  0  0  0  0  0  0
   46.9080   31.1970   47.9510 C   0  0  1  0  0  0  0  0  0  0  0  0
   46.9470   31.9070   46.5780 C   0  0  0  0  0  0  0  0  0  0  0  0
   48.2580   31.1090   48.5140 C   0  0  0  0  0  0  0  0  0  0  0  0
   49.0560   32.0280   49.2220 C   0  0  0  0  0  0  0  0  0  0  0  0
   50.3070   31.6430   49.6130 C   0  0  0  0  0  0  0  0  0  0  0  0
   50.7340   30.3710   49.2970 C   0  0  0  0  0  0  0  0  0  0  0  0
   49.2820   29.6480   48.3830 S   0  0  0  0  0  0  0  0  0  0  0  0
   51.9760   29.7370   49.5850 N   0  0  0  0  0  0  0  0  0  0  0  0
   52.3260   28.4880   49.3970 C   0  0  0  0  0  0  0  0  0  0  0  0
   53.5960   28.2930   49.8050 N   0  0  0  0  0  0  0  0  0  0  0  0
   54.0430   29.4740   50.2640 C   0  0  0  0  0  0  0  0  0  0  0  0
   53.0300   30.3690   50.1240 N   0  0  0  0  0  0  0  0  0  0  0  0
   55.3890   29.7390   50.8160 C   0  0  0  0  0  0  0  0  0  0  0  0
   55.3990   30.4850   51.8360 O   0  0  0  0  0  0  0  0  0  0  0  0
   44.1362   36.7212   45.1444 H   0  0  0  0  0  0  0  0  0  0  0  0
   44.7413   36.1875   42.7573 H   0  0  0  0  0  0  0  0  0  0  0  0
   45.8592   33.9475   42.2556 H   0  0  0  0  0  0  0  0  0  0  0  0
   44.4675   33.4031   48.1261 H   0  0  0  0  0  0  0  0  0  0  0  0
   44.2379   31.7374   47.6608 H   0  0  0  0  0  0  0  0  0  0  0  0
   46.6696   33.0024   49.0883 H   0  0  0  0  0  0  0  0  0  0  0  0
   45.7095   31.6883   49.7039 H   0  0  0  0  0  0  0  0  0  0  0  0
   46.5140   30.1710   47.9045 H   0  0  0  0  0  0  0  0  0  0  0  0
   46.8810   31.1786   45.7564 H   0  0  0  0  0  0  0  0  0  0  0  0
   47.8809   32.4631   46.4089 H   0  0  0  0  0  0  0  0  0  0  0  0
   48.6799   33.0350   49.4554 H   0  0  0  0  0  0  0  0  0  0  0  0
   50.9595   32.3331   50.1680 H   0  0  0  0  0  0  0  0  0  0  0  0
   51.6768   27.7106   48.9680 H   0  0  0  0  0  0  0  0  0  0  0  0
   56.3061   29.3212   50.3751 H   0  0  0  0  0  0  0  0  0  0  0  0
  1  6  2  0
  2  1  1  0
  3  2  2  0
  3  4  1  0
  4  5  2  0
  5  6  1  0
  5  7  1  0
  7  8  1  0
  8  9  1  0
 10 12  1  0
 10  9  1  0
 11  7  1  0
 11 10  1  0
 12 13  2  0
 13 14  1  0
 15 17  1  0
 15 14  2  0
 16 12  1  0
 16 15  1  0
 17 21  1  0
 18 17  1  0
 18 19  2  0
 19 20  1  0
 20 22  1  0
 21 20  2  0
 22 23  2  0
  1 24  1  0
  2 25  1  0
  3 26  1  0
  8 27  1  0
  8 28  1  0
  9 29  1  0
  9 30  1  0
 10 31  1  6
 11 32  1  0
 11 33  1  0
 13 34  1  0
 14 35  1  0
 18 36  1  0
 22 37  1  0
M  ISO  8  24  14  25  14  26  14  27  13  28  13  29  13  30  13  31  13
M  ISO  6  32  13  33  13  34  14  35  14  36  14  37   6
M  END
>  <minimizedAffinity>  (1) 
-5.09208822

>  <minimizedRMSD>  (1) 
0.0226868857

$$$$
