
     RDKit          3D

 37 39  0  0  1  0  0  0  0  0999 V2000
   45.6450   34.2680   42.2670 C   0  0  0  0  0  0  0  0  0  0  0  0
   47.0480   34.3240   42.3280 C   0  0  0  0  0  0  0  0  0  0  0  0
   47.6780   33.9370   43.5290 C   0  0  0  0  0  0  0  0  0  0  0  0
   46.9170   33.5340   44.5600 N   0  0  0  0  0  0  0  0  0  0  0  0
   45.5900   33.4830   44.5030 C   0  0  0  0  0  0  0  0  0  0  0  0
   44.9770   33.8450   43.3710 N   0  0  0  0  0  0  0  0  0  0  0  0
   44.8550   34.6580   41.1510 C   0  0  0  0  0  0  0  0  0  0  0  0
   44.1550   33.4300   40.4900 C   0  0  0  0  0  0  0  0  0  0  0  0
   43.1360   34.1770   39.6040 C   0  0  0  0  0  0  0  0  0  0  0  0
   42.8060   35.4270   40.3600 C   0  0  0  0  0  0  0  0  0  0  0  0
   43.6370   35.4130   41.6250 C   0  0  0  0  0  0  0  0  0  0  0  0
   47.8330   34.7830   41.1860 C   0  0  1  0  0  0  0  0  0  0  0  0
   48.8700   35.7880   41.5510 C   0  0  0  0  0  0  0  0  0  0  0  0
   48.3050   33.6290   40.3940 C   0  0  0  0  0  0  0  0  0  0  0  0
   47.8700   33.6880   38.9640 C   0  0  0  0  0  0  0  0  0  0  0  0
   48.4130   34.5420   38.0770 N   0  0  0  0  0  0  0  0  0  0  0  0
   47.8260   34.3460   36.9370 O   0  0  0  0  0  0  0  0  0  0  0  0
   46.9140   33.4060   37.0040 C   0  0  0  0  0  0  0  0  0  0  0  0
   46.9460   32.9860   38.3050 N   0  0  0  0  0  0  0  0  0  0  0  0
   48.7739   33.9647   43.6199 H   0  0  0  0  0  0  0  0  0  0  0  0
   45.0056   33.1485   45.3728 H   0  0  0  0  0  0  0  0  0  0  0  0
   45.5407   35.2076   40.4894 H   0  0  0  0  0  0  0  0  0  0  0  0
   44.8562   32.8279   39.8935 H   0  0  0  0  0  0  0  0  0  0  0  0
   43.7248   32.6987   41.1901 H   0  0  0  0  0  0  0  0  0  0  0  0
   42.2334   33.5663   39.4543 H   0  0  0  0  0  0  0  0  0  0  0  0
   43.5396   34.3940   38.6040 H   0  0  0  0  0  0  0  0  0  0  0  0
   43.0547   36.3111   39.7546 H   0  0  0  0  0  0  0  0  0  0  0  0
   41.7326   35.4703   40.5965 H   0  0  0  0  0  0  0  0  0  0  0  0
   43.1239   34.8833   42.4412 H   0  0  0  0  0  0  0  0  0  0  0  0
   43.8503   36.4082   42.0423 H   0  0  0  0  0  0  0  0  0  0  0  0
   47.1793   35.3587   40.5143 H   0  0  0  0  0  0  0  0  0  0  0  0
   48.9428   35.8585   42.6463 H   0  0  0  0  0  0  0  0  0  0  0  0
   49.8416   35.4789   41.1381 H   0  0  0  0  0  0  0  0  0  0  0  0
   48.5915   36.7688   41.1381 H   0  0  0  0  0  0  0  0  0  0  0  0
   49.4043   33.6074   40.4259 H   0  0  0  0  0  0  0  0  0  0  0  0
   47.8649   32.7229   40.8360 H   0  0  0  0  0  0  0  0  0  0  0  0
   46.2673   33.0375   36.1941 H   0  0  0  0  0  0  0  0  0  0  0  0
  1  2  1  0
  1  6  2  0
  2  3  2  0
  3  4  1  0
  5  4  2  0
  6  5  1  0
  7 11  1  0
  7  1  1  0
  8  7  1  0
  9 10  1  0
  9  8  1  0
 10 11  1  0
 12 13  1  0
 12  2  1  0
 14 12  1  0
 15 14  1  0
 16 15  2  0
 17 18  1  0
 17 16  1  0
 18 19  2  0
 19 15  1  0
  3 20  1  0
  5 21  1  0
  7 22  1  0
  8 23  1  0
  8 24  1  0
  9 25  1  0
  9 26  1  0
 10 27  1  0
 10 28  1  0
 11 29  1  0
 11 30  1  0
 12 31  1  6
 13 32  1  0
 13 33  1  0
 13 34  1  0
 14 35  1  0
 14 36  1  0
 18 37  1  0
M  ISO  8  20  14  21  14  22  13  23  13  24  13  25  13  26  13  27  13
M  ISO  8  28  13  29  13  30  13  31   8  32   8  33   8  34   8  35   8
M  ISO  2  36   8  37  14
M  END
>  <minimizedAffinity>  (1) 
-5.07989311

>  <minimizedRMSD>  (1) 
3.5716517

$$$$
