
     RDKit          3D

 39 42  0  0  0  0  0  0  0  0999 V2000
   47.2220   34.8440   41.9530 N   0  0  0  0  0  0  0  0  0  0  0  0
   48.3730   35.5770   41.8630 C   0  0  0  0  0  0  0  0  0  0  0  0
   48.8430   35.4550   40.6020 N   0  0  0  0  0  0  0  0  0  0  0  0
   48.0210   34.6680   39.9000 C   0  0  0  0  0  0  0  0  0  0  0  0
   48.0590   34.2430   38.5940 C   0  0  0  0  0  0  0  0  0  0  0  0
   47.0510   33.4340   38.1840 N   0  0  0  0  0  0  0  0  0  0  0  0
   46.0490   33.0570   39.0210 C   0  0  0  0  0  0  0  0  0  0  0  0
   46.0240   33.4860   40.3130 N   0  0  0  0  0  0  0  0  0  0  0  0
   47.0040   34.2870   40.7530 C   0  0  0  0  0  0  0  0  0  0  0  0
   49.1210   34.6470   37.7200 N   0  0  0  0  0  0  0  0  0  0  0  0
   44.6530   35.5880   44.4830 C   0  0  0  0  0  0  0  0  0  0  0  0
   45.4180   35.6480   43.2910 C   0  0  0  0  0  0  0  0  0  0  0  0
   46.4740   34.7620   43.1540 C   0  0  0  0  0  0  0  0  0  0  0  0
   46.7260   33.8740   44.1700 N   0  0  0  0  0  0  0  0  0  0  0  0
   45.9770   33.8450   45.2880 C   0  0  0  0  0  0  0  0  0  0  0  0
   44.9450   34.6920   45.4550 N   0  0  0  0  0  0  0  0  0  0  0  0
   46.2410   32.9020   46.3750 C   0  0  0  0  0  0  0  0  0  0  0  0
   46.1760   31.4830   45.8520 C   0  0  0  0  0  0  0  0  0  0  0  0
   46.8070   30.6070   46.9220 C   0  0  0  0  0  0  0  0  0  0  0  0
   45.9030   30.6780   48.1390 C   0  0  0  0  0  0  0  0  0  0  0  0
   45.6990   32.0970   48.6040 C   0  0  0  0  0  0  0  0  0  0  0  0
   45.2170   33.0020   47.4900 C   0  0  0  0  0  0  0  0  0  0  0  0
   48.8340   36.1616   42.6727 H   0  0  0  0  0  0  0  0  0  0  0  0
   45.2496   32.3983   38.6508 H   0  0  0  0  0  0  0  0  0  0  0  0
   49.1365   34.3205   36.7432 H   0  0  0  0  0  0  0  0  0  0  0  0
   49.8686   35.2637   38.0688 H   0  0  0  0  0  0  0  0  0  0  0  0
   43.8091   36.2801   44.6203 H   0  0  0  0  0  0  0  0  0  0  0  0
   45.1806   36.3748   42.5002 H   0  0  0  0  0  0  0  0  0  0  0  0
   47.2374   33.1538   46.7672 H   0  0  0  0  0  0  0  0  0  0  0  0
   45.1302   31.1861   45.6840 H   0  0  0  0  0  0  0  0  0  0  0  0
   46.7035   31.3853   44.8917 H   0  0  0  0  0  0  0  0  0  0  0  0
   46.8811   29.5689   46.5658 H   0  0  0  0  0  0  0  0  0  0  0  0
   47.8227   30.9522   47.1652 H   0  0  0  0  0  0  0  0  0  0  0  0
   44.9256   30.2437   47.8821 H   0  0  0  0  0  0  0  0  0  0  0  0
   46.3834   30.1172   48.9543 H   0  0  0  0  0  0  0  0  0  0  0  0
   44.9520   32.1009   49.4114 H   0  0  0  0  0  0  0  0  0  0  0  0
   46.6693   32.4799   48.9532 H   0  0  0  0  0  0  0  0  0  0  0  0
   45.1462   34.0397   47.8481 H   0  0  0  0  0  0  0  0  0  0  0  0
   44.2187   32.7014   47.1393 H   0  0  0  0  0  0  0  0  0  0  0  0
  1 13  1  0
  2  1  1  0
  3  2  2  0
  4  3  1  0
  4  9  2  0
  5  4  1  0
  6  5  2  0
  6  7  1  0
  7  8  2  0
  8  9  1  0
  9  1  1  0
 10  5  1  0
 11 16  2  0
 12 11  1  0
 13 12  2  0
 13 14  1  0
 14 15  2  0
 15 16  1  0
 15 17  1  0
 17 22  1  0
 18 17  1  0
 18 19  1  0
 19 20  1  0
 20 21  1  0
 22 21  1  0
  2 23  1  0
  7 24  1  0
 10 25  1  0
 10 26  1  0
 11 27  1  0
 12 28  1  0
 17 29  1  0
 18 30  1  0
 18 31  1  0
 19 32  1  0
 19 33  1  0
 20 34  1  0
 20 35  1  0
 21 36  1  0
 21 37  1  0
 22 38  1  0
 22 39  1  0
M  ISO  8  23  14  24  14  27  14  28  14  29  13  30  13  31  13  32  13
M  ISO  7  33  13  34  13  35  13  36  13  37  13  38  13  39  13
M  END
>  <minimizedAffinity>  (1) 
-6.91743231

>  <minimizedRMSD>  (1) 
0.371617049

$$$$
