
     RDKit          3D

 30 33  0  0  0  0  0  0  0  0999 V2000
   44.5340   35.8620   44.3930 C   0  0  0  0  0  0  0  0  0  0  0  0
   45.3190   35.8320   43.2180 C   0  0  0  0  0  0  0  0  0  0  0  0
   46.3120   34.8740   43.1440 C   0  0  0  0  0  0  0  0  0  0  0  0
   46.4960   34.0080   44.1850 N   0  0  0  0  0  0  0  0  0  0  0  0
   45.7290   34.0600   45.3010 C   0  0  0  0  0  0  0  0  0  0  0  0
   44.7410   34.9880   45.4130 N   0  0  0  0  0  0  0  0  0  0  0  0
   47.0980   34.8560   41.9620 N   0  0  0  0  0  0  0  0  0  0  0  0
   48.3010   35.5030   41.8830 C   0  0  0  0  0  0  0  0  0  0  0  0
   48.8060   35.3050   40.6440 N   0  0  0  0  0  0  0  0  0  0  0  0
   47.9450   34.5480   39.9460 C   0  0  0  0  0  0  0  0  0  0  0  0
   47.9880   34.0650   38.6510 C   0  0  0  0  0  0  0  0  0  0  0  0
   46.9360   33.3160   38.2560 N   0  0  0  0  0  0  0  0  0  0  0  0
   45.8840   33.0420   39.0740 C   0  0  0  0  0  0  0  0  0  0  0  0
   45.8700   33.5310   40.3430 N   0  0  0  0  0  0  0  0  0  0  0  0
   46.8760   34.2710   40.7810 C   0  0  0  0  0  0  0  0  0  0  0  0
   49.0920   34.3540   37.7940 N   0  0  0  0  0  0  0  0  0  0  0  0
   46.0550   33.0660   46.3210 C   0  0  0  0  0  0  0  0  0  0  0  0
   45.2610   32.9760   47.4550 C   0  0  0  0  0  0  0  0  0  0  0  0
   45.8270   31.9510   48.2180 C   0  0  0  0  0  0  0  0  0  0  0  0
   46.9040   31.4660   47.5550 N   0  0  0  0  0  0  0  0  0  0  0  0
   47.0400   32.1410   46.4080 N   0  0  0  0  0  0  0  0  0  0  0  0
   43.7347   36.6122   44.4843 H   0  0  0  0  0  0  0  0  0  0  0  0
   45.1465   36.5423   42.3960 H   0  0  0  0  0  0  0  0  0  0  0  0
   48.7754   36.0837   42.6879 H   0  0  0  0  0  0  0  0  0  0  0  0
   45.0476   32.4271   38.7103 H   0  0  0  0  0  0  0  0  0  0  0  0
   49.1074   33.9859   36.8321 H   0  0  0  0  0  0  0  0  0  0  0  0
   49.8733   34.9307   38.1374 H   0  0  0  0  0  0  0  0  0  0  0  0
   44.3761   33.5813   47.7008 H   0  0  0  0  0  0  0  0  0  0  0  0
   45.4597   31.5976   49.1928 H   0  0  0  0  0  0  0  0  0  0  0  0
   47.5164   30.7042   47.8799 H   0  0  0  0  0  0  0  0  0  0  0  0
  1  6  2  0
  2  1  1  0
  3  2  2  0
  3  4  1  0
  4  5  2  0
  5  6  1  0
  5 17  1  0
  7  3  1  0
  8  7  1  0
  9  8  2  0
 10  9  1  0
 10 15  2  0
 11 10  1  0
 12 11  2  0
 12 13  1  0
 13 14  2  0
 14 15  1  0
 15  7  1  0
 16 11  1  0
 17 21  2  0
 17 18  1  0
 18 19  2  0
 20 19  1  0
 21 20  1  0
  1 22  1  0
  2 23  1  0
  8 24  1  0
 13 25  1  0
 16 26  1  0
 16 27  1  0
 18 28  1  0
 19 29  1  0
 20 30  1  0
M  ISO  7  22  14  23  14  24  14  25  14  28  14  29  14  30   9
M  END
>  <minimizedAffinity>  (1) 
-6.49256372

>  <minimizedRMSD>  (1) 
0.340395927

$$$$
