
     RDKit          3D

 32 34  0  0  0  0  0  0  0  0999 V2000
   47.2610   34.8470   41.9370 N   0  0  0  0  0  0  0  0  0  0  0  0
   48.3900   35.5760   41.8460 C   0  0  0  0  0  0  0  0  0  0  0  0
   48.8710   35.4730   40.5850 N   0  0  0  0  0  0  0  0  0  0  0  0
   48.0440   34.6770   39.8830 C   0  0  0  0  0  0  0  0  0  0  0  0
   48.0890   34.2610   38.5670 C   0  0  0  0  0  0  0  0  0  0  0  0
   47.0790   33.4440   38.1640 N   0  0  0  0  0  0  0  0  0  0  0  0
   46.0860   33.0590   38.9960 C   0  0  0  0  0  0  0  0  0  0  0  0
   46.0590   33.4830   40.2990 N   0  0  0  0  0  0  0  0  0  0  0  0
   47.0360   34.2890   40.7360 C   0  0  0  0  0  0  0  0  0  0  0  0
   49.1260   34.6590   37.6850 N   0  0  0  0  0  0  0  0  0  0  0  0
   44.6790   35.5560   44.4740 C   0  0  0  0  0  0  0  0  0  0  0  0
   45.4440   35.6450   43.2730 C   0  0  0  0  0  0  0  0  0  0  0  0
   46.5100   34.7480   43.1330 C   0  0  0  0  0  0  0  0  0  0  0  0
   46.7590   33.8500   44.1360 N   0  0  0  0  0  0  0  0  0  0  0  0
   46.0060   33.8040   45.2540 C   0  0  0  0  0  0  0  0  0  0  0  0
   44.9720   34.6410   45.4390 N   0  0  0  0  0  0  0  0  0  0  0  0
   46.3600   32.7900   46.2830 C   0  0  0  0  0  0  0  0  0  0  0  0
   45.4200   32.7610   47.4500 C   0  0  0  0  0  0  0  0  0  0  0  0
   46.5620   31.4270   45.6420 C   0  0  0  0  0  0  0  0  0  0  0  0
   48.8453   36.1581   42.6608 H   0  0  0  0  0  0  0  0  0  0  0  0
   45.2901   32.3976   38.6230 H   0  0  0  0  0  0  0  0  0  0  0  0
   49.1272   34.3290   36.7093 H   0  0  0  0  0  0  0  0  0  0  0  0
   49.8779   35.2781   38.0202 H   0  0  0  0  0  0  0  0  0  0  0  0
   43.8327   36.2426   44.6239 H   0  0  0  0  0  0  0  0  0  0  0  0
   45.2074   36.3839   42.4933 H   0  0  0  0  0  0  0  0  0  0  0  0
   47.3204   33.0976   46.7223 H   0  0  0  0  0  0  0  0  0  0  0  0
   45.9972   32.7788   48.3862 H   0  0  0  0  0  0  0  0  0  0  0  0
   44.7588   33.6392   47.4101 H   0  0  0  0  0  0  0  0  0  0  0  0
   44.8142   31.8437   47.4101 H   0  0  0  0  0  0  0  0  0  0  0  0
   46.6749   30.6654   46.4277 H   0  0  0  0  0  0  0  0  0  0  0  0
   45.6902   31.1828   45.0172 H   0  0  0  0  0  0  0  0  0  0  0  0
   47.4671   31.4462   45.0172 H   0  0  0  0  0  0  0  0  0  0  0  0
  1 13  1  0
  2  1  1  0
  3  2  2  0
  4  3  1  0
  4  9  2  0
  5  4  1  0
  6  5  2  0
  6  7  1  0
  7  8  2  0
  8  9  1  0
  9  1  1  0
 10  5  1  0
 11 16  2  0
 12 11  1  0
 13 12  2  0
 13 14  1  0
 14 15  2  0
 15 16  1  0
 15 17  1  0
 17 18  1  0
 19 17  1  0
  2 20  1  0
  7 21  1  0
 10 22  1  0
 10 23  1  0
 11 24  1  0
 12 25  1  0
 17 26  1  0
 18 27  1  0
 18 28  1  0
 18 29  1  0
 19 30  1  0
 19 31  1  0
 19 32  1  0
M  ISO  8  20  14  21  14  24  14  25  14  26   8  27   8  28   8  29   8
M  ISO  3  30   8  31   8  32   8
M  END
>  <minimizedAffinity>  (1) 
-6.00302076

>  <minimizedRMSD>  (1) 
0.377658427

$$$$
