
     RDKit          3D

 38 40  0  0  1  0  0  0  0  0999 V2000
   45.5420   34.3720   42.3500 C   0  0  0  0  0  0  0  0  0  0  0  0
   46.9470   34.3190   42.3910 C   0  0  0  0  0  0  0  0  0  0  0  0
   47.5620   33.9150   43.5830 C   0  0  0  0  0  0  0  0  0  0  0  0
   46.7990   33.5980   44.6390 N   0  0  0  0  0  0  0  0  0  0  0  0
   45.4710   33.6490   44.6070 C   0  0  0  0  0  0  0  0  0  0  0  0
   44.8680   34.0310   43.4760 N   0  0  0  0  0  0  0  0  0  0  0  0
   44.7580   34.7820   41.2360 C   0  0  0  0  0  0  0  0  0  0  0  0
   44.2600   33.5500   40.4120 C   0  0  0  0  0  0  0  0  0  0  0  0
   43.2020   34.2600   39.5400 C   0  0  0  0  0  0  0  0  0  0  0  0
   42.6590   35.3560   40.4090 C   0  0  0  0  0  0  0  0  0  0  0  0
   43.4290   35.3100   41.7150 C   0  0  0  0  0  0  0  0  0  0  0  0
   47.7400   34.6960   41.2260 C   0  0  1  0  0  0  0  0  0  0  0  0
   48.8170   35.6930   41.5560 C   0  0  0  0  0  0  0  0  0  0  0  0
   48.2270   33.5430   40.4820 C   0  0  0  0  0  0  0  0  0  0  0  0
   48.0120   33.4140   39.0410 C   0  0  0  0  0  0  0  0  0  0  0  0
   47.4680   32.3670   38.4400 C   0  0  0  0  0  0  0  0  0  0  0  0
   47.4230   32.7880   36.5990 S   0  0  0  0  0  0  0  0  0  0  0  0
   48.2210   34.4490   37.0560 C   0  0  0  0  0  0  0  0  0  0  0  0
   48.3170   34.3470   38.1690 N   0  0  0  0  0  0  0  0  0  0  0  0
   48.6584   33.8585   43.6519 H   0  0  0  0  0  0  0  0  0  0  0  0
   44.8788   33.3819   45.4947 H   0  0  0  0  0  0  0  0  0  0  0  0
   45.3894   35.4887   40.6775 H   0  0  0  0  0  0  0  0  0  0  0  0
   45.0638   33.1057   39.8066 H   0  0  0  0  0  0  0  0  0  0  0  0
   43.8931   32.6993   41.0050 H   0  0  0  0  0  0  0  0  0  0  0  0
   42.4027   33.5603   39.2546 H   0  0  0  0  0  0  0  0  0  0  0  0
   43.6292   34.6471   38.6032 H   0  0  0  0  0  0  0  0  0  0  0  0
   42.8019   36.3311   39.9205 H   0  0  0  0  0  0  0  0  0  0  0  0
   41.5815   35.2205   40.5839 H   0  0  0  0  0  0  0  0  0  0  0  0
   42.9590   34.6283   42.4391 H   0  0  0  0  0  0  0  0  0  0  0  0
   43.4840   36.2711   42.2473 H   0  0  0  0  0  0  0  0  0  0  0  0
   47.0559   35.2191   40.5416 H   0  0  0  0  0  0  0  0  0  0  0  0
   48.9126   35.7815   42.6483 H   0  0  0  0  0  0  0  0  0  0  0  0
   49.7731   35.3542   41.1305 H   0  0  0  0  0  0  0  0  0  0  0  0
   48.5529   36.6724   41.1305 H   0  0  0  0  0  0  0  0  0  0  0  0
   49.3156   33.5116   40.6368 H   0  0  0  0  0  0  0  0  0  0  0  0
   47.6117   32.7255   40.8858 H   0  0  0  0  0  0  0  0  0  0  0  0
   47.1142   31.4405   38.9159 H   0  0  0  0  0  0  0  0  0  0  0  0
   48.5112   35.2864   36.4044 H   0  0  0  0  0  0  0  0  0  0  0  0
  1  2  1  0
  1  6  2  0
  2  3  2  0
  3  4  1  0
  5  4  2  0
  6  5  1  0
  7 11  1  0
  7  1  1  0
  8  7  1  0
  9 10  1  0
  9  8  1  0
 10 11  1  0
 12 13  1  0
 12  2  1  0
 14 12  1  0
 15 14  1  0
 16 15  2  0
 17 18  1  0
 17 16  1  0
 18 19  2  0
 19 15  1  0
  3 20  1  0
  5 21  1  0
  7 22  1  0
  8 23  1  0
  8 24  1  0
  9 25  1  0
  9 26  1  0
 10 27  1  0
 10 28  1  0
 11 29  1  0
 11 30  1  0
 12 31  1  6
 13 32  1  0
 13 33  1  0
 13 34  1  0
 14 35  1  0
 14 36  1  0
 16 37  1  0
 18 38  1  0
M  ISO  8  20  14  21  14  22  13  23  13  24  13  25  13  26  13  27  13
M  ISO  8  28  13  29  13  30  13  31   8  32   8  33   8  34   8  35   8
M  ISO  3  36   8  37  14  38  14
M  END
>  <minimizedAffinity>  (1) 
-5.02610397

>  <minimizedRMSD>  (1) 
3.50841904

$$$$
