
     RDKit          3D

 31 34  0  0  0  0  0  0  0  0999 V2000
   44.5510   36.0620   44.4850 C   0  0  0  0  0  0  0  0  0  0  0  0
   45.3180   35.9530   43.3040 C   0  0  0  0  0  0  0  0  0  0  0  0
   46.2120   34.8730   43.2050 C   0  0  0  0  0  0  0  0  0  0  0  0
   46.2750   34.0250   44.2370 N   0  0  0  0  0  0  0  0  0  0  0  0
   45.5570   34.1240   45.3480 C   0  0  0  0  0  0  0  0  0  0  0  0
   44.6830   35.1490   45.4850 N   0  0  0  0  0  0  0  0  0  0  0  0
   45.8100   33.0860   46.2800 N   0  0  0  0  0  0  0  0  0  0  0  0
   45.2620   32.7440   47.4470 C   0  0  0  0  0  0  0  0  0  0  0  0
   45.9160   31.5780   47.8810 C   0  0  0  0  0  0  0  0  0  0  0  0
   46.8460   31.2830   46.9190 N   0  0  0  0  0  0  0  0  0  0  0  0
   46.7690   32.1980   45.9660 C   0  0  0  0  0  0  0  0  0  0  0  0
   46.9680   34.7990   42.0210 N   0  0  0  0  0  0  0  0  0  0  0  0
   48.2020   35.4030   41.9100 C   0  0  0  0  0  0  0  0  0  0  0  0
   48.6710   35.1600   40.6630 N   0  0  0  0  0  0  0  0  0  0  0  0
   47.7630   34.4180   39.9920 C   0  0  0  0  0  0  0  0  0  0  0  0
   47.7730   33.9220   38.7160 C   0  0  0  0  0  0  0  0  0  0  0  0
   46.6760   33.2020   38.3560 N   0  0  0  0  0  0  0  0  0  0  0  0
   45.6570   32.9920   39.1850 C   0  0  0  0  0  0  0  0  0  0  0  0
   45.6630   33.4960   40.4570 N   0  0  0  0  0  0  0  0  0  0  0  0
   46.7220   34.2100   40.8540 C   0  0  0  0  0  0  0  0  0  0  0  0
   48.8590   34.1500   37.8240 N   0  0  0  0  0  0  0  0  0  0  0  0
   47.7000   31.9460   44.9610 O   0  0  0  0  0  0  0  0  0  0  0  0
   43.8397   36.8935   44.5974 H   0  0  0  0  0  0  0  0  0  0  0  0
   45.2192   36.6871   42.4908 H   0  0  0  0  0  0  0  0  0  0  0  0
   44.4523   33.2737   47.9702 H   0  0  0  0  0  0  0  0  0  0  0  0
   45.7207   31.0159   48.8061 H   0  0  0  0  0  0  0  0  0  0  0  0
   48.7144   35.9795   42.6943 H   0  0  0  0  0  0  0  0  0  0  0  0
   44.7941   32.4026   38.8417 H   0  0  0  0  0  0  0  0  0  0  0  0
   48.8326   33.7613   36.8705 H   0  0  0  0  0  0  0  0  0  0  0  0
   49.6711   34.7036   38.1322 H   0  0  0  0  0  0  0  0  0  0  0  0
   48.3000   31.1613   45.0275 H   0  0  0  0  0  0  0  0  0  0  0  0
  1  6  2  0
  2  1  1  0
  3  2  2  0
  3  4  1  0
  4  5  2  0
  5  6  1  0
  5  7  1  0
  7  8  1  0
  8  9  2  0
 10  9  1  0
 11  7  1  0
 11 10  2  0
 12  3  1  0
 13 12  1  0
 14 13  2  0
 15 14  1  0
 15 20  2  0
 16 15  1  0
 17 16  2  0
 17 18  1  0
 18 19  2  0
 19 20  1  0
 20 12  1  0
 21 16  1  0
 22 11  1  0
  1 23  1  0
  2 24  1  0
  8 25  1  0
  9 26  1  0
 13 27  1  0
 18 28  1  0
 21 29  1  0
 21 30  1  0
 22 31  1  0
M  ISO  7  23  14  24  14  25  14  26  14  27  14  28  14  31   3
M  END
>  <minimizedAffinity>  (1) 
-6.69936323

>  <minimizedRMSD>  (1) 
0.213009223

$$$$
