
     RDKit          3D

 42 46  0  0  0  0  0  0  0  0999 V2000
   44.6030   36.2140   44.4560 C   0  0  0  0  0  0  0  0  0  0  0  0
   45.3640   36.0590   43.2630 C   0  0  0  0  0  0  0  0  0  0  0  0
   46.1670   34.9160   43.1460 C   0  0  0  0  0  0  0  0  0  0  0  0
   46.1530   34.0590   44.1740 N   0  0  0  0  0  0  0  0  0  0  0  0
   45.4460   34.2010   45.2820 C   0  0  0  0  0  0  0  0  0  0  0  0
   44.6610   35.2790   45.4420 N   0  0  0  0  0  0  0  0  0  0  0  0
   45.6540   33.1230   46.1760 N   0  0  0  0  0  0  0  0  0  0  0  0
   45.1190   32.8300   47.3780 C   0  0  0  0  0  0  0  0  0  0  0  0
   45.7210   31.6730   47.8420 C   0  0  0  0  0  0  0  0  0  0  0  0
   46.6030   31.3070   46.8950 N   0  0  0  0  0  0  0  0  0  0  0  0
   46.5600   32.1960   45.8740 C   0  0  0  0  0  0  0  0  0  0  0  0
   47.4590   31.8800   44.8450 N   0  0  0  0  0  0  0  0  0  0  0  0
   47.9510   32.8720   43.9110 C   0  0  0  0  0  0  0  0  0  0  0  0
   47.4830   32.2410   42.5870 C   0  0  0  0  0  0  0  0  0  0  0  0
   47.4970   30.7460   42.8780 C   0  0  0  0  0  0  0  0  0  0  0  0
   48.1900   30.7740   44.2580 C   0  0  0  0  0  0  0  0  0  0  0  0
   46.9030   34.7860   41.9440 N   0  0  0  0  0  0  0  0  0  0  0  0
   48.1540   35.2790   41.7980 C   0  0  0  0  0  0  0  0  0  0  0  0
   48.5910   34.9980   40.5490 N   0  0  0  0  0  0  0  0  0  0  0  0
   47.6170   34.3220   39.8970 C   0  0  0  0  0  0  0  0  0  0  0  0
   47.5450   33.8080   38.6150 C   0  0  0  0  0  0  0  0  0  0  0  0
   46.3830   33.1790   38.2850 N   0  0  0  0  0  0  0  0  0  0  0  0
   45.3680   33.0610   39.1440 C   0  0  0  0  0  0  0  0  0  0  0  0
   45.4440   33.5690   40.4060 N   0  0  0  0  0  0  0  0  0  0  0  0
   46.5750   34.2050   40.7920 C   0  0  0  0  0  0  0  0  0  0  0  0
   48.6450   33.9420   37.7350 N   0  0  0  0  0  0  0  0  0  0  0  0
   43.9616   37.0988   44.5817 H   0  0  0  0  0  0  0  0  0  0  0  0
   45.3233   36.8103   42.4606 H   0  0  0  0  0  0  0  0  0  0  0  0
   44.3413   33.4082   47.8984 H   0  0  0  0  0  0  0  0  0  0  0  0
   45.5189   31.1575   48.7925 H   0  0  0  0  0  0  0  0  0  0  0  0
   47.4907   33.8567   44.0800 H   0  0  0  0  0  0  0  0  0  0  0  0
   49.0303   33.0748   43.9736 H   0  0  0  0  0  0  0  0  0  0  0  0
   48.1746   32.4882   41.7681 H   0  0  0  0  0  0  0  0  0  0  0  0
   46.4958   32.6046   42.2657 H   0  0  0  0  0  0  0  0  0  0  0  0
   46.4813   30.3275   42.9351 H   0  0  0  0  0  0  0  0  0  0  0  0
   47.9856   30.1207   42.1163 H   0  0  0  0  0  0  0  0  0  0  0  0
   48.0415   29.8372   44.8151 H   0  0  0  0  0  0  0  0  0  0  0  0
   49.2846   30.8816   44.2401 H   0  0  0  0  0  0  0  0  0  0  0  0
   48.7229   35.8198   42.5686 H   0  0  0  0  0  0  0  0  0  0  0  0
   44.4511   32.5428   38.8264 H   0  0  0  0  0  0  0  0  0  0  0  0
   48.5905   33.5589   36.7804 H   0  0  0  0  0  0  0  0  0  0  0  0
   49.5002   34.4226   38.0490 H   0  0  0  0  0  0  0  0  0  0  0  0
  1  6  2  0
  2  1  1  0
  3  2  2  0
  3  4  1  0
  4  5  2  0
  5  6  1  0
  5  7  1  0
  7  8  1  0
  8  9  2  0
 10  9  1  0
 11  7  1  0
 11 10  2  0
 12 11  1  0
 13 12  1  0
 14 15  1  0
 14 13  1  0
 15 16  1  0
 16 12  1  0
 17  3  1  0
 18 17  1  0
 19 18  2  0
 20 19  1  0
 20 25  2  0
 21 20  1  0
 22 21  2  0
 22 23  1  0
 23 24  2  0
 24 25  1  0
 25 17  1  0
 26 21  1  0
  1 27  1  0
  2 28  1  0
  8 29  1  0
  9 30  1  0
 13 31  1  0
 13 32  1  0
 14 33  1  0
 14 34  1  0
 15 35  1  0
 15 36  1  0
 16 37  1  0
 16 38  1  0
 18 39  1  0
 23 40  1  0
 26 41  1  0
 26 42  1  0
M  ISO  8  27  14  28  14  29  14  30  14  31  13  32  13  33  13  34  13
M  ISO  6  35  13  36  13  37  13  38  13  39  14  40  14
M  END
>  <minimizedAffinity>  (1) 
-6.86596251

>  <minimizedRMSD>  (1) 
0.460244685

$$$$
