
     RDKit          3D

 39 43  0  0  0  0  0  0  0  0999 V2000
   44.6600   36.1630   44.4350 C   0  0  0  0  0  0  0  0  0  0  0  0
   45.4140   36.0490   43.2370 C   0  0  0  0  0  0  0  0  0  0  0  0
   46.2140   34.9260   43.0900 C   0  0  0  0  0  0  0  0  0  0  0  0
   46.2080   34.0360   44.0950 N   0  0  0  0  0  0  0  0  0  0  0  0
   45.5250   34.1190   45.2030 C   0  0  0  0  0  0  0  0  0  0  0  0
   44.7280   35.1980   45.3970 N   0  0  0  0  0  0  0  0  0  0  0  0
   45.7490   33.0100   46.0720 N   0  0  0  0  0  0  0  0  0  0  0  0
   45.2270   32.7350   47.2860 C   0  0  0  0  0  0  0  0  0  0  0  0
   45.8320   31.5780   47.7310 C   0  0  0  0  0  0  0  0  0  0  0  0
   46.6720   31.2360   46.7560 N   0  0  0  0  0  0  0  0  0  0  0  0
   46.6440   32.0900   45.7270 C   0  0  0  0  0  0  0  0  0  0  0  0
   46.9550   34.8280   41.8900 N   0  0  0  0  0  0  0  0  0  0  0  0
   48.1560   35.4360   41.7250 C   0  0  0  0  0  0  0  0  0  0  0  0
   48.6040   35.1700   40.4780 N   0  0  0  0  0  0  0  0  0  0  0  0
   47.6920   34.3910   39.8450 C   0  0  0  0  0  0  0  0  0  0  0  0
   47.6760   33.8530   38.5890 C   0  0  0  0  0  0  0  0  0  0  0  0
   46.5980   33.1030   38.2760 N   0  0  0  0  0  0  0  0  0  0  0  0
   45.5830   32.8890   39.1440 C   0  0  0  0  0  0  0  0  0  0  0  0
   45.6130   33.4340   40.3900 N   0  0  0  0  0  0  0  0  0  0  0  0
   46.6770   34.1930   40.7460 C   0  0  0  0  0  0  0  0  0  0  0  0
   48.7310   34.1010   37.6580 N   0  0  0  0  0  0  0  0  0  0  0  0
   47.5530   31.7320   44.6500 C   0  0  0  0  0  0  0  0  0  0  0  0
   47.7460   30.4030   44.2850 C   0  0  0  0  0  0  0  0  0  0  0  0
   48.5720   29.9280   43.3080 C   0  0  0  0  0  0  0  0  0  0  0  0
   49.3050   30.8270   42.5900 C   0  0  0  0  0  0  0  0  0  0  0  0
   49.1390   32.1380   42.9210 C   0  0  0  0  0  0  0  0  0  0  0  0
   48.3100   32.4300   43.8810 N   0  0  0  0  0  0  0  0  0  0  0  0
   44.0136   37.0396   44.5891 H   0  0  0  0  0  0  0  0  0  0  0  0
   45.3653   36.8218   42.4557 H   0  0  0  0  0  0  0  0  0  0  0  0
   44.4644   33.3218   47.8190 H   0  0  0  0  0  0  0  0  0  0  0  0
   45.6587   31.0533   48.6821 H   0  0  0  0  0  0  0  0  0  0  0  0
   48.6777   36.0434   42.4792 H   0  0  0  0  0  0  0  0  0  0  0  0
   44.7265   32.2694   38.8399 H   0  0  0  0  0  0  0  0  0  0  0  0
   48.6960   33.6839   36.7169 H   0  0  0  0  0  0  0  0  0  0  0  0
   49.5266   34.6969   37.9279 H   0  0  0  0  0  0  0  0  0  0  0  0
   47.1692   29.6527   44.8458 H   0  0  0  0  0  0  0  0  0  0  0  0
   48.6448   28.8494   43.1049 H   0  0  0  0  0  0  0  0  0  0  0  0
   49.9907   30.5115   41.7898 H   0  0  0  0  0  0  0  0  0  0  0  0
   49.6907   32.9285   42.3912 H   0  0  0  0  0  0  0  0  0  0  0  0
  1  6  2  0
  2  1  1  0
  3  2  2  0
  3  4  1  0
  4  5  2  0
  5  6  1  0
  5  7  1  0
  7  8  1  0
  8  9  2  0
 10  9  1  0
 11  7  1  0
 11 10  2  0
 12  3  1  0
 13 12  1  0
 14 13  2  0
 15 14  1  0
 15 20  2  0
 16 15  1  0
 17 16  2  0
 17 18  1  0
 18 19  2  0
 19 20  1  0
 20 12  1  0
 21 16  1  0
 22 11  1  0
 23 22  2  0
 24 23  1  0
 25 26  1  0
 25 24  2  0
 26 27  2  0
 27 22  1  0
  1 28  1  0
  2 29  1  0
  8 30  1  0
  9 31  1  0
 13 32  1  0
 18 33  1  0
 21 34  1  0
 21 35  1  0
 23 36  1  0
 24 37  1  0
 25 38  1  0
 26 39  1  0
M  ISO  8  28  14  29  14  30  14  31  14  32  14  33  14  36  14  37  14
M  ISO  2  38  14  39  14
M  END
>  <minimizedAffinity>  (1) 
-6.55325556

>  <minimizedRMSD>  (1) 
0.429052263

$$$$
