
     RDKit          3D

 27 28  0  0  1  0  0  0  0  0999 V2000
   48.0480   34.4470   41.6410 C   0  0  2  0  0  0  0  0  0  0  0  0
   45.1020   35.3950   43.8110 C   0  0  0  0  0  0  0  0  0  0  0  0
   45.9910   35.4100   42.7120 C   0  0  0  0  0  0  0  0  0  0  0  0
   47.0740   34.5000   42.7400 C   0  0  0  0  0  0  0  0  0  0  0  0
   47.1850   33.6760   43.8190 N   0  0  0  0  0  0  0  0  0  0  0  0
   46.3190   33.6870   44.8500 C   0  0  0  0  0  0  0  0  0  0  0  0
   45.2760   34.5450   44.8500 N   0  0  0  0  0  0  0  0  0  0  0  0
   48.8460   35.7390   41.6860 C   0  0  0  0  0  0  0  0  0  0  0  0
   47.3600   34.3400   40.2950 C   0  0  0  0  0  0  0  0  0  0  0  0
   48.1640   33.6310   39.3030 C   0  0  0  0  0  0  0  0  0  0  0  0
   48.1460   34.2180   38.0380 C   0  0  0  0  0  0  0  0  0  0  0  0
   48.8710   33.6500   36.9850 C   0  0  0  0  0  0  0  0  0  0  0  0
   49.5750   32.5330   37.2330 N   0  0  0  0  0  0  0  0  0  0  0  0
   49.5860   31.9730   38.4600 C   0  0  0  0  0  0  0  0  0  0  0  0
   48.8920   32.5030   39.5010 N   0  0  0  0  0  0  0  0  0  0  0  0
   48.6898   33.5618   41.7611 H   0  0  0  0  0  0  0  0  0  0  0  0
   44.2494   36.0899   43.8221 H   0  0  0  0  0  0  0  0  0  0  0  0
   45.8465   36.1015   41.8688 H   0  0  0  0  0  0  0  0  0  0  0  0
   46.4613   32.9959   45.6939 H   0  0  0  0  0  0  0  0  0  0  0  0
   49.0225   36.0247   42.7335 H   0  0  0  0  0  0  0  0  0  0  0  0
   49.8108   35.5919   41.1785 H   0  0  0  0  0  0  0  0  0  0  0  0
   48.2825   36.5359   41.1785 H   0  0  0  0  0  0  0  0  0  0  0  0
   46.4102   33.8012   40.4277 H   0  0  0  0  0  0  0  0  0  0  0  0
   47.2006   35.3626   39.9224 H   0  0  0  0  0  0  0  0  0  0  0  0
   47.5587   35.1323   37.8674 H   0  0  0  0  0  0  0  0  0  0  0  0
   48.8648   34.1046   35.9834 H   0  0  0  0  0  0  0  0  0  0  0  0
   50.1753   31.0586   38.6230 H   0  0  0  0  0  0  0  0  0  0  0  0
  1  8  1  0
  1  4  1  0
  2  7  2  0
  3  4  2  0
  3  2  1  0
  4  5  1  0
  5  6  2  0
  7  6  1  0
  9  1  1  0
 10 15  1  0
 10  9  1  0
 11 10  2  0
 12 13  2  0
 12 11  1  0
 13 14  1  0
 14 15  2  0
  1 16  1  1
  2 17  1  0
  3 18  1  0
  6 19  1  0
  8 20  1  0
  8 21  1  0
  8 22  1  0
  9 23  1  0
  9 24  1  0
 11 25  1  0
 12 26  1  0
 14 27  1  0
M  ISO  8  16   8  17  14  18  14  19  14  20   8  21   8  22   8  23   8
M  ISO  4  24   8  25  14  26  14  27  14
M  END
>  <minimizedAffinity>  (1) 
-4.53240252

>  <minimizedRMSD>  (1) 
3.66942358

$$$$
