
     RDKit          3D

 48 51  0  0  1  0  0  0  0  0999 V2000
   43.6470   34.6070   41.8450 C   0  0  0  0  0  0  0  0  0  0  0  0
   44.3130   33.5310   42.4540 C   0  0  0  0  0  0  0  0  0  0  0  0
   45.3700   33.8220   43.3360 C   0  0  0  0  0  0  0  0  0  0  0  0
   45.7000   35.1010   43.5570 N   0  0  0  0  0  0  0  0  0  0  0  0
   45.0720   36.1210   42.9780 C   0  0  0  0  0  0  0  0  0  0  0  0
   44.0650   35.8630   42.1400 N   0  0  0  0  0  0  0  0  0  0  0  0
   42.5790   34.4890   40.9190 C   0  0  0  0  0  0  0  0  0  0  0  0
   41.4460   35.5260   41.2300 C   0  0  0  0  0  0  0  0  0  0  0  0
   40.6410   35.3900   39.9140 C   0  0  0  0  0  0  0  0  0  0  0  0
   41.6550   35.0640   38.8670 C   0  0  0  0  0  0  0  0  0  0  0  0
   42.9920   35.0500   39.5830 C   0  0  0  0  0  0  0  0  0  0  0  0
   43.9270   32.1530   42.1680 C   0  0  1  0  0  0  0  0  0  0  0  0
   42.5110   32.0200   41.7150 C   0  0  0  0  0  0  0  0  0  0  0  0
   44.9270   31.4950   41.3140 C   0  0  0  0  0  0  0  0  0  0  0  0
   44.9980   31.9130   39.9060 C   0  0  0  0  0  0  0  0  0  0  0  0
   43.9740   31.5380   39.0160 C   0  0  0  0  0  0  0  0  0  0  0  0
   43.9150   31.8580   37.6760 C   0  0  0  0  0  0  0  0  0  0  0  0
   44.9360   32.6100   37.1410 C   0  0  0  0  0  0  0  0  0  0  0  0
   45.9760   33.0150   37.9480 C   0  0  0  0  0  0  0  0  0  0  0  0
   47.0100   33.7680   37.4320 C   0  0  0  0  0  0  0  0  0  0  0  0
   48.0630   34.1850   38.2210 C   0  0  0  0  0  0  0  0  0  0  0  0
   48.0470   33.8190   39.5660 C   0  0  0  0  0  0  0  0  0  0  0  0
   47.0010   33.0660   40.0540 C   0  0  0  0  0  0  0  0  0  0  0  0
   45.9480   32.6470   39.2740 C   0  0  0  0  0  0  0  0  0  0  0  0
   45.9177   33.0102   43.8371 H   0  0  0  0  0  0  0  0  0  0  0  0
   45.3766   37.1574   43.1857 H   0  0  0  0  0  0  0  0  0  0  0  0
   42.2903   33.4281   40.9526 H   0  0  0  0  0  0  0  0  0  0  0  0
   40.8522   35.2392   42.1104 H   0  0  0  0  0  0  0  0  0  0  0  0
   41.7847   36.5424   41.4794 H   0  0  0  0  0  0  0  0  0  0  0  0
   39.8991   34.5822   39.9973 H   0  0  0  0  0  0  0  0  0  0  0  0
   40.0843   36.3083   39.6756 H   0  0  0  0  0  0  0  0  0  0  0  0
   41.6507   35.8294   38.0770 H   0  0  0  0  0  0  0  0  0  0  0  0
   41.4433   34.0996   38.3822 H   0  0  0  0  0  0  0  0  0  0  0  0
   43.7183   34.3982   39.0753 H   0  0  0  0  0  0  0  0  0  0  0  0
   43.4978   36.0257   39.6309 H   0  0  0  0  0  0  0  0  0  0  0  0
   43.9326   31.5924   43.1144 H   0  0  0  0  0  0  0  0  0  0  0  0
   41.8498   31.9579   42.5919 H   0  0  0  0  0  0  0  0  0  0  0  0
   42.2359   32.8963   41.1096 H   0  0  0  0  0  0  0  0  0  0  0  0
   42.4038   31.1078   41.1096 H   0  0  0  0  0  0  0  0  0  0  0  0
   45.9147   31.6780   41.7622 H   0  0  0  0  0  0  0  0  0  0  0  0
   44.6146   30.4409   41.2779 H   0  0  0  0  0  0  0  0  0  0  0  0
   43.1485   30.9371   39.4253 H   0  0  0  0  0  0  0  0  0  0  0  0
   43.0745   31.5213   37.0514 H   0  0  0  0  0  0  0  0  0  0  0  0
   44.9215   32.8857   36.0762 H   0  0  0  0  0  0  0  0  0  0  0  0
   46.9951   34.0426   36.3669 H   0  0  0  0  0  0  0  0  0  0  0  0
   48.8853   34.7846   37.8034 H   0  0  0  0  0  0  0  0  0  0  0  0
   48.8642   34.1293   40.2337 H   0  0  0  0  0  0  0  0  0  0  0  0
   47.0084   32.7867   41.1179 H   0  0  0  0  0  0  0  0  0  0  0  0
  1  6  2  0
  1  2  1  0
  2  3  2  0
  3  4  1  0
  5  4  2  0
  6  5  1  0
  7  8  1  0
  7  1  1  0
  9  8  1  0
 10 11  1  0
 10  9  1  0
 11  7  1  0
 12  2  1  0
 13 12  1  0
 14 12  1  0
 15 14  1  0
 16 15  2  0
 17 16  1  0
 18 17  2  0
 18 19  1  0
 19 24  2  0
 20 19  1  0
 20 21  2  0
 21 22  1  0
 22 23  2  0
 24 15  1  0
 24 23  1  0
  3 25  1  0
  5 26  1  0
  7 27  1  0
  8 28  1  0
  8 29  1  0
  9 30  1  0
  9 31  1  0
 10 32  1  0
 10 33  1  0
 11 34  1  0
 11 35  1  0
 12 36  1  1
 13 37  1  0
 13 38  1  0
 13 39  1  0
 14 40  1  0
 14 41  1  0
 16 42  1  0
 17 43  1  0
 18 44  1  0
 20 45  1  0
 21 46  1  0
 22 47  1  0
 23 48  1  0
M  ISO  8  25  14  26  14  27  13  28  13  29  13  30  13  31  13  32  13
M  ISO  8  33  13  34  13  35  13  36   8  37   8  38   8  39   8  40   8
M  ISO  8  41   8  42  14  43  14  44  14  45  14  46  14  47  14  48  14
M  END
>  <minimizedAffinity>  (1) 
-4.9330225

>  <minimizedRMSD>  (1) 
5.02152157

$$$$
