
     RDKit          3D

 30 31  0  0  1  0  0  0  0  0999 V2000
   46.8810   34.1920   42.1330 C   0  0  2  0  0  0  0  0  0  0  0  0
   44.5940   35.7580   44.6870 C   0  0  0  0  0  0  0  0  0  0  0  0
   45.2570   35.5770   43.4500 C   0  0  0  0  0  0  0  0  0  0  0  0
   46.1380   34.4670   43.3740 C   0  0  0  0  0  0  0  0  0  0  0  0
   46.2740   33.6740   44.4770 N   0  0  0  0  0  0  0  0  0  0  0  0
   45.6170   33.8930   45.6300 C   0  0  0  0  0  0  0  0  0  0  0  0
   44.7720   34.9380   45.7390 N   0  0  0  0  0  0  0  0  0  0  0  0
   47.8090   35.3730   41.8860 C   0  0  0  0  0  0  0  0  0  0  0  0
   45.9400   33.9910   40.9630 C   0  0  0  0  0  0  0  0  0  0  0  0
   46.6080   33.8470   39.6980 N   0  0  0  0  0  0  0  0  0  0  0  0
   47.8850   34.2100   39.4700 C   0  0  0  0  0  0  0  0  0  0  0  0
   48.3980   34.0120   38.1970 C   0  0  0  0  0  0  0  0  0  0  0  0
   47.6520   33.4620   37.1700 C   0  0  0  0  0  0  0  0  0  0  0  0
   48.1900   33.2600   35.8570 N   0  0  0  0  0  0  0  0  0  0  0  0
   46.3760   33.1210   37.4770 N   0  0  0  0  0  0  0  0  0  0  0  0
   45.8680   33.3100   38.7100 C   0  0  0  0  0  0  0  0  0  0  0  0
   44.6550   32.9300   38.8100 O   0  0  0  0  0  0  0  0  0  0  0  0
   47.4594   33.2620   42.2358 H   0  0  0  0  0  0  0  0  0  0  0  0
   43.9024   36.6067   44.7933 H   0  0  0  0  0  0  0  0  0  0  0  0
   45.0991   36.2556   42.5988 H   0  0  0  0  0  0  0  0  0  0  0  0
   45.7693   33.2185   46.4854 H   0  0  0  0  0  0  0  0  0  0  0  0
   48.1365   35.7898   42.8498 H   0  0  0  0  0  0  0  0  0  0  0  0
   48.6868   35.0364   41.3148 H   0  0  0  0  0  0  0  0  0  0  0  0
   47.2743   36.1462   41.3148 H   0  0  0  0  0  0  0  0  0  0  0  0
   45.3470   33.0830   41.1472 H   0  0  0  0  0  0  0  0  0  0  0  0
   45.3168   34.8949   40.8947 H   0  0  0  0  0  0  0  0  0  0  0  0
   48.5012   34.6495   40.2682 H   0  0  0  0  0  0  0  0  0  0  0  0
   49.4393   34.3038   37.9958 H   0  0  0  0  0  0  0  0  0  0  0  0
   49.1630   33.5286   35.6522 H   0  0  0  0  0  0  0  0  0  0  0  0
   47.6036   32.8462   35.1182 H   0  0  0  0  0  0  0  0  0  0  0  0
  1  4  1  0
  2  7  2  0
  3  2  1  0
  4  3  2  0
  4  5  1  0
  5  6  2  0
  6  7  1  0
  8  1  1  0
  9  1  1  0
 10  9  1  0
 11 10  1  0
 12 11  2  0
 13 15  2  0
 13 12  1  0
 14 13  1  0
 15 16  1  0
 16 17  2  0
 16 10  1  0
  1 18  1  1
  2 19  1  0
  3 20  1  0
  6 21  1  0
  8 22  1  0
  8 23  1  0
  8 24  1  0
  9 25  1  0
  9 26  1  0
 11 27  1  0
 12 28  1  0
 14 29  1  0
 14 30  1  0
M  ISO  8  18   8  19  14  20  14  21  14  22   8  23   8  24   8  25   8
M  ISO  3  26   8  27  14  28  14
M  END
>  <minimizedAffinity>  (1) 
-4.83147335

>  <minimizedRMSD>  (1) 
0.496162236

$$$$
