
     RDKit          3D

 28 29  0  0  1  0  0  0  0  0999 V2000
   47.1410   33.7210   42.5000 C   0  0  2  0  0  0  0  0  0  0  0  0
   44.6940   36.0510   44.1620 C   0  0  0  0  0  0  0  0  0  0  0  0
   45.5450   35.5030   43.1770 C   0  0  0  0  0  0  0  0  0  0  0  0
   46.2500   34.3160   43.5000 C   0  0  0  0  0  0  0  0  0  0  0  0
   46.0690   33.7810   44.7210 N   0  0  0  0  0  0  0  0  0  0  0  0
   45.2410   34.3410   45.6440 C   0  0  0  0  0  0  0  0  0  0  0  0
   44.5620   35.4610   45.3660 N   0  0  0  0  0  0  0  0  0  0  0  0
   48.3250   33.1200   43.2010 C   0  0  0  0  0  0  0  0  0  0  0  0
   47.5990   34.7200   41.4540 C   0  0  0  0  0  0  0  0  0  0  0  0
   47.3720   34.2210   40.0740 C   0  0  0  0  0  0  0  0  0  0  0  0
   46.3940   33.3910   39.5740 C   0  0  0  0  0  0  0  0  0  0  0  0
   46.4040   33.0750   38.2310 C   0  0  0  0  0  0  0  0  0  0  0  0
   47.3450   33.5490   37.3620 C   0  0  0  0  0  0  0  0  0  0  0  0
   48.3100   34.3750   37.8940 C   0  0  0  0  0  0  0  0  0  0  0  0
   48.3110   34.6910   39.2010 N   0  0  0  0  0  0  0  0  0  0  0  0
   46.5769   32.9445   41.9625 H   0  0  0  0  0  0  0  0  0  0  0  0
   44.1320   36.9710   43.9434 H   0  0  0  0  0  0  0  0  0  0  0  0
   45.6570   35.9809   42.1926 H   0  0  0  0  0  0  0  0  0  0  0  0
   45.1280   33.8679   46.6306 H   0  0  0  0  0  0  0  0  0  0  0  0
   48.1824   33.1924   44.2893 H   0  0  0  0  0  0  0  0  0  0  0  0
   48.4235   32.0628   42.9136 H   0  0  0  0  0  0  0  0  0  0  0  0
   49.2365   33.6645   42.9136 H   0  0  0  0  0  0  0  0  0  0  0  0
   47.0402   35.6578   41.5893 H   0  0  0  0  0  0  0  0  0  0  0  0
   48.6795   34.8793   41.5852 H   0  0  0  0  0  0  0  0  0  0  0  0
   45.6151   32.9852   40.2363 H   0  0  0  0  0  0  0  0  0  0  0  0
   45.6180   32.4108   37.8423 H   0  0  0  0  0  0  0  0  0  0  0  0
   47.3327   33.2851   36.2942 H   0  0  0  0  0  0  0  0  0  0  0  0
   49.0934   34.7833   37.2385 H   0  0  0  0  0  0  0  0  0  0  0  0
  1  8  1  0
  1  4  1  0
  2  7  2  0
  3  4  2  0
  3  2  1  0
  4  5  1  0
  5  6  2  0
  7  6  1  0
  9  1  1  0
 10  9  1  0
 11 10  2  0
 12 11  1  0
 13 14  1  0
 13 12  2  0
 14 15  2  0
 15 10  1  0
  1 16  1  6
  2 17  1  0
  3 18  1  0
  6 19  1  0
  8 20  1  0
  8 21  1  0
  8 22  1  0
  9 23  1  0
  9 24  1  0
 11 25  1  0
 12 26  1  0
 13 27  1  0
 14 28  1  0
M  ISO  8  16   8  17  14  18  14  19  14  20   8  21   8  22   8  23   8
M  ISO  5  24   8  25  14  26  14  27  14  28  14
M  END
>  <minimizedAffinity>  (1) 
-4.50843906

>  <minimizedRMSD>  (1) 
3.0902195

$$$$
