
     RDKit          3D

 29 30  0  0  1  0  0  0  0  0999 V2000
   47.1480   33.7990   42.5300 C   0  0  2  0  0  0  0  0  0  0  0  0
   44.6240   35.6970   44.6300 C   0  0  0  0  0  0  0  0  0  0  0  0
   45.4190   35.3500   43.5110 C   0  0  0  0  0  0  0  0  0  0  0  0
   46.2760   34.2370   43.6490 C   0  0  0  0  0  0  0  0  0  0  0  0
   46.2730   33.5820   44.8480 N   0  0  0  0  0  0  0  0  0  0  0  0
   45.5120   33.9280   45.8940 C   0  0  0  0  0  0  0  0  0  0  0  0
   44.6840   34.9920   45.7830 N   0  0  0  0  0  0  0  0  0  0  0  0
   48.5720   33.7690   43.0700 C   0  0  0  0  0  0  0  0  0  0  0  0
   47.0470   34.7710   41.3740 C   0  0  0  0  0  0  0  0  0  0  0  0
   46.9980   34.1580   40.0880 N   0  0  0  0  0  0  0  0  0  0  0  0
   48.1430   34.3630   39.3720 C   0  0  0  0  0  0  0  0  0  0  0  0
   48.2890   33.8420   38.0810 C   0  0  0  0  0  0  0  0  0  0  0  0
   47.2170   33.1240   37.5930 C   0  0  0  0  0  0  0  0  0  0  0  0
   47.3130   32.6410   36.4350 O   0  0  0  0  0  0  0  0  0  0  0  0
   46.0880   32.9210   38.2950 N   0  0  0  0  0  0  0  0  0  0  0  0
   46.0060   33.4460   39.5300 C   0  0  0  0  0  0  0  0  0  0  0  0
   44.9890   33.2980   40.2420 O   0  0  0  0  0  0  0  0  0  0  0  0
   46.8450   32.8090   42.1583 H   0  0  0  0  0  0  0  0  0  0  0  0
   43.9431   36.5581   44.5604 H   0  0  0  0  0  0  0  0  0  0  0  0
   45.3708   35.9236   42.5736 H   0  0  0  0  0  0  0  0  0  0  0  0
   45.5595   33.3545   46.8314 H   0  0  0  0  0  0  0  0  0  0  0  0
   48.5472   33.7695   44.1697 H   0  0  0  0  0  0  0  0  0  0  0  0
   49.0796   32.8600   42.7151 H   0  0  0  0  0  0  0  0  0  0  0  0
   49.1175   34.6559   42.7151 H   0  0  0  0  0  0  0  0  0  0  0  0
   46.1319   35.3671   41.5054 H   0  0  0  0  0  0  0  0  0  0  0  0
   47.9635   35.3789   41.3958 H   0  0  0  0  0  0  0  0  0  0  0  0
   48.9628   34.9463   39.8166 H   0  0  0  0  0  0  0  0  0  0  0  0
   49.2043   33.9960   37.4906 H   0  0  0  0  0  0  0  0  0  0  0  0
   45.3079   32.3784   37.8976 H   0  0  0  0  0  0  0  0  0  0  0  0
  1  8  1  0
  1  4  1  0
  2  7  2  0
  3  4  2  0
  3  2  1  0
  4  5  1  0
  5  6  2  0
  7  6  1  0
  9  1  1  0
 10  9  1  0
 11 10  1  0
 12 11  2  0
 13 12  1  0
 13 15  1  0
 14 13  2  0
 15 16  1  0
 16 10  1  0
 16 17  2  0
  1 18  1  6
  2 19  1  0
  3 20  1  0
  6 21  1  0
  8 22  1  0
  8 23  1  0
  8 24  1  0
  9 25  1  0
  9 26  1  0
 11 27  1  0
 12 28  1  0
 15 29  1  0
M  ISO  8  18   8  19  14  20  14  21  14  22   8  23   8  24   8  25   8
M  ISO  4  26   8  27  14  28  14  29   9
M  END
>  <minimizedAffinity>  (1) 
-4.43992233

>  <minimizedRMSD>  (1) 
1.14912772

$$$$
