
     RDKit          3D

 26 27  0  0  1  0  0  0  0  0999 V2000
   47.5410   34.2930   41.7730 C   0  0  2  0  0  0  0  0  0  0  0  0
   44.8450   35.7810   43.9800 C   0  0  0  0  0  0  0  0  0  0  0  0
   45.6980   35.5870   42.8760 C   0  0  0  0  0  0  0  0  0  0  0  0
   46.6290   34.5330   42.8970 C   0  0  0  0  0  0  0  0  0  0  0  0
   46.6400   33.7610   44.0000 N   0  0  0  0  0  0  0  0  0  0  0  0
   45.8310   33.9400   45.0550 C   0  0  0  0  0  0  0  0  0  0  0  0
   44.9340   34.9420   45.0540 N   0  0  0  0  0  0  0  0  0  0  0  0
   48.4750   35.4930   41.6890 C   0  0  0  0  0  0  0  0  0  0  0  0
   46.7800   34.1680   40.4500 C   0  0  0  0  0  0  0  0  0  0  0  0
   47.6770   33.7420   39.3610 C   0  0  0  0  0  0  0  0  0  0  0  0
   48.5540   32.6810   39.2380 C   0  0  0  0  0  0  0  0  0  0  0  0
   49.1720   32.6940   38.0390 N   0  0  0  0  0  0  0  0  0  0  0  0
   48.7060   33.7700   37.3610 C   0  0  0  0  0  0  0  0  0  0  0  0
   47.8180   34.3790   38.1640 N   0  0  0  0  0  0  0  0  0  0  0  0
   48.0872   33.3526   41.9384 H   0  0  0  0  0  0  0  0  0  0  0  0
   44.1128   36.6019   43.9772 H   0  0  0  0  0  0  0  0  0  0  0  0
   45.6365   36.2548   42.0040 H   0  0  0  0  0  0  0  0  0  0  0  0
   45.9014   33.2665   45.9218 H   0  0  0  0  0  0  0  0  0  0  0  0
   48.7350   35.8270   42.7043 H   0  0  0  0  0  0  0  0  0  0  0  0
   49.3911   35.2077   41.1510 H   0  0  0  0  0  0  0  0  0  0  0  0
   47.9735   36.3110   41.1510 H   0  0  0  0  0  0  0  0  0  0  0  0
   45.9773   33.4249   40.5659 H   0  0  0  0  0  0  0  0  0  0  0  0
   46.3611   35.1522   40.1932 H   0  0  0  0  0  0  0  0  0  0  0  0
   48.7259   31.9238   40.0171 H   0  0  0  0  0  0  0  0  0  0  0  0
   48.9983   34.0844   36.3482 H   0  0  0  0  0  0  0  0  0  0  0  0
   47.3016   35.2316   37.9045 H   0  0  0  0  0  0  0  0  0  0  0  0
  1  4  1  0
  2  7  2  0
  3  4  2  0
  3  2  1  0
  4  5  1  0
  5  6  2  0
  7  6  1  0
  8  1  1  0
  9  1  1  0
 10  9  1  0
 11 10  2  0
 12 11  1  0
 13 12  2  0
 13 14  1  0
 14 10  1  0
  1 15  1  1
  2 16  1  0
  3 17  1  0
  6 18  1  0
  8 19  1  0
  8 20  1  0
  8 21  1  0
  9 22  1  0
  9 23  1  0
 11 24  1  0
 13 25  1  0
 14 26  1  0
M  ISO  8  15   8  16  14  17  14  18  14  19   8  20   8  21   8  22   8
M  ISO  4  23   8  24  14  25  14  26   9
M  END
>  <minimizedAffinity>  (1) 
-4.35393858

>  <minimizedRMSD>  (1) 
3.10661006

$$$$
