
     RDKit          3D

 35 36  0  0  1  0  0  0  0  0999 V2000
   47.1630   33.8530   42.5420 C   0  0  2  0  0  0  0  0  0  0  0  0
   44.6210   35.7450   44.5890 C   0  0  0  0  0  0  0  0  0  0  0  0
   45.4450   35.3770   43.5010 C   0  0  0  0  0  0  0  0  0  0  0  0
   46.3000   34.2580   43.6580 C   0  0  0  0  0  0  0  0  0  0  0  0
   46.2870   33.6020   44.8340 N   0  0  0  0  0  0  0  0  0  0  0  0
   45.4790   33.9860   45.8610 C   0  0  0  0  0  0  0  0  0  0  0  0
   44.6560   35.0380   45.7500 N   0  0  0  0  0  0  0  0  0  0  0  0
   48.5900   33.7740   43.0370 C   0  0  0  0  0  0  0  0  0  0  0  0
   47.0600   34.7800   41.3590 C   0  0  0  0  0  0  0  0  0  0  0  0
   47.1930   34.1600   40.0240 C   0  0  0  0  0  0  0  0  0  0  0  0
   48.4430   34.6340   39.3120 C   0  0  0  0  0  0  0  0  0  0  0  0
   48.2780   34.3580   37.8460 C   0  0  0  0  0  0  0  0  0  0  0  0
   47.0780   33.5100   37.5380 C   0  0  0  0  0  0  0  0  0  0  0  0
   46.8840   32.3440   38.4430 C   0  0  0  0  0  0  0  0  0  0  0  0
   47.0330   32.6860   39.9260 C   0  0  0  0  0  0  0  0  0  0  0  0
   46.8259   32.8679   42.1870 H   0  0  0  0  0  0  0  0  0  0  0  0
   43.9469   36.6092   44.4958 H   0  0  0  0  0  0  0  0  0  0  0  0
   45.4231   35.9437   42.5585 H   0  0  0  0  0  0  0  0  0  0  0  0
   45.5024   33.4195   46.8036 H   0  0  0  0  0  0  0  0  0  0  0  0
   48.5970   33.7736   44.1370 H   0  0  0  0  0  0  0  0  0  0  0  0
   49.0557   32.8487   42.6670 H   0  0  0  0  0  0  0  0  0  0  0  0
   49.1550   34.6422   42.6670 H   0  0  0  0  0  0  0  0  0  0  0  0
   46.0767   35.2710   41.4034 H   0  0  0  0  0  0  0  0  0  0  0  0
   47.9160   35.4649   41.4494 H   0  0  0  0  0  0  0  0  0  0  0  0
   46.2988   34.5298   39.5008 H   0  0  0  0  0  0  0  0  0  0  0  0
   48.5784   35.7134   39.4752 H   0  0  0  0  0  0  0  0  0  0  0  0
   49.3264   34.1071   39.7018 H   0  0  0  0  0  0  0  0  0  0  0  0
   48.1732   35.3177   37.3187 H   0  0  0  0  0  0  0  0  0  0  0  0
   49.1670   33.8011   37.5149 H   0  0  0  0  0  0  0  0  0  0  0  0
   46.1836   34.1468   37.6050 H   0  0  0  0  0  0  0  0  0  0  0  0
   47.2438   33.0953   36.5327 H   0  0  0  0  0  0  0  0  0  0  0  0
   45.8735   31.9415   38.2792 H   0  0  0  0  0  0  0  0  0  0  0  0
   47.6706   31.6143   38.2006 H   0  0  0  0  0  0  0  0  0  0  0  0
   46.1367   32.3668   40.4781 H   0  0  0  0  0  0  0  0  0  0  0  0
   47.9019   32.1696   40.3600 H   0  0  0  0  0  0  0  0  0  0  0  0
  1  8  1  0
  1  4  1  0
  2  7  2  0
  3  4  2  0
  3  2  1  0
  4  5  1  0
  5  6  2  0
  7  6  1  0
  9  1  1  0
 10  9  1  0
 11 10  1  0
 12 11  1  0
 13 12  1  0
 13 14  1  0
 14 15  1  0
 15 10  1  0
  1 16  1  6
  2 17  1  0
  3 18  1  0
  6 19  1  0
  8 20  1  0
  8 21  1  0
  8 22  1  0
  9 23  1  0
  9 24  1  0
 10 25  1  0
 11 26  1  0
 11 27  1  0
 12 28  1  0
 12 29  1  0
 13 30  1  0
 13 31  1  0
 14 32  1  0
 14 33  1  0
 15 34  1  0
 15 35  1  0
M  ISO  8  16   8  17  14  18  14  19  14  20   8  21   8  22   8  23   8
M  ISO  8  24   8  25  13  26  13  27  13  28  13  29  13  30  13  31  13
M  ISO  4  32  13  33  13  34  13  35  13
M  END
>  <minimizedAffinity>  (1) 
-4.49621058

>  <minimizedRMSD>  (1) 
2.83746076

$$$$
