
     RDKit          3D

 26 27  0  0  1  0  0  0  0  0999 V2000
   47.5640   34.3970   42.0180 C   0  0  2  0  0  0  0  0  0  0  0  0
   44.7570   36.0080   43.9900 C   0  0  0  0  0  0  0  0  0  0  0  0
   45.6800   35.7890   42.9460 C   0  0  0  0  0  0  0  0  0  0  0  0
   46.5590   34.6950   43.0690 C   0  0  0  0  0  0  0  0  0  0  0  0
   46.4510   33.9330   44.1810 N   0  0  0  0  0  0  0  0  0  0  0  0
   45.5690   34.1520   45.1660 C   0  0  0  0  0  0  0  0  0  0  0  0
   44.7260   35.1820   45.0750 N   0  0  0  0  0  0  0  0  0  0  0  0
   48.4930   35.6020   41.9600 C   0  0  0  0  0  0  0  0  0  0  0  0
   46.9040   34.1940   40.6700 C   0  0  0  0  0  0  0  0  0  0  0  0
   47.8430   34.2070   39.5190 C   0  0  0  0  0  0  0  0  0  0  0  0
   47.2750   33.4920   38.2840 C   0  0  0  0  0  0  0  0  0  0  0  0
   48.5060   33.0230   38.9660 C   0  0  0  0  0  0  0  0  0  0  0  0
   48.1069   33.4703   42.2557 H   0  0  0  0  0  0  0  0  0  0  0  0
   44.0555   36.8530   43.9285 H   0  0  0  0  0  0  0  0  0  0  0  0
   45.7123   36.4492   42.0668 H   0  0  0  0  0  0  0  0  0  0  0  0
   45.5404   33.4879   46.0424 H   0  0  0  0  0  0  0  0  0  0  0  0
   48.7408   35.9235   42.9824 H   0  0  0  0  0  0  0  0  0  0  0  0
   49.4160   35.3282   41.4279 H   0  0  0  0  0  0  0  0  0  0  0  0
   47.9934   36.4249   41.4279 H   0  0  0  0  0  0  0  0  0  0  0  0
   46.3882   33.2225   40.6823 H   0  0  0  0  0  0  0  0  0  0  0  0
   46.2182   35.0418   40.5253 H   0  0  0  0  0  0  0  0  0  0  0  0
   48.2590   35.1777   39.8268 H   0  0  0  0  0  0  0  0  0  0  0  0
   47.3351   33.9642   37.2923 H   0  0  0  0  0  0  0  0  0  0  0  0
   46.3088   33.0463   38.0049 H   0  0  0  0  0  0  0  0  0  0  0  0
   48.4873   32.0784   39.5294 H   0  0  0  0  0  0  0  0  0  0  0  0
   49.5312   32.8135   38.6269 H   0  0  0  0  0  0  0  0  0  0  0  0
  1  4  1  0
  2  7  2  0
  3  4  2  0
  3  2  1  0
  4  5  1  0
  5  6  2  0
  7  6  1  0
  8  1  1  0
  9  1  1  0
 10  9  1  0
 11 12  1  0
 11 10  1  0
 12 10  1  0
  1 13  1  1
  2 14  1  0
  3 15  1  0
  6 16  1  0
  8 17  1  0
  8 18  1  0
  8 19  1  0
  9 20  1  0
  9 21  1  0
 10 22  1  0
 11 23  1  0
 11 24  1  0
 12 25  1  0
 12 26  1  0
M  ISO  8  13   8  14  14  15  14  16  14  17   8  18   8  19   8  20   8
M  ISO  6  21   8  22  13  23  13  24  13  25  13  26  13
M  END
>  <minimizedAffinity>  (1) 
-3.94438386

>  <minimizedRMSD>  (1) 
0.737236261

$$$$
