
     RDKit          3D

 24 25  0  0  1  0  0  0  0  0999 V2000
   47.4750   34.3750   41.8970 C   0  0  2  0  0  0  0  0  0  0  0  0
   44.7740   35.9790   44.0050 C   0  0  0  0  0  0  0  0  0  0  0  0
   45.6450   35.7740   42.9140 C   0  0  0  0  0  0  0  0  0  0  0  0
   46.5230   34.6650   42.9990 C   0  0  0  0  0  0  0  0  0  0  0  0
   46.4800   33.8740   44.1080 N   0  0  0  0  0  0  0  0  0  0  0  0
   45.6170   34.1180   45.1330 C   0  0  0  0  0  0  0  0  0  0  0  0
   44.7730   35.1640   45.0780 N   0  0  0  0  0  0  0  0  0  0  0  0
   48.4490   35.5400   41.8300 C   0  0  0  0  0  0  0  0  0  0  0  0
   46.7480   34.1960   40.5840 C   0  0  0  0  0  0  0  0  0  0  0  0
   47.6770   33.7510   39.5020 C   0  0  0  0  0  0  0  0  0  0  0  0
   48.0780   34.2810   38.3320 N   0  0  0  0  0  0  0  0  0  0  0  0
   48.8960   33.4490   37.8090 O   0  0  0  0  0  0  0  0  0  0  0  0
   49.0610   32.3920   38.5680 C   0  0  0  0  0  0  0  0  0  0  0  0
   48.2790   32.5690   39.6680 N   0  0  0  0  0  0  0  0  0  0  0  0
   48.0120   33.4341   42.0874 H   0  0  0  0  0  0  0  0  0  0  0  0
   44.0757   36.8286   43.9788 H   0  0  0  0  0  0  0  0  0  0  0  0
   45.6426   36.4423   42.0403 H   0  0  0  0  0  0  0  0  0  0  0  0
   45.6101   33.4557   46.0112 H   0  0  0  0  0  0  0  0  0  0  0  0
   48.7133   35.8561   42.8499 H   0  0  0  0  0  0  0  0  0  0  0  0
   49.3583   35.2274   41.2958 H   0  0  0  0  0  0  0  0  0  0  0  0
   47.9802   36.3796   41.2958 H   0  0  0  0  0  0  0  0  0  0  0  0
   45.9594   33.4398   40.7119 H   0  0  0  0  0  0  0  0  0  0  0  0
   46.3166   35.1650   40.2926 H   0  0  0  0  0  0  0  0  0  0  0  0
   49.7077   31.5278   38.3561 H   0  0  0  0  0  0  0  0  0  0  0  0
  1  4  1  0
  2  7  2  0
  3  4  2  0
  3  2  1  0
  4  5  1  0
  5  6  2  0
  7  6  1  0
  8  1  1  0
  9  1  1  0
 10 14  1  0
 10  9  1  0
 11 10  2  0
 12 11  1  0
 12 13  1  0
 13 14  2  0
  1 15  1  1
  2 16  1  0
  3 17  1  0
  6 18  1  0
  8 19  1  0
  8 20  1  0
  8 21  1  0
  9 22  1  0
  9 23  1  0
 13 24  1  0
M  ISO  8  15   8  16  14  17  14  18  14  19   8  20   8  21   8  22   8
M  ISO  2  23   8  24  14
M  END
>  <minimizedAffinity>  (1) 
-4.19083691

>  <minimizedRMSD>  (1) 
0.532930493

$$$$
