
     RDKit          3D

 26 27  0  0  1  0  0  0  0  0999 V2000
   47.5870   34.3480   41.9090 C   0  0  2  0  0  0  0  0  0  0  0  0
   44.8010   35.8120   43.9940 C   0  0  0  0  0  0  0  0  0  0  0  0
   45.6760   35.6590   42.8990 C   0  0  0  0  0  0  0  0  0  0  0  0
   46.6210   34.6050   42.9840 C   0  0  0  0  0  0  0  0  0  0  0  0
   46.6160   33.8240   44.1070 N   0  0  0  0  0  0  0  0  0  0  0  0
   45.7520   34.0170   45.1300 C   0  0  0  0  0  0  0  0  0  0  0  0
   44.8530   35.0010   45.0770 N   0  0  0  0  0  0  0  0  0  0  0  0
   48.4940   35.5710   41.8270 C   0  0  0  0  0  0  0  0  0  0  0  0
   46.8720   34.1720   40.5740 C   0  0  0  0  0  0  0  0  0  0  0  0
   47.7230   33.6660   39.5530 N   0  0  0  0  0  0  0  0  0  0  0  0
   48.4300   32.5420   39.6860 C   0  0  0  0  0  0  0  0  0  0  0  0
   49.1740   32.2670   38.5580 C   0  0  0  0  0  0  0  0  0  0  0  0
   48.9060   33.2820   37.6870 N   0  0  0  0  0  0  0  0  0  0  0  0
   48.0330   34.1010   38.3160 C   0  0  0  0  0  0  0  0  0  0  0  0
   48.1544   33.4294   42.1191 H   0  0  0  0  0  0  0  0  0  0  0  0
   44.0515   36.6167   43.9676 H   0  0  0  0  0  0  0  0  0  0  0  0
   45.6281   36.3233   42.0235 H   0  0  0  0  0  0  0  0  0  0  0  0
   45.7911   33.3588   46.0104 H   0  0  0  0  0  0  0  0  0  0  0  0
   48.7453   35.9099   42.8429 H   0  0  0  0  0  0  0  0  0  0  0  0
   49.4169   35.3077   41.2895 H   0  0  0  0  0  0  0  0  0  0  0  0
   47.9741   36.3777   41.2895 H   0  0  0  0  0  0  0  0  0  0  0  0
   46.0358   33.4710   40.7134 H   0  0  0  0  0  0  0  0  0  0  0  0
   46.5245   35.1648   40.2522 H   0  0  0  0  0  0  0  0  0  0  0  0
   48.4204   31.9109   40.5869 H   0  0  0  0  0  0  0  0  0  0  0  0
   49.8431   31.4093   38.3948 H   0  0  0  0  0  0  0  0  0  0  0  0
   47.6225   35.0182   37.8686 H   0  0  0  0  0  0  0  0  0  0  0  0
  1  4  1  0
  2  7  2  0
  3  4  2  0
  3  2  1  0
  4  5  1  0
  5  6  2  0
  7  6  1  0
  8  1  1  0
  9  1  1  0
 10 11  1  0
 10  9  1  0
 12 11  2  0
 13 14  2  0
 13 12  1  0
 14 10  1  0
  1 15  1  1
  2 16  1  0
  3 17  1  0
  6 18  1  0
  8 19  1  0
  8 20  1  0
  8 21  1  0
  9 22  1  0
  9 23  1  0
 11 24  1  0
 12 25  1  0
 14 26  1  0
M  ISO  8  15   8  16  14  17  14  18  14  19   8  20   8  21   8  22   8
M  ISO  4  23   8  24  14  25  14  26  14
M  END
>  <minimizedAffinity>  (1) 
-4.0698576

>  <minimizedRMSD>  (1) 
3.07924366

$$$$
