
     RDKit          3D

 25 26  0  0  1  0  0  0  0  0999 V2000
   47.2190   34.3400   42.0260 C   0  0  2  0  0  0  0  0  0  0  0  0
   44.6820   35.9860   44.2930 C   0  0  0  0  0  0  0  0  0  0  0  0
   45.4810   35.7670   43.1470 C   0  0  0  0  0  0  0  0  0  0  0  0
   46.3490   34.6470   43.1640 C   0  0  0  0  0  0  0  0  0  0  0  0
   46.3470   33.8680   44.2780 N   0  0  0  0  0  0  0  0  0  0  0  0
   45.5640   34.1130   45.3570 C   0  0  0  0  0  0  0  0  0  0  0  0
   44.7400   35.1620   45.3630 N   0  0  0  0  0  0  0  0  0  0  0  0
   48.2220   35.4770   41.9100 C   0  0  0  0  0  0  0  0  0  0  0  0
   46.4070   34.2140   40.7300 C   0  0  0  0  0  0  0  0  0  0  0  0
   47.3820   33.7490   39.6900 C   0  0  0  0  0  0  0  0  0  0  0  0
   47.8670   32.4950   40.0240 C   0  0  0  0  0  0  0  0  0  0  0  0
   49.0730   32.0570   38.6270 S   0  0  0  0  0  0  0  0  0  0  0  0
   48.6510   33.7370   37.8490 C   0  0  0  0  0  0  0  0  0  0  0  0
   47.9100   34.1710   38.5690 N   0  0  0  0  0  0  0  0  0  0  0  0
   47.7284   33.3780   42.1843 H   0  0  0  0  0  0  0  0  0  0  0  0
   43.9975   36.8468   44.3142 H   0  0  0  0  0  0  0  0  0  0  0  0
   45.4308   36.4389   42.2775 H   0  0  0  0  0  0  0  0  0  0  0  0
   45.6082   33.4451   46.2299 H   0  0  0  0  0  0  0  0  0  0  0  0
   48.5162   35.8105   42.9161 H   0  0  0  0  0  0  0  0  0  0  0  0
   49.1112   35.1274   41.3650 H   0  0  0  0  0  0  0  0  0  0  0  0
   47.7642   36.3157   41.3650 H   0  0  0  0  0  0  0  0  0  0  0  0
   45.5973   33.4797   40.8535 H   0  0  0  0  0  0  0  0  0  0  0  0
   45.9351   35.1673   40.4498 H   0  0  0  0  0  0  0  0  0  0  0  0
   47.6097   31.8878   40.9044 H   0  0  0  0  0  0  0  0  0  0  0  0
   49.0392   34.1769   36.9185 H   0  0  0  0  0  0  0  0  0  0  0  0
  1  4  1  0
  2  7  2  0
  3  4  2  0
  3  2  1  0
  4  5  1  0
  5  6  2  0
  6  7  1  0
  8  1  1  0
  9  1  1  0
 10 11  2  0
 10  9  1  0
 12 11  1  0
 13 14  2  0
 13 12  1  0
 14 10  1  0
  1 15  1  1
  2 16  1  0
  3 17  1  0
  6 18  1  0
  8 19  1  0
  8 20  1  0
  8 21  1  0
  9 22  1  0
  9 23  1  0
 11 24  1  0
 13 25  1  0
M  ISO  8  15   8  16  14  17  14  18  14  19   8  20   8  21   8  22   8
M  ISO  3  23   8  24  14  25  14
M  END
>  <minimizedAffinity>  (1) 
-4.16358089

>  <minimizedRMSD>  (1) 
0.254109561

$$$$
