
     RDKit          3D

 20 20  0  0  1  0  0  0  0  0999 V2000
   47.0940   34.2730   42.0720 C   0  0  2  0  0  0  0  0  0  0  0  0
   44.6420   36.0770   44.3190 C   0  0  0  0  0  0  0  0  0  0  0  0
   45.4260   35.8010   43.1720 C   0  0  0  0  0  0  0  0  0  0  0  0
   46.2360   34.6450   43.2170 C   0  0  0  0  0  0  0  0  0  0  0  0
   46.2100   33.8820   44.3420 N   0  0  0  0  0  0  0  0  0  0  0  0
   45.4470   34.1780   45.4160 C   0  0  0  0  0  0  0  0  0  0  0  0
   44.6660   35.2710   45.4060 N   0  0  0  0  0  0  0  0  0  0  0  0
   48.1460   35.3670   41.9420 C   0  0  0  0  0  0  0  0  0  0  0  0
   46.3030   34.1710   40.7900 C   0  0  0  0  0  0  0  0  0  0  0  0
   45.4450   33.1120   40.7500 O   0  0  0  0  0  0  0  0  0  0  0  0
   47.5466   33.2858   42.2470 H   0  0  0  0  0  0  0  0  0  0  0  0
   43.9977   36.9685   44.3265 H   0  0  0  0  0  0  0  0  0  0  0  0
   45.4049   36.4558   42.2884 H   0  0  0  0  0  0  0  0  0  0  0  0
   45.4649   33.5235   46.3000 H   0  0  0  0  0  0  0  0  0  0  0  0
   48.4606   35.6941   42.9440 H   0  0  0  0  0  0  0  0  0  0  0  0
   49.0159   34.9759   41.3941 H   0  0  0  0  0  0  0  0  0  0  0  0
   47.7212   36.2210   41.3941 H   0  0  0  0  0  0  0  0  0  0  0  0
   45.7180   35.0948   40.6702 H   0  0  0  0  0  0  0  0  0  0  0  0
   47.0304   34.0218   39.9785 H   0  0  0  0  0  0  0  0  0  0  0  0
   45.2201   32.8344   41.6733 H   0  0  0  0  0  0  0  0  0  0  0  0
  1  4  1  0
  2  7  2  0
  3  4  2  0
  3  2  1  0
  4  5  1  0
  5  6  2  0
  7  6  1  0
  8  1  1  0
  9  1  1  0
 10  9  1  0
  1 11  1  1
  2 12  1  0
  3 13  1  0
  6 14  1  0
  8 15  1  0
  8 16  1  0
  8 17  1  0
  9 18  1  0
  9 19  1  0
 10 20  1  0
M  ISO  8  11   8  12  14  13  14  14  14  15   8  16   8  17   8  18   8
M  ISO  2  19   8  20   3
M  END
>  <minimizedAffinity>  (1) 
-3.46513438

>  <minimizedRMSD>  (1) 
0.0937759876

$$$$
