
     RDKit          3D

 39 40  0  0  1  0  0  0  0  0999 V2000
   45.6880   33.8820   44.0980 C   0  0  0  0  0  0  0  0  0  0  0  0
   46.7300   32.9590   44.2930 C   0  0  0  0  0  0  0  0  0  0  0  0
   47.0190   32.5410   45.6070 C   0  0  0  0  0  0  0  0  0  0  0  0
   46.2910   33.0400   46.6220 N   0  0  0  0  0  0  0  0  0  0  0  0
   45.3050   33.9150   46.4420 C   0  0  0  0  0  0  0  0  0  0  0  0
   45.0170   34.3200   45.1990 N   0  0  0  0  0  0  0  0  0  0  0  0
   45.2900   34.4310   42.8540 C   0  0  0  0  0  0  0  0  0  0  0  0
   44.1020   33.6340   42.2280 C   0  0  0  0  0  0  0  0  0  0  0  0
   43.6880   34.6510   41.1280 C   0  0  0  0  0  0  0  0  0  0  0  0
   43.9930   35.9890   41.7060 C   0  0  0  0  0  0  0  0  0  0  0  0
   44.6040   35.7620   43.0700 C   0  0  0  0  0  0  0  0  0  0  0  0
   47.4800   32.4370   43.1380 C   0  0  1  0  0  0  0  0  0  0  0  0
   46.8290   31.2520   42.5060 C   0  0  0  0  0  0  0  0  0  0  0  0
   47.8960   33.5420   42.2620 C   0  0  0  0  0  0  0  0  0  0  0  0
   49.2490   33.1680   41.6820 N   0  0  0  0  0  0  0  0  0  0  0  0
   50.4350   33.7450   42.2140 C   0  0  0  0  0  0  0  0  0  0  0  0
   50.3250   34.7670   42.9890 N   0  0  0  0  0  0  0  0  0  0  0  0
   51.7090   33.1780   41.8770 N   0  0  0  0  0  0  0  0  0  0  0  0
   51.1740   35.2060   43.3920 H   0  0  0  0  0  0  0  0  0  0  0  0
   47.8262   31.8189   45.7996 H   0  0  0  0  0  0  0  0  0  0  0  0
   44.7355   34.2995   47.3010 H   0  0  0  0  0  0  0  0  0  0  0  0
   46.2062   34.4488   42.2455 H   0  0  0  0  0  0  0  0  0  0  0  0
   44.4275   32.6736   41.8017 H   0  0  0  0  0  0  0  0  0  0  0  0
   43.3057   33.3401   42.9277 H   0  0  0  0  0  0  0  0  0  0  0  0
   42.6148   34.5623   40.9036 H   0  0  0  0  0  0  0  0  0  0  0  0
   44.2228   34.4776   40.1825 H   0  0  0  0  0  0  0  0  0  0  0  0
   44.7038   36.5248   41.0598 H   0  0  0  0  0  0  0  0  0  0  0  0
   43.0791   36.5960   41.7853 H   0  0  0  0  0  0  0  0  0  0  0  0
   43.8342   35.6985   43.8532 H   0  0  0  0  0  0  0  0  0  0  0  0
   45.2701   36.5682   43.4111 H   0  0  0  0  0  0  0  0  0  0  0  0
   48.4275   31.9907   43.4742 H   0  0  0  0  0  0  0  0  0  0  0  0
   46.4576   30.5760   43.2902 H   0  0  0  0  0  0  0  0  0  0  0  0
   45.9876   31.5858   41.8810 H   0  0  0  0  0  0  0  0  0  0  0  0
   47.5620   30.7209   41.8810 H   0  0  0  0  0  0  0  0  0  0  0  0
   47.1634   33.6782   41.4529 H   0  0  0  0  0  0  0  0  0  0  0  0
   47.9588   34.4850   42.8248 H   0  0  0  0  0  0  0  0  0  0  0  0
   49.3076   32.4964   40.9033 H   0  0  0  0  0  0  0  0  0  0  0  0
   52.5729   33.5897   42.2579 H   0  0  0  0  0  0  0  0  0  0  0  0
   51.7598   32.3592   41.2541 H   0  0  0  0  0  0  0  0  0  0  0  0
  1  2  2  0
  1  6  1  0
  2  3  1  0
  3  4  2  0
  5  4  1  0
  6  5  2  0
  7 11  1  0
  7  1  1  0
  8  7  1  0
  9 10  1  0
  9  8  1  0
 10 11  1  0
 12  2  1  0
 13 12  1  0
 14 12  1  0
 15 16  1  0
 15 14  1  0
 16 17  2  0
 17 19  1  0
 18 16  1  0
  3 20  1  0
  5 21  1  0
  7 22  1  0
  8 23  1  0
  8 24  1  0
  9 25  1  0
  9 26  1  0
 10 27  1  0
 10 28  1  0
 11 29  1  0
 11 30  1  0
 12 31  1  1
 13 32  1  0
 13 33  1  0
 13 34  1  0
 14 35  1  0
 14 36  1  0
 15 37  1  0
 18 38  1  0
 18 39  1  0
M  ISO  8  20  14  21  14  22  13  23  13  24  13  25  13  26  13  27  13
M  ISO  8  28  13  29  13  30  13  31   8  32   8  33   8  34   8  35   8
M  ISO  1  36   8
M  END
>  <minimizedAffinity>  (1) 
-4.87138128

>  <minimizedRMSD>  (1) 
1.07222617

$$$$
