
     RDKit          3D

 39 41  0  0  1  0  0  0  0  0999 V2000
   45.4590   34.3240   40.8840 N   0  0  0  0  0  0  0  0  0  0  0  0
   46.0050   33.4860   39.9870 C   0  0  0  0  0  0  0  0  0  0  0  0
   45.2360   32.8710   38.9980 C   0  0  0  0  0  0  0  0  0  0  0  0
   43.8780   33.1760   38.9950 C   0  0  0  0  0  0  0  0  0  0  0  0
   43.1850   32.6300   38.1120 O   0  0  0  0  0  0  0  0  0  0  0  0
   43.3130   34.0100   39.8820 N   0  0  0  0  0  0  0  0  0  0  0  0
   44.1300   34.5650   40.8100 C   0  0  0  0  0  0  0  0  0  0  0  0
   43.6580   35.3570   41.6720 O   0  0  0  0  0  0  0  0  0  0  0  0
   41.9230   34.3150   39.8680 C   0  0  0  0  0  0  0  0  0  0  0  0
   41.3660   35.3320   39.1020 C   0  0  0  0  0  0  0  0  0  0  0  0
   40.0000   35.5350   39.1720 C   0  0  0  0  0  0  0  0  0  0  0  0
   39.1500   34.7870   39.9580 C   0  0  0  0  0  0  0  0  0  0  0  0
   39.7450   33.7780   40.7110 C   0  0  0  0  0  0  0  0  0  0  0  0
   41.1070   33.5350   40.6760 C   0  0  0  0  0  0  0  0  0  0  0  0
   46.3380   34.9180   41.8170 C   0  0  0  0  0  0  0  0  0  0  0  0
   47.1640   33.9790   42.6190 C   0  0  2  0  0  0  0  0  0  0  0  0
   45.0980   34.3720   45.7310 C   0  0  0  0  0  0  0  0  0  0  0  0
   45.5970   34.5770   44.4260 C   0  0  0  0  0  0  0  0  0  0  0  0
   46.6380   33.7640   43.9680 C   0  0  0  0  0  0  0  0  0  0  0  0
   47.1170   32.8110   44.8190 N   0  0  0  0  0  0  0  0  0  0  0  0
   46.6410   32.6180   46.0620 C   0  0  0  0  0  0  0  0  0  0  0  0
   45.6320   33.3960   46.5230 N   0  0  0  0  0  0  0  0  0  0  0  0
   48.6040   34.4950   42.8000 C   0  0  0  0  0  0  0  0  0  0  0  0
   47.0845   33.2796   40.0332 H   0  0  0  0  0  0  0  0  0  0  0  0
   45.6784   32.1836   38.2620 H   0  0  0  0  0  0  0  0  0  0  0  0
   41.9965   35.9603   38.4557 H   0  0  0  0  0  0  0  0  0  0  0  0
   39.5655   36.3420   38.5638 H   0  0  0  0  0  0  0  0  0  0  0  0
   38.0667   34.9757   39.9886 H   0  0  0  0  0  0  0  0  0  0  0  0
   39.1105   33.1524   41.3560 H   0  0  0  0  0  0  0  0  0  0  0  0
   41.5406   32.7282   41.2851 H   0  0  0  0  0  0  0  0  0  0  0  0
   47.0209   35.5790   41.2632 H   0  0  0  0  0  0  0  0  0  0  0  0
   45.6953   35.4413   42.5402 H   0  0  0  0  0  0  0  0  0  0  0  0
   47.1416   33.0396   42.0471 H   0  0  0  0  0  0  0  0  0  0  0  0
   44.2779   34.9994   46.1102 H   0  0  0  0  0  0  0  0  0  0  0  0
   45.1744   35.3620   43.7816 H   0  0  0  0  0  0  0  0  0  0  0  0
   47.0690   31.8320   46.7016 H   0  0  0  0  0  0  0  0  0  0  0  0
   48.8321   34.5767   43.8730 H   0  0  0  0  0  0  0  0  0  0  0  0
   49.3071   33.7929   42.3281 H   0  0  0  0  0  0  0  0  0  0  0  0
   48.7012   35.4839   42.3281 H   0  0  0  0  0  0  0  0  0  0  0  0
  1 15  1  0
  2  1  1  0
  3  2  2  0
  4  3  1  0
  4  6  1  0
  5  4  2  0
  6  7  1  0
  7  1  1  0
  7  8  2  0
  9  6  1  0
  9 14  2  0
 10 11  2  0
 10  9  1  0
 11 12  1  0
 12 13  2  0
 14 13  1  0
 15 16  1  0
 16 23  1  0
 16 19  1  0
 17 22  2  0
 18 17  1  0
 19 18  2  0
 19 20  1  0
 20 21  2  0
 21 22  1  0
  2 24  1  0
  3 25  1  0
 10 26  1  0
 11 27  1  0
 12 28  1  0
 13 29  1  0
 14 30  1  0
 15 31  1  0
 15 32  1  0
 16 33  1  6
 17 34  1  0
 18 35  1  0
 21 36  1  0
 23 37  1  0
 23 38  1  0
 23 39  1  0
M  ISO  8  24  14  25  14  26  14  27  14  28  14  29  14  30  14  31   8
M  ISO  8  32   8  33   8  34  14  35  14  36  14  37   8  38   8  39   8
M  END
>  <minimizedAffinity>  (1) 
-5.61323833

>  <minimizedRMSD>  (1) 
3.50889325

$$$$
