
     RDKit          3D

 36 38  0  0  1  0  0  0  0  0999 V2000
   46.0440   34.5590   41.0120 C   0  0  0  0  0  0  0  0  0  0  0  0
   44.9840   33.7230   40.5970 N   0  0  0  0  0  0  0  0  0  0  0  0
   45.2970   32.4340   40.3760 C   0  0  0  0  0  0  0  0  0  0  0  0
   44.3230   31.5310   39.9220 C   0  0  0  0  0  0  0  0  0  0  0  0
   43.0620   32.0280   39.7200 C   0  0  0  0  0  0  0  0  0  0  0  0
   42.1780   31.2310   39.3110 O   0  0  0  0  0  0  0  0  0  0  0  0
   42.7350   33.3120   39.9370 N   0  0  0  0  0  0  0  0  0  0  0  0
   43.7170   34.1360   40.3760 C   0  0  0  0  0  0  0  0  0  0  0  0
   43.4710   35.3530   40.5990 O   0  0  0  0  0  0  0  0  0  0  0  0
   41.4280   33.8410   39.7310 C   0  0  0  0  0  0  0  0  0  0  0  0
   40.5440   33.7810   40.8020 C   0  0  0  0  0  0  0  0  0  0  0  0
   39.3630   34.3610   40.3220 C   0  0  0  0  0  0  0  0  0  0  0  0
   39.6090   34.7340   38.9950 C   0  0  0  0  0  0  0  0  0  0  0  0
   40.8440   34.4010   38.7090 O   0  0  0  0  0  0  0  0  0  0  0  0
   46.7600   34.1430   42.2410 C   0  0  2  0  0  0  0  0  0  0  0  0
   44.5740   35.9500   44.7050 C   0  0  0  0  0  0  0  0  0  0  0  0
   45.2680   35.6330   43.5210 C   0  0  0  0  0  0  0  0  0  0  0  0
   46.0380   34.4660   43.4710 C   0  0  0  0  0  0  0  0  0  0  0  0
   46.0710   33.6960   44.5910 N   0  0  0  0  0  0  0  0  0  0  0  0
   45.4120   33.9920   45.7230 C   0  0  0  0  0  0  0  0  0  0  0  0
   44.6640   35.1170   45.7830 N   0  0  0  0  0  0  0  0  0  0  0  0
   48.1300   34.8370   42.3570 C   0  0  0  0  0  0  0  0  0  0  0  0
   45.6310   35.5633   41.1874 H   0  0  0  0  0  0  0  0  0  0  0  0
   46.7903   34.5121   40.2053 H   0  0  0  0  0  0  0  0  0  0  0  0
   46.3249   32.0843   40.5525 H   0  0  0  0  0  0  0  0  0  0  0  0
   44.5609   30.4731   39.7369 H   0  0  0  0  0  0  0  0  0  0  0  0
   40.7307   33.3691   41.8047 H   0  0  0  0  0  0  0  0  0  0  0  0
   38.4244   34.4971   40.8793 H   0  0  0  0  0  0  0  0  0  0  0  0
   38.8940   35.2195   38.3145 H   0  0  0  0  0  0  0  0  0  0  0  0
   46.8601   33.0521   42.1412 H   0  0  0  0  0  0  0  0  0  0  0  0
   43.9632   36.8631   44.7608 H   0  0  0  0  0  0  0  0  0  0  0  0
   45.2053   36.2957   42.6453 H   0  0  0  0  0  0  0  0  0  0  0  0
   45.4801   33.3245   46.5947 H   0  0  0  0  0  0  0  0  0  0  0  0
   48.3865   34.9669   43.4188 H   0  0  0  0  0  0  0  0  0  0  0  0
   48.8969   34.2187   41.8675 H   0  0  0  0  0  0  0  0  0  0  0  0
   48.0851   35.8211   41.8675 H   0  0  0  0  0  0  0  0  0  0  0  0
  1 15  1  0
  2  1  1  0
  3  2  1  0
  4  3  2  0
  5  4  1  0
  5  7  1  0
  6  5  2  0
  7  8  1  0
  8  2  1  0
  8  9  2  0
 10  7  1  0
 10 11  2  0
 12 11  1  0
 13 12  2  0
 14 13  1  0
 14 10  1  0
 15 22  1  0
 15 18  1  0
 16 21  2  0
 17 16  1  0
 18 17  2  0
 18 19  1  0
 19 20  2  0
 20 21  1  0
  1 23  1  0
  1 24  1  0
  3 25  1  0
  4 26  1  0
 11 27  1  0
 12 28  1  0
 13 29  1  0
 15 30  1  6
 16 31  1  0
 17 32  1  0
 20 33  1  0
 22 34  1  0
 22 35  1  0
 22 36  1  0
M  ISO  8  23   8  24   8  25  14  26  14  27  14  28  14  29  14  30   8
M  ISO  6  31  14  32  14  33  14  34   8  35   8  36   8
M  END
>  <minimizedAffinity>  (1) 
-5.23857164

>  <minimizedRMSD>  (1) 
3.58193827

$$$$
