
     RDKit          3D

 32 33  0  0  1  0  0  0  0  0999 V2000
   47.1290   33.8580   42.5640 C   0  0  2  0  0  0  0  0  0  0  0  0
   44.6150   35.6900   44.6720 C   0  0  0  0  0  0  0  0  0  0  0  0
   45.4230   35.3290   43.5750 C   0  0  0  0  0  0  0  0  0  0  0  0
   46.2810   34.2320   43.6980 C   0  0  0  0  0  0  0  0  0  0  0  0
   46.2800   33.5720   44.8860 N   0  0  0  0  0  0  0  0  0  0  0  0
   45.5140   33.9090   45.9360 C   0  0  0  0  0  0  0  0  0  0  0  0
   44.6790   34.9690   45.8300 N   0  0  0  0  0  0  0  0  0  0  0  0
   48.5690   33.8100   43.1050 C   0  0  0  0  0  0  0  0  0  0  0  0
   47.0120   34.7880   41.4140 C   0  0  0  0  0  0  0  0  0  0  0  0
   46.9900   34.1900   40.1330 N   0  0  0  0  0  0  0  0  0  0  0  0
   48.1260   34.3080   39.4140 C   0  0  0  0  0  0  0  0  0  0  0  0
   48.1930   33.7820   38.1100 C   0  0  0  0  0  0  0  0  0  0  0  0
   47.0680   33.1620   37.6330 C   0  0  0  0  0  0  0  0  0  0  0  0
   47.1230   32.6890   36.4620 O   0  0  0  0  0  0  0  0  0  0  0  0
   45.9420   33.0410   38.3400 N   0  0  0  0  0  0  0  0  0  0  0  0
   45.9290   33.5610   39.5810 C   0  0  0  0  0  0  0  0  0  0  0  0
   44.8950   33.4810   40.3030 O   0  0  0  0  0  0  0  0  0  0  0  0
   44.7650   32.3810   37.8140 C   0  0  0  0  0  0  0  0  0  0  0  0
   46.8112   32.8843   42.1628 H   0  0  0  0  0  0  0  0  0  0  0  0
   43.9343   36.5507   44.5955 H   0  0  0  0  0  0  0  0  0  0  0  0
   45.3792   35.9014   42.6367 H   0  0  0  0  0  0  0  0  0  0  0  0
   45.5644   33.3310   46.8705 H   0  0  0  0  0  0  0  0  0  0  0  0
   48.5477   33.8107   44.2048 H   0  0  0  0  0  0  0  0  0  0  0  0
   49.0643   32.8948   42.7484 H   0  0  0  0  0  0  0  0  0  0  0  0
   49.1242   34.6901   42.7484 H   0  0  0  0  0  0  0  0  0  0  0  0
   46.0789   35.3577   41.5355 H   0  0  0  0  0  0  0  0  0  0  0  0
   47.9224   35.4049   41.4377 H   0  0  0  0  0  0  0  0  0  0  0  0
   49.0004   34.8157   39.8473 H   0  0  0  0  0  0  0  0  0  0  0  0
   49.1061   33.8648   37.5022 H   0  0  0  0  0  0  0  0  0  0  0  0
   44.1385   32.0297   38.6471 H   0  0  0  0  0  0  0  0  0  0  0  0
   44.1920   33.0894   37.1977 H   0  0  0  0  0  0  0  0  0  0  0  0
   45.0706   31.5226   37.1977 H   0  0  0  0  0  0  0  0  0  0  0  0
  1  8  1  0
  1  4  1  0
  2  7  2  0
  3  4  2  0
  3  2  1  0
  4  5  1  0
  5  6  2  0
  7  6  1  0
  9  1  1  0
 10  9  1  0
 11 10  1  0
 12 11  2  0
 13 12  1  0
 13 15  1  0
 14 13  2  0
 15 16  1  0
 16 10  1  0
 16 17  2  0
 18 15  1  0
  1 19  1  6
  2 20  1  0
  3 21  1  0
  6 22  1  0
  8 23  1  0
  8 24  1  0
  8 25  1  0
  9 26  1  0
  9 27  1  0
 11 28  1  0
 12 29  1  0
 18 30  1  0
 18 31  1  0
 18 32  1  0
M  ISO  8  19   8  20  14  21  14  22  14  23   8  24   8  25   8  26   8
M  ISO  6  27   8  28  14  29  14  30   8  31   8  32   8
M  END
>  <minimizedAffinity>  (1) 
-4.55081129

>  <minimizedRMSD>  (1) 
0.12167298

$$$$
