
     RDKit          3D

 32 33  0  0  1  0  0  0  0  0999 V2000
   47.0700   34.7670   41.4700 C   0  0  0  0  0  0  0  0  0  0  0  0
   46.9980   34.2000   40.1760 N   0  0  0  0  0  0  0  0  0  0  0  0
   48.1220   34.2840   39.4370 C   0  0  0  0  0  0  0  0  0  0  0  0
   48.1420   33.7820   38.1190 C   0  0  0  0  0  0  0  0  0  0  0  0
   46.9860   33.2190   37.6470 C   0  0  0  0  0  0  0  0  0  0  0  0
   47.0050   32.7740   36.4740 O   0  0  0  0  0  0  0  0  0  0  0  0
   45.8770   33.1370   38.3840 N   0  0  0  0  0  0  0  0  0  0  0  0
   45.9030   33.6270   39.6300 C   0  0  0  0  0  0  0  0  0  0  0  0
   44.8790   33.5740   40.3660 O   0  0  0  0  0  0  0  0  0  0  0  0
   44.6590   32.5360   37.8680 C   0  0  0  0  0  0  0  0  0  0  0  0
   44.2720   31.4220   38.6130 F   0  0  0  0  0  0  0  0  0  0  0  0
   43.6800   33.5090   37.8590 F   0  0  0  0  0  0  0  0  0  0  0  0
   44.9270   32.0690   36.5900 F   0  0  0  0  0  0  0  0  0  0  0  0
   47.0860   33.8110   42.6010 C   0  0  2  0  0  0  0  0  0  0  0  0
   44.6010   35.7250   44.6660 C   0  0  0  0  0  0  0  0  0  0  0  0
   45.4100   35.3300   43.5750 C   0  0  0  0  0  0  0  0  0  0  0  0
   46.2440   34.2190   43.7260 C   0  0  0  0  0  0  0  0  0  0  0  0
   46.2350   33.5710   44.9300 N   0  0  0  0  0  0  0  0  0  0  0  0
   45.4640   33.9520   45.9640 C   0  0  0  0  0  0  0  0  0  0  0  0
   44.6480   35.0250   45.8390 N   0  0  0  0  0  0  0  0  0  0  0  0
   48.5060   33.6250   43.1700 C   0  0  0  0  0  0  0  0  0  0  0  0
   46.1972   35.4241   41.5979 H   0  0  0  0  0  0  0  0  0  0  0  0
   48.0378   35.2882   41.5104 H   0  0  0  0  0  0  0  0  0  0  0  0
   49.0255   34.7450   39.8626 H   0  0  0  0  0  0  0  0  0  0  0  0
   49.0473   33.8402   37.4968 H   0  0  0  0  0  0  0  0  0  0  0  0
   46.6970   32.8783   42.1665 H   0  0  0  0  0  0  0  0  0  0  0  0
   43.9345   36.5949   44.5705 H   0  0  0  0  0  0  0  0  0  0  0  0
   45.3831   35.8864   42.6265 H   0  0  0  0  0  0  0  0  0  0  0  0
   45.4964   33.3923   46.9104 H   0  0  0  0  0  0  0  0  0  0  0  0
   48.4642   33.6305   44.2692 H   0  0  0  0  0  0  0  0  0  0  0  0
   48.9171   32.6653   42.8235 H   0  0  0  0  0  0  0  0  0  0  0  0
   49.1504   34.4464   42.8235 H   0  0  0  0  0  0  0  0  0  0  0  0
  1 14  1  0
  2  1  1  0
  3  2  1  0
  4  3  2  0
  5  4  1  0
  5  7  1  0
  6  5  2  0
  7  8  1  0
  8  2  1  0
  8  9  2  0
 10  7  1  0
 10 11  1  0
 12 10  1  0
 13 10  1  0
 14 21  1  0
 14 17  1  0
 15 20  2  0
 16 17  2  0
 16 15  1  0
 17 18  1  0
 18 19  2  0
 20 19  1  0
  1 22  1  0
  1 23  1  0
  3 24  1  0
  4 25  1  0
 14 26  1  6
 15 27  1  0
 16 28  1  0
 19 29  1  0
 21 30  1  0
 21 31  1  0
 21 32  1  0
M  ISO  8  22   8  23   8  24  14  25  14  26   8  27  14  28  14  29  14
M  ISO  3  30   8  31   8  32   8
M  END
>  <minimizedAffinity>  (1) 
-4.70135307

>  <minimizedRMSD>  (1) 
0.419575155

$$$$
