
     RDKit          3D

 35 37  0  0  1  0  0  0  0  0999 V2000
   46.7100   34.6890   41.2320 C   0  0  0  0  0  0  0  0  0  0  0  0
   46.9540   33.9990   40.0230 N   0  0  0  0  0  0  0  0  0  0  0  0
   48.0610   34.3430   39.3440 C   0  0  0  0  0  0  0  0  0  0  0  0
   48.3760   33.7480   38.1230 C   0  0  0  0  0  0  0  0  0  0  0  0
   47.5030   32.8000   37.6530 C   0  0  0  0  0  0  0  0  0  0  0  0
   47.7780   32.2570   36.5540 O   0  0  0  0  0  0  0  0  0  0  0  0
   46.3940   32.4420   38.3130 N   0  0  0  0  0  0  0  0  0  0  0  0
   46.1440   33.0550   39.4920 C   0  0  0  0  0  0  0  0  0  0  0  0
   45.1150   32.7610   40.1630 O   0  0  0  0  0  0  0  0  0  0  0  0
   45.5130   31.4480   37.7840 C   0  0  0  0  0  0  0  0  0  0  0  0
   45.6160   30.0620   38.0450 C   0  0  0  0  0  0  0  0  0  0  0  0
   44.2040   29.3660   37.0770 S   0  0  0  0  0  0  0  0  0  0  0  0
   43.7290   31.1120   36.4890 C   0  0  0  0  0  0  0  0  0  0  0  0
   44.5040   31.7800   36.9820 N   0  0  0  0  0  0  0  0  0  0  0  0
   47.1020   33.9790   42.4760 C   0  0  2  0  0  0  0  0  0  0  0  0
   44.5960   35.7510   44.6400 C   0  0  0  0  0  0  0  0  0  0  0  0
   45.4000   35.4210   43.5250 C   0  0  0  0  0  0  0  0  0  0  0  0
   46.2600   34.3240   43.6210 C   0  0  0  0  0  0  0  0  0  0  0  0
   46.2770   33.6240   44.8000 N   0  0  0  0  0  0  0  0  0  0  0  0
   45.5080   33.9490   45.8580 C   0  0  0  0  0  0  0  0  0  0  0  0
   44.6700   35.0050   45.7790 N   0  0  0  0  0  0  0  0  0  0  0  0
   48.5490   34.3040   42.8940 C   0  0  0  0  0  0  0  0  0  0  0  0
   45.6315   34.8976   41.2889 H   0  0  0  0  0  0  0  0  0  0  0  0
   47.3406   35.5895   41.1926 H   0  0  0  0  0  0  0  0  0  0  0  0
   48.7321   35.1092   39.7595 H   0  0  0  0  0  0  0  0  0  0  0  0
   49.2814   34.0255   37.5633 H   0  0  0  0  0  0  0  0  0  0  0  0
   46.3516   29.5316   38.6676 H   0  0  0  0  0  0  0  0  0  0  0  0
   42.9000   31.4051   35.8280 H   0  0  0  0  0  0  0  0  0  0  0  0
   46.9875   32.9138   42.2267 H   0  0  0  0  0  0  0  0  0  0  0  0
   43.9105   36.6098   44.5887 H   0  0  0  0  0  0  0  0  0  0  0  0
   45.3496   36.0156   42.6009 H   0  0  0  0  0  0  0  0  0  0  0  0
   45.5628   33.3560   46.7829 H   0  0  0  0  0  0  0  0  0  0  0  0
   48.6188   34.3197   43.9917 H   0  0  0  0  0  0  0  0  0  0  0  0
   49.2274   33.5359   42.4944 H   0  0  0  0  0  0  0  0  0  0  0  0
   48.8338   35.2885   42.4944 H   0  0  0  0  0  0  0  0  0  0  0  0
  1 15  1  0
  2  1  1  0
  3  2  1  0
  4  3  2  0
  5  4  1  0
  5  7  1  0
  6  5  2  0
  7  8  1  0
  8  2  1  0
  8  9  2  0
 10 11  2  0
 10  7  1  0
 12 11  1  0
 13 14  2  0
 13 12  1  0
 14 10  1  0
 15 22  1  0
 15 18  1  0
 16 21  2  0
 17 18  2  0
 17 16  1  0
 18 19  1  0
 19 20  2  0
 21 20  1  0
  1 23  1  0
  1 24  1  0
  3 25  1  0
  4 26  1  0
 11 27  1  0
 13 28  1  0
 15 29  1  6
 16 30  1  0
 17 31  1  0
 20 32  1  0
 22 33  1  0
 22 34  1  0
 22 35  1  0
M  ISO  8  23   8  24   8  25  14  26  14  27  14  28  14  29   8  30  14
M  ISO  5  31  14  32  14  33   8  34   8  35   8
M  END
>  <minimizedAffinity>  (1) 
-4.60923862

>  <minimizedRMSD>  (1) 
0.770359874

$$$$
