
     RDKit          3D

 54 57  0  0  1  0  0  0  0  0999 V2000
   45.4170   34.6930   40.9100 C   0  0  0  0  0  0  0  0  0  0  0  0
   44.4270   33.7370   40.6140 N   0  0  0  0  0  0  0  0  0  0  0  0
   44.8760   32.4580   40.6020 C   0  0  0  0  0  0  0  0  0  0  0  0
   43.9900   31.4030   40.2890 C   0  0  0  0  0  0  0  0  0  0  0  0
   42.6880   31.7400   40.0080 C   0  0  0  0  0  0  0  0  0  0  0  0
   41.8940   30.8090   39.7280 O   0  0  0  0  0  0  0  0  0  0  0  0
   42.2560   33.0050   40.0240 N   0  0  0  0  0  0  0  0  0  0  0  0
   43.1350   33.9830   40.3280 C   0  0  0  0  0  0  0  0  0  0  0  0
   42.7870   35.1840   40.3600 O   0  0  0  0  0  0  0  0  0  0  0  0
   40.9030   33.3740   39.7310 C   0  0  0  0  0  0  0  0  0  0  0  0
   39.8260   33.4460   40.5810 C   0  0  0  0  0  0  0  0  0  0  0  0
   38.6200   33.8310   40.0440 C   0  0  0  0  0  0  0  0  0  0  0  0
   38.5040   34.1300   38.7140 C   0  0  0  0  0  0  0  0  0  0  0  0
   39.6060   34.0520   37.8630 C   0  0  0  0  0  0  0  0  0  0  0  0
   40.7900   33.6700   38.4110 N   0  0  0  0  0  0  0  0  0  0  0  0
   46.3500   34.3990   42.0010 C   0  0  2  0  0  0  0  0  0  0  0  0
   44.4690   35.9330   44.8590 C   0  0  0  0  0  0  0  0  0  0  0  0
   45.0140   35.7090   43.5860 C   0  0  0  0  0  0  0  0  0  0  0  0
   45.7920   34.5910   43.3300 C   0  0  0  0  0  0  0  0  0  0  0  0
   45.9890   33.7370   44.3770 N   0  0  0  0  0  0  0  0  0  0  0  0
   45.4820   33.9230   45.6050 C   0  0  0  0  0  0  0  0  0  0  0  0
   44.7210   35.0230   45.8460 N   0  0  0  0  0  0  0  0  0  0  0  0
   47.6350   35.2250   41.9620 C   0  0  0  0  0  0  0  0  0  0  0  0
   48.8400   34.5460   41.4620 C   0  0  0  0  0  0  0  0  0  0  0  0
   48.6410   33.3070   40.6810 C   0  0  0  0  0  0  0  0  0  0  0  0
   49.0860   32.0230   41.2770 C   0  0  0  0  0  0  0  0  0  0  0  0
   50.2680   32.0540   42.1720 C   0  0  0  0  0  0  0  0  0  0  0  0
   50.8980   33.4200   42.3160 C   0  0  0  0  0  0  0  0  0  0  0  0
   49.7310   34.3250   42.6960 C   0  0  0  0  0  0  0  0  0  0  0  0
   44.9012   35.6308   41.1639 H   0  0  0  0  0  0  0  0  0  0  0  0
   46.0475   34.7250   40.0092 H   0  0  0  0  0  0  0  0  0  0  0  0
   45.9289   32.2418   40.8357 H   0  0  0  0  0  0  0  0  0  0  0  0
   44.3281   30.3564   40.2710 H   0  0  0  0  0  0  0  0  0  0  0  0
   39.9246   33.2050   41.6497 H   0  0  0  0  0  0  0  0  0  0  0  0
   37.7350   33.8996   40.6937 H   0  0  0  0  0  0  0  0  0  0  0  0
   37.5277   34.4363   38.3102 H   0  0  0  0  0  0  0  0  0  0  0  0
   39.5207   34.2898   36.7924 H   0  0  0  0  0  0  0  0  0  0  0  0
   46.5687   33.3353   41.8257 H   0  0  0  0  0  0  0  0  0  0  0  0
   43.8523   36.8219   45.0580 H   0  0  0  0  0  0  0  0  0  0  0  0
   44.8210   36.4313   42.7791 H   0  0  0  0  0  0  0  0  0  0  0  0
   45.6795   33.1952   46.4059 H   0  0  0  0  0  0  0  0  0  0  0  0
   47.4516   36.0970   41.3171 H   0  0  0  0  0  0  0  0  0  0  0  0
   47.8545   35.4691   43.0119 H   0  0  0  0  0  0  0  0  0  0  0  0
   49.3043   35.1907   40.7012 H   0  0  0  0  0  0  0  0  0  0  0  0
   49.1814   33.4301   39.7309 H   0  0  0  0  0  0  0  0  0  0  0  0
   47.5484   33.2068   40.6028 H   0  0  0  0  0  0  0  0  0  0  0  0
   48.2434   31.6208   41.8586 H   0  0  0  0  0  0  0  0  0  0  0  0
   49.4017   31.4116   40.4188 H   0  0  0  0  0  0  0  0  0  0  0  0
   49.9551   31.7112   43.1693 H   0  0  0  0  0  0  0  0  0  0  0  0
   51.0274   31.4012   41.7168 H   0  0  0  0  0  0  0  0  0  0  0  0
   51.6636   33.4164   43.1059 H   0  0  0  0  0  0  0  0  0  0  0  0
   51.4091   33.7498   41.3995 H   0  0  0  0  0  0  0  0  0  0  0  0
   50.1160   35.2927   43.0500 H   0  0  0  0  0  0  0  0  0  0  0  0
   49.1428   33.8531   43.4969 H   0  0  0  0  0  0  0  0  0  0  0  0
  1 16  1  0
  2  1  1  0
  3  2  1  0
  4  3  2  0
  5  7  1  0
  5  4  1  0
  6  5  2  0
  7  8  1  0
  8  9  2  0
  8  2  1  0
 10  7  1  0
 10 11  2  0
 12 11  1  0
 13 12  2  0
 14 15  2  0
 14 13  1  0
 15 10  1  0
 16 19  1  0
 17 22  2  0
 18 17  1  0
 19 18  2  0
 19 20  1  0
 20 21  2  0
 21 22  1  0
 23 16  1  0
 24 23  1  0
 24 29  1  0
 25 26  1  0
 25 24  1  0
 26 27  1  0
 27 28  1  0
 28 29  1  0
  1 30  1  0
  1 31  1  0
  3 32  1  0
  4 33  1  0
 11 34  1  0
 12 35  1  0
 13 36  1  0
 14 37  1  0
 16 38  1  1
 17 39  1  0
 18 40  1  0
 21 41  1  0
 23 42  1  0
 23 43  1  0
 24 44  1  0
 25 45  1  0
 25 46  1  0
 26 47  1  0
 26 48  1  0
 27 49  1  0
 27 50  1  0
 28 51  1  0
 28 52  1  0
 29 53  1  0
 29 54  1  0
M  ISO  8  30   8  31   8  32  14  33  14  34  14  35  14  36  14  37  14
M  ISO  8  38   8  39  14  40  14  41  14  42   8  43   8  44  13  45  13
M  ISO  8  46  13  47  13  48  13  49  13  50  13  51  13  52  13  53  13
M  ISO  1  54  13
M  END
>  <minimizedAffinity>  (1) 
-6.62562037

>  <minimizedRMSD>  (1) 
0.749277771

$$$$
