
     RDKit          3D

 48 50  0  0  1  0  0  0  0  0999 V2000
   45.2380   33.7610   43.1710 C   0  0  0  0  0  0  0  0  0  0  0  0
   46.2600   32.8080   43.3270 C   0  0  0  0  0  0  0  0  0  0  0  0
   46.8130   32.6210   44.6100 C   0  0  0  0  0  0  0  0  0  0  0  0
   46.3450   33.3560   45.6290 N   0  0  0  0  0  0  0  0  0  0  0  0
   45.3800   34.2600   45.4890 C   0  0  0  0  0  0  0  0  0  0  0  0
   44.8440   34.4500   44.2770 N   0  0  0  0  0  0  0  0  0  0  0  0
   44.5970   34.0980   41.9520 C   0  0  0  0  0  0  0  0  0  0  0  0
   43.2480   33.3380   41.7830 C   0  0  0  0  0  0  0  0  0  0  0  0
   42.6460   34.1670   40.6160 C   0  0  0  0  0  0  0  0  0  0  0  0
   43.2040   35.5410   40.7800 C   0  0  0  0  0  0  0  0  0  0  0  0
   44.0750   35.5170   42.0200 C   0  0  0  0  0  0  0  0  0  0  0  0
   46.7200   32.0190   42.1600 C   0  0  1  0  0  0  0  0  0  0  0  0
   45.9230   30.7820   41.9540 C   0  0  0  0  0  0  0  0  0  0  0  0
   46.9430   32.9150   41.0150 C   0  0  0  0  0  0  0  0  0  0  0  0
   48.4570   33.3090   40.9740 C   0  0  0  0  0  0  0  0  0  0  0  0
   48.6330   34.5780   41.7760 C   0  0  0  0  0  0  0  0  0  0  0  0
   49.9890   34.8230   42.2960 C   0  0  0  0  0  0  0  0  0  0  0  0
   50.7920   33.6290   42.6920 C   0  0  0  0  0  0  0  0  0  0  0  0
   50.7340   32.6680   41.5020 C   0  0  0  0  0  0  0  0  0  0  0  0
   49.2910   32.1860   41.4810 C   0  0  0  0  0  0  0  0  0  0  0  0
   47.6143   31.8851   44.7723 H   0  0  0  0  0  0  0  0  0  0  0  0
   45.0282   34.8416   46.3539 H   0  0  0  0  0  0  0  0  0  0  0  0
   45.3423   33.8899   41.1702 H   0  0  0  0  0  0  0  0  0  0  0  0
   43.4002   32.2846   41.5050 H   0  0  0  0  0  0  0  0  0  0  0  0
   42.6253   33.2732   42.6874 H   0  0  0  0  0  0  0  0  0  0  0  0
   41.5482   34.1864   40.6834 H   0  0  0  0  0  0  0  0  0  0  0  0
   42.8972   33.7368   39.6353 H   0  0  0  0  0  0  0  0  0  0  0  0
   43.8058   35.8124   39.9001 H   0  0  0  0  0  0  0  0  0  0  0  0
   42.3988   36.2839   40.8786 H   0  0  0  0  0  0  0  0  0  0  0  0
   43.4881   35.6920   42.9338 H   0  0  0  0  0  0  0  0  0  0  0  0
   44.8528   36.2941   42.0531 H   0  0  0  0  0  0  0  0  0  0  0  0
   47.7109   31.5785   42.3447 H   0  0  0  0  0  0  0  0  0  0  0  0
   45.6485   30.3559   42.9302 H   0  0  0  0  0  0  0  0  0  0  0  0
   45.0103   31.0236   41.3896 H   0  0  0  0  0  0  0  0  0  0  0  0
   46.5203   30.0507   41.3896 H   0  0  0  0  0  0  0  0  0  0  0  0
   46.6693   32.3994   40.0827 H   0  0  0  0  0  0  0  0  0  0  0  0
   46.3233   33.8179   41.1192 H   0  0  0  0  0  0  0  0  0  0  0  0
   48.7905   33.5007   39.9434 H   0  0  0  0  0  0  0  0  0  0  0  0
   48.3604   35.4260   41.1306 H   0  0  0  0  0  0  0  0  0  0  0  0
   47.9890   34.4649   42.6606 H   0  0  0  0  0  0  0  0  0  0  0  0
   50.5516   35.3566   41.5157 H   0  0  0  0  0  0  0  0  0  0  0  0
   49.8383   35.3863   43.2287 H   0  0  0  0  0  0  0  0  0  0  0  0
   51.8327   33.9196   42.8983 H   0  0  0  0  0  0  0  0  0  0  0  0
   50.3963   33.1625   43.6063 H   0  0  0  0  0  0  0  0  0  0  0  0
   50.9846   33.1898   40.5666 H   0  0  0  0  0  0  0  0  0  0  0  0
   51.4531   31.8406   41.5933 H   0  0  0  0  0  0  0  0  0  0  0  0
   48.9719   31.9087   42.4965 H   0  0  0  0  0  0  0  0  0  0  0  0
   49.1854   31.3006   40.8368 H   0  0  0  0  0  0  0  0  0  0  0  0
  1  2  1  0
  1  6  2  0
  2  3  2  0
  3  4  1  0
  5  4  2  0
  6  5  1  0
  7 11  1  0
  7  1  1  0
  8  7  1  0
  9 10  1  0
  9  8  1  0
 10 11  1  0
 12  2  1  0
 13 12  1  0
 14 12  1  0
 15 14  1  0
 15 20  1  0
 15 16  1  0
 16 17  1  0
 17 18  1  0
 19 18  1  0
 20 19  1  0
  3 21  1  0
  5 22  1  0
  7 23  1  0
  8 24  1  0
  8 25  1  0
  9 26  1  0
  9 27  1  0
 10 28  1  0
 10 29  1  0
 11 30  1  0
 11 31  1  0
 12 32  1  1
 13 33  1  0
 13 34  1  0
 13 35  1  0
 14 36  1  0
 14 37  1  0
 15 38  1  0
 16 39  1  0
 16 40  1  0
 17 41  1  0
 17 42  1  0
 18 43  1  0
 18 44  1  0
 19 45  1  0
 19 46  1  0
 20 47  1  0
 20 48  1  0
M  ISO  8  21  14  22  14  23  13  24  13  25  13  26  13  27  13  28  13
M  ISO  8  29  13  30  13  31  13  32   8  33   8  34   8  35   8  36   8
M  ISO  8  37   8  38  13  39  13  40  13  41  13  42  13  43  13  44  13
M  ISO  4  45  13  46  13  47  13  48  13
M  END
>  <minimizedAffinity>  (1) 
-4.48581457

>  <minimizedRMSD>  (1) 
1.57957661

$$$$
