
     RDKit          3D

 47 50  0  0  1  0  0  0  0  0999 V2000
   45.4140   34.6490   40.8780 C   0  0  0  0  0  0  0  0  0  0  0  0
   44.4040   33.7150   40.5830 N   0  0  0  0  0  0  0  0  0  0  0  0
   44.8230   32.4250   40.6100 C   0  0  0  0  0  0  0  0  0  0  0  0
   43.9180   31.3790   40.3130 C   0  0  0  0  0  0  0  0  0  0  0  0
   42.6250   31.7460   40.0040 C   0  0  0  0  0  0  0  0  0  0  0  0
   41.8200   30.8180   39.7380 O   0  0  0  0  0  0  0  0  0  0  0  0
   42.2290   33.0230   39.9820 N   0  0  0  0  0  0  0  0  0  0  0  0
   43.1210   33.9800   40.2700 C   0  0  0  0  0  0  0  0  0  0  0  0
   42.8070   35.1940   40.2650 O   0  0  0  0  0  0  0  0  0  0  0  0
   40.8870   33.4110   39.6600 C   0  0  0  0  0  0  0  0  0  0  0  0
   39.7980   33.5190   40.4870 C   0  0  0  0  0  0  0  0  0  0  0  0
   38.6060   33.9190   39.9210 C   0  0  0  0  0  0  0  0  0  0  0  0
   38.5160   34.1930   38.5910 C   0  0  0  0  0  0  0  0  0  0  0  0
   39.6300   34.0790   37.7610 C   0  0  0  0  0  0  0  0  0  0  0  0
   40.7940   33.6850   38.3400 N   0  0  0  0  0  0  0  0  0  0  0  0
   46.3430   34.3340   41.9700 C   0  0  2  0  0  0  0  0  0  0  0  0
   44.4680   35.9500   44.8110 C   0  0  0  0  0  0  0  0  0  0  0  0
   45.0010   35.7240   43.5250 C   0  0  0  0  0  0  0  0  0  0  0  0
   45.7750   34.5760   43.3050 C   0  0  0  0  0  0  0  0  0  0  0  0
   45.9590   33.7470   44.3760 N   0  0  0  0  0  0  0  0  0  0  0  0
   45.4530   33.9630   45.5950 C   0  0  0  0  0  0  0  0  0  0  0  0
   44.7100   35.0610   45.8120 N   0  0  0  0  0  0  0  0  0  0  0  0
   47.6390   35.1630   41.9230 C   0  0  0  0  0  0  0  0  0  0  0  0
   48.8010   34.2480   41.8640 C   0  0  0  0  0  0  0  0  0  0  0  0
   50.0000   34.2980   42.5400 C   0  0  0  0  0  0  0  0  0  0  0  0
   50.9560   33.3250   42.3430 C   0  0  0  0  0  0  0  0  0  0  0  0
   50.7790   32.2630   41.4790 C   0  0  0  0  0  0  0  0  0  0  0  0
   49.5650   32.2500   40.8240 C   0  0  0  0  0  0  0  0  0  0  0  0
   48.6290   33.1980   41.0110 N   0  0  0  0  0  0  0  0  0  0  0  0
   44.9187   35.5976   41.1326 H   0  0  0  0  0  0  0  0  0  0  0  0
   46.0441   34.6679   39.9766 H   0  0  0  0  0  0  0  0  0  0  0  0
   45.8678   32.1920   40.8632 H   0  0  0  0  0  0  0  0  0  0  0  0
   44.2304   30.3244   40.3278 H   0  0  0  0  0  0  0  0  0  0  0  0
   39.8728   33.2949   41.5613 H   0  0  0  0  0  0  0  0  0  0  0  0
   37.7127   34.0183   40.5552 H   0  0  0  0  0  0  0  0  0  0  0  0
   37.5519   34.5084   38.1656 H   0  0  0  0  0  0  0  0  0  0  0  0
   39.5693   34.2984   36.6848 H   0  0  0  0  0  0  0  0  0  0  0  0
   46.5493   33.2647   41.8148 H   0  0  0  0  0  0  0  0  0  0  0  0
   43.8572   36.8442   45.0045 H   0  0  0  0  0  0  0  0  0  0  0  0
   44.8126   36.4365   42.7084 H   0  0  0  0  0  0  0  0  0  0  0  0
   45.6430   33.2498   46.4106 H   0  0  0  0  0  0  0  0  0  0  0  0
   47.6319   35.8064   41.0308 H   0  0  0  0  0  0  0  0  0  0  0  0
   47.7087   35.7908   42.8236 H   0  0  0  0  0  0  0  0  0  0  0  0
   50.1961   35.1212   43.2428 H   0  0  0  0  0  0  0  0  0  0  0  0
   51.9023   33.3979   42.8991 H   0  0  0  0  0  0  0  0  0  0  0  0
   51.5450   31.4887   41.3251 H   0  0  0  0  0  0  0  0  0  0  0  0
   49.3538   31.4313   40.1203 H   0  0  0  0  0  0  0  0  0  0  0  0
  1 16  1  0
  2  3  1  0
  2  1  1  0
  4  3  2  0
  5  4  1  0
  6  5  2  0
  7  5  1  0
  7  8  1  0
  8  2  1  0
  9  8  2  0
 10  7  1  0
 10 11  2  0
 12 11  1  0
 13 12  2  0
 14 15  2  0
 14 13  1  0
 15 10  1  0
 16 19  1  0
 17 22  2  0
 18 17  1  0
 19 18  2  0
 19 20  1  0
 20 21  2  0
 21 22  1  0
 23 16  1  0
 24 23  1  0
 24 25  2  0
 26 25  1  0
 27 26  2  0
 28 29  2  0
 28 27  1  0
 29 24  1  0
  1 30  1  0
  1 31  1  0
  3 32  1  0
  4 33  1  0
 11 34  1  0
 12 35  1  0
 13 36  1  0
 14 37  1  0
 16 38  1  1
 17 39  1  0
 18 40  1  0
 21 41  1  0
 23 42  1  0
 23 43  1  0
 25 44  1  0
 26 45  1  0
 27 46  1  0
 28 47  1  0
M  ISO  8  30   8  31   8  32  14  33  14  34  14  35  14  36  14  37  14
M  ISO  8  38   8  39  14  40  14  41  14  42   8  43   8  44  14  45  14
M  ISO  2  46  14  47  14
M  END
>  <minimizedAffinity>  (1) 
-6.67321968

>  <minimizedRMSD>  (1) 
1.15966868

$$$$
