
     RDKit          3D

 45 48  0  0  1  0  0  0  0  0999 V2000
   45.7010   34.6860   40.9740 C   0  0  0  0  0  0  0  0  0  0  0  0
   44.6760   33.7750   40.6660 N   0  0  0  0  0  0  0  0  0  0  0  0
   45.0740   32.4780   40.6690 C   0  0  0  0  0  0  0  0  0  0  0  0
   44.1450   31.4570   40.3560 C   0  0  0  0  0  0  0  0  0  0  0  0
   42.8640   31.8450   40.0600 C   0  0  0  0  0  0  0  0  0  0  0  0
   42.0370   30.9410   39.7800 O   0  0  0  0  0  0  0  0  0  0  0  0
   42.4840   33.1360   40.0620 N   0  0  0  0  0  0  0  0  0  0  0  0
   43.4010   34.0670   40.3640 C   0  0  0  0  0  0  0  0  0  0  0  0
   43.1070   35.2870   40.3840 O   0  0  0  0  0  0  0  0  0  0  0  0
   41.1480   33.5510   39.7520 C   0  0  0  0  0  0  0  0  0  0  0  0
   40.0750   33.7030   40.5960 C   0  0  0  0  0  0  0  0  0  0  0  0
   38.8920   34.1190   40.0380 C   0  0  0  0  0  0  0  0  0  0  0  0
   38.7870   34.3690   38.7050 C   0  0  0  0  0  0  0  0  0  0  0  0
   39.8820   34.2100   37.8640 C   0  0  0  0  0  0  0  0  0  0  0  0
   41.0500   33.7970   38.4280 N   0  0  0  0  0  0  0  0  0  0  0  0
   46.5550   34.3930   42.1300 C   0  0  2  0  0  0  0  0  0  0  0  0
   44.4660   35.9740   44.8250 C   0  0  0  0  0  0  0  0  0  0  0  0
   45.0970   35.7380   43.5890 C   0  0  0  0  0  0  0  0  0  0  0  0
   45.9040   34.6080   43.4210 C   0  0  0  0  0  0  0  0  0  0  0  0
   46.0310   33.7820   44.4980 N   0  0  0  0  0  0  0  0  0  0  0  0
   45.4380   33.9890   45.6840 C   0  0  0  0  0  0  0  0  0  0  0  0
   44.6550   35.0840   45.8460 N   0  0  0  0  0  0  0  0  0  0  0  0
   47.8500   35.2260   42.1690 C   0  0  0  0  0  0  0  0  0  0  0  0
   48.9730   34.2670   42.0420 C   0  0  0  0  0  0  0  0  0  0  0  0
   49.2250   33.1370   41.2580 C   0  0  0  0  0  0  0  0  0  0  0  0
   50.4290   32.6430   41.5480 N   0  0  0  0  0  0  0  0  0  0  0  0
   51.0020   33.4080   42.5090 C   0  0  0  0  0  0  0  0  0  0  0  0
   50.1040   34.3710   42.7830 N   0  0  0  0  0  0  0  0  0  0  0  0
   45.2279   35.6624   41.1553 H   0  0  0  0  0  0  0  0  0  0  0  0
   46.3804   34.6393   40.1102 H   0  0  0  0  0  0  0  0  0  0  0  0
   46.1151   32.2208   40.9138 H   0  0  0  0  0  0  0  0  0  0  0  0
   44.4386   30.3969   40.3505 H   0  0  0  0  0  0  0  0  0  0  0  0
   40.1602   33.4999   41.6737 H   0  0  0  0  0  0  0  0  0  0  0  0
   38.0105   34.2530   40.6821 H   0  0  0  0  0  0  0  0  0  0  0  0
   37.8247   34.7007   38.2880 H   0  0  0  0  0  0  0  0  0  0  0  0
   39.8077   34.4101   36.7849 H   0  0  0  0  0  0  0  0  0  0  0  0
   46.7796   33.3259   41.9853 H   0  0  0  0  0  0  0  0  0  0  0  0
   43.8307   36.8606   44.9674 H   0  0  0  0  0  0  0  0  0  0  0  0
   44.9555   36.4419   42.7557 H   0  0  0  0  0  0  0  0  0  0  0  0
   45.5851   33.2806   46.5126 H   0  0  0  0  0  0  0  0  0  0  0  0
   47.8661   35.9423   41.3343 H   0  0  0  0  0  0  0  0  0  0  0  0
   47.9236   35.8023   43.1031 H   0  0  0  0  0  0  0  0  0  0  0  0
   48.5329   32.7179   40.5128 H   0  0  0  0  0  0  0  0  0  0  0  0
   51.9922   33.2703   42.9678 H   0  0  0  0  0  0  0  0  0  0  0  0
   50.2592   35.1106   43.4829 H   0  0  0  0  0  0  0  0  0  0  0  0
  1 16  1  0
  2  3  1  0
  2  1  1  0
  4  3  2  0
  5  7  1  0
  5  4  1  0
  6  5  2  0
  7  8  1  0
  8  9  2  0
  8  2  1  0
 10  7  1  0
 10 11  2  0
 12 11  1  0
 13 12  2  0
 14 15  2  0
 14 13  1  0
 15 10  1  0
 16 23  1  0
 16 19  1  0
 17 22  2  0
 18 17  1  0
 19 18  2  0
 19 20  1  0
 20 21  2  0
 21 22  1  0
 24 23  1  0
 24 28  1  0
 25 26  1  0
 25 24  2  0
 26 27  2  0
 27 28  1  0
  1 29  1  0
  1 30  1  0
  3 31  1  0
  4 32  1  0
 11 33  1  0
 12 34  1  0
 13 35  1  0
 14 36  1  0
 16 37  1  6
 17 38  1  0
 18 39  1  0
 21 40  1  0
 23 41  1  0
 23 42  1  0
 25 43  1  0
 27 44  1  0
 28 45  1  0
M  ISO  8  29   8  30   8  31  14  32  14  33  14  34  14  35  14  36  14
M  ISO  8  37   8  38  14  39  14  40  14  41   8  42   8  43  14  44  14
M  ISO  1  45   9
M  END
>  <minimizedAffinity>  (1) 
-6.44882059

>  <minimizedRMSD>  (1) 
0.987612605

$$$$
