
     RDKit          3D

 47 49  0  0  1  0  0  0  0  0999 V2000
   44.9290   34.0880   43.3780 C   0  0  0  0  0  0  0  0  0  0  0  0
   45.9020   33.1680   43.8120 C   0  0  0  0  0  0  0  0  0  0  0  0
   46.2690   33.1770   45.1690 C   0  0  0  0  0  0  0  0  0  0  0  0
   45.6910   34.0530   46.0030 N   0  0  0  0  0  0  0  0  0  0  0  0
   44.7640   34.9340   45.5930 C   0  0  0  0  0  0  0  0  0  0  0  0
   44.4020   34.9360   44.3000 N   0  0  0  0  0  0  0  0  0  0  0  0
   44.4710   34.2400   42.0420 C   0  0  0  0  0  0  0  0  0  0  0  0
   43.2100   33.3680   41.7670 C   0  0  0  0  0  0  0  0  0  0  0  0
   42.7750   34.0020   40.4170 C   0  0  0  0  0  0  0  0  0  0  0  0
   43.1870   35.4320   40.5120 C   0  0  0  0  0  0  0  0  0  0  0  0
   43.8630   35.6140   41.8610 C   0  0  0  0  0  0  0  0  0  0  0  0
   46.4910   32.2200   42.8650 C   0  0  1  0  0  0  0  0  0  0  0  0
   45.7460   30.9320   42.7750 C   0  0  0  0  0  0  0  0  0  0  0  0
   46.8290   32.8910   41.6030 C   0  0  0  0  0  0  0  0  0  0  0  0
   48.3100   33.1840   41.6020 N   0  0  0  0  0  0  0  0  0  0  0  0
   48.5170   34.2890   42.5620 C   0  0  0  0  0  0  0  0  0  0  0  0
   49.9300   34.7580   42.3070 C   0  0  0  0  0  0  0  0  0  0  0  0
   50.9370   33.6530   42.5050 C   0  0  0  0  0  0  0  0  0  0  0  0
   50.4880   32.3430   41.9000 C   0  0  0  0  0  0  0  0  0  0  0  0
   49.0270   32.0880   42.2150 C   0  0  0  0  0  0  0  0  0  0  0  0
   47.0246   32.4707   45.5436 H   0  0  0  0  0  0  0  0  0  0  0  0
   44.3098   35.6407   46.3031 H   0  0  0  0  0  0  0  0  0  0  0  0
   45.3409   34.0041   41.4114 H   0  0  0  0  0  0  0  0  0  0  0  0
   43.4593   32.3018   41.6620 H   0  0  0  0  0  0  0  0  0  0  0  0
   42.4483   33.3694   42.5606 H   0  0  0  0  0  0  0  0  0  0  0  0
   41.6859   33.9213   40.2851 H   0  0  0  0  0  0  0  0  0  0  0  0
   43.2349   33.4958   39.5555 H   0  0  0  0  0  0  0  0  0  0  0  0
   43.8896   35.6768   39.7018 H   0  0  0  0  0  0  0  0  0  0  0  0
   42.3161   36.0973   40.4177 H   0  0  0  0  0  0  0  0  0  0  0  0
   44.6326   36.3993   41.8286 H   0  0  0  0  0  0  0  0  0  0  0  0
   43.1940   35.9337   42.6735 H   0  0  0  0  0  0  0  0  0  0  0  0
   47.4585   31.8738   43.2575 H   0  0  0  0  0  0  0  0  0  0  0  0
   45.5314   30.5610   43.7881 H   0  0  0  0  0  0  0  0  0  0  0  0
   44.8010   31.0920   42.2353 H   0  0  0  0  0  0  0  0  0  0  0  0
   46.3559   30.1926   42.2353 H   0  0  0  0  0  0  0  0  0  0  0  0
   46.5791   32.2361   40.7553 H   0  0  0  0  0  0  0  0  0  0  0  0
   46.2582   33.8264   41.5071 H   0  0  0  0  0  0  0  0  0  0  0  0
   47.7992   35.1021   42.3784 H   0  0  0  0  0  0  0  0  0  0  0  0
   48.3659   33.9695   43.6037 H   0  0  0  0  0  0  0  0  0  0  0  0
   50.1624   35.5788   43.0015 H   0  0  0  0  0  0  0  0  0  0  0  0
   49.9934   35.0917   41.2607 H   0  0  0  0  0  0  0  0  0  0  0  0
   51.8852   33.9519   42.0344 H   0  0  0  0  0  0  0  0  0  0  0  0
   51.0530   33.4978   43.5878 H   0  0  0  0  0  0  0  0  0  0  0  0
   51.0961   31.5253   42.3142 H   0  0  0  0  0  0  0  0  0  0  0  0
   50.6141   32.3926   40.8084 H   0  0  0  0  0  0  0  0  0  0  0  0
   48.8626   32.0799   43.3026 H   0  0  0  0  0  0  0  0  0  0  0  0
   48.6889   31.1123   41.8358 H   0  0  0  0  0  0  0  0  0  0  0  0
  1  2  1  0
  1  6  2  0
  2  3  2  0
  3  4  1  0
  5  4  2  0
  6  5  1  0
  7  1  1  0
  8  7  1  0
  9 10  1  0
  9  8  1  0
 10 11  1  0
 11  7  1  0
 12  2  1  0
 13 12  1  0
 14 12  1  0
 15 14  1  0
 15 20  1  0
 15 16  1  0
 17 18  1  0
 17 16  1  0
 19 20  1  0
 19 18  1  0
  3 21  1  0
  5 22  1  0
  7 23  1  0
  8 24  1  0
  8 25  1  0
  9 26  1  0
  9 27  1  0
 10 28  1  0
 10 29  1  0
 11 30  1  0
 11 31  1  0
 12 32  1  1
 13 33  1  0
 13 34  1  0
 13 35  1  0
 14 36  1  0
 14 37  1  0
 16 38  1  0
 16 39  1  0
 17 40  1  0
 17 41  1  0
 18 42  1  0
 18 43  1  0
 19 44  1  0
 19 45  1  0
 20 46  1  0
 20 47  1  0
M  ISO  8  21  14  22  14  23  13  24  13  25  13  26  13  27  13  28  13
M  ISO  8  29  13  30  13  31  13  32   8  33   8  34   8  35   8  36   8
M  ISO  8  37   8  38  13  39  13  40  13  41  13  42  13  43  13  44  13
M  ISO  3  45  13  46  13  47  13
M  END
>  <minimizedAffinity>  (1) 
-4.4552412

>  <minimizedRMSD>  (1) 
1.84045041

$$$$
