
     RDKit          3D

 45 48  0  0  1  0  0  0  0  0999 V2000
   45.7980   34.4930   40.9170 C   0  0  0  0  0  0  0  0  0  0  0  0
   44.7300   33.6250   40.6330 N   0  0  0  0  0  0  0  0  0  0  0  0
   45.0680   32.3110   40.6360 C   0  0  0  0  0  0  0  0  0  0  0  0
   44.1010   31.3240   40.3480 C   0  0  0  0  0  0  0  0  0  0  0  0
   42.8260   31.7690   40.0710 C   0  0  0  0  0  0  0  0  0  0  0  0
   41.9570   30.8970   39.8120 O   0  0  0  0  0  0  0  0  0  0  0  0
   42.5030   33.0640   40.0710 N   0  0  0  0  0  0  0  0  0  0  0  0
   43.4590   33.9680   40.3520 C   0  0  0  0  0  0  0  0  0  0  0  0
   43.2110   35.1940   40.3650 O   0  0  0  0  0  0  0  0  0  0  0  0
   41.1810   33.5340   39.7810 C   0  0  0  0  0  0  0  0  0  0  0  0
   40.1310   33.7400   40.6400 C   0  0  0  0  0  0  0  0  0  0  0  0
   38.9510   34.2040   40.0890 C   0  0  0  0  0  0  0  0  0  0  0  0
   38.8460   34.4470   38.7420 C   0  0  0  0  0  0  0  0  0  0  0  0
   39.9240   34.2320   37.8840 C   0  0  0  0  0  0  0  0  0  0  0  0
   41.0720   33.7760   38.4470 N   0  0  0  0  0  0  0  0  0  0  0  0
   46.5930   34.2170   42.1200 C   0  0  2  0  0  0  0  0  0  0  0  0
   44.5160   36.0510   44.6540 C   0  0  0  0  0  0  0  0  0  0  0  0
   45.1620   35.7190   43.4490 C   0  0  0  0  0  0  0  0  0  0  0  0
   45.9270   34.5450   43.3730 C   0  0  0  0  0  0  0  0  0  0  0  0
   45.9990   33.7810   44.4990 N   0  0  0  0  0  0  0  0  0  0  0  0
   45.3890   34.0860   45.6540 C   0  0  0  0  0  0  0  0  0  0  0  0
   44.6460   35.2240   45.7280 N   0  0  0  0  0  0  0  0  0  0  0  0
   47.9290   35.0000   42.1300 C   0  0  0  0  0  0  0  0  0  0  0  0
   48.9920   33.9880   41.8950 C   0  0  0  0  0  0  0  0  0  0  0  0
   50.2380   34.0670   42.5290 C   0  0  0  0  0  0  0  0  0  0  0  0
   51.0420   33.0130   42.1430 C   0  0  0  0  0  0  0  0  0  0  0  0
   50.2300   32.3210   41.2700 C   0  0  0  0  0  0  0  0  0  0  0  0
   49.0760   32.9070   41.1560 O   0  0  0  0  0  0  0  0  0  0  0  0
   45.3809   35.5054   41.0225 H   0  0  0  0  0  0  0  0  0  0  0  0
   46.4992   34.3585   40.0802 H   0  0  0  0  0  0  0  0  0  0  0  0
   46.1020   32.0131   40.8643 H   0  0  0  0  0  0  0  0  0  0  0  0
   44.3522   30.2531   40.3447 H   0  0  0  0  0  0  0  0  0  0  0  0
   40.2240   33.5447   41.7185 H   0  0  0  0  0  0  0  0  0  0  0  0
   38.0824   34.3813   40.7403 H   0  0  0  0  0  0  0  0  0  0  0  0
   37.8949   34.8178   38.3323 H   0  0  0  0  0  0  0  0  0  0  0  0
   39.8478   34.4227   36.8033 H   0  0  0  0  0  0  0  0  0  0  0  0
   46.7539   33.1303   42.0640 H   0  0  0  0  0  0  0  0  0  0  0  0
   43.9129   36.9680   44.7277 H   0  0  0  0  0  0  0  0  0  0  0  0
   45.0680   36.3758   42.5716 H   0  0  0  0  0  0  0  0  0  0  0  0
   45.4878   33.4261   46.5285 H   0  0  0  0  0  0  0  0  0  0  0  0
   47.9362   35.7560   41.3309 H   0  0  0  0  0  0  0  0  0  0  0  0
   48.0795   35.5327   43.0806 H   0  0  0  0  0  0  0  0  0  0  0  0
   50.5343   34.8570   43.2347 H   0  0  0  0  0  0  0  0  0  0  0  0
   52.0718   32.7832   42.4540 H   0  0  0  0  0  0  0  0  0  0  0  0
   50.5191   31.3999   40.7427 H   0  0  0  0  0  0  0  0  0  0  0  0
  1 16  1  0
  2  3  1  0
  2  1  1  0
  4  3  2  0
  5  7  1  0
  5  4  1  0
  6  5  2  0
  7  8  1  0
  8  9  2  0
  8  2  1  0
 10  7  1  0
 10 11  2  0
 12 11  1  0
 13 12  2  0
 14 15  2  0
 14 13  1  0
 15 10  1  0
 16 23  1  0
 16 19  1  0
 17 22  2  0
 18 17  1  0
 19 18  2  0
 19 20  1  0
 20 21  2  0
 21 22  1  0
 24 23  1  0
 24 25  2  0
 26 25  1  0
 27 26  2  0
 28 27  1  0
 28 24  1  0
  1 29  1  0
  1 30  1  0
  3 31  1  0
  4 32  1  0
 11 33  1  0
 12 34  1  0
 13 35  1  0
 14 36  1  0
 16 37  1  1
 17 38  1  0
 18 39  1  0
 21 40  1  0
 23 41  1  0
 23 42  1  0
 25 43  1  0
 26 44  1  0
 27 45  1  0
M  ISO  8  29   8  30   8  31  14  32  14  33  14  34  14  35  14  36  14
M  ISO  8  37   8  38  14  39  14  40  14  41   8  42   8  43  14  44  14
M  ISO  1  45  14
M  END
>  <minimizedAffinity>  (1) 
-6.47806215

>  <minimizedRMSD>  (1) 
0.868222475

$$$$
