
     RDKit          3D

 49 52  0  0  1  0  0  0  0  0999 V2000
   46.1160   34.0840   41.9690 C   0  0  1  0  0  0  0  0  0  0  0  0
   44.4400   35.9610   44.7730 C   0  0  0  0  0  0  0  0  0  0  0  0
   44.9080   35.6050   43.4910 C   0  0  0  0  0  0  0  0  0  0  0  0
   45.6250   34.4300   43.3180 C   0  0  0  0  0  0  0  0  0  0  0  0
   45.8500   33.6540   44.4320 N   0  0  0  0  0  0  0  0  0  0  0  0
   45.4080   33.9880   45.6580 C   0  0  0  0  0  0  0  0  0  0  0  0
   44.7080   35.1310   45.8330 N   0  0  0  0  0  0  0  0  0  0  0  0
   45.2210   34.5100   40.8930 C   0  0  0  0  0  0  0  0  0  0  0  0
   44.2420   33.5800   40.4440 N   0  0  0  0  0  0  0  0  0  0  0  0
   44.7230   32.3380   40.2160 C   0  0  0  0  0  0  0  0  0  0  0  0
   43.8540   31.3370   39.7370 C   0  0  0  0  0  0  0  0  0  0  0  0
   42.5450   31.6870   39.5240 C   0  0  0  0  0  0  0  0  0  0  0  0
   41.7710   30.7940   39.0960 O   0  0  0  0  0  0  0  0  0  0  0  0
   42.0850   32.9220   39.7550 N   0  0  0  0  0  0  0  0  0  0  0  0
   42.9410   33.8530   40.2120 C   0  0  0  0  0  0  0  0  0  0  0  0
   42.5720   35.0270   40.4480 O   0  0  0  0  0  0  0  0  0  0  0  0
   40.7230   33.3020   39.5370 C   0  0  0  0  0  0  0  0  0  0  0  0
   39.6650   33.2860   40.4100 C   0  0  0  0  0  0  0  0  0  0  0  0
   38.4400   33.7090   39.9400 C   0  0  0  0  0  0  0  0  0  0  0  0
   38.2860   34.1260   38.6600 C   0  0  0  0  0  0  0  0  0  0  0  0
   39.3660   34.1390   37.7760 C   0  0  0  0  0  0  0  0  0  0  0  0
   40.5640   33.7190   38.2590 N   0  0  0  0  0  0  0  0  0  0  0  0
   47.5270   34.6530   41.8900 C   0  0  0  0  0  0  0  0  0  0  0  0
   48.4720   33.6100   41.6560 N   0  0  0  0  0  0  0  0  0  0  0  0
   49.0910   32.9420   42.6420 C   0  0  0  0  0  0  0  0  0  0  0  0
   49.9940   31.9080   42.3670 C   0  0  0  0  0  0  0  0  0  0  0  0
   50.2420   31.5790   41.0290 C   0  0  0  0  0  0  0  0  0  0  0  0
   51.1640   30.5220   40.7970 N   0  0  0  0  0  0  0  0  0  0  0  0
   49.6050   32.2660   40.0530 N   0  0  0  0  0  0  0  0  0  0  0  0
   48.7350   33.2660   40.3600 C   0  0  0  0  0  0  0  0  0  0  0  0
   48.2390   33.7970   39.3100 O   0  0  0  0  0  0  0  0  0  0  0  0
   46.1379   32.9949   41.8161 H   0  0  0  0  0  0  0  0  0  0  0  0
   43.8690   36.8895   44.9211 H   0  0  0  0  0  0  0  0  0  0  0  0
   44.7048   36.2581   42.6295 H   0  0  0  0  0  0  0  0  0  0  0  0
   45.6159   33.3322   46.5163 H   0  0  0  0  0  0  0  0  0  0  0  0
   44.6876   35.4058   41.2437 H   0  0  0  0  0  0  0  0  0  0  0  0
   45.8798   34.6630   40.0255 H   0  0  0  0  0  0  0  0  0  0  0  0
   45.7829   32.1103   40.4025 H   0  0  0  0  0  0  0  0  0  0  0  0
   44.2115   30.3152   39.5417 H   0  0  0  0  0  0  0  0  0  0  0  0
   39.7898   32.9474   41.4491 H   0  0  0  0  0  0  0  0  0  0  0  0
   37.5722   33.7080   40.6160 H   0  0  0  0  0  0  0  0  0  0  0  0
   37.2966   34.4587   38.3130 H   0  0  0  0  0  0  0  0  0  0  0  0
   39.2521   34.4744   36.7346 H   0  0  0  0  0  0  0  0  0  0  0  0
   47.5788   35.3804   41.0665 H   0  0  0  0  0  0  0  0  0  0  0  0
   47.7673   35.1444   42.8443 H   0  0  0  0  0  0  0  0  0  0  0  0
   48.8845   33.2126   43.6880 H   0  0  0  0  0  0  0  0  0  0  0  0
   50.4965   31.3672   43.1825 H   0  0  0  0  0  0  0  0  0  0  0  0
   51.3866   30.2350   39.8332 H   0  0  0  0  0  0  0  0  0  0  0  0
   51.6094   30.0432   41.5928 H   0  0  0  0  0  0  0  0  0  0  0  0
  1  4  1  0
  2  7  2  0
  3  2  1  0
  4  3  2  0
  4  5  1  0
  5  6  2  0
  6  7  1  0
  8  1  1  0
  9  8  1  0
 10  9  1  0
 11 10  2  0
 12 11  1  0
 12 14  1  0
 13 12  2  0
 14 15  1  0
 15  9  1  0
 15 16  2  0
 17 14  1  0
 17 18  2  0
 19 18  1  0
 20 19  2  0
 21 22  2  0
 21 20  1  0
 22 17  1  0
 23  1  1  0
 24 23  1  0
 24 25  1  0
 26 25  2  0
 27 26  1  0
 28 27  1  0
 29 30  1  0
 29 27  2  0
 30 24  1  0
 31 30  2  0
  1 32  1  1
  2 33  1  0
  3 34  1  0
  6 35  1  0
  8 36  1  0
  8 37  1  0
 10 38  1  0
 11 39  1  0
 18 40  1  0
 19 41  1  0
 20 42  1  0
 21 43  1  0
 23 44  1  0
 23 45  1  0
 25 46  1  0
 26 47  1  0
 28 48  1  0
 28 49  1  0
M  ISO  8  32   8  33  14  34  14  35  14  36   8  37   8  38  14  39  14
M  ISO  8  40  14  41  14  42  14  43  14  44   8  45   8  46  14  47  14
M  END
>  <minimizedAffinity>  (1) 
-6.08114576

>  <minimizedRMSD>  (1) 
1.4159528

$$$$
