
     RDKit          3D

 29 30  0  0  0  0  0  0  0  0999 V2000
   46.0850   33.8510   45.2270 C   0  0  0  0  0  0  0  0  0  0  0  0
   46.4850   34.0360   43.8970 C   0  0  0  0  0  0  0  0  0  0  0  0
   45.8370   35.0120   43.1390 C   0  0  0  0  0  0  0  0  0  0  0  0
   44.8550   35.7300   43.7280 N   0  0  0  0  0  0  0  0  0  0  0  0
   44.4880   35.5280   45.0210 C   0  0  0  0  0  0  0  0  0  0  0  0
   45.1030   34.5930   45.7620 N   0  0  0  0  0  0  0  0  0  0  0  0
   46.7770   32.8130   46.0240 C   0  0  0  0  0  0  0  0  0  0  0  0
   45.8580   32.0500   46.9370 C   0  0  0  0  0  0  0  0  0  0  0  0
   46.1960   32.3440   48.3690 C   0  0  0  0  0  0  0  0  0  0  0  0
   45.4940   31.4850   49.3660 C   0  0  0  0  0  0  0  0  0  0  0  0
   45.0080   30.1750   48.9030 C   0  0  0  0  0  0  0  0  0  0  0  0
   44.9220   29.9140   47.4540 C   0  0  0  0  0  0  0  0  0  0  0  0
   45.9450   30.5900   46.5940 C   0  0  0  0  0  0  0  0  0  0  0  0
   47.2903   33.4266   43.4610 H   0  0  0  0  0  0  0  0  0  0  0  0
   46.1177   35.1921   42.0908 H   0  0  0  0  0  0  0  0  0  0  0  0
   43.6829   36.1338   45.4624 H   0  0  0  0  0  0  0  0  0  0  0  0
   47.2516   32.1012   45.3326 H   0  0  0  0  0  0  0  0  0  0  0  0
   47.5122   33.3281   46.6597 H   0  0  0  0  0  0  0  0  0  0  0  0
   44.8128   32.3636   46.7982 H   0  0  0  0  0  0  0  0  0  0  0  0
   47.2793   32.2055   48.5004 H   0  0  0  0  0  0  0  0  0  0  0  0
   45.8642   33.3752   48.5603 H   0  0  0  0  0  0  0  0  0  0  0  0
   46.1923   31.3040   50.1965 H   0  0  0  0  0  0  0  0  0  0  0  0
   44.5860   32.0455   49.6331 H   0  0  0  0  0  0  0  0  0  0  0  0
   45.6790   29.4140   49.3280 H   0  0  0  0  0  0  0  0  0  0  0  0
   43.9604   30.1498   49.2375 H   0  0  0  0  0  0  0  0  0  0  0  0
   45.0218   28.8290   47.3028 H   0  0  0  0  0  0  0  0  0  0  0  0
   43.9539   30.3305   47.1389 H   0  0  0  0  0  0  0  0  0  0  0  0
   45.7176   30.4312   45.5295 H   0  0  0  0  0  0  0  0  0  0  0  0
   46.9543   30.1894   46.7699 H   0  0  0  0  0  0  0  0  0  0  0  0
  1  6  1  0
  1  7  1  0
  2  1  2  0
  3  4  2  0
  3  2  1  0
  4  5  1  0
  5  6  2  0
  7  8  1  0
  8  9  1  0
  9 10  1  0
 11 10  1  0
 12 11  1  0
 13  8  1  0
 13 12  1  0
  2 14  1  0
  3 15  1  0
  5 16  1  0
  7 17  1  0
  7 18  1  0
  8 19  1  0
  9 20  1  0
  9 21  1  0
 10 22  1  0
 10 23  1  0
 11 24  1  0
 11 25  1  0
 12 26  1  0
 12 27  1  0
 13 28  1  0
 13 29  1  0
M  ISO  8  14  14  15  14  16  14  17   8  18   8  19  13  20  13  21  13
M  ISO  8  22  13  23  13  24  13  25  13  26  13  27  13  28  13  29  13
M  END
>  <minimizedAffinity>  (1) 
-4.63011456

>  <minimizedRMSD>  (1) 
6.2543211

$$$$
