
     RDKit          3D

 26 28  0  0  0  0  0  0  0  0999 V2000
   46.3740   34.6380   41.7790 C   0  0  0  0  0  0  0  0  0  0  0  0
   45.7870   34.8460   43.1240 C   0  0  0  0  0  0  0  0  0  0  0  0
   45.9790   33.8350   44.0690 C   0  0  0  0  0  0  0  0  0  0  0  0
   45.4300   34.0090   45.3590 C   0  0  0  0  0  0  0  0  0  0  0  0
   44.7380   35.1660   45.6050 N   0  0  0  0  0  0  0  0  0  0  0  0
   44.5820   36.1100   44.6560 C   0  0  0  0  0  0  0  0  0  0  0  0
   45.0960   35.9620   43.4260 N   0  0  0  0  0  0  0  0  0  0  0  0
   47.8250   34.4520   41.8610 N   0  0  0  0  0  0  0  0  0  0  0  0
   48.7680   35.2860   42.3380 C   0  0  0  0  0  0  0  0  0  0  0  0
   49.9740   34.6620   42.1980 N   0  0  0  0  0  0  0  0  0  0  0  0
   49.7740   33.4560   41.6400 C   0  0  0  0  0  0  0  0  0  0  0  0
   50.5640   32.3990   41.2600 C   0  0  0  0  0  0  0  0  0  0  0  0
   50.0720   31.2740   40.7050 N   0  0  0  0  0  0  0  0  0  0  0  0
   48.7330   31.1500   40.4970 C   0  0  0  0  0  0  0  0  0  0  0  0
   47.9390   32.1740   40.8620 N   0  0  0  0  0  0  0  0  0  0  0  0
   48.4180   33.3070   41.4190 C   0  0  0  0  0  0  0  0  0  0  0  0
   51.9650   32.4640   41.4480 N   0  0  0  0  0  0  0  0  0  0  0  0
   46.1590   35.5167   41.1532 H   0  0  0  0  0  0  0  0  0  0  0  0
   45.9295   33.7329   41.3394 H   0  0  0  0  0  0  0  0  0  0  0  0
   46.5437   32.9259   43.8148 H   0  0  0  0  0  0  0  0  0  0  0  0
   45.5536   33.2428   46.1385 H   0  0  0  0  0  0  0  0  0  0  0  0
   44.0194   37.0243   44.8960 H   0  0  0  0  0  0  0  0  0  0  0  0
   48.5980   36.2864   42.7625 H   0  0  0  0  0  0  0  0  0  0  0  0
   48.3119   30.2402   40.0442 H   0  0  0  0  0  0  0  0  0  0  0  0
   52.5600   31.6727   41.1639 H   0  0  0  0  0  0  0  0  0  0  0  0
   52.3898   33.3026   41.8689 H   0  0  0  0  0  0  0  0  0  0  0  0
  1  8  1  0
  1  2  1  0
  2  7  1  0
  2  3  2  0
  3  4  1  0
  4  5  2  0
  6  5  1  0
  7  6  2  0
  8  9  1  0
 10  9  2  0
 11 10  1  0
 12 17  1  0
 12 11  2  0
 13 12  1  0
 14 13  2  0
 14 15  1  0
 15 16  2  0
 16 11  1  0
 16  8  1  0
  1 18  1  0
  1 19  1  0
  3 20  1  0
  4 21  1  0
  6 22  1  0
  9 23  1  0
 14 24  1  0
 17 25  1  0
 17 26  1  0
M  ISO  7  18   8  19   8  20  14  21  14  22  14  23  14  24  14
M  END
>  <minimizedAffinity>  (1) 
-4.75386143

>  <minimizedRMSD>  (1) 
2.0217638

$$$$
