
     RDKit          3D

 22 23  0  0  0  0  0  0  0  0999 V2000
   47.4450   34.9700   41.8960 C   0  0  0  0  0  0  0  0  0  0  0  0
   46.4810   35.0050   43.0190 C   0  0  0  0  0  0  0  0  0  0  0  0
   46.5570   33.9630   43.9680 C   0  0  0  0  0  0  0  0  0  0  0  0
   45.6440   33.9830   45.0460 C   0  0  0  0  0  0  0  0  0  0  0  0
   44.7500   34.9970   45.1080 N   0  0  0  0  0  0  0  0  0  0  0  0
   44.7110   35.9810   44.1730 C   0  0  0  0  0  0  0  0  0  0  0  0
   45.5710   35.9980   43.1220 N   0  0  0  0  0  0  0  0  0  0  0  0
   46.9530   34.2940   40.6920 C   0  0  0  0  0  0  0  0  0  0  0  0
   47.7890   34.1240   39.6070 C   0  0  0  0  0  0  0  0  0  0  0  0
   47.3070   33.4760   38.4650 C   0  0  0  0  0  0  0  0  0  0  0  0
   45.9940   33.0160   38.4440 C   0  0  0  0  0  0  0  0  0  0  0  0
   45.1860   33.2080   39.5580 C   0  0  0  0  0  0  0  0  0  0  0  0
   45.6700   33.8330   40.6440 N   0  0  0  0  0  0  0  0  0  0  0  0
   47.6984   36.0065   41.6285 H   0  0  0  0  0  0  0  0  0  0  0  0
   48.3123   34.3914   42.2468 H   0  0  0  0  0  0  0  0  0  0  0  0
   47.3034   33.1608   43.8714 H   0  0  0  0  0  0  0  0  0  0  0  0
   45.6594   33.1957   45.8141 H   0  0  0  0  0  0  0  0  0  0  0  0
   43.9649   36.7836   44.2692 H   0  0  0  0  0  0  0  0  0  0  0  0
   48.8242   34.4945   39.6401 H   0  0  0  0  0  0  0  0  0  0  0  0
   47.9599   33.3314   37.5916 H   0  0  0  0  0  0  0  0  0  0  0  0
   45.5992   32.5049   37.5535 H   0  0  0  0  0  0  0  0  0  0  0  0
   44.1469   32.8471   39.5505 H   0  0  0  0  0  0  0  0  0  0  0  0
  1  2  1  0
  2  7  1  0
  2  3  2  0
  3  4  1  0
  4  5  2  0
  6  5  1  0
  7  6  2  0
  8  1  1  0
  9  8  2  0
 10  9  1  0
 11 10  2  0
 11 12  1  0
 12 13  2  0
 13  8  1  0
  1 14  1  0
  1 15  1  0
  3 16  1  0
  4 17  1  0
  6 18  1  0
  9 19  1  0
 10 20  1  0
 11 21  1  0
 12 22  1  0
M  ISO  8  14   8  15   8  16  14  17  14  18  14  19  14  20  14  21  14
M  ISO  1  22  14
M  END
>  <minimizedAffinity>  (1) 
-4.01000595

>  <minimizedRMSD>  (1) 
0.80473572

$$$$
