
     RDKit          3D

 20 21  0  0  0  0  0  0  0  0999 V2000
   46.8540   34.9790   41.9790 C   0  0  0  0  0  0  0  0  0  0  0  0
   46.0890   35.0000   43.2530 C   0  0  0  0  0  0  0  0  0  0  0  0
   46.2690   33.9320   44.1450 C   0  0  0  0  0  0  0  0  0  0  0  0
   45.5540   33.9470   45.3440 C   0  0  0  0  0  0  0  0  0  0  0  0
   44.7160   34.9970   45.5870 N   0  0  0  0  0  0  0  0  0  0  0  0
   44.5710   36.0070   44.7000 C   0  0  0  0  0  0  0  0  0  0  0  0
   45.2510   36.0230   43.5280 N   0  0  0  0  0  0  0  0  0  0  0  0
   46.0220   34.3060   40.9900 N   0  0  0  0  0  0  0  0  0  0  0  0
   44.7100   34.2680   40.8200 N   0  0  0  0  0  0  0  0  0  0  0  0
   44.3960   33.5070   39.7580 C   0  0  0  0  0  0  0  0  0  0  0  0
   45.5660   33.0170   39.2000 C   0  0  0  0  0  0  0  0  0  0  0  0
   46.5630   33.5390   39.9990 C   0  0  0  0  0  0  0  0  0  0  0  0
   47.0714   36.0067   41.6526 H   0  0  0  0  0  0  0  0  0  0  0  0
   47.8122   34.4541   42.1066 H   0  0  0  0  0  0  0  0  0  0  0  0
   46.9546   33.1056   43.9062 H   0  0  0  0  0  0  0  0  0  0  0  0
   45.6632   33.1325   46.0752 H   0  0  0  0  0  0  0  0  0  0  0  0
   43.8855   36.8345   44.9350 H   0  0  0  0  0  0  0  0  0  0  0  0
   43.3783   33.3061   39.3920 H   0  0  0  0  0  0  0  0  0  0  0  0
   45.6750   32.3628   38.3225 H   0  0  0  0  0  0  0  0  0  0  0  0
   47.6394   33.3622   39.8574 H   0  0  0  0  0  0  0  0  0  0  0  0
  1  2  1  0
  2  7  1  0
  2  3  2  0
  3  4  1  0
  4  5  2  0
  6  5  1  0
  7  6  2  0
  8  1  1  0
  9  8  1  0
 10  9  2  0
 11 10  1  0
 11 12  2  0
 12  8  1  0
  1 13  1  0
  1 14  1  0
  3 15  1  0
  4 16  1  0
  6 17  1  0
 10 18  1  0
 11 19  1  0
 12 20  1  0
M  ISO  8  13   8  14   8  15  14  16  14  17  14  18  14  19  14  20  14
M  END
>  <minimizedAffinity>  (1) 
-3.6129384

>  <minimizedRMSD>  (1) 
0.474585086

$$$$
