
     RDKit          3D

 20 21  0  0  0  0  0  0  0  0999 V2000
   46.2100   34.9840   43.1610 C   0  0  0  0  0  0  0  0  0  0  0  0
   46.3510   33.9490   44.0910 C   0  0  0  0  0  0  0  0  0  0  0  0
   45.5670   33.9940   45.2660 C   0  0  0  0  0  0  0  0  0  0  0  0
   44.7130   35.0500   45.4260 N   0  0  0  0  0  0  0  0  0  0  0  0
   44.6160   36.0240   44.4960 C   0  0  0  0  0  0  0  0  0  0  0  0
   45.3450   36.0150   43.3660 N   0  0  0  0  0  0  0  0  0  0  0  0
   47.0420   34.9140   41.9380 C   0  0  0  0  0  0  0  0  0  0  0  0
   46.3670   34.2170   40.8750 N   0  0  0  0  0  0  0  0  0  0  0  0
   47.1040   33.6820   39.8600 C   0  0  0  0  0  0  0  0  0  0  0  0
   46.1760   33.0890   39.0140 C   0  0  0  0  0  0  0  0  0  0  0  0
   44.9290   33.2570   39.4920 N   0  0  0  0  0  0  0  0  0  0  0  0
   45.0680   33.9570   40.6420 C   0  0  0  0  0  0  0  0  0  0  0  0
   47.0536   33.1217   43.9126 H   0  0  0  0  0  0  0  0  0  0  0  0
   45.6414   33.2042   46.0281 H   0  0  0  0  0  0  0  0  0  0  0  0
   43.9157   36.8545   44.6688 H   0  0  0  0  0  0  0  0  0  0  0  0
   47.2721   35.9366   41.6042 H   0  0  0  0  0  0  0  0  0  0  0  0
   47.9623   34.3623   42.1801 H   0  0  0  0  0  0  0  0  0  0  0  0
   48.1967   33.7134   39.7378 H   0  0  0  0  0  0  0  0  0  0  0  0
   46.4250   32.5568   38.0841 H   0  0  0  0  0  0  0  0  0  0  0  0
   44.2377   34.2686   41.2928 H   0  0  0  0  0  0  0  0  0  0  0  0
  1  6  1  0
  1  2  2  0
  2  3  1  0
  3  4  2  0
  5  4  1  0
  6  5  2  0
  7  1  1  0
  8  7  1  0
  9  8  1  0
 10 11  1  0
 10  9  2  0
 11 12  2  0
 12  8  1  0
  2 13  1  0
  3 14  1  0
  5 15  1  0
  7 16  1  0
  7 17  1  0
  9 18  1  0
 10 19  1  0
 12 20  1  0
M  ISO  8  13  14  14  14  15  14  16   8  17   8  18  14  19  14  20  14
M  END
>  <minimizedAffinity>  (1) 
-3.62364316

>  <minimizedRMSD>  (1) 
0.264888108

$$$$
