
     RDKit          3D

 37 39  0  0  0  0  0  0  0  0999 V2000
   46.0200   35.2260   42.5240 C   0  0  0  0  0  0  0  0  0  0  0  0
   44.9390   34.9100   41.5810 C   0  0  0  0  0  0  0  0  0  0  0  0
   43.7410   35.5550   41.5020 C   0  0  0  0  0  0  0  0  0  0  0  0
   42.7420   35.2270   40.5950 C   0  0  0  0  0  0  0  0  0  0  0  0
   43.0870   34.1680   39.7710 C   0  0  0  0  0  0  0  0  0  0  0  0
   44.2490   33.4680   39.7760 C   0  0  0  0  0  0  0  0  0  0  0  0
   45.1840   33.8510   40.6980 C   0  0  0  0  0  0  0  0  0  0  0  0
   46.7520   32.9510   40.7480 S   0  0  0  0  0  0  0  0  0  0  0  0
   45.7640   34.7870   43.9110 C   0  0  0  0  0  0  0  0  0  0  0  0
   44.7590   35.4750   44.6310 C   0  0  0  0  0  0  0  0  0  0  0  0
   44.5070   35.0650   45.9540 C   0  0  0  0  0  0  0  0  0  0  0  0
   45.2310   34.0430   46.4690 N   0  0  0  0  0  0  0  0  0  0  0  0
   46.1860   33.4130   45.7360 C   0  0  0  0  0  0  0  0  0  0  0  0
   46.4590   33.7770   44.4610 N   0  0  0  0  0  0  0  0  0  0  0  0
   46.9420   32.2980   46.3680 C   0  0  0  0  0  0  0  0  0  0  0  0
   46.5630   32.1740   47.8260 C   0  0  0  0  0  0  0  0  0  0  0  0
   45.8200   30.8750   47.9840 C   0  0  0  0  0  0  0  0  0  0  0  0
   45.4630   30.4590   46.5790 C   0  0  0  0  0  0  0  0  0  0  0  0
   46.6260   30.9590   45.7790 C   0  0  0  0  0  0  0  0  0  0  0  0
   46.1651   36.3164   42.5289 H   0  0  0  0  0  0  0  0  0  0  0  0
   46.9093   34.6781   42.1791 H   0  0  0  0  0  0  0  0  0  0  0  0
   43.5542   36.3855   42.1987 H   0  0  0  0  0  0  0  0  0  0  0  0
   41.7776   35.7529   40.5368 H   0  0  0  0  0  0  0  0  0  0  0  0
   42.3346   33.8604   39.0299 H   0  0  0  0  0  0  0  0  0  0  0  0
   44.4294   32.6380   39.0770 H   0  0  0  0  0  0  0  0  0  0  0  0
   47.1169   32.7415   42.0518 H   0  0  0  0  0  0  0  0  0  0  0  0
   44.1946   36.3009   44.1733 H   0  0  0  0  0  0  0  0  0  0  0  0
   43.7362   35.5656   46.5583 H   0  0  0  0  0  0  0  0  0  0  0  0
   48.0016   32.5465   46.2082 H   0  0  0  0  0  0  0  0  0  0  0  0
   47.4679   32.1690   48.4515 H   0  0  0  0  0  0  0  0  0  0  0  0
   45.9372   33.0223   48.1402 H   0  0  0  0  0  0  0  0  0  0  0  0
   46.4604   30.1183   48.4608 H   0  0  0  0  0  0  0  0  0  0  0  0
   44.9310   30.9814   48.6230 H   0  0  0  0  0  0  0  0  0  0  0  0
   45.3694   29.3658   46.5012 H   0  0  0  0  0  0  0  0  0  0  0  0
   44.4964   30.8590   46.2388 H   0  0  0  0  0  0  0  0  0  0  0  0
   46.3541   31.0561   44.7176 H   0  0  0  0  0  0  0  0  0  0  0  0
   47.4849   30.2729   45.8183 H   0  0  0  0  0  0  0  0  0  0  0  0
  1  9  1  0
  2  1  1  0
  3  2  2  0
  4  3  1  0
  5  6  1  0
  5  4  2  0
  6  7  2  0
  7  8  1  0
  7  2  1  0
  9 14  1  0
  9 10  2  0
 10 11  1  0
 11 12  2  0
 13 15  1  0
 13 12  1  0
 14 13  2  0
 15 16  1  0
 16 17  1  0
 18 17  1  0
 19 15  1  0
 19 18  1  0
  1 20  1  0
  1 21  1  0
  3 22  1  0
  4 23  1  0
  5 24  1  0
  6 25  1  0
  8 26  1  0
 10 27  1  0
 11 28  1  0
 15 29  1  0
 16 30  1  0
 16 31  1  0
 17 32  1  0
 17 33  1  0
 18 34  1  0
 18 35  1  0
 19 36  1  0
 19 37  1  0
M  ISO  8  20   8  21   8  22  14  23  14  24  14  25  14  26  11  27  14
M  ISO  8  28  14  29  13  30  13  31  13  32  13  33  13  34  13  35  13
M  ISO  2  36  13  37  13
M  END
>  <minimizedAffinity>  (1) 
-5.19221354

>  <minimizedRMSD>  (1) 
4.08102894

$$$$
