
     RDKit          3D

 25 26  0  0  0  0  0  0  0  0999 V2000
   46.4370   35.0720   42.3000 C   0  0  0  0  0  0  0  0  0  0  0  0
   45.6460   34.4720   41.2230 C   0  0  0  0  0  0  0  0  0  0  0  0
   44.2960   34.5900   41.0810 C   0  0  0  0  0  0  0  0  0  0  0  0
   43.5830   34.0050   40.0470 C   0  0  0  0  0  0  0  0  0  0  0  0
   44.3860   33.2760   39.1540 C   0  0  0  0  0  0  0  0  0  0  0  0
   45.7260   33.1150   39.2280 C   0  0  0  0  0  0  0  0  0  0  0  0
   46.3580   33.7260   40.2840 C   0  0  0  0  0  0  0  0  0  0  0  0
   48.1600   33.5410   40.4330 S   0  0  0  0  0  0  0  0  0  0  0  0
   46.1590   34.5380   43.6470 C   0  0  0  0  0  0  0  0  0  0  0  0
   46.8280   33.3620   44.0200 C   0  0  0  0  0  0  0  0  0  0  0  0
   46.5650   32.8490   45.3020 C   0  0  0  0  0  0  0  0  0  0  0  0
   45.6860   33.5050   46.1120 N   0  0  0  0  0  0  0  0  0  0  0  0
   45.0710   34.6310   45.7020 C   0  0  0  0  0  0  0  0  0  0  0  0
   45.2950   35.1600   44.4750 N   0  0  0  0  0  0  0  0  0  0  0  0
   44.1870   35.2410   46.5880 O   0  0  0  0  0  0  0  0  0  0  0  0
   46.2331   36.1529   42.3122 H   0  0  0  0  0  0  0  0  0  0  0  0
   47.4877   34.8293   42.0829 H   0  0  0  0  0  0  0  0  0  0  0  0
   43.7432   35.1807   41.8263 H   0  0  0  0  0  0  0  0  0  0  0  0
   42.4929   34.1020   39.9360 H   0  0  0  0  0  0  0  0  0  0  0  0
   43.8738   32.7882   38.3116 H   0  0  0  0  0  0  0  0  0  0  0  0
   46.2809   32.5263   38.4827 H   0  0  0  0  0  0  0  0  0  0  0  0
   48.5074   33.5053   41.7577 H   0  0  0  0  0  0  0  0  0  0  0  0
   47.5300   32.8618   43.3366 H   0  0  0  0  0  0  0  0  0  0  0  0
   47.0618   31.9303   45.6472 H   0  0  0  0  0  0  0  0  0  0  0  0
   43.7151   36.0703   46.3241 H   0  0  0  0  0  0  0  0  0  0  0  0
  1  9  1  0
  2  1  1  0
  3  2  2  0
  4  3  1  0
  5  6  1  0
  5  4  2  0
  6  7  2  0
  7  8  1  0
  7  2  1  0
  9 10  2  0
  9 14  1  0
 10 11  1  0
 11 12  2  0
 13 12  1  0
 13 15  1  0
 14 13  2  0
  1 16  1  0
  1 17  1  0
  3 18  1  0
  4 19  1  0
  5 20  1  0
  6 21  1  0
  8 22  1  0
 10 23  1  0
 11 24  1  0
 15 25  1  0
M  ISO  8  16   8  17   8  18  14  19  14  20  14  21  14  22  11  23  14
M  ISO  2  24  14  25   3
M  END
>  <minimizedAffinity>  (1) 
-4.8757391

>  <minimizedRMSD>  (1) 
1.03996706

$$$$
