
     RDKit          3D

 27 28  0  0  0  0  0  0  0  0999 V2000
   47.6650   35.0210   42.0980 C   0  0  0  0  0  0  0  0  0  0  0  0
   47.0840   34.3170   43.2360 C   0  0  0  0  0  0  0  0  0  0  0  0
   47.6190   33.2290   43.8550 C   0  0  0  0  0  0  0  0  0  0  0  0
   47.0220   32.5970   44.9350 C   0  0  0  0  0  0  0  0  0  0  0  0
   45.8210   33.1720   45.3370 C   0  0  0  0  0  0  0  0  0  0  0  0
   45.2240   34.2490   44.7780 C   0  0  0  0  0  0  0  0  0  0  0  0
   45.8710   34.8210   43.7160 C   0  0  0  0  0  0  0  0  0  0  0  0
   45.1050   36.2720   42.9320 S   0  0  0  0  0  0  0  0  0  0  0  0
   48.1510   34.1470   41.0070 C   0  0  0  0  0  0  0  0  0  0  0  0
   49.0340   33.1030   41.3560 C   0  0  0  0  0  0  0  0  0  0  0  0
   49.4840   32.2880   40.3110 C   0  0  0  0  0  0  0  0  0  0  0  0
   49.0670   32.5230   39.0400 N   0  0  0  0  0  0  0  0  0  0  0  0
   48.2210   33.5390   38.7690 C   0  0  0  0  0  0  0  0  0  0  0  0
   47.7600   34.3520   39.7350 N   0  0  0  0  0  0  0  0  0  0  0  0
   47.7640   33.7990   37.3780 C   0  0  0  0  0  0  0  0  0  0  0  0
   48.4130   32.8350   36.5970 F   0  0  0  0  0  0  0  0  0  0  0  0
   46.3900   33.6190   37.3360 F   0  0  0  0  0  0  0  0  0  0  0  0
   48.0790   35.0690   36.9530 F   0  0  0  0  0  0  0  0  0  0  0  0
   46.8979   35.6913   41.6829 H   0  0  0  0  0  0  0  0  0  0  0  0
   48.5470   35.5541   42.4825 H   0  0  0  0  0  0  0  0  0  0  0  0
   48.5732   32.8311   43.4793 H   0  0  0  0  0  0  0  0  0  0  0  0
   47.4598   31.7179   45.4305 H   0  0  0  0  0  0  0  0  0  0  0  0
   45.3078   32.7062   46.1912 H   0  0  0  0  0  0  0  0  0  0  0  0
   44.2697   34.6441   45.1564 H   0  0  0  0  0  0  0  0  0  0  0  0
   44.6527   37.1288   43.9006 H   0  0  0  0  0  0  0  0  0  0  0  0
   49.3523   32.9382   42.3960 H   0  0  0  0  0  0  0  0  0  0  0  0
   50.1749   31.4577   40.5189 H   0  0  0  0  0  0  0  0  0  0  0  0
  1  2  1  0
  2  7  1  0
  2  3  2  0
  3  4  1  0
  4  5  2  0
  6  5  1  0
  7  6  2  0
  8  7  1  0
  9 10  2  0
  9  1  1  0
 11 10  1  0
 12 11  2  0
 13 12  1  0
 13 14  2  0
 14  9  1  0
 15 13  1  0
 16 15  1  0
 17 15  1  0
 18 15  1  0
  1 19  1  0
  1 20  1  0
  3 21  1  0
  4 22  1  0
  5 23  1  0
  6 24  1  0
  8 25  1  0
 10 26  1  0
 11 27  1  0
M  ISO  8  19   8  20   8  21  14  22  14  23  14  24  14  25  11  26  14
M  ISO  1  27  14
M  END
>  <minimizedAffinity>  (1) 
-4.8316226

>  <minimizedRMSD>  (1) 
6.77050161

$$$$
