
     RDKit          3D

 27 28  0  0  0  0  0  0  0  0999 V2000
   46.7580   34.7930   41.8740 C   0  0  0  0  0  0  0  0  0  0  0  0
   45.8540   34.2640   40.8500 C   0  0  0  0  0  0  0  0  0  0  0  0
   44.5040   34.4420   40.8230 C   0  0  0  0  0  0  0  0  0  0  0  0
   43.6840   33.9210   39.8320 C   0  0  0  0  0  0  0  0  0  0  0  0
   44.3640   33.1920   38.8540 C   0  0  0  0  0  0  0  0  0  0  0  0
   45.6970   32.9760   38.8200 C   0  0  0  0  0  0  0  0  0  0  0  0
   46.4470   33.5210   39.8330 C   0  0  0  0  0  0  0  0  0  0  0  0
   48.2450   33.2470   39.8120 S   0  0  0  0  0  0  0  0  0  0  0  0
   46.5370   34.2570   43.2270 C   0  0  0  0  0  0  0  0  0  0  0  0
   47.2820   33.1190   43.6050 C   0  0  0  0  0  0  0  0  0  0  0  0
   47.0790   32.5990   44.8960 C   0  0  0  0  0  0  0  0  0  0  0  0
   46.1810   33.2120   45.7160 N   0  0  0  0  0  0  0  0  0  0  0  0
   45.5000   34.2950   45.2990 C   0  0  0  0  0  0  0  0  0  0  0  0
   45.6590   34.8330   44.0680 N   0  0  0  0  0  0  0  0  0  0  0  0
   44.5060   34.9740   46.2060 C   0  0  0  0  0  0  0  0  0  0  0  0
   46.6298   35.8848   41.9130 H   0  0  0  0  0  0  0  0  0  0  0  0
   47.7728   34.4861   41.5806 H   0  0  0  0  0  0  0  0  0  0  0  0
   44.0394   35.0294   41.6287 H   0  0  0  0  0  0  0  0  0  0  0  0
   42.5941   34.0692   39.8181 H   0  0  0  0  0  0  0  0  0  0  0  0
   43.7629   32.7566   38.0422 H   0  0  0  0  0  0  0  0  0  0  0  0
   46.1621   32.3883   38.0148 H   0  0  0  0  0  0  0  0  0  0  0  0
   48.7112   33.1760   41.0983 H   0  0  0  0  0  0  0  0  0  0  0  0
   47.9984   32.6538   42.9120 H   0  0  0  0  0  0  0  0  0  0  0  0
   47.6354   31.7135   45.2370 H   0  0  0  0  0  0  0  0  0  0  0  0
   44.7795   34.7872   47.2549 H   0  0  0  0  0  0  0  0  0  0  0  0
   44.5131   36.0568   46.0125 H   0  0  0  0  0  0  0  0  0  0  0  0
   43.4999   34.5736   46.0125 H   0  0  0  0  0  0  0  0  0  0  0  0
  1  9  1  0
  2  1  1  0
  3  2  2  0
  4  3  1  0
  5  4  2  0
  6  5  1  0
  6  7  2  0
  7  2  1  0
  8  7  1  0
  9 10  2  0
  9 14  1  0
 10 11  1  0
 11 12  2  0
 13 12  1  0
 13 15  1  0
 14 13  2  0
  1 16  1  0
  1 17  1  0
  3 18  1  0
  4 19  1  0
  5 20  1  0
  6 21  1  0
  8 22  1  0
 10 23  1  0
 11 24  1  0
 15 25  1  0
 15 26  1  0
 15 27  1  0
M  ISO  8  16   8  17   8  18  14  19  14  20  14  21  14  22  11  23  14
M  ISO  4  24  14  25   8  26   8  27   8
M  END
>  <minimizedAffinity>  (1) 
-3.83816814

>  <minimizedRMSD>  (1) 
1.2919023

$$$$
