
     RDKit          3D

 41 44  0  0  0  0  0  0  0  0999 V2000
   46.0930   34.5290   43.5280 C   0  0  0  0  0  0  0  0  0  0  0  0
   45.1780   35.6020   43.5290 C   0  0  0  0  0  0  0  0  0  0  0  0
   44.4660   35.8430   44.7040 C   0  0  0  0  0  0  0  0  0  0  0  0
   44.6660   35.0640   45.7760 N   0  0  0  0  0  0  0  0  0  0  0  0
   45.5650   34.0330   45.7280 C   0  0  0  0  0  0  0  0  0  0  0  0
   46.2650   33.7770   44.6130 N   0  0  0  0  0  0  0  0  0  0  0  0
   46.8550   34.2690   42.2820 C   0  0  0  0  0  0  0  0  0  0  0  0
   47.6840   33.0700   42.3100 C   0  0  0  0  0  0  0  0  0  0  0  0
   47.2070   31.8010   42.2630 C   0  0  0  0  0  0  0  0  0  0  0  0
   48.0220   30.6750   42.2920 C   0  0  0  0  0  0  0  0  0  0  0  0
   49.3760   30.9430   42.3750 C   0  0  0  0  0  0  0  0  0  0  0  0
   49.9250   32.1850   42.4250 C   0  0  0  0  0  0  0  0  0  0  0  0
   49.0520   33.2370   42.3910 C   0  0  0  0  0  0  0  0  0  0  0  0
   49.7600   34.9210   42.4560 S   0  0  0  0  0  0  0  0  0  0  0  0
   45.8050   33.1660   46.8780 C   0  0  0  0  0  0  0  0  0  0  0  0
   44.8990   32.8190   47.6920 O   0  0  0  0  0  0  0  0  0  0  0  0
   47.0540   32.6400   47.1850 O   0  0  0  0  0  0  0  0  0  0  0  0
   47.4150   31.3260   47.1180 C   0  0  0  0  0  0  0  0  0  0  0  0
   46.8980   30.5980   46.1170 N   0  0  0  0  0  0  0  0  0  0  0  0
   47.2250   29.2960   46.0100 C   0  0  0  0  0  0  0  0  0  0  0  0
   48.0660   28.6650   46.8750 N   0  0  0  0  0  0  0  0  0  0  0  0
   48.5900   29.3830   47.8820 C   0  0  0  0  0  0  0  0  0  0  0  0
   49.4530   28.7600   48.7820 C   0  0  0  0  0  0  0  0  0  0  0  0
   49.9630   29.5480   49.7970 C   0  0  0  0  0  0  0  0  0  0  0  0
   49.6720   30.8930   49.9700 C   0  0  0  0  0  0  0  0  0  0  0  0
   48.8110   31.4930   49.0650 C   0  0  0  0  0  0  0  0  0  0  0  0
   48.2820   30.7210   48.0290 C   0  0  0  0  0  0  0  0  0  0  0  0
   45.0310   36.2264   42.6354 H   0  0  0  0  0  0  0  0  0  0  0  0
   43.7424   36.6702   44.7506 H   0  0  0  0  0  0  0  0  0  0  0  0
   47.5095   35.1330   42.0948 H   0  0  0  0  0  0  0  0  0  0  0  0
   46.1081   34.1100   41.4903 H   0  0  0  0  0  0  0  0  0  0  0  0
   46.1186   31.6552   42.1986 H   0  0  0  0  0  0  0  0  0  0  0  0
   47.6212   29.6514   42.2521 H   0  0  0  0  0  0  0  0  0  0  0  0
   50.0622   30.0837   42.4027 H   0  0  0  0  0  0  0  0  0  0  0  0
   51.0127   32.3360   42.4893 H   0  0  0  0  0  0  0  0  0  0  0  0
   49.9191   35.2994   43.7631 H   0  0  0  0  0  0  0  0  0  0  0  0
   46.7915   28.7139   45.1834 H   0  0  0  0  0  0  0  0  0  0  0  0
   49.7149   27.6957   48.6894 H   0  0  0  0  0  0  0  0  0  0  0  0
   50.6470   29.0755   50.5173 H   0  0  0  0  0  0  0  0  0  0  0  0
   50.1112   31.4658   50.8001 H   0  0  0  0  0  0  0  0  0  0  0  0
   48.5494   32.5571   49.1610 H   0  0  0  0  0  0  0  0  0  0  0  0
  1  2  2  0
  1  6  1  0
  2  3  1  0
  3  4  2  0
  5  4  1  0
  5 15  1  0
  6  5  2  0
  7  8  1  0
  7  1  1  0
  8 13  2  0
  9 10  2  0
  9  8  1  0
 10 11  1  0
 11 12  2  0
 13 12  1  0
 13 14  1  0
 15 17  1  0
 15 16  2  0
 18 17  1  0
 18 27  1  0
 19 18  2  0
 20 19  1  0
 20 21  2  0
 21 22  1  0
 22 27  2  0
 22 23  1  0
 23 24  2  0
 24 25  1  0
 26 25  2  0
 27 26  1  0
  2 28  1  0
  3 29  1  0
  7 30  1  0
  7 31  1  0
  9 32  1  0
 10 33  1  0
 11 34  1  0
 12 35  1  0
 14 36  1  0
 20 37  1  0
 23 38  1  0
 24 39  1  0
 25 40  1  0
 26 41  1  0
M  ISO  8  28  14  29  14  30   8  31   8  32  14  33  14  34  14  35  14
M  ISO  6  36  11  37  14  38  14  39  14  40  14  41  14
M  END
>  <minimizedAffinity>  (1) 
-6.06460142

>  <minimizedRMSD>  (1) 
2.32283044

$$$$
