
     RDKit          3D

 33 34  0  0  1  0  0  0  0  0999 V2000
   45.6400   33.7350   43.5550 C   0  0  0  0  0  0  0  0  0  0  0  0
   46.7480   32.8780   43.6710 C   0  0  0  0  0  0  0  0  0  0  0  0
   47.2020   32.5370   44.9580 C   0  0  0  0  0  0  0  0  0  0  0  0
   46.5630   33.0450   46.0270 N   0  0  0  0  0  0  0  0  0  0  0  0
   45.5140   33.8590   45.9240 C   0  0  0  0  0  0  0  0  0  0  0  0
   45.0720   34.1890   44.7040 N   0  0  0  0  0  0  0  0  0  0  0  0
   45.0810   34.2080   42.3410 C   0  0  0  0  0  0  0  0  0  0  0  0
   43.7960   33.4160   41.9540 C   0  0  0  0  0  0  0  0  0  0  0  0
   43.2630   34.3640   40.8440 C   0  0  0  0  0  0  0  0  0  0  0  0
   43.6880   35.7300   41.2630 C   0  0  0  0  0  0  0  0  0  0  0  0
   44.4700   35.5770   42.5500 C   0  0  0  0  0  0  0  0  0  0  0  0
   47.4070   32.3580   42.4580 C   0  0  1  0  0  0  0  0  0  0  0  0
   46.6400   31.2660   41.8020 C   0  0  0  0  0  0  0  0  0  0  0  0
   47.8800   33.4750   41.6230 C   0  0  0  0  0  0  0  0  0  0  0  0
   48.4720   32.7260   39.9960 S   0  0  0  0  0  0  0  0  0  0  0  0
   48.0644   31.8667   45.0879 H   0  0  0  0  0  0  0  0  0  0  0  0
   45.0199   34.2529   46.8244 H   0  0  0  0  0  0  0  0  0  0  0  0
   45.8996   34.1466   41.6088 H   0  0  0  0  0  0  0  0  0  0  0  0
   44.0288   32.4135   41.5656 H   0  0  0  0  0  0  0  0  0  0  0  0
   43.0982   33.2077   42.7784 H   0  0  0  0  0  0  0  0  0  0  0  0
   42.1666   34.3038   40.7784 H   0  0  0  0  0  0  0  0  0  0  0  0
   43.6541   34.0970   39.8511 H   0  0  0  0  0  0  0  0  0  0  0  0
   44.3230   36.1823   40.4870 H   0  0  0  0  0  0  0  0  0  0  0  0
   42.8157   36.3838   41.4100 H   0  0  0  0  0  0  0  0  0  0  0  0
   43.8109   35.5973   43.4304 H   0  0  0  0  0  0  0  0  0  0  0  0
   45.1978   36.3791   42.7420 H   0  0  0  0  0  0  0  0  0  0  0  0
   48.3272   31.8176   42.7247 H   0  0  0  0  0  0  0  0  0  0  0  0
   46.1879   30.6223   42.5710 H   0  0  0  0  0  0  0  0  0  0  0  0
   45.8474   31.7002   41.1749 H   0  0  0  0  0  0  0  0  0  0  0  0
   47.3173   30.6677   41.1749 H   0  0  0  0  0  0  0  0  0  0  0  0
   47.0590   34.1832   41.4374 H   0  0  0  0  0  0  0  0  0  0  0  0
   48.6909   34.0255   42.1224 H   0  0  0  0  0  0  0  0  0  0  0  0
   49.3061   31.6707   40.2558 H   0  0  0  0  0  0  0  0  0  0  0  0
  1  2  2  0
  1  6  1  0
  2  3  1  0
  3  4  2  0
  5  4  1  0
  6  5  2  0
  7 11  1  0
  7  1  1  0
  8  7  1  0
  9 10  1  0
  9  8  1  0
 10 11  1  0
 12  2  1  0
 13 12  1  0
 14 12  1  0
 15 14  1  0
  3 16  1  0
  5 17  1  0
  7 18  1  0
  8 19  1  0
  8 20  1  0
  9 21  1  0
  9 22  1  0
 10 23  1  0
 10 24  1  0
 11 25  1  0
 11 26  1  0
 12 27  1  1
 13 28  1  0
 13 29  1  0
 13 30  1  0
 14 31  1  0
 14 32  1  0
 15 33  1  0
M  ISO  8  16  14  17  14  18  13  19  13  20  13  21  13  22  13  23  13
M  ISO  8  24  13  25  13  26  13  27   8  28   8  29   8  30   8  31   8
M  ISO  2  32   8  33  11
M  END
>  <minimizedAffinity>  (1) 
-3.39858031

>  <minimizedRMSD>  (1) 
0.195862263

$$$$
