
     RDKit          3D

 27 28  0  0  0  0  0  0  0  0999 V2000
   47.3240   35.1840   41.8950 C   0  0  0  0  0  0  0  0  0  0  0  0
   47.3410   34.0260   41.0070 C   0  0  0  0  0  0  0  0  0  0  0  0
   46.3290   33.6540   40.1790 C   0  0  0  0  0  0  0  0  0  0  0  0
   46.3900   32.5420   39.3490 C   0  0  0  0  0  0  0  0  0  0  0  0
   47.5790   31.8280   39.4290 C   0  0  0  0  0  0  0  0  0  0  0  0
   48.6360   32.1420   40.2350 C   0  0  0  0  0  0  0  0  0  0  0  0
   48.5000   33.2530   41.0230 C   0  0  0  0  0  0  0  0  0  0  0  0
   49.8930   33.6910   42.1050 S   0  0  0  0  0  0  0  0  0  0  0  0
   46.4680   35.0330   43.0900 C   0  0  0  0  0  0  0  0  0  0  0  0
   45.3500   35.8950   43.1880 C   0  0  0  0  0  0  0  0  0  0  0  0
   44.5370   35.7490   44.3250 C   0  0  0  0  0  0  0  0  0  0  0  0
   44.8340   34.8260   45.2570 N   0  0  0  0  0  0  0  0  0  0  0  0
   45.9250   34.0240   45.1050 C   0  0  0  0  0  0  0  0  0  0  0  0
   46.7350   34.1220   44.0370 N   0  0  0  0  0  0  0  0  0  0  0  0
   46.2830   33.0090   46.0930 C   0  0  0  0  0  0  0  0  0  0  0  0
   45.8420   31.8280   46.0800 O   0  0  0  0  0  0  0  0  0  0  0  0
   47.1590   33.2620   47.1550 O   0  0  0  0  0  0  0  0  0  0  0  0
   46.9623   36.0502   41.3216 H   0  0  0  0  0  0  0  0  0  0  0  0
   48.3530   35.3082   42.2635 H   0  0  0  0  0  0  0  0  0  0  0  0
   45.4146   34.2653   40.1657 H   0  0  0  0  0  0  0  0  0  0  0  0
   45.5645   32.2506   38.6829 H   0  0  0  0  0  0  0  0  0  0  0  0
   47.6772   30.9372   38.7912 H   0  0  0  0  0  0  0  0  0  0  0  0
   49.5514   31.5322   40.2502 H   0  0  0  0  0  0  0  0  0  0  0  0
   49.5094   33.5704   43.4147 H   0  0  0  0  0  0  0  0  0  0  0  0
   45.1282   36.6427   42.4123 H   0  0  0  0  0  0  0  0  0  0  0  0
   43.6540   36.3924   44.4532 H   0  0  0  0  0  0  0  0  0  0  0  0
   47.3735   32.5437   47.8016 H   0  0  0  0  0  0  0  0  0  0  0  0
  1  9  1  0
  2  7  1  0
  2  1  1  0
  3  2  2  0
  4  5  2  0
  4  3  1  0
  5  6  1  0
  6  7  2  0
  7  8  1  0
  9 10  2  0
  9 14  1  0
 10 11  1  0
 11 12  2  0
 13 12  1  0
 13 15  1  0
 14 13  2  0
 15 17  1  0
 16 15  2  0
  1 18  1  0
  1 19  1  0
  3 20  1  0
  4 21  1  0
  5 22  1  0
  6 23  1  0
  8 24  1  0
 10 25  1  0
 11 26  1  0
 17 27  1  0
M  ISO  8  18   8  19   8  20  14  21  14  22  14  23  14  24  11  25  14
M  ISO  2  26  14  27   3
M  END
>  <minimizedAffinity>  (1) 
-4.97361851

>  <minimizedRMSD>  (1) 
3.29955029

$$$$
