
     RDKit          3D

 34 36  0  0  0  0  0  0  0  0999 V2000
   46.8190   34.9630   42.8640 C   0  0  0  0  0  0  0  0  0  0  0  0
   45.6730   35.7820   42.9490 C   0  0  0  0  0  0  0  0  0  0  0  0
   44.7620   35.5170   43.9760 C   0  0  0  0  0  0  0  0  0  0  0  0
   44.9900   34.5150   44.8380 N   0  0  0  0  0  0  0  0  0  0  0  0
   46.1140   33.7540   44.7130 C   0  0  0  0  0  0  0  0  0  0  0  0
   47.0120   33.9790   43.7370 N   0  0  0  0  0  0  0  0  0  0  0  0
   47.7870   35.2370   41.7800 C   0  0  0  0  0  0  0  0  0  0  0  0
   47.9660   34.1360   40.8290 C   0  0  0  0  0  0  0  0  0  0  0  0
   47.1160   33.8320   39.8320 C   0  0  0  0  0  0  0  0  0  0  0  0
   47.3150   32.7730   38.9400 C   0  0  0  0  0  0  0  0  0  0  0  0
   48.4720   32.0540   39.1670 C   0  0  0  0  0  0  0  0  0  0  0  0
   49.3750   32.3030   40.1530 C   0  0  0  0  0  0  0  0  0  0  0  0
   49.1040   33.3520   40.9750 C   0  0  0  0  0  0  0  0  0  0  0  0
   50.2990   33.7110   42.3080 S   0  0  0  0  0  0  0  0  0  0  0  0
   46.4030   32.6520   45.6310 C   0  0  0  0  0  0  0  0  0  0  0  0
   46.1190   31.4510   45.3930 O   0  0  0  0  0  0  0  0  0  0  0  0
   47.0230   32.8180   46.8630 O   0  0  0  0  0  0  0  0  0  0  0  0
   46.4010   30.6990   49.6370 N   0  0  0  0  0  0  0  0  0  0  0  0
   47.2050   31.1610   48.6780 N   0  0  0  0  0  0  0  0  0  0  0  0
   46.5560   32.0770   47.9660 C   0  0  0  0  0  0  0  0  0  0  0  0
   45.2680   32.2220   48.4820 C   0  0  0  0  0  0  0  0  0  0  0  0
   45.2130   31.3340   49.5350 C   0  0  0  0  0  0  0  0  0  0  0  0
   45.5025   36.5995   42.2330 H   0  0  0  0  0  0  0  0  0  0  0  0
   43.8557   36.1320   44.0773 H   0  0  0  0  0  0  0  0  0  0  0  0
   47.4374   36.1185   41.2225 H   0  0  0  0  0  0  0  0  0  0  0  0
   48.7622   35.3919   42.2647 H   0  0  0  0  0  0  0  0  0  0  0  0
   46.2143   34.4504   39.7113 H   0  0  0  0  0  0  0  0  0  0  0  0
   46.6116   32.5339   38.1288 H   0  0  0  0  0  0  0  0  0  0  0  0
   48.6807   31.2093   38.4940 H   0  0  0  0  0  0  0  0  0  0  0  0
   50.2780   31.6876   40.2791 H   0  0  0  0  0  0  0  0  0  0  0  0
   49.6948   33.5295   43.5241 H   0  0  0  0  0  0  0  0  0  0  0  0
   46.6441   29.9817   50.3350 H   0  0  0  0  0  0  0  0  0  0  0  0
   44.4733   32.8950   48.1276 H   0  0  0  0  0  0  0  0  0  0  0  0
   44.3424   31.1691   50.1869 H   0  0  0  0  0  0  0  0  0  0  0  0
  1  2  2  0
  1  6  1  0
  2  3  1  0
  3  4  2  0
  5  4  1  0
  5 15  1  0
  6  5  2  0
  7  1  1  0
  8 13  1  0
  8  7  1  0
  9  8  2  0
 10 11  2  0
 10  9  1  0
 11 12  1  0
 12 13  2  0
 13 14  1  0
 15 17  1  0
 16 15  2  0
 17 20  1  0
 19 18  1  0
 20 21  1  0
 20 19  2  0
 21 22  2  0
 22 18  1  0
  2 23  1  0
  3 24  1  0
  7 25  1  0
  7 26  1  0
  9 27  1  0
 10 28  1  0
 11 29  1  0
 12 30  1  0
 14 31  1  0
 18 32  1  0
 21 33  1  0
 22 34  1  0
M  ISO  8  23  14  24  14  25   8  26   8  27  14  28  14  29  14  30  14
M  ISO  4  31  11  32   9  33  14  34  14
M  END
>  <minimizedAffinity>  (1) 
-5.87412262

>  <minimizedRMSD>  (1) 
1.03020918

$$$$
