
     RDKit          3D

 36 38  0  0  0  0  0  0  0  0999 V2000
   46.4050   35.1170   43.0760 C   0  0  0  0  0  0  0  0  0  0  0  0
   45.3810   36.0450   43.3480 C   0  0  0  0  0  0  0  0  0  0  0  0
   44.5830   35.8140   44.4670 C   0  0  0  0  0  0  0  0  0  0  0  0
   44.8040   34.7380   45.2400 N   0  0  0  0  0  0  0  0  0  0  0  0
   45.8070   33.8690   44.9360 C   0  0  0  0  0  0  0  0  0  0  0  0
   46.5890   34.0640   43.8700 N   0  0  0  0  0  0  0  0  0  0  0  0
   47.2570   35.3550   41.8900 C   0  0  0  0  0  0  0  0  0  0  0  0
   47.5190   34.1660   41.0740 C   0  0  0  0  0  0  0  0  0  0  0  0
   46.6420   33.6250   40.2070 C   0  0  0  0  0  0  0  0  0  0  0  0
   46.9150   32.4950   39.4450 C   0  0  0  0  0  0  0  0  0  0  0  0
   48.1740   31.9630   39.6480 C   0  0  0  0  0  0  0  0  0  0  0  0
   49.1170   32.4520   40.5060 C   0  0  0  0  0  0  0  0  0  0  0  0
   48.7590   33.5590   41.2090 C   0  0  0  0  0  0  0  0  0  0  0  0
   49.9920   34.2460   42.3680 S   0  0  0  0  0  0  0  0  0  0  0  0
   46.0730   32.6890   45.7570 C   0  0  0  0  0  0  0  0  0  0  0  0
   45.7670   31.5090   45.4050 O   0  0  0  0  0  0  0  0  0  0  0  0
   46.6850   32.7520   47.0020 O   0  0  0  0  0  0  0  0  0  0  0  0
   47.4930   31.7910   47.5440 C   0  0  0  0  0  0  0  0  0  0  0  0
   47.6790   30.4930   47.1250 C   0  0  0  0  0  0  0  0  0  0  0  0
   48.5200   29.6080   47.7470 C   0  0  0  0  0  0  0  0  0  0  0  0
   49.2010   30.0860   48.8510 C   0  0  0  0  0  0  0  0  0  0  0  0
   49.0370   31.4000   49.3040 C   0  0  0  0  0  0  0  0  0  0  0  0
   48.1920   32.2090   48.6410 N   0  0  0  0  0  0  0  0  0  0  0  0
   45.2172   36.9196   42.7013 H   0  0  0  0  0  0  0  0  0  0  0  0
   43.7716   36.5133   44.7173 H   0  0  0  0  0  0  0  0  0  0  0  0
   46.7592   36.1029   41.2553 H   0  0  0  0  0  0  0  0  0  0  0  0
   48.2327   35.6905   42.2714 H   0  0  0  0  0  0  0  0  0  0  0  0
   45.6574   34.1027   40.0959 H   0  0  0  0  0  0  0  0  0  0  0  0
   46.1904   32.0611   38.7403 H   0  0  0  0  0  0  0  0  0  0  0  0
   48.4399   31.0672   39.0676 H   0  0  0  0  0  0  0  0  0  0  0  0
   50.1039   31.9800   40.6210 H   0  0  0  0  0  0  0  0  0  0  0  0
   49.5843   34.0188   43.6560 H   0  0  0  0  0  0  0  0  0  0  0  0
   47.1216   30.1471   46.2420 H   0  0  0  0  0  0  0  0  0  0  0  0
   48.6461   28.5758   47.3883 H   0  0  0  0  0  0  0  0  0  0  0  0
   49.8895   29.4163   49.3872 H   0  0  0  0  0  0  0  0  0  0  0  0
   49.5879   31.7634   50.1841 H   0  0  0  0  0  0  0  0  0  0  0  0
  1  2  2  0
  1  6  1  0
  2  3  1  0
  3  4  2  0
  5  4  1  0
  5 15  1  0
  6  5  2  0
  7  1  1  0
  8 13  1  0
  8  7  1  0
  9  8  2  0
 10 11  2  0
 10  9  1  0
 11 12  1  0
 12 13  2  0
 13 14  1  0
 15 17  1  0
 16 15  2  0
 17 18  1  0
 18 23  1  0
 19 18  2  0
 19 20  1  0
 20 21  2  0
 21 22  1  0
 23 22  2  0
  2 24  1  0
  3 25  1  0
  7 26  1  0
  7 27  1  0
  9 28  1  0
 10 29  1  0
 11 30  1  0
 12 31  1  0
 14 32  1  0
 19 33  1  0
 20 34  1  0
 21 35  1  0
 22 36  1  0
M  ISO  8  24  14  25  14  26   8  27   8  28  14  29  14  30  14  31  14
M  ISO  5  32  11  33  14  34  14  35  14  36  14
M  END
>  <minimizedAffinity>  (1) 
-5.43625975

>  <minimizedRMSD>  (1) 
0.786325932

$$$$
