
     RDKit          3D

 33 35  0  0  0  0  0  0  0  0999 V2000
   46.8350   34.6940   42.2300 C   0  0  0  0  0  0  0  0  0  0  0  0
   45.6830   34.6260   41.4120 C   0  0  0  0  0  0  0  0  0  0  0  0
   44.4610   34.3600   42.0400 C   0  0  0  0  0  0  0  0  0  0  0  0
   44.4190   34.1810   43.3700 N   0  0  0  0  0  0  0  0  0  0  0  0
   45.5590   34.2580   44.1140 C   0  0  0  0  0  0  0  0  0  0  0  0
   46.7500   34.5110   43.5440 N   0  0  0  0  0  0  0  0  0  0  0  0
   48.1300   34.9770   41.5630 C   0  0  0  0  0  0  0  0  0  0  0  0
   48.4240   34.1150   40.4170 C   0  0  0  0  0  0  0  0  0  0  0  0
   48.0810   34.3930   39.1450 C   0  0  0  0  0  0  0  0  0  0  0  0
   48.3730   33.5530   38.0670 C   0  0  0  0  0  0  0  0  0  0  0  0
   49.0500   32.4010   38.4120 C   0  0  0  0  0  0  0  0  0  0  0  0
   49.4240   32.0610   39.6700 C   0  0  0  0  0  0  0  0  0  0  0  0
   49.1020   32.9330   40.6650 C   0  0  0  0  0  0  0  0  0  0  0  0
   49.5940   32.5020   42.3690 S   0  0  0  0  0  0  0  0  0  0  0  0
   45.5510   34.0680   45.5650 C   0  0  0  0  0  0  0  0  0  0  0  0
   44.6770   34.5660   46.3290 O   0  0  0  0  0  0  0  0  0  0  0  0
   46.5100   33.3180   46.2400 O   0  0  0  0  0  0  0  0  0  0  0  0
   46.0670   32.4790   47.2580 C   0  0  0  0  0  0  0  0  0  0  0  0
   45.8540   31.2530   46.6420 C   0  0  0  0  0  0  0  0  0  0  0  0
   45.2590   30.1380   48.0250 S   0  0  0  0  0  0  0  0  0  0  0  0
   45.4210   31.6190   49.2230 C   0  0  0  0  0  0  0  0  0  0  0  0
   45.7860   32.4260   48.5420 N   0  0  0  0  0  0  0  0  0  0  0  0
   45.7453   34.7764   40.3241 H   0  0  0  0  0  0  0  0  0  0  0  0
   43.5375   34.2977   41.4457 H   0  0  0  0  0  0  0  0  0  0  0  0
   48.1158   36.0200   41.2136 H   0  0  0  0  0  0  0  0  0  0  0  0
   48.9149   34.7838   42.3091 H   0  0  0  0  0  0  0  0  0  0  0  0
   47.5425   35.3308   38.9437 H   0  0  0  0  0  0  0  0  0  0  0  0
   48.0875   33.7899   37.0315 H   0  0  0  0  0  0  0  0  0  0  0  0
   49.3067   31.7029   37.6016 H   0  0  0  0  0  0  0  0  0  0  0  0
   49.9624   31.1244   39.8772 H   0  0  0  0  0  0  0  0  0  0  0  0
   48.8100   33.1888   43.2582 H   0  0  0  0  0  0  0  0  0  0  0  0
   46.0011   30.9951   45.5828 H   0  0  0  0  0  0  0  0  0  0  0  0
   45.2099   31.6647   50.3016 H   0  0  0  0  0  0  0  0  0  0  0  0
  1  6  2  0
  2  3  2  0
  2  1  1  0
  3  4  1  0
  4  5  2  0
  5 15  1  0
  6  5  1  0
  7  1  1  0
  8 13  1  0
  8  7  1  0
  9  8  2  0
 10 11  2  0
 10  9  1  0
 11 12  1  0
 12 13  2  0
 13 14  1  0
 15 17  1  0
 15 16  2  0
 17 18  1  0
 18 22  1  0
 19 18  2  0
 19 20  1  0
 20 21  1  0
 22 21  2  0
  2 23  1  0
  3 24  1  0
  7 25  1  0
  7 26  1  0
  9 27  1  0
 10 28  1  0
 11 29  1  0
 12 30  1  0
 14 31  1  0
 19 32  1  0
 21 33  1  0
M  ISO  8  23  14  24  14  25   8  26   8  27  14  28  14  29  14  30  14
M  ISO  3  31  11  32  14  33  14
M  END
>  <minimizedAffinity>  (1) 
-5.38424635

>  <minimizedRMSD>  (1) 
1.87046444

$$$$
