
     RDKit          3D

 37 39  0  0  0  0  0  0  0  0999 V2000
   46.9460   35.1190   42.5480 C   0  0  0  0  0  0  0  0  0  0  0  0
   45.9270   36.0740   42.3460 C   0  0  0  0  0  0  0  0  0  0  0  0
   44.7960   35.9890   43.1610 C   0  0  0  0  0  0  0  0  0  0  0  0
   44.7080   35.0310   44.0870 N   0  0  0  0  0  0  0  0  0  0  0  0
   45.7240   34.1250   44.2440 C   0  0  0  0  0  0  0  0  0  0  0  0
   46.8270   34.1770   43.4800 N   0  0  0  0  0  0  0  0  0  0  0  0
   48.1520   35.2060   41.6830 C   0  0  0  0  0  0  0  0  0  0  0  0
   48.2770   34.1290   40.7010 C   0  0  0  0  0  0  0  0  0  0  0  0
   47.4860   33.9810   39.6180 C   0  0  0  0  0  0  0  0  0  0  0  0
   47.6190   32.9520   38.7000 C   0  0  0  0  0  0  0  0  0  0  0  0
   48.6440   32.0690   38.9780 C   0  0  0  0  0  0  0  0  0  0  0  0
   49.4780   32.1580   40.0480 C   0  0  0  0  0  0  0  0  0  0  0  0
   49.2810   33.1970   40.9040 C   0  0  0  0  0  0  0  0  0  0  0  0
   50.3850   33.3420   42.3490 S   0  0  0  0  0  0  0  0  0  0  0  0
   45.6640   33.0640   45.2460 C   0  0  0  0  0  0  0  0  0  0  0  0
   45.8050   31.8360   44.9630 O   0  0  0  0  0  0  0  0  0  0  0  0
   45.4460   33.3050   46.6040 O   0  0  0  0  0  0  0  0  0  0  0  0
   45.9420   32.4360   47.5750 C   0  0  0  0  0  0  0  0  0  0  0  0
   47.3210   32.4540   47.6510 C   0  0  0  0  0  0  0  0  0  0  0  0
   48.0130   31.6530   48.5610 C   0  0  0  0  0  0  0  0  0  0  0  0
   47.2570   30.8490   49.3750 C   0  0  0  0  0  0  0  0  0  0  0  0
   45.8600   30.8070   49.3250 C   0  0  0  0  0  0  0  0  0  0  0  0
   45.2290   31.6190   48.4070 C   0  0  0  0  0  0  0  0  0  0  0  0
   46.0198   36.8548   41.5768 H   0  0  0  0  0  0  0  0  0  0  0  0
   43.9763   36.7125   43.0399 H   0  0  0  0  0  0  0  0  0  0  0  0
   48.1167   36.1623   41.1406 H   0  0  0  0  0  0  0  0  0  0  0  0
   49.0214   35.1204   42.3514 H   0  0  0  0  0  0  0  0  0  0  0  0
   46.6886   34.7209   39.4543 H   0  0  0  0  0  0  0  0  0  0  0  0
   46.9632   32.8470   37.8231 H   0  0  0  0  0  0  0  0  0  0  0  0
   48.7970   31.2312   38.2817 H   0  0  0  0  0  0  0  0  0  0  0  0
   50.2779   31.4215   40.2145 H   0  0  0  0  0  0  0  0  0  0  0  0
   49.6469   33.2451   43.4991 H   0  0  0  0  0  0  0  0  0  0  0  0
   47.8873   33.1151   46.9786 H   0  0  0  0  0  0  0  0  0  0  0  0
   49.1112   31.6661   48.6222 H   0  0  0  0  0  0  0  0  0  0  0  0
   47.7743   30.2061   50.1024 H   0  0  0  0  0  0  0  0  0  0  0  0
   45.2854   30.1497   49.9941 H   0  0  0  0  0  0  0  0  0  0  0  0
   44.1309   31.6092   48.3429 H   0  0  0  0  0  0  0  0  0  0  0  0
  1  6  1  0
  2  1  2  0
  2  3  1  0
  3  4  2  0
  4  5  1  0
  5 15  1  0
  6  5  2  0
  7  1  1  0
  8 13  1  0
  8  7  1  0
  9  8  2  0
 10 11  2  0
 10  9  1  0
 11 12  1  0
 12 13  2  0
 13 14  1  0
 15 17  1  0
 16 15  2  0
 17 18  1  0
 18 19  2  0
 18 23  1  0
 19 20  1  0
 20 21  2  0
 22 21  1  0
 23 22  2  0
  2 24  1  0
  3 25  1  0
  7 26  1  0
  7 27  1  0
  9 28  1  0
 10 29  1  0
 11 30  1  0
 12 31  1  0
 14 32  1  0
 19 33  1  0
 20 34  1  0
 21 35  1  0
 22 36  1  0
 23 37  1  0
M  ISO  8  24  14  25  14  26   8  27   8  28  14  29  14  30  14  31  14
M  ISO  6  32  11  33  14  34  14  35  14  36  14  37  14
M  END
>  <minimizedAffinity>  (1) 
-5.42403412

>  <minimizedRMSD>  (1) 
1.20561922

$$$$
