
     RDKit          3D

 31 34  0  0  0  0  0  0  0  0999 V2000
   45.3730   34.4170   44.5490 C   0  0  0  0  0  0  0  0  0  0  0  0
   46.2560   33.7470   43.6530 C   0  0  0  0  0  0  0  0  0  0  0  0
   47.1020   32.7600   44.1390 C   0  0  0  0  0  0  0  0  0  0  0  0
   47.0340   32.4890   45.4590 N   0  0  0  0  0  0  0  0  0  0  0  0
   46.1830   33.1400   46.3010 C   0  0  0  0  0  0  0  0  0  0  0  0
   45.3720   34.0850   45.8330 N   0  0  0  0  0  0  0  0  0  0  0  0
   47.9940   32.0770   43.2650 N   0  0  0  0  0  0  0  0  0  0  0  0
   48.6560   30.9240   43.4910 C   0  0  0  0  0  0  0  0  0  0  0  0
   49.4170   30.5730   42.4290 N   0  0  0  0  0  0  0  0  0  0  0  0
   49.2460   31.5260   41.4840 C   0  0  0  0  0  0  0  0  0  0  0  0
   49.7980   31.6320   40.2250 C   0  0  0  0  0  0  0  0  0  0  0  0
   50.6010   30.7230   39.8340 O   0  0  0  0  0  0  0  0  0  0  0  0
   49.4480   32.7090   39.4710 N   0  0  0  0  0  0  0  0  0  0  0  0
   48.5870   33.6120   39.9880 C   0  0  0  0  0  0  0  0  0  0  0  0
   48.2410   34.7270   39.1740 N   0  0  0  0  0  0  0  0  0  0  0  0
   48.0560   33.4830   41.2350 N   0  0  0  0  0  0  0  0  0  0  0  0
   48.3650   32.4380   42.0260 C   0  0  0  0  0  0  0  0  0  0  0  0
   44.4800   35.4800   44.0190 C   0  0  0  0  0  0  0  0  0  0  0  0
   45.1240   36.7360   43.4620 C   0  0  0  0  0  0  0  0  0  0  0  0
   44.4260   35.7850   42.5840 C   0  0  0  0  0  0  0  0  0  0  0  0
   46.2669   34.0101   42.5850 H   0  0  0  0  0  0  0  0  0  0  0  0
   46.1666   32.8834   47.3705 H   0  0  0  0  0  0  0  0  0  0  0  0
   48.5860   30.3421   44.4218 H   0  0  0  0  0  0  0  0  0  0  0  0
   49.8325   32.8334   38.5236 H   0  0  0  0  0  0  0  0  0  0  0  0
   47.5877   35.4402   39.5282 H   0  0  0  0  0  0  0  0  0  0  0  0
   48.6439   34.8207   38.2307 H   0  0  0  0  0  0  0  0  0  0  0  0
   43.7216   35.2344   44.7769 H   0  0  0  0  0  0  0  0  0  0  0  0
   44.6838   37.7224   43.6701 H   0  0  0  0  0  0  0  0  0  0  0  0
   46.1287   37.1828   43.4935 H   0  0  0  0  0  0  0  0  0  0  0  0
   43.4684   36.0711   42.1245 H   0  0  0  0  0  0  0  0  0  0  0  0
   44.7084   35.2352   41.6741 H   0  0  0  0  0  0  0  0  0  0  0  0
  1  6  2  0
  2  3  2  0
  2  1  1  0
  3  4  1  0
  4  5  2  0
  6  5  1  0
  7  8  1  0
  7  3  1  0
  9  8  2  0
 10 17  2  0
 10  9  1  0
 11 10  1  0
 12 11  2  0
 13 14  1  0
 13 11  1  0
 14 16  2  0
 15 14  1  0
 16 17  1  0
 17  7  1  0
 18  1  1  0
 19 18  1  0
 20 19  1  0
 20 18  1  0
  2 21  1  0
  5 22  1  0
  8 23  1  0
 13 24  1  0
 15 25  1  0
 15 26  1  0
 18 27  1  0
 19 28  1  0
 19 29  1  0
 20 30  1  0
 20 31  1  0
M  ISO  8  21  14  22  14  23  14  24   9  27  13  28  13  29  13  30  13
M  ISO  1  31  13
M  END
>  <minimizedAffinity>  (1) 
-5.09947062

>  <minimizedRMSD>  (1) 
1.30668437

$$$$
