
     RDKit          3D

 31 34  0  0  0  0  0  0  0  0999 V2000
   45.5120   34.1300   42.2910 C   0  0  0  0  0  0  0  0  0  0  0  0
   44.1720   33.9410   41.9470 C   0  0  0  0  0  0  0  0  0  0  0  0
   43.7640   33.0890   40.9340 C   0  0  0  0  0  0  0  0  0  0  0  0
   44.7740   32.4620   40.3130 N   0  0  0  0  0  0  0  0  0  0  0  0
   46.0670   32.6300   40.6290 C   0  0  0  0  0  0  0  0  0  0  0  0
   46.4270   33.4560   41.6060 N   0  0  0  0  0  0  0  0  0  0  0  0
   42.3170   33.0560   40.7570 C   0  0  0  0  0  0  0  0  0  0  0  0
   41.4910   32.2770   41.5160 N   0  0  0  0  0  0  0  0  0  0  0  0
   40.1690   32.2320   41.3700 C   0  0  0  0  0  0  0  0  0  0  0  0
   39.5270   32.9600   40.4530 N   0  0  0  0  0  0  0  0  0  0  0  0
   40.2590   33.7580   39.6590 C   0  0  0  0  0  0  0  0  0  0  0  0
   39.6050   34.5110   38.7110 C   0  0  0  0  0  0  0  0  0  0  0  0
   40.3010   35.3520   37.8650 C   0  0  0  0  0  0  0  0  0  0  0  0
   41.6700   35.3870   38.0290 C   0  0  0  0  0  0  0  0  0  0  0  0
   42.2850   34.6190   38.9870 C   0  0  0  0  0  0  0  0  0  0  0  0
   41.6200   33.7890   39.8250 C   0  0  0  0  0  0  0  0  0  0  0  0
   45.8410   35.0780   43.3830 C   0  0  0  0  0  0  0  0  0  0  0  0
   45.0560   36.3730   43.4490 C   0  0  0  0  0  0  0  0  0  0  0  0
   44.9020   35.3330   44.4830 C   0  0  0  0  0  0  0  0  0  0  0  0
   43.4041   34.4949   42.5069 H   0  0  0  0  0  0  0  0  0  0  0  0
   46.8385   32.0774   40.0727 H   0  0  0  0  0  0  0  0  0  0  0  0
   39.5846   31.5719   42.0278 H   0  0  0  0  0  0  0  0  0  0  0  0
   38.5105   34.4420   38.6256 H   0  0  0  0  0  0  0  0  0  0  0  0
   39.7918   35.9601   37.1028 H   0  0  0  0  0  0  0  0  0  0  0  0
   42.2773   36.0388   37.3838 H   0  0  0  0  0  0  0  0  0  0  0  0
   43.3794   34.6816   39.0787 H   0  0  0  0  0  0  0  0  0  0  0  0
   46.8989   34.7798   43.3399 H   0  0  0  0  0  0  0  0  0  0  0  0
   45.5665   37.3180   43.6865 H   0  0  0  0  0  0  0  0  0  0  0  0
   44.3775   36.9147   42.7736 H   0  0  0  0  0  0  0  0  0  0  0  0
   43.9652   34.7596   44.5431 H   0  0  0  0  0  0  0  0  0  0  0  0
   44.9867   35.3249   45.5797 H   0  0  0  0  0  0  0  0  0  0  0  0
  1 17  1  0
  2  1  2  0
  3  2  1  0
  4  5  1  0
  4  3  2  0
  5  6  2  0
  6  1  1  0
  7  3  1  0
  7  8  2  0
  9  8  1  0
 10  9  2  0
 11 16  2  0
 11 10  1  0
 12 11  1  0
 13 14  1  0
 13 12  2  0
 14 15  2  0
 15 16  1  0
 16  7  1  0
 17 18  1  0
 17 19  1  0
 18 19  1  0
  2 20  1  0
  5 21  1  0
  9 22  1  0
 12 23  1  0
 13 24  1  0
 14 25  1  0
 15 26  1  0
 17 27  1  0
 18 28  1  0
 18 29  1  0
 19 30  1  0
 19 31  1  0
M  ISO  8  20  14  21  14  22  14  23  14  24  14  25  14  26  14  27  13
M  ISO  4  28  13  29  13  30  13  31  13
M  END
>  <minimizedAffinity>  (1) 
-4.99770975

>  <minimizedRMSD>  (1) 
7.82043076

$$$$
