
     RDKit          3D

 30 32  0  0  0  0  0  0  0  0999 V2000
   45.4760   34.5350   44.2600 C   0  0  0  0  0  0  0  0  0  0  0  0
   46.5370   34.2230   43.3640 C   0  0  0  0  0  0  0  0  0  0  0  0
   47.5050   33.2900   43.7490 C   0  0  0  0  0  0  0  0  0  0  0  0
   47.3770   32.7230   44.9840 N   0  0  0  0  0  0  0  0  0  0  0  0
   46.3420   33.0530   45.8110 C   0  0  0  0  0  0  0  0  0  0  0  0
   45.4180   33.9420   45.4430 N   0  0  0  0  0  0  0  0  0  0  0  0
   48.5840   32.9410   42.8970 N   0  0  0  0  0  0  0  0  0  0  0  0
   48.5460   31.6620   42.4220 C   0  0  0  0  0  0  0  0  0  0  0  0
   49.5210   31.1820   41.5870 C   0  0  0  0  0  0  0  0  0  0  0  0
   49.4980   29.7840   41.0540 C   0  0  0  0  0  0  0  0  0  0  0  0
   50.5730   32.0030   41.2090 C   0  0  0  0  0  0  0  0  0  0  0  0
   51.5000   31.6300   40.4490 O   0  0  0  0  0  0  0  0  0  0  0  0
   50.5740   33.2610   41.7020 N   0  0  0  0  0  0  0  0  0  0  0  0
   49.6120   33.7290   42.5240 C   0  0  0  0  0  0  0  0  0  0  0  0
   49.5950   34.8960   42.9930 O   0  0  0  0  0  0  0  0  0  0  0  0
   44.4860   35.5350   43.8000 C   0  0  0  0  0  0  0  0  0  0  0  0
   44.9960   36.8910   43.3610 C   0  0  0  0  0  0  0  0  0  0  0  0
   44.4040   35.9530   42.3920 C   0  0  0  0  0  0  0  0  0  0  0  0
   46.5949   34.7104   42.3796 H   0  0  0  0  0  0  0  0  0  0  0  0
   46.2686   32.5766   46.7998 H   0  0  0  0  0  0  0  0  0  0  0  0
   47.7157   31.0029   42.7154 H   0  0  0  0  0  0  0  0  0  0  0  0
   49.4863   29.0721   41.8925 H   0  0  0  0  0  0  0  0  0  0  0  0
   48.5974   29.6409   40.4389 H   0  0  0  0  0  0  0  0  0  0  0  0
   50.3934   29.6113   40.4389 H   0  0  0  0  0  0  0  0  0  0  0  0
   51.3445   33.8916   41.4382 H   0  0  0  0  0  0  0  0  0  0  0  0
   43.7533   35.1459   44.5223 H   0  0  0  0  0  0  0  0  0  0  0  0
   44.4545   37.8046   43.6477 H   0  0  0  0  0  0  0  0  0  0  0  0
   45.9488   37.4344   43.4440 H   0  0  0  0  0  0  0  0  0  0  0  0
   43.4235   36.1768   41.9465 H   0  0  0  0  0  0  0  0  0  0  0  0
   44.7446   35.5162   41.4416 H   0  0  0  0  0  0  0  0  0  0  0  0
  1  6  2  0
  2  3  2  0
  2  1  1  0
  3  4  1  0
  4  5  2  0
  6  5  1  0
  7  3  1  0
  8  7  1  0
  9  8  2  0
 10  9  1  0
 11  9  1  0
 11 13  1  0
 12 11  2  0
 13 14  1  0
 14  7  1  0
 14 15  2  0
 16  1  1  0
 17 16  1  0
 18 17  1  0
 18 16  1  0
  2 19  1  0
  5 20  1  0
  8 21  1  0
 10 22  1  0
 10 23  1  0
 10 24  1  0
 13 25  1  0
 16 26  1  0
 17 27  1  0
 17 28  1  0
 18 29  1  0
 18 30  1  0
M  ISO  8  19  14  20  14  21  14  22   8  23   8  24   8  25   9  26  13
M  ISO  4  27  13  28  13  29  13  30  13
M  END
>  <minimizedAffinity>  (1) 
-4.74471617

>  <minimizedRMSD>  (1) 
1.72497547

$$$$
