
     RDKit          3D

 33 34  0  0  0  0  0  0  0  0999 V2000
   47.2460   35.1510   42.0380 C   0  0  0  0  0  0  0  0  0  0  0  0
   47.1810   34.0050   41.1280 C   0  0  0  0  0  0  0  0  0  0  0  0
   46.1240   33.6980   40.3490 C   0  0  0  0  0  0  0  0  0  0  0  0
   46.0980   32.5980   39.4940 C   0  0  0  0  0  0  0  0  0  0  0  0
   47.2560   31.8300   39.5030 C   0  0  0  0  0  0  0  0  0  0  0  0
   48.3520   32.0820   40.2610 C   0  0  0  0  0  0  0  0  0  0  0  0
   48.2950   33.1760   41.0680 C   0  0  0  0  0  0  0  0  0  0  0  0
   49.7610   33.5380   42.0990 S   0  0  0  0  0  0  0  0  0  0  0  0
   46.3790   35.0390   43.2320 C   0  0  0  0  0  0  0  0  0  0  0  0
   45.3020   35.9410   43.3490 C   0  0  0  0  0  0  0  0  0  0  0  0
   44.4870   35.8310   44.4780 C   0  0  0  0  0  0  0  0  0  0  0  0
   44.7390   34.8970   45.4010 N   0  0  0  0  0  0  0  0  0  0  0  0
   45.7940   34.0420   45.2500 C   0  0  0  0  0  0  0  0  0  0  0  0
   46.5960   34.1240   44.1730 N   0  0  0  0  0  0  0  0  0  0  0  0
   46.1050   33.0100   46.2310 C   0  0  0  0  0  0  0  0  0  0  0  0
   47.0930   32.2220   46.1150 O   0  0  0  0  0  0  0  0  0  0  0  0
   45.3560   32.7860   47.3770 O   0  0  0  0  0  0  0  0  0  0  0  0
   46.0380   32.3470   48.5590 C   0  0  0  0  0  0  0  0  0  0  0  0
   45.1820   31.3390   49.3010 C   0  0  0  0  0  0  0  0  0  0  0  0
   46.9465   36.0501   41.4795 H   0  0  0  0  0  0  0  0  0  0  0  0
   48.2811   35.1977   42.4074 H   0  0  0  0  0  0  0  0  0  0  0  0
   45.2379   34.3485   40.3906 H   0  0  0  0  0  0  0  0  0  0  0  0
   45.2302   32.3569   38.8625 H   0  0  0  0  0  0  0  0  0  0  0  0
   47.2861   30.9495   38.8443 H   0  0  0  0  0  0  0  0  0  0  0  0
   49.2411   31.4353   40.2252 H   0  0  0  0  0  0  0  0  0  0  0  0
   49.4201   33.4538   43.4232 H   0  0  0  0  0  0  0  0  0  0  0  0
   45.1105   36.7034   42.5795 H   0  0  0  0  0  0  0  0  0  0  0  0
   43.6353   36.5148   44.6082 H   0  0  0  0  0  0  0  0  0  0  0  0
   46.9925   31.8785   48.2772 H   0  0  0  0  0  0  0  0  0  0  0  0
   46.2283   33.2121   49.2112 H   0  0  0  0  0  0  0  0  0  0  0  0
   45.3035   31.4821   50.3849 H   0  0  0  0  0  0  0  0  0  0  0  0
   44.1262   31.4832   49.0282 H   0  0  0  0  0  0  0  0  0  0  0  0
   45.4954   30.3205   49.0282 H   0  0  0  0  0  0  0  0  0  0  0  0
  1  9  1  0
  2  1  1  0
  3  2  2  0
  4  5  2  0
  4  3  1  0
  5  6  1  0
  6  7  2  0
  7  2  1  0
  7  8  1  0
  9 10  2  0
  9 14  1  0
 10 11  1  0
 11 12  2  0
 13 12  1  0
 13 15  1  0
 14 13  2  0
 15 17  1  0
 16 15  2  0
 17 18  1  0
 18 19  1  0
  1 20  1  0
  1 21  1  0
  3 22  1  0
  4 23  1  0
  5 24  1  0
  6 25  1  0
  8 26  1  0
 10 27  1  0
 11 28  1  0
 18 29  1  0
 18 30  1  0
 19 31  1  0
 19 32  1  0
 19 33  1  0
M  ISO  8  20   8  21   8  22  14  23  14  24  14  25  14  26  11  27  14
M  ISO  6  28  14  29   8  30   8  31   8  32   8  33   8
M  END
>  <minimizedAffinity>  (1) 
-4.99017954

>  <minimizedRMSD>  (1) 
0.843339264

$$$$
