
     RDKit          3D

 28 31  0  0  0  0  0  0  0  0999 V2000
   45.2570   34.4780   44.5960 C   0  0  0  0  0  0  0  0  0  0  0  0
   46.0860   33.7330   43.7410 C   0  0  0  0  0  0  0  0  0  0  0  0
   46.8910   32.7100   44.2430 C   0  0  0  0  0  0  0  0  0  0  0  0
   46.8200   32.4870   45.5880 N   0  0  0  0  0  0  0  0  0  0  0  0
   46.0030   33.2290   46.3900 C   0  0  0  0  0  0  0  0  0  0  0  0
   45.2420   34.2020   45.8910 N   0  0  0  0  0  0  0  0  0  0  0  0
   47.7410   31.9400   43.4000 N   0  0  0  0  0  0  0  0  0  0  0  0
   47.4080   30.6650   43.0390 C   0  0  0  0  0  0  0  0  0  0  0  0
   48.3550   30.1370   42.2450 N   0  0  0  0  0  0  0  0  0  0  0  0
   49.3020   31.0610   42.0860 C   0  0  0  0  0  0  0  0  0  0  0  0
   50.5130   31.1990   41.4260 C   0  0  0  0  0  0  0  0  0  0  0  0
   51.2680   32.3100   41.4640 N   0  0  0  0  0  0  0  0  0  0  0  0
   50.8340   33.3710   42.1880 C   0  0  0  0  0  0  0  0  0  0  0  0
   49.6490   33.3060   42.8640 N   0  0  0  0  0  0  0  0  0  0  0  0
   48.9240   32.1750   42.7990 C   0  0  0  0  0  0  0  0  0  0  0  0
   44.4410   35.5600   43.9920 C   0  0  0  0  0  0  0  0  0  0  0  0
   45.1700   36.7450   43.3910 C   0  0  0  0  0  0  0  0  0  0  0  0
   44.4400   35.7900   42.5420 C   0  0  0  0  0  0  0  0  0  0  0  0
   46.1006   33.9585   42.6645 H   0  0  0  0  0  0  0  0  0  0  0  0
   45.9720   33.0198   47.4695 H   0  0  0  0  0  0  0  0  0  0  0  0
   46.4923   30.1434   43.3543 H   0  0  0  0  0  0  0  0  0  0  0  0
   50.8786   30.3465   40.8347 H   0  0  0  0  0  0  0  0  0  0  0  0
   51.4392   34.2886   42.2312 H   0  0  0  0  0  0  0  0  0  0  0  0
   43.6514   35.3996   44.7409 H   0  0  0  0  0  0  0  0  0  0  0  0
   44.7828   37.7643   43.5362 H   0  0  0  0  0  0  0  0  0  0  0  0
   46.1979   37.1349   43.4284 H   0  0  0  0  0  0  0  0  0  0  0  0
   43.5125   36.1052   42.0416 H   0  0  0  0  0  0  0  0  0  0  0  0
   44.7124   35.1778   41.6697 H   0  0  0  0  0  0  0  0  0  0  0  0
  1  6  2  0
  2  3  2  0
  2  1  1  0
  3  4  1  0
  4  5  2  0
  6  5  1  0
  7  3  1  0
  8  7  1  0
  9  8  2  0
 10  9  1  0
 10 15  2  0
 11 12  2  0
 11 10  1  0
 12 13  1  0
 13 14  2  0
 15 14  1  0
 15  7  1  0
 16  1  1  0
 17 16  1  0
 18 17  1  0
 18 16  1  0
  2 19  1  0
  5 20  1  0
  8 21  1  0
 11 22  1  0
 13 23  1  0
 16 24  1  0
 17 25  1  0
 17 26  1  0
 18 27  1  0
 18 28  1  0
M  ISO  8  19  14  20  14  21  14  22  14  23  14  24  13  25  13  26  13
M  ISO  2  27  13  28  13
M  END
>  <minimizedAffinity>  (1) 
-4.35042238

>  <minimizedRMSD>  (1) 
0.748327196

$$$$
