
     RDKit          3D

 24 26  0  0  0  0  0  0  0  0999 V2000
   45.5780   34.3810   42.2700 C   0  0  0  0  0  0  0  0  0  0  0  0
   44.4760   35.0730   41.7400 C   0  0  0  0  0  0  0  0  0  0  0  0
   43.2570   34.3920   41.5550 C   0  0  0  0  0  0  0  0  0  0  0  0
   43.2210   33.0730   41.9100 N   0  0  0  0  0  0  0  0  0  0  0  0
   44.3220   32.4480   42.4210 C   0  0  0  0  0  0  0  0  0  0  0  0
   45.4710   33.0990   42.5920 N   0  0  0  0  0  0  0  0  0  0  0  0
   46.8400   35.1390   42.4390 C   0  0  0  0  0  0  0  0  0  0  0  0
   48.0960   34.3720   42.8110 C   0  0  0  0  0  0  0  0  0  0  0  0
   47.9580   35.0240   41.4960 C   0  0  0  0  0  0  0  0  0  0  0  0
   42.1010   35.0910   41.0080 C   0  0  0  0  0  0  0  0  0  0  0  0
   41.7030   34.9610   39.6970 C   0  0  0  0  0  0  0  0  0  0  0  0
   40.6120   35.7320   39.5200 N   0  0  0  0  0  0  0  0  0  0  0  0
   40.3530   36.3240   40.7100 C   0  0  0  0  0  0  0  0  0  0  0  0
   41.2590   35.9380   41.6280 N   0  0  0  0  0  0  0  0  0  0  0  0
   44.5644   36.1362   41.4722 H   0  0  0  0  0  0  0  0  0  0  0  0
   44.2587   31.3851   42.6971 H   0  0  0  0  0  0  0  0  0  0  0  0
   46.2669   35.9897   42.8365 H   0  0  0  0  0  0  0  0  0  0  0  0
   48.7914   34.7785   43.5602 H   0  0  0  0  0  0  0  0  0  0  0  0
   48.3193   33.3542   43.1634 H   0  0  0  0  0  0  0  0  0  0  0  0
   47.8460   34.4072   40.5921 H   0  0  0  0  0  0  0  0  0  0  0  0
   48.5637   35.7511   40.9353 H   0  0  0  0  0  0  0  0  0  0  0  0
   42.1886   34.3390   38.9307 H   0  0  0  0  0  0  0  0  0  0  0  0
   39.5223   37.0198   40.8993 H   0  0  0  0  0  0  0  0  0  0  0  0
   41.2997   36.2337   42.6138 H   0  0  0  0  0  0  0  0  0  0  0  0
  1  7  1  0
  1  6  1  0
  2  1  2  0
  3  2  1  0
  3  4  2  0
  4  5  1  0
  5  6  2  0
  7  8  1  0
  9  7  1  0
  9  8  1  0
 10  3  1  0
 10 14  1  0
 11 10  2  0
 12 11  1  0
 12 13  2  0
 13 14  1  0
  2 15  1  0
  5 16  1  0
  7 17  1  0
  8 18  1  0
  8 19  1  0
  9 20  1  0
  9 21  1  0
 11 22  1  0
 13 23  1  0
 14 24  1  0
M  ISO  8  15  14  16  14  17  13  18  13  19  13  20  13  21  13  22  14
M  ISO  2  23  14  24   9
M  END
>  <minimizedAffinity>  (1) 
-4.33060122

>  <minimizedRMSD>  (1) 
6.67050934

$$$$
