
     RDKit          3D

 31 33  0  0  0  0  0  0  0  0999 V2000
   45.4920   34.5210   44.3270 C   0  0  0  0  0  0  0  0  0  0  0  0
   46.5270   34.1910   43.4070 C   0  0  0  0  0  0  0  0  0  0  0  0
   47.4660   33.2200   43.7960 C   0  0  0  0  0  0  0  0  0  0  0  0
   47.3250   32.6630   45.0180 N   0  0  0  0  0  0  0  0  0  0  0  0
   46.3230   33.0060   45.8680 C   0  0  0  0  0  0  0  0  0  0  0  0
   45.4100   33.9370   45.5140 N   0  0  0  0  0  0  0  0  0  0  0  0
   44.5150   35.5480   43.8920 C   0  0  0  0  0  0  0  0  0  0  0  0
   45.0250   36.9010   43.4420 C   0  0  0  0  0  0  0  0  0  0  0  0
   44.3900   35.9720   42.4910 C   0  0  0  0  0  0  0  0  0  0  0  0
   48.5160   32.8590   42.9080 N   0  0  0  0  0  0  0  0  0  0  0  0
   48.9470   31.4910   42.8530 C   0  0  0  0  0  0  0  0  0  0  0  0
   50.2770   31.4910   42.0980 C   0  0  0  0  0  0  0  0  0  0  0  0
   51.1380   32.5430   42.5980 N   0  0  0  0  0  0  0  0  0  0  0  0
   50.6220   33.8570   42.3680 C   0  0  0  0  0  0  0  0  0  0  0  0
   49.1290   33.8510   42.0810 C   0  0  0  0  0  0  0  0  0  0  0  0
   46.5899   34.6800   42.4237 H   0  0  0  0  0  0  0  0  0  0  0  0
   46.2541   32.5217   46.8532 H   0  0  0  0  0  0  0  0  0  0  0  0
   43.8041   35.1659   44.6394 H   0  0  0  0  0  0  0  0  0  0  0  0
   44.5034   37.8191   43.7502 H   0  0  0  0  0  0  0  0  0  0  0  0
   45.9857   37.4342   43.4947 H   0  0  0  0  0  0  0  0  0  0  0  0
   43.3973   36.2078   42.0799 H   0  0  0  0  0  0  0  0  0  0  0  0
   44.6935   35.5350   41.5283 H   0  0  0  0  0  0  0  0  0  0  0  0
   49.0859   31.0941   43.8695 H   0  0  0  0  0  0  0  0  0  0  0  0
   48.2018   30.8565   42.3509 H   0  0  0  0  0  0  0  0  0  0  0  0
   50.0866   31.6559   41.0272 H   0  0  0  0  0  0  0  0  0  0  0  0
   50.7734   30.5208   42.2470 H   0  0  0  0  0  0  0  0  0  0  0  0
   51.2577   32.4123   43.6126 H   0  0  0  0  0  0  0  0  0  0  0  0
   50.8075   34.4709   43.2617 H   0  0  0  0  0  0  0  0  0  0  0  0
   51.1319   34.2678   41.4841 H   0  0  0  0  0  0  0  0  0  0  0  0
   48.7028   34.8394   42.3080 H   0  0  0  0  0  0  0  0  0  0  0  0
   48.9483   33.6237   41.0200 H   0  0  0  0  0  0  0  0  0  0  0  0
  1  6  2  0
  2  3  2  0
  2  1  1  0
  3  4  1  0
  4  5  2  0
  6  5  1  0
  7  1  1  0
  8  7  1  0
  9  8  1  0
  9  7  1  0
 10  3  1  0
 11 10  1  0
 12 13  1  0
 12 11  1  0
 14 13  1  0
 15 14  1  0
 15 10  1  0
  2 16  1  0
  5 17  1  0
  7 18  1  0
  8 19  1  0
  8 20  1  0
  9 21  1  0
  9 22  1  0
 11 23  1  0
 11 24  1  0
 12 25  1  0
 12 26  1  0
 13 27  1  0
 14 28  1  0
 14 29  1  0
 15 30  1  0
 15 31  1  0
M  ISO  8  16  14  17  14  18  13  19  13  20  13  21  13  22  13  23  13
M  ISO  8  24  13  25  13  26  13  27   5  28  13  29  13  30  13  31  13
M  END
>  <minimizedAffinity>  (1) 
-4.22822952

>  <minimizedRMSD>  (1) 
1.91766691

$$$$
