
     RDKit          3D

 23 25  0  0  0  0  0  0  0  0999 V2000
   45.4590   34.5520   44.2800 C   0  0  0  0  0  0  0  0  0  0  0  0
   46.5120   34.2080   43.4200 C   0  0  0  0  0  0  0  0  0  0  0  0
   47.4660   33.2670   43.7670 C   0  0  0  0  0  0  0  0  0  0  0  0
   47.3090   32.7080   44.9860 N   0  0  0  0  0  0  0  0  0  0  0  0
   46.2890   33.0400   45.8200 C   0  0  0  0  0  0  0  0  0  0  0  0
   45.3900   33.9470   45.4580 N   0  0  0  0  0  0  0  0  0  0  0  0
   44.4870   35.5810   43.8440 C   0  0  0  0  0  0  0  0  0  0  0  0
   45.0410   36.9160   43.3800 C   0  0  0  0  0  0  0  0  0  0  0  0
   44.3810   35.9960   42.4410 C   0  0  0  0  0  0  0  0  0  0  0  0
   48.5740   32.8940   42.8790 C   0  0  0  0  0  0  0  0  0  0  0  0
   48.4540   31.8280   41.9940 C   0  0  0  0  0  0  0  0  0  0  0  0
   50.0960   31.8040   41.1470 S   0  0  0  0  0  0  0  0  0  0  0  0
   50.6610   33.2910   42.1810 C   0  0  0  0  0  0  0  0  0  0  0  0
   49.7520   33.4880   42.8120 N   0  0  0  0  0  0  0  0  0  0  0  0
   46.5820   34.7013   42.4393 H   0  0  0  0  0  0  0  0  0  0  0  0
   46.2076   32.5532   46.8031 H   0  0  0  0  0  0  0  0  0  0  0  0
   43.7589   35.2223   44.5865 H   0  0  0  0  0  0  0  0  0  0  0  0
   44.5469   37.8532   43.6760 H   0  0  0  0  0  0  0  0  0  0  0  0
   46.0171   37.4207   43.4292 H   0  0  0  0  0  0  0  0  0  0  0  0
   43.3972   36.2578   42.0242 H   0  0  0  0  0  0  0  0  0  0  0  0
   44.6748   35.5393   41.4844 H   0  0  0  0  0  0  0  0  0  0  0  0
   47.5926   31.1622   41.8367 H   0  0  0  0  0  0  0  0  0  0  0  0
   51.6248   33.8210   42.1667 H   0  0  0  0  0  0  0  0  0  0  0  0
  1  6  2  0
  2  3  2  0
  2  1  1  0
  3  4  1  0
  4  5  2  0
  6  5  1  0
  7  1  1  0
  8  7  1  0
  9  8  1  0
  9  7  1  0
 10  3  1  0
 11 10  2  0
 12 11  1  0
 12 13  1  0
 13 14  2  0
 14 10  1  0
  2 15  1  0
  5 16  1  0
  7 17  1  0
  8 18  1  0
  8 19  1  0
  9 20  1  0
  9 21  1  0
 11 22  1  0
 13 23  1  0
M  ISO  8  15  14  16  14  17  13  18  13  19  13  20  13  21  13  22  14
M  ISO  1  23  14
M  END
>  <minimizedAffinity>  (1) 
-3.86462355

>  <minimizedRMSD>  (1) 
1.66739619

$$$$
