
     RDKit          3D

 30 32  0  0  0  0  0  0  0  0999 V2000
   44.3890   33.7190   42.7050 C   0  0  0  0  0  0  0  0  0  0  0  0
   43.4450   34.2380   41.8000 C   0  0  0  0  0  0  0  0  0  0  0  0
   42.6010   33.3460   41.1150 C   0  0  0  0  0  0  0  0  0  0  0  0
   42.7410   32.0290   41.3610 N   0  0  0  0  0  0  0  0  0  0  0  0
   43.6720   31.5670   42.2480 C   0  0  0  0  0  0  0  0  0  0  0  0
   44.4860   32.4130   42.9110 N   0  0  0  0  0  0  0  0  0  0  0  0
   45.2540   34.7020   43.3970 C   0  0  0  0  0  0  0  0  0  0  0  0
   46.4100   35.3120   42.6360 C   0  0  0  0  0  0  0  0  0  0  0  0
   45.2520   36.1290   43.0420 C   0  0  0  0  0  0  0  0  0  0  0  0
   41.6290   33.8090   40.1910 N   0  0  0  0  0  0  0  0  0  0  0  0
   40.2410   34.0230   40.4800 C   0  0  0  0  0  0  0  0  0  0  0  0
   39.9920   35.5170   40.3790 C   0  0  0  0  0  0  0  0  0  0  0  0
   40.7210   36.0500   39.3340 O   0  0  0  0  0  0  0  0  0  0  0  0
   41.0310   35.1490   38.3290 C   0  0  0  0  0  0  0  0  0  0  0  0
   42.0330   34.1010   38.8300 C   0  0  0  0  0  0  0  0  0  0  0  0
   43.3686   35.3223   41.6313 H   0  0  0  0  0  0  0  0  0  0  0  0
   43.7590   30.4847   42.4245 H   0  0  0  0  0  0  0  0  0  0  0  0
   45.1150   34.1504   44.3385 H   0  0  0  0  0  0  0  0  0  0  0  0
   46.5667   35.0633   41.5760 H   0  0  0  0  0  0  0  0  0  0  0  0
   47.4991   35.3702   42.7792 H   0  0  0  0  0  0  0  0  0  0  0  0
   45.3695   36.8869   43.8306 H   0  0  0  0  0  0  0  0  0  0  0  0
   44.5504   36.7850   42.5059 H   0  0  0  0  0  0  0  0  0  0  0  0
   39.6162   33.4858   39.7513 H   0  0  0  0  0  0  0  0  0  0  0  0
   39.9867   33.6495   41.4829 H   0  0  0  0  0  0  0  0  0  0  0  0
   38.9209   35.6963   40.2041 H   0  0  0  0  0  0  0  0  0  0  0  0
   40.3037   35.9982   41.3178 H   0  0  0  0  0  0  0  0  0  0  0  0
   41.4712   35.6925   37.4800 H   0  0  0  0  0  0  0  0  0  0  0  0
   40.1092   34.6361   38.0173 H   0  0  0  0  0  0  0  0  0  0  0  0
   41.9844   33.1936   38.2101 H   0  0  0  0  0  0  0  0  0  0  0  0
   43.0696   34.4655   38.7781 H   0  0  0  0  0  0  0  0  0  0  0  0
  1  6  1  0
  1  7  1  0
  2  1  2  0
  3  4  2  0
  3  2  1  0
  4  5  1  0
  5  6  2  0
  8  9  1  0
  8  7  1  0
  9  7  1  0
 10 11  1  0
 10  3  1  0
 12 11  1  0
 13 12  1  0
 14 15  1  0
 14 13  1  0
 15 10  1  0
  2 16  1  0
  5 17  1  0
  7 18  1  0
  8 19  1  0
  8 20  1  0
  9 21  1  0
  9 22  1  0
 11 23  1  0
 11 24  1  0
 12 25  1  0
 12 26  1  0
 14 27  1  0
 14 28  1  0
 15 29  1  0
 15 30  1  0
M  ISO  8  16  14  17  14  18  13  19  13  20  13  21  13  22  13  23  13
M  ISO  7  24  13  25  13  26  13  27  13  28  13  29  13  30  13
M  END
>  <minimizedAffinity>  (1) 
-4.007164

>  <minimizedRMSD>  (1) 
6.76853085

$$$$
