
     RDKit          3D

 42 45  0  0  1  0  0  0  0  0999 V2000
   45.4430   34.4660   42.2260 C   0  0  0  0  0  0  0  0  0  0  0  0
   44.2500   33.7330   42.1760 C   0  0  0  0  0  0  0  0  0  0  0  0
   44.0220   32.8860   41.0700 C   0  0  0  0  0  0  0  0  0  0  0  0
   44.9740   32.8200   40.1040 N   0  0  0  0  0  0  0  0  0  0  0  0
   46.1230   33.5620   40.2060 C   0  0  0  0  0  0  0  0  0  0  0  0
   46.3480   34.3760   41.2620 N   0  0  0  0  0  0  0  0  0  0  0  0
   42.8350   32.1200   40.9530 N   0  0  0  0  0  0  0  0  0  0  0  0
   42.7220   30.7300   41.3410 C   0  0  0  0  0  0  0  0  0  0  0  0
   41.7880   30.6700   42.5300 C   0  0  0  0  0  0  0  0  0  0  0  0
   40.7720   31.5870   42.3740 O   0  0  0  0  0  0  0  0  0  0  0  0
   40.4910   31.9210   41.0750 C   0  0  0  0  0  0  0  0  0  0  0  0
   41.6460   32.7010   40.4190 C   0  0  1  0  0  0  0  0  0  0  0  0
   45.6280   35.3450   43.4020 C   0  0  0  0  0  0  0  0  0  0  0  0
   45.1020   36.7740   43.3300 C   0  0  0  0  0  0  0  0  0  0  0  0
   44.5210   35.7610   44.2490 C   0  0  0  0  0  0  0  0  0  0  0  0
   41.5140   34.1220   40.6430 N   0  0  0  0  0  0  0  0  0  0  0  0
   40.1200   34.4690   40.9330 C   0  0  0  0  0  0  0  0  0  0  0  0
   40.1490   35.9690   40.6060 C   0  0  0  0  0  0  0  0  0  0  0  0
   40.7660   35.9160   39.2360 C   0  0  0  0  0  0  0  0  0  0  0  0
   41.6850   34.7160   39.3000 C   0  0  0  0  0  0  0  0  0  0  0  0
   43.5062   33.8159   42.9822 H   0  0  0  0  0  0  0  0  0  0  0  0
   46.8792   33.4933   39.4101 H   0  0  0  0  0  0  0  0  0  0  0  0
   42.3111   30.1391   40.5092 H   0  0  0  0  0  0  0  0  0  0  0  0
   43.7080   30.3159   41.5986 H   0  0  0  0  0  0  0  0  0  0  0  0
   41.3592   29.6599   42.6066 H   0  0  0  0  0  0  0  0  0  0  0  0
   42.3510   30.9050   43.4454 H   0  0  0  0  0  0  0  0  0  0  0  0
   40.3135   30.9993   40.5014 H   0  0  0  0  0  0  0  0  0  0  0  0
   39.6004   32.5666   41.0743 H   0  0  0  0  0  0  0  0  0  0  0  0
   41.6552   32.6204   39.3220 H   0  0  0  0  0  0  0  0  0  0  0  0
   46.5906   34.8529   43.6050 H   0  0  0  0  0  0  0  0  0  0  0  0
   45.7000   37.6073   43.7274 H   0  0  0  0  0  0  0  0  0  0  0  0
   44.7191   37.4367   42.5399 H   0  0  0  0  0  0  0  0  0  0  0  0
   43.5119   35.3679   44.0560 H   0  0  0  0  0  0  0  0  0  0  0  0
   44.3362   35.7308   45.3329 H   0  0  0  0  0  0  0  0  0  0  0  0
   39.4193   33.9227   40.2845 H   0  0  0  0  0  0  0  0  0  0  0  0
   39.7814   34.2215   41.9499 H   0  0  0  0  0  0  0  0  0  0  0  0
   39.1386   36.4032   40.5838 H   0  0  0  0  0  0  0  0  0  0  0  0
   40.6838   36.5955   41.3350 H   0  0  0  0  0  0  0  0  0  0  0  0
   41.3344   36.8341   39.0265 H   0  0  0  0  0  0  0  0  0  0  0  0
   40.0165   35.8355   38.4349 H   0  0  0  0  0  0  0  0  0  0  0  0
   41.4099   33.9859   38.5246 H   0  0  0  0  0  0  0  0  0  0  0  0
   42.7311   35.0087   39.1268 H   0  0  0  0  0  0  0  0  0  0  0  0
  1 13  1  0
  2  1  2  0
  3  2  1  0
  4  5  1  0
  4  3  2  0
  5  6  2  0
  6  1  1  0
  7  3  1  0
  7  8  1  0
  8  9  1  0
 10  9  1  0
 11 10  1  0
 12 16  1  0
 12  7  1  0
 12 11  1  0
 13 15  1  0
 14 13  1  0
 14 15  1  0
 16 17  1  0
 18 17  1  0
 19 20  1  0
 19 18  1  0
 20 16  1  0
  2 21  1  0
  5 22  1  0
  8 23  1  0
  8 24  1  0
  9 25  1  0
  9 26  1  0
 11 27  1  0
 11 28  1  0
 12 29  1  6
 13 30  1  0
 14 31  1  0
 14 32  1  0
 15 33  1  0
 15 34  1  0
 17 35  1  0
 17 36  1  0
 18 37  1  0
 18 38  1  0
 19 39  1  0
 19 40  1  0
 20 41  1  0
 20 42  1  0
M  ISO  8  21  14  22  14  23  13  24  13  25  13  26  13  27  13  28  13
M  ISO  8  29  13  30  13  31  13  32  13  33  13  34  13  35  13  36  13
M  ISO  6  37  13  38  13  39  13  40  13  41  13  42  13
M  END
>  <minimizedAffinity>  (1) 
-5.14987707

>  <minimizedRMSD>  (1) 
3.36008549

$$$$
