
     RDKit          3D

 44 48  0  0  1  0  0  0  0  0999 V2000
   44.7900   33.4480   42.6370 C   0  0  0  0  0  0  0  0  0  0  0  0
   43.7870   34.0380   41.8510 C   0  0  0  0  0  0  0  0  0  0  0  0
   42.6830   33.2700   41.4510 C   0  0  0  0  0  0  0  0  0  0  0  0
   42.6400   31.9930   41.8460 N   0  0  0  0  0  0  0  0  0  0  0  0
   43.6360   31.4550   42.6110 C   0  0  0  0  0  0  0  0  0  0  0  0
   44.7020   32.1850   43.0010 N   0  0  0  0  0  0  0  0  0  0  0  0
   41.6380   33.8280   40.6600 N   0  0  0  0  0  0  0  0  0  0  0  0
   40.3870   34.3300   41.1770 C   0  0  0  0  0  0  0  0  0  0  0  0
   40.3820   35.8340   40.9420 C   0  0  0  0  0  0  0  0  0  0  0  0
   40.9550   36.1240   39.7310 O   0  0  0  0  0  0  0  0  0  0  0  0
   40.9010   35.1000   38.8070 C   0  0  0  0  0  0  0  0  0  0  0  0
   41.7970   33.9160   39.2360 C   0  0  2  0  0  0  0  0  0  0  0  0
   41.3890   32.6840   38.6310 N   0  0  0  0  0  0  0  0  0  0  0  0
   41.9230   31.9670   37.6250 C   0  0  0  0  0  0  0  0  0  0  0  0
   41.2190   30.8510   37.3620 N   0  0  0  0  0  0  0  0  0  0  0  0
   40.1660   30.8190   38.2310 C   0  0  0  0  0  0  0  0  0  0  0  0
   39.1200   29.9460   38.4460 C   0  0  0  0  0  0  0  0  0  0  0  0
   39.0450   28.9310   37.7270 O   0  0  0  0  0  0  0  0  0  0  0  0
   38.2050   30.1870   39.4070 N   0  0  0  0  0  0  0  0  0  0  0  0
   38.3830   31.3210   40.1300 C   0  0  0  0  0  0  0  0  0  0  0  0
   37.4730   31.6840   41.1820 N   0  0  0  0  0  0  0  0  0  0  0  0
   39.3790   32.2120   39.9720 N   0  0  0  0  0  0  0  0  0  0  0  0
   40.2960   31.9580   38.9990 C   0  0  0  0  0  0  0  0  0  0  0  0
   45.9280   34.3150   43.0200 C   0  0  0  0  0  0  0  0  0  0  0  0
   46.9090   34.7470   41.9330 C   0  0  0  0  0  0  0  0  0  0  0  0
   46.0260   35.7140   42.6320 C   0  0  0  0  0  0  0  0  0  0  0  0
   43.8662   35.0934   41.5514 H   0  0  0  0  0  0  0  0  0  0  0  0
   43.5673   30.4006   42.9167 H   0  0  0  0  0  0  0  0  0  0  0  0
   39.5440   33.8618   40.6477 H   0  0  0  0  0  0  0  0  0  0  0  0
   40.2826   34.0988   42.2473 H   0  0  0  0  0  0  0  0  0  0  0  0
   39.3447   36.2000   40.9505 H   0  0  0  0  0  0  0  0  0  0  0  0
   40.9589   36.3247   41.7397 H   0  0  0  0  0  0  0  0  0  0  0  0
   41.2455   35.4767   37.8326 H   0  0  0  0  0  0  0  0  0  0  0  0
   39.8620   34.7452   38.7388 H   0  0  0  0  0  0  0  0  0  0  0  0
   42.8387   34.0822   38.9243 H   0  0  0  0  0  0  0  0  0  0  0  0
   42.8321   32.2602   37.0795 H   0  0  0  0  0  0  0  0  0  0  0  0
   37.4169   29.5473   39.5818 H   0  0  0  0  0  0  0  0  0  0  0  0
   37.6258   32.5494   41.7193 H   0  0  0  0  0  0  0  0  0  0  0  0
   36.6682   31.0787   41.3984 H   0  0  0  0  0  0  0  0  0  0  0  0
   45.9738   33.7983   43.9900 H   0  0  0  0  0  0  0  0  0  0  0  0
   46.7239   34.4849   40.8808 H   0  0  0  0  0  0  0  0  0  0  0  0
   47.9905   34.6468   41.7588 H   0  0  0  0  0  0  0  0  0  0  0  0
   46.4639   36.4417   43.3310 H   0  0  0  0  0  0  0  0  0  0  0  0
   45.2964   36.4638   42.2921 H   0  0  0  0  0  0  0  0  0  0  0  0
  1  6  1  0
  1 24  1  0
  2  1  2  0
  3  4  2  0
  3  2  1  0
  4  5  1  0
  5  6  2  0
  7  8  1  0
  7  3  1  0
  9  8  1  0
 10  9  1  0
 11 12  1  0
 11 10  1  0
 12  7  1  0
 13 23  1  0
 13 12  1  0
 14 13  1  0
 15 14  2  0
 15 16  1  0
 16 17  1  0
 16 23  2  0
 17 19  1  0
 18 17  2  0
 19 20  1  0
 20 21  1  0
 22 20  2  0
 23 22  1  0
 25 26  1  0
 25 24  1  0
 26 24  1  0
  2 27  1  0
  5 28  1  0
  8 29  1  0
  8 30  1  0
  9 31  1  0
  9 32  1  0
 11 33  1  0
 11 34  1  0
 12 35  1  1
 14 36  1  0
 19 37  1  0
 21 38  1  0
 21 39  1  0
 24 40  1  0
 25 41  1  0
 25 42  1  0
 26 43  1  0
 26 44  1  0
M  ISO  8  27  14  28  14  29  13  30  13  31  13  32  13  33  13  34  13
M  ISO  8  35  13  36  14  37   9  40  13  41  13  42  13  43  13  44  13
M  END
>  <minimizedAffinity>  (1) 
-5.79449368

>  <minimizedRMSD>  (1) 
1.54775524

$$$$
