
     RDKit          3D

 33 35  0  0  1  0  0  0  0  0999 V2000
   43.9780   33.5140   41.4080 C   0  0  0  0  0  0  0  0  0  0  0  0
   42.6670   33.7060   40.9480 C   0  0  0  0  0  0  0  0  0  0  0  0
   42.1840   32.9830   39.8600 C   0  0  0  0  0  0  0  0  0  0  0  0
   43.0430   32.1020   39.2900 N   0  0  0  0  0  0  0  0  0  0  0  0
   44.3130   31.9370   39.7620 C   0  0  0  0  0  0  0  0  0  0  0  0
   44.7710   32.6420   40.8150 N   0  0  0  0  0  0  0  0  0  0  0  0
   40.8750   33.1460   39.3550 N   0  0  0  0  0  0  0  0  0  0  0  0
   39.7530   32.3000   39.7050 C   0  0  0  0  0  0  0  0  0  0  0  0
   38.7820   33.1460   40.4890 C   0  0  0  0  0  0  0  0  0  0  0  0
   38.7420   34.4240   39.9680 O   0  0  0  0  0  0  0  0  0  0  0  0
   39.0890   34.5130   38.6430 C   0  0  0  0  0  0  0  0  0  0  0  0
   40.5830   34.1820   38.4270 C   0  0  1  0  0  0  0  0  0  0  0  0
   44.4110   34.3430   42.5550 C   0  0  0  0  0  0  0  0  0  0  0  0
   45.7220   35.1260   42.4360 C   0  0  0  0  0  0  0  0  0  0  0  0
   44.3980   35.7960   42.5300 C   0  0  0  0  0  0  0  0  0  0  0  0
   41.4220   35.3940   38.4210 C   0  0  0  0  0  0  0  0  0  0  0  0
   41.1370   36.3580   37.5120 F   0  0  0  0  0  0  0  0  0  0  0  0
   42.7300   34.9740   38.1310 F   0  0  0  0  0  0  0  0  0  0  0  0
   41.4600   35.8700   39.7220 F   0  0  0  0  0  0  0  0  0  0  0  0
   42.0142   34.4344   41.4512 H   0  0  0  0  0  0  0  0  0  0  0  0
   44.9783   31.2114   39.2712 H   0  0  0  0  0  0  0  0  0  0  0  0
   39.2697   31.9192   38.7932 H   0  0  0  0  0  0  0  0  0  0  0  0
   40.0864   31.4368   40.2998 H   0  0  0  0  0  0  0  0  0  0  0  0
   37.7792   32.6976   40.4315 H   0  0  0  0  0  0  0  0  0  0  0  0
   39.1096   33.1937   41.5380 H   0  0  0  0  0  0  0  0  0  0  0  0
   38.4783   33.8039   38.0649 H   0  0  0  0  0  0  0  0  0  0  0  0
   38.9116   35.5455   38.3077 H   0  0  0  0  0  0  0  0  0  0  0  0
   40.8265   33.7924   37.4275 H   0  0  0  0  0  0  0  0  0  0  0  0
   43.9763   33.5975   43.2371 H   0  0  0  0  0  0  0  0  0  0  0  0
   46.2830   35.1319   41.4898 H   0  0  0  0  0  0  0  0  0  0  0  0
   46.6721   35.1684   42.9887 H   0  0  0  0  0  0  0  0  0  0  0  0
   44.1351   36.3516   43.4423 H   0  0  0  0  0  0  0  0  0  0  0  0
   43.8769   36.5419   41.9119 H   0  0  0  0  0  0  0  0  0  0  0  0
  1 13  1  0
  2  1  2  0
  3  2  1  0
  4  5  1  0
  4  3  2  0
  5  6  2  0
  6  1  1  0
  7  8  1  0
  7  3  1  0
  8  9  1  0
 10  9  1  0
 11 10  1  0
 12 11  1  0
 12  7  1  0
 14 15  1  0
 14 13  1  0
 15 13  1  0
 16 12  1  0
 16 19  1  0
 17 16  1  0
 18 16  1  0
  2 20  1  0
  5 21  1  0
  8 22  1  0
  8 23  1  0
  9 24  1  0
  9 25  1  0
 11 26  1  0
 11 27  1  0
 12 28  1  6
 13 29  1  0
 14 30  1  0
 14 31  1  0
 15 32  1  0
 15 33  1  0
M  ISO  8  20  14  21  14  22  13  23  13  24  13  25  13  26  13  27  13
M  ISO  6  28  13  29  13  30  13  31  13  32  13  33  13
M  END
>  <minimizedAffinity>  (1) 
-4.84273481

>  <minimizedRMSD>  (1) 
1.98677349

$$$$
