
     RDKit          3D

 40 43  0  0  1  0  0  0  0  0999 V2000
   45.3200   30.9870   43.5240 C   0  0  0  0  0  0  0  0  0  0  0  0
   44.5860   32.0080   42.8880 C   0  0  0  0  0  0  0  0  0  0  0  0
   44.1600   31.8440   41.5680 C   0  0  0  0  0  0  0  0  0  0  0  0
   44.4820   30.6810   40.9490 N   0  0  0  0  0  0  0  0  0  0  0  0
   45.1980   29.7110   41.6030 C   0  0  0  0  0  0  0  0  0  0  0  0
   45.6060   29.8780   42.8790 N   0  0  0  0  0  0  0  0  0  0  0  0
   43.4140   32.8280   40.8850 N   0  0  0  0  0  0  0  0  0  0  0  0
   41.9750   32.8350   40.7540 C   0  0  0  0  0  0  0  0  0  0  0  0
   41.4560   34.0170   41.5390 C   0  0  0  0  0  0  0  0  0  0  0  0
   42.3080   35.0850   41.4100 O   0  0  0  0  0  0  0  0  0  0  0  0
   43.0660   35.0790   40.2540 C   0  0  0  0  0  0  0  0  0  0  0  0
   44.0860   33.9240   40.2570 C   0  0  1  0  0  0  0  0  0  0  0  0
   45.3470   34.2890   40.8060 N   0  0  0  0  0  0  0  0  0  0  0  0
   45.5130   34.9660   41.9570 C   0  0  0  0  0  0  0  0  0  0  0  0
   46.7710   35.2820   42.4220 C   0  0  0  0  0  0  0  0  0  0  0  0
   47.9130   34.9210   41.7330 C   0  0  0  0  0  0  0  0  0  0  0  0
   49.0540   35.2200   42.1750 O   0  0  0  0  0  0  0  0  0  0  0  0
   47.7290   34.2440   40.5830 N   0  0  0  0  0  0  0  0  0  0  0  0
   46.4870   33.9510   40.1550 C   0  0  0  0  0  0  0  0  0  0  0  0
   46.4100   33.3110   39.0600 O   0  0  0  0  0  0  0  0  0  0  0  0
   45.7300   31.2440   44.9120 C   0  0  0  0  0  0  0  0  0  0  0  0
   47.1970   31.5780   45.1870 C   0  0  0  0  0  0  0  0  0  0  0  0
   46.0980   32.5540   45.4160 C   0  0  0  0  0  0  0  0  0  0  0  0
   44.3485   32.9345   43.4313 H   0  0  0  0  0  0  0  0  0  0  0  0
   45.4450   28.7772   41.0767 H   0  0  0  0  0  0  0  0  0  0  0  0
   41.6943   32.9343   39.6951 H   0  0  0  0  0  0  0  0  0  0  0  0
   41.5456   31.8967   41.1351 H   0  0  0  0  0  0  0  0  0  0  0  0
   40.4626   34.2972   41.1588 H   0  0  0  0  0  0  0  0  0  0  0  0
   41.3882   33.7394   42.6012 H   0  0  0  0  0  0  0  0  0  0  0  0
   43.6066   36.0338   40.1754 H   0  0  0  0  0  0  0  0  0  0  0  0
   42.3899   34.9418   39.3972 H   0  0  0  0  0  0  0  0  0  0  0  0
   44.3888   33.6278   39.2418 H   0  0  0  0  0  0  0  0  0  0  0  0
   44.6296   35.2723   42.5364 H   0  0  0  0  0  0  0  0  0  0  0  0
   46.8687   35.8365   43.3670 H   0  0  0  0  0  0  0  0  0  0  0  0
   48.5444   33.9485   40.0274 H   0  0  0  0  0  0  0  0  0  0  0  0
   44.9928   30.4969   45.2413 H   0  0  0  0  0  0  0  0  0  0  0  0
   47.7221   31.1207   46.0386 H   0  0  0  0  0  0  0  0  0  0  0  0
   48.1347   31.5611   44.6122 H   0  0  0  0  0  0  0  0  0  0  0  0
   46.0074   33.4325   44.7602 H   0  0  0  0  0  0  0  0  0  0  0  0
   45.7802   33.1537   46.2817 H   0  0  0  0  0  0  0  0  0  0  0  0
  1 21  1  0
  2  1  2  0
  3  2  1  0
  4  3  2  0
  4  5  1  0
  5  6  2  0
  6  1  1  0
  7  3  1  0
  8  7  1  0
  8  9  1  0
 10  9  1  0
 11 12  1  0
 11 10  1  0
 12 13  1  0
 12  7  1  0
 13 14  1  0
 14 15  2  0
 16 17  2  0
 16 15  1  0
 18 16  1  0
 19 18  1  0
 19 13  1  0
 20 19  2  0
 21 22  1  0
 21 23  1  0
 22 23  1  0
  2 24  1  0
  5 25  1  0
  8 26  1  0
  8 27  1  0
  9 28  1  0
  9 29  1  0
 11 30  1  0
 11 31  1  0
 12 32  1  6
 14 33  1  0
 15 34  1  0
 18 35  1  0
 21 36  1  0
 22 37  1  0
 22 38  1  0
 23 39  1  0
 23 40  1  0
M  ISO  8  24  14  25  14  26  13  27  13  28  13  29  13  30  13  31  13
M  ISO  8  32  13  33  14  34  14  35   9  36  13  37  13  38  13  39  13
M  ISO  1  40  13
M  END
>  <minimizedAffinity>  (1) 
-4.3913312

>  <minimizedRMSD>  (1) 
3.3010416

$$$$
