
     RDKit          3D

 46 49  0  0  1  0  0  0  0  0999 V2000
   45.1530   33.2400   43.3120 C   0  0  0  0  0  0  0  0  0  0  0  0
   44.1340   33.3030   42.3590 C   0  0  0  0  0  0  0  0  0  0  0  0
   43.4570   32.1580   41.9620 C   0  0  0  0  0  0  0  0  0  0  0  0
   43.8350   30.9950   42.5460 N   0  0  0  0  0  0  0  0  0  0  0  0
   44.8360   30.9610   43.4780 C   0  0  0  0  0  0  0  0  0  0  0  0
   45.4840   32.0810   43.8520 N   0  0  0  0  0  0  0  0  0  0  0  0
   42.4340   32.1750   40.9930 N   0  0  0  0  0  0  0  0  0  0  0  0
   41.0160   32.2300   41.2960 C   0  0  0  0  0  0  0  0  0  0  0  0
   40.5020   33.5580   40.8200 C   0  0  0  0  0  0  0  0  0  0  0  0
   41.1230   33.9200   39.6390 O   0  0  0  0  0  0  0  0  0  0  0  0
   41.5990   32.8660   38.8980 C   0  0  0  0  0  0  0  0  0  0  0  0
   42.7300   32.1140   39.6090 C   0  0  1  0  0  0  0  0  0  0  0  0
   45.8440   34.5150   43.6510 C   0  0  0  0  0  0  0  0  0  0  0  0
   46.7880   35.1180   42.6130 C   0  0  0  0  0  0  0  0  0  0  0  0
   45.5150   35.7750   43.0060 C   0  0  0  0  0  0  0  0  0  0  0  0
   44.0590   32.4080   39.0920 C   0  0  0  0  0  0  0  0  0  0  0  0
   44.6500   31.0520   38.6380 C   0  0  0  0  0  0  0  0  0  0  0  0
   46.1620   31.3020   38.6480 C   0  0  0  0  0  0  0  0  0  0  0  0
   46.3960   32.1930   37.4290 C   0  0  0  0  0  0  0  0  0  0  0  0
   45.1430   32.7350   36.8330 C   0  0  0  0  0  0  0  0  0  0  0  0
   44.1880   33.2900   37.8880 C   0  0  0  0  0  0  0  0  0  0  0  0
   43.8641   34.2734   41.9169 H   0  0  0  0  0  0  0  0  0  0  0  0
   45.1174   29.9991   43.9313 H   0  0  0  0  0  0  0  0  0  0  0  0
   40.4895   31.4158   40.7766 H   0  0  0  0  0  0  0  0  0  0  0  0
   40.8468   32.1148   42.3768 H   0  0  0  0  0  0  0  0  0  0  0  0
   39.4171   33.4878   40.6523 H   0  0  0  0  0  0  0  0  0  0  0  0
   40.7179   34.3189   41.5844 H   0  0  0  0  0  0  0  0  0  0  0  0
   41.9786   33.2509   37.9400 H   0  0  0  0  0  0  0  0  0  0  0  0
   40.7691   32.1596   38.7488 H   0  0  0  0  0  0  0  0  0  0  0  0
   42.7796   31.0397   39.3781 H   0  0  0  0  0  0  0  0  0  0  0  0
   45.9002   34.1990   44.7031 H   0  0  0  0  0  0  0  0  0  0  0  0
   46.8921   34.6555   41.6204 H   0  0  0  0  0  0  0  0  0  0  0  0
   47.8495   35.4048   42.5808 H   0  0  0  0  0  0  0  0  0  0  0  0
   45.5430   36.7069   43.5897 H   0  0  0  0  0  0  0  0  0  0  0  0
   44.6409   36.1393   42.4463 H   0  0  0  0  0  0  0  0  0  0  0  0
   44.5511   32.9497   39.9132 H   0  0  0  0  0  0  0  0  0  0  0  0
   44.3013   30.7889   37.6285 H   0  0  0  0  0  0  0  0  0  0  0  0
   44.3490   30.2145   39.2845 H   0  0  0  0  0  0  0  0  0  0  0  0
   46.4677   31.8148   39.5719 H   0  0  0  0  0  0  0  0  0  0  0  0
   46.7459   30.3705   38.6106 H   0  0  0  0  0  0  0  0  0  0  0  0
   47.0296   33.0390   37.7339 H   0  0  0  0  0  0  0  0  0  0  0  0
   46.8725   31.5668   36.6603 H   0  0  0  0  0  0  0  0  0  0  0  0
   45.4052   33.5429   36.1341 H   0  0  0  0  0  0  0  0  0  0  0  0
   44.6310   31.9077   36.3197 H   0  0  0  0  0  0  0  0  0  0  0  0
   44.5598   34.2728   38.2132 H   0  0  0  0  0  0  0  0  0  0  0  0
   43.1927   33.3565   37.4243 H   0  0  0  0  0  0  0  0  0  0  0  0
  1 13  1  0
  1  6  1  0
  2  1  2  0
  3  2  1  0
  3  4  2  0
  4  5  1  0
  5  6  2  0
  7  8  1  0
  7  3  1  0
  9  8  1  0
 10  9  1  0
 11 12  1  0
 11 10  1  0
 12  7  1  0
 14 15  1  0
 14 13  1  0
 15 13  1  0
 16 12  1  0
 17 18  1  0
 17 16  1  0
 19 18  1  0
 20 19  1  0
 20 21  1  0
 21 16  1  0
  2 22  1  0
  5 23  1  0
  8 24  1  0
  8 25  1  0
  9 26  1  0
  9 27  1  0
 11 28  1  0
 11 29  1  0
 12 30  1  6
 13 31  1  0
 14 32  1  0
 14 33  1  0
 15 34  1  0
 15 35  1  0
 16 36  1  0
 17 37  1  0
 17 38  1  0
 18 39  1  0
 18 40  1  0
 19 41  1  0
 19 42  1  0
 20 43  1  0
 20 44  1  0
 21 45  1  0
 21 46  1  0
M  ISO  8  22  14  23  14  24  13  25  13  26  13  27  13  28  13  29  13
M  ISO  8  30  13  31  13  32  13  33  13  34  13  35  13  36  13  37  13
M  ISO  8  38  13  39  13  40  13  41  13  42  13  43  13  44  13  45  13
M  ISO  1  46  13
M  END
>  <minimizedAffinity>  (1) 
-4.00252914

>  <minimizedRMSD>  (1) 
1.98875439

$$$$
