
     RDKit          3D

 56 60  0  0  1  0  0  0  0  0999 V2000
   41.8890   34.7370   39.2520 N   0  0  0  0  0  0  0  0  0  0  0  0
   41.6130   36.1310   39.0580 C   0  0  0  0  0  0  0  0  0  0  0  0
   41.1920   36.3150   37.6040 C   0  0  0  0  0  0  0  0  0  0  0  0
   40.4270   35.2420   37.1890 O   0  0  0  0  0  0  0  0  0  0  0  0
   39.7520   34.6150   38.2550 C   0  0  0  0  0  0  0  0  0  0  0  0
   40.7550   33.9040   39.1460 C   0  0  2  0  0  0  0  0  0  0  0  0
   45.1040   33.9120   40.9740 C   0  0  0  0  0  0  0  0  0  0  0  0
   43.8410   34.4650   40.7310 C   0  0  0  0  0  0  0  0  0  0  0  0
   43.1730   34.1980   39.5210 C   0  0  0  0  0  0  0  0  0  0  0  0
   43.8030   33.4130   38.6560 N   0  0  0  0  0  0  0  0  0  0  0  0
   45.0270   32.8880   38.9080 C   0  0  0  0  0  0  0  0  0  0  0  0
   45.6680   33.1400   40.0630 N   0  0  0  0  0  0  0  0  0  0  0  0
   45.7560   34.2350   42.2640 C   0  0  0  0  0  0  0  0  0  0  0  0
   47.0030   35.1330   42.2320 C   0  0  0  0  0  0  0  0  0  0  0  0
   45.7100   35.5500   42.8530 C   0  0  0  0  0  0  0  0  0  0  0  0
   40.0700   33.4260   40.3700 C   0  0  0  0  0  0  0  0  0  0  0  0
   40.7300   32.1720   40.8400 C   0  0  0  0  0  0  0  0  0  0  0  0
   40.1990   34.4200   41.5240 C   0  0  0  0  0  0  0  0  0  0  0  0
   38.5940   33.2130   40.2170 C   0  0  0  0  0  0  0  0  0  0  0  0
   38.2720   31.7710   40.2330 C   0  0  0  0  0  0  0  0  0  0  0  0
   37.9590   31.1420   41.3680 N   0  0  0  0  0  0  0  0  0  0  0  0
   37.7220   29.8380   41.4690 C   0  0  0  0  0  0  0  0  0  0  0  0
   37.7760   29.0000   40.3930 N   0  0  0  0  0  0  0  0  0  0  0  0
   38.0850   29.5560   39.1990 C   0  0  0  0  0  0  0  0  0  0  0  0
   38.1180   28.7520   38.0790 C   0  0  0  0  0  0  0  0  0  0  0  0
   38.3900   29.2810   36.8320 C   0  0  0  0  0  0  0  0  0  0  0  0
   38.6210   30.6270   36.7820 C   0  0  0  0  0  0  0  0  0  0  0  0
   38.5940   31.4350   37.8840 C   0  0  0  0  0  0  0  0  0  0  0  0
   38.3270   30.9300   39.1410 C   0  0  0  0  0  0  0  0  0  0  0  0
   40.8009   36.4501   39.7277 H   0  0  0  0  0  0  0  0  0  0  0  0
   42.5020   36.7379   39.2845 H   0  0  0  0  0  0  0  0  0  0  0  0
   40.6026   37.2391   37.5106 H   0  0  0  0  0  0  0  0  0  0  0  0
   42.0923   36.3783   36.9751 H   0  0  0  0  0  0  0  0  0  0  0  0
   39.2128   35.3725   38.8428 H   0  0  0  0  0  0  0  0  0  0  0  0
   39.0367   33.8822   37.8535 H   0  0  0  0  0  0  0  0  0  0  0  0
   41.1625   32.9643   38.7448 H   0  0  0  0  0  0  0  0  0  0  0  0
   43.3695   35.1097   41.4874 H   0  0  0  0  0  0  0  0  0  0  0  0
   45.5044   32.2444   38.1544 H   0  0  0  0  0  0  0  0  0  0  0  0
   45.4910   33.2364   42.6415 H   0  0  0  0  0  0  0  0  0  0  0  0
   47.8753   34.9004   42.8605 H   0  0  0  0  0  0  0  0  0  0  0  0
   47.6798   35.5285   41.4603 H   0  0  0  0  0  0  0  0  0  0  0  0
   45.1085   36.3367   42.3741 H   0  0  0  0  0  0  0  0  0  0  0  0
   45.4328   35.9264   43.8487 H   0  0  0  0  0  0  0  0  0  0  0  0
   40.7400   32.1529   41.9398 H   0  0  0  0  0  0  0  0  0  0  0  0
   40.1733   31.3013   40.4632 H   0  0  0  0  0  0  0  0  0  0  0  0
   41.7629   32.1379   40.4632 H   0  0  0  0  0  0  0  0  0  0  0  0
   40.1292   33.8820   42.4809 H   0  0  0  0  0  0  0  0  0  0  0  0
   41.1710   34.9311   41.4608 H   0  0  0  0  0  0  0  0  0  0  0  0
   39.3897   35.1623   41.4608 H   0  0  0  0  0  0  0  0  0  0  0  0
   38.2633   33.6466   39.2617 H   0  0  0  0  0  0  0  0  0  0  0  0
   38.0765   33.7011   41.0560 H   0  0  0  0  0  0  0  0  0  0  0  0
   37.4734   29.4191   42.4553 H   0  0  0  0  0  0  0  0  0  0  0  0
   37.9249   27.6738   38.1800 H   0  0  0  0  0  0  0  0  0  0  0  0
   38.4190   28.6533   35.9291 H   0  0  0  0  0  0  0  0  0  0  0  0
   38.8398   31.0833   35.8053 H   0  0  0  0  0  0  0  0  0  0  0  0
   38.7893   32.5112   37.7669 H   0  0  0  0  0  0  0  0  0  0  0  0
  1  9  1  0
  2  1  1  0
  3  2  1  0
  4  3  1  0
  4  5  1  0
  5  6  1  0
  6  1  1  0
  6 16  1  0
  7 13  1  0
  8  7  2  0
  9  8  1  0
 10 11  1  0
 10  9  2  0
 11 12  2  0
 12  7  1  0
 13 15  1  0
 14 13  1  0
 14 15  1  0
 16 17  1  0
 16 18  1  0
 19 20  1  0
 19 16  1  0
 20 21  2  0
 21 22  1  0
 23 22  2  0
 24 23  1  0
 25 24  2  0
 26 25  1  0
 27 26  2  0
 27 28  1  0
 28 29  2  0
 29 24  1  0
 29 20  1  0
  2 30  1  0
  2 31  1  0
  3 32  1  0
  3 33  1  0
  5 34  1  0
  5 35  1  0
  6 36  1  6
  8 37  1  0
 11 38  1  0
 13 39  1  0
 14 40  1  0
 14 41  1  0
 15 42  1  0
 15 43  1  0
 17 44  1  0
 17 45  1  0
 17 46  1  0
 18 47  1  0
 18 48  1  0
 18 49  1  0
 19 50  1  0
 19 51  1  0
 22 52  1  0
 25 53  1  0
 26 54  1  0
 27 55  1  0
 28 56  1  0
M  ISO  8  30  13  31  13  32  13  33  13  34  13  35  13  36  13  37  14
M  ISO  8  38  14  39  13  40  13  41  13  42  13  43  13  44   8  45   8
M  ISO  8  46   8  47   8  48   8  49   8  50   8  51   8  52  14  53  14
M  ISO  3  54  14  55  14  56  14
M  END
>  <minimizedAffinity>  (1) 
-6.08409595

>  <minimizedRMSD>  (1) 
2.9823873

$$$$
