
     RDKit          3D

 52 55  0  0  1  0  0  0  0  0999 V2000
   46.3550   33.1570   41.5630 N   0  0  0  0  0  0  0  0  0  0  0  0
   46.4550   32.9380   42.9830 C   0  0  0  0  0  0  0  0  0  0  0  0
   47.1740   34.1520   43.5710 C   0  0  0  0  0  0  0  0  0  0  0  0
   46.7790   35.3000   42.9230 O   0  0  0  0  0  0  0  0  0  0  0  0
   45.4920   35.1980   42.3640 C   0  0  0  0  0  0  0  0  0  0  0  0
   45.5060   34.2270   41.1990 C   0  0  2  0  0  0  0  0  0  0  0  0
   48.3830   32.2170   38.5650 C   0  0  0  0  0  0  0  0  0  0  0  0
   47.7220   33.0130   39.5190 C   0  0  0  0  0  0  0  0  0  0  0  0
   47.0280   32.3980   40.5790 C   0  0  0  0  0  0  0  0  0  0  0  0
   47.0450   31.0720   40.6040 N   0  0  0  0  0  0  0  0  0  0  0  0
   47.6850   30.3220   39.6760 C   0  0  0  0  0  0  0  0  0  0  0  0
   48.3520   30.9120   38.6590 N   0  0  0  0  0  0  0  0  0  0  0  0
   49.0960   32.9330   37.4720 C   0  0  0  0  0  0  0  0  0  0  0  0
   48.4130   33.0270   36.0970 C   0  0  0  0  0  0  0  0  0  0  0  0
   48.6660   34.2120   36.9600 C   0  0  0  0  0  0  0  0  0  0  0  0
   44.1080   33.9390   40.7850 C   0  0  0  0  0  0  0  0  0  0  0  0
   44.1610   33.4440   39.3530 C   0  0  0  0  0  0  0  0  0  0  0  0
   43.4510   32.8530   41.5670 C   0  0  0  0  0  0  0  0  0  0  0  0
   43.1880   35.1190   40.8300 C   0  0  0  0  0  0  0  0  0  0  0  0
   41.8010   34.7900   40.5460 N   0  0  0  0  0  0  0  0  0  0  0  0
   40.9730   34.1470   41.4080 C   0  0  0  0  0  0  0  0  0  0  0  0
   39.6570   33.8140   41.2030 C   0  0  0  0  0  0  0  0  0  0  0  0
   39.1190   34.1720   39.9910 C   0  0  0  0  0  0  0  0  0  0  0  0
   37.9140   33.8950   39.7400 O   0  0  0  0  0  0  0  0  0  0  0  0
   39.9010   34.8110   39.1030 N   0  0  0  0  0  0  0  0  0  0  0  0
   41.1690   35.0900   39.3970 C   0  0  0  0  0  0  0  0  0  0  0  0
   41.7690   35.6910   38.4720 O   0  0  0  0  0  0  0  0  0  0  0  0
   45.4511   32.8436   43.4226 H   0  0  0  0  0  0  0  0  0  0  0  0
   47.0062   32.0112   43.2002 H   0  0  0  0  0  0  0  0  0  0  0  0
   46.9294   34.2361   44.6402 H   0  0  0  0  0  0  0  0  0  0  0  0
   48.2588   34.0230   43.4421 H   0  0  0  0  0  0  0  0  0  0  0  0
   44.7900   34.8371   43.1301 H   0  0  0  0  0  0  0  0  0  0  0  0
   45.1760   36.1882   42.0040 H   0  0  0  0  0  0  0  0  0  0  0  0
   45.9420   34.6146   40.2664 H   0  0  0  0  0  0  0  0  0  0  0  0
   47.7473   34.1097   39.4372 H   0  0  0  0  0  0  0  0  0  0  0  0
   47.6620   29.2247   39.7502 H   0  0  0  0  0  0  0  0  0  0  0  0
   50.0522   32.5678   37.8749 H   0  0  0  0  0  0  0  0  0  0  0  0
   47.3901   32.6482   35.9547 H   0  0  0  0  0  0  0  0  0  0  0  0
   48.6550   32.7273   35.0666 H   0  0  0  0  0  0  0  0  0  0  0  0
   49.4193   34.9528   36.6539 H   0  0  0  0  0  0  0  0  0  0  0  0
   48.0230   35.0106   37.3585 H   0  0  0  0  0  0  0  0  0  0  0  0
   44.2781   32.3503   39.3472 H   0  0  0  0  0  0  0  0  0  0  0  0
   43.2286   33.7157   38.8364 H   0  0  0  0  0  0  0  0  0  0  0  0
   45.0147   33.9069   38.8364 H   0  0  0  0  0  0  0  0  0  0  0  0
   43.5710   33.0514   42.6423 H   0  0  0  0  0  0  0  0  0  0  0  0
   42.3802   32.8181   41.3179 H   0  0  0  0  0  0  0  0  0  0  0  0
   43.9171   31.8883   41.3179 H   0  0  0  0  0  0  0  0  0  0  0  0
   43.2409   35.5624   41.8353 H   0  0  0  0  0  0  0  0  0  0  0  0
   43.5201   35.8155   40.0460 H   0  0  0  0  0  0  0  0  0  0  0  0
   41.4042   33.8609   42.3787 H   0  0  0  0  0  0  0  0  0  0  0  0
   39.0657   33.2891   41.9677 H   0  0  0  0  0  0  0  0  0  0  0  0
   39.5159   35.0867   38.1883 H   0  0  0  0  0  0  0  0  0  0  0  0
  1  2  1  0
  2  3  1  0
  4  3  1  0
  5  4  1  0
  6  1  1  0
  6  5  1  0
  7 12  1  0
  7  8  2  0
  8  9  1  0
  9 10  2  0
  9  1  1  0
 11 10  1  0
 12 11  2  0
 13  7  1  0
 14 15  1  0
 14 13  1  0
 15 13  1  0
 16 19  1  0
 16  6  1  0
 16 18  1  0
 17 16  1  0
 20 19  1  0
 20 21  1  0
 22 21  2  0
 23 22  1  0
 24 23  2  0
 25 26  1  0
 25 23  1  0
 26 20  1  0
 27 26  2  0
  2 28  1  0
  2 29  1  0
  3 30  1  0
  3 31  1  0
  5 32  1  0
  5 33  1  0
  6 34  1  6
  8 35  1  0
 11 36  1  0
 13 37  1  0
 14 38  1  0
 14 39  1  0
 15 40  1  0
 15 41  1  0
 17 42  1  0
 17 43  1  0
 17 44  1  0
 18 45  1  0
 18 46  1  0
 18 47  1  0
 19 48  1  0
 19 49  1  0
 21 50  1  0
 22 51  1  0
 25 52  1  0
M  ISO  8  28  13  29  13  30  13  31  13  32  13  33  13  34  13  35  14
M  ISO  8  36  14  37  13  38  13  39  13  40  13  41  13  42   8  43   8
M  ISO  8  44   8  45   8  46   8  47   8  48   8  49   8  50  14  51  14
M  ISO  1  52   9
M  END
>  <minimizedAffinity>  (1) 
-5.12262821

>  <minimizedRMSD>  (1) 
5.73262739

$$$$
