
     RDKit          3D

 50 53  0  0  1  0  0  0  0  0999 V2000
   41.3290   33.9320   40.7710 N   0  0  0  0  0  0  0  0  0  0  0  0
   40.2820   34.6910   41.3730 C   0  0  0  0  0  0  0  0  0  0  0  0
   40.3690   36.1130   40.8060 C   0  0  0  0  0  0  0  0  0  0  0  0
   40.7360   36.0710   39.4750 O   0  0  0  0  0  0  0  0  0  0  0  0
   40.3480   34.8730   38.8510 C   0  0  0  0  0  0  0  0  0  0  0  0
   41.1940   33.7250   39.3780 C   0  0  2  0  0  0  0  0  0  0  0  0
   44.5410   33.6800   42.6850 C   0  0  0  0  0  0  0  0  0  0  0  0
   43.4510   34.2350   41.9960 C   0  0  0  0  0  0  0  0  0  0  0  0
   42.4520   33.3980   41.4740 C   0  0  0  0  0  0  0  0  0  0  0  0
   42.5990   32.0910   41.6640 N   0  0  0  0  0  0  0  0  0  0  0  0
   43.6670   31.5780   42.3380 C   0  0  0  0  0  0  0  0  0  0  0  0
   44.6270   32.3790   42.8400 N   0  0  0  0  0  0  0  0  0  0  0  0
   45.5630   34.6220   43.2130 C   0  0  0  0  0  0  0  0  0  0  0  0
   46.6790   35.0900   42.2670 C   0  0  0  0  0  0  0  0  0  0  0  0
   45.6300   36.0030   42.8010 C   0  0  0  0  0  0  0  0  0  0  0  0
   40.6370   32.4490   38.8850 C   0  0  0  0  0  0  0  0  0  0  0  0
   41.6430   31.8360   37.9420 C   0  0  0  0  0  0  0  0  0  0  0  0
   40.3870   31.4300   39.9700 C   0  0  0  0  0  0  0  0  0  0  0  0
   39.3550   32.5830   38.1150 C   0  0  0  0  0  0  0  0  0  0  0  0
   38.9120   31.1740   37.8030 C   0  0  0  0  0  0  0  0  0  0  0  0
   38.1850   30.5350   38.7890 C   0  0  0  0  0  0  0  0  0  0  0  0
   37.7000   29.2330   38.6670 C   0  0  0  0  0  0  0  0  0  0  0  0
   37.9710   28.5860   37.5070 N   0  0  0  0  0  0  0  0  0  0  0  0
   38.6680   29.1860   36.5510 C   0  0  0  0  0  0  0  0  0  0  0  0
   39.1210   30.4390   36.7010 N   0  0  0  0  0  0  0  0  0  0  0  0
   39.3059   34.2468   41.1283 H   0  0  0  0  0  0  0  0  0  0  0  0
   40.3863   34.7002   42.4680 H   0  0  0  0  0  0  0  0  0  0  0  0
   39.3880   36.6021   40.8978 H   0  0  0  0  0  0  0  0  0  0  0  0
   41.1239   36.6803   41.3702 H   0  0  0  0  0  0  0  0  0  0  0  0
   40.4906   34.9637   37.7641 H   0  0  0  0  0  0  0  0  0  0  0  0
   39.2881   34.6750   39.0685 H   0  0  0  0  0  0  0  0  0  0  0  0
   42.2271   33.6788   39.0031 H   0  0  0  0  0  0  0  0  0  0  0  0
   43.3797   35.3249   41.8652 H   0  0  0  0  0  0  0  0  0  0  0  0
   43.7466   30.4894   42.4746 H   0  0  0  0  0  0  0  0  0  0  0  0
   45.4961   34.1309   44.1950 H   0  0  0  0  0  0  0  0  0  0  0  0
   46.6742   34.7930   41.2079 H   0  0  0  0  0  0  0  0  0  0  0  0
   47.7786   35.0607   42.2582 H   0  0  0  0  0  0  0  0  0  0  0  0
   45.9064   36.7739   43.5354 H   0  0  0  0  0  0  0  0  0  0  0  0
   44.9113   36.6903   42.3308 H   0  0  0  0  0  0  0  0  0  0  0  0
   42.4409   31.3498   38.5225 H   0  0  0  0  0  0  0  0  0  0  0  0
   41.1434   31.0887   37.3080 H   0  0  0  0  0  0  0  0  0  0  0  0
   42.0781   32.6226   37.3080 H   0  0  0  0  0  0  0  0  0  0  0  0
   40.5039   31.9065   40.9545 H   0  0  0  0  0  0  0  0  0  0  0  0
   39.3652   31.0344   39.8731 H   0  0  0  0  0  0  0  0  0  0  0  0
   41.1097   30.6064   39.8731 H   0  0  0  0  0  0  0  0  0  0  0  0
   38.5957   33.0974   38.7223 H   0  0  0  0  0  0  0  0  0  0  0  0
   39.4937   33.1755   37.1987 H   0  0  0  0  0  0  0  0  0  0  0  0
   37.9776   31.0825   39.7202 H   0  0  0  0  0  0  0  0  0  0  0  0
   37.1252   28.7541   39.4734 H   0  0  0  0  0  0  0  0  0  0  0  0
   38.8785   28.6449   35.6167 H   0  0  0  0  0  0  0  0  0  0  0  0
  1  2  1  0
  1  9  1  0
  3  2  1  0
  4  3  1  0
  5  6  1  0
  5  4  1  0
  6  1  1  0
  7 12  1  0
  7 13  1  0
  8  7  2  0
  9 10  2  0
  9  8  1  0
 10 11  1  0
 11 12  2  0
 14 15  1  0
 14 13  1  0
 15 13  1  0
 16  6  1  0
 16 18  1  0
 17 16  1  0
 19 16  1  0
 20 19  1  0
 20 21  2  0
 22 21  1  0
 23 22  2  0
 24 25  2  0
 24 23  1  0
 25 20  1  0
  2 26  1  0
  2 27  1  0
  3 28  1  0
  3 29  1  0
  5 30  1  0
  5 31  1  0
  6 32  1  6
  8 33  1  0
 11 34  1  0
 13 35  1  0
 14 36  1  0
 14 37  1  0
 15 38  1  0
 15 39  1  0
 17 40  1  0
 17 41  1  0
 17 42  1  0
 18 43  1  0
 18 44  1  0
 18 45  1  0
 19 46  1  0
 19 47  1  0
 21 48  1  0
 22 49  1  0
 24 50  1  0
M  ISO  8  26  13  27  13  28  13  29  13  30  13  31  13  32  13  33  14
M  ISO  8  34  14  35  13  36  13  37  13  38  13  39  13  40   8  41   8
M  ISO  8  42   8  43   8  44   8  45   8  46   8  47   8  48  14  49  14
M  ISO  1  50  14
M  END
>  <minimizedAffinity>  (1) 
-5.02015972

>  <minimizedRMSD>  (1) 
1.17680681

$$$$
