
     RDKit          3D

 55 58  0  0  1  0  0  0  0  0999 V2000
   41.3530   33.9110   40.7880 N   0  0  0  0  0  0  0  0  0  0  0  0
   40.2890   34.6780   41.3750 C   0  0  0  0  0  0  0  0  0  0  0  0
   40.3740   36.0900   40.7850 C   0  0  0  0  0  0  0  0  0  0  0  0
   40.7150   36.0260   39.4600 O   0  0  0  0  0  0  0  0  0  0  0  0
   40.3550   34.8150   38.8440 C   0  0  0  0  0  0  0  0  0  0  0  0
   41.1860   33.6790   39.4050 C   0  0  2  0  0  0  0  0  0  0  0  0
   44.5560   33.7410   42.7100 C   0  0  0  0  0  0  0  0  0  0  0  0
   43.4480   34.2750   42.0190 C   0  0  0  0  0  0  0  0  0  0  0  0
   42.4840   33.4100   41.4730 C   0  0  0  0  0  0  0  0  0  0  0  0
   42.6930   32.1100   41.6520 N   0  0  0  0  0  0  0  0  0  0  0  0
   43.7600   31.6150   42.3170 C   0  0  0  0  0  0  0  0  0  0  0  0
   44.6850   32.4450   42.8420 N   0  0  0  0  0  0  0  0  0  0  0  0
   45.5350   34.7180   43.2660 C   0  0  0  0  0  0  0  0  0  0  0  0
   46.6760   35.1970   42.3580 C   0  0  0  0  0  0  0  0  0  0  0  0
   45.6010   36.0960   42.8490 C   0  0  0  0  0  0  0  0  0  0  0  0
   40.6420   32.3730   38.9500 C   0  0  0  0  0  0  0  0  0  0  0  0
   41.7100   31.6960   38.1300 C   0  0  0  0  0  0  0  0  0  0  0  0
   40.2870   31.4530   40.0760 C   0  0  0  0  0  0  0  0  0  0  0  0
   39.4150   32.4890   38.0910 C   0  0  0  0  0  0  0  0  0  0  0  0
   38.8080   31.2990   37.4970 C   0  0  0  0  0  0  0  0  0  0  0  0
   38.2440   30.5190   38.7270 C   0  0  0  0  0  0  0  0  0  0  0  0
   37.8770   29.1770   38.1400 C   0  0  0  0  0  0  0  0  0  0  0  0
   39.0360   28.8720   37.2620 C   0  0  0  0  0  0  0  0  0  0  0  0
   39.5270   30.2430   36.8220 C   0  0  0  0  0  0  0  0  0  0  0  0
   39.3172   34.2245   41.1302 H   0  0  0  0  0  0  0  0  0  0  0  0
   40.3834   34.7047   42.4706 H   0  0  0  0  0  0  0  0  0  0  0  0
   39.3974   36.5860   40.8859 H   0  0  0  0  0  0  0  0  0  0  0  0
   41.1415   36.6616   41.3274 H   0  0  0  0  0  0  0  0  0  0  0  0
   40.5284   34.8922   37.7605 H   0  0  0  0  0  0  0  0  0  0  0  0
   39.2913   34.6138   39.0391 H   0  0  0  0  0  0  0  0  0  0  0  0
   42.2133   33.6335   39.0142 H   0  0  0  0  0  0  0  0  0  0  0  0
   43.3389   35.3639   41.9080 H   0  0  0  0  0  0  0  0  0  0  0  0
   43.8753   30.5270   42.4312 H   0  0  0  0  0  0  0  0  0  0  0  0
   45.4311   34.2372   44.2499 H   0  0  0  0  0  0  0  0  0  0  0  0
   46.7120   34.8956   41.3007 H   0  0  0  0  0  0  0  0  0  0  0  0
   47.7755   35.1822   42.3878 H   0  0  0  0  0  0  0  0  0  0  0  0
   45.8423   36.8738   43.5885 H   0  0  0  0  0  0  0  0  0  0  0  0
   44.8911   36.7719   42.3499 H   0  0  0  0  0  0  0  0  0  0  0  0
   42.4464   31.2292   38.8006 H   0  0  0  0  0  0  0  0  0  0  0  0
   41.2507   30.9238   37.4954 H   0  0  0  0  0  0  0  0  0  0  0  0
   42.2124   32.4409   37.4954 H   0  0  0  0  0  0  0  0  0  0  0  0
   40.4809   31.9555   41.0351 H   0  0  0  0  0  0  0  0  0  0  0  0
   39.2217   31.1870   40.0102 H   0  0  0  0  0  0  0  0  0  0  0  0
   40.8975   30.5404   40.0102 H   0  0  0  0  0  0  0  0  0  0  0  0
   38.6395   32.9614   38.7119 H   0  0  0  0  0  0  0  0  0  0  0  0
   39.7796   33.0438   37.2139 H   0  0  0  0  0  0  0  0  0  0  0  0
   38.2029   31.7556   36.6999 H   0  0  0  0  0  0  0  0  0  0  0  0
   39.0079   30.4118   39.5112 H   0  0  0  0  0  0  0  0  0  0  0  0
   37.3964   31.0268   39.2104 H   0  0  0  0  0  0  0  0  0  0  0  0
   37.7662   28.4172   38.9277 H   0  0  0  0  0  0  0  0  0  0  0  0
   36.9161   29.1846   37.6047 H   0  0  0  0  0  0  0  0  0  0  0  0
   39.8186   28.3351   37.8181 H   0  0  0  0  0  0  0  0  0  0  0  0
   38.7694   28.2230   36.4148 H   0  0  0  0  0  0  0  0  0  0  0  0
   40.5981   30.3322   37.0560 H   0  0  0  0  0  0  0  0  0  0  0  0
   39.3558   30.3426   35.7400 H   0  0  0  0  0  0  0  0  0  0  0  0
  1  2  1  0
  1  9  1  0
  3  2  1  0
  4  3  1  0
  5  6  1  0
  5  4  1  0
  6  1  1  0
  7 12  1  0
  7 13  1  0
  8  7  2  0
  9 10  2  0
  9  8  1  0
 10 11  1  0
 11 12  2  0
 14 15  1  0
 14 13  1  0
 15 13  1  0
 16  6  1  0
 16 18  1  0
 17 16  1  0
 19 16  1  0
 20 19  1  0
 20 21  1  0
 22 21  1  0
 23 22  1  0
 24 23  1  0
 24 20  1  0
  2 25  1  0
  2 26  1  0
  3 27  1  0
  3 28  1  0
  5 29  1  0
  5 30  1  0
  6 31  1  6
  8 32  1  0
 11 33  1  0
 13 34  1  0
 14 35  1  0
 14 36  1  0
 15 37  1  0
 15 38  1  0
 17 39  1  0
 17 40  1  0
 17 41  1  0
 18 42  1  0
 18 43  1  0
 18 44  1  0
 19 45  1  0
 19 46  1  0
 20 47  1  0
 21 48  1  0
 21 49  1  0
 22 50  1  0
 22 51  1  0
 23 52  1  0
 23 53  1  0
 24 54  1  0
 24 55  1  0
M  ISO  8  25  13  26  13  27  13  28  13  29  13  30  13  31  13  32  14
M  ISO  8  33  14  34  13  35  13  36  13  37  13  38  13  39   8  40   8
M  ISO  8  41   8  42   8  43   8  44   8  45   8  46   8  47  13  48  13
M  ISO  7  49  13  50  13  51  13  52  13  53  13  54  13  55  13
M  END
>  <minimizedAffinity>  (1) 
-5.0497613

>  <minimizedRMSD>  (1) 
1.31874132

$$$$
