
     RDKit          3D

 43 45  0  0  1  0  0  0  0  0999 V2000
   41.3000   33.9590   40.7830 N   0  0  0  0  0  0  0  0  0  0  0  0
   40.2760   34.7730   41.3950 C   0  0  0  0  0  0  0  0  0  0  0  0
   40.4210   36.1810   40.8000 C   0  0  0  0  0  0  0  0  0  0  0  0
   40.7420   36.1040   39.4760 O   0  0  0  0  0  0  0  0  0  0  0  0
   40.3320   34.9050   38.8620 C   0  0  0  0  0  0  0  0  0  0  0  0
   41.1340   33.7310   39.3950 C   0  0  2  0  0  0  0  0  0  0  0  0
   44.5190   33.6380   42.6720 C   0  0  0  0  0  0  0  0  0  0  0  0
   43.4400   34.2250   41.9870 C   0  0  0  0  0  0  0  0  0  0  0  0
   42.4140   33.4050   41.4770 C   0  0  0  0  0  0  0  0  0  0  0  0
   42.5230   32.0950   41.6740 N   0  0  0  0  0  0  0  0  0  0  0  0
   43.5840   31.5630   42.3440 C   0  0  0  0  0  0  0  0  0  0  0  0
   44.5660   32.3450   42.8320 N   0  0  0  0  0  0  0  0  0  0  0  0
   45.5720   34.5640   43.1850 C   0  0  0  0  0  0  0  0  0  0  0  0
   46.6650   35.0140   42.2020 C   0  0  0  0  0  0  0  0  0  0  0  0
   45.6540   35.9470   42.7920 C   0  0  0  0  0  0  0  0  0  0  0  0
   40.4920   32.4810   38.9640 C   0  0  0  0  0  0  0  0  0  0  0  0
   41.5930   31.6160   38.3560 C   0  0  0  0  0  0  0  0  0  0  0  0
   39.8780   31.6640   40.0570 C   0  0  0  0  0  0  0  0  0  0  0  0
   39.4470   32.6320   37.8850 C   0  0  0  0  0  0  0  0  0  0  0  0
   38.9030   30.9770   37.3010 S   0  0  0  0  0  0  0  0  0  0  0  0
   39.2802   34.3652   41.1668 H   0  0  0  0  0  0  0  0  0  0  0  0
   40.3854   34.7916   42.4894 H   0  0  0  0  0  0  0  0  0  0  0  0
   39.4699   36.7222   40.9121 H   0  0  0  0  0  0  0  0  0  0  0  0
   41.2224   36.7141   41.3325 H   0  0  0  0  0  0  0  0  0  0  0  0
   40.4853   34.9842   37.7756 H   0  0  0  0  0  0  0  0  0  0  0  0
   39.2678   34.7381   39.0846 H   0  0  0  0  0  0  0  0  0  0  0  0
   42.1524   33.6304   38.9917 H   0  0  0  0  0  0  0  0  0  0  0  0
   43.3974   35.3157   41.8505 H   0  0  0  0  0  0  0  0  0  0  0  0
   43.6393   30.4740   42.4890 H   0  0  0  0  0  0  0  0  0  0  0  0
   45.5230   34.0695   44.1663 H   0  0  0  0  0  0  0  0  0  0  0  0
   46.6125   34.7317   41.1401 H   0  0  0  0  0  0  0  0  0  0  0  0
   47.7623   34.9574   42.1498 H   0  0  0  0  0  0  0  0  0  0  0  0
   45.9761   36.7001   43.5262 H   0  0  0  0  0  0  0  0  0  0  0  0
   44.9337   36.6575   42.3603 H   0  0  0  0  0  0  0  0  0  0  0  0
   42.1823   31.1530   39.1612 H   0  0  0  0  0  0  0  0  0  0  0  0
   41.1402   30.8296   37.7343 H   0  0  0  0  0  0  0  0  0  0  0  0
   42.2499   32.2421   37.7343 H   0  0  0  0  0  0  0  0  0  0  0  0
   40.1827   32.0694   41.0331 H   0  0  0  0  0  0  0  0  0  0  0  0
   38.7820   31.7006   39.9707 H   0  0  0  0  0  0  0  0  0  0  0  0
   40.2180   30.6214   39.9707 H   0  0  0  0  0  0  0  0  0  0  0  0
   38.5820   33.1780   38.2895 H   0  0  0  0  0  0  0  0  0  0  0  0
   39.8781   33.1892   37.0402 H   0  0  0  0  0  0  0  0  0  0  0  0
   38.6396   30.1757   38.3805 H   0  0  0  0  0  0  0  0  0  0  0  0
  1  2  1  0
  1  9  1  0
  3  2  1  0
  4  3  1  0
  5  6  1  0
  5  4  1  0
  6  1  1  0
  7 12  1  0
  7 13  1  0
  8  7  2  0
  9 10  2  0
  9  8  1  0
 10 11  1  0
 11 12  2  0
 14 15  1  0
 14 13  1  0
 15 13  1  0
 16  6  1  0
 16 18  1  0
 17 16  1  0
 19 16  1  0
 20 19  1  0
  2 21  1  0
  2 22  1  0
  3 23  1  0
  3 24  1  0
  5 25  1  0
  5 26  1  0
  6 27  1  6
  8 28  1  0
 11 29  1  0
 13 30  1  0
 14 31  1  0
 14 32  1  0
 15 33  1  0
 15 34  1  0
 17 35  1  0
 17 36  1  0
 17 37  1  0
 18 38  1  0
 18 39  1  0
 18 40  1  0
 19 41  1  0
 19 42  1  0
 20 43  1  0
M  ISO  8  21  13  22  13  23  13  24  13  25  13  26  13  27  13  28  14
M  ISO  8  29  14  30  13  31  13  32  13  33  13  34  13  35   8  36   8
M  ISO  7  37   8  38   8  39   8  40   8  41   8  42   8  43  11
M  END
>  <minimizedAffinity>  (1) 
-4.41712236

>  <minimizedRMSD>  (1) 
1.05035317

$$$$
