
     RDKit          3D

 57 60  0  0  1  0  0  0  0  0999 V2000
   41.2840   33.7580   40.7500 N   0  0  0  0  0  0  0  0  0  0  0  0
   40.2500   34.6370   41.2360 C   0  0  0  0  0  0  0  0  0  0  0  0
   40.3150   35.9160   40.4030 C   0  0  0  0  0  0  0  0  0  0  0  0
   40.5960   35.6090   39.0920 O   0  0  0  0  0  0  0  0  0  0  0  0
   40.1890   34.3180   38.7250 C   0  0  0  0  0  0  0  0  0  0  0  0
   41.0490   33.2890   39.4420 C   0  0  2  0  0  0  0  0  0  0  0  0
   44.4110   33.9140   42.7850 C   0  0  0  0  0  0  0  0  0  0  0  0
   43.2740   34.3310   42.0690 C   0  0  0  0  0  0  0  0  0  0  0  0
   42.4410   33.3720   41.4690 C   0  0  0  0  0  0  0  0  0  0  0  0
   42.7860   32.0980   41.6190 N   0  0  0  0  0  0  0  0  0  0  0  0
   43.8870   31.7120   42.3130 C   0  0  0  0  0  0  0  0  0  0  0  0
   44.6890   32.6260   42.8900 N   0  0  0  0  0  0  0  0  0  0  0  0
   45.2560   34.9660   43.3980 C   0  0  0  0  0  0  0  0  0  0  0  0
   46.4230   35.5250   42.5680 C   0  0  0  0  0  0  0  0  0  0  0  0
   45.2510   36.3370   42.9540 C   0  0  0  0  0  0  0  0  0  0  0  0
   40.4740   31.9310   39.2290 C   0  0  0  0  0  0  0  0  0  0  0  0
   41.5220   31.1040   38.5340 C   0  0  0  0  0  0  0  0  0  0  0  0
   40.1590   31.2380   40.5380 C   0  0  0  0  0  0  0  0  0  0  0  0
   39.2360   31.9010   38.3980 C   0  0  0  0  0  0  0  0  0  0  0  0
   38.8940   30.7090   37.7670 N   0  0  0  0  0  0  0  0  0  0  0  0
   38.6990   30.5020   36.4210 C   0  0  0  0  0  0  0  0  0  0  0  0
   38.7840   28.9800   36.1410 C   0  0  0  0  0  0  0  0  0  0  0  0
   37.6420   28.2840   36.8320 C   0  0  0  0  0  0  0  0  0  0  0  0
   37.4250   28.8850   38.2030 C   0  0  0  0  0  0  0  0  0  0  0  0
   38.6920   29.5800   38.6410 C   0  0  0  0  0  0  0  0  0  0  0  0
   39.2652   34.1610   41.1193 H   0  0  0  0  0  0  0  0  0  0  0  0
   40.3962   34.8587   42.3035 H   0  0  0  0  0  0  0  0  0  0  0  0
   39.3467   36.4351   40.4562 H   0  0  0  0  0  0  0  0  0  0  0  0
   41.1087   36.5659   40.8001 H   0  0  0  0  0  0  0  0  0  0  0  0
   39.1351   34.1730   39.0046 H   0  0  0  0  0  0  0  0  0  0  0  0
   40.3018   34.1946   37.6378 H   0  0  0  0  0  0  0  0  0  0  0  0
   42.0636   33.1622   39.0364 H   0  0  0  0  0  0  0  0  0  0  0  0
   43.0386   35.4018   41.9795 H   0  0  0  0  0  0  0  0  0  0  0  0
   44.1259   30.6422   42.4046 H   0  0  0  0  0  0  0  0  0  0  0  0
   45.1114   34.4944   44.3812 H   0  0  0  0  0  0  0  0  0  0  0  0
   46.5650   35.2116   41.5232 H   0  0  0  0  0  0  0  0  0  0  0  0
   47.5145   35.6007   42.6819 H   0  0  0  0  0  0  0  0  0  0  0  0
   45.3726   37.1438   43.6917 H   0  0  0  0  0  0  0  0  0  0  0  0
   44.5320   36.9452   42.3855 H   0  0  0  0  0  0  0  0  0  0  0  0
   42.1533   30.6059   39.2846 H   0  0  0  0  0  0  0  0  0  0  0  0
   41.0330   30.3458   37.9047 H   0  0  0  0  0  0  0  0  0  0  0  0
   42.1457   31.7559   37.9047 H   0  0  0  0  0  0  0  0  0  0  0  0
   40.4537   31.8864   41.3763 H   0  0  0  0  0  0  0  0  0  0  0  0
   39.0796   31.0338   40.5943 H   0  0  0  0  0  0  0  0  0  0  0  0
   40.7149   30.2905   40.5943 H   0  0  0  0  0  0  0  0  0  0  0  0
   38.3966   32.1747   39.0541 H   0  0  0  0  0  0  0  0  0  0  0  0
   39.4471   32.5951   37.5711 H   0  0  0  0  0  0  0  0  0  0  0  0
   37.7082   30.8787   36.1272 H   0  0  0  0  0  0  0  0  0  0  0  0
   39.4672   31.0356   35.8421 H   0  0  0  0  0  0  0  0  0  0  0  0
   38.7219   28.8014   35.0574 H   0  0  0  0  0  0  0  0  0  0  0  0
   39.7391   28.5877   36.5202 H   0  0  0  0  0  0  0  0  0  0  0  0
   36.7270   28.4024   36.2331 H   0  0  0  0  0  0  0  0  0  0  0  0
   37.8813   27.2157   36.9392 H   0  0  0  0  0  0  0  0  0  0  0  0
   36.6010   29.6125   38.1606 H   0  0  0  0  0  0  0  0  0  0  0  0
   37.1692   28.0914   38.9205 H   0  0  0  0  0  0  0  0  0  0  0  0
   39.5445   28.8891   38.5645 H   0  0  0  0  0  0  0  0  0  0  0  0
   38.6096   29.9108   39.6869 H   0  0  0  0  0  0  0  0  0  0  0  0
  1  2  1  0
  1  9  1  0
  3  2  1  0
  4  3  1  0
  5  4  1  0
  5  6  1  0
  6  1  1  0
  7 12  1  0
  7 13  1  0
  8  7  2  0
  9 10  2  0
  9  8  1  0
 10 11  1  0
 11 12  2  0
 14 15  1  0
 14 13  1  0
 15 13  1  0
 16  6  1  0
 16 18  1  0
 17 16  1  0
 19 16  1  0
 20 19  1  0
 20 25  1  0
 21 20  1  0
 22 21  1  0
 22 23  1  0
 23 24  1  0
 24 25  1  0
  2 26  1  0
  2 27  1  0
  3 28  1  0
  3 29  1  0
  5 30  1  0
  5 31  1  0
  6 32  1  6
  8 33  1  0
 11 34  1  0
 13 35  1  0
 14 36  1  0
 14 37  1  0
 15 38  1  0
 15 39  1  0
 17 40  1  0
 17 41  1  0
 17 42  1  0
 18 43  1  0
 18 44  1  0
 18 45  1  0
 19 46  1  0
 19 47  1  0
 21 48  1  0
 21 49  1  0
 22 50  1  0
 22 51  1  0
 23 52  1  0
 23 53  1  0
 24 54  1  0
 24 55  1  0
 25 56  1  0
 25 57  1  0
M  ISO  8  26  13  27  13  28  13  29  13  30  13  31  13  32  13  33  14
M  ISO  8  34  14  35  13  36  13  37  13  38  13  39  13  40   8  41   8
M  ISO  8  42   8  43   8  44   8  45   8  46   8  47   8  48  13  49  13
M  ISO  8  50  13  51  13  52  13  53  13  54  13  55  13  56  13  57  13
M  END
>  <minimizedAffinity>  (1) 
-4.58179522

>  <minimizedRMSD>  (1) 
1.55233896

$$$$
