
     RDKit          3D

 37 40  0  0  1  0  0  0  0  0999 V2000
   46.9700   34.1800   42.4220 N   0  0  0  0  0  0  0  0  0  0  0  0
   48.2640   33.6180   42.5760 C   0  0  0  0  0  0  0  0  0  0  0  0
   48.7200   32.7960   41.4120 C   0  0  0  0  0  0  0  0  0  0  0  0
   48.1540   33.0600   40.2100 O   0  0  0  0  0  0  0  0  0  0  0  0
   47.5020   34.2550   40.0730 C   0  0  0  0  0  0  0  0  0  0  0  0
   46.3830   34.4440   41.1090 C   0  0  1  0  0  0  0  0  0  0  0  0
   45.4400   33.3680   40.8300 C   0  0  0  0  0  0  0  0  0  0  0  0
   45.8200   32.0790   40.8980 N   0  0  0  0  0  0  0  0  0  0  0  0
   44.9410   31.0960   40.6420 C   0  0  0  0  0  0  0  0  0  0  0  0
   43.6380   31.2770   40.3040 N   0  0  0  0  0  0  0  0  0  0  0  0
   43.2060   32.5590   40.2200 C   0  0  0  0  0  0  0  0  0  0  0  0
   41.9030   32.8360   39.8830 C   0  0  0  0  0  0  0  0  0  0  0  0
   41.4380   34.1410   39.7910 C   0  0  0  0  0  0  0  0  0  0  0  0
   42.3260   35.1560   40.0500 C   0  0  0  0  0  0  0  0  0  0  0  0
   43.6230   34.8610   40.3860 C   0  0  0  0  0  0  0  0  0  0  0  0
   44.1200   33.5850   40.4870 C   0  0  0  0  0  0  0  0  0  0  0  0
   44.5470   35.9120   44.7100 C   0  0  0  0  0  0  0  0  0  0  0  0
   45.3130   35.6400   43.5700 C   0  0  0  0  0  0  0  0  0  0  0  0
   46.1580   34.5250   43.5450 C   0  0  0  0  0  0  0  0  0  0  0  0
   46.1780   33.7530   44.6770 N   0  0  0  0  0  0  0  0  0  0  0  0
   45.4420   34.0170   45.7680 C   0  0  0  0  0  0  0  0  0  0  0  0
   44.6320   35.0910   45.7820 N   0  0  0  0  0  0  0  0  0  0  0  0
   48.9815   34.4392   42.7201 H   0  0  0  0  0  0  0  0  0  0  0  0
   48.2123   32.9394   43.4402 H   0  0  0  0  0  0  0  0  0  0  0  0
   49.8049   32.9438   41.3069 H   0  0  0  0  0  0  0  0  0  0  0  0
   48.4114   31.7678   41.6518 H   0  0  0  0  0  0  0  0  0  0  0  0
   48.2319   35.0694   40.1913 H   0  0  0  0  0  0  0  0  0  0  0  0
   47.0365   34.2664   39.0764 H   0  0  0  0  0  0  0  0  0  0  0  0
   45.9207   35.4416   41.0781 H   0  0  0  0  0  0  0  0  0  0  0  0
   45.3060   30.0607   40.7117 H   0  0  0  0  0  0  0  0  0  0  0  0
   41.2120   32.0042   39.6814 H   0  0  0  0  0  0  0  0  0  0  0  0
   40.3936   34.3547   39.5198 H   0  0  0  0  0  0  0  0  0  0  0  0
   41.9978   36.2041   39.9881 H   0  0  0  0  0  0  0  0  0  0  0  0
   44.3072   35.6986   40.5869 H   0  0  0  0  0  0  0  0  0  0  0  0
   43.8808   36.7870   44.7339 H   0  0  0  0  0  0  0  0  0  0  0  0
   45.2505   36.3027   42.6942 H   0  0  0  0  0  0  0  0  0  0  0  0
   45.5009   33.3580   46.6468 H   0  0  0  0  0  0  0  0  0  0  0  0
  1  2  1  0
  1 19  1  0
  3  2  1  0
  4  3  1  0
  5  4  1  0
  5  6  1  0
  6  1  1  0
  7  8  2  0
  7  6  1  0
  9  8  1  0
 10  9  2  0
 11 10  1  0
 11 16  2  0
 12 11  1  0
 13 12  2  0
 13 14  1  0
 14 15  2  0
 15 16  1  0
 16  7  1  0
 17 22  2  0
 18 17  1  0
 19 18  2  0
 19 20  1  0
 20 21  2  0
 21 22  1  0
  2 23  1  0
  2 24  1  0
  3 25  1  0
  3 26  1  0
  5 27  1  0
  5 28  1  0
  6 29  1  1
  9 30  1  0
 12 31  1  0
 13 32  1  0
 14 33  1  0
 15 34  1  0
 17 35  1  0
 18 36  1  0
 21 37  1  0
M  ISO  8  23  13  24  13  25  13  26  13  27  13  28  13  29  13  30  14
M  ISO  7  31  14  32  14  33  14  34  14  35  14  36  14  37  14
M  END
>  <minimizedAffinity>  (1) 
-5.31953049

>  <minimizedRMSD>  (1) 
1.10535479

$$$$
