
     RDKit          3D

 23 24  0  0  0  0  0  0  0  0999 V2000
   44.5950   35.9780   44.3840 C   0  0  0  0  0  0  0  0  0  0  0  0
   45.4850   35.7570   43.3140 C   0  0  0  0  0  0  0  0  0  0  0  0
   46.3790   34.6720   43.3880 C   0  0  0  0  0  0  0  0  0  0  0  0
   46.3250   33.8890   44.5140 N   0  0  0  0  0  0  0  0  0  0  0  0
   45.4630   34.1230   45.5210 C   0  0  0  0  0  0  0  0  0  0  0  0
   44.6070   35.1570   45.4560 N   0  0  0  0  0  0  0  0  0  0  0  0
   47.3110   34.3770   42.3550 N   0  0  0  0  0  0  0  0  0  0  0  0
   48.6940   34.1410   42.6270 C   0  0  0  0  0  0  0  0  0  0  0  0
   49.4170   33.3440   41.6040 C   0  0  0  0  0  0  0  0  0  0  0  0
   48.8650   33.2710   40.3600 O   0  0  0  0  0  0  0  0  0  0  0  0
   47.9530   34.2290   40.0160 C   0  0  0  0  0  0  0  0  0  0  0  0
   46.7960   34.3240   41.0010 C   0  0  0  0  0  0  0  0  0  0  0  0
   43.8892   36.8209   44.3459 H   0  0  0  0  0  0  0  0  0  0  0  0
   45.4813   36.4204   42.4366 H   0  0  0  0  0  0  0  0  0  0  0  0
   45.4592   33.4643   46.4020 H   0  0  0  0  0  0  0  0  0  0  0  0
   49.1943   35.1168   42.7130 H   0  0  0  0  0  0  0  0  0  0  0  0
   48.7239   33.5460   43.5517 H   0  0  0  0  0  0  0  0  0  0  0  0
   50.4207   33.7806   41.4944 H   0  0  0  0  0  0  0  0  0  0  0  0
   49.3930   32.3117   41.9832 H   0  0  0  0  0  0  0  0  0  0  0  0
   48.4634   35.2027   39.9786 H   0  0  0  0  0  0  0  0  0  0  0  0
   47.5331   33.9502   39.0383 H   0  0  0  0  0  0  0  0  0  0  0  0
   46.2141   35.2345   40.7951 H   0  0  0  0  0  0  0  0  0  0  0  0
   46.1501   33.4405   40.8910 H   0  0  0  0  0  0  0  0  0  0  0  0
  1  6  2  0
  2  3  2  0
  2  1  1  0
  3  4  1  0
  4  5  2  0
  6  5  1  0
  7  8  1  0
  7  3  1  0
  9  8  1  0
 10  9  1  0
 11 10  1  0
 11 12  1  0
 12  7  1  0
  1 13  1  0
  2 14  1  0
  5 15  1  0
  8 16  1  0
  8 17  1  0
  9 18  1  0
  9 19  1  0
 11 20  1  0
 11 21  1  0
 12 22  1  0
 12 23  1  0
M  ISO  8  13  14  14  14  15  14  16  13  17  13  18  13  19  13  20  13
M  ISO  3  21  13  22  13  23  13
M  END
>  <minimizedAffinity>  (1) 
-3.98789692

>  <minimizedRMSD>  (1) 
0.428985029

$$$$
