
     RDKit          3D

 34 37  0  0  1  0  0  0  0  0999 V2000
   46.0840   34.2630   41.9240 N   0  0  0  0  0  0  0  0  0  0  0  0
   47.3770   34.7660   41.4640 C   0  0  0  0  0  0  0  0  0  0  0  0
   48.0270   33.9130   40.4260 C   0  0  0  0  0  0  0  0  0  0  0  0
   47.2010   33.1570   39.6530 O   0  0  0  0  0  0  0  0  0  0  0  0
   45.8800   33.4600   39.6570 C   0  0  0  0  0  0  0  0  0  0  0  0
   45.2890   33.4350   41.0870 C   0  0  2  0  0  0  0  0  0  0  0  0
   43.9070   33.6700   40.9210 N   0  0  0  0  0  0  0  0  0  0  0  0
   43.3550   34.7320   40.2530 C   0  0  0  0  0  0  0  0  0  0  0  0
   42.0010   34.5810   40.2890 N   0  0  0  0  0  0  0  0  0  0  0  0
   41.7360   33.4470   40.9680 C   0  0  0  0  0  0  0  0  0  0  0  0
   40.5510   32.8070   41.3080 C   0  0  0  0  0  0  0  0  0  0  0  0
   40.5470   31.6570   42.0080 N   0  0  0  0  0  0  0  0  0  0  0  0
   41.7100   31.0900   42.4010 C   0  0  0  0  0  0  0  0  0  0  0  0
   42.8740   31.7000   42.0770 N   0  0  0  0  0  0  0  0  0  0  0  0
   42.9180   32.8460   41.3830 C   0  0  0  0  0  0  0  0  0  0  0  0
   44.4970   36.0240   44.8080 C   0  0  0  0  0  0  0  0  0  0  0  0
   44.9520   35.7510   43.5140 C   0  0  0  0  0  0  0  0  0  0  0  0
   45.6290   34.5740   43.2220 C   0  0  0  0  0  0  0  0  0  0  0  0
   45.8250   33.7000   44.2780 N   0  0  0  0  0  0  0  0  0  0  0  0
   45.3870   33.9670   45.5260 C   0  0  0  0  0  0  0  0  0  0  0  0
   44.7310   35.1120   45.7880 N   0  0  0  0  0  0  0  0  0  0  0  0
   47.2267   35.7705   41.0415 H   0  0  0  0  0  0  0  0  0  0  0  0
   48.0458   34.7689   42.3373 H   0  0  0  0  0  0  0  0  0  0  0  0
   48.5953   34.5762   39.7573 H   0  0  0  0  0  0  0  0  0  0  0  0
   48.6401   33.1917   40.9862 H   0  0  0  0  0  0  0  0  0  0  0  0
   45.7441   34.4659   39.2331 H   0  0  0  0  0  0  0  0  0  0  0  0
   45.3539   32.7035   39.0563 H   0  0  0  0  0  0  0  0  0  0  0  0
   45.3353   32.4889   41.6462 H   0  0  0  0  0  0  0  0  0  0  0  0
   43.9048   35.5561   39.7749 H   0  0  0  0  0  0  0  0  0  0  0  0
   39.5932   33.2503   40.9980 H   0  0  0  0  0  0  0  0  0  0  0  0
   41.7101   30.1506   42.9733 H   0  0  0  0  0  0  0  0  0  0  0  0
   43.9603   36.9586   45.0282 H   0  0  0  0  0  0  0  0  0  0  0  0
   44.7703   36.4822   42.7125 H   0  0  0  0  0  0  0  0  0  0  0  0
   45.5675   33.2435   46.3347 H   0  0  0  0  0  0  0  0  0  0  0  0
  1 18  1  0
  2  1  1  0
  3  2  1  0
  4  5  1  0
  4  3  1  0
  5  6  1  0
  6  1  1  0
  7  6  1  0
  7 15  1  0
  8  9  2  0
  8  7  1  0
  9 10  1  0
 10 11  1  0
 10 15  2  0
 11 12  2  0
 12 13  1  0
 14 13  2  0
 15 14  1  0
 16 21  2  0
 17 16  1  0
 18 17  2  0
 18 19  1  0
 19 20  2  0
 20 21  1  0
  2 22  1  0
  2 23  1  0
  3 24  1  0
  3 25  1  0
  5 26  1  0
  5 27  1  0
  6 28  1  1
  8 29  1  0
 11 30  1  0
 13 31  1  0
 16 32  1  0
 17 33  1  0
 20 34  1  0
M  ISO  8  22  13  23  13  24  13  25  13  26  13  27  13  28  13  29  14
M  ISO  5  30  14  31  14  32  14  33  14  34  14
M  END
>  <minimizedAffinity>  (1) 
-5.32438803

>  <minimizedRMSD>  (1) 
3.22137547

$$$$
