
     RDKit          3D

 34 36  0  0  1  0  0  0  0  0999 V2000
   46.9950   34.3180   42.4260 N   0  0  0  0  0  0  0  0  0  0  0  0
   48.3730   33.9850   42.5830 C   0  0  0  0  0  0  0  0  0  0  0  0
   49.0210   33.3020   41.4480 C   0  0  0  0  0  0  0  0  0  0  0  0
   48.3380   33.2390   40.2760 O   0  0  0  0  0  0  0  0  0  0  0  0
   47.4400   34.2290   40.0410 C   0  0  0  0  0  0  0  0  0  0  0  0
   46.4020   34.3890   41.1270 C   0  0  1  0  0  0  0  0  0  0  0  0
   45.3370   33.4530   40.8770 N   0  0  0  0  0  0  0  0  0  0  0  0
   45.6490   32.1430   40.9430 C   0  0  0  0  0  0  0  0  0  0  0  0
   44.5730   31.2830   40.6900 C   0  0  0  0  0  0  0  0  0  0  0  0
   43.3010   31.6660   40.3980 C   0  0  0  0  0  0  0  0  0  0  0  0
   42.2900   30.6880   40.1600 N   0  0  0  0  0  0  0  0  0  0  0  0
   43.0810   33.0010   40.3540 N   0  0  0  0  0  0  0  0  0  0  0  0
   44.0650   33.8550   40.5850 C   0  0  0  0  0  0  0  0  0  0  0  0
   43.8100   35.1030   40.5320 O   0  0  0  0  0  0  0  0  0  0  0  0
   44.5260   35.9440   44.7220 C   0  0  0  0  0  0  0  0  0  0  0  0
   45.3190   35.6950   43.5960 C   0  0  0  0  0  0  0  0  0  0  0  0
   46.1860   34.5860   43.5550 C   0  0  0  0  0  0  0  0  0  0  0  0
   46.2020   33.7850   44.6630 N   0  0  0  0  0  0  0  0  0  0  0  0
   45.4370   34.0340   45.7340 C   0  0  0  0  0  0  0  0  0  0  0  0
   44.6150   35.0860   45.7740 N   0  0  0  0  0  0  0  0  0  0  0  0
   48.9231   34.9194   42.7683 H   0  0  0  0  0  0  0  0  0  0  0  0
   48.4040   33.2627   43.4120 H   0  0  0  0  0  0  0  0  0  0  0  0
   49.9687   33.8235   41.2484 H   0  0  0  0  0  0  0  0  0  0  0  0
   49.1160   32.2548   41.7711 H   0  0  0  0  0  0  0  0  0  0  0  0
   47.9885   35.1776   39.9446 H   0  0  0  0  0  0  0  0  0  0  0  0
   46.8996   33.9564   39.1225 H   0  0  0  0  0  0  0  0  0  0  0  0
   45.9511   35.3922   41.1070 H   0  0  0  0  0  0  0  0  0  0  0  0
   46.6613   31.7809   41.1755 H   0  0  0  0  0  0  0  0  0  0  0  0
   44.7744   30.2024   40.7311 H   0  0  0  0  0  0  0  0  0  0  0  0
   41.3286   30.9844   39.9393 H   0  0  0  0  0  0  0  0  0  0  0  0
   42.5215   29.6855   40.2088 H   0  0  0  0  0  0  0  0  0  0  0  0
   43.8489   36.8103   44.7555 H   0  0  0  0  0  0  0  0  0  0  0  0
   45.2644   36.3740   42.7323 H   0  0  0  0  0  0  0  0  0  0  0  0
   45.4869   33.3571   46.5997 H   0  0  0  0  0  0  0  0  0  0  0  0
  1  2  1  0
  1 17  1  0
  3  2  1  0
  4  3  1  0
  5  4  1  0
  5  6  1  0
  6  1  1  0
  7  8  1  0
  7  6  1  0
  9  8  2  0
 10  9  1  0
 11 10  1  0
 12 10  2  0
 12 13  1  0
 13  7  1  0
 14 13  2  0
 15 20  2  0
 16 15  1  0
 17 16  2  0
 17 18  1  0
 18 19  2  0
 19 20  1  0
  2 21  1  0
  2 22  1  0
  3 23  1  0
  3 24  1  0
  5 25  1  0
  5 26  1  0
  6 27  1  6
  8 28  1  0
  9 29  1  0
 11 30  1  0
 11 31  1  0
 15 32  1  0
 16 33  1  0
 19 34  1  0
M  ISO  8  21  13  22  13  23  13  24  13  25  13  26  13  27  13  28  14
M  ISO  4  29  14  32  14  33  14  34  14
M  END
>  <minimizedAffinity>  (1) 
-4.73665237

>  <minimizedRMSD>  (1) 
0.895549119

$$$$
