
     RDKit          3D

 36 38  0  0  1  0  0  0  0  0999 V2000
   46.3790   33.8510   42.3770 N   0  0  0  0  0  0  0  0  0  0  0  0
   47.4290   32.8690   42.4410 C   0  0  0  0  0  0  0  0  0  0  0  0
   47.5810   32.0370   41.2230 C   0  0  0  0  0  0  0  0  0  0  0  0
   47.0800   32.5380   40.0600 O   0  0  0  0  0  0  0  0  0  0  0  0
   46.8340   33.8860   40.0000 C   0  0  0  0  0  0  0  0  0  0  0  0
   45.9050   34.3540   41.1160 C   0  0  1  0  0  0  0  0  0  0  0  0
   44.5330   36.0470   44.7950 C   0  0  0  0  0  0  0  0  0  0  0  0
   45.1140   35.6050   43.5970 C   0  0  0  0  0  0  0  0  0  0  0  0
   45.7670   34.3670   43.5550 C   0  0  0  0  0  0  0  0  0  0  0  0
   45.7900   33.6570   44.7190 N   0  0  0  0  0  0  0  0  0  0  0  0
   45.2360   34.0770   45.8610 C   0  0  0  0  0  0  0  0  0  0  0  0
   44.6090   35.2760   45.8890 N   0  0  0  0  0  0  0  0  0  0  0  0
   41.8620   33.3670   40.2030 C   0  0  0  0  0  0  0  0  0  0  0  0
   42.3060   34.6580   39.9940 C   0  0  0  0  0  0  0  0  0  0  0  0
   43.6110   34.9050   40.3080 C   0  0  0  0  0  0  0  0  0  0  0  0
   44.5070   33.9650   40.8140 C   0  0  0  0  0  0  0  0  0  0  0  0
   44.0100   32.6960   41.0010 C   0  0  0  0  0  0  0  0  0  0  0  0
   42.6940   32.3820   40.7020 C   0  0  0  0  0  0  0  0  0  0  0  0
   40.1860   33.0080   39.8110 S   0  0  0  0  0  0  0  0  0  0  0  0
   39.8770   33.5840   38.4620 O   0  0  0  0  0  0  0  0  0  0  0  0
   39.2680   33.6270   40.8550 O   0  0  0  0  0  0  0  0  0  0  0  0
   48.3789   33.3954   42.6159 H   0  0  0  0  0  0  0  0  0  0  0  0
   47.1572   32.1793   43.2537 H   0  0  0  0  0  0  0  0  0  0  0  0
   48.6569   31.8643   41.0725 H   0  0  0  0  0  0  0  0  0  0  0  0
   46.9865   31.1330   41.4214 H   0  0  0  0  0  0  0  0  0  0  0  0
   47.7894   34.4243   40.0857 H   0  0  0  0  0  0  0  0  0  0  0  0
   46.3400   34.0961   39.0399 H   0  0  0  0  0  0  0  0  0  0  0  0
   45.9105   35.4518   41.1857 H   0  0  0  0  0  0  0  0  0  0  0  0
   44.0191   37.0187   44.8363 H   0  0  0  0  0  0  0  0  0  0  0  0
   45.0567   36.2293   42.6931 H   0  0  0  0  0  0  0  0  0  0  0  0
   45.2892   33.4554   46.7670 H   0  0  0  0  0  0  0  0  0  0  0  0
   41.6452   35.4427   39.5970 H   0  0  0  0  0  0  0  0  0  0  0  0
   43.9853   35.9271   40.1491 H   0  0  0  0  0  0  0  0  0  0  0  0
   44.6727   31.9124   41.3971 H   0  0  0  0  0  0  0  0  0  0  0  0
   42.3157   31.3612   40.8598 H   0  0  0  0  0  0  0  0  0  0  0  0
   39.9900   31.6521   39.7987 H   0  0  0  0  0  0  0  0  0  0  0  0
  1  2  1  0
  1  9  1  0
  3  2  1  0
  4  3  1  0
  5  4  1  0
  5  6  1  0
  6  1  1  0
  7 12  2  0
  8  7  1  0
  9  8  2  0
  9 10  1  0
 10 11  2  0
 11 12  1  0
 13 18  2  0
 14 13  1  0
 14 15  2  0
 15 16  1  0
 16 17  2  0
 16  6  1  0
 18 17  1  0
 19 13  1  0
 19 21  2  0
 20 19  2  0
  2 22  1  0
  2 23  1  0
  3 24  1  0
  3 25  1  0
  5 26  1  0
  5 27  1  0
  6 28  1  1
  7 29  1  0
  8 30  1  0
 11 31  1  0
 14 32  1  0
 15 33  1  0
 17 34  1  0
 18 35  1  0
 19 36  1  0
M  ISO  8  22  13  23  13  24  13  25  13  26  13  27  13  28  13  29  14
M  ISO  7  30  14  31  14  32  14  33  14  34  14  35  14  36  11
M  END
>  <minimizedAffinity>  (1) 
-4.9180088

>  <minimizedRMSD>  (1) 
2.68197727

$$$$
