
     RDKit          3D

 35 37  0  0  1  0  0  0  0  0999 V2000
   47.2520   34.3420   42.3030 N   0  0  0  0  0  0  0  0  0  0  0  0
   48.5740   33.8670   42.5990 C   0  0  0  0  0  0  0  0  0  0  0  0
   49.2620   33.1450   41.5130 C   0  0  0  0  0  0  0  0  0  0  0  0
   48.7260   33.2290   40.2610 O   0  0  0  0  0  0  0  0  0  0  0  0
   47.9950   34.3520   40.0030 C   0  0  0  0  0  0  0  0  0  0  0  0
   46.7930   34.4960   40.9440 C   0  0  1  0  0  0  0  0  0  0  0  0
   44.6600   36.0770   44.3770 C   0  0  0  0  0  0  0  0  0  0  0  0
   45.5290   35.8150   43.2960 C   0  0  0  0  0  0  0  0  0  0  0  0
   46.3510   34.6730   43.3490 C   0  0  0  0  0  0  0  0  0  0  0  0
   46.2540   33.8710   44.4690 N   0  0  0  0  0  0  0  0  0  0  0  0
   45.4120   34.1580   45.4750 C   0  0  0  0  0  0  0  0  0  0  0  0
   44.6250   35.2350   45.4430 N   0  0  0  0  0  0  0  0  0  0  0  0
   45.8130   33.6070   40.4890 N   0  0  0  0  0  0  0  0  0  0  0  0
   44.4660   33.9880   40.4780 C   0  0  0  0  0  0  0  0  0  0  0  0
   43.7620   32.8590   39.7510 C   0  0  0  0  0  0  0  0  0  0  0  0
   44.8480   31.8720   39.3530 C   0  0  0  0  0  0  0  0  0  0  0  0
   46.1330   32.6760   39.4770 C   0  0  0  0  0  0  0  0  0  0  0  0
   49.1913   34.7368   42.8681 H   0  0  0  0  0  0  0  0  0  0  0  0
   48.4499   33.1335   43.4093 H   0  0  0  0  0  0  0  0  0  0  0  0
   50.2894   33.5341   41.4581 H   0  0  0  0  0  0  0  0  0  0  0  0
   49.1744   32.0825   41.7841 H   0  0  0  0  0  0  0  0  0  0  0  0
   48.6446   35.2316   40.1226 H   0  0  0  0  0  0  0  0  0  0  0  0
   47.6093   34.2725   38.9759 H   0  0  0  0  0  0  0  0  0  0  0  0
   46.3166   35.4875   40.9403 H   0  0  0  0  0  0  0  0  0  0  0  0
   44.0101   36.9642   44.3565 H   0  0  0  0  0  0  0  0  0  0  0  0
   45.5634   36.4903   42.4284 H   0  0  0  0  0  0  0  0  0  0  0  0
   45.3701   33.4887   46.3469 H   0  0  0  0  0  0  0  0  0  0  0  0
   44.0818   34.0902   41.5036 H   0  0  0  0  0  0  0  0  0  0  0  0
   44.3093   34.9623   39.9921 H   0  0  0  0  0  0  0  0  0  0  0  0
   43.0307   32.3748   40.4149 H   0  0  0  0  0  0  0  0  0  0  0  0
   43.2124   33.2277   38.8724 H   0  0  0  0  0  0  0  0  0  0  0  0
   44.7017   31.5241   38.3198 H   0  0  0  0  0  0  0  0  0  0  0  0
   44.8504   30.9674   39.9788 H   0  0  0  0  0  0  0  0  0  0  0  0
   46.9754   32.0357   39.7776 H   0  0  0  0  0  0  0  0  0  0  0  0
   46.4504   33.1446   38.5338 H   0  0  0  0  0  0  0  0  0  0  0  0
  1  2  1  0
  1  9  1  0
  3  2  1  0
  4  3  1  0
  5  4  1  0
  5  6  1  0
  6  1  1  0
  7 12  2  0
  8  9  2  0
  8  7  1  0
  9 10  1  0
 10 11  2  0
 12 11  1  0
 13 14  1  0
 13  6  1  0
 15 14  1  0
 16 17  1  0
 16 15  1  0
 17 13  1  0
  2 18  1  0
  2 19  1  0
  3 20  1  0
  3 21  1  0
  5 22  1  0
  5 23  1  0
  6 24  1  1
  7 25  1  0
  8 26  1  0
 11 27  1  0
 14 28  1  0
 14 29  1  0
 15 30  1  0
 15 31  1  0
 16 32  1  0
 16 33  1  0
 17 34  1  0
 17 35  1  0
M  ISO  8  18  13  19  13  20  13  21  13  22  13  23  13  24  13  25  14
M  ISO  8  26  14  27  14  28  13  29  13  30  13  31  13  32  13  33  13
M  ISO  2  34  13  35  13
M  END
>  <minimizedAffinity>  (1) 
-4.47220087

>  <minimizedRMSD>  (1) 
0.510324001

$$$$
