
     RDKit          3D

 31 33  0  0  1  0  0  0  0  0999 V2000
   47.2190   34.3150   42.3780 N   0  0  0  0  0  0  0  0  0  0  0  0
   48.5300   33.7840   42.6470 C   0  0  0  0  0  0  0  0  0  0  0  0
   49.1750   33.0680   41.5280 C   0  0  0  0  0  0  0  0  0  0  0  0
   48.6600   33.2490   40.2830 O   0  0  0  0  0  0  0  0  0  0  0  0
   47.9250   34.3680   40.0610 C   0  0  0  0  0  0  0  0  0  0  0  0
   46.7710   34.5420   41.0310 C   0  0  1  0  0  0  0  0  0  0  0  0
   44.6130   35.9850   44.4760 C   0  0  0  0  0  0  0  0  0  0  0  0
   45.4650   35.7630   43.3620 C   0  0  0  0  0  0  0  0  0  0  0  0
   46.3190   34.6350   43.4400 C   0  0  0  0  0  0  0  0  0  0  0  0
   46.2820   33.8320   44.5600 N   0  0  0  0  0  0  0  0  0  0  0  0
   45.4440   34.1060   45.5830 C   0  0  0  0  0  0  0  0  0  0  0  0
   44.6250   35.1590   45.5450 N   0  0  0  0  0  0  0  0  0  0  0  0
   45.7590   33.4950   40.7150 C   0  0  0  0  0  0  0  0  0  0  0  0
   44.5750   33.7280   40.0410 C   0  0  0  0  0  0  0  0  0  0  0  0
   43.6710   32.7170   39.7760 C   0  0  0  0  0  0  0  0  0  0  0  0
   43.9500   31.4510   40.1870 N   0  0  0  0  0  0  0  0  0  0  0  0
   45.0960   31.2590   40.8340 C   0  0  0  0  0  0  0  0  0  0  0  0
   45.9910   32.2300   41.1030 N   0  0  0  0  0  0  0  0  0  0  0  0
   49.1821   34.6229   42.9316 H   0  0  0  0  0  0  0  0  0  0  0  0
   48.3921   33.0354   43.4411 H   0  0  0  0  0  0  0  0  0  0  0  0
   50.2277   33.3855   41.4977 H   0  0  0  0  0  0  0  0  0  0  0  0
   49.0088   32.0027   41.7461 H   0  0  0  0  0  0  0  0  0  0  0  0
   48.5874   35.2418   40.1490 H   0  0  0  0  0  0  0  0  0  0  0  0
   47.4885   34.2719   39.0559 H   0  0  0  0  0  0  0  0  0  0  0  0
   46.3613   35.5589   40.9416 H   0  0  0  0  0  0  0  0  0  0  0  0
   43.9295   36.8468   44.4685 H   0  0  0  0  0  0  0  0  0  0  0  0
   45.4622   36.4297   42.4870 H   0  0  0  0  0  0  0  0  0  0  0  0
   45.4363   33.4484   46.4648 H   0  0  0  0  0  0  0  0  0  0  0  0
   44.3452   34.7499   39.7051 H   0  0  0  0  0  0  0  0  0  0  0  0
   42.7360   32.9338   39.2386 H   0  0  0  0  0  0  0  0  0  0  0  0
   45.3291   30.2386   41.1725 H   0  0  0  0  0  0  0  0  0  0  0  0
  1  2  1  0
  1  9  1  0
  3  2  1  0
  4  3  1  0
  5  4  1  0
  5  6  1  0
  6  1  1  0
  7 12  2  0
  8  9  2  0
  8  7  1  0
  9 10  1  0
 10 11  2  0
 12 11  1  0
 13  6  1  0
 13 18  1  0
 14 13  2  0
 15 14  1  0
 15 16  2  0
 16 17  1  0
 17 18  2  0
  2 19  1  0
  2 20  1  0
  3 21  1  0
  3 22  1  0
  5 23  1  0
  5 24  1  0
  6 25  1  1
  7 26  1  0
  8 27  1  0
 11 28  1  0
 14 29  1  0
 15 30  1  0
 17 31  1  0
M  ISO  8  19  13  20  13  21  13  22  13  23  13  24  13  25  13  26  14
M  ISO  5  27  14  28  14  29  14  30  14  31  14
M  END
>  <minimizedAffinity>  (1) 
-4.42291927

>  <minimizedRMSD>  (1) 
0.610260963

$$$$
