
     RDKit          3D

 30 32  0  0  1  0  0  0  0  0999 V2000
   47.3080   34.3800   42.3930 N   0  0  0  0  0  0  0  0  0  0  0  0
   48.6520   33.9780   42.7230 C   0  0  0  0  0  0  0  0  0  0  0  0
   49.3840   33.2620   41.6580 C   0  0  0  0  0  0  0  0  0  0  0  0
   48.8830   33.3330   40.3950 O   0  0  0  0  0  0  0  0  0  0  0  0
   48.0790   34.3970   40.0980 C   0  0  0  0  0  0  0  0  0  0  0  0
   46.8740   34.5010   41.0360 C   0  0  1  0  0  0  0  0  0  0  0  0
   44.6030   35.9870   44.4110 C   0  0  0  0  0  0  0  0  0  0  0  0
   45.4960   35.7760   43.3290 C   0  0  0  0  0  0  0  0  0  0  0  0
   46.3730   34.6680   43.4350 C   0  0  0  0  0  0  0  0  0  0  0  0
   46.3010   33.8860   44.5540 N   0  0  0  0  0  0  0  0  0  0  0  0
   45.4410   34.1280   45.5460 C   0  0  0  0  0  0  0  0  0  0  0  0
   44.5970   35.1670   45.4810 N   0  0  0  0  0  0  0  0  0  0  0  0
   45.9470   33.3950   40.6300 C   0  0  0  0  0  0  0  0  0  0  0  0
   45.0210   33.2250   39.6180 C   0  0  0  0  0  0  0  0  0  0  0  0
   44.4620   31.9700   39.7540 C   0  0  0  0  0  0  0  0  0  0  0  0
   45.0450   31.4060   40.8260 N   0  0  0  0  0  0  0  0  0  0  0  0
   45.9240   32.2370   41.3520 N   0  0  0  0  0  0  0  0  0  0  0  0
   49.2233   34.8831   42.9766 H   0  0  0  0  0  0  0  0  0  0  0  0
   48.5569   33.2644   43.5547 H   0  0  0  0  0  0  0  0  0  0  0  0
   50.4060   33.6678   41.6304 H   0  0  0  0  0  0  0  0  0  0  0  0
   49.3072   32.1991   41.9308 H   0  0  0  0  0  0  0  0  0  0  0  0
   48.6710   35.3204   40.1806 H   0  0  0  0  0  0  0  0  0  0  0  0
   47.6962   34.2519   39.0770 H   0  0  0  0  0  0  0  0  0  0  0  0
   46.3595   35.4706   40.9648 H   0  0  0  0  0  0  0  0  0  0  0  0
   43.9030   36.8348   44.3762 H   0  0  0  0  0  0  0  0  0  0  0  0
   45.5071   36.4394   42.4516 H   0  0  0  0  0  0  0  0  0  0  0  0
   45.4250   33.4678   46.4257 H   0  0  0  0  0  0  0  0  0  0  0  0
   44.7727   33.9615   38.8396 H   0  0  0  0  0  0  0  0  0  0  0  0
   43.6910   31.5199   39.1114 H   0  0  0  0  0  0  0  0  0  0  0  0
   44.8359   30.4632   41.1841 H   0  0  0  0  0  0  0  0  0  0  0  0
  1  2  1  0
  1  9  1  0
  3  2  1  0
  4  3  1  0
  5  4  1  0
  5  6  1  0
  6  1  1  0
  7 12  2  0
  8  9  2  0
  8  7  1  0
  9 10  1  0
 10 11  2  0
 12 11  1  0
 13  6  1  0
 13 17  2  0
 14 15  2  0
 14 13  1  0
 15 16  1  0
 16 17  1  0
  2 18  1  0
  2 19  1  0
  3 20  1  0
  3 21  1  0
  5 22  1  0
  5 23  1  0
  6 24  1  1
  7 25  1  0
  8 26  1  0
 11 27  1  0
 14 28  1  0
 15 29  1  0
 16 30  1  0
M  ISO  8  18  13  19  13  20  13  21  13  22  13  23  13  24  13  25  14
M  ISO  5  26  14  27  14  28  14  29  14  30   9
M  END
>  <minimizedAffinity>  (1) 
-4.34840059

>  <minimizedRMSD>  (1) 
0.39991191

$$$$
