
     RDKit          3D

 25 26  0  0  1  0  0  0  0  0999 V2000
   47.3140   34.3880   42.3530 N   0  0  0  0  0  0  0  0  0  0  0  0
   48.6920   34.1640   42.6240 C   0  0  0  0  0  0  0  0  0  0  0  0
   49.4130   33.3540   41.5950 C   0  0  0  0  0  0  0  0  0  0  0  0
   48.8590   33.2870   40.3500 O   0  0  0  0  0  0  0  0  0  0  0  0
   47.9570   34.2640   40.0200 C   0  0  0  0  0  0  0  0  0  0  0  0
   46.8010   34.3210   41.0030 C   0  0  1  0  0  0  0  0  0  0  0  0
   44.6030   35.9860   44.3820 C   0  0  0  0  0  0  0  0  0  0  0  0
   45.4900   35.7690   43.3210 C   0  0  0  0  0  0  0  0  0  0  0  0
   46.3840   34.6860   43.3740 C   0  0  0  0  0  0  0  0  0  0  0  0
   46.3040   33.9160   44.4950 N   0  0  0  0  0  0  0  0  0  0  0  0
   45.4560   34.1250   45.5080 C   0  0  0  0  0  0  0  0  0  0  0  0
   44.6060   35.1650   45.4430 N   0  0  0  0  0  0  0  0  0  0  0  0
   46.0140   33.1160   40.7990 N   0  0  0  0  0  0  0  0  0  0  0  0
   49.1890   35.1425   42.6982 H   0  0  0  0  0  0  0  0  0  0  0  0
   48.7321   33.5830   43.5572 H   0  0  0  0  0  0  0  0  0  0  0  0
   50.4210   33.7806   41.4855 H   0  0  0  0  0  0  0  0  0  0  0  0
   49.3802   32.3220   41.9744 H   0  0  0  0  0  0  0  0  0  0  0  0
   48.4707   35.2367   40.0180 H   0  0  0  0  0  0  0  0  0  0  0  0
   47.5486   34.0300   39.0258 H   0  0  0  0  0  0  0  0  0  0  0  0
   46.1764   35.2124   40.8442 H   0  0  0  0  0  0  0  0  0  0  0  0
   43.9013   36.8324   44.3457 H   0  0  0  0  0  0  0  0  0  0  0  0
   45.4873   36.4421   42.4510 H   0  0  0  0  0  0  0  0  0  0  0  0
   45.4539   33.4561   46.3813 H   0  0  0  0  0  0  0  0  0  0  0  0
   45.7536   32.7173   41.7123 H   0  0  0  0  0  0  0  0  0  0  0  0
   45.1613   33.3483   40.2701 H   0  0  0  0  0  0  0  0  0  0  0  0
  1  2  1  0
  1  9  1  0
  3  2  1  0
  4  3  1  0
  5  4  1  0
  5  6  1  0
  6  1  1  0
  7 12  2  0
  8  9  2  0
  8  7  1  0
  9 10  1  0
 10 11  2  0
 12 11  1  0
 13  6  1  0
  2 14  1  0
  2 15  1  0
  3 16  1  0
  3 17  1  0
  5 18  1  0
  5 19  1  0
  6 20  1  6
  7 21  1  0
  8 22  1  0
 11 23  1  0
 13 24  1  0
 13 25  1  0
M  ISO  8  14  13  15  13  16  13  17  13  18  13  19  13  20  13  21  14
M  ISO  4  22  14  23  14  24   5  25   5
M  END
>  <minimizedAffinity>  (1) 
-4.12809896

>  <minimizedRMSD>  (1) 
0.0224990752

$$$$
