
     RDKit          3D

 33 34  0  0  1  0  0  0  0  0999 V2000
   46.0650   32.9110   42.3900 N   0  0  0  0  0  0  0  0  0  0  0  0
   45.1770   31.8210   42.0600 C   0  0  0  0  0  0  0  0  0  0  0  0
   45.5740   31.0110   40.8880 C   0  0  0  0  0  0  0  0  0  0  0  0
   46.8840   31.0400   40.5320 O   0  0  0  0  0  0  0  0  0  0  0  0
   47.7790   31.4760   41.4570 C   0  0  0  0  0  0  0  0  0  0  0  0
   47.4410   32.8790   41.9800 C   0  0  2  0  0  0  0  0  0  0  0  0
   44.8440   35.0790   45.1780 C   0  0  0  0  0  0  0  0  0  0  0  0
   45.2920   33.9520   44.4880 C   0  0  0  0  0  0  0  0  0  0  0  0
   45.6070   34.0380   43.1240 C   0  0  0  0  0  0  0  0  0  0  0  0
   45.4590   35.2630   42.4990 N   0  0  0  0  0  0  0  0  0  0  0  0
   45.0220   36.3360   43.2040 C   0  0  0  0  0  0  0  0  0  0  0  0
   44.7230   36.2360   44.5170 N   0  0  0  0  0  0  0  0  0  0  0  0
   48.4210   33.2350   43.0130 C   0  0  0  0  0  0  0  0  0  0  0  0
   48.9100   34.3540   43.1680 O   0  0  0  0  0  0  0  0  0  0  0  0
   49.8340   34.9740   42.3970 C   0  0  0  0  0  0  0  0  0  0  0  0
   49.1190   36.0260   41.5620 C   0  0  0  0  0  0  0  0  0  0  0  0
   45.1222   31.1523   42.9317 H   0  0  0  0  0  0  0  0  0  0  0  0
   44.2146   32.2838   41.7962 H   0  0  0  0  0  0  0  0  0  0  0  0
   45.3123   29.9647   41.1042 H   0  0  0  0  0  0  0  0  0  0  0  0
   45.0378   31.4580   40.0379 H   0  0  0  0  0  0  0  0  0  0  0  0
   47.7823   30.7742   42.3040 H   0  0  0  0  0  0  0  0  0  0  0  0
   48.7653   31.5265   40.9726 H   0  0  0  0  0  0  0  0  0  0  0  0
   47.5249   33.6549   41.2048 H   0  0  0  0  0  0  0  0  0  0  0  0
   44.5945   35.0173   46.2475 H   0  0  0  0  0  0  0  0  0  0  0  0
   45.3985   32.9927   45.0157 H   0  0  0  0  0  0  0  0  0  0  0  0
   44.9091   37.3056   42.6969 H   0  0  0  0  0  0  0  0  0  0  0  0
   47.9387   32.9908   43.9710 H   0  0  0  0  0  0  0  0  0  0  0  0
   49.3006   32.6835   42.6494 H   0  0  0  0  0  0  0  0  0  0  0  0
   50.5908   35.4543   43.0346 H   0  0  0  0  0  0  0  0  0  0  0  0
   50.3386   34.2460   41.7447 H   0  0  0  0  0  0  0  0  0  0  0  0
   48.6268   36.7502   42.2278 H   0  0  0  0  0  0  0  0  0  0  0  0
   49.8495   36.5490   40.9273 H   0  0  0  0  0  0  0  0  0  0  0  0
   48.3638   35.5393   40.9273 H   0  0  0  0  0  0  0  0  0  0  0  0
  1  9  1  0
  2  1  1  0
  3  2  1  0
  4  3  1  0
  4  5  1  0
  5  6  1  0
  6  1  1  0
  6 13  1  0
  8  7  2  0
  9  8  1  0
 10  9  2  0
 10 11  1  0
 11 12  2  0
 12  7  1  0
 13 14  1  0
 15 14  1  0
 16 15  1  0
  2 17  1  0
  2 18  1  0
  3 19  1  0
  3 20  1  0
  5 21  1  0
  5 22  1  0
  6 23  1  6
  7 24  1  0
  8 25  1  0
 11 26  1  0
 13 27  1  0
 13 28  1  0
 15 29  1  0
 15 30  1  0
 16 31  1  0
 16 32  1  0
 16 33  1  0
M  ISO  8  17  13  18  13  19  13  20  13  21  13  22  13  23  13  24  14
M  ISO  8  25  14  26  14  27   8  28   8  29   8  30   8  31   8  32   8
M  ISO  1  33   8
M  END
>  <minimizedAffinity>  (1) 
-4.06110287

>  <minimizedRMSD>  (1) 
1.52967572

$$$$
