
     RDKit          3D

 40 42  0  0  1  0  0  0  0  0999 V2000
   45.5980   32.2410   42.9890 N   0  0  0  0  0  0  0  0  0  0  0  0
   44.5970   31.1990   43.1240 C   0  0  0  0  0  0  0  0  0  0  0  0
   44.7650   30.0400   42.2220 C   0  0  0  0  0  0  0  0  0  0  0  0
   46.0110   29.8180   41.7120 O   0  0  0  0  0  0  0  0  0  0  0  0
   47.0540   30.4090   42.3500 C   0  0  0  0  0  0  0  0  0  0  0  0
   46.8940   31.9440   42.4330 C   0  0  2  0  0  0  0  0  0  0  0  0
   44.9430   35.2550   45.0980 C   0  0  0  0  0  0  0  0  0  0  0  0
   45.2060   33.9450   44.7260 C   0  0  0  0  0  0  0  0  0  0  0  0
   45.3310   33.5680   43.3950 C   0  0  0  0  0  0  0  0  0  0  0  0
   45.1840   34.5620   42.4500 N   0  0  0  0  0  0  0  0  0  0  0  0
   44.9290   35.8400   42.8150 C   0  0  0  0  0  0  0  0  0  0  0  0
   44.8110   36.1710   44.1320 N   0  0  0  0  0  0  0  0  0  0  0  0
   48.0390   32.4620   43.2010 C   0  0  0  0  0  0  0  0  0  0  0  0
   49.1290   32.7400   42.7240 O   0  0  0  0  0  0  0  0  0  0  0  0
   49.4510   33.7420   41.8650 C   0  0  0  0  0  0  0  0  0  0  0  0
   49.5530   35.0330   42.6510 C   0  0  0  0  0  0  0  0  0  0  0  0
   49.2810   36.1330   41.6770 C   0  0  0  0  0  0  0  0  0  0  0  0
   48.7460   35.4930   40.4180 C   0  0  0  0  0  0  0  0  0  0  0  0
   48.4700   34.0370   40.7940 C   0  0  0  0  0  0  0  0  0  0  0  0
   44.6279   30.8305   44.1600 H   0  0  0  0  0  0  0  0  0  0  0  0
   43.6377   31.6617   42.8488 H   0  0  0  0  0  0  0  0  0  0  0  0
   44.4726   29.1400   42.7828 H   0  0  0  0  0  0  0  0  0  0  0  0
   44.1394   30.2707   41.3471 H   0  0  0  0  0  0  0  0  0  0  0  0
   47.1203   30.0041   43.3706 H   0  0  0  0  0  0  0  0  0  0  0  0
   47.9667   30.1954   41.7743 H   0  0  0  0  0  0  0  0  0  0  0  0
   46.9150   32.4437   41.4533 H   0  0  0  0  0  0  0  0  0  0  0  0
   44.8457   35.5330   46.1578 H   0  0  0  0  0  0  0  0  0  0  0  0
   45.3191   33.1810   45.5092 H   0  0  0  0  0  0  0  0  0  0  0  0
   44.8163   36.6165   42.0441 H   0  0  0  0  0  0  0  0  0  0  0  0
   47.6807   33.3873   43.6758 H   0  0  0  0  0  0  0  0  0  0  0  0
   48.3003   31.5742   43.7956 H   0  0  0  0  0  0  0  0  0  0  0  0
   50.3781   33.3923   41.3873 H   0  0  0  0  0  0  0  0  0  0  0  0
   48.8084   35.0470   43.4606 H   0  0  0  0  0  0  0  0  0  0  0  0
   50.5437   35.1435   43.1160 H   0  0  0  0  0  0  0  0  0  0  0  0
   48.5364   36.8282   42.0920 H   0  0  0  0  0  0  0  0  0  0  0  0
   50.1978   36.7030   41.4659 H   0  0  0  0  0  0  0  0  0  0  0  0
   49.4911   35.5482   39.6107 H   0  0  0  0  0  0  0  0  0  0  0  0
   47.8421   36.0011   40.0509 H   0  0  0  0  0  0  0  0  0  0  0  0
   47.4412   33.9188   41.1649 H   0  0  0  0  0  0  0  0  0  0  0  0
   48.5679   33.3559   39.9358 H   0  0  0  0  0  0  0  0  0  0  0  0
  1  2  1  0
  1  9  1  0
  3  2  1  0
  4  3  1  0
  4  5  1  0
  5  6  1  0
  6  1  1  0
  6 13  1  0
  8  7  2  0
  9  8  1  0
 10 11  1  0
 10  9  2  0
 11 12  2  0
 12  7  1  0
 14 13  1  0
 15 16  1  0
 15 14  1  0
 17 16  1  0
 18 19  1  0
 18 17  1  0
 19 15  1  0
  2 20  1  0
  2 21  1  0
  3 22  1  0
  3 23  1  0
  5 24  1  0
  5 25  1  0
  6 26  1  6
  7 27  1  0
  8 28  1  0
 11 29  1  0
 13 30  1  0
 13 31  1  0
 15 32  1  0
 16 33  1  0
 16 34  1  0
 17 35  1  0
 17 36  1  0
 18 37  1  0
 18 38  1  0
 19 39  1  0
 19 40  1  0
M  ISO  8  20  13  21  13  22  13  23  13  24  13  25  13  26  13  27  14
M  ISO  8  28  14  29  14  30   8  31   8  32  13  33  13  34  13  35  13
M  ISO  5  36  13  37  13  38  13  39  13  40  13
M  END
>  <minimizedAffinity>  (1) 
-4.60626125

>  <minimizedRMSD>  (1) 
2.6154325

$$$$
