
     RDKit          3D

 30 31  0  0  1  0  0  0  0  0999 V2000
   46.4620   33.2740   42.3490 N   0  0  0  0  0  0  0  0  0  0  0  0
   45.8490   32.0650   41.8490 C   0  0  0  0  0  0  0  0  0  0  0  0
   46.2820   31.6460   40.4980 C   0  0  0  0  0  0  0  0  0  0  0  0
   47.4540   32.1290   40.0410 O   0  0  0  0  0  0  0  0  0  0  0  0
   48.3310   32.6220   40.9550 C   0  0  0  0  0  0  0  0  0  0  0  0
   47.7140   33.7310   41.8180 C   0  0  2  0  0  0  0  0  0  0  0  0
   45.1630   34.3840   45.6830 C   0  0  0  0  0  0  0  0  0  0  0  0
   45.7790   33.6110   44.6900 C   0  0  0  0  0  0  0  0  0  0  0  0
   45.8450   34.0380   43.3730 C   0  0  0  0  0  0  0  0  0  0  0  0
   45.2760   35.2700   43.0600 N   0  0  0  0  0  0  0  0  0  0  0  0
   44.6860   35.9990   44.0390 C   0  0  0  0  0  0  0  0  0  0  0  0
   44.6320   35.5600   45.3310 N   0  0  0  0  0  0  0  0  0  0  0  0
   48.7190   34.1600   42.8080 C   0  0  0  0  0  0  0  0  0  0  0  0
   49.4540   35.1310   42.6510 O   0  0  0  0  0  0  0  0  0  0  0  0
   49.2960   36.1210   41.7240 C   0  0  0  0  0  0  0  0  0  0  0  0
   46.0853   31.2501   42.5491 H   0  0  0  0  0  0  0  0  0  0  0  0
   44.7734   32.2812   41.7691 H   0  0  0  0  0  0  0  0  0  0  0  0
   46.3574   30.5486   40.5021 H   0  0  0  0  0  0  0  0  0  0  0  0
   45.5238   32.0640   39.8194 H   0  0  0  0  0  0  0  0  0  0  0  0
   48.6548   31.8016   41.6123 H   0  0  0  0  0  0  0  0  0  0  0  0
   49.1792   33.0568   40.4058 H   0  0  0  0  0  0  0  0  0  0  0  0
   47.4604   34.6330   41.2418 H   0  0  0  0  0  0  0  0  0  0  0  0
   45.1173   34.0330   46.7245 H   0  0  0  0  0  0  0  0  0  0  0  0
   46.2212   32.6413   44.9623 H   0  0  0  0  0  0  0  0  0  0  0  0
   44.2383   36.9713   43.7856 H   0  0  0  0  0  0  0  0  0  0  0  0
   48.1626   34.3514   43.7374 H   0  0  0  0  0  0  0  0  0  0  0  0
   49.4418   33.3327   42.7520 H   0  0  0  0  0  0  0  0  0  0  0  0
   49.1426   37.0821   42.2365 H   0  0  0  0  0  0  0  0  0  0  0  0
   50.1960   36.1808   41.0943 H   0  0  0  0  0  0  0  0  0  0  0  0
   48.4221   35.8977   41.0943 H   0  0  0  0  0  0  0  0  0  0  0  0
  1  9  1  0
  2  1  1  0
  3  2  1  0
  4  3  1  0
  4  5  1  0
  5  6  1  0
  6  1  1  0
  6 13  1  0
  8  7  2  0
  9  8  1  0
 10  9  2  0
 10 11  1  0
 11 12  2  0
 12  7  1  0
 14 13  1  0
 15 14  1  0
  2 16  1  0
  2 17  1  0
  3 18  1  0
  3 19  1  0
  5 20  1  0
  5 21  1  0
  6 22  1  6
  7 23  1  0
  8 24  1  0
 11 25  1  0
 13 26  1  0
 13 27  1  0
 15 28  1  0
 15 29  1  0
 15 30  1  0
M  ISO  8  16  13  17  13  18  13  19  13  20  13  21  13  22  13  23  14
M  ISO  7  24  14  25  14  26   8  27   8  28   8  29   8  30   8
M  END
>  <minimizedAffinity>  (1) 
-3.87204909

>  <minimizedRMSD>  (1) 
0.826464057

$$$$
