
     RDKit          3D

 50 53  0  0  1  0  0  0  0  0999 V2000
   45.8420   33.7340   40.3610 C   0  0  0  0  0  0  0  0  0  0  0  0
   43.6530   33.9080   41.4840 N   0  0  0  0  0  0  0  0  0  0  0  0
   42.3440   33.3290   41.3840 C   0  0  0  0  0  0  0  0  0  0  0  0
   41.6690   33.5030   40.0830 C   0  0  0  0  0  0  0  0  0  0  0  0
   42.4210   33.8880   39.0300 O   0  0  0  0  0  0  0  0  0  0  0  0
   43.7360   33.5620   39.1150 C   0  0  0  0  0  0  0  0  0  0  0  0
   44.4430   34.2060   40.3000 C   0  0  2  0  0  0  0  0  0  0  0  0
   45.4710   33.5720   44.7490 C   0  0  0  0  0  0  0  0  0  0  0  0
   44.9250   33.2640   43.5070 C   0  0  0  0  0  0  0  0  0  0  0  0
   44.2200   34.2070   42.7540 C   0  0  0  0  0  0  0  0  0  0  0  0
   44.0810   35.4670   43.2880 N   0  0  0  0  0  0  0  0  0  0  0  0
   44.6220   35.7520   44.5060 C   0  0  0  0  0  0  0  0  0  0  0  0
   45.3020   34.8130   45.2140 N   0  0  0  0  0  0  0  0  0  0  0  0
   46.7620   34.5510   40.5850 O   0  0  0  0  0  0  0  0  0  0  0  0
   48.8220   35.4980   40.6560 N   0  0  0  0  0  0  0  0  0  0  0  0
   49.4190   35.4660   41.9640 C   0  0  0  0  0  0  0  0  0  0  0  0
   48.5600   34.4750   42.7440 C   0  0  0  0  0  0  0  0  0  0  0  0
   48.4650   33.4090   41.6560 C   0  0  0  0  0  0  0  0  0  0  0  0
   48.0950   34.2370   40.4630 C   0  0  1  0  0  0  0  0  0  0  0  0
   48.4750   33.6870   39.2010 N   0  0  0  0  0  0  0  0  0  0  0  0
   48.2850   34.3370   38.0310 C   0  0  0  0  0  0  0  0  0  0  0  0
   48.6420   33.8300   36.7960 C   0  0  0  0  0  0  0  0  0  0  0  0
   49.2300   32.5750   36.7950 C   0  0  0  0  0  0  0  0  0  0  0  0
   49.6250   31.9850   35.5630 N   0  0  0  0  0  0  0  0  0  0  0  0
   49.4190   31.9250   37.9640 N   0  0  0  0  0  0  0  0  0  0  0  0
   49.0510   32.4710   39.1250 C   0  0  0  0  0  0  0  0  0  0  0  0
   49.2700   31.7850   40.1680 O   0  0  0  0  0  0  0  0  0  0  0  0
   46.0624   33.2631   39.3916 H   0  0  0  0  0  0  0  0  0  0  0  0
   45.8548   33.0840   41.2483 H   0  0  0  0  0  0  0  0  0  0  0  0
   42.4353   32.2498   41.5766 H   0  0  0  0  0  0  0  0  0  0  0  0
   41.7223   33.8601   42.1198 H   0  0  0  0  0  0  0  0  0  0  0  0
   41.2073   32.5394   39.8215 H   0  0  0  0  0  0  0  0  0  0  0  0
   40.9695   34.3367   40.2433 H   0  0  0  0  0  0  0  0  0  0  0  0
   43.8189   32.4694   39.2112 H   0  0  0  0  0  0  0  0  0  0  0  0
   44.2233   33.9371   38.2029 H   0  0  0  0  0  0  0  0  0  0  0  0
   44.5132   35.3001   40.2107 H   0  0  0  0  0  0  0  0  0  0  0  0
   46.0238   32.8184   45.3291 H   0  0  0  0  0  0  0  0  0  0  0  0
   45.0520   32.2478   43.1056 H   0  0  0  0  0  0  0  0  0  0  0  0
   44.5057   36.7627   44.9242 H   0  0  0  0  0  0  0  0  0  0  0  0
   48.1698   36.2923   40.5879 H   0  0  0  0  0  0  0  0  0  0  0  0
   50.4615   35.1193   41.9086 H   0  0  0  0  0  0  0  0  0  0  0  0
   49.4510   36.4587   42.4367 H   0  0  0  0  0  0  0  0  0  0  0  0
   49.0620   34.1065   43.6507 H   0  0  0  0  0  0  0  0  0  0  0  0
   47.6082   34.8570   43.1416 H   0  0  0  0  0  0  0  0  0  0  0  0
   49.4278   32.8979   41.5082 H   0  0  0  0  0  0  0  0  0  0  0  0
   47.7543   32.5998   41.8799 H   0  0  0  0  0  0  0  0  0  0  0  0
   47.8169   35.3319   38.0641 H   0  0  0  0  0  0  0  0  0  0  0  0
   48.4691   34.3911   35.8658 H   0  0  0  0  0  0  0  0  0  0  0  0
   50.0625   31.0526   35.5554 H   0  0  0  0  0  0  0  0  0  0  0  0
   49.4736   32.4901   34.6782 H   0  0  0  0  0  0  0  0  0  0  0  0
  1 14  1  0
  2 10  1  0
  3  2  1  0
  4  3  1  0
  5  6  1  0
  5  4  1  0
  6  7  1  0
  7  1  1  0
  7  2  1  0
  8 13  2  0
  9  8  1  0
 10 11  1  0
 10  9  2  0
 11 12  2  0
 12 13  1  0
 15 16  1  0
 16 17  1  0
 18 17  1  0
 19 14  1  6
 19 15  1  0
 19 18  1  0
 20 19  1  0
 21 20  1  0
 22 21  2  0
 23 22  1  0
 23 25  2  0
 24 23  1  0
 25 26  1  0
 26 20  1  0
 26 27  2  0
  1 28  1  0
  1 29  1  0
  3 30  1  0
  3 31  1  0
  4 32  1  0
  4 33  1  0
  6 34  1  0
  6 35  1  0
  7 36  1  6
  8 37  1  0
  9 38  1  0
 12 39  1  0
 15 40  1  0
 16 41  1  0
 16 42  1  0
 17 43  1  0
 17 44  1  0
 18 45  1  0
 18 46  1  0
 21 47  1  0
 22 48  1  0
 24 49  1  0
 24 50  1  0
M  ISO  8  28   8  29   8  30  13  31  13  32  13  33  13  34  13  35  13
M  ISO  8  36  13  37  14  38  14  39  14  40   5  41  13  42  13  43  13
M  ISO  5  44  13  45  13  46  13  47  14  48  14
M  END
>  <minimizedAffinity>  (1) 
-6.04524994

>  <minimizedRMSD>  (1) 
0.948100269

$$$$
