
     RDKit          3D

 51 54  0  0  1  0  0  0  0  0999 V2000
   43.6920   33.7780   41.4140 N   0  0  0  0  0  0  0  0  0  0  0  0
   42.4000   33.1360   41.3340 C   0  0  0  0  0  0  0  0  0  0  0  0
   41.6920   33.3520   40.0460 C   0  0  0  0  0  0  0  0  0  0  0  0
   42.4450   33.6640   38.9630 O   0  0  0  0  0  0  0  0  0  0  0  0
   43.7580   33.3850   39.0600 C   0  0  0  0  0  0  0  0  0  0  0  0
   44.4540   34.0990   40.2290 C   0  0  2  0  0  0  0  0  0  0  0  0
   45.4640   33.5450   44.7010 C   0  0  0  0  0  0  0  0  0  0  0  0
   44.9270   33.2020   43.4770 C   0  0  0  0  0  0  0  0  0  0  0  0
   44.2510   34.1150   42.6750 C   0  0  0  0  0  0  0  0  0  0  0  0
   44.1340   35.3990   43.1590 N   0  0  0  0  0  0  0  0  0  0  0  0
   44.6620   35.7310   44.3630 C   0  0  0  0  0  0  0  0  0  0  0  0
   45.3170   34.8110   45.1180 N   0  0  0  0  0  0  0  0  0  0  0  0
   45.8630   33.6730   40.2750 C   0  0  0  0  0  0  0  0  0  0  0  0
   46.7980   34.4740   40.3490 O   0  0  0  0  0  0  0  0  0  0  0  0
   48.8240   35.4580   40.5680 N   0  0  0  0  0  0  0  0  0  0  0  0
   49.3770   35.3490   41.9100 C   0  0  0  0  0  0  0  0  0  0  0  0
   48.5000   34.3080   42.5800 C   0  0  0  0  0  0  0  0  0  0  0  0
   48.4610   33.3090   41.4360 C   0  0  0  0  0  0  0  0  0  0  0  0
   48.1140   34.2020   40.2880 C   0  0  1  0  0  0  0  0  0  0  0  0
   48.6610   33.7150   39.0730 N   0  0  0  0  0  0  0  0  0  0  0  0
   48.7110   32.3140   38.9070 C   0  0  0  0  0  0  0  0  0  0  0  0
   48.2720   32.1050   37.4750 C   0  0  0  0  0  0  0  0  0  0  0  0
   48.5950   33.4310   36.7840 C   0  0  0  0  0  0  0  0  0  0  0  0
   48.3030   34.4060   37.8970 C   0  0  0  0  0  0  0  0  0  0  0  0
   42.5431   32.0541   41.4719 H   0  0  0  0  0  0  0  0  0  0  0  0
   41.7740   33.5862   42.1185 H   0  0  0  0  0  0  0  0  0  0  0  0
   41.1448   32.4270   39.8115 H   0  0  0  0  0  0  0  0  0  0  0  0
   41.0645   34.2393   40.2163 H   0  0  0  0  0  0  0  0  0  0  0  0
   43.8737   32.2997   39.1970 H   0  0  0  0  0  0  0  0  0  0  0  0
   44.2330   33.7430   38.1347 H   0  0  0  0  0  0  0  0  0  0  0  0
   44.4805   35.1940   40.1275 H   0  0  0  0  0  0  0  0  0  0  0  0
   45.9958   32.8034   45.3152 H   0  0  0  0  0  0  0  0  0  0  0  0
   45.0379   32.1667   43.1221 H   0  0  0  0  0  0  0  0  0  0  0  0
   44.5583   36.7613   44.7341 H   0  0  0  0  0  0  0  0  0  0  0  0
   45.9543   33.0160   41.1525 H   0  0  0  0  0  0  0  0  0  0  0  0
   46.0041   33.2565   39.2667 H   0  0  0  0  0  0  0  0  0  0  0  0
   48.1696   36.2519   40.5193 H   0  0  0  0  0  0  0  0  0  0  0  0
   50.4247   35.0155   41.8761 H   0  0  0  0  0  0  0  0  0  0  0  0
   49.3828   36.3092   42.4467 H   0  0  0  0  0  0  0  0  0  0  0  0
   48.9649   33.8895   43.4848 H   0  0  0  0  0  0  0  0  0  0  0  0
   47.5261   34.6595   42.9516 H   0  0  0  0  0  0  0  0  0  0  0  0
   49.4375   32.8242   41.2897 H   0  0  0  0  0  0  0  0  0  0  0  0
   47.7617   32.4735   41.5876 H   0  0  0  0  0  0  0  0  0  0  0  0
   49.7326   31.9371   39.0628 H   0  0  0  0  0  0  0  0  0  0  0  0
   48.0781   31.7771   39.6289 H   0  0  0  0  0  0  0  0  0  0  0  0
   48.8311   31.2782   37.0126 H   0  0  0  0  0  0  0  0  0  0  0  0
   47.2078   31.8380   37.3961 H   0  0  0  0  0  0  0  0  0  0  0  0
   49.6482   33.4782   36.4700 H   0  0  0  0  0  0  0  0  0  0  0  0
   48.0292   33.6127   35.8583 H   0  0  0  0  0  0  0  0  0  0  0  0
   48.9064   35.3186   37.7830 H   0  0  0  0  0  0  0  0  0  0  0  0
   47.2518   34.7298   37.9051 H   0  0  0  0  0  0  0  0  0  0  0  0
  1  9  1  0
  2  1  1  0
  3  2  1  0
  4  5  1  0
  4  3  1  0
  5  6  1  0
  6 13  1  0
  6  1  1  0
  7 12  2  0
  8  7  1  0
  9 10  1  0
  9  8  2  0
 10 11  2  0
 11 12  1  0
 13 14  1  0
 15 16  1  0
 16 17  1  0
 18 17  1  0
 19 14  1  6
 19 15  1  0
 19 18  1  0
 20 21  1  0
 20 19  1  0
 22 21  1  0
 23 22  1  0
 23 24  1  0
 24 20  1  0
  2 25  1  0
  2 26  1  0
  3 27  1  0
  3 28  1  0
  5 29  1  0
  5 30  1  0
  6 31  1  6
  7 32  1  0
  8 33  1  0
 11 34  1  0
 13 35  1  0
 13 36  1  0
 15 37  1  0
 16 38  1  0
 16 39  1  0
 17 40  1  0
 17 41  1  0
 18 42  1  0
 18 43  1  0
 21 44  1  0
 21 45  1  0
 22 46  1  0
 22 47  1  0
 23 48  1  0
 23 49  1  0
 24 50  1  0
 24 51  1  0
M  ISO  8  25  13  26  13  27  13  28  13  29  13  30  13  31  13  32  14
M  ISO  8  33  14  34  14  35   8  36   8  37   5  38  13  39  13  40  13
M  ISO  8  41  13  42  13  43  13  44  13  45  13  46  13  47  13  48  13
M  ISO  3  49  13  50  13  51  13
M  END
>  <minimizedAffinity>  (1) 
-5.2343812

>  <minimizedRMSD>  (1) 
0.633085191

$$$$
