
     RDKit          3D

 52 55  0  0  1  0  0  0  0  0999 V2000
   43.7680   33.7400   41.4820 N   0  0  0  0  0  0  0  0  0  0  0  0
   42.5090   33.0600   41.3790 C   0  0  0  0  0  0  0  0  0  0  0  0
   41.8410   33.1830   40.0600 C   0  0  0  0  0  0  0  0  0  0  0  0
   42.6110   33.5200   38.9990 O   0  0  0  0  0  0  0  0  0  0  0  0
   43.9380   33.3340   39.1250 C   0  0  0  0  0  0  0  0  0  0  0  0
   44.5690   34.0550   40.3100 C   0  0  2  0  0  0  0  0  0  0  0  0
   45.4760   33.6450   44.8260 C   0  0  0  0  0  0  0  0  0  0  0  0
   44.9790   33.2610   43.5900 C   0  0  0  0  0  0  0  0  0  0  0  0
   44.2830   34.1310   42.7480 C   0  0  0  0  0  0  0  0  0  0  0  0
   44.1080   35.4150   43.2120 N   0  0  0  0  0  0  0  0  0  0  0  0
   44.6020   35.7780   44.4290 C   0  0  0  0  0  0  0  0  0  0  0  0
   45.2720   34.9000   45.2100 N   0  0  0  0  0  0  0  0  0  0  0  0
   45.9920   33.6660   40.4250 C   0  0  0  0  0  0  0  0  0  0  0  0
   46.8780   34.5240   40.2170 O   0  0  0  0  0  0  0  0  0  0  0  0
   48.8940   35.5270   40.5620 N   0  0  0  0  0  0  0  0  0  0  0  0
   49.3400   35.4730   41.9260 C   0  0  0  0  0  0  0  0  0  0  0  0
   48.4380   34.4280   42.5760 C   0  0  0  0  0  0  0  0  0  0  0  0
   48.4920   33.4000   41.4470 C   0  0  0  0  0  0  0  0  0  0  0  0
   48.2230   34.2570   40.2630 C   0  0  1  0  0  0  0  0  0  0  0  0
   48.6840   33.6560   38.9990 C   0  0  0  0  0  0  0  0  0  0  0  0
   48.2490   32.2480   38.7710 C   0  0  0  0  0  0  0  0  0  0  0  0
   48.8480   32.0280   37.3750 C   0  0  0  0  0  0  0  0  0  0  0  0
   48.7500   33.3870   36.6930 C   0  0  0  0  0  0  0  0  0  0  0  0
   48.1640   34.3220   37.7560 C   0  0  0  0  0  0  0  0  0  0  0  0
   42.6800   31.9917   41.5776 H   0  0  0  0  0  0  0  0  0  0  0  0
   41.8395   33.5360   42.1105 H   0  0  0  0  0  0  0  0  0  0  0  0
   41.3757   32.2121   39.8344 H   0  0  0  0  0  0  0  0  0  0  0  0
   41.1415   34.0238   40.1772 H   0  0  0  0  0  0  0  0  0  0  0  0
   44.1241   32.2560   39.2403 H   0  0  0  0  0  0  0  0  0  0  0  0
   44.3997   33.7567   38.2205 H   0  0  0  0  0  0  0  0  0  0  0  0
   44.5727   35.1482   40.1882 H   0  0  0  0  0  0  0  0  0  0  0  0
   46.0202   32.9351   45.4662 H   0  0  0  0  0  0  0  0  0  0  0  0
   45.1401   32.2248   43.2577 H   0  0  0  0  0  0  0  0  0  0  0  0
   44.4526   36.8083   44.7843 H   0  0  0  0  0  0  0  0  0  0  0  0
   46.1411   33.2917   41.4486 H   0  0  0  0  0  0  0  0  0  0  0  0
   46.1321   32.9422   39.6086 H   0  0  0  0  0  0  0  0  0  0  0  0
   48.2356   36.3094   40.4387 H   0  0  0  0  0  0  0  0  0  0  0  0
   50.3946   35.1649   41.9793 H   0  0  0  0  0  0  0  0  0  0  0  0
   49.2799   36.4504   42.4270 H   0  0  0  0  0  0  0  0  0  0  0  0
   48.8548   34.0404   43.5173 H   0  0  0  0  0  0  0  0  0  0  0  0
   47.4377   34.7666   42.8837 H   0  0  0  0  0  0  0  0  0  0  0  0
   49.4812   32.9231   41.3830 H   0  0  0  0  0  0  0  0  0  0  0  0
   47.7902   32.5614   41.5661 H   0  0  0  0  0  0  0  0  0  0  0  0
   49.7699   33.7625   39.1385 H   0  0  0  0  0  0  0  0  0  0  0  0
   48.6762   31.5597   39.5152 H   0  0  0  0  0  0  0  0  0  0  0  0
   47.1664   32.0708   38.8520 H   0  0  0  0  0  0  0  0  0  0  0  0
   49.8972   31.7062   37.4495 H   0  0  0  0  0  0  0  0  0  0  0  0
   48.3199   31.2424   36.8148 H   0  0  0  0  0  0  0  0  0  0  0  0
   49.7451   33.7345   36.3785 H   0  0  0  0  0  0  0  0  0  0  0  0
   48.1283   33.3507   35.7863 H   0  0  0  0  0  0  0  0  0  0  0  0
   48.5450   35.3487   37.6523 H   0  0  0  0  0  0  0  0  0  0  0  0
   47.0715   34.4440   37.7164 H   0  0  0  0  0  0  0  0  0  0  0  0
  1  9  1  0
  2  1  1  0
  3  2  1  0
  4  5  1  0
  4  3  1  0
  5  6  1  0
  6 13  1  0
  6  1  1  0
  7 12  2  0
  8  7  1  0
  9 10  1  0
  9  8  2  0
 10 11  2  0
 11 12  1  0
 14 13  1  0
 15 16  1  0
 16 17  1  0
 18 17  1  0
 19 14  1  6
 19 15  1  0
 19 18  1  0
 20 19  1  0
 21 20  1  0
 22 21  1  0
 23 22  1  0
 23 24  1  0
 24 20  1  0
  2 25  1  0
  2 26  1  0
  3 27  1  0
  3 28  1  0
  5 29  1  0
  5 30  1  0
  6 31  1  6
  7 32  1  0
  8 33  1  0
 11 34  1  0
 13 35  1  0
 13 36  1  0
 15 37  1  0
 16 38  1  0
 16 39  1  0
 17 40  1  0
 17 41  1  0
 18 42  1  0
 18 43  1  0
 20 44  1  0
 21 45  1  0
 21 46  1  0
 22 47  1  0
 22 48  1  0
 23 49  1  0
 23 50  1  0
 24 51  1  0
 24 52  1  0
M  ISO  8  25  13  26  13  27  13  28  13  29  13  30  13  31  13  32  14
M  ISO  8  33  14  34  14  35   8  36   8  37   5  38  13  39  13  40  13
M  ISO  8  41  13  42  13  43  13  44  13  45  13  46  13  47  13  48  13
M  ISO  4  49  13  50  13  51  13  52  13
M  END
>  <minimizedAffinity>  (1) 
-5.2523632

>  <minimizedRMSD>  (1) 
0.608891308

$$$$
