
     RDKit          3D

 44 47  0  0  1  0  0  0  0  0999 V2000
   43.6900   33.7990   41.3390 N   0  0  0  0  0  0  0  0  0  0  0  0
   42.3620   33.2560   41.2470 C   0  0  0  0  0  0  0  0  0  0  0  0
   41.7010   33.4230   39.9390 C   0  0  0  0  0  0  0  0  0  0  0  0
   42.4840   33.7100   38.8710 O   0  0  0  0  0  0  0  0  0  0  0  0
   43.7850   33.3780   38.9870 C   0  0  0  0  0  0  0  0  0  0  0  0
   44.5040   34.0320   40.1570 C   0  0  2  0  0  0  0  0  0  0  0  0
   45.4320   33.5000   44.6520 C   0  0  0  0  0  0  0  0  0  0  0  0
   44.8840   33.1850   43.4200 C   0  0  0  0  0  0  0  0  0  0  0  0
   44.2540   34.1260   42.6030 C   0  0  0  0  0  0  0  0  0  0  0  0
   44.1910   35.4160   43.0770 N   0  0  0  0  0  0  0  0  0  0  0  0
   44.7330   35.7160   44.2930 C   0  0  0  0  0  0  0  0  0  0  0  0
   45.3410   34.7690   45.0580 N   0  0  0  0  0  0  0  0  0  0  0  0
   45.8810   33.5030   40.2540 C   0  0  0  0  0  0  0  0  0  0  0  0
   46.8460   34.2410   39.9600 O   0  0  0  0  0  0  0  0  0  0  0  0
   48.8490   35.2800   40.1960 N   0  0  0  0  0  0  0  0  0  0  0  0
   49.0330   35.8800   41.4880 C   0  0  0  0  0  0  0  0  0  0  0  0
   47.9250   35.2740   42.3440 C   0  0  0  0  0  0  0  0  0  0  0  0
   48.0870   33.8280   41.8740 C   0  0  0  0  0  0  0  0  0  0  0  0
   48.1320   34.0100   40.3870 C   0  0  1  0  0  0  0  0  0  0  0  0
   48.8500   32.9450   39.6840 C   0  0  0  0  0  0  0  0  0  0  0  0
   48.8490   32.6460   38.3750 N   0  0  0  0  0  0  0  0  0  0  0  0
   49.6350   31.6170   38.1900 O   0  0  0  0  0  0  0  0  0  0  0  0
   50.1560   31.2300   39.3540 C   0  0  0  0  0  0  0  0  0  0  0  0
   49.6650   32.0590   40.2830 N   0  0  0  0  0  0  0  0  0  0  0  0
   42.4197   32.1790   41.4634 H   0  0  0  0  0  0  0  0  0  0  0  0
   41.7528   33.8192   41.9693 H   0  0  0  0  0  0  0  0  0  0  0  0
   41.1716   32.4849   39.7160 H   0  0  0  0  0  0  0  0  0  0  0  0
   41.0609   34.3092   40.0614 H   0  0  0  0  0  0  0  0  0  0  0  0
   43.8509   32.2869   39.1105 H   0  0  0  0  0  0  0  0  0  0  0  0
   44.2814   33.7400   38.0746 H   0  0  0  0  0  0  0  0  0  0  0  0
   44.6199   35.1187   40.0317 H   0  0  0  0  0  0  0  0  0  0  0  0
   45.9229   32.7352   45.2718 H   0  0  0  0  0  0  0  0  0  0  0  0
   44.9480   32.1447   43.0684 H   0  0  0  0  0  0  0  0  0  0  0  0
   44.6769   36.7499   44.6643 H   0  0  0  0  0  0  0  0  0  0  0  0
   46.0284   33.1836   41.2963 H   0  0  0  0  0  0  0  0  0  0  0  0
   45.9113   32.7188   39.4832 H   0  0  0  0  0  0  0  0  0  0  0  0
   49.7645   35.1030   39.7585 H   0  0  0  0  0  0  0  0  0  0  0  0
   50.0230   35.6295   41.8969 H   0  0  0  0  0  0  0  0  0  0  0  0
   48.9849   36.9784   41.4529 H   0  0  0  0  0  0  0  0  0  0  0  0
   48.1161   35.3892   43.4211 H   0  0  0  0  0  0  0  0  0  0  0  0
   46.9236   35.7157   42.2337 H   0  0  0  0  0  0  0  0  0  0  0  0
   49.0180   33.3822   42.2541 H   0  0  0  0  0  0  0  0  0  0  0  0
   47.2956   33.1481   42.2224 H   0  0  0  0  0  0  0  0  0  0  0  0
   50.8521   30.3943   39.5187 H   0  0  0  0  0  0  0  0  0  0  0  0
  1  9  1  0
  2  1  1  0
  3  2  1  0
  4  5  1  0
  4  3  1  0
  5  6  1  0
  6 13  1  0
  6  1  1  0
  7 12  2  0
  8  7  1  0
  9 10  1  0
  9  8  2  0
 10 11  2  0
 11 12  1  0
 14 13  1  0
 15 19  1  0
 15 16  1  0
 16 17  1  0
 18 17  1  0
 19 14  1  6
 19 18  1  0
 20 24  1  0
 20 19  1  0
 21 20  2  0
 22 21  1  0
 22 23  1  0
 23 24  2  0
  2 25  1  0
  2 26  1  0
  3 27  1  0
  3 28  1  0
  5 29  1  0
  5 30  1  0
  6 31  1  6
  7 32  1  0
  8 33  1  0
 11 34  1  0
 13 35  1  0
 13 36  1  0
 15 37  1  0
 16 38  1  0
 16 39  1  0
 17 40  1  0
 17 41  1  0
 18 42  1  0
 18 43  1  0
 23 44  1  0
M  ISO  8  25  13  26  13  27  13  28  13  29  13  30  13  31  13  32  14
M  ISO  8  33  14  34  14  35   8  36   8  37   5  38  13  39  13  40  13
M  ISO  4  41  13  42  13  43  13  44  14
M  END
>  <minimizedAffinity>  (1) 
-5.11097765

>  <minimizedRMSD>  (1) 
0.667111278

$$$$
