
     RDKit          3D

 42 44  0  0  1  0  0  0  0  0999 V2000
   43.6840   33.8130   41.3380 N   0  0  0  0  0  0  0  0  0  0  0  0
   42.3390   33.3020   41.2480 C   0  0  0  0  0  0  0  0  0  0  0  0
   41.6770   33.4900   39.9430 C   0  0  0  0  0  0  0  0  0  0  0  0
   42.4610   33.7760   38.8750 O   0  0  0  0  0  0  0  0  0  0  0  0
   43.7550   33.3990   38.9840 C   0  0  0  0  0  0  0  0  0  0  0  0
   44.4920   34.0210   40.1660 C   0  0  2  0  0  0  0  0  0  0  0  0
   45.4180   33.5280   44.6460 C   0  0  0  0  0  0  0  0  0  0  0  0
   44.8730   33.1960   43.4140 C   0  0  0  0  0  0  0  0  0  0  0  0
   44.2490   34.1280   42.6030 C   0  0  0  0  0  0  0  0  0  0  0  0
   44.1960   35.4140   43.0880 N   0  0  0  0  0  0  0  0  0  0  0  0
   44.7290   35.7270   44.2900 C   0  0  0  0  0  0  0  0  0  0  0  0
   45.3280   34.7900   45.0480 N   0  0  0  0  0  0  0  0  0  0  0  0
   45.8560   33.4830   40.2480 C   0  0  0  0  0  0  0  0  0  0  0  0
   46.8400   34.1660   39.8880 O   0  0  0  0  0  0  0  0  0  0  0  0
   48.8220   35.2400   40.1300 N   0  0  0  0  0  0  0  0  0  0  0  0
   49.0100   35.8370   41.4350 C   0  0  0  0  0  0  0  0  0  0  0  0
   47.9230   35.1770   42.2910 C   0  0  0  0  0  0  0  0  0  0  0  0
   48.1020   33.7480   41.7880 C   0  0  0  0  0  0  0  0  0  0  0  0
   48.1210   33.9850   40.3130 C   0  0  1  0  0  0  0  0  0  0  0  0
   48.8710   32.9430   39.5670 C   0  0  0  0  0  0  0  0  0  0  0  0
   48.5120   32.4740   38.4440 O   0  0  0  0  0  0  0  0  0  0  0  0
   50.0530   32.3380   39.9800 O   0  0  0  0  0  0  0  0  0  0  0  0
   42.3709   32.2231   41.4601 H   0  0  0  0  0  0  0  0  0  0  0  0
   41.7466   33.8778   41.9743 H   0  0  0  0  0  0  0  0  0  0  0  0
   41.1342   32.5613   39.7130 H   0  0  0  0  0  0  0  0  0  0  0  0
   41.0498   34.3839   40.0752 H   0  0  0  0  0  0  0  0  0  0  0  0
   43.7871   32.3051   39.0949 H   0  0  0  0  0  0  0  0  0  0  0  0
   44.2637   33.7513   38.0745 H   0  0  0  0  0  0  0  0  0  0  0  0
   44.6290   35.1066   40.0530 H   0  0  0  0  0  0  0  0  0  0  0  0
   45.9100   32.7682   45.2710 H   0  0  0  0  0  0  0  0  0  0  0  0
   44.9393   32.1536   43.0691 H   0  0  0  0  0  0  0  0  0  0  0  0
   44.6723   36.7634   44.6543 H   0  0  0  0  0  0  0  0  0  0  0  0
   46.0261   33.2209   41.3027 H   0  0  0  0  0  0  0  0  0  0  0  0
   45.8409   32.6705   39.5066 H   0  0  0  0  0  0  0  0  0  0  0  0
   49.7365   35.0692   39.6880 H   0  0  0  0  0  0  0  0  0  0  0  0
   50.0118   35.6119   41.8296 H   0  0  0  0  0  0  0  0  0  0  0  0
   48.9349   36.9343   41.4188 H   0  0  0  0  0  0  0  0  0  0  0  0
   48.1266   35.2690   43.3681 H   0  0  0  0  0  0  0  0  0  0  0  0
   46.9115   35.5996   42.2000 H   0  0  0  0  0  0  0  0  0  0  0  0
   49.0457   33.3072   42.1416 H   0  0  0  0  0  0  0  0  0  0  0  0
   47.3336   33.0394   42.1308 H   0  0  0  0  0  0  0  0  0  0  0  0
   50.4817   31.6499   39.4118 H   0  0  0  0  0  0  0  0  0  0  0  0
  1  9  1  0
  2  1  1  0
  3  2  1  0
  4  5  1  0
  4  3  1  0
  5  6  1  0
  6 13  1  0
  6  1  1  0
  7 12  2  0
  8  7  1  0
  9 10  1  0
  9  8  2  0
 10 11  2  0
 11 12  1  0
 14 13  1  0
 19 14  1  6
 15 19  1  0
 15 16  1  0
 16 17  1  0
 18 17  1  0
 19 20  1  0
 19 18  1  0
 20 22  1  0
 21 20  2  0
  2 23  1  0
  2 24  1  0
  3 25  1  0
  3 26  1  0
  5 27  1  0
  5 28  1  0
  6 29  1  6
  7 30  1  0
  8 31  1  0
 11 32  1  0
 13 33  1  0
 13 34  1  0
 15 35  1  0
 16 36  1  0
 16 37  1  0
 17 38  1  0
 17 39  1  0
 18 40  1  0
 18 41  1  0
 22 42  1  0
M  ISO  8  23  13  24  13  25  13  26  13  27  13  28  13  29  13  30  14
M  ISO  8  31  14  32  14  33   8  34   8  35   5  36  13  37  13  38  13
M  ISO  4  39  13  40  13  41  13  42   3
M  END
>  <minimizedAffinity>  (1) 
-5.02044868

>  <minimizedRMSD>  (1) 
0.500411034

$$$$
