
     RDKit          3D

 38 40  0  0  0  0  0  0  0  0999 V2000
   44.1090   35.3300   43.1570 C   0  0  0  0  0  0  0  0  0  0  0  0
   45.0010   34.3340   42.6760 C   0  0  0  0  0  0  0  0  0  0  0  0
   45.8780   33.7790   43.5900 C   0  0  0  0  0  0  0  0  0  0  0  0
   45.8620   34.1890   44.8860 N   0  0  0  0  0  0  0  0  0  0  0  0
   44.9870   35.1410   45.2930 C   0  0  0  0  0  0  0  0  0  0  0  0
   44.1200   35.7050   44.4400 N   0  0  0  0  0  0  0  0  0  0  0  0
   46.8600   32.7640   43.3060 C   0  0  0  0  0  0  0  0  0  0  0  0
   46.4540   31.4270   43.4330 C   0  0  0  0  0  0  0  0  0  0  0  0
   47.2750   30.3350   43.2610 C   0  0  0  0  0  0  0  0  0  0  0  0
   48.6130   30.5370   42.9350 C   0  0  0  0  0  0  0  0  0  0  0  0
   49.0540   31.8260   42.8010 C   0  0  0  0  0  0  0  0  0  0  0  0
   50.3630   32.1070   42.4640 C   0  0  0  0  0  0  0  0  0  0  0  0
   50.8230   33.4080   42.3100 C   0  0  0  0  0  0  0  0  0  0  0  0
   49.9330   34.4530   42.5010 C   0  0  0  0  0  0  0  0  0  0  0  0
   48.6090   34.2190   42.8410 C   0  0  0  0  0  0  0  0  0  0  0  0
   48.2190   32.8870   42.9780 C   0  0  0  0  0  0  0  0  0  0  0  0
   44.9440   33.9620   41.2520 C   0  0  0  0  0  0  0  0  0  0  0  0
   46.2470   34.2150   40.5640 C   0  0  0  0  0  0  0  0  0  0  0  0
   43.8890   34.8540   40.5770 C   0  0  0  0  0  0  0  0  0  0  0  0
   44.4310   32.5570   41.1200 C   0  0  0  0  0  0  0  0  0  0  0  0
   43.3977   35.8002   42.4621 H   0  0  0  0  0  0  0  0  0  0  0  0
   44.9884   35.4578   46.3464 H   0  0  0  0  0  0  0  0  0  0  0  0
   45.4012   31.2369   43.6891 H   0  0  0  0  0  0  0  0  0  0  0  0
   46.8784   29.3159   43.3797 H   0  0  0  0  0  0  0  0  0  0  0  0
   49.2954   29.6866   42.7894 H   0  0  0  0  0  0  0  0  0  0  0  0
   51.0643   31.2732   42.3126 H   0  0  0  0  0  0  0  0  0  0  0  0
   51.8715   33.6050   42.0421 H   0  0  0  0  0  0  0  0  0  0  0  0
   50.2837   35.4886   42.3805 H   0  0  0  0  0  0  0  0  0  0  0  0
   47.8996   35.0454   42.9954 H   0  0  0  0  0  0  0  0  0  0  0  0
   47.0351   34.3680   41.3160 H   0  0  0  0  0  0  0  0  0  0  0  0
   46.5035   33.3499   39.9349 H   0  0  0  0  0  0  0  0  0  0  0  0
   46.1611   35.1132   39.9349 H   0  0  0  0  0  0  0  0  0  0  0  0
   43.2898   35.3607   41.3479 H   0  0  0  0  0  0  0  0  0  0  0  0
   44.3911   35.6056   39.9501 H   0  0  0  0  0  0  0  0  0  0  0  0
   43.2314   34.2339   39.9501 H   0  0  0  0  0  0  0  0  0  0  0  0
   44.2745   32.1283   42.1208 H   0  0  0  0  0  0  0  0  0  0  0  0
   43.4777   32.5648   40.5712 H   0  0  0  0  0  0  0  0  0  0  0  0
   45.1650   31.9487   40.5712 H   0  0  0  0  0  0  0  0  0  0  0  0
  1  6  2  0
  2  1  1  0
  2  3  2  0
  3  4  1  0
  4  5  2  0
  6  5  1  0
  7  8  2  0
  7  3  1  0
  9  8  1  0
 10  9  2  0
 11 10  1  0
 11 16  2  0
 12 11  1  0
 13 12  2  0
 13 14  1  0
 14 15  2  0
 15 16  1  0
 16  7  1  0
 17  2  1  0
 18 17  1  0
 19 17  1  0
 20 17  1  0
  1 21  1  0
  5 22  1  0
  8 23  1  0
  9 24  1  0
 10 25  1  0
 12 26  1  0
 13 27  1  0
 14 28  1  0
 15 29  1  0
 18 30  1  0
 18 31  1  0
 18 32  1  0
 19 33  1  0
 19 34  1  0
 19 35  1  0
 20 36  1  0
 20 37  1  0
 20 38  1  0
M  ISO  8  21  14  22  14  23  14  24  14  25  14  26  14  27  14  28  14
M  ISO  8  29  14  30   8  31   8  32   8  33   8  34   8  35   8  36   8
M  ISO  2  37   8  38   8
M  END
>  <minimizedAffinity>  (1) 
-4.98584557

>  <minimizedRMSD>  (1) 
2.58212042

$$$$
