
     RDKit          3D

 32 33  0  0  0  0  0  0  0  0999 V2000
   45.3250   34.4320   44.8510 C   0  0  0  0  0  0  0  0  0  0  0  0
   46.2160   34.2460   43.7700 C   0  0  0  0  0  0  0  0  0  0  0  0
   47.2120   33.3000   43.9450 C   0  0  0  0  0  0  0  0  0  0  0  0
   47.2820   32.6180   45.1110 N   0  0  0  0  0  0  0  0  0  0  0  0
   46.4050   32.8270   46.1260 C   0  0  0  0  0  0  0  0  0  0  0  0
   45.4430   33.7280   45.9800 N   0  0  0  0  0  0  0  0  0  0  0  0
   48.2560   32.9260   43.0170 C   0  0  0  0  0  0  0  0  0  0  0  0
   47.9020   31.8870   42.1360 C   0  0  0  0  0  0  0  0  0  0  0  0
   48.7150   31.3560   41.1320 C   0  0  0  0  0  0  0  0  0  0  0  0
   49.9710   31.8880   40.9850 C   0  0  0  0  0  0  0  0  0  0  0  0
   50.3750   32.9080   41.8180 C   0  0  0  0  0  0  0  0  0  0  0  0
   49.5310   33.3730   42.7690 C   0  0  0  0  0  0  0  0  0  0  0  0
   46.0520   35.0630   42.5430 C   0  0  0  0  0  0  0  0  0  0  0  0
   47.3710   35.5840   42.0630 C   0  0  0  0  0  0  0  0  0  0  0  0
   45.1770   36.2700   42.9370 C   0  0  0  0  0  0  0  0  0  0  0  0
   45.2770   34.3030   41.5230 C   0  0  0  0  0  0  0  0  0  0  0  0
   44.5167   35.1726   44.7607 H   0  0  0  0  0  0  0  0  0  0  0  0
   46.4916   32.2542   47.0611 H   0  0  0  0  0  0  0  0  0  0  0  0
   46.8965   31.4551   42.2480 H   0  0  0  0  0  0  0  0  0  0  0  0
   48.3612   30.5413   40.4831 H   0  0  0  0  0  0  0  0  0  0  0  0
   50.6493   31.5035   40.2090 H   0  0  0  0  0  0  0  0  0  0  0  0
   51.3796   33.3431   41.7109 H   0  0  0  0  0  0  0  0  0  0  0  0
   49.9029   34.1892   43.4058 H   0  0  0  0  0  0  0  0  0  0  0  0
   48.0033   35.8337   42.9278 H   0  0  0  0  0  0  0  0  0  0  0  0
   47.8694   34.8152   41.4543 H   0  0  0  0  0  0  0  0  0  0  0  0
   47.2095   36.4859   41.4543 H   0  0  0  0  0  0  0  0  0  0  0  0
   45.1245   36.3425   44.0334 H   0  0  0  0  0  0  0  0  0  0  0  0
   45.6183   37.1914   42.5294 H   0  0  0  0  0  0  0  0  0  0  0  0
   44.1640   36.1371   42.5294 H   0  0  0  0  0  0  0  0  0  0  0  0
   44.5792   33.6187   42.0277 H   0  0  0  0  0  0  0  0  0  0  0  0
   44.7109   35.0058   40.8940 H   0  0  0  0  0  0  0  0  0  0  0  0
   45.9686   33.7233   40.8940 H   0  0  0  0  0  0  0  0  0  0  0  0
  1  6  2  0
  2  3  2  0
  2  1  1  0
  3  4  1  0
  4  5  2  0
  6  5  1  0
  7  3  1  0
  8  7  2  0
  9  8  1  0
 10  9  2  0
 10 11  1  0
 11 12  2  0
 12  7  1  0
 13 15  1  0
 13  2  1  0
 14 13  1  0
 16 13  1  0
  1 17  1  0
  5 18  1  0
  8 19  1  0
  9 20  1  0
 10 21  1  0
 11 22  1  0
 12 23  1  0
 14 24  1  0
 14 25  1  0
 14 26  1  0
 15 27  1  0
 15 28  1  0
 15 29  1  0
 16 30  1  0
 16 31  1  0
 16 32  1  0
M  ISO  8  17  14  18  14  19  14  20  14  21  14  22  14  23  14  24   8
M  ISO  8  25   8  26   8  27   8  28   8  29   8  30   8  31   8  32   8
M  END
>  <minimizedAffinity>  (1) 
-4.34395885

>  <minimizedRMSD>  (1) 
0.75262028

$$$$
