
     RDKit          3D

 28 29  0  0  0  0  0  0  0  0999 V2000
   45.2820   34.4640   45.0300 C   0  0  0  0  0  0  0  0  0  0  0  0
   46.0980   34.2040   43.9160 C   0  0  0  0  0  0  0  0  0  0  0  0
   47.0340   33.1990   44.0490 C   0  0  0  0  0  0  0  0  0  0  0  0
   47.1560   32.5030   45.2050 N   0  0  0  0  0  0  0  0  0  0  0  0
   46.3330   32.7990   46.2620 C   0  0  0  0  0  0  0  0  0  0  0  0
   45.4120   33.7640   46.1700 N   0  0  0  0  0  0  0  0  0  0  0  0
   47.9480   32.7590   43.0090 C   0  0  0  0  0  0  0  0  0  0  0  0
   47.4680   31.7340   42.0520 C   0  0  0  0  0  0  0  0  0  0  0  0
   48.9520   31.5860   40.9850 S   0  0  0  0  0  0  0  0  0  0  0  0
   49.9270   32.8830   41.9760 C   0  0  0  0  0  0  0  0  0  0  0  0
   49.1550   33.2710   42.9100 N   0  0  0  0  0  0  0  0  0  0  0  0
   45.9250   35.0110   42.6910 C   0  0  0  0  0  0  0  0  0  0  0  0
   47.2460   35.4680   42.1560 C   0  0  0  0  0  0  0  0  0  0  0  0
   45.1070   36.2540   43.0850 C   0  0  0  0  0  0  0  0  0  0  0  0
   45.0760   34.2730   41.6950 C   0  0  0  0  0  0  0  0  0  0  0  0
   44.5215   35.2564   44.9678 H   0  0  0  0  0  0  0  0  0  0  0  0
   46.4324   32.2334   47.2002 H   0  0  0  0  0  0  0  0  0  0  0  0
   46.5009   31.2127   41.9975 H   0  0  0  0  0  0  0  0  0  0  0  0
   50.9529   33.2287   41.7810 H   0  0  0  0  0  0  0  0  0  0  0  0
   47.9200   35.7012   42.9935 H   0  0  0  0  0  0  0  0  0  0  0  0
   47.6881   34.6706   41.5406 H   0  0  0  0  0  0  0  0  0  0  0  0
   47.1008   36.3681   41.5406 H   0  0  0  0  0  0  0  0  0  0  0  0
   45.0581   36.3283   44.1814 H   0  0  0  0  0  0  0  0  0  0  0  0
   45.5894   37.1547   42.6776 H   0  0  0  0  0  0  0  0  0  0  0  0
   44.0889   36.1672   42.6776 H   0  0  0  0  0  0  0  0  0  0  0  0
   44.3499   33.6419   42.2284 H   0  0  0  0  0  0  0  0  0  0  0  0
   44.5390   34.9963   41.0637 H   0  0  0  0  0  0  0  0  0  0  0  0
   45.7175   33.6406   41.0637 H   0  0  0  0  0  0  0  0  0  0  0  0
  1  6  2  0
  2  3  2  0
  2  1  1  0
  3  4  1  0
  4  5  2  0
  6  5  1  0
  7  3  1  0
  8  7  2  0
  9 10  1  0
  9  8  1  0
 10 11  2  0
 11  7  1  0
 12 14  1  0
 12  2  1  0
 13 12  1  0
 15 12  1  0
  1 16  1  0
  5 17  1  0
  8 18  1  0
 10 19  1  0
 13 20  1  0
 13 21  1  0
 13 22  1  0
 14 23  1  0
 14 24  1  0
 14 25  1  0
 15 26  1  0
 15 27  1  0
 15 28  1  0
M  ISO  8  16  14  17  14  18  14  19  14  20   8  21   8  22   8  23   8
M  ISO  5  24   8  25   8  26   8  27   8  28   8
M  END
>  <minimizedAffinity>  (1) 
-4.03609705

>  <minimizedRMSD>  (1) 
0.435250401

$$$$
