
     RDKit          3D

 29 30  0  0  0  0  0  0  0  0999 V2000
   45.2680   34.5160   45.0180 C   0  0  0  0  0  0  0  0  0  0  0  0
   46.1150   34.1590   43.9500 C   0  0  0  0  0  0  0  0  0  0  0  0
   47.0110   33.1280   44.1740 C   0  0  0  0  0  0  0  0  0  0  0  0
   47.0590   32.5010   45.3690 N   0  0  0  0  0  0  0  0  0  0  0  0
   46.2170   32.8780   46.3830 C   0  0  0  0  0  0  0  0  0  0  0  0
   45.3460   33.8660   46.1980 N   0  0  0  0  0  0  0  0  0  0  0  0
   47.9080   32.6690   43.1750 N   0  0  0  0  0  0  0  0  0  0  0  0
   47.4150   31.5960   42.5340 N   0  0  0  0  0  0  0  0  0  0  0  0
   48.2790   31.1690   41.5970 C   0  0  0  0  0  0  0  0  0  0  0  0
   49.3760   32.0040   41.6380 C   0  0  0  0  0  0  0  0  0  0  0  0
   49.1250   32.9210   42.6200 C   0  0  0  0  0  0  0  0  0  0  0  0
   45.9920   34.9060   42.6840 C   0  0  0  0  0  0  0  0  0  0  0  0
   47.3510   35.4160   42.2410 C   0  0  0  0  0  0  0  0  0  0  0  0
   45.0950   36.1240   42.9490 C   0  0  0  0  0  0  0  0  0  0  0  0
   45.3110   34.0650   41.6560 C   0  0  0  0  0  0  0  0  0  0  0  0
   44.5388   35.3294   44.8891 H   0  0  0  0  0  0  0  0  0  0  0  0
   46.2619   32.3615   47.3532 H   0  0  0  0  0  0  0  0  0  0  0  0
   48.1373   30.3119   40.9222 H   0  0  0  0  0  0  0  0  0  0  0  0
   50.2743   31.9439   41.0060 H   0  0  0  0  0  0  0  0  0  0  0  0
   49.8016   33.7362   42.9159 H   0  0  0  0  0  0  0  0  0  0  0  0
   47.9628   35.6456   43.1259 H   0  0  0  0  0  0  0  0  0  0  0  0
   47.8532   34.6452   41.6380 H   0  0  0  0  0  0  0  0  0  0  0  0
   47.2221   36.3269   41.6380 H   0  0  0  0  0  0  0  0  0  0  0  0
   44.9870   36.2707   44.0338 H   0  0  0  0  0  0  0  0  0  0  0  0
   45.5510   37.0195   42.5015 H   0  0  0  0  0  0  0  0  0  0  0  0
   44.1046   35.9543   42.5015 H   0  0  0  0  0  0  0  0  0  0  0  0
   44.6942   33.3033   42.1554 H   0  0  0  0  0  0  0  0  0  0  0  0
   44.6705   34.7012   41.0275 H   0  0  0  0  0  0  0  0  0  0  0  0
   46.0665   33.5707   41.0275 H   0  0  0  0  0  0  0  0  0  0  0  0
  1  6  2  0
  2  3  2  0
  2  1  1  0
  3  4  1  0
  4  5  2  0
  6  5  1  0
  7  3  1  0
  8  7  1  0
  9 10  1  0
  9  8  2  0
 10 11  2  0
 11  7  1  0
 12 14  1  0
 12  2  1  0
 13 12  1  0
 15 12  1  0
  1 16  1  0
  5 17  1  0
  9 18  1  0
 10 19  1  0
 11 20  1  0
 13 21  1  0
 13 22  1  0
 13 23  1  0
 14 24  1  0
 14 25  1  0
 14 26  1  0
 15 27  1  0
 15 28  1  0
 15 29  1  0
M  ISO  8  16  14  17  14  18  14  19  14  20  14  21   8  22   8  23   8
M  ISO  6  24   8  25   8  26   8  27   8  28   8  29   8
M  END
>  <minimizedAffinity>  (1) 
-3.97664833

>  <minimizedRMSD>  (1) 
0.22839871

$$$$
