
     RDKit          3D

 36 37  0  0  0  0  0  0  0  0999 V2000
   45.3470   34.5100   44.9710 C   0  0  0  0  0  0  0  0  0  0  0  0
   46.1510   34.1470   43.8800 C   0  0  0  0  0  0  0  0  0  0  0  0
   47.0100   33.0850   44.0690 C   0  0  0  0  0  0  0  0  0  0  0  0
   47.0680   32.4310   45.2550 N   0  0  0  0  0  0  0  0  0  0  0  0
   46.2620   32.8230   46.2940 C   0  0  0  0  0  0  0  0  0  0  0  0
   45.4240   33.8430   46.1390 N   0  0  0  0  0  0  0  0  0  0  0  0
   47.8900   32.5280   43.1120 N   0  0  0  0  0  0  0  0  0  0  0  0
   49.2180   32.8140   42.5950 C   0  0  0  0  0  0  0  0  0  0  0  0
   49.0190   33.4460   41.2130 C   0  0  0  0  0  0  0  0  0  0  0  0
   47.9890   32.7870   40.4690 N   0  0  0  0  0  0  0  0  0  0  0  0
   47.8830   31.4380   40.9550 C   0  0  0  0  0  0  0  0  0  0  0  0
   47.3990   31.3420   42.3840 C   0  0  0  0  0  0  0  0  0  0  0  0
   46.0420   34.9030   42.6190 C   0  0  0  0  0  0  0  0  0  0  0  0
   47.3580   35.4850   42.2120 C   0  0  0  0  0  0  0  0  0  0  0  0
   45.0710   36.0690   42.8880 C   0  0  0  0  0  0  0  0  0  0  0  0
   45.3880   34.0670   41.5590 C   0  0  0  0  0  0  0  0  0  0  0  0
   44.6444   35.3505   44.8714 H   0  0  0  0  0  0  0  0  0  0  0  0
   46.3094   32.2924   47.2564 H   0  0  0  0  0  0  0  0  0  0  0  0
   49.7427   33.5144   43.2614 H   0  0  0  0  0  0  0  0  0  0  0  0
   49.8258   31.8994   42.5309 H   0  0  0  0  0  0  0  0  0  0  0  0
   48.7441   34.5033   41.3415 H   0  0  0  0  0  0  0  0  0  0  0  0
   49.9609   33.3468   40.6535 H   0  0  0  0  0  0  0  0  0  0  0  0
   48.2311   32.7798   39.4679 H   0  0  0  0  0  0  0  0  0  0  0  0
   47.1770   30.8919   40.3120 H   0  0  0  0  0  0  0  0  0  0  0  0
   48.8947   31.0071   40.9291 H   0  0  0  0  0  0  0  0  0  0  0  0
   46.2994   31.3197   42.4051 H   0  0  0  0  0  0  0  0  0  0  0  0
   47.7758   30.4217   42.8542 H   0  0  0  0  0  0  0  0  0  0  0  0
   47.9388   35.7419   43.1101 H   0  0  0  0  0  0  0  0  0  0  0  0
   47.9149   34.7492   41.6132 H   0  0  0  0  0  0  0  0  0  0  0  0
   47.1883   36.3920   41.6132 H   0  0  0  0  0  0  0  0  0  0  0  0
   44.9558   36.2073   43.9732 H   0  0  0  0  0  0  0  0  0  0  0  0
   45.4722   36.9907   42.4414 H   0  0  0  0  0  0  0  0  0  0  0  0
   44.0919   35.8412   42.4414 H   0  0  0  0  0  0  0  0  0  0  0  0
   44.7766   33.2855   42.0337 H   0  0  0  0  0  0  0  0  0  0  0  0
   44.7465   34.7047   40.9330 H   0  0  0  0  0  0  0  0  0  0  0  0
   46.1613   33.5979   40.9330 H   0  0  0  0  0  0  0  0  0  0  0  0
  1  6  2  0
  2  3  2  0
  2  1  1  0
  3  4  1  0
  4  5  2  0
  6  5  1  0
  7  3  1  0
  8  7  1  0
  9  8  1  0
 10 11  1  0
 10  9  1  0
 11 12  1  0
 12  7  1  0
 13 15  1  0
 13  2  1  0
 14 13  1  0
 16 13  1  0
  1 17  1  0
  5 18  1  0
  8 19  1  0
  8 20  1  0
  9 21  1  0
  9 22  1  0
 10 23  1  0
 11 24  1  0
 11 25  1  0
 12 26  1  0
 12 27  1  0
 14 28  1  0
 14 29  1  0
 14 30  1  0
 15 31  1  0
 15 32  1  0
 15 33  1  0
 16 34  1  0
 16 35  1  0
 16 36  1  0
M  ISO  8  17  14  18  14  19  13  20  13  21  13  22  13  23   5  24  13
M  ISO  8  25  13  26  13  27  13  28   8  29   8  30   8  31   8  32   8
M  ISO  4  33   8  34   8  35   8  36   8
M  END
>  <minimizedAffinity>  (1) 
-4.07853317

>  <minimizedRMSD>  (1) 
0.619446337

$$$$
