
     RDKit          3D

 27 28  0  0  0  0  0  0  0  0999 V2000
   45.2490   34.5290   45.0420 C   0  0  0  0  0  0  0  0  0  0  0  0
   46.1100   34.1620   43.9810 C   0  0  0  0  0  0  0  0  0  0  0  0
   47.0020   33.1330   44.2240 C   0  0  0  0  0  0  0  0  0  0  0  0
   47.0370   32.5190   45.4250 N   0  0  0  0  0  0  0  0  0  0  0  0
   46.1870   32.9020   46.4320 C   0  0  0  0  0  0  0  0  0  0  0  0
   45.3070   33.9010   46.2240 N   0  0  0  0  0  0  0  0  0  0  0  0
   47.9180   32.6720   43.2090 C   0  0  0  0  0  0  0  0  0  0  0  0
   47.4770   31.6000   42.5350 N   0  0  0  0  0  0  0  0  0  0  0  0
   48.3310   31.2250   41.6440 O   0  0  0  0  0  0  0  0  0  0  0  0
   49.3610   32.0260   41.6910 C   0  0  0  0  0  0  0  0  0  0  0  0
   49.1200   32.9310   42.6590 N   0  0  0  0  0  0  0  0  0  0  0  0
   46.0010   34.8930   42.7060 C   0  0  0  0  0  0  0  0  0  0  0  0
   47.3530   35.3930   42.2570 C   0  0  0  0  0  0  0  0  0  0  0  0
   45.1130   36.1210   42.9550 C   0  0  0  0  0  0  0  0  0  0  0  0
   45.3000   34.0610   41.6850 C   0  0  0  0  0  0  0  0  0  0  0  0
   44.5219   35.3412   44.8944 H   0  0  0  0  0  0  0  0  0  0  0  0
   46.2240   32.3944   47.4072 H   0  0  0  0  0  0  0  0  0  0  0  0
   50.2588   31.9718   41.0577 H   0  0  0  0  0  0  0  0  0  0  0  0
   47.9706   35.6214   43.1381 H   0  0  0  0  0  0  0  0  0  0  0  0
   47.8482   34.6186   41.6529 H   0  0  0  0  0  0  0  0  0  0  0  0
   47.2252   36.3033   41.6529 H   0  0  0  0  0  0  0  0  0  0  0  0
   44.9995   36.2779   44.0378 H   0  0  0  0  0  0  0  0  0  0  0  0
   45.5795   37.0086   42.5028 H   0  0  0  0  0  0  0  0  0  0  0  0
   44.1239   35.9560   42.5028 H   0  0  0  0  0  0  0  0  0  0  0  0
   44.6704   33.3138   42.1903 H   0  0  0  0  0  0  0  0  0  0  0  0
   44.6695   34.7066   41.0560 H   0  0  0  0  0  0  0  0  0  0  0  0
   46.0432   33.5492   41.0560 H   0  0  0  0  0  0  0  0  0  0  0  0
  1  6  2  0
  2  3  2  0
  2  1  1  0
  3  4  1  0
  4  5  2  0
  6  5  1  0
  7  3  1  0
  8  7  2  0
  9 10  1  0
  9  8  1  0
 10 11  2  0
 11  7  1  0
 12 14  1  0
 12  2  1  0
 13 12  1  0
 15 12  1  0
  1 16  1  0
  5 17  1  0
 10 18  1  0
 13 19  1  0
 13 20  1  0
 13 21  1  0
 14 22  1  0
 14 23  1  0
 14 24  1  0
 15 25  1  0
 15 26  1  0
 15 27  1  0
M  ISO  8  16  14  17  14  18  14  19   8  20   8  21   8  22   8  23   8
M  ISO  4  24   8  25   8  26   8  27   8
M  END
>  <minimizedAffinity>  (1) 
-3.96213198

>  <minimizedRMSD>  (1) 
0.123654515

$$$$
