
     RDKit          3D

 28 28  0  0  0  0  0  0  0  0999 V2000
   45.9760   34.9700   42.8130 C   0  0  0  0  0  0  0  0  0  0  0  0
   45.2060   34.5230   45.1300 C   0  0  0  0  0  0  0  0  0  0  0  0
   46.0970   34.2040   44.0640 C   0  0  0  0  0  0  0  0  0  0  0  0
   47.0210   33.1960   44.2650 C   0  0  0  0  0  0  0  0  0  0  0  0
   47.0140   32.5710   45.4890 N   0  0  0  0  0  0  0  0  0  0  0  0
   46.1610   32.8950   46.4770 C   0  0  0  0  0  0  0  0  0  0  0  0
   45.2670   33.8600   46.2990 N   0  0  0  0  0  0  0  0  0  0  0  0
   47.9920   32.7170   43.3040 C   0  0  0  0  0  0  0  0  0  0  0  0
   47.9040   31.1850   43.1970 C   0  0  0  0  0  0  0  0  0  0  0  0
   45.1680   36.2130   43.0190 C   0  0  0  0  0  0  0  0  0  0  0  0
   45.2010   34.0910   41.8020 C   0  0  0  0  0  0  0  0  0  0  0  0
   47.3110   35.1780   42.1840 C   0  0  0  0  0  0  0  0  0  0  0  0
   44.4602   35.3202   44.9952 H   0  0  0  0  0  0  0  0  0  0  0  0
   46.2043   32.3583   47.4362 H   0  0  0  0  0  0  0  0  0  0  0  0
   47.7848   33.1646   42.3208 H   0  0  0  0  0  0  0  0  0  0  0  0
   49.0020   33.0015   43.6342 H   0  0  0  0  0  0  0  0  0  0  0  0
   47.8789   30.7478   44.2061 H   0  0  0  0  0  0  0  0  0  0  0  0
   46.9884   30.9073   42.6542 H   0  0  0  0  0  0  0  0  0  0  0  0
   48.7818   30.8043   42.6542 H   0  0  0  0  0  0  0  0  0  0  0  0
   45.0479   36.3978   44.0967 H   0  0  0  0  0  0  0  0  0  0  0  0
   45.6842   37.0668   42.5559 H   0  0  0  0  0  0  0  0  0  0  0  0
   44.1781   36.0878   42.5559 H   0  0  0  0  0  0  0  0  0  0  0  0
   44.5694   33.3746   42.3477 H   0  0  0  0  0  0  0  0  0  0  0  0
   44.5677   34.7308   41.1699 H   0  0  0  0  0  0  0  0  0  0  0  0
   45.9151   33.5429   41.1699 H   0  0  0  0  0  0  0  0  0  0  0  0
   48.0719   35.2966   42.9694 H   0  0  0  0  0  0  0  0  0  0  0  0
   47.5615   34.3080   41.5591 H   0  0  0  0  0  0  0  0  0  0  0  0
   47.2849   36.0829   41.5591 H   0  0  0  0  0  0  0  0  0  0  0  0
  1 10  1  0
  1  3  1  0
  2  7  2  0
  3  4  2  0
  3  2  1  0
  4  5  1  0
  5  6  2  0
  7  6  1  0
  8  4  1  0
  9  8  1  0
 11  1  1  0
 12  1  1  0
  2 13  1  0
  6 14  1  0
  8 15  1  0
  8 16  1  0
  9 17  1  0
  9 18  1  0
  9 19  1  0
 10 20  1  0
 10 21  1  0
 10 22  1  0
 11 23  1  0
 11 24  1  0
 11 25  1  0
 12 26  1  0
 12 27  1  0
 12 28  1  0
M  ISO  8  13  14  14  14  15   8  16   8  17   8  18   8  19   8  20   8
M  ISO  8  21   8  22   8  23   8  24   8  25   8  26   8  27   8  28   8
M  END
>  <minimizedAffinity>  (1) 
-3.70507073

>  <minimizedRMSD>  (1) 
1.44200516

$$$$
