
     RDKit          3D

 29 30  0  0  0  0  0  0  0  0999 V2000
   45.2620   34.5030   45.0330 C   0  0  0  0  0  0  0  0  0  0  0  0
   46.1180   34.1110   43.9680 C   0  0  0  0  0  0  0  0  0  0  0  0
   47.0180   33.0830   44.2210 C   0  0  0  0  0  0  0  0  0  0  0  0
   46.9810   32.5590   45.4920 N   0  0  0  0  0  0  0  0  0  0  0  0
   46.1740   32.9450   46.4630 C   0  0  0  0  0  0  0  0  0  0  0  0
   45.3300   33.9060   46.2230 N   0  0  0  0  0  0  0  0  0  0  0  0
   47.8780   32.6230   43.1960 C   0  0  0  0  0  0  0  0  0  0  0  0
   47.4350   31.2520   42.8980 C   0  0  0  0  0  0  0  0  0  0  0  0
   48.1770   30.5560   41.9800 N   0  0  0  0  0  0  0  0  0  0  0  0
   49.1500   31.3610   41.5860 C   0  0  0  0  0  0  0  0  0  0  0  0
   48.8420   32.3930   42.3180 N   0  0  0  0  0  0  0  0  0  0  0  0
   46.0350   34.8660   42.6850 C   0  0  0  0  0  0  0  0  0  0  0  0
   47.3890   35.3870   42.2990 C   0  0  0  0  0  0  0  0  0  0  0  0
   45.1230   36.0940   42.9230 C   0  0  0  0  0  0  0  0  0  0  0  0
   45.3190   34.0430   41.6870 C   0  0  0  0  0  0  0  0  0  0  0  0
   44.5328   35.3108   44.8729 H   0  0  0  0  0  0  0  0  0  0  0  0
   46.2141   32.4653   47.4521 H   0  0  0  0  0  0  0  0  0  0  0  0
   46.5545   30.8090   43.3864 H   0  0  0  0  0  0  0  0  0  0  0  0
   49.9657   31.2066   40.8643 H   0  0  0  0  0  0  0  0  0  0  0  0
   49.4775   33.1930   42.1874 H   0  0  0  0  0  0  0  0  0  0  0  0
   47.9686   35.6100   43.2069 H   0  0  0  0  0  0  0  0  0  0  0  0
   47.9178   34.6281   41.7036 H   0  0  0  0  0  0  0  0  0  0  0  0
   47.2727   36.3046   41.7036 H   0  0  0  0  0  0  0  0  0  0  0  0
   45.0021   36.2569   44.0041 H   0  0  0  0  0  0  0  0  0  0  0  0
   45.5805   36.9844   42.4670 H   0  0  0  0  0  0  0  0  0  0  0  0
   44.1384   35.9134   42.4670 H   0  0  0  0  0  0  0  0  0  0  0  0
   44.6820   33.3108   42.2047 H   0  0  0  0  0  0  0  0  0  0  0  0
   44.6936   34.6925   41.0569 H   0  0  0  0  0  0  0  0  0  0  0  0
   46.0488   33.5135   41.0569 H   0  0  0  0  0  0  0  0  0  0  0  0
  1  6  2  0
  2  3  2  0
  2  1  1  0
  3  4  1  0
  4  5  2  0
  6  5  1  0
  7  3  1  0
  8  7  2  0
  9  8  1  0
 10  9  2  0
 10 11  1  0
 11  7  1  0
 12 14  1  0
 12  2  1  0
 13 12  1  0
 15 12  1  0
  1 16  1  0
  5 17  1  0
  8 18  1  0
 10 19  1  0
 11 20  1  0
 13 21  1  0
 13 22  1  0
 13 23  1  0
 14 24  1  0
 14 25  1  0
 14 26  1  0
 15 27  1  0
 15 28  1  0
 15 29  1  0
M  ISO  8  16  14  17  14  18  14  19  14  20   9  21   8  22   8  23   8
M  ISO  6  24   8  25   8  26   8  27   8  28   8  29   8
M  END
>  <minimizedAffinity>  (1) 
-3.8621676

>  <minimizedRMSD>  (1) 
0.784625411

$$$$
