
     RDKit          3D

 25 25  0  0  0  0  0  0  0  0999 V2000
   45.9830   34.9100   42.7280 C   0  0  0  0  0  0  0  0  0  0  0  0
   45.2290   34.5350   45.0720 C   0  0  0  0  0  0  0  0  0  0  0  0
   46.0810   34.1840   44.0040 C   0  0  0  0  0  0  0  0  0  0  0  0
   46.9810   33.1570   44.2280 C   0  0  0  0  0  0  0  0  0  0  0  0
   47.0290   32.5280   45.4300 N   0  0  0  0  0  0  0  0  0  0  0  0
   46.1760   32.9120   46.4360 C   0  0  0  0  0  0  0  0  0  0  0  0
   45.2940   33.9010   46.2490 N   0  0  0  0  0  0  0  0  0  0  0  0
   47.9310   32.6360   43.2260 C   0  0  0  0  0  0  0  0  0  0  0  0
   47.3260   35.2940   42.1990 C   0  0  0  0  0  0  0  0  0  0  0  0
   45.1950   36.2030   43.0090 C   0  0  0  0  0  0  0  0  0  0  0  0
   45.1300   34.1380   41.7600 C   0  0  0  0  0  0  0  0  0  0  0  0
   44.4974   35.3450   44.9350 H   0  0  0  0  0  0  0  0  0  0  0  0
   46.2185   32.3996   47.4085 H   0  0  0  0  0  0  0  0  0  0  0  0
   48.7844   32.1680   43.7385 H   0  0  0  0  0  0  0  0  0  0  0  0
   47.4265   31.8884   42.5963 H   0  0  0  0  0  0  0  0  0  0  0  0
   48.2902   33.4633   42.5963 H   0  0  0  0  0  0  0  0  0  0  0  0
   48.0088   35.4892   43.0390 H   0  0  0  0  0  0  0  0  0  0  0  0
   47.7260   34.4742   41.5842 H   0  0  0  0  0  0  0  0  0  0  0  0
   47.2322   36.2013   41.5842 H   0  0  0  0  0  0  0  0  0  0  0  0
   45.1059   36.3493   44.0956 H   0  0  0  0  0  0  0  0  0  0  0  0
   45.7251   37.0590   42.5661 H   0  0  0  0  0  0  0  0  0  0  0  0
   44.1912   36.1242   42.5661 H   0  0  0  0  0  0  0  0  0  0  0  0
   44.4269   33.5017   42.3175 H   0  0  0  0  0  0  0  0  0  0  0  0
   44.5668   34.8397   41.1272 H   0  0  0  0  0  0  0  0  0  0  0  0
   45.7722   33.5078   41.1272 H   0  0  0  0  0  0  0  0  0  0  0  0
  1 10  1  0
  1  3  1  0
  2  7  2  0
  3  4  2  0
  3  2  1  0
  4  5  1  0
  5  6  2  0
  7  6  1  0
  8  4  1  0
  9  1  1  0
 11  1  1  0
  2 12  1  0
  6 13  1  0
  8 14  1  0
  8 15  1  0
  8 16  1  0
  9 17  1  0
  9 18  1  0
  9 19  1  0
 10 20  1  0
 10 21  1  0
 10 22  1  0
 11 23  1  0
 11 24  1  0
 11 25  1  0
M  ISO  8  12  14  13  14  14   8  15   8  16   8  17   8  18   8  19   8
M  ISO  6  20   8  21   8  22   8  23   8  24   8  25   8
M  END
>  <minimizedAffinity>  (1) 
-3.68241978

>  <minimizedRMSD>  (1) 
0.0361245833

$$$$
