
     RDKit          3D

 36 37  0  0  0  0  0  0  0  0999 V2000
   46.0710   34.9400   42.5970 C   0  0  0  0  0  0  0  0  0  0  0  0
   45.2130   34.6820   44.9130 C   0  0  0  0  0  0  0  0  0  0  0  0
   46.1230   34.2600   43.8820 C   0  0  0  0  0  0  0  0  0  0  0  0
   46.9560   33.2370   44.1670 C   0  0  0  0  0  0  0  0  0  0  0  0
   46.8460   32.7000   45.4240 N   0  0  0  0  0  0  0  0  0  0  0  0
   46.0010   33.0930   46.3740 C   0  0  0  0  0  0  0  0  0  0  0  0
   45.1850   34.0900   46.1050 N   0  0  0  0  0  0  0  0  0  0  0  0
   47.9240   32.6610   43.3090 C   0  0  0  0  0  0  0  0  0  0  0  0
   48.8630   33.7160   42.8140 C   0  0  0  0  0  0  0  0  0  0  0  0
   47.2870   32.0380   42.1060 C   0  0  0  0  0  0  0  0  0  0  0  0
   47.3450   35.4620   42.0960 C   0  0  0  0  0  0  0  0  0  0  0  0
   45.2420   36.2330   42.8980 C   0  0  0  0  0  0  0  0  0  0  0  0
   45.3060   34.2700   41.5750 C   0  0  0  0  0  0  0  0  0  0  0  0
   43.8810   34.7180   41.3800 C   0  0  0  0  0  0  0  0  0  0  0  0
   43.4530   35.0100   40.1140 N   0  0  0  0  0  0  0  0  0  0  0  0
   42.2060   35.3540   40.1310 O   0  0  0  0  0  0  0  0  0  0  0  0
   41.8080   35.2950   41.3680 C   0  0  0  0  0  0  0  0  0  0  0  0
   42.8270   34.9080   42.1280 N   0  0  0  0  0  0  0  0  0  0  0  0
   44.5230   35.5147   44.7114 H   0  0  0  0  0  0  0  0  0  0  0  0
   45.9850   32.5985   47.3564 H   0  0  0  0  0  0  0  0  0  0  0  0
   48.4552   31.8940   43.8917 H   0  0  0  0  0  0  0  0  0  0  0  0
   49.3211   34.2307   43.6714 H   0  0  0  0  0  0  0  0  0  0  0  0
   49.6499   33.2492   42.2034 H   0  0  0  0  0  0  0  0  0  0  0  0
   48.3081   34.4435   42.2034 H   0  0  0  0  0  0  0  0  0  0  0  0
   46.5352   31.3027   42.4286 H   0  0  0  0  0  0  0  0  0  0  0  0
   46.8009   32.8189   41.5027 H   0  0  0  0  0  0  0  0  0  0  0  0
   48.0569   31.5347   41.5027 H   0  0  0  0  0  0  0  0  0  0  0  0
   47.9920   35.7271   42.9452 H   0  0  0  0  0  0  0  0  0  0  0  0
   47.8403   34.6943   41.4833 H   0  0  0  0  0  0  0  0  0  0  0  0
   47.1592   36.3565   41.4833 H   0  0  0  0  0  0  0  0  0  0  0  0
   45.1554   36.3680   43.9862 H   0  0  0  0  0  0  0  0  0  0  0  0
   45.7501   37.1046   42.4596 H   0  0  0  0  0  0  0  0  0  0  0  0
   44.2379   36.1351   42.4596 H   0  0  0  0  0  0  0  0  0  0  0  0
   45.8321   34.4134   40.6197 H   0  0  0  0  0  0  0  0  0  0  0  0
   45.2323   33.2259   41.9132 H   0  0  0  0  0  0  0  0  0  0  0  0
   40.7942   35.5273   41.7262 H   0  0  0  0  0  0  0  0  0  0  0  0
  1 12  1  0
  1  3  1  0
  2  7  2  0
  3  4  2  0
  3  2  1  0
  4  5  1  0
  5  6  2  0
  7  6  1  0
  8  4  1  0
  9  8  1  0
 10  8  1  0
 11  1  1  0
 13  1  1  0
 14 13  1  0
 14 18  1  0
 15 16  1  0
 15 14  2  0
 16 17  1  0
 17 18  2  0
  2 19  1  0
  6 20  1  0
  8 21  1  0
  9 22  1  0
  9 23  1  0
  9 24  1  0
 10 25  1  0
 10 26  1  0
 10 27  1  0
 11 28  1  0
 11 29  1  0
 11 30  1  0
 12 31  1  0
 12 32  1  0
 12 33  1  0
 13 34  1  0
 13 35  1  0
 17 36  1  0
M  ISO  8  19  14  20  14  21   8  22   8  23   8  24   8  25   8  26   8
M  ISO  8  27   8  28   8  29   8  30   8  31   8  32   8  33   8  34   8
M  ISO  2  35   8  36  14
M  END
>  <minimizedAffinity>  (1) 
-4.5751996

>  <minimizedRMSD>  (1) 
1.13116848

$$$$
