
     RDKit          3D

 38 39  0  0  0  0  0  0  0  0999 V2000
   46.0830   34.8960   42.5640 C   0  0  0  0  0  0  0  0  0  0  0  0
   45.2050   34.6670   44.9030 C   0  0  0  0  0  0  0  0  0  0  0  0
   46.1150   34.2460   43.8760 C   0  0  0  0  0  0  0  0  0  0  0  0
   46.9580   33.2370   44.1790 C   0  0  0  0  0  0  0  0  0  0  0  0
   46.8590   32.7150   45.4460 N   0  0  0  0  0  0  0  0  0  0  0  0
   46.0110   33.1130   46.3910 C   0  0  0  0  0  0  0  0  0  0  0  0
   45.1860   34.0940   46.1050 N   0  0  0  0  0  0  0  0  0  0  0  0
   47.9360   32.6590   43.3350 C   0  0  0  0  0  0  0  0  0  0  0  0
   48.8710   33.7120   42.8270 C   0  0  0  0  0  0  0  0  0  0  0  0
   47.3250   32.0180   42.1300 C   0  0  0  0  0  0  0  0  0  0  0  0
   47.3290   35.4680   42.1010 C   0  0  0  0  0  0  0  0  0  0  0  0
   45.1830   36.1680   42.8500 C   0  0  0  0  0  0  0  0  0  0  0  0
   45.3250   34.1880   41.5650 C   0  0  0  0  0  0  0  0  0  0  0  0
   43.9280   34.6440   41.3710 N   0  0  0  0  0  0  0  0  0  0  0  0
   42.9170   35.0260   42.0690 N   0  0  0  0  0  0  0  0  0  0  0  0
   41.8310   35.3390   41.3940 C   0  0  0  0  0  0  0  0  0  0  0  0
   42.1860   35.1310   40.0600 C   0  0  0  0  0  0  0  0  0  0  0  0
   43.5110   34.6930   40.0820 C   0  0  0  0  0  0  0  0  0  0  0  0
   44.5028   35.4868   44.6911 H   0  0  0  0  0  0  0  0  0  0  0  0
   46.0013   32.6349   47.3816 H   0  0  0  0  0  0  0  0  0  0  0  0
   48.4603   31.9051   43.9406 H   0  0  0  0  0  0  0  0  0  0  0  0
   49.3337   34.2331   43.6781 H   0  0  0  0  0  0  0  0  0  0  0  0
   49.6548   33.2420   42.2148 H   0  0  0  0  0  0  0  0  0  0  0  0
   48.3116   34.4347   42.2148 H   0  0  0  0  0  0  0  0  0  0  0  0
   46.5986   31.2559   42.4487 H   0  0  0  0  0  0  0  0  0  0  0  0
   46.8134   32.7830   41.5275 H   0  0  0  0  0  0  0  0  0  0  0  0
   48.1136   31.5436   41.5275 H   0  0  0  0  0  0  0  0  0  0  0  0
   47.9463   35.7514   42.9663 H   0  0  0  0  0  0  0  0  0  0  0  0
   47.8686   34.7275   41.4924 H   0  0  0  0  0  0  0  0  0  0  0  0
   47.1192   36.3600   41.4924 H   0  0  0  0  0  0  0  0  0  0  0  0
   45.0828   36.3096   43.9362 H   0  0  0  0  0  0  0  0  0  0  0  0
   45.6538   37.0576   42.4062 H   0  0  0  0  0  0  0  0  0  0  0  0
   44.1874   36.0201   42.4062 H   0  0  0  0  0  0  0  0  0  0  0  0
   45.8509   34.2938   40.6047 H   0  0  0  0  0  0  0  0  0  0  0  0
   45.2532   33.1508   41.9243 H   0  0  0  0  0  0  0  0  0  0  0  0
   40.8650   35.6852   41.7903 H   0  0  0  0  0  0  0  0  0  0  0  0
   41.5519   35.2814   39.1738 H   0  0  0  0  0  0  0  0  0  0  0  0
   44.1156   34.4314   39.2011 H   0  0  0  0  0  0  0  0  0  0  0  0
  1 12  1  0
  1  3  1  0
  2  7  2  0
  3  4  2  0
  3  2  1  0
  4  5  1  0
  5  6  2  0
  7  6  1  0
  8  4  1  0
  9  8  1  0
 10  8  1  0
 11  1  1  0
 13  1  1  0
 14 13  1  0
 14 15  1  0
 16 15  2  0
 17 18  2  0
 17 16  1  0
 18 14  1  0
  2 19  1  0
  6 20  1  0
  8 21  1  0
  9 22  1  0
  9 23  1  0
  9 24  1  0
 10 25  1  0
 10 26  1  0
 10 27  1  0
 11 28  1  0
 11 29  1  0
 11 30  1  0
 12 31  1  0
 12 32  1  0
 12 33  1  0
 13 34  1  0
 13 35  1  0
 16 36  1  0
 17 37  1  0
 18 38  1  0
M  ISO  8  19  14  20  14  21   8  22   8  23   8  24   8  25   8  26   8
M  ISO  8  27   8  28   8  29   8  30   8  31   8  32   8  33   8  34   8
M  ISO  4  35   8  36  14  37  14  38  14
M  END
>  <minimizedAffinity>  (1) 
-4.59356451

>  <minimizedRMSD>  (1) 
1.02991164

$$$$
