
     RDKit          3D

 33 33  0  0  0  0  0  0  0  0999 V2000
   45.2840   34.4560   45.0090 C   0  0  0  0  0  0  0  0  0  0  0  0
   46.1670   34.0160   43.9670 C   0  0  0  0  0  0  0  0  0  0  0  0
   47.0340   33.0260   44.2710 C   0  0  0  0  0  0  0  0  0  0  0  0
   46.9790   32.5420   45.5560 N   0  0  0  0  0  0  0  0  0  0  0  0
   46.1570   32.9580   46.5130 C   0  0  0  0  0  0  0  0  0  0  0  0
   45.3100   33.9180   46.2330 N   0  0  0  0  0  0  0  0  0  0  0  0
   47.9870   32.4340   43.4120 C   0  0  0  0  0  0  0  0  0  0  0  0
   48.8520   33.4730   42.7840 C   0  0  0  0  0  0  0  0  0  0  0  0
   47.3490   31.6960   42.2850 C   0  0  0  0  0  0  0  0  0  0  0  0
   46.1020   34.6250   42.6380 C   0  0  0  0  0  0  0  0  0  0  0  0
   47.3030   35.2970   42.1820 C   0  0  0  0  0  0  0  0  0  0  0  0
   45.0860   35.8260   42.8690 C   0  0  0  0  0  0  0  0  0  0  0  0
   45.3790   33.8570   41.6640 C   0  0  0  0  0  0  0  0  0  0  0  0
   45.8030   34.2250   40.2480 N   0  0  0  0  0  0  0  0  0  0  0  0
   44.5643   35.2598   44.7946 H   0  0  0  0  0  0  0  0  0  0  0  0
   46.1866   32.5076   47.5161 H   0  0  0  0  0  0  0  0  0  0  0  0
   48.5665   31.7450   44.0440 H   0  0  0  0  0  0  0  0  0  0  0  0
   49.3443   34.0643   43.5701 H   0  0  0  0  0  0  0  0  0  0  0  0
   49.6152   32.9860   42.1592 H   0  0  0  0  0  0  0  0  0  0  0  0
   48.2347   34.1353   42.1592 H   0  0  0  0  0  0  0  0  0  0  0  0
   46.6792   30.9213   42.6865 H   0  0  0  0  0  0  0  0  0  0  0  0
   46.7690   32.3984   41.6684 H   0  0  0  0  0  0  0  0  0  0  0  0
   48.1279   31.2237   41.6684 H   0  0  0  0  0  0  0  0  0  0  0  0
   47.8914   35.6262   43.0511 H   0  0  0  0  0  0  0  0  0  0  0  0
   47.9030   34.6035   41.5744 H   0  0  0  0  0  0  0  0  0  0  0  0
   47.0259   36.1711   41.5744 H   0  0  0  0  0  0  0  0  0  0  0  0
   44.9490   35.9879   43.9484 H   0  0  0  0  0  0  0  0  0  0  0  0
   45.4887   36.7406   42.4092 H   0  0  0  0  0  0  0  0  0  0  0  0
   44.1173   35.5804   42.4092 H   0  0  0  0  0  0  0  0  0  0  0  0
   45.5765   32.7879   41.8314 H   0  0  0  0  0  0  0  0  0  0  0  0
   44.3065   34.0750   41.7745 H   0  0  0  0  0  0  0  0  0  0  0  0
   46.5803   34.8997   40.2868 H   0  0  0  0  0  0  0  0  0  0  0  0
   46.1089   33.3770   39.7499 H   0  0  0  0  0  0  0  0  0  0  0  0
  1  6  2  0
  2  3  2  0
  2  1  1  0
  3  4  1  0
  4  5  2  0
  6  5  1  0
  7  3  1  0
  8  7  1  0
  9  7  1  0
 10 12  1  0
 10  2  1  0
 11 10  1  0
 13 10  1  0
 14 13  1  0
  1 15  1  0
  5 16  1  0
  7 17  1  0
  8 18  1  0
  8 19  1  0
  8 20  1  0
  9 21  1  0
  9 22  1  0
  9 23  1  0
 11 24  1  0
 11 25  1  0
 11 26  1  0
 12 27  1  0
 12 28  1  0
 12 29  1  0
 13 30  1  0
 13 31  1  0
 14 32  1  0
 14 33  1  0
M  ISO  8  15  14  16  14  17   8  18   8  19   8  20   8  21   8  22   8
M  ISO  8  23   8  24   8  25   8  26   8  27   8  28   8  29   8  30   8
M  ISO  3  31   8  32   5  33   5
M  END
>  <minimizedAffinity>  (1) 
-3.96441269

>  <minimizedRMSD>  (1) 
0.303217262

$$$$
