
     RDKit          3D

 37 40  0  0  0  0  0  0  0  0999 V2000
   44.8010   35.4300   44.4850 C   0  0  0  0  0  0  0  0  0  0  0  0
   45.6010   35.4600   43.3180 C   0  0  0  0  0  0  0  0  0  0  0  0
   46.6000   34.5040   43.2370 C   0  0  0  0  0  0  0  0  0  0  0  0
   46.6940   33.6690   44.2660 N   0  0  0  0  0  0  0  0  0  0  0  0
   45.9710   33.6070   45.3710 C   0  0  0  0  0  0  0  0  0  0  0  0
   44.9910   34.5390   45.4520 N   0  0  0  0  0  0  0  0  0  0  0  0
   47.5170   34.3700   42.1030 C   0  0  0  0  0  0  0  0  0  0  0  0
   46.8490   34.3160   40.7600 C   0  0  0  0  0  0  0  0  0  0  0  0
   48.0640   34.3480   39.8460 C   0  0  0  0  0  0  0  0  0  0  0  0
   48.8350   35.5040   40.4870 C   0  0  0  0  0  0  0  0  0  0  0  0
   48.4470   35.5490   41.9350 C   0  0  0  0  0  0  0  0  0  0  0  0
   46.0440   32.7120   46.5120 C   0  0  0  0  0  0  0  0  0  0  0  0
   45.4160   32.9940   47.6630 N   0  0  0  0  0  0  0  0  0  0  0  0
   45.4470   32.2130   48.7400 C   0  0  0  0  0  0  0  0  0  0  0  0
   46.1130   31.0660   48.7750 N   0  0  0  0  0  0  0  0  0  0  0  0
   46.7840   30.6930   47.6520 C   0  0  0  0  0  0  0  0  0  0  0  0
   47.4840   29.5060   47.6590 C   0  0  0  0  0  0  0  0  0  0  0  0
   48.1790   29.0860   46.5450 C   0  0  0  0  0  0  0  0  0  0  0  0
   48.1290   29.9260   45.4260 C   0  0  0  0  0  0  0  0  0  0  0  0
   47.4180   31.0890   45.4790 C   0  0  0  0  0  0  0  0  0  0  0  0
   46.7200   31.5280   46.5760 C   0  0  0  0  0  0  0  0  0  0  0  0
   43.9943   36.1697   44.5952 H   0  0  0  0  0  0  0  0  0  0  0  0
   45.4387   36.2003   42.5207 H   0  0  0  0  0  0  0  0  0  0  0  0
   48.0287   33.4316   42.3631 H   0  0  0  0  0  0  0  0  0  0  0  0
   46.2685   33.3905   40.6319 H   0  0  0  0  0  0  0  0  0  0  0  0
   46.1174   35.1172   40.5789 H   0  0  0  0  0  0  0  0  0  0  0  0
   47.7876   34.5674   38.8042 H   0  0  0  0  0  0  0  0  0  0  0  0
   48.6183   33.4007   39.7722 H   0  0  0  0  0  0  0  0  0  0  0  0
   49.9175   35.3330   40.3923 H   0  0  0  0  0  0  0  0  0  0  0  0
   48.5957   36.4555   39.9896 H   0  0  0  0  0  0  0  0  0  0  0  0
   49.3318   35.4437   42.5800 H   0  0  0  0  0  0  0  0  0  0  0  0
   47.9761   36.5023   42.2169 H   0  0  0  0  0  0  0  0  0  0  0  0
   44.8978   32.5315   49.6383 H   0  0  0  0  0  0  0  0  0  0  0  0
   47.4883   28.8846   48.5667 H   0  0  0  0  0  0  0  0  0  0  0  0
   48.7427   28.1415   46.5358 H   0  0  0  0  0  0  0  0  0  0  0  0
   48.6625   29.6484   44.5050 H   0  0  0  0  0  0  0  0  0  0  0  0
   47.4031   31.7200   44.5781 H   0  0  0  0  0  0  0  0  0  0  0  0
  1  6  2  0
  2  1  1  0
  3  2  2  0
  3  4  1  0
  4  5  2  0
  5  6  1  0
  5 12  1  0
  7  3  1  0
  8  7  1  0
  9 10  1  0
  9  8  1  0
 10 11  1  0
 11  7  1  0
 12 21  1  0
 12 13  2  0
 13 14  1  0
 14 15  2  0
 16 17  2  0
 16 15  1  0
 18 17  1  0
 19 20  1  0
 19 18  2  0
 20 21  2  0
 21 16  1  0
  1 22  1  0
  2 23  1  0
  7 24  1  0
  8 25  1  0
  8 26  1  0
  9 27  1  0
  9 28  1  0
 10 29  1  0
 10 30  1  0
 11 31  1  0
 11 32  1  0
 14 33  1  0
 17 34  1  0
 18 35  1  0
 19 36  1  0
 20 37  1  0
M  ISO  8  22  14  23  14  24  13  25  13  26  13  27  13  28  13  29  13
M  ISO  8  30  13  31  13  32  13  33  14  34  14  35  14  36  14  37  14
M  END
>  <minimizedAffinity>  (1) 
-6.52847052

>  <minimizedRMSD>  (1) 
1.2330904

$$$$
