
     RDKit          3D

 39 42  0  0  0  0  0  0  0  0999 V2000
   44.5880   35.7860   44.6620 C   0  0  0  0  0  0  0  0  0  0  0  0
   45.3350   35.6600   43.4760 C   0  0  0  0  0  0  0  0  0  0  0  0
   46.2160   34.5940   43.4140 C   0  0  0  0  0  0  0  0  0  0  0  0
   46.2690   33.7950   44.4900 N   0  0  0  0  0  0  0  0  0  0  0  0
   45.5640   33.9070   45.6190 C   0  0  0  0  0  0  0  0  0  0  0  0
   44.7140   34.9380   45.6720 N   0  0  0  0  0  0  0  0  0  0  0  0
   47.0730   34.3100   42.2430 C   0  0  0  0  0  0  0  0  0  0  0  0
   46.3700   34.3010   40.9380 C   0  0  0  0  0  0  0  0  0  0  0  0
   47.5320   34.1890   39.9820 C   0  0  0  0  0  0  0  0  0  0  0  0
   48.5150   35.1790   40.5850 C   0  0  0  0  0  0  0  0  0  0  0  0
   48.1630   35.3240   42.0420 C   0  0  0  0  0  0  0  0  0  0  0  0
   45.8660   32.8640   46.5920 C   0  0  0  0  0  0  0  0  0  0  0  0
   45.3830   32.9280   47.8810 C   0  0  0  0  0  0  0  0  0  0  0  0
   45.6350   31.9770   48.8380 C   0  0  0  0  0  0  0  0  0  0  0  0
   46.4060   30.8740   48.5490 C   0  0  0  0  0  0  0  0  0  0  0  0
   46.9120   30.7650   47.2730 C   0  0  0  0  0  0  0  0  0  0  0  0
   47.6850   29.6640   46.9750 C   0  0  0  0  0  0  0  0  0  0  0  0
   48.2220   29.4940   45.7150 C   0  0  0  0  0  0  0  0  0  0  0  0
   47.9380   30.4900   44.7740 C   0  0  0  0  0  0  0  0  0  0  0  0
   47.1650   31.5660   45.1140 C   0  0  0  0  0  0  0  0  0  0  0  0
   46.6240   31.7510   46.3610 C   0  0  0  0  0  0  0  0  0  0  0  0
   43.8743   36.6180   44.7536 H   0  0  0  0  0  0  0  0  0  0  0  0
   45.2248   36.3702   42.6432 H   0  0  0  0  0  0  0  0  0  0  0  0
   47.4539   33.3108   42.5009 H   0  0  0  0  0  0  0  0  0  0  0  0
   45.6916   33.4394   40.8511 H   0  0  0  0  0  0  0  0  0  0  0  0
   45.7253   35.1755   40.7656 H   0  0  0  0  0  0  0  0  0  0  0  0
   47.2427   34.4805   38.9616 H   0  0  0  0  0  0  0  0  0  0  0  0
   47.9298   33.1689   39.8763 H   0  0  0  0  0  0  0  0  0  0  0  0
   49.5426   34.8005   40.4813 H   0  0  0  0  0  0  0  0  0  0  0  0
   48.4571   36.1496   40.0706 H   0  0  0  0  0  0  0  0  0  0  0  0
   49.0306   35.1001   42.6801 H   0  0  0  0  0  0  0  0  0  0  0  0
   47.8520   36.3451   42.3077 H   0  0  0  0  0  0  0  0  0  0  0  0
   44.7597   33.7907   48.1589 H   0  0  0  0  0  0  0  0  0  0  0  0
   45.2159   32.0977   49.8478 H   0  0  0  0  0  0  0  0  0  0  0  0
   46.6107   30.1069   49.3103 H   0  0  0  0  0  0  0  0  0  0  0  0
   47.8769   28.9098   47.7524 H   0  0  0  0  0  0  0  0  0  0  0  0
   48.8414   28.6205   45.4634 H   0  0  0  0  0  0  0  0  0  0  0  0
   48.3394   30.4070   43.7532 H   0  0  0  0  0  0  0  0  0  0  0  0
   46.9659   32.3259   44.3440 H   0  0  0  0  0  0  0  0  0  0  0  0
  1  6  2  0
  2  1  1  0
  3  2  2  0
  3  4  1  0
  4  5  2  0
  5  6  1  0
  5 12  1  0
  7  3  1  0
  8  7  1  0
  9 10  1  0
  9  8  1  0
 10 11  1  0
 11  7  1  0
 12 13  2  0
 13 14  1  0
 15 14  2  0
 16 15  1  0
 17 16  2  0
 18 17  1  0
 19 20  1  0
 19 18  2  0
 20 21  2  0
 21 12  1  0
 21 16  1  0
  1 22  1  0
  2 23  1  0
  7 24  1  0
  8 25  1  0
  8 26  1  0
  9 27  1  0
  9 28  1  0
 10 29  1  0
 10 30  1  0
 11 31  1  0
 11 32  1  0
 13 33  1  0
 14 34  1  0
 15 35  1  0
 17 36  1  0
 18 37  1  0
 19 38  1  0
 20 39  1  0
M  ISO  8  22  14  23  14  24  13  25  13  26  13  27  13  28  13  29  13
M  ISO  8  30  13  31  13  32  13  33  14  34  14  35  14  36  14  37  14
M  ISO  2  38  14  39  14
M  END
>  <minimizedAffinity>  (1) 
-6.92896795

>  <minimizedRMSD>  (1) 
0.593723297

$$$$
