
     RDKit          3D

 34 37  0  0  0  0  0  0  0  0999 V2000
   44.6580   35.8230   44.3190 C   0  0  0  0  0  0  0  0  0  0  0  0
   45.5130   35.6620   43.2160 C   0  0  0  0  0  0  0  0  0  0  0  0
   46.4560   34.6360   43.1900 C   0  0  0  0  0  0  0  0  0  0  0  0
   46.5040   33.8200   44.2610 N   0  0  0  0  0  0  0  0  0  0  0  0
   45.6780   33.9730   45.3310 C   0  0  0  0  0  0  0  0  0  0  0  0
   44.7620   34.9700   45.3550 N   0  0  0  0  0  0  0  0  0  0  0  0
   45.7360   33.1080   46.4550 N   0  0  0  0  0  0  0  0  0  0  0  0
   45.1270   33.2650   47.6360 C   0  0  0  0  0  0  0  0  0  0  0  0
   45.4300   32.2240   48.4510 N   0  0  0  0  0  0  0  0  0  0  0  0
   46.2450   31.3950   47.7740 C   0  0  0  0  0  0  0  0  0  0  0  0
   46.8320   30.1930   48.1660 C   0  0  0  0  0  0  0  0  0  0  0  0
   47.6150   29.5760   47.2550 N   0  0  0  0  0  0  0  0  0  0  0  0
   47.8050   30.1100   46.0340 C   0  0  0  0  0  0  0  0  0  0  0  0
   47.2290   31.2800   45.6630 N   0  0  0  0  0  0  0  0  0  0  0  0
   46.4330   31.9520   46.5270 C   0  0  0  0  0  0  0  0  0  0  0  0
   47.3620   34.4390   42.0620 C   0  0  0  0  0  0  0  0  0  0  0  0
   46.7280   34.3370   40.7270 C   0  0  0  0  0  0  0  0  0  0  0  0
   47.9600   34.3050   39.8290 C   0  0  0  0  0  0  0  0  0  0  0  0
   48.8160   35.3810   40.4580 C   0  0  0  0  0  0  0  0  0  0  0  0
   48.3470   35.5800   41.8780 C   0  0  0  0  0  0  0  0  0  0  0  0
   43.9148   36.6338   44.3358 H   0  0  0  0  0  0  0  0  0  0  0  0
   45.4374   36.3532   42.3636 H   0  0  0  0  0  0  0  0  0  0  0  0
   44.4780   34.1113   47.9055 H   0  0  0  0  0  0  0  0  0  0  0  0
   46.6658   29.7684   49.1670 H   0  0  0  0  0  0  0  0  0  0  0  0
   48.4475   29.5807   45.3149 H   0  0  0  0  0  0  0  0  0  0  0  0
   47.8281   33.4861   42.3532 H   0  0  0  0  0  0  0  0  0  0  0  0
   46.1325   33.4172   40.6306 H   0  0  0  0  0  0  0  0  0  0  0  0
   46.0169   35.1441   40.4970 H   0  0  0  0  0  0  0  0  0  0  0  0
   47.7052   34.5511   38.7876 H   0  0  0  0  0  0  0  0  0  0  0  0
   48.4472   33.3206   39.7691 H   0  0  0  0  0  0  0  0  0  0  0  0
   49.8708   35.0688   40.4536 H   0  0  0  0  0  0  0  0  0  0  0  0
   48.7270   36.3196   39.8914 H   0  0  0  0  0  0  0  0  0  0  0  0
   49.1837   35.5011   42.5877 H   0  0  0  0  0  0  0  0  0  0  0  0
   47.9077   36.5720   42.0597 H   0  0  0  0  0  0  0  0  0  0  0  0
  1  6  2  0
  2  1  1  0
  3  2  2  0
  3  4  1  0
  4  5  2  0
  5  6  1  0
  5  7  1  0
  7 15  1  0
  7  8  1  0
  8  9  2  0
 10 11  2  0
 10  9  1  0
 12 11  1  0
 13 12  2  0
 14 13  1  0
 14 15  2  0
 15 10  1  0
 16  3  1  0
 17 16  1  0
 18 19  1  0
 18 17  1  0
 19 20  1  0
 20 16  1  0
  1 21  1  0
  2 22  1  0
  8 23  1  0
 11 24  1  0
 13 25  1  0
 16 26  1  0
 17 27  1  0
 17 28  1  0
 18 29  1  0
 18 30  1  0
 19 31  1  0
 19 32  1  0
 20 33  1  0
 20 34  1  0
M  ISO  8  21  14  22  14  23  14  24  14  25  14  26  13  27  13  28  13
M  ISO  6  29  13  30  13  31  13  32  13  33  13  34  13
M  END
>  <minimizedAffinity>  (1) 
-6.5799284

>  <minimizedRMSD>  (1) 
0.366897017

$$$$
