
     RDKit          3D

 30 32  0  0  0  0  0  0  0  0999 V2000
   44.5560   35.8860   44.3620 C   0  0  0  0  0  0  0  0  0  0  0  0
   45.3430   35.7050   43.2020 C   0  0  0  0  0  0  0  0  0  0  0  0
   46.2980   34.6690   43.2420 C   0  0  0  0  0  0  0  0  0  0  0  0
   46.3880   33.9300   44.3810 N   0  0  0  0  0  0  0  0  0  0  0  0
   45.6130   34.1400   45.4650 C   0  0  0  0  0  0  0  0  0  0  0  0
   44.6980   35.1240   45.4410 N   0  0  0  0  0  0  0  0  0  0  0  0
   47.1940   34.3650   42.1110 C   0  0  0  0  0  0  0  0  0  0  0  0
   46.5400   34.3000   40.7850 C   0  0  0  0  0  0  0  0  0  0  0  0
   47.7700   34.1840   39.8860 C   0  0  0  0  0  0  0  0  0  0  0  0
   48.6470   35.2690   40.4710 C   0  0  0  0  0  0  0  0  0  0  0  0
   48.2550   35.4350   41.9220 C   0  0  0  0  0  0  0  0  0  0  0  0
   45.7860   33.3010   46.6220 C   0  0  0  0  0  0  0  0  0  0  0  0
   46.8260   32.4560   46.9040 C   0  0  0  0  0  0  0  0  0  0  0  0
   46.6130   31.8400   48.1010 N   0  0  0  0  0  0  0  0  0  0  0  0
   45.4260   32.3070   48.5720 C   0  0  0  0  0  0  0  0  0  0  0  0
   44.9520   33.1820   47.6640 N   0  0  0  0  0  0  0  0  0  0  0  0
   43.8001   36.6851   44.3717 H   0  0  0  0  0  0  0  0  0  0  0  0
   45.2166   36.3404   42.3130 H   0  0  0  0  0  0  0  0  0  0  0  0
   47.5924   33.3809   42.3987 H   0  0  0  0  0  0  0  0  0  0  0  0
   45.8851   33.4207   40.6958 H   0  0  0  0  0  0  0  0  0  0  0  0
   45.8765   35.1465   40.5544 H   0  0  0  0  0  0  0  0  0  0  0  0
   47.5232   34.3857   38.8332 H   0  0  0  0  0  0  0  0  0  0  0  0
   48.2300   33.1850   39.8676 H   0  0  0  0  0  0  0  0  0  0  0  0
   49.7050   34.9769   40.3986 H   0  0  0  0  0  0  0  0  0  0  0  0
   48.5141   36.2132   39.9226 H   0  0  0  0  0  0  0  0  0  0  0  0
   49.1144   35.2620   42.5865 H   0  0  0  0  0  0  0  0  0  0  0  0
   47.8988   36.4475   42.1628 H   0  0  0  0  0  0  0  0  0  0  0  0
   47.7035   32.2978   46.2598 H   0  0  0  0  0  0  0  0  0  0  0  0
   44.9427   32.0231   49.5185 H   0  0  0  0  0  0  0  0  0  0  0  0
   44.0631   33.6936   47.7585 H   0  0  0  0  0  0  0  0  0  0  0  0
  1  6  2  0
  2  3  2  0
  2  1  1  0
  3  4  1  0
  4  5  2  0
  5 12  1  0
  6  5  1  0
  7  3  1  0
  8  7  1  0
  9 10  1  0
  9  8  1  0
 10 11  1  0
 11  7  1  0
 12 13  2  0
 12 16  1  0
 13 14  1  0
 14 15  2  0
 16 15  1  0
  1 17  1  0
  2 18  1  0
  7 19  1  0
  8 20  1  0
  8 21  1  0
  9 22  1  0
  9 23  1  0
 10 24  1  0
 10 25  1  0
 11 26  1  0
 11 27  1  0
 13 28  1  0
 15 29  1  0
 16 30  1  0
M  ISO  8  17  14  18  14  19  13  20  13  21  13  22  13  23  13  24  13
M  ISO  6  25  13  26  13  27  13  28  14  29  14  30   9
M  END
>  <minimizedAffinity>  (1) 
-6.27811766

>  <minimizedRMSD>  (1) 
0.655097842

$$$$
