
     RDKit          3D

 33 35  0  0  0  0  0  0  0  0999 V2000
   44.5670   35.5080   44.9740 C   0  0  0  0  0  0  0  0  0  0  0  0
   45.2430   35.3910   43.7400 C   0  0  0  0  0  0  0  0  0  0  0  0
   46.1970   34.3600   43.6270 C   0  0  0  0  0  0  0  0  0  0  0  0
   46.3940   33.5640   44.7020 N   0  0  0  0  0  0  0  0  0  0  0  0
   45.7300   33.7030   45.8690 C   0  0  0  0  0  0  0  0  0  0  0  0
   44.8110   34.6860   45.9970 N   0  0  0  0  0  0  0  0  0  0  0  0
   46.9700   34.1340   42.3970 C   0  0  0  0  0  0  0  0  0  0  0  0
   46.2390   34.3700   41.1310 C   0  0  0  0  0  0  0  0  0  0  0  0
   47.3800   34.2120   40.1310 C   0  0  0  0  0  0  0  0  0  0  0  0
   48.4440   35.0630   40.7940 C   0  0  0  0  0  0  0  0  0  0  0  0
   48.1700   35.0530   42.2820 C   0  0  0  0  0  0  0  0  0  0  0  0
   46.0140   32.7920   46.9730 C   0  0  0  0  0  0  0  0  0  0  0  0
   45.0550   32.6030   47.9480 C   0  0  0  0  0  0  0  0  0  0  0  0
   45.3500   31.7340   48.9820 C   0  0  0  0  0  0  0  0  0  0  0  0
   46.5820   31.0990   48.9950 C   0  0  0  0  0  0  0  0  0  0  0  0
   47.5430   31.2920   48.0120 C   0  0  0  0  0  0  0  0  0  0  0  0
   47.2380   32.1580   46.9900 C   0  0  0  0  0  0  0  0  0  0  0  0
   43.8154   36.3018   45.0963 H   0  0  0  0  0  0  0  0  0  0  0  0
   45.0342   36.0744   42.9037 H   0  0  0  0  0  0  0  0  0  0  0  0
   47.2332   33.0715   42.5058 H   0  0  0  0  0  0  0  0  0  0  0  0
   45.4491   33.6215   40.9703 H   0  0  0  0  0  0  0  0  0  0  0  0
   45.7059   35.3306   41.0767 H   0  0  0  0  0  0  0  0  0  0  0  0
   47.1079   34.6013   39.1388 H   0  0  0  0  0  0  0  0  0  0  0  0
   47.6793   33.1716   39.9359 H   0  0  0  0  0  0  0  0  0  0  0  0
   49.4406   34.6432   40.5925 H   0  0  0  0  0  0  0  0  0  0  0  0
   48.4195   36.0904   40.4017 H   0  0  0  0  0  0  0  0  0  0  0  0
   49.0296   34.6538   42.8404 H   0  0  0  0  0  0  0  0  0  0  0  0
   47.9920   36.0554   42.6985 H   0  0  0  0  0  0  0  0  0  0  0  0
   44.0885   33.1263   47.9036 H   0  0  0  0  0  0  0  0  0  0  0  0
   44.6182   31.5493   49.7822 H   0  0  0  0  0  0  0  0  0  0  0  0
   46.8087   30.4104   49.8223 H   0  0  0  0  0  0  0  0  0  0  0  0
   48.5114   30.7716   48.0499 H   0  0  0  0  0  0  0  0  0  0  0  0
   47.9677   32.3448   46.1883 H   0  0  0  0  0  0  0  0  0  0  0  0
  1  6  2  0
  2  1  1  0
  3  2  2  0
  3  4  1  0
  4  5  2  0
  5  6  1  0
  5 12  1  0
  7  3  1  0
  8  7  1  0
  9 10  1  0
  9  8  1  0
 10 11  1  0
 11  7  1  0
 12 17  1  0
 12 13  2  0
 13 14  1  0
 14 15  2  0
 16 15  1  0
 17 16  2  0
  1 18  1  0
  2 19  1  0
  7 20  1  0
  8 21  1  0
  8 22  1  0
  9 23  1  0
  9 24  1  0
 10 25  1  0
 10 26  1  0
 11 27  1  0
 11 28  1  0
 13 29  1  0
 14 30  1  0
 15 31  1  0
 16 32  1  0
 17 33  1  0
M  ISO  8  18  14  19  14  20  13  21  13  22  13  23  13  24  13  25  13
M  ISO  8  26  13  27  13  28  13  29  14  30  14  31  14  32  14  33  14
M  END
>  <minimizedAffinity>  (1) 
-6.28439474

>  <minimizedRMSD>  (1) 
0.810689986

$$$$
