
     RDKit          3D

 29 30  0  0  0  0  0  0  0  0999 V2000
   47.0640   34.3330   42.1930 C   0  0  0  0  0  0  0  0  0  0  0  0
   46.3810   34.2960   40.8810 C   0  0  0  0  0  0  0  0  0  0  0  0
   47.5800   34.1580   39.9450 C   0  0  0  0  0  0  0  0  0  0  0  0
   48.5510   35.1550   40.5420 C   0  0  0  0  0  0  0  0  0  0  0  0
   48.1440   35.3760   41.9680 C   0  0  0  0  0  0  0  0  0  0  0  0
   44.5630   35.9490   44.5340 C   0  0  0  0  0  0  0  0  0  0  0  0
   45.3460   35.7180   43.3910 C   0  0  0  0  0  0  0  0  0  0  0  0
   46.2250   34.6210   43.3530 C   0  0  0  0  0  0  0  0  0  0  0  0
   46.2750   33.8240   44.4410 N   0  0  0  0  0  0  0  0  0  0  0  0
   45.5020   34.0720   45.5390 C   0  0  0  0  0  0  0  0  0  0  0  0
   44.6580   35.1220   45.5830 N   0  0  0  0  0  0  0  0  0  0  0  0
   45.6510   33.1210   46.6740 C   0  0  0  0  0  0  0  0  0  0  0  0
   46.9580   32.3820   46.6260 C   0  0  0  0  0  0  0  0  0  0  0  0
   47.4402   33.3376   42.4717 H   0  0  0  0  0  0  0  0  0  0  0  0
   45.7023   33.4340   40.8009 H   0  0  0  0  0  0  0  0  0  0  0  0
   45.7373   35.1639   40.6754 H   0  0  0  0  0  0  0  0  0  0  0  0
   47.3150   34.4257   38.9115 H   0  0  0  0  0  0  0  0  0  0  0  0
   47.9769   33.1345   39.8753 H   0  0  0  0  0  0  0  0  0  0  0  0
   49.5746   34.7544   40.5006 H   0  0  0  0  0  0  0  0  0  0  0  0
   48.5316   36.1009   39.9808 H   0  0  0  0  0  0  0  0  0  0  0  0
   48.9932   35.2161   42.6487 H   0  0  0  0  0  0  0  0  0  0  0  0
   47.7964   36.4017   42.1607 H   0  0  0  0  0  0  0  0  0  0  0  0
   43.8743   36.8061   44.5674 H   0  0  0  0  0  0  0  0  0  0  0  0
   45.2717   36.3943   42.5267 H   0  0  0  0  0  0  0  0  0  0  0  0
   45.5965   33.6839   47.6175 H   0  0  0  0  0  0  0  0  0  0  0  0
   44.8409   32.3802   46.6030 H   0  0  0  0  0  0  0  0  0  0  0  0
   47.3059   32.1853   47.6508 H   0  0  0  0  0  0  0  0  0  0  0  0
   46.8205   31.4280   46.0960 H   0  0  0  0  0  0  0  0  0  0  0  0
   47.7047   32.9916   46.0960 H   0  0  0  0  0  0  0  0  0  0  0  0
  1  8  1  0
  2  1  1  0
  3  4  1  0
  3  2  1  0
  4  5  1  0
  5  1  1  0
  6 11  2  0
  7  6  1  0
  8  7  2  0
  8  9  1  0
  9 10  2  0
 10 11  1  0
 10 12  1  0
 13 12  1  0
  1 14  1  0
  2 15  1  0
  2 16  1  0
  3 17  1  0
  3 18  1  0
  4 19  1  0
  4 20  1  0
  5 21  1  0
  5 22  1  0
  6 23  1  0
  7 24  1  0
 12 25  1  0
 12 26  1  0
 13 27  1  0
 13 28  1  0
 13 29  1  0
M  ISO  8  14  13  15  13  16  13  17  13  18  13  19  13  20  13  21  13
M  ISO  8  22  13  23  14  24  14  25   8  26   8  27   8  28   8  29   8
M  END
>  <minimizedAffinity>  (1) 
-4.98250484

>  <minimizedRMSD>  (1) 
0.437762141

$$$$
