
     RDKit          3D

 46 49  0  0  1  0  0  0  0  0999 V2000
   45.6130   34.1580   42.2240 C   0  0  0  0  0  0  0  0  0  0  0  0
   47.0030   34.2680   42.3130 C   0  0  0  0  0  0  0  0  0  0  0  0
   47.6310   33.9220   43.5340 C   0  0  0  0  0  0  0  0  0  0  0  0
   46.8750   33.5010   44.5580 N   0  0  0  0  0  0  0  0  0  0  0  0
   45.5340   33.3960   44.4620 C   0  0  0  0  0  0  0  0  0  0  0  0
   44.9360   33.7190   43.3190 N   0  0  0  0  0  0  0  0  0  0  0  0
   44.8310   34.5150   41.0950 C   0  0  0  0  0  0  0  0  0  0  0  0
   43.9210   33.3220   40.6670 C   0  0  0  0  0  0  0  0  0  0  0  0
   42.9730   34.0320   39.7060 C   0  0  0  0  0  0  0  0  0  0  0  0
   42.8760   35.4350   40.2540 C   0  0  0  0  0  0  0  0  0  0  0  0
   43.7590   35.4840   41.4880 C   0  0  0  0  0  0  0  0  0  0  0  0
   47.8080   34.7460   41.1790 C   0  0  1  0  0  0  0  0  0  0  0  0
   48.8170   35.7610   41.5510 C   0  0  0  0  0  0  0  0  0  0  0  0
   48.3530   33.5440   40.4550 C   0  0  0  0  0  0  0  0  0  0  0  0
   47.9340   33.5070   39.0650 N   0  0  0  0  0  0  0  0  0  0  0  0
   48.4580   34.4670   38.3130 N   0  0  0  0  0  0  0  0  0  0  0  0
   48.0080   34.3460   37.0570 C   0  0  0  0  0  0  0  0  0  0  0  0
   47.1670   33.2650   37.0040 C   0  0  0  0  0  0  0  0  0  0  0  0
   47.1440   32.7640   38.2740 C   0  0  0  0  0  0  0  0  0  0  0  0
   46.4560   31.6400   38.8740 C   0  0  0  0  0  0  0  0  0  0  0  0
   46.9270   31.0800   40.0540 C   0  0  0  0  0  0  0  0  0  0  0  0
   46.1200   30.0280   40.4380 C   0  0  0  0  0  0  0  0  0  0  0  0
   45.1620   30.0000   39.4380 C   0  0  0  0  0  0  0  0  0  0  0  0
   45.3930   30.9320   38.5740 O   0  0  0  0  0  0  0  0  0  0  0  0
   48.7232   33.9975   43.6408 H   0  0  0  0  0  0  0  0  0  0  0  0
   44.9410   33.0468   45.3202 H   0  0  0  0  0  0  0  0  0  0  0  0
   45.5499   34.8697   40.3418 H   0  0  0  0  0  0  0  0  0  0  0  0
   44.4964   32.5324   40.1616 H   0  0  0  0  0  0  0  0  0  0  0  0
   43.4263   32.7993   41.4989 H   0  0  0  0  0  0  0  0  0  0  0  0
   41.9863   33.5459   39.7005 H   0  0  0  0  0  0  0  0  0  0  0  0
   43.3306   34.0087   38.6660 H   0  0  0  0  0  0  0  0  0  0  0  0
   43.2299   36.1595   39.5057 H   0  0  0  0  0  0  0  0  0  0  0  0
   41.8355   35.6916   40.5019 H   0  0  0  0  0  0  0  0  0  0  0  0
   43.2197   35.1504   42.3868 H   0  0  0  0  0  0  0  0  0  0  0  0
   44.1228   36.4880   41.7518 H   0  0  0  0  0  0  0  0  0  0  0  0
   47.1689   35.3082   40.4823 H   0  0  0  0  0  0  0  0  0  0  0  0
   48.8833   35.8276   42.6470 H   0  0  0  0  0  0  0  0  0  0  0  0
   49.7961   35.4720   41.1414 H   0  0  0  0  0  0  0  0  0  0  0  0
   48.5222   36.7384   41.1414 H   0  0  0  0  0  0  0  0  0  0  0  0
   49.4519   33.5749   40.4935 H   0  0  0  0  0  0  0  0  0  0  0  0
   47.9614   32.6436   40.9509 H   0  0  0  0  0  0  0  0  0  0  0  0
   48.2687   35.0016   36.2131 H   0  0  0  0  0  0  0  0  0  0  0  0
   46.6261   32.8827   36.1258 H   0  0  0  0  0  0  0  0  0  0  0  0
   47.8152   31.4250   40.6036 H   0  0  0  0  0  0  0  0  0  0  0  0
   46.2142   29.3751   41.3182 H   0  0  0  0  0  0  0  0  0  0  0  0
   44.3256   29.2873   39.3870 H   0  0  0  0  0  0  0  0  0  0  0  0
  1  2  1  0
  1  6  2  0
  2  3  2  0
  3  4  1  0
  5  4  2  0
  6  5  1  0
  7 11  1  0
  7  1  1  0
  8  7  1  0
  9 10  1  0
  9  8  1  0
 10 11  1  0
 12 13  1  0
 12  2  1  0
 14 12  1  0
 15 14  1  0
 16 15  1  0
 17 16  2  0
 18 17  1  0
 18 19  2  0
 19 20  1  0
 19 15  1  0
 20 21  2  0
 21 22  1  0
 23 22  2  0
 24 20  1  0
 24 23  1  0
  3 25  1  0
  5 26  1  0
  7 27  1  0
  8 28  1  0
  8 29  1  0
  9 30  1  0
  9 31  1  0
 10 32  1  0
 10 33  1  0
 11 34  1  0
 11 35  1  0
 12 36  1  6
 13 37  1  0
 13 38  1  0
 13 39  1  0
 14 40  1  0
 14 41  1  0
 17 42  1  0
 18 43  1  0
 21 44  1  0
 22 45  1  0
 23 46  1  0
M  ISO  8  25  14  26  14  27  13  28  13  29  13  30  13  31  13  32  13
M  ISO  8  33  13  34  13  35  13  36   8  37   8  38   8  39   8  40   8
M  ISO  6  41   8  42  14  43  14  44  14  45  14  46  14
M  END
>  <minimizedAffinity>  (1) 
-4.97297764

>  <minimizedRMSD>  (1) 
1.168329

$$$$
