
     RDKit          3D

 24 25  0  0  0  0  0  0  0  0999 V2000
   47.0770   34.3920   42.1450 C   0  0  0  0  0  0  0  0  0  0  0  0
   46.4000   34.3130   40.8280 C   0  0  0  0  0  0  0  0  0  0  0  0
   47.6080   34.1350   39.9130 C   0  0  0  0  0  0  0  0  0  0  0  0
   48.5840   35.1360   40.4920 C   0  0  0  0  0  0  0  0  0  0  0  0
   48.1610   35.4300   41.9180 C   0  0  0  0  0  0  0  0  0  0  0  0
   44.6140   36.1200   44.4470 C   0  0  0  0  0  0  0  0  0  0  0  0
   45.4230   35.8740   43.3200 C   0  0  0  0  0  0  0  0  0  0  0  0
   46.2160   34.7150   43.2860 C   0  0  0  0  0  0  0  0  0  0  0  0
   46.1620   33.8830   44.3500 N   0  0  0  0  0  0  0  0  0  0  0  0
   45.3640   34.1540   45.4300 C   0  0  0  0  0  0  0  0  0  0  0  0
   44.5980   35.2670   45.4680 N   0  0  0  0  0  0  0  0  0  0  0  0
   45.4420   33.1820   46.4270 O   0  0  0  0  0  0  0  0  0  0  0  0
   47.4595   33.4054   42.4454 H   0  0  0  0  0  0  0  0  0  0  0  0
   45.7166   33.4529   40.7723 H   0  0  0  0  0  0  0  0  0  0  0  0
   45.7608   35.1748   40.5856 H   0  0  0  0  0  0  0  0  0  0  0  0
   47.3589   34.3761   38.8691 H   0  0  0  0  0  0  0  0  0  0  0  0
   47.9933   33.1053   39.8787 H   0  0  0  0  0  0  0  0  0  0  0  0
   49.6002   34.7150   40.4831 H   0  0  0  0  0  0  0  0  0  0  0  0
   48.5842   36.0597   39.8948 H   0  0  0  0  0  0  0  0  0  0  0  0
   48.9976   35.2944   42.6192 H   0  0  0  0  0  0  0  0  0  0  0  0
   47.8245   36.4652   42.0767 H   0  0  0  0  0  0  0  0  0  0  0  0
   43.9901   37.0252   44.4831 H   0  0  0  0  0  0  0  0  0  0  0  0
   45.4335   36.5808   42.4772 H   0  0  0  0  0  0  0  0  0  0  0  0
   44.9060   33.2770   47.2539 H   0  0  0  0  0  0  0  0  0  0  0  0
  1  8  1  0
  2  1  1  0
  3  4  1  0
  3  2  1  0
  4  5  1  0
  5  1  1  0
  6 11  2  0
  7  6  1  0
  8  7  2  0
  8  9  1  0
  9 10  2  0
 10 11  1  0
 10 12  1  0
  1 13  1  0
  2 14  1  0
  2 15  1  0
  3 16  1  0
  3 17  1  0
  4 18  1  0
  4 19  1  0
  5 20  1  0
  5 21  1  0
  6 22  1  0
  7 23  1  0
 12 24  1  0
M  ISO  8  13  13  14  13  15  13  16  13  17  13  18  13  19  13  20  13
M  ISO  4  21  13  22  14  23  14  24   3
M  END
>  <minimizedAffinity>  (1) 
-4.99934435

>  <minimizedRMSD>  (1) 
0.102565184

$$$$
