
     RDKit          3D

 36 38  0  0  0  0  0  0  0  0999 V2000
   47.2990   34.1960   42.2710 C   0  0  0  0  0  0  0  0  0  0  0  0
   46.5520   34.2520   41.0010 C   0  0  0  0  0  0  0  0  0  0  0  0
   47.6930   34.3150   39.9960 C   0  0  0  0  0  0  0  0  0  0  0  0
   48.6480   35.2810   40.6630 C   0  0  0  0  0  0  0  0  0  0  0  0
   48.3360   35.2950   42.1400 C   0  0  0  0  0  0  0  0  0  0  0  0
   44.7350   35.2760   44.8290 C   0  0  0  0  0  0  0  0  0  0  0  0
   45.4320   35.2450   43.6020 C   0  0  0  0  0  0  0  0  0  0  0  0
   46.4950   34.3250   43.4920 C   0  0  0  0  0  0  0  0  0  0  0  0
   46.7630   33.5470   44.5660 N   0  0  0  0  0  0  0  0  0  0  0  0
   46.0740   33.6030   45.7250 C   0  0  0  0  0  0  0  0  0  0  0  0
   45.0550   34.4730   45.8560 N   0  0  0  0  0  0  0  0  0  0  0  0
   46.3980   32.7290   46.8870 C   0  0  0  0  0  0  0  0  0  0  0  0
   46.7520   31.3240   46.4350 C   0  0  0  0  0  0  0  0  0  0  0  0
   45.5390   30.5040   46.8520 C   0  0  0  0  0  0  0  0  0  0  0  0
   45.2350   31.1180   48.2050 C   0  0  0  0  0  0  0  0  0  0  0  0
   45.2770   32.6080   47.8680 C   0  0  0  0  0  0  0  0  0  0  0  0
   47.7352   33.1954   42.4072 H   0  0  0  0  0  0  0  0  0  0  0  0
   45.9346   33.3533   40.8555 H   0  0  0  0  0  0  0  0  0  0  0  0
   45.8389   35.0866   40.9306 H   0  0  0  0  0  0  0  0  0  0  0  0
   47.3490   34.6999   39.0246 H   0  0  0  0  0  0  0  0  0  0  0  0
   48.1394   33.3353   39.7703 H   0  0  0  0  0  0  0  0  0  0  0  0
   49.6853   34.9517   40.5031 H   0  0  0  0  0  0  0  0  0  0  0  0
   48.5337   36.2888   40.2373 H   0  0  0  0  0  0  0  0  0  0  0  0
   49.2317   35.0686   42.7370 H   0  0  0  0  0  0  0  0  0  0  0  0
   47.9853   36.2723   42.5032 H   0  0  0  0  0  0  0  0  0  0  0  0
   43.9005   35.9828   44.9478 H   0  0  0  0  0  0  0  0  0  0  0  0
   45.1582   35.9089   42.7688 H   0  0  0  0  0  0  0  0  0  0  0  0
   47.2527   33.2178   47.3775 H   0  0  0  0  0  0  0  0  0  0  0  0
   47.6617   30.9657   46.9391 H   0  0  0  0  0  0  0  0  0  0  0  0
   46.9644   31.2598   45.3576 H   0  0  0  0  0  0  0  0  0  0  0  0
   44.7016   30.6340   46.1507 H   0  0  0  0  0  0  0  0  0  0  0  0
   45.7079   29.4172   46.8718 H   0  0  0  0  0  0  0  0  0  0  0  0
   44.2433   30.8151   48.5720 H   0  0  0  0  0  0  0  0  0  0  0  0
   45.9267   30.8154   49.0049 H   0  0  0  0  0  0  0  0  0  0  0  0
   45.4799   33.2063   48.7684 H   0  0  0  0  0  0  0  0  0  0  0  0
   44.3221   32.9766   47.4651 H   0  0  0  0  0  0  0  0  0  0  0  0
  1  8  1  0
  2  1  1  0
  3  4  1  0
  3  2  1  0
  4  5  1  0
  5  1  1  0
  6 11  2  0
  7  6  1  0
  8  7  2  0
  8  9  1  0
  9 10  2  0
 10 11  1  0
 10 12  1  0
 12 16  1  0
 13 14  1  0
 13 12  1  0
 14 15  1  0
 16 15  1  0
  1 17  1  0
  2 18  1  0
  2 19  1  0
  3 20  1  0
  3 21  1  0
  4 22  1  0
  4 23  1  0
  5 24  1  0
  5 25  1  0
  6 26  1  0
  7 27  1  0
 12 28  1  0
 13 29  1  0
 13 30  1  0
 14 31  1  0
 14 32  1  0
 15 33  1  0
 15 34  1  0
 16 35  1  0
 16 36  1  0
M  ISO  8  17  13  18  13  19  13  20  13  21  13  22  13  23  13  24  13
M  ISO  8  25  13  26  14  27  14  28  13  29  13  30  13  31  13  32  13
M  ISO  4  33  13  34  13  35  13  36  13
M  END
>  <minimizedAffinity>  (1) 
-5.74880314

>  <minimizedRMSD>  (1) 
0.742934346

$$$$
