
     RDKit          3D

 26 27  0  0  0  0  0  0  0  0999 V2000
   47.0750   34.2980   42.2080 C   0  0  0  0  0  0  0  0  0  0  0  0
   46.3740   34.2900   40.9030 C   0  0  0  0  0  0  0  0  0  0  0  0
   47.5470   34.1880   39.9480 C   0  0  0  0  0  0  0  0  0  0  0  0
   48.5230   35.1670   40.5460 C   0  0  0  0  0  0  0  0  0  0  0  0
   48.1430   35.3580   41.9960 C   0  0  0  0  0  0  0  0  0  0  0  0
   44.5740   35.8340   44.6040 C   0  0  0  0  0  0  0  0  0  0  0  0
   45.3300   35.6620   43.4230 C   0  0  0  0  0  0  0  0  0  0  0  0
   46.2340   34.5790   43.3770 C   0  0  0  0  0  0  0  0  0  0  0  0
   46.3100   33.7840   44.4660 N   0  0  0  0  0  0  0  0  0  0  0  0
   45.5790   33.9640   45.5860 C   0  0  0  0  0  0  0  0  0  0  0  0
   44.7130   34.9930   45.6450 N   0  0  0  0  0  0  0  0  0  0  0  0
   45.7210   33.0520   46.7320 C   0  0  0  0  0  0  0  0  0  0  0  0
   47.4630   33.3002   42.4606 H   0  0  0  0  0  0  0  0  0  0  0  0
   45.7010   33.4248   40.8108 H   0  0  0  0  0  0  0  0  0  0  0  0
   45.7228   35.1598   40.7316 H   0  0  0  0  0  0  0  0  0  0  0  0
   47.2590   34.4830   38.9282 H   0  0  0  0  0  0  0  0  0  0  0  0
   47.9478   33.1688   39.8447 H   0  0  0  0  0  0  0  0  0  0  0  0
   49.5459   34.7686   40.4750 H   0  0  0  0  0  0  0  0  0  0  0  0
   48.4901   36.1254   40.0071 H   0  0  0  0  0  0  0  0  0  0  0  0
   49.0057   35.1887   42.6571 H   0  0  0  0  0  0  0  0  0  0  0  0
   47.7962   36.3766   42.2242 H   0  0  0  0  0  0  0  0  0  0  0  0
   43.8606   36.6684   44.6735 H   0  0  0  0  0  0  0  0  0  0  0  0
   45.2181   36.3474   42.5700 H   0  0  0  0  0  0  0  0  0  0  0  0
   45.6321   33.6228   47.6681 H   0  0  0  0  0  0  0  0  0  0  0  0
   44.9311   32.2875   46.6923 H   0  0  0  0  0  0  0  0  0  0  0  0
   46.7060   32.5639   46.6923 H   0  0  0  0  0  0  0  0  0  0  0  0
  1  8  1  0
  2  1  1  0
  3  4  1  0
  3  2  1  0
  4  5  1  0
  5  1  1  0
  6 11  2  0
  7  6  1  0
  8  7  2  0
  8  9  1  0
  9 10  2  0
 10 11  1  0
 10 12  1  0
  1 13  1  0
  2 14  1  0
  2 15  1  0
  3 16  1  0
  3 17  1  0
  4 18  1  0
  4 19  1  0
  5 20  1  0
  5 21  1  0
  6 22  1  0
  7 23  1  0
 12 24  1  0
 12 25  1  0
 12 26  1  0
M  ISO  8  13  13  14  13  15  13  16  13  17  13  18  13  19  13  20  13
M  ISO  6  21  13  22  14  23  14  24   8  25   8  26   8
M  END
>  <minimizedAffinity>  (1) 
-4.8915782

>  <minimizedRMSD>  (1) 
0.144842848

$$$$
