
     RDKit          3D

 38 40  0  0  0  0  0  0  0  0999 V2000
   44.9150   34.9270   44.7060 C   0  0  0  0  0  0  0  0  0  0  0  0
   45.6040   35.0050   43.4770 C   0  0  0  0  0  0  0  0  0  0  0  0
   46.7870   34.2350   43.3380 C   0  0  0  0  0  0  0  0  0  0  0  0
   47.1660   33.4790   44.3970 N   0  0  0  0  0  0  0  0  0  0  0  0
   46.4810   33.4270   45.5630 C   0  0  0  0  0  0  0  0  0  0  0  0
   45.3650   34.1480   45.7080 N   0  0  0  0  0  0  0  0  0  0  0  0
   47.5900   34.2370   42.1120 C   0  0  0  0  0  0  0  0  0  0  0  0
   46.8370   34.2430   40.8530 C   0  0  0  0  0  0  0  0  0  0  0  0
   47.9500   34.4470   39.8480 C   0  0  0  0  0  0  0  0  0  0  0  0
   48.8070   35.4860   40.5380 C   0  0  0  0  0  0  0  0  0  0  0  0
   48.4180   35.5200   41.9950 C   0  0  0  0  0  0  0  0  0  0  0  0
   46.9490   32.5670   46.6510 C   0  0  0  0  0  0  0  0  0  0  0  0
   45.7660   32.0870   47.3630 N   0  0  0  0  0  0  0  0  0  0  0  0
   45.5870   30.6670   47.2040 C   0  0  0  0  0  0  0  0  0  0  0  0
   44.9900   30.1530   48.4900 C   0  0  0  0  0  0  0  0  0  0  0  0
   45.2180   31.2220   49.5070 C   0  0  0  0  0  0  0  0  0  0  0  0
   45.8070   32.3850   48.7510 C   0  0  0  0  0  0  0  0  0  0  0  0
   43.9947   35.5125   44.8479 H   0  0  0  0  0  0  0  0  0  0  0  0
   45.2371   35.6397   42.6569 H   0  0  0  0  0  0  0  0  0  0  0  0
   48.1663   33.3064   42.2206 H   0  0  0  0  0  0  0  0  0  0  0  0
   46.3162   33.2879   40.6899 H   0  0  0  0  0  0  0  0  0  0  0  0
   46.0408   35.0005   40.8059 H   0  0  0  0  0  0  0  0  0  0  0  0
   47.5603   34.8218   38.8901 H   0  0  0  0  0  0  0  0  0  0  0  0
   48.4909   33.5245   39.5905 H   0  0  0  0  0  0  0  0  0  0  0  0
   49.8693   35.2172   40.4417 H   0  0  0  0  0  0  0  0  0  0  0  0
   48.6531   36.4737   40.0788 H   0  0  0  0  0  0  0  0  0  0  0  0
   49.3020   35.4903   42.6490 H   0  0  0  0  0  0  0  0  0  0  0  0
   47.8827   36.4319   42.2981 H   0  0  0  0  0  0  0  0  0  0  0  0
   47.5138   31.7161   46.2423 H   0  0  0  0  0  0  0  0  0  0  0  0
   47.6138   33.1224   47.3289 H   0  0  0  0  0  0  0  0  0  0  0  0
   44.9071   30.4634   46.3636 H   0  0  0  0  0  0  0  0  0  0  0  0
   46.5453   30.1713   46.9895 H   0  0  0  0  0  0  0  0  0  0  0  0
   43.9128   29.9688   48.3643 H   0  0  0  0  0  0  0  0  0  0  0  0
   45.4505   29.2019   48.7956 H   0  0  0  0  0  0  0  0  0  0  0  0
   44.2673   31.5126   49.9778 H   0  0  0  0  0  0  0  0  0  0  0  0
   45.8857   30.8809   50.3119 H   0  0  0  0  0  0  0  0  0  0  0  0
   46.8490   32.5429   49.0660 H   0  0  0  0  0  0  0  0  0  0  0  0
   45.2314   33.2993   48.9575 H   0  0  0  0  0  0  0  0  0  0  0  0
  1  6  2  0
  2  1  1  0
  3  2  2  0
  3  4  1  0
  4  5  2  0
  5  6  1  0
  5 12  1  0
  7  3  1  0
  8  7  1  0
  9 10  1  0
  9  8  1  0
 10 11  1  0
 11  7  1  0
 12 13  1  0
 13 17  1  0
 14 13  1  0
 14 15  1  0
 15 16  1  0
 17 16  1  0
  1 18  1  0
  2 19  1  0
  7 20  1  0
  8 21  1  0
  8 22  1  0
  9 23  1  0
  9 24  1  0
 10 25  1  0
 10 26  1  0
 11 27  1  0
 11 28  1  0
 12 29  1  0
 12 30  1  0
 14 31  1  0
 14 32  1  0
 15 33  1  0
 15 34  1  0
 16 35  1  0
 16 36  1  0
 17 37  1  0
 17 38  1  0
M  ISO  8  18  14  19  14  20  13  21  13  22  13  23  13  24  13  25  13
M  ISO  8  26  13  27  13  28  13  29   8  30   8  31  13  32  13  33  13
M  ISO  5  34  13  35  13  36  13  37  13  38  13
M  END
>  <minimizedAffinity>  (1) 
-5.84497643

>  <minimizedRMSD>  (1) 
1.69426394

$$$$
