
     RDKit          3D

 36 38  0  0  0  0  0  0  0  0999 V2000
   44.8300   35.1430   44.5240 C   0  0  0  0  0  0  0  0  0  0  0  0
   45.5850   35.1540   43.3310 C   0  0  0  0  0  0  0  0  0  0  0  0
   46.7510   34.3460   43.2500 C   0  0  0  0  0  0  0  0  0  0  0  0
   47.0630   33.6070   44.3470 N   0  0  0  0  0  0  0  0  0  0  0  0
   46.3300   33.6080   45.4840 C   0  0  0  0  0  0  0  0  0  0  0  0
   45.2170   34.3780   45.5620 N   0  0  0  0  0  0  0  0  0  0  0  0
   47.5850   34.3020   42.0580 C   0  0  0  0  0  0  0  0  0  0  0  0
   46.8760   34.2510   40.7710 C   0  0  0  0  0  0  0  0  0  0  0  0
   48.0290   34.4270   39.7980 C   0  0  0  0  0  0  0  0  0  0  0  0
   48.8520   35.4940   40.4580 C   0  0  0  0  0  0  0  0  0  0  0  0
   48.4510   35.5540   41.9220 C   0  0  0  0  0  0  0  0  0  0  0  0
   46.7270   32.7860   46.6270 C   0  0  0  0  0  0  0  0  0  0  0  0
   46.0620   31.4680   46.6620 C   0  0  0  0  0  0  0  0  0  0  0  0
   45.6270   31.0420   47.9130 C   0  0  0  0  0  0  0  0  0  0  0  0
   44.9910   29.8280   48.0810 C   0  0  0  0  0  0  0  0  0  0  0  0
   44.7870   29.0280   46.9780 C   0  0  0  0  0  0  0  0  0  0  0  0
   45.2260   29.4750   45.7610 C   0  0  0  0  0  0  0  0  0  0  0  0
   45.8670   30.6810   45.5450 C   0  0  0  0  0  0  0  0  0  0  0  0
   43.9236   35.7609   44.6055 H   0  0  0  0  0  0  0  0  0  0  0  0
   45.2759   35.7773   42.4790 H   0  0  0  0  0  0  0  0  0  0  0  0
   48.1443   33.3695   42.2244 H   0  0  0  0  0  0  0  0  0  0  0  0
   46.3695   33.2853   40.6268 H   0  0  0  0  0  0  0  0  0  0  0  0
   46.0749   34.9973   40.6647 H   0  0  0  0  0  0  0  0  0  0  0  0
   47.6699   34.7554   38.8115 H   0  0  0  0  0  0  0  0  0  0  0  0
   48.5870   33.4984   39.6072 H   0  0  0  0  0  0  0  0  0  0  0  0
   49.9207   35.2479   40.3730 H   0  0  0  0  0  0  0  0  0  0  0  0
   48.6792   36.4661   39.9731 H   0  0  0  0  0  0  0  0  0  0  0  0
   49.3306   35.5066   42.5809 H   0  0  0  0  0  0  0  0  0  0  0  0
   47.9381   36.4846   42.2066 H   0  0  0  0  0  0  0  0  0  0  0  0
   47.8144   32.6265   46.5806 H   0  0  0  0  0  0  0  0  0  0  0  0
   46.4238   33.3264   47.5359 H   0  0  0  0  0  0  0  0  0  0  0  0
   45.7936   31.6871   48.7883 H   0  0  0  0  0  0  0  0  0  0  0  0
   44.6534   29.5055   49.0770 H   0  0  0  0  0  0  0  0  0  0  0  0
   44.2839   28.0544   47.0730 H   0  0  0  0  0  0  0  0  0  0  0  0
   45.0561   28.8260   44.8893 H   0  0  0  0  0  0  0  0  0  0  0  0
   46.2009   30.9939   44.5447 H   0  0  0  0  0  0  0  0  0  0  0  0
  1  6  2  0
  2  1  1  0
  3  2  2  0
  3  4  1  0
  4  5  2  0
  5  6  1  0
  5 12  1  0
  7  3  1  0
  8  7  1  0
  9 10  1  0
  9  8  1  0
 10 11  1  0
 11  7  1  0
 12 13  1  0
 13 14  2  0
 14 15  1  0
 16 15  2  0
 17 16  1  0
 18 17  2  0
 18 13  1  0
  1 19  1  0
  2 20  1  0
  7 21  1  0
  8 22  1  0
  8 23  1  0
  9 24  1  0
  9 25  1  0
 10 26  1  0
 10 27  1  0
 11 28  1  0
 11 29  1  0
 12 30  1  0
 12 31  1  0
 14 32  1  0
 15 33  1  0
 16 34  1  0
 17 35  1  0
 18 36  1  0
M  ISO  8  19  14  20  14  21  13  22  13  23  13  24  13  25  13  26  13
M  ISO  8  27  13  28  13  29  13  30   8  31   8  32  14  33  14  34  14
M  ISO  2  35  14  36  14
M  END
>  <minimizedAffinity>  (1) 
-5.67695379

>  <minimizedRMSD>  (1) 
1.1070224

$$$$
