
     RDKit          3D

 39 42  0  0  0  0  0  0  0  0999 V2000
   44.6740   35.6880   44.2770 C   0  0  0  0  0  0  0  0  0  0  0  0
   45.5170   35.5780   43.1500 C   0  0  0  0  0  0  0  0  0  0  0  0
   46.5510   34.6060   43.1660 C   0  0  0  0  0  0  0  0  0  0  0  0
   46.6590   33.8440   44.2700 N   0  0  0  0  0  0  0  0  0  0  0  0
   45.8470   33.9560   45.3460 C   0  0  0  0  0  0  0  0  0  0  0  0
   44.8580   34.8800   45.3390 N   0  0  0  0  0  0  0  0  0  0  0  0
   47.4630   34.4400   42.0310 C   0  0  0  0  0  0  0  0  0  0  0  0
   46.8460   34.3330   40.7020 C   0  0  0  0  0  0  0  0  0  0  0  0
   48.0760   34.3940   39.8090 C   0  0  0  0  0  0  0  0  0  0  0  0
   48.8820   35.4900   40.4510 C   0  0  0  0  0  0  0  0  0  0  0  0
   48.4080   35.6320   41.8810 C   0  0  0  0  0  0  0  0  0  0  0  0
   46.0450   33.0790   46.5080 C   0  0  0  0  0  0  0  0  0  0  0  0
   45.9200   31.6720   46.2300 N   0  0  0  0  0  0  0  0  0  0  0  0
   46.1450   31.1680   44.9960 C   0  0  0  0  0  0  0  0  0  0  0  0
   45.9660   29.8260   44.9790 N   0  0  0  0  0  0  0  0  0  0  0  0
   45.6170   29.4480   46.2330 C   0  0  0  0  0  0  0  0  0  0  0  0
   45.3080   28.2580   46.8490 C   0  0  0  0  0  0  0  0  0  0  0  0
   45.0000   28.2840   48.1600 N   0  0  0  0  0  0  0  0  0  0  0  0
   44.9780   29.4080   48.8930 C   0  0  0  0  0  0  0  0  0  0  0  0
   45.2810   30.6010   48.3040 N   0  0  0  0  0  0  0  0  0  0  0  0
   45.5970   30.6090   46.9820 C   0  0  0  0  0  0  0  0  0  0  0  0
   45.3350   27.0800   46.0550 N   0  0  0  0  0  0  0  0  0  0  0  0
   43.8660   36.4343   44.2880 H   0  0  0  0  0  0  0  0  0  0  0  0
   45.3753   36.2323   42.2772 H   0  0  0  0  0  0  0  0  0  0  0  0
   47.9534   33.4914   42.2949 H   0  0  0  0  0  0  0  0  0  0  0  0
   46.3058   33.3823   40.5821 H   0  0  0  0  0  0  0  0  0  0  0  0
   46.0902   35.1031   40.4882 H   0  0  0  0  0  0  0  0  0  0  0  0
   47.8052   34.6519   38.7745 H   0  0  0  0  0  0  0  0  0  0  0  0
   48.6138   33.4375   39.7330 H   0  0  0  0  0  0  0  0  0  0  0  0
   49.9503   35.2283   40.4346 H   0  0  0  0  0  0  0  0  0  0  0  0
   48.7496   36.4359   39.9054 H   0  0  0  0  0  0  0  0  0  0  0  0
   49.2484   35.5655   42.5877 H   0  0  0  0  0  0  0  0  0  0  0  0
   47.9320   36.6008   42.0930 H   0  0  0  0  0  0  0  0  0  0  0  0
   47.0541   33.2609   46.9062 H   0  0  0  0  0  0  0  0  0  0  0  0
   45.2459   33.3260   47.2224 H   0  0  0  0  0  0  0  0  0  0  0  0
   46.4351   31.7687   44.1214 H   0  0  0  0  0  0  0  0  0  0  0  0
   44.7176   29.3678   49.9610 H   0  0  0  0  0  0  0  0  0  0  0  0
   45.1098   26.1684   46.4783 H   0  0  0  0  0  0  0  0  0  0  0  0
   45.5798   27.1377   45.0562 H   0  0  0  0  0  0  0  0  0  0  0  0
  1  6  2  0
  2  3  2  0
  2  1  1  0
  3  4  1  0
  4  5  2  0
  5 12  1  0
  6  5  1  0
  7  3  1  0
  8  7  1  0
  9 10  1  0
  9  8  1  0
 10 11  1  0
 11  7  1  0
 13 12  1  0
 13 21  1  0
 14 13  1  0
 15 14  2  0
 15 16  1  0
 16 17  2  0
 16 21  1  0
 17 18  1  0
 18 19  2  0
 20 19  1  0
 21 20  2  0
 22 17  1  0
  1 23  1  0
  2 24  1  0
  7 25  1  0
  8 26  1  0
  8 27  1  0
  9 28  1  0
  9 29  1  0
 10 30  1  0
 10 31  1  0
 11 32  1  0
 11 33  1  0
 12 34  1  0
 12 35  1  0
 14 36  1  0
 19 37  1  0
 22 38  1  0
 22 39  1  0
M  ISO  8  23  14  24  14  25  13  26  13  27  13  28  13  29  13  30  13
M  ISO  7  31  13  32  13  33  13  34   8  35   8  36  14  37  14
M  END
>  <minimizedAffinity>  (1) 
-5.79816008

>  <minimizedRMSD>  (1) 
1.49055183

$$$$
