
     RDKit          3D

 36 38  0  0  0  0  0  0  0  0999 V2000
   44.8450   35.0980   44.5320 C   0  0  0  0  0  0  0  0  0  0  0  0
   45.5960   35.1190   43.3270 C   0  0  0  0  0  0  0  0  0  0  0  0
   46.7670   34.3210   43.2610 C   0  0  0  0  0  0  0  0  0  0  0  0
   47.0880   33.6000   44.3420 N   0  0  0  0  0  0  0  0  0  0  0  0
   46.3570   33.5930   45.4870 C   0  0  0  0  0  0  0  0  0  0  0  0
   45.2350   34.3500   45.5670 N   0  0  0  0  0  0  0  0  0  0  0  0
   47.5910   34.2860   42.0510 C   0  0  0  0  0  0  0  0  0  0  0  0
   46.8700   34.2530   40.7690 C   0  0  0  0  0  0  0  0  0  0  0  0
   48.0290   34.4070   39.7970 C   0  0  0  0  0  0  0  0  0  0  0  0
   48.8480   35.4960   40.4560 C   0  0  0  0  0  0  0  0  0  0  0  0
   48.4660   35.5340   41.9200 C   0  0  0  0  0  0  0  0  0  0  0  0
   46.7730   32.7720   46.6250 C   0  0  0  0  0  0  0  0  0  0  0  0
   46.0780   31.4590   46.6100 C   0  0  0  0  0  0  0  0  0  0  0  0
   45.8530   30.6720   45.4980 C   0  0  0  0  0  0  0  0  0  0  0  0
   45.1920   29.4760   45.6500 C   0  0  0  0  0  0  0  0  0  0  0  0
   44.7680   29.0870   46.8920 C   0  0  0  0  0  0  0  0  0  0  0  0
   44.9720   29.8470   48.0480 C   0  0  0  0  0  0  0  0  0  0  0  0
   45.6430   31.0520   47.8680 C   0  0  0  0  0  0  0  0  0  0  0  0
   43.9313   35.7050   44.6137 H   0  0  0  0  0  0  0  0  0  0  0  0
   45.2798   35.7345   42.4719 H   0  0  0  0  0  0  0  0  0  0  0  0
   48.1436   33.3468   42.2012 H   0  0  0  0  0  0  0  0  0  0  0  0
   46.3422   33.2989   40.6241 H   0  0  0  0  0  0  0  0  0  0  0  0
   46.0810   35.0126   40.6665 H   0  0  0  0  0  0  0  0  0  0  0  0
   47.6778   34.7175   38.8019 H   0  0  0  0  0  0  0  0  0  0  0  0
   48.5878   33.4760   39.6212 H   0  0  0  0  0  0  0  0  0  0  0  0
   49.9202   35.2726   40.3539 H   0  0  0  0  0  0  0  0  0  0  0  0
   48.6516   36.4682   39.9803 H   0  0  0  0  0  0  0  0  0  0  0  0
   49.3535   35.4699   42.5667 H   0  0  0  0  0  0  0  0  0  0  0  0
   47.9623   36.4635   42.2237 H   0  0  0  0  0  0  0  0  0  0  0  0
   47.8591   32.6058   46.5720 H   0  0  0  0  0  0  0  0  0  0  0  0
   46.5113   33.2990   47.5544 H   0  0  0  0  0  0  0  0  0  0  0  0
   46.1975   30.9971   44.5052 H   0  0  0  0  0  0  0  0  0  0  0  0
   45.0046   28.8340   44.7766 H   0  0  0  0  0  0  0  0  0  0  0  0
   44.2394   28.1269   46.9856 H   0  0  0  0  0  0  0  0  0  0  0  0
   44.6240   29.5131   49.0367 H   0  0  0  0  0  0  0  0  0  0  0  0
   45.8339   31.6970   48.7383 H   0  0  0  0  0  0  0  0  0  0  0  0
  1  6  2  0
  2  1  1  0
  3  2  2  0
  3  4  1  0
  4  5  2  0
  5  6  1  0
  5 12  1  0
  7  3  1  0
  8  7  1  0
  9 10  1  0
  9  8  1  0
 10 11  1  0
 11  7  1  0
 13 12  1  0
 13 18  2  0
 14 15  2  0
 14 13  1  0
 15 16  1  0
 16 17  2  0
 18 17  1  0
  1 19  1  0
  2 20  1  0
  7 21  1  0
  8 22  1  0
  8 23  1  0
  9 24  1  0
  9 25  1  0
 10 26  1  0
 10 27  1  0
 11 28  1  0
 11 29  1  0
 12 30  1  0
 12 31  1  0
 14 32  1  0
 15 33  1  0
 16 34  1  0
 17 35  1  0
 18 36  1  0
M  ISO  8  19  14  20  14  21  13  22  13  23  13  24  13  25  13  26  13
M  ISO  8  27  13  28  13  29  13  30   8  31   8  32  14  33  14  34  14
M  ISO  2  35  14  36  14
M  END
>  <minimizedAffinity>  (1) 
-5.63749409

>  <minimizedRMSD>  (1) 
1.23550344

$$$$
