
     RDKit          3D

 27 28  0  0  0  0  0  0  0  0999 V2000
   47.0570   34.3270   42.1710 C   0  0  0  0  0  0  0  0  0  0  0  0
   46.3800   34.2890   40.8680 C   0  0  0  0  0  0  0  0  0  0  0  0
   47.5760   34.1650   39.9330 C   0  0  0  0  0  0  0  0  0  0  0  0
   48.5640   35.1230   40.5370 C   0  0  0  0  0  0  0  0  0  0  0  0
   48.1200   35.4090   41.9480 C   0  0  0  0  0  0  0  0  0  0  0  0
   44.5710   35.9480   44.5260 C   0  0  0  0  0  0  0  0  0  0  0  0
   45.3390   35.7420   43.3510 C   0  0  0  0  0  0  0  0  0  0  0  0
   46.2180   34.6270   43.3300 C   0  0  0  0  0  0  0  0  0  0  0  0
   46.2510   33.8550   44.4310 N   0  0  0  0  0  0  0  0  0  0  0  0
   45.5230   34.0540   45.5380 C   0  0  0  0  0  0  0  0  0  0  0  0
   44.6820   35.1030   45.5820 N   0  0  0  0  0  0  0  0  0  0  0  0
   45.6250   33.1540   46.6970 C   0  0  0  0  0  0  0  0  0  0  0  0
   46.8400   31.8540   46.3680 S   0  0  0  0  0  0  0  0  0  0  0  0
   47.4408   33.3320   42.4405 H   0  0  0  0  0  0  0  0  0  0  0  0
   45.7088   33.4215   40.7850 H   0  0  0  0  0  0  0  0  0  0  0  0
   45.7295   35.1526   40.6657 H   0  0  0  0  0  0  0  0  0  0  0  0
   47.3109   34.4618   38.9075 H   0  0  0  0  0  0  0  0  0  0  0  0
   47.9593   33.1376   39.8463 H   0  0  0  0  0  0  0  0  0  0  0  0
   49.5672   34.6719   40.5440 H   0  0  0  0  0  0  0  0  0  0  0  0
   48.6075   36.0527   39.9506 H   0  0  0  0  0  0  0  0  0  0  0  0
   48.9531   35.3038   42.6586 H   0  0  0  0  0  0  0  0  0  0  0  0
   47.7492   36.4337   42.0980 H   0  0  0  0  0  0  0  0  0  0  0  0
   43.8788   36.8011   44.5816 H   0  0  0  0  0  0  0  0  0  0  0  0
   45.2566   36.4203   42.4890 H   0  0  0  0  0  0  0  0  0  0  0  0
   45.9390   33.7309   47.5794 H   0  0  0  0  0  0  0  0  0  0  0  0
   44.6440   32.6921   46.8822 H   0  0  0  0  0  0  0  0  0  0  0  0
   47.3070   31.3544   47.5551 H   0  0  0  0  0  0  0  0  0  0  0  0
  1  8  1  0
  2  1  1  0
  3  4  1  0
  3  2  1  0
  4  5  1  0
  5  1  1  0
  6 11  2  0
  7  6  1  0
  8  7  2  0
  8  9  1  0
  9 10  2  0
 10 11  1  0
 10 12  1  0
 13 12  1  0
  1 14  1  0
  2 15  1  0
  2 16  1  0
  3 17  1  0
  3 18  1  0
  4 19  1  0
  4 20  1  0
  5 21  1  0
  5 22  1  0
  6 23  1  0
  7 24  1  0
 12 25  1  0
 12 26  1  0
 13 27  1  0
M  ISO  8  14  13  15  13  16  13  17  13  18  13  19  13  20  13  21  13
M  ISO  6  22  13  23  14  24  14  25   8  26   8  27  11
M  END
>  <minimizedAffinity>  (1) 
-4.85779858

>  <minimizedRMSD>  (1) 
0.654463887

$$$$
