
     RDKit          3D

 47 51  0  0  0  0  0  0  0  0999 V2000
   47.2710   31.9300   46.7070 C   0  0  0  0  0  0  0  0  0  0  0  0
   46.3660   31.5690   47.7630 N   0  0  0  0  0  0  0  0  0  0  0  0
   46.0690   32.1940   48.9040 C   0  0  0  0  0  0  0  0  0  0  0  0
   45.1300   31.4590   49.6160 C   0  0  0  0  0  0  0  0  0  0  0  0
   44.8580   30.3620   48.8790 N   0  0  0  0  0  0  0  0  0  0  0  0
   45.6040   30.4390   47.7710 C   0  0  0  0  0  0  0  0  0  0  0  0
   45.5080   29.3910   46.8050 N   0  0  0  0  0  0  0  0  0  0  0  0
   44.3860   28.8880   46.2600 C   0  0  0  0  0  0  0  0  0  0  0  0
   44.7410   27.9030   45.3870 N   0  0  0  0  0  0  0  0  0  0  0  0
   46.0790   27.8040   45.4010 C   0  0  0  0  0  0  0  0  0  0  0  0
   46.9110   26.9580   44.6910 C   0  0  0  0  0  0  0  0  0  0  0  0
   46.5190   26.0860   43.8650 O   0  0  0  0  0  0  0  0  0  0  0  0
   48.2590   27.0420   44.8730 N   0  0  0  0  0  0  0  0  0  0  0  0
   48.7420   27.9610   45.7500 C   0  0  0  0  0  0  0  0  0  0  0  0
   50.1230   28.1670   46.0460 N   0  0  0  0  0  0  0  0  0  0  0  0
   47.9090   28.7770   46.4310 N   0  0  0  0  0  0  0  0  0  0  0  0
   46.5710   28.7360   46.2900 C   0  0  0  0  0  0  0  0  0  0  0  0
   45.1130   34.4840   45.1470 C   0  0  0  0  0  0  0  0  0  0  0  0
   45.7300   34.6680   43.8880 C   0  0  0  0  0  0  0  0  0  0  0  0
   46.8970   33.9030   43.5860 C   0  0  0  0  0  0  0  0  0  0  0  0
   47.3350   33.0470   44.5380 N   0  0  0  0  0  0  0  0  0  0  0  0
   46.7300   32.8820   45.7410 C   0  0  0  0  0  0  0  0  0  0  0  0
   45.6350   33.5930   46.0390 N   0  0  0  0  0  0  0  0  0  0  0  0
   47.5910   34.0280   42.3070 C   0  0  0  0  0  0  0  0  0  0  0  0
   46.7210   34.2830   41.1360 C   0  0  0  0  0  0  0  0  0  0  0  0
   47.7920   34.5080   40.0700 C   0  0  0  0  0  0  0  0  0  0  0  0
   48.7620   35.3990   40.7940 C   0  0  0  0  0  0  0  0  0  0  0  0
   48.5660   35.1850   42.2940 C   0  0  0  0  0  0  0  0  0  0  0  0
   48.1684   32.3751   47.1615 H   0  0  0  0  0  0  0  0  0  0  0  0
   47.4827   31.0061   46.1488 H   0  0  0  0  0  0  0  0  0  0  0  0
   46.5035   33.1498   49.2320 H   0  0  0  0  0  0  0  0  0  0  0  0
   44.6930   31.7203   50.5911 H   0  0  0  0  0  0  0  0  0  0  0  0
   43.3592   29.2150   46.4806 H   0  0  0  0  0  0  0  0  0  0  0  0
   48.8987   26.4216   44.3564 H   0  0  0  0  0  0  0  0  0  0  0  0
   50.4018   28.8882   46.7264 H   0  0  0  0  0  0  0  0  0  0  0  0
   50.8407   27.5944   45.5792 H   0  0  0  0  0  0  0  0  0  0  0  0
   44.2122   35.0591   45.4073 H   0  0  0  0  0  0  0  0  0  0  0  0
   45.3208   35.3831   43.1591 H   0  0  0  0  0  0  0  0  0  0  0  0
   48.0745   33.0439   42.2187 H   0  0  0  0  0  0  0  0  0  0  0  0
   46.0843   33.4172   40.9016 H   0  0  0  0  0  0  0  0  0  0  0  0
   46.0016   35.1062   41.2578 H   0  0  0  0  0  0  0  0  0  0  0  0
   47.3755   35.0067   39.1824 H   0  0  0  0  0  0  0  0  0  0  0  0
   48.2404   33.5801   39.6854 H   0  0  0  0  0  0  0  0  0  0  0  0
   49.7924   35.1381   40.5107 H   0  0  0  0  0  0  0  0  0  0  0  0
   48.5850   36.4523   40.5307 H   0  0  0  0  0  0  0  0  0  0  0  0
   49.5116   34.9195   42.7893 H   0  0  0  0  0  0  0  0  0  0  0  0
   48.2122   36.0766   42.8325 H   0  0  0  0  0  0  0  0  0  0  0  0
  1  2  1  0
  2  6  1  0
  2  3  1  0
  3  4  2  0
  5  4  1  0
  6  5  2  0
  7  6  1  0
  8  7  1  0
  9 10  1  0
  9  8  2  0
 10 17  2  0
 11 13  1  0
 11 10  1  0
 12 11  2  0
 13 14  1  0
 14 15  1  0
 14 16  2  0
 17 16  1  0
 17  7  1  0
 18 23  2  0
 19 18  1  0
 20 19  2  0
 20 21  1  0
 21 22  2  0
 22 23  1  0
 22  1  1  0
 24 20  1  0
 25 24  1  0
 26 27  1  0
 26 25  1  0
 27 28  1  0
 28 24  1  0
  1 29  1  0
  1 30  1  0
  3 31  1  0
  4 32  1  0
  8 33  1  0
 13 34  1  0
 15 35  1  0
 15 36  1  0
 18 37  1  0
 19 38  1  0
 24 39  1  0
 25 40  1  0
 25 41  1  0
 26 42  1  0
 26 43  1  0
 27 44  1  0
 27 45  1  0
 28 46  1  0
 28 47  1  0
M  ISO  8  29   8  30   8  31  14  32  14  33  14  34   9  37  14  38  14
M  ISO  8  39  13  40  13  41  13  42  13  43  13  44  13  45  13  46  13
M  ISO  1  47  13
M  END
>  <minimizedAffinity>  (1) 
-6.14804173

>  <minimizedRMSD>  (1) 
3.89463472

$$$$
