
     RDKit          3D

 44 47  0  0  0  0  0  0  0  0999 V2000
   45.2120   34.3610   45.0660 C   0  0  0  0  0  0  0  0  0  0  0  0
   45.8640   34.6280   43.8390 C   0  0  0  0  0  0  0  0  0  0  0  0
   47.0090   33.8380   43.5100 C   0  0  0  0  0  0  0  0  0  0  0  0
   47.3910   32.8910   44.3940 N   0  0  0  0  0  0  0  0  0  0  0  0
   46.7480   32.6560   45.5650 C   0  0  0  0  0  0  0  0  0  0  0  0
   45.6680   33.3880   45.8940 N   0  0  0  0  0  0  0  0  0  0  0  0
   47.7420   34.0400   42.2560 C   0  0  0  0  0  0  0  0  0  0  0  0
   46.9020   34.3100   41.0670 C   0  0  0  0  0  0  0  0  0  0  0  0
   47.9930   34.6230   40.0450 C   0  0  0  0  0  0  0  0  0  0  0  0
   48.9100   35.5170   40.8380 C   0  0  0  0  0  0  0  0  0  0  0  0
   48.6810   35.2240   42.3190 C   0  0  0  0  0  0  0  0  0  0  0  0
   47.2280   31.6040   46.4650 C   0  0  0  0  0  0  0  0  0  0  0  0
   46.4070   31.3970   47.6260 N   0  0  0  0  0  0  0  0  0  0  0  0
   46.1350   32.2060   48.6510 C   0  0  0  0  0  0  0  0  0  0  0  0
   45.2880   31.5810   49.5510 C   0  0  0  0  0  0  0  0  0  0  0  0
   45.0400   30.3570   49.0570 N   0  0  0  0  0  0  0  0  0  0  0  0
   45.7190   30.2540   47.8940 C   0  0  0  0  0  0  0  0  0  0  0  0
   45.7200   29.0910   47.0470 N   0  0  0  0  0  0  0  0  0  0  0  0
   44.4690   28.6900   46.6790 C   0  0  0  0  0  0  0  0  0  0  0  0
   44.3220   27.5840   45.8650 C   0  0  0  0  0  0  0  0  0  0  0  0
   45.4630   26.9090   45.4440 C   0  0  0  0  0  0  0  0  0  0  0  0
   45.3230   25.7730   44.6090 N   0  0  0  0  0  0  0  0  0  0  0  0
   46.6790   27.3540   45.8420 N   0  0  0  0  0  0  0  0  0  0  0  0
   46.8150   28.4290   46.6330 C   0  0  0  0  0  0  0  0  0  0  0  0
   47.9270   28.8760   47.0270 O   0  0  0  0  0  0  0  0  0  0  0  0
   44.3267   34.9482   45.3513 H   0  0  0  0  0  0  0  0  0  0  0  0
   45.5024   35.4159   43.1619 H   0  0  0  0  0  0  0  0  0  0  0  0
   48.2616   33.0766   42.1469 H   0  0  0  0  0  0  0  0  0  0  0  0
   46.3092   33.4301   40.7764 H   0  0  0  0  0  0  0  0  0  0  0  0
   46.1476   35.0995   41.1994 H   0  0  0  0  0  0  0  0  0  0  0  0
   47.5828   35.1462   39.1686 H   0  0  0  0  0  0  0  0  0  0  0  0
   48.4871   33.7307   39.6331 H   0  0  0  0  0  0  0  0  0  0  0  0
   49.9571   35.3088   40.5728 H   0  0  0  0  0  0  0  0  0  0  0  0
   48.7005   36.5743   40.6185 H   0  0  0  0  0  0  0  0  0  0  0  0
   48.2141   36.0793   42.8294 H   0  0  0  0  0  0  0  0  0  0  0  0
   49.6049   35.0315   42.8840 H   0  0  0  0  0  0  0  0  0  0  0  0
   47.2700   30.6608   45.9005 H   0  0  0  0  0  0  0  0  0  0  0  0
   48.2134   31.9286   46.8306 H   0  0  0  0  0  0  0  0  0  0  0  0
   46.5284   33.2268   48.7655 H   0  0  0  0  0  0  0  0  0  0  0  0
   44.8952   32.0043   50.4873 H   0  0  0  0  0  0  0  0  0  0  0  0
   43.5845   29.2431   47.0278 H   0  0  0  0  0  0  0  0  0  0  0  0
   43.3227   27.2438   45.5558 H   0  0  0  0  0  0  0  0  0  0  0  0
   44.3856   25.4572   44.3220 H   0  0  0  0  0  0  0  0  0  0  0  0
   46.1587   25.2630   44.2890 H   0  0  0  0  0  0  0  0  0  0  0  0
  1  6  2  0
  2  1  1  0
  3  2  2  0
  3  4  1  0
  4  5  2  0
  5  6  1  0
  5 12  1  0
  7 11  1  0
  7  3  1  0
  8  7  1  0
  9 10  1  0
  9  8  1  0
 10 11  1  0
 12 13  1  0
 13 17  1  0
 13 14  1  0
 14 15  2  0
 16 15  1  0
 17 16  2  0
 18 17  1  0
 19 18  1  0
 20 19  2  0
 21 23  2  0
 21 20  1  0
 22 21  1  0
 23 24  1  0
 24 25  2  0
 24 18  1  0
  1 26  1  0
  2 27  1  0
  7 28  1  0
  8 29  1  0
  8 30  1  0
  9 31  1  0
  9 32  1  0
 10 33  1  0
 10 34  1  0
 11 35  1  0
 11 36  1  0
 12 37  1  0
 12 38  1  0
 14 39  1  0
 15 40  1  0
 19 41  1  0
 20 42  1  0
 22 43  1  0
 22 44  1  0
M  ISO  8  26  14  27  14  28  13  29  13  30  13  31  13  32  13  33  13
M  ISO  8  34  13  35  13  36  13  37   8  38   8  39  14  40  14  41  14
M  ISO  1  42  14
M  END
>  <minimizedAffinity>  (1) 
-6.17481709

>  <minimizedRMSD>  (1) 
3.34555697

$$$$
