
     RDKit          3D

 39 42  0  0  0  0  0  0  0  0999 V2000
   45.6480   33.8680   44.9740 C   0  0  0  0  0  0  0  0  0  0  0  0
   46.3620   34.3840   43.8630 C   0  0  0  0  0  0  0  0  0  0  0  0
   47.1380   33.4610   43.0970 C   0  0  0  0  0  0  0  0  0  0  0  0
   47.1330   32.1700   43.4870 N   0  0  0  0  0  0  0  0  0  0  0  0
   46.4400   31.7070   44.5540 C   0  0  0  0  0  0  0  0  0  0  0  0
   45.7040   32.5540   45.2880 N   0  0  0  0  0  0  0  0  0  0  0  0
   47.9020   33.9000   41.9290 C   0  0  0  0  0  0  0  0  0  0  0  0
   47.1040   34.1870   40.7150 C   0  0  0  0  0  0  0  0  0  0  0  0
   48.1940   34.7440   39.8160 C   0  0  0  0  0  0  0  0  0  0  0  0
   48.9430   35.6540   40.7550 C   0  0  0  0  0  0  0  0  0  0  0  0
   48.6760   35.1680   42.1760 C   0  0  0  0  0  0  0  0  0  0  0  0
   46.4980   30.2800   44.8950 C   0  0  0  0  0  0  0  0  0  0  0  0
   47.6130   29.9150   45.7240 N   0  0  0  0  0  0  0  0  0  0  0  0
   48.7950   29.3820   45.4110 C   0  0  0  0  0  0  0  0  0  0  0  0
   49.5600   29.2010   46.5480 C   0  0  0  0  0  0  0  0  0  0  0  0
   48.8120   29.6410   47.5850 N   0  0  0  0  0  0  0  0  0  0  0  0
   47.6540   30.0620   47.0690 C   0  0  0  0  0  0  0  0  0  0  0  0
   46.6660   30.5840   47.9570 N   0  0  0  0  0  0  0  0  0  0  0  0
   45.4800   30.1180   48.3870 C   0  0  0  0  0  0  0  0  0  0  0  0
   44.9170   31.0010   49.2350 N   0  0  0  0  0  0  0  0  0  0  0  0
   45.7730   32.0340   49.3310 C   0  0  0  0  0  0  0  0  0  0  0  0
   46.8360   31.7730   48.5500 N   0  0  0  0  0  0  0  0  0  0  0  0
   45.0395   34.5467   45.5896 H   0  0  0  0  0  0  0  0  0  0  0  0
   46.3201   35.4516   43.6015 H   0  0  0  0  0  0  0  0  0  0  0  0
   48.5506   33.0278   41.7600 H   0  0  0  0  0  0  0  0  0  0  0  0
   46.6542   33.2749   40.2958 H   0  0  0  0  0  0  0  0  0  0  0  0
   46.2430   34.8536   40.8706 H   0  0  0  0  0  0  0  0  0  0  0  0
   48.8437   33.9432   39.4330 H   0  0  0  0  0  0  0  0  0  0  0  0
   47.8111   35.2521   38.9187 H   0  0  0  0  0  0  0  0  0  0  0  0
   50.0209   35.6107   40.5397 H   0  0  0  0  0  0  0  0  0  0  0  0
   48.6098   36.6952   40.6330 H   0  0  0  0  0  0  0  0  0  0  0  0
   48.0789   35.8974   42.7430 H   0  0  0  0  0  0  0  0  0  0  0  0
   49.5870   35.0236   42.7754 H   0  0  0  0  0  0  0  0  0  0  0  0
   45.5722   30.0150   45.4266 H   0  0  0  0  0  0  0  0  0  0  0  0
   46.6181   29.7344   43.9474 H   0  0  0  0  0  0  0  0  0  0  0  0
   49.1159   29.1229   44.3913 H   0  0  0  0  0  0  0  0  0  0  0  0
   50.5758   28.7821   46.5991 H   0  0  0  0  0  0  0  0  0  0  0  0
   45.0348   29.1570   48.0900 H   0  0  0  0  0  0  0  0  0  0  0  0
   45.6284   32.9366   49.9429 H   0  0  0  0  0  0  0  0  0  0  0  0
  1  6  2  0
  2  1  1  0
  3  4  1  0
  3  2  2  0
  4  5  2  0
  5 12  1  0
  5  6  1  0
  7 11  1  0
  7  3  1  0
  8  7  1  0
  9  8  1  0
  9 10  1  0
 10 11  1  0
 12 13  1  0
 13 17  1  0
 14 13  1  0
 14 15  2  0
 15 16  1  0
 17 16  2  0
 17 18  1  0
 18 19  1  0
 18 22  1  0
 19 20  2  0
 20 21  1  0
 22 21  2  0
  1 23  1  0
  2 24  1  0
  7 25  1  0
  8 26  1  0
  8 27  1  0
  9 28  1  0
  9 29  1  0
 10 30  1  0
 10 31  1  0
 11 32  1  0
 11 33  1  0
 12 34  1  0
 12 35  1  0
 14 36  1  0
 15 37  1  0
 19 38  1  0
 21 39  1  0
M  ISO  8  23  14  24  14  25  13  26  13  27  13  28  13  29  13  30  13
M  ISO  8  31  13  32  13  33  13  34   8  35   8  36  14  37  14  38  14
M  ISO  1  39  14
M  END
>  <minimizedAffinity>  (1) 
-5.28753805

>  <minimizedRMSD>  (1) 
2.44006252

$$$$
