
     RDKit          3D

 40 43  0  0  0  0  0  0  0  0999 V2000
   45.7740   33.5220   45.1140 C   0  0  0  0  0  0  0  0  0  0  0  0
   46.4310   34.1030   44.0000 C   0  0  0  0  0  0  0  0  0  0  0  0
   47.2900   33.2580   43.2300 C   0  0  0  0  0  0  0  0  0  0  0  0
   47.4070   31.9740   43.6240 N   0  0  0  0  0  0  0  0  0  0  0  0
   46.7690   31.4430   44.6910 C   0  0  0  0  0  0  0  0  0  0  0  0
   45.9570   32.2260   45.4270 N   0  0  0  0  0  0  0  0  0  0  0  0
   48.0090   33.7610   42.0540 C   0  0  0  0  0  0  0  0  0  0  0  0
   47.1580   34.0680   40.8810 C   0  0  0  0  0  0  0  0  0  0  0  0
   48.2070   34.7130   39.9780 C   0  0  0  0  0  0  0  0  0  0  0  0
   48.9350   35.6110   40.9350 C   0  0  0  0  0  0  0  0  0  0  0  0
   48.7250   35.0640   42.3340 C   0  0  0  0  0  0  0  0  0  0  0  0
   46.9590   30.0300   45.0370 C   0  0  0  0  0  0  0  0  0  0  0  0
   47.9770   29.7920   46.0210 N   0  0  0  0  0  0  0  0  0  0  0  0
   49.2250   29.3440   45.8720 C   0  0  0  0  0  0  0  0  0  0  0  0
   49.8590   29.2680   47.1040 C   0  0  0  0  0  0  0  0  0  0  0  0
   48.9740   29.6800   48.0190 N   0  0  0  0  0  0  0  0  0  0  0  0
   47.8430   29.9930   47.3500 C   0  0  0  0  0  0  0  0  0  0  0  0
   46.7190   30.4680   48.0900 N   0  0  0  0  0  0  0  0  0  0  0  0
   46.9340   31.5480   48.8530 N   0  0  0  0  0  0  0  0  0  0  0  0
   45.8090   31.8960   49.4960 C   0  0  0  0  0  0  0  0  0  0  0  0
   44.8280   30.9930   49.1250 C   0  0  0  0  0  0  0  0  0  0  0  0
   45.4120   30.1030   48.2440 C   0  0  0  0  0  0  0  0  0  0  0  0
   45.1050   34.1395   45.7314 H   0  0  0  0  0  0  0  0  0  0  0  0
   46.2857   35.1615   43.7385 H   0  0  0  0  0  0  0  0  0  0  0  0
   48.6892   32.9261   41.8300 H   0  0  0  0  0  0  0  0  0  0  0  0
   46.7324   33.1583   40.4323 H   0  0  0  0  0  0  0  0  0  0  0  0
   46.2732   34.6870   41.0908 H   0  0  0  0  0  0  0  0  0  0  0  0
   48.8813   33.9584   39.5468 H   0  0  0  0  0  0  0  0  0  0  0  0
   47.7815   35.2408   39.1118 H   0  0  0  0  0  0  0  0  0  0  0  0
   50.0084   35.6224   40.6948 H   0  0  0  0  0  0  0  0  0  0  0  0
   48.5529   36.6400   40.8631 H   0  0  0  0  0  0  0  0  0  0  0  0
   48.1034   35.7403   42.9391 H   0  0  0  0  0  0  0  0  0  0  0  0
   49.6548   34.9460   42.9098 H   0  0  0  0  0  0  0  0  0  0  0  0
   46.0068   29.6400   45.4258 H   0  0  0  0  0  0  0  0  0  0  0  0
   47.2866   29.5230   44.1174 H   0  0  0  0  0  0  0  0  0  0  0  0
   49.6854   29.0736   44.9102 H   0  0  0  0  0  0  0  0  0  0  0  0
   50.8899   28.9336   47.2920 H   0  0  0  0  0  0  0  0  0  0  0  0
   45.6887   32.7417   50.1891 H   0  0  0  0  0  0  0  0  0  0  0  0
   43.7824   30.9853   49.4665 H   0  0  0  0  0  0  0  0  0  0  0  0
   44.9137   29.2532   47.7546 H   0  0  0  0  0  0  0  0  0  0  0  0
  1  6  2  0
  2  1  1  0
  3  4  1  0
  3  2  2  0
  4  5  2  0
  5 12  1  0
  5  6  1  0
  7 11  1  0
  7  3  1  0
  8  7  1  0
  9  8  1  0
  9 10  1  0
 10 11  1  0
 12 13  1  0
 13 17  1  0
 14 13  1  0
 14 15  2  0
 15 16  1  0
 17 16  2  0
 17 18  1  0
 18 22  1  0
 18 19  1  0
 19 20  2  0
 21 20  1  0
 22 21  2  0
  1 23  1  0
  2 24  1  0
  7 25  1  0
  8 26  1  0
  8 27  1  0
  9 28  1  0
  9 29  1  0
 10 30  1  0
 10 31  1  0
 11 32  1  0
 11 33  1  0
 12 34  1  0
 12 35  1  0
 14 36  1  0
 15 37  1  0
 20 38  1  0
 21 39  1  0
 22 40  1  0
M  ISO  8  23  14  24  14  25  13  26  13  27  13  28  13  29  13  30  13
M  ISO  8  31  13  32  13  33  13  34   8  35   8  36  14  37  14  38  14
M  ISO  2  39  14  40  14
M  END
>  <minimizedAffinity>  (1) 
-5.44371462

>  <minimizedRMSD>  (1) 
2.51470566

$$$$
