
     RDKit          3D

 41 44  0  0  0  0  0  0  0  0999 V2000
   45.1320   34.8810   44.5770 C   0  0  0  0  0  0  0  0  0  0  0  0
   45.9360   35.0850   43.4290 C   0  0  0  0  0  0  0  0  0  0  0  0
   46.7810   34.0100   43.0160 C   0  0  0  0  0  0  0  0  0  0  0  0
   46.7590   32.8690   43.7460 N   0  0  0  0  0  0  0  0  0  0  0  0
   45.9780   32.7040   44.8420 C   0  0  0  0  0  0  0  0  0  0  0  0
   45.1770   33.6950   45.2510 N   0  0  0  0  0  0  0  0  0  0  0  0
   47.6450   34.1220   41.8350 C   0  0  0  0  0  0  0  0  0  0  0  0
   46.9360   34.1540   40.5360 C   0  0  0  0  0  0  0  0  0  0  0  0
   48.1130   34.4530   39.6070 C   0  0  0  0  0  0  0  0  0  0  0  0
   48.8430   35.5270   40.3730 C   0  0  0  0  0  0  0  0  0  0  0  0
   48.4630   35.3940   41.8420 C   0  0  0  0  0  0  0  0  0  0  0  0
   46.0070   31.4400   45.5810 C   0  0  0  0  0  0  0  0  0  0  0  0
   46.7030   31.4940   46.8380 N   0  0  0  0  0  0  0  0  0  0  0  0
   47.2870   32.5120   47.4740 C   0  0  0  0  0  0  0  0  0  0  0  0
   47.8360   32.0820   48.6680 C   0  0  0  0  0  0  0  0  0  0  0  0
   47.5760   30.7610   48.7530 N   0  0  0  0  0  0  0  0  0  0  0  0
   46.8950   30.4260   47.6460 C   0  0  0  0  0  0  0  0  0  0  0  0
   46.4500   29.0360   47.4210 C   0  0  0  0  0  0  0  0  0  0  0  0
   45.1910   28.7620   47.8990 C   0  0  0  0  0  0  0  0  0  0  0  0
   44.7180   27.4780   47.7180 C   0  0  0  0  0  0  0  0  0  0  0  0
   45.4880   26.5660   47.0960 N   0  0  0  0  0  0  0  0  0  0  0  0
   46.7190   26.8720   46.6400 C   0  0  0  0  0  0  0  0  0  0  0  0
   47.2130   28.1320   46.8040 N   0  0  0  0  0  0  0  0  0  0  0  0
   44.4668   35.6838   44.9278 H   0  0  0  0  0  0  0  0  0  0  0  0
   45.9106   36.0357   42.8762 H   0  0  0  0  0  0  0  0  0  0  0  0
   48.2556   33.2105   41.9141 H   0  0  0  0  0  0  0  0  0  0  0  0
   46.4653   33.1876   40.3025 H   0  0  0  0  0  0  0  0  0  0  0  0
   46.1025   34.8694   40.4774 H   0  0  0  0  0  0  0  0  0  0  0  0
   47.7685   34.8216   38.6295 H   0  0  0  0  0  0  0  0  0  0  0  0
   48.7310   33.5737   39.3727 H   0  0  0  0  0  0  0  0  0  0  0  0
   49.9290   35.3981   40.2546 H   0  0  0  0  0  0  0  0  0  0  0  0
   48.5677   36.5224   39.9944 H   0  0  0  0  0  0  0  0  0  0  0  0
   47.8651   36.2530   42.1806 H   0  0  0  0  0  0  0  0  0  0  0  0
   49.3250   35.3660   42.5247 H   0  0  0  0  0  0  0  0  0  0  0  0
   44.9688   31.1341   45.7772 H   0  0  0  0  0  0  0  0  0  0  0  0
   46.5576   30.7252   44.9518 H   0  0  0  0  0  0  0  0  0  0  0  0
   47.3260   33.5462   47.1012 H   0  0  0  0  0  0  0  0  0  0  0  0
   48.3775   32.6956   49.4030 H   0  0  0  0  0  0  0  0  0  0  0  0
   44.5875   29.5312   48.4031 H   0  0  0  0  0  0  0  0  0  0  0  0
   43.7168   27.2015   48.0803 H   0  0  0  0  0  0  0  0  0  0  0  0
   47.3250   26.1050   46.1355 H   0  0  0  0  0  0  0  0  0  0  0  0
  1  6  2  0
  2  1  1  0
  3  2  2  0
  3  4  1  0
  4  5  2  0
  5  6  1  0
  5 12  1  0
  7 11  1  0
  7  3  1  0
  8  7  1  0
  9 10  1  0
  9  8  1  0
 10 11  1  0
 12 13  1  0
 13 14  1  0
 13 17  1  0
 14 15  2  0
 15 16  1  0
 17 16  2  0
 18 17  1  0
 18 19  2  0
 20 19  1  0
 21 20  2  0
 22 23  2  0
 22 21  1  0
 23 18  1  0
  1 24  1  0
  2 25  1  0
  7 26  1  0
  8 27  1  0
  8 28  1  0
  9 29  1  0
  9 30  1  0
 10 31  1  0
 10 32  1  0
 11 33  1  0
 11 34  1  0
 12 35  1  0
 12 36  1  0
 14 37  1  0
 15 38  1  0
 19 39  1  0
 20 40  1  0
 22 41  1  0
M  ISO  8  24  14  25  14  26  13  27  13  28  13  29  13  30  13  31  13
M  ISO  8  32  13  33  13  34  13  35   8  36   8  37  14  38  14  39  14
M  ISO  2  40  14  41  14
M  END
>  <minimizedAffinity>  (1) 
-5.26932907

>  <minimizedRMSD>  (1) 
2.78541636

$$$$
