
     RDKit          3D

 51 53  0  0  1  0  0  0  0  0999 V2000
   45.6690   34.2350   42.2180 C   0  0  0  0  0  0  0  0  0  0  0  0
   47.0610   34.2910   42.3240 C   0  0  0  0  0  0  0  0  0  0  0  0
   47.6590   33.9260   43.5540 C   0  0  0  0  0  0  0  0  0  0  0  0
   46.8740   33.5430   44.5710 N   0  0  0  0  0  0  0  0  0  0  0  0
   45.5290   33.4930   44.4590 C   0  0  0  0  0  0  0  0  0  0  0  0
   44.9610   33.8330   43.3070 N   0  0  0  0  0  0  0  0  0  0  0  0
   44.9130   34.6190   41.0790 C   0  0  0  0  0  0  0  0  0  0  0  0
   44.3430   33.3540   40.3650 C   0  0  0  0  0  0  0  0  0  0  0  0
   43.3290   34.0490   39.4200 C   0  0  0  0  0  0  0  0  0  0  0  0
   42.8760   35.2550   40.1700 C   0  0  0  0  0  0  0  0  0  0  0  0
   43.6200   35.2480   41.4940 C   0  0  0  0  0  0  0  0  0  0  0  0
   47.8970   34.7280   41.1980 C   0  0  1  0  0  0  0  0  0  0  0  0
   48.8760   35.7750   41.5580 C   0  0  0  0  0  0  0  0  0  0  0  0
   48.4900   33.5050   40.5460 C   0  0  0  0  0  0  0  0  0  0  0  0
   48.0420   33.3400   39.1810 N   0  0  0  0  0  0  0  0  0  0  0  0
   48.2400   34.4090   38.4150 N   0  0  0  0  0  0  0  0  0  0  0  0
   47.7990   34.1650   37.1750 C   0  0  0  0  0  0  0  0  0  0  0  0
   47.3000   32.8890   37.1430 C   0  0  0  0  0  0  0  0  0  0  0  0
   47.4680   32.3970   38.4210 C   0  0  0  0  0  0  0  0  0  0  0  0
   47.1310   31.1020   39.0060 C   0  0  0  0  0  0  0  0  0  0  0  0
   47.2160   31.1260   40.5380 C   0  0  0  0  0  0  0  0  0  0  0  0
   45.9250   30.4110   38.4880 C   0  0  0  0  0  0  0  0  0  0  0  0
   48.3190   30.1990   38.6080 C   0  0  0  0  0  0  0  0  0  0  0  0
   48.7521   33.9562   43.6736 H   0  0  0  0  0  0  0  0  0  0  0  0
   44.9111   33.1745   45.3115 H   0  0  0  0  0  0  0  0  0  0  0  0
   45.5830   35.2543   40.4811 H   0  0  0  0  0  0  0  0  0  0  0  0
   45.1195   32.8089   39.8084 H   0  0  0  0  0  0  0  0  0  0  0  0
   43.9222   32.5842   41.0285 H   0  0  0  0  0  0  0  0  0  0  0  0
   42.4795   33.3837   39.2061 H   0  0  0  0  0  0  0  0  0  0  0  0
   43.7757   34.3072   38.4485 H   0  0  0  0  0  0  0  0  0  0  0  0
   43.1174   36.1667   39.6039 H   0  0  0  0  0  0  0  0  0  0  0  0
   41.7874   35.2386   40.3268 H   0  0  0  0  0  0  0  0  0  0  0  0
   43.0982   34.6423   42.2495 H   0  0  0  0  0  0  0  0  0  0  0  0
   43.7226   36.2360   41.9666 H   0  0  0  0  0  0  0  0  0  0  0  0
   47.2708   35.2432   40.4547 H   0  0  0  0  0  0  0  0  0  0  0  0
   48.9463   35.8502   42.6532 H   0  0  0  0  0  0  0  0  0  0  0  0
   49.8612   35.5136   41.1444 H   0  0  0  0  0  0  0  0  0  0  0  0
   48.5491   36.7404   41.1444 H   0  0  0  0  0  0  0  0  0  0  0  0
   49.5860   33.5981   40.5499 H   0  0  0  0  0  0  0  0  0  0  0  0
   48.1600   32.6250   41.1176 H   0  0  0  0  0  0  0  0  0  0  0  0
   47.8315   34.8668   36.3286 H   0  0  0  0  0  0  0  0  0  0  0  0
   46.8589   32.3674   36.2808 H   0  0  0  0  0  0  0  0  0  0  0  0
   46.2399   30.8504   40.9637 H   0  0  0  0  0  0  0  0  0  0  0  0
   47.9786   30.4081   40.8742 H   0  0  0  0  0  0  0  0  0  0  0  0
   47.4905   32.1368   40.8742 H   0  0  0  0  0  0  0  0  0  0  0  0
   45.3126   30.0601   39.3318 H   0  0  0  0  0  0  0  0  0  0  0  0
   45.3375   31.1095   37.8741 H   0  0  0  0  0  0  0  0  0  0  0  0
   46.2305   29.5509   37.8741 H   0  0  0  0  0  0  0  0  0  0  0  0
   48.8138   29.8229   39.5156 H   0  0  0  0  0  0  0  0  0  0  0  0
   47.9512   29.3504   38.0125 H   0  0  0  0  0  0  0  0  0  0  0  0
   49.0382   30.7805   38.0125 H   0  0  0  0  0  0  0  0  0  0  0  0
  1  2  1  0
  1  6  2  0
  2  3  2  0
  3  4  1  0
  5  4  2  0
  6  5  1  0
  7 11  1  0
  7  1  1  0
  8  7  1  0
  9 10  1  0
  9  8  1  0
 10 11  1  0
 12 13  1  0
 12  2  1  0
 14 12  1  0
 15 14  1  0
 16 15  1  0
 17 16  2  0
 18 17  1  0
 18 19  2  0
 19 20  1  0
 19 15  1  0
 20 21  1  0
 22 20  1  0
 23 20  1  0
  3 24  1  0
  5 25  1  0
  7 26  1  0
  8 27  1  0
  8 28  1  0
  9 29  1  0
  9 30  1  0
 10 31  1  0
 10 32  1  0
 11 33  1  0
 11 34  1  0
 12 35  1  6
 13 36  1  0
 13 37  1  0
 13 38  1  0
 14 39  1  0
 14 40  1  0
 17 41  1  0
 18 42  1  0
 21 43  1  0
 21 44  1  0
 21 45  1  0
 22 46  1  0
 22 47  1  0
 22 48  1  0
 23 49  1  0
 23 50  1  0
 23 51  1  0
M  ISO  8  24  14  25  14  26  13  27  13  28  13  29  13  30  13  31  13
M  ISO  8  32  13  33  13  34  13  35   8  36   8  37   8  38   8  39   8
M  ISO  8  40   8  41  14  42  14  43   8  44   8  45   8  46   8  47   8
M  ISO  4  48   8  49   8  50   8  51   8
M  END
>  <minimizedAffinity>  (1) 
-4.91426706

>  <minimizedRMSD>  (1) 
0.625642955

$$$$
