
     RDKit          3D

 37 39  0  0  0  0  0  0  0  0999 V2000
   45.2190   34.4700   44.9470 C   0  0  0  0  0  0  0  0  0  0  0  0
   45.8860   34.7170   43.7330 C   0  0  0  0  0  0  0  0  0  0  0  0
   47.0080   33.8870   43.3880 C   0  0  0  0  0  0  0  0  0  0  0  0
   47.3250   32.9300   44.2750 N   0  0  0  0  0  0  0  0  0  0  0  0
   46.6720   32.7100   45.4350 C   0  0  0  0  0  0  0  0  0  0  0  0
   45.6270   33.4730   45.7690 N   0  0  0  0  0  0  0  0  0  0  0  0
   47.7460   34.0880   42.1500 C   0  0  0  0  0  0  0  0  0  0  0  0
   46.9270   34.2480   40.9370 C   0  0  0  0  0  0  0  0  0  0  0  0
   48.0130   34.5790   39.9310 C   0  0  0  0  0  0  0  0  0  0  0  0
   48.8720   35.5350   40.6930 C   0  0  0  0  0  0  0  0  0  0  0  0
   48.6100   35.3410   42.1880 C   0  0  0  0  0  0  0  0  0  0  0  0
   47.1250   31.6200   46.3220 C   0  0  0  0  0  0  0  0  0  0  0  0
   46.3590   31.4710   47.5300 N   0  0  0  0  0  0  0  0  0  0  0  0
   46.4060   32.1530   48.6720 C   0  0  0  0  0  0  0  0  0  0  0  0
   45.4730   31.6510   49.5640 C   0  0  0  0  0  0  0  0  0  0  0  0
   44.8570   30.6440   48.9350 N   0  0  0  0  0  0  0  0  0  0  0  0
   45.4010   30.5410   47.6970 C   0  0  0  0  0  0  0  0  0  0  0  0
   44.9060   29.3290   46.4650 S   0  0  0  0  0  0  0  0  0  0  0  0
   44.7220   27.6800   47.1710 C   0  0  0  0  0  0  0  0  0  0  0  0
   44.7100   27.6800   48.5570 F   0  0  0  0  0  0  0  0  0  0  0  0
   43.5310   27.0880   46.7910 F   0  0  0  0  0  0  0  0  0  0  0  0
   45.7890   26.9000   46.7600 F   0  0  0  0  0  0  0  0  0  0  0  0
   44.3578   35.0924   45.2316 H   0  0  0  0  0  0  0  0  0  0  0  0
   45.5569   35.5257   43.0640 H   0  0  0  0  0  0  0  0  0  0  0  0
   48.3281   33.1566   42.0892 H   0  0  0  0  0  0  0  0  0  0  0  0
   46.3974   33.3199   40.6761 H   0  0  0  0  0  0  0  0  0  0  0  0
   46.1229   34.9946   41.0148 H   0  0  0  0  0  0  0  0  0  0  0  0
   47.5920   35.0517   39.0314 H   0  0  0  0  0  0  0  0  0  0  0  0
   48.5561   33.6962   39.5625 H   0  0  0  0  0  0  0  0  0  0  0  0
   49.9316   35.3371   40.4736 H   0  0  0  0  0  0  0  0  0  0  0  0
   48.6349   36.5686   40.4008 H   0  0  0  0  0  0  0  0  0  0  0  0
   48.0695   36.1956   42.6211 H   0  0  0  0  0  0  0  0  0  0  0  0
   49.5149   35.2588   42.8081 H   0  0  0  0  0  0  0  0  0  0  0  0
   47.0676   30.6755   45.7611 H   0  0  0  0  0  0  0  0  0  0  0  0
   48.1484   31.8771   46.6327 H   0  0  0  0  0  0  0  0  0  0  0  0
   47.0864   32.9926   48.8773 H   0  0  0  0  0  0  0  0  0  0  0  0
   45.2776   32.0089   50.5856 H   0  0  0  0  0  0  0  0  0  0  0  0
  1  6  2  0
  2  1  1  0
  3  2  2  0
  3  4  1  0
  4  5  2  0
  5  6  1  0
  5 12  1  0
  7 11  1  0
  7  3  1  0
  8  7  1  0
  9 10  1  0
  9  8  1  0
 10 11  1  0
 12 13  1  0
 13 17  1  0
 13 14  1  0
 14 15  2  0
 16 15  1  0
 17 16  2  0
 18 19  1  0
 18 17  1  0
 19 20  1  0
 21 19  1  0
 22 19  1  0
  1 23  1  0
  2 24  1  0
  7 25  1  0
  8 26  1  0
  8 27  1  0
  9 28  1  0
  9 29  1  0
 10 30  1  0
 10 31  1  0
 11 32  1  0
 11 33  1  0
 12 34  1  0
 12 35  1  0
 14 36  1  0
 15 37  1  0
M  ISO  8  23  14  24  14  25  13  26  13  27  13  28  13  29  13  30  13
M  ISO  7  31  13  32  13  33  13  34   8  35   8  36  14  37  14
M  END
>  <minimizedAffinity>  (1) 
-5.64007711

>  <minimizedRMSD>  (1) 
2.17929053

$$$$
