
     RDKit          3D

 45 47  0  0  1  0  0  0  0  0999 V2000
   45.6270   34.1980   42.2110 C   0  0  0  0  0  0  0  0  0  0  0  0
   47.0180   34.2840   42.3050 C   0  0  0  0  0  0  0  0  0  0  0  0
   47.6260   33.9310   43.5280 C   0  0  0  0  0  0  0  0  0  0  0  0
   46.8660   33.5290   44.5520 N   0  0  0  0  0  0  0  0  0  0  0  0
   45.5240   33.4490   44.4520 C   0  0  0  0  0  0  0  0  0  0  0  0
   44.9370   33.7780   43.3050 N   0  0  0  0  0  0  0  0  0  0  0  0
   44.8520   34.5650   41.0780 C   0  0  0  0  0  0  0  0  0  0  0  0
   44.0650   33.3310   40.5390 C   0  0  0  0  0  0  0  0  0  0  0  0
   43.0970   34.0630   39.5780 C   0  0  0  0  0  0  0  0  0  0  0  0
   42.8690   35.3950   40.2210 C   0  0  0  0  0  0  0  0  0  0  0  0
   43.6890   35.4090   41.4930 C   0  0  0  0  0  0  0  0  0  0  0  0
   47.8350   34.7430   41.1710 C   0  0  1  0  0  0  0  0  0  0  0  0
   48.8530   35.7450   41.5440 C   0  0  0  0  0  0  0  0  0  0  0  0
   48.3700   33.5260   40.4670 C   0  0  0  0  0  0  0  0  0  0  0  0
   47.9550   33.4650   39.0760 N   0  0  0  0  0  0  0  0  0  0  0  0
   48.4050   34.4690   38.3370 N   0  0  0  0  0  0  0  0  0  0  0  0
   47.9690   34.3330   37.0780 C   0  0  0  0  0  0  0  0  0  0  0  0
   47.2100   33.1950   37.0090 C   0  0  0  0  0  0  0  0  0  0  0  0
   47.2240   32.6760   38.2780 C   0  0  0  0  0  0  0  0  0  0  0  0
   46.6100   31.4700   38.8900 C   0  0  0  0  0  0  0  0  0  0  0  0
   45.5000   30.8990   38.0520 C   0  0  0  0  0  0  0  0  0  0  0  0
   48.7190   33.9861   43.6386 H   0  0  0  0  0  0  0  0  0  0  0  0
   44.9213   33.1153   45.3096 H   0  0  0  0  0  0  0  0  0  0  0  0
   45.5601   35.0313   40.3771 H   0  0  0  0  0  0  0  0  0  0  0  0
   44.7192   32.6248   40.0067 H   0  0  0  0  0  0  0  0  0  0  0  0
   43.5866   32.7032   41.3051 H   0  0  0  0  0  0  0  0  0  0  0  0
   42.1510   33.5099   39.4829 H   0  0  0  0  0  0  0  0  0  0  0  0
   43.5055   34.1534   38.5607 H   0  0  0  0  0  0  0  0  0  0  0  0
   43.1975   36.2017   39.5491 H   0  0  0  0  0  0  0  0  0  0  0  0
   41.8019   35.5535   40.4360 H   0  0  0  0  0  0  0  0  0  0  0  0
   43.1410   34.9596   42.3342 H   0  0  0  0  0  0  0  0  0  0  0  0
   43.9573   36.4129   41.8540 H   0  0  0  0  0  0  0  0  0  0  0  0
   47.2104   35.3070   40.4626 H   0  0  0  0  0  0  0  0  0  0  0  0
   48.9191   35.8101   42.6401 H   0  0  0  0  0  0  0  0  0  0  0  0
   49.8292   35.4457   41.1349 H   0  0  0  0  0  0  0  0  0  0  0  0
   48.5692   36.7259   41.1349 H   0  0  0  0  0  0  0  0  0  0  0  0
   49.4690   33.5489   40.5073 H   0  0  0  0  0  0  0  0  0  0  0  0
   47.9670   32.6386   40.9770 H   0  0  0  0  0  0  0  0  0  0  0  0
   48.1834   35.0170   36.2436 H   0  0  0  0  0  0  0  0  0  0  0  0
   46.6989   32.7854   36.1253 H   0  0  0  0  0  0  0  0  0  0  0  0
   47.3883   30.7027   39.0143 H   0  0  0  0  0  0  0  0  0  0  0  0
   46.1782   31.7694   39.8564 H   0  0  0  0  0  0  0  0  0  0  0  0
   44.7153   30.4953   38.7087 H   0  0  0  0  0  0  0  0  0  0  0  0
   45.0755   31.6906   37.4171 H   0  0  0  0  0  0  0  0  0  0  0  0
   45.8972   30.0933   37.4171 H   0  0  0  0  0  0  0  0  0  0  0  0
  1  2  1  0
  1  6  2  0
  2  3  2  0
  3  4  1  0
  5  4  2  0
  6  5  1  0
  7 11  1  0
  7  1  1  0
  8  7  1  0
  9 10  1  0
  9  8  1  0
 10 11  1  0
 12 13  1  0
 12  2  1  0
 14 12  1  0
 15 14  1  0
 16 15  1  0
 17 16  2  0
 18 17  1  0
 18 19  2  0
 19 20  1  0
 19 15  1  0
 21 20  1  0
  3 22  1  0
  5 23  1  0
  7 24  1  0
  8 25  1  0
  8 26  1  0
  9 27  1  0
  9 28  1  0
 10 29  1  0
 10 30  1  0
 11 31  1  0
 11 32  1  0
 12 33  1  6
 13 34  1  0
 13 35  1  0
 13 36  1  0
 14 37  1  0
 14 38  1  0
 17 39  1  0
 18 40  1  0
 20 41  1  0
 20 42  1  0
 21 43  1  0
 21 44  1  0
 21 45  1  0
M  ISO  8  22  14  23  14  24  13  25  13  26  13  27  13  28  13  29  13
M  ISO  8  30  13  31  13  32  13  33   8  34   8  35   8  36   8  37   8
M  ISO  8  38   8  39  14  40  14  41   8  42   8  43   8  44   8  45   8
M  END
>  <minimizedAffinity>  (1) 
-4.89349079

>  <minimizedRMSD>  (1) 
0.886174679

$$$$
