
     RDKit          3D

 41 44  0  0  0  0  0  0  0  0999 V2000
   45.6970   33.4160   44.9170 C   0  0  0  0  0  0  0  0  0  0  0  0
   46.4310   34.1160   43.9250 C   0  0  0  0  0  0  0  0  0  0  0  0
   47.3600   33.3490   43.1380 C   0  0  0  0  0  0  0  0  0  0  0  0
   47.4650   32.0280   43.4010 N   0  0  0  0  0  0  0  0  0  0  0  0
   46.7470   31.4010   44.3550 C   0  0  0  0  0  0  0  0  0  0  0  0
   45.8730   32.0920   45.1030 N   0  0  0  0  0  0  0  0  0  0  0  0
   48.1680   33.9860   42.0930 C   0  0  0  0  0  0  0  0  0  0  0  0
   47.4190   34.4770   40.9250 C   0  0  0  0  0  0  0  0  0  0  0  0
   48.5280   35.2130   40.2000 C   0  0  0  0  0  0  0  0  0  0  0  0
   49.2170   35.9510   41.3100 C   0  0  0  0  0  0  0  0  0  0  0  0
   48.9000   35.2190   42.6050 C   0  0  0  0  0  0  0  0  0  0  0  0
   46.9250   29.9660   44.5740 C   0  0  0  0  0  0  0  0  0  0  0  0
   47.9860   29.6140   45.4760 N   0  0  0  0  0  0  0  0  0  0  0  0
   49.2750   29.3770   45.2170 C   0  0  0  0  0  0  0  0  0  0  0  0
   49.9380   29.0660   46.3870 C   0  0  0  0  0  0  0  0  0  0  0  0
   49.0350   29.1160   47.3670 N   0  0  0  0  0  0  0  0  0  0  0  0
   47.8380   29.4520   46.8160 C   0  0  0  0  0  0  0  0  0  0  0  0
   46.2820   29.6600   47.6910 S   0  0  0  0  0  0  0  0  0  0  0  0
   46.3400   30.8500   49.0070 C   0  0  0  0  0  0  0  0  0  0  0  0
   45.8540   32.2740   48.6140 C   0  0  0  0  0  0  0  0  0  0  0  0
   45.1640   31.4730   49.6370 C   0  0  0  0  0  0  0  0  0  0  0  0
   44.9746   33.9606   45.5428 H   0  0  0  0  0  0  0  0  0  0  0  0
   46.2961   35.1959   43.7648 H   0  0  0  0  0  0  0  0  0  0  0  0
   48.8382   33.1653   41.7975 H   0  0  0  0  0  0  0  0  0  0  0  0
   47.0135   33.6511   40.3221 H   0  0  0  0  0  0  0  0  0  0  0  0
   46.5334   35.0851   41.1615 H   0  0  0  0  0  0  0  0  0  0  0  0
   49.2141   34.5091   39.7063 H   0  0  0  0  0  0  0  0  0  0  0  0
   48.1624   35.8726   39.3992 H   0  0  0  0  0  0  0  0  0  0  0  0
   50.3035   35.9595   41.1387 H   0  0  0  0  0  0  0  0  0  0  0  0
   48.8710   36.9941   41.3576 H   0  0  0  0  0  0  0  0  0  0  0  0
   48.2561   35.8241   43.2601 H   0  0  0  0  0  0  0  0  0  0  0  0
   49.7854   34.9903   43.2163 H   0  0  0  0  0  0  0  0  0  0  0  0
   45.9851   29.5642   44.9803 H   0  0  0  0  0  0  0  0  0  0  0  0
   47.1986   29.5389   43.5979 H   0  0  0  0  0  0  0  0  0  0  0  0
   49.7386   29.4228   44.2205 H   0  0  0  0  0  0  0  0  0  0  0  0
   51.0059   28.8235   46.4910 H   0  0  0  0  0  0  0  0  0  0  0  0
   47.2133   30.3397   49.4393 H   0  0  0  0  0  0  0  0  0  0  0  0
   46.4387   33.1596   48.9036 H   0  0  0  0  0  0  0  0  0  0  0  0
   45.5650   32.7789   47.6804 H   0  0  0  0  0  0  0  0  0  0  0  0
   44.1621   31.0725   49.4231 H   0  0  0  0  0  0  0  0  0  0  0  0
   44.8809   31.6656   50.6824 H   0  0  0  0  0  0  0  0  0  0  0  0
  1  6  2  0
  2  1  1  0
  3  4  1  0
  3  2  2  0
  4  5  2  0
  5 12  1  0
  5  6  1  0
  7 11  1  0
  7  3  1  0
  8  7  1  0
  9  8  1  0
  9 10  1  0
 10 11  1  0
 12 13  1  0
 13 17  1  0
 14 13  1  0
 14 15  2  0
 15 16  1  0
 17 16  2  0
 17 18  1  0
 18 19  1  0
 19 21  1  0
 20 19  1  0
 20 21  1  0
  1 22  1  0
  2 23  1  0
  7 24  1  0
  8 25  1  0
  8 26  1  0
  9 27  1  0
  9 28  1  0
 10 29  1  0
 10 30  1  0
 11 31  1  0
 11 32  1  0
 12 33  1  0
 12 34  1  0
 14 35  1  0
 15 36  1  0
 19 37  1  0
 20 38  1  0
 20 39  1  0
 21 40  1  0
 21 41  1  0
M  ISO  8  22  14  23  14  24  13  25  13  26  13  27  13  28  13  29  13
M  ISO  8  30  13  31  13  32  13  33   8  34   8  35  14  36  14  37  13
M  ISO  4  38  13  39  13  40  13  41  13
M  END
>  <minimizedAffinity>  (1) 
-4.65634441

>  <minimizedRMSD>  (1) 
1.94029462

$$$$
