
     RDKit          3D

 39 42  0  0  0  0  0  0  0  0999 V2000
   45.4810   34.8470   42.5510 C   0  0  0  0  0  0  0  0  0  0  0  0
   45.0000   36.1120   43.0520 C   0  0  0  0  0  0  0  0  0  0  0  0
   44.6830   35.9910   44.5360 C   0  0  0  0  0  0  0  0  0  0  0  0
   45.1070   34.5930   44.9520 C   0  0  0  0  0  0  0  0  0  0  0  0
   45.0710   33.8270   43.7000 C   0  0  0  0  0  0  0  0  0  0  0  0
   46.9120   34.6530   42.4260 C   0  0  0  0  0  0  0  0  0  0  0  0
   47.4810   33.4310   42.8580 C   0  0  0  0  0  0  0  0  0  0  0  0
   48.8490   33.1880   42.7570 C   0  0  0  0  0  0  0  0  0  0  0  0
   49.5910   34.2010   42.2160 N   0  0  0  0  0  0  0  0  0  0  0  0
   49.0320   35.3630   41.8080 C   0  0  0  0  0  0  0  0  0  0  0  0
   47.7170   35.5710   41.9160 N   0  0  0  0  0  0  0  0  0  0  0  0
   44.7040   34.3450   41.3520 C   0  0  0  0  0  0  0  0  0  0  0  0
   45.3110   33.8330   40.3910 O   0  0  0  0  0  0  0  0  0  0  0  0
   43.2230   34.4700   41.3170 C   0  0  0  0  0  0  0  0  0  0  0  0
   42.5770   35.6110   41.0920 N   0  0  0  0  0  0  0  0  0  0  0  0
   41.2630   35.8080   41.0330 C   0  0  0  0  0  0  0  0  0  0  0  0
   40.4500   34.7460   41.2200 N   0  0  0  0  0  0  0  0  0  0  0  0
   41.0010   33.5190   41.4600 C   0  0  0  0  0  0  0  0  0  0  0  0
   40.1410   32.4670   41.6330 C   0  0  0  0  0  0  0  0  0  0  0  0
   40.6330   31.2060   41.8630 C   0  0  0  0  0  0  0  0  0  0  0  0
   42.0220   31.0550   41.9120 C   0  0  0  0  0  0  0  0  0  0  0  0
   42.8160   32.1650   41.7280 C   0  0  0  0  0  0  0  0  0  0  0  0
   42.3770   33.4330   41.4970 C   0  0  0  0  0  0  0  0  0  0  0  0
   45.7728   36.8809   42.9050 H   0  0  0  0  0  0  0  0  0  0  0  0
   44.0874   36.3955   42.5072 H   0  0  0  0  0  0  0  0  0  0  0  0
   45.2442   36.7448   45.1077 H   0  0  0  0  0  0  0  0  0  0  0  0
   43.6132   36.1579   44.7304 H   0  0  0  0  0  0  0  0  0  0  0  0
   46.1217   34.6017   45.3767 H   0  0  0  0  0  0  0  0  0  0  0  0
   44.4570   34.1660   45.7299 H   0  0  0  0  0  0  0  0  0  0  0  0
   44.0589   33.4354   43.5203 H   0  0  0  0  0  0  0  0  0  0  0  0
   45.7526   32.9643   43.7354 H   0  0  0  0  0  0  0  0  0  0  0  0
   46.8276   32.6550   43.2834 H   0  0  0  0  0  0  0  0  0  0  0  0
   49.3025   32.2430   43.0906 H   0  0  0  0  0  0  0  0  0  0  0  0
   49.6708   36.1497   41.3802 H   0  0  0  0  0  0  0  0  0  0  0  0
   40.8498   36.8085   40.8373 H   0  0  0  0  0  0  0  0  0  0  0  0
   39.0545   32.6327   41.5876 H   0  0  0  0  0  0  0  0  0  0  0  0
   39.9600   30.3473   42.0034 H   0  0  0  0  0  0  0  0  0  0  0  0
   42.4722   30.0680   42.0941 H   0  0  0  0  0  0  0  0  0  0  0  0
   43.9046   32.0134   41.7716 H   0  0  0  0  0  0  0  0  0  0  0  0
  1  2  1  0
  1  5  1  0
  2  3  1  0
  3  4  1  0
  5  4  1  0
  6  1  1  0
  6  7  2  0
  8  7  1  0
  9  8  2  0
 10 11  2  0
 10  9  1  0
 11  6  1  0
 12  1  1  0
 13 12  2  0
 14 12  1  0
 14 23  1  0
 15 14  2  0
 16 15  1  0
 16 17  2  0
 17 18  1  0
 18 23  2  0
 18 19  1  0
 19 20  2  0
 20 21  1  0
 22 21  2  0
 23 22  1  0
  2 24  1  0
  2 25  1  0
  3 26  1  0
  3 27  1  0
  4 28  1  0
  4 29  1  0
  5 30  1  0
  5 31  1  0
  7 32  1  0
  8 33  1  0
 10 34  1  0
 16 35  1  0
 19 36  1  0
 20 37  1  0
 21 38  1  0
 22 39  1  0
M  ISO  8  24  13  25  13  26  13  27  13  28  13  29  13  30  13  31  13
M  ISO  8  32  14  33  14  34  14  35  14  36  14  37  14  38  14  39  14
M  END
>  <minimizedAffinity>  (1) 
-6.0236764

>  <minimizedRMSD>  (1) 
4.3769846

$$$$
