
     RDKit          3D

 36 39  0  0  0  0  0  0  0  0999 V2000
   45.5670   34.6180   42.5180 C   0  0  0  0  0  0  0  0  0  0  0  0
   45.1170   35.9540   42.8660 C   0  0  0  0  0  0  0  0  0  0  0  0
   44.7340   35.9840   44.3410 C   0  0  0  0  0  0  0  0  0  0  0  0
   45.0950   34.6400   44.9160 C   0  0  0  0  0  0  0  0  0  0  0  0
   45.0780   33.7450   43.7450 C   0  0  0  0  0  0  0  0  0  0  0  0
   46.9980   34.3740   42.4680 C   0  0  0  0  0  0  0  0  0  0  0  0
   47.8680   35.4260   42.0850 C   0  0  0  0  0  0  0  0  0  0  0  0
   49.2470   35.2230   42.0390 C   0  0  0  0  0  0  0  0  0  0  0  0
   49.6920   33.9820   42.3770 N   0  0  0  0  0  0  0  0  0  0  0  0
   48.8390   32.9850   42.7420 C   0  0  0  0  0  0  0  0  0  0  0  0
   47.5210   33.1970   42.7800 N   0  0  0  0  0  0  0  0  0  0  0  0
   44.8180   34.0430   41.3500 C   0  0  0  0  0  0  0  0  0  0  0  0
   45.2920   34.0470   40.2050 O   0  0  0  0  0  0  0  0  0  0  0  0
   40.2090   34.7190   41.2170 N   0  0  0  0  0  0  0  0  0  0  0  0
   40.8940   35.8510   40.9840 C   0  0  0  0  0  0  0  0  0  0  0  0
   42.2070   35.5650   41.0410 N   0  0  0  0  0  0  0  0  0  0  0  0
   42.3830   34.2570   41.3080 C   0  0  0  0  0  0  0  0  0  0  0  0
   43.4870   33.4490   41.4730 C   0  0  0  0  0  0  0  0  0  0  0  0
   43.2120   32.1620   41.7360 N   0  0  0  0  0  0  0  0  0  0  0  0
   42.0160   31.6140   41.8490 C   0  0  0  0  0  0  0  0  0  0  0  0
   40.9630   32.4080   41.6880 N   0  0  0  0  0  0  0  0  0  0  0  0
   41.0910   33.7240   41.4190 C   0  0  0  0  0  0  0  0  0  0  0  0
   45.9269   36.6751   42.6812 H   0  0  0  0  0  0  0  0  0  0  0  0
   44.2450   36.2226   42.2516 H   0  0  0  0  0  0  0  0  0  0  0  0
   45.2901   36.7787   44.8598 H   0  0  0  0  0  0  0  0  0  0  0  0
   43.6602   36.1885   44.4641 H   0  0  0  0  0  0  0  0  0  0  0  0
   46.0938   34.6654   45.3762 H   0  0  0  0  0  0  0  0  0  0  0  0
   44.4065   34.3166   45.7106 H   0  0  0  0  0  0  0  0  0  0  0  0
   44.0594   33.3707   43.5653 H   0  0  0  0  0  0  0  0  0  0  0  0
   45.7260   32.8695   43.8989 H   0  0  0  0  0  0  0  0  0  0  0  0
   47.4521   36.4098   41.8221 H   0  0  0  0  0  0  0  0  0  0  0  0
   49.9398   36.0251   41.7445 H   0  0  0  0  0  0  0  0  0  0  0  0
   49.2395   31.9956   43.0081 H   0  0  0  0  0  0  0  0  0  0  0  0
   39.1832   34.6286   41.2374 H   0  0  0  0  0  0  0  0  0  0  0  0
   40.4569   36.8400   40.7817 H   0  0  0  0  0  0  0  0  0  0  0  0
   41.8962   30.5426   42.0677 H   0  0  0  0  0  0  0  0  0  0  0  0
  1  2  1  0
  1  5  1  0
  2  3  1  0
  3  4  1  0
  5  4  1  0
  6  1  1  0
  6 11  1  0
  7  6  2  0
  8  7  1  0
  8  9  2  0
  9 10  1  0
 10 11  2  0
 12 18  1  0
 12  1  1  0
 13 12  2  0
 14 22  1  0
 15 16  2  0
 15 14  1  0
 16 17  1  0
 17 22  2  0
 17 18  1  0
 18 19  2  0
 19 20  1  0
 21 20  2  0
 22 21  1  0
  2 23  1  0
  2 24  1  0
  3 25  1  0
  3 26  1  0
  4 27  1  0
  4 28  1  0
  5 29  1  0
  5 30  1  0
  7 31  1  0
  8 32  1  0
 10 33  1  0
 14 34  1  0
 15 35  1  0
 20 36  1  0
M  ISO  8  23  13  24  13  25  13  26  13  27  13  28  13  29  13  30  13
M  ISO  6  31  14  32  14  33  14  34   9  35  14  36  14
M  END
>  <minimizedAffinity>  (1) 
-5.78861332

>  <minimizedRMSD>  (1) 
3.68918514

$$$$
