
     RDKit          3D

 38 40  0  0  0  0  0  0  0  0999 V2000
   45.6120   34.9580   42.6650 C   0  0  0  0  0  0  0  0  0  0  0  0
   45.1470   36.1360   43.3790 C   0  0  0  0  0  0  0  0  0  0  0  0
   44.7750   35.7390   44.8030 C   0  0  0  0  0  0  0  0  0  0  0  0
   45.1590   34.2820   44.9640 C   0  0  0  0  0  0  0  0  0  0  0  0
   45.1430   33.7630   43.5870 C   0  0  0  0  0  0  0  0  0  0  0  0
   47.0490   34.7610   42.5460 C   0  0  0  0  0  0  0  0  0  0  0  0
   47.8260   35.7220   41.8490 C   0  0  0  0  0  0  0  0  0  0  0  0
   49.2030   35.5640   41.7180 C   0  0  0  0  0  0  0  0  0  0  0  0
   49.7430   34.4550   42.2900 N   0  0  0  0  0  0  0  0  0  0  0  0
   48.9790   33.5400   42.9570 C   0  0  0  0  0  0  0  0  0  0  0  0
   47.6560   33.7080   43.0730 N   0  0  0  0  0  0  0  0  0  0  0  0
   44.8760   34.7440   41.3730 C   0  0  0  0  0  0  0  0  0  0  0  0
   43.9090   35.4400   41.0460 O   0  0  0  0  0  0  0  0  0  0  0  0
   45.0460   33.8170   40.3070 N   0  0  0  0  0  0  0  0  0  0  0  0
   46.3220   33.1360   40.3180 C   0  0  0  0  0  0  0  0  0  0  0  0
   46.8710   33.2270   38.8940 C   0  0  0  0  0  0  0  0  0  0  0  0
   46.0340   32.6870   37.9520 O   0  0  0  0  0  0  0  0  0  0  0  0
   44.7920   32.3270   38.4510 C   0  0  0  0  0  0  0  0  0  0  0  0
   44.1520   33.4650   39.2420 C   0  0  0  0  0  0  0  0  0  0  0  0
   45.9461   36.8916   43.4037 H   0  0  0  0  0  0  0  0  0  0  0  0
   44.2679   36.5566   42.8689 H   0  0  0  0  0  0  0  0  0  0  0  0
   45.3267   36.3584   45.5255 H   0  0  0  0  0  0  0  0  0  0  0  0
   43.7007   35.8874   44.9870 H   0  0  0  0  0  0  0  0  0  0  0  0
   46.1612   34.1871   45.4074 H   0  0  0  0  0  0  0  0  0  0  0  0
   44.4805   33.7338   45.6342 H   0  0  0  0  0  0  0  0  0  0  0  0
   44.1274   33.4432   43.3109 H   0  0  0  0  0  0  0  0  0  0  0  0
   45.8013   32.8884   43.4786 H   0  0  0  0  0  0  0  0  0  0  0  0
   47.3350   36.6016   41.4072 H   0  0  0  0  0  0  0  0  0  0  0  0
   49.8214   36.2976   41.1801 H   0  0  0  0  0  0  0  0  0  0  0  0
   49.4562   32.6553   43.4038 H   0  0  0  0  0  0  0  0  0  0  0  0
   47.0092   33.6267   41.0229 H   0  0  0  0  0  0  0  0  0  0  0  0
   46.2130   32.0891   40.6377 H   0  0  0  0  0  0  0  0  0  0  0  0
   47.0328   34.2873   38.6498 H   0  0  0  0  0  0  0  0  0  0  0  0
   47.8054   32.6471   38.8686 H   0  0  0  0  0  0  0  0  0  0  0  0
   44.1332   32.0617   37.6110 H   0  0  0  0  0  0  0  0  0  0  0  0
   44.9287   31.4716   39.1289 H   0  0  0  0  0  0  0  0  0  0  0  0
   43.9921   34.3331   38.5856 H   0  0  0  0  0  0  0  0  0  0  0  0
   43.1783   33.1513   39.6462 H   0  0  0  0  0  0  0  0  0  0  0  0
  1  2  1  0
  1  5  1  0
  2  3  1  0
  3  4  1  0
  5  4  1  0
  6  1  1  0
  6 11  1  0
  7  6  2  0
  8  7  1  0
  8  9  2  0
  9 10  1  0
 10 11  2  0
 12  1  1  0
 13 12  2  0
 14 15  1  0
 14 12  1  0
 16 15  1  0
 17 18  1  0
 17 16  1  0
 18 19  1  0
 19 14  1  0
  2 20  1  0
  2 21  1  0
  3 22  1  0
  3 23  1  0
  4 24  1  0
  4 25  1  0
  5 26  1  0
  5 27  1  0
  7 28  1  0
  8 29  1  0
 10 30  1  0
 15 31  1  0
 15 32  1  0
 16 33  1  0
 16 34  1  0
 18 35  1  0
 18 36  1  0
 19 37  1  0
 19 38  1  0
M  ISO  8  20  13  21  13  22  13  23  13  24  13  25  13  26  13  27  13
M  ISO  8  28  14  29  14  30  14  31  13  32  13  33  13  34  13  35  13
M  ISO  3  36  13  37  13  38  13
M  END
>  <minimizedAffinity>  (1) 
-5.03359795

>  <minimizedRMSD>  (1) 
0.425335705

$$$$
