
     RDKit          3D

 40 42  0  0  1  0  0  0  0  0999 V2000
   45.6630   34.1930   42.2140 C   0  0  0  0  0  0  0  0  0  0  0  0
   47.0540   34.2670   42.3040 C   0  0  0  0  0  0  0  0  0  0  0  0
   47.6730   33.9110   43.5260 C   0  0  0  0  0  0  0  0  0  0  0  0
   46.9070   33.5170   44.5520 N   0  0  0  0  0  0  0  0  0  0  0  0
   45.5620   33.4480   44.4570 C   0  0  0  0  0  0  0  0  0  0  0  0
   44.9730   33.7800   43.3120 N   0  0  0  0  0  0  0  0  0  0  0  0
   44.8900   34.5650   41.0840 C   0  0  0  0  0  0  0  0  0  0  0  0
   44.1060   33.3290   40.5430 C   0  0  0  0  0  0  0  0  0  0  0  0
   43.1290   34.0570   39.5850 C   0  0  0  0  0  0  0  0  0  0  0  0
   42.8950   35.3800   40.2310 C   0  0  0  0  0  0  0  0  0  0  0  0
   43.7210   35.4020   41.5020 C   0  0  0  0  0  0  0  0  0  0  0  0
   47.8720   34.7130   41.1670 C   0  0  1  0  0  0  0  0  0  0  0  0
   48.8310   35.7850   41.5090 C   0  0  0  0  0  0  0  0  0  0  0  0
   48.4830   33.5000   40.5240 C   0  0  0  0  0  0  0  0  0  0  0  0
   47.7300   33.0530   39.3630 N   0  0  0  0  0  0  0  0  0  0  0  0
   47.7060   33.9280   38.3680 N   0  0  0  0  0  0  0  0  0  0  0  0
   46.9900   33.4350   37.3500 C   0  0  0  0  0  0  0  0  0  0  0  0
   46.5370   32.1910   37.7090 C   0  0  0  0  0  0  0  0  0  0  0  0
   47.0200   31.9830   38.9770 C   0  0  0  0  0  0  0  0  0  0  0  0
   46.8770   30.6240   40.1240 S   0  0  0  0  0  0  0  0  0  0  0  0
   48.7669   33.9572   43.6317 H   0  0  0  0  0  0  0  0  0  0  0  0
   44.9599   33.1207   45.3175 H   0  0  0  0  0  0  0  0  0  0  0  0
   45.5964   35.0389   40.3865 H   0  0  0  0  0  0  0  0  0  0  0  0
   44.7622   32.6274   40.0070 H   0  0  0  0  0  0  0  0  0  0  0  0
   43.6324   32.6983   41.3098 H   0  0  0  0  0  0  0  0  0  0  0  0
   42.1866   33.4975   39.4908 H   0  0  0  0  0  0  0  0  0  0  0  0
   43.5332   34.1529   38.5665 H   0  0  0  0  0  0  0  0  0  0  0  0
   43.2133   36.1906   39.5590 H   0  0  0  0  0  0  0  0  0  0  0  0
   41.8276   35.5265   40.4527 H   0  0  0  0  0  0  0  0  0  0  0  0
   43.1793   34.9500   42.3459 H   0  0  0  0  0  0  0  0  0  0  0  0
   43.9833   36.4084   41.8602 H   0  0  0  0  0  0  0  0  0  0  0  0
   47.2300   35.2093   40.4244 H   0  0  0  0  0  0  0  0  0  0  0  0
   48.9089   35.8721   42.6028 H   0  0  0  0  0  0  0  0  0  0  0  0
   49.8182   35.5414   41.0893 H   0  0  0  0  0  0  0  0  0  0  0  0
   48.4794   36.7391   41.0893 H   0  0  0  0  0  0  0  0  0  0  0  0
   49.5077   33.7453   40.2081 H   0  0  0  0  0  0  0  0  0  0  0  0
   48.4749   32.6864   41.2643 H   0  0  0  0  0  0  0  0  0  0  0  0
   46.7982   33.9399   36.3917 H   0  0  0  0  0  0  0  0  0  0  0  0
   45.9190   31.5066   37.1092 H   0  0  0  0  0  0  0  0  0  0  0  0
   46.9273   31.1020   41.4069 H   0  0  0  0  0  0  0  0  0  0  0  0
  1  2  1  0
  1  6  2  0
  2  3  2  0
  3  4  1  0
  5  4  2  0
  6  5  1  0
  7 11  1  0
  7  1  1  0
  8  7  1  0
  9 10  1  0
  9  8  1  0
 10 11  1  0
 12 13  1  0
 12  2  1  0
 14 12  1  0
 15 14  1  0
 16 15  1  0
 17 18  1  0
 17 16  2  0
 18 19  2  0
 19 15  1  0
 19 20  1  0
  3 21  1  0
  5 22  1  0
  7 23  1  0
  8 24  1  0
  8 25  1  0
  9 26  1  0
  9 27  1  0
 10 28  1  0
 10 29  1  0
 11 30  1  0
 11 31  1  0
 12 32  1  6
 13 33  1  0
 13 34  1  0
 13 35  1  0
 14 36  1  0
 14 37  1  0
 17 38  1  0
 18 39  1  0
 20 40  1  0
M  ISO  8  21  14  22  14  23  13  24  13  25  13  26  13  27  13  28  13
M  ISO  8  29  13  30  13  31  13  32   8  33   8  34   8  35   8  36   8
M  ISO  4  37   8  38  14  39  14  40  11
M  END
>  <minimizedAffinity>  (1) 
-4.74234772

>  <minimizedRMSD>  (1) 
0.209711954

$$$$
