
     RDKit          3D

 39 42  0  0  0  0  0  0  0  0999 V2000
   45.1970   34.7380   42.4290 C   0  0  0  0  0  0  0  0  0  0  0  0
   45.0020   36.0450   43.0640 C   0  0  0  0  0  0  0  0  0  0  0  0
   44.8740   35.8670   44.5680 C   0  0  0  0  0  0  0  0  0  0  0  0
   45.1510   34.4080   44.8570 C   0  0  0  0  0  0  0  0  0  0  0  0
   44.8240   33.7320   43.5920 C   0  0  0  0  0  0  0  0  0  0  0  0
   46.5750   34.3810   42.1030 C   0  0  0  0  0  0  0  0  0  0  0  0
   47.5190   35.3910   41.8160 C   0  0  0  0  0  0  0  0  0  0  0  0
   48.8340   35.0950   41.4830 C   0  0  0  0  0  0  0  0  0  0  0  0
   49.1430   33.7730   41.4540 N   0  0  0  0  0  0  0  0  0  0  0  0
   48.2400   32.8030   41.7300 C   0  0  0  0  0  0  0  0  0  0  0  0
   46.9860   33.1290   42.0470 N   0  0  0  0  0  0  0  0  0  0  0  0
   44.2190   34.4440   41.3490 C   0  0  0  0  0  0  0  0  0  0  0  0
   44.6320   34.0210   40.2420 O   0  0  0  0  0  0  0  0  0  0  0  0
   42.7650   34.5330   41.2220 C   0  0  0  0  0  0  0  0  0  0  0  0
   41.9730   35.5930   40.9340 C   0  0  0  0  0  0  0  0  0  0  0  0
   40.6590   35.3160   40.8860 N   0  0  0  0  0  0  0  0  0  0  0  0
   40.5930   34.0100   41.1590 C   0  0  0  0  0  0  0  0  0  0  0  0
   39.5080   33.1660   41.2510 C   0  0  0  0  0  0  0  0  0  0  0  0
   39.6640   31.8320   41.5470 C   0  0  0  0  0  0  0  0  0  0  0  0
   40.8990   31.2650   41.7670 C   0  0  0  0  0  0  0  0  0  0  0  0
   41.9340   32.1470   41.6630 C   0  0  0  0  0  0  0  0  0  0  0  0
   41.8780   33.4960   41.3720 C   0  0  0  0  0  0  0  0  0  0  0  0
   45.8645   36.6913   42.8439 H   0  0  0  0  0  0  0  0  0  0  0  0
   44.0849   36.5086   42.6716 H   0  0  0  0  0  0  0  0  0  0  0  0
   45.6055   36.5024   45.0888 H   0  0  0  0  0  0  0  0  0  0  0  0
   43.8720   36.1568   44.9174 H   0  0  0  0  0  0  0  0  0  0  0  0
   46.2076   34.2546   45.1217 H   0  0  0  0  0  0  0  0  0  0  0  0
   44.5683   34.0245   45.7075 H   0  0  0  0  0  0  0  0  0  0  0  0
   43.7510   33.4926   43.5565 H   0  0  0  0  0  0  0  0  0  0  0  0
   45.3804   32.7883   43.4924 H   0  0  0  0  0  0  0  0  0  0  0  0
   47.2032   36.4439   41.8575 H   0  0  0  0  0  0  0  0  0  0  0  0
   49.5742   35.8771   41.2583 H   0  0  0  0  0  0  0  0  0  0  0  0
   48.5405   31.7455   41.6928 H   0  0  0  0  0  0  0  0  0  0  0  0
   42.3738   36.6014   40.7536 H   0  0  0  0  0  0  0  0  0  0  0  0
   39.8820   35.9616   40.6851 H   0  0  0  0  0  0  0  0  0  0  0  0
   38.4973   33.5669   41.0845 H   0  0  0  0  0  0  0  0  0  0  0  0
   38.7695   31.1950   41.6103 H   0  0  0  0  0  0  0  0  0  0  0  0
   41.0380   30.2000   42.0045 H   0  0  0  0  0  0  0  0  0  0  0  0
   42.9387   31.7323   41.8320 H   0  0  0  0  0  0  0  0  0  0  0  0
  1  2  1  0
  1  5  1  0
  2  3  1  0
  3  4  1  0
  5  4  1  0
  6  1  1  0
  7  6  2  0
  8  7  1  0
  9  8  2  0
  9 10  1  0
 10 11  2  0
 11  6  1  0
 12  1  1  0
 13 12  2  0
 14 12  1  0
 14 22  1  0
 15 14  2  0
 16 15  1  0
 16 17  1  0
 17 18  2  0
 17 22  1  0
 18 19  1  0
 19 20  2  0
 21 20  1  0
 22 21  2  0
  2 23  1  0
  2 24  1  0
  3 25  1  0
  3 26  1  0
  4 27  1  0
  4 28  1  0
  5 29  1  0
  5 30  1  0
  7 31  1  0
  8 32  1  0
 10 33  1  0
 15 34  1  0
 16 35  1  0
 18 36  1  0
 19 37  1  0
 20 38  1  0
 21 39  1  0
M  ISO  8  23  13  24  13  25  13  26  13  27  13  28  13  29  13  30  13
M  ISO  8  31  14  32  14  33  14  34  14  35   9  36  14  37  14  38  14
M  ISO  1  39  14
M  END
>  <minimizedAffinity>  (1) 
-5.61267233

>  <minimizedRMSD>  (1) 
3.99490714

$$$$
