
     RDKit          3D

 41 43  0  0  0  0  0  0  0  0999 V2000
   45.6630   34.7740   42.5580 C   0  0  0  0  0  0  0  0  0  0  0  0
   45.2190   36.0870   43.0900 C   0  0  0  0  0  0  0  0  0  0  0  0
   44.8040   35.8820   44.5420 C   0  0  0  0  0  0  0  0  0  0  0  0
   45.1300   34.4510   44.8950 C   0  0  0  0  0  0  0  0  0  0  0  0
   45.1430   33.7570   43.5890 C   0  0  0  0  0  0  0  0  0  0  0  0
   47.1170   34.6200   42.4860 C   0  0  0  0  0  0  0  0  0  0  0  0
   47.9700   35.6360   42.0240 C   0  0  0  0  0  0  0  0  0  0  0  0
   49.3490   35.3940   41.9840 C   0  0  0  0  0  0  0  0  0  0  0  0
   49.7920   34.1720   42.3990 N   0  0  0  0  0  0  0  0  0  0  0  0
   48.9510   33.2090   42.8400 C   0  0  0  0  0  0  0  0  0  0  0  0
   47.6370   33.4360   42.8790 N   0  0  0  0  0  0  0  0  0  0  0  0
   44.9660   34.4660   41.2790 C   0  0  0  0  0  0  0  0  0  0  0  0
   44.0860   35.1950   40.7930 O   0  0  0  0  0  0  0  0  0  0  0  0
   45.0050   33.3720   40.2730 C   0  0  0  0  0  0  0  0  0  0  0  0
   43.7950   33.5270   39.3680 C   0  0  0  0  0  0  0  0  0  0  0  0
   43.7770   32.4660   38.2970 C   0  0  0  0  0  0  0  0  0  0  0  0
   45.1590   31.9490   37.9800 C   0  0  0  0  0  0  0  0  0  0  0  0
   46.2100   33.0200   38.0910 C   0  0  0  0  0  0  0  0  0  0  0  0
   46.2950   33.5100   39.4950 C   0  0  0  0  0  0  0  0  0  0  0  0
   46.0444   36.8120   43.0350 H   0  0  0  0  0  0  0  0  0  0  0  0
   44.3766   36.4770   42.4998 H   0  0  0  0  0  0  0  0  0  0  0  0
   45.3620   36.5690   45.1952 H   0  0  0  0  0  0  0  0  0  0  0  0
   43.7314   36.0856   44.6768 H   0  0  0  0  0  0  0  0  0  0  0  0
   46.1128   34.3827   45.3844 H   0  0  0  0  0  0  0  0  0  0  0  0
   44.4090   34.0132   45.6010 H   0  0  0  0  0  0  0  0  0  0  0  0
   44.1269   33.4310   43.3219 H   0  0  0  0  0  0  0  0  0  0  0  0
   45.7813   32.8617   43.6210 H   0  0  0  0  0  0  0  0  0  0  0  0
   47.5621   36.6046   41.6993 H   0  0  0  0  0  0  0  0  0  0  0  0
   50.0512   36.1632   41.6300 H   0  0  0  0  0  0  0  0  0  0  0  0
   49.3508   32.2377   43.1668 H   0  0  0  0  0  0  0  0  0  0  0  0
   44.9729   32.3756   40.7379 H   0  0  0  0  0  0  0  0  0  0  0  0
   42.8806   33.4415   39.9734 H   0  0  0  0  0  0  0  0  0  0  0  0
   43.8470   34.5124   38.8819 H   0  0  0  0  0  0  0  0  0  0  0  0
   43.1555   31.6263   38.6413 H   0  0  0  0  0  0  0  0  0  0  0  0
   43.3688   32.9188   37.3814 H   0  0  0  0  0  0  0  0  0  0  0  0
   45.1623   31.5556   36.9528 H   0  0  0  0  0  0  0  0  0  0  0  0
   45.4003   31.1643   38.7121 H   0  0  0  0  0  0  0  0  0  0  0  0
   47.1840   32.6065   37.7903 H   0  0  0  0  0  0  0  0  0  0  0  0
   45.9402   33.8589   37.4326 H   0  0  0  0  0  0  0  0  0  0  0  0
   47.0760   32.9360   40.0152 H   0  0  0  0  0  0  0  0  0  0  0  0
   46.5230   34.5849   39.4441 H   0  0  0  0  0  0  0  0  0  0  0  0
  1  2  1  0
  1  5  1  0
  2  3  1  0
  3  4  1  0
  5  4  1  0
  6  1  1  0
  6 11  1  0
  7  6  2  0
  8  7  1  0
  8  9  2  0
  9 10  1  0
 10 11  2  0
 12  1  1  0
 13 12  2  0
 14 12  1  0
 15 14  1  0
 16 15  1  0
 17 18  1  0
 17 16  1  0
 18 19  1  0
 19 14  1  0
  2 20  1  0
  2 21  1  0
  3 22  1  0
  3 23  1  0
  4 24  1  0
  4 25  1  0
  5 26  1  0
  5 27  1  0
  7 28  1  0
  8 29  1  0
 10 30  1  0
 14 31  1  0
 15 32  1  0
 15 33  1  0
 16 34  1  0
 16 35  1  0
 17 36  1  0
 17 37  1  0
 18 38  1  0
 18 39  1  0
 19 40  1  0
 19 41  1  0
M  ISO  8  20  13  21  13  22  13  23  13  24  13  25  13  26  13  27  13
M  ISO  8  28  14  29  14  30  14  31  13  32  13  33  13  34  13  35  13
M  ISO  6  36  13  37  13  38  13  39  13  40  13  41  13
M  END
>  <minimizedAffinity>  (1) 
-4.82097292

>  <minimizedRMSD>  (1) 
0.678233683

$$$$
