
     RDKit          3D

 32 34  0  0  0  0  0  0  0  0999 V2000
   45.6770   34.9460   42.5060 C   0  0  0  0  0  0  0  0  0  0  0  0
   45.2270   36.2120   43.0330 C   0  0  0  0  0  0  0  0  0  0  0  0
   44.7810   36.0300   44.4770 C   0  0  0  0  0  0  0  0  0  0  0  0
   45.0650   34.5880   44.8420 C   0  0  0  0  0  0  0  0  0  0  0  0
   45.0900   33.8970   43.5480 C   0  0  0  0  0  0  0  0  0  0  0  0
   47.0990   34.6520   42.4920 C   0  0  0  0  0  0  0  0  0  0  0  0
   47.9830   35.6430   41.9940 C   0  0  0  0  0  0  0  0  0  0  0  0
   49.3630   35.4180   41.9620 C   0  0  0  0  0  0  0  0  0  0  0  0
   49.7760   34.2090   42.4340 N   0  0  0  0  0  0  0  0  0  0  0  0
   48.9060   33.2660   42.9120 C   0  0  0  0  0  0  0  0  0  0  0  0
   47.5850   33.5010   42.9330 N   0  0  0  0  0  0  0  0  0  0  0  0
   44.9790   34.5700   41.2170 C   0  0  0  0  0  0  0  0  0  0  0  0
   43.9100   35.1010   40.8810 O   0  0  0  0  0  0  0  0  0  0  0  0
   45.5600   33.5530   40.3380 C   0  0  0  0  0  0  0  0  0  0  0  0
   45.1360   32.2400   40.3740 C   0  0  0  0  0  0  0  0  0  0  0  0
   45.8680   31.5110   39.4290 C   0  0  0  0  0  0  0  0  0  0  0  0
   46.7130   32.4720   38.8690 C   0  0  0  0  0  0  0  0  0  0  0  0
   46.4820   33.6190   39.4380 O   0  0  0  0  0  0  0  0  0  0  0  0
   46.0508   36.9398   42.9925 H   0  0  0  0  0  0  0  0  0  0  0  0
   44.3827   36.5805   42.4318 H   0  0  0  0  0  0  0  0  0  0  0  0
   45.3454   36.7061   45.1361 H   0  0  0  0  0  0  0  0  0  0  0  0
   43.7126   36.2645   44.5935 H   0  0  0  0  0  0  0  0  0  0  0  0
   46.0346   34.4970   45.3535 H   0  0  0  0  0  0  0  0  0  0  0  0
   44.3184   34.1695   45.5330 H   0  0  0  0  0  0  0  0  0  0  0  0
   44.0735   33.5949   43.2557 H   0  0  0  0  0  0  0  0  0  0  0  0
   45.7009   32.9832   43.5894 H   0  0  0  0  0  0  0  0  0  0  0  0
   47.5789   36.5988   41.6290 H   0  0  0  0  0  0  0  0  0  0  0  0
   50.0697   36.1695   41.5800 H   0  0  0  0  0  0  0  0  0  0  0  0
   49.2939   32.3057   43.2827 H   0  0  0  0  0  0  0  0  0  0  0  0
   44.3548   31.8347   41.0338 H   0  0  0  0  0  0  0  0  0  0  0  0
   45.7953   30.4406   39.1863 H   0  0  0  0  0  0  0  0  0  0  0  0
   47.4531   32.2889   38.0761 H   0  0  0  0  0  0  0  0  0  0  0  0
  1  2  1  0
  1  5  1  0
  2  3  1  0
  3  4  1  0
  5  4  1  0
  6  1  1  0
  6 11  1  0
  7  6  2  0
  8  7  1  0
  8  9  2  0
  9 10  1  0
 10 11  2  0
 12  1  1  0
 13 12  2  0
 14 15  2  0
 14 12  1  0
 16 15  1  0
 17 16  2  0
 17 18  1  0
 18 14  1  0
  2 19  1  0
  2 20  1  0
  3 21  1  0
  3 22  1  0
  4 23  1  0
  4 24  1  0
  5 25  1  0
  5 26  1  0
  7 27  1  0
  8 28  1  0
 10 29  1  0
 15 30  1  0
 16 31  1  0
 17 32  1  0
M  ISO  8  19  13  20  13  21  13  22  13  23  13  24  13  25  13  26  13
M  ISO  6  27  14  28  14  29  14  30  14  31  14  32  14
M  END
>  <minimizedAffinity>  (1) 
-4.58832312

>  <minimizedRMSD>  (1) 
0.48045215

$$$$
