
     RDKit          3D

 31 33  0  0  0  0  0  0  0  0999 V2000
   45.6960   34.9100   42.4850 C   0  0  0  0  0  0  0  0  0  0  0  0
   45.2310   36.1790   42.9930 C   0  0  0  0  0  0  0  0  0  0  0  0
   44.7760   36.0100   44.4350 C   0  0  0  0  0  0  0  0  0  0  0  0
   45.0850   34.5760   44.8220 C   0  0  0  0  0  0  0  0  0  0  0  0
   45.1190   33.8660   43.5310 C   0  0  0  0  0  0  0  0  0  0  0  0
   47.1240   34.6370   42.4790 C   0  0  0  0  0  0  0  0  0  0  0  0
   48.0080   35.6350   42.0030 C   0  0  0  0  0  0  0  0  0  0  0  0
   49.3850   35.4090   41.9880 C   0  0  0  0  0  0  0  0  0  0  0  0
   49.8110   34.2040   42.4470 N   0  0  0  0  0  0  0  0  0  0  0  0
   48.9420   33.2550   42.9010 C   0  0  0  0  0  0  0  0  0  0  0  0
   47.6240   33.4890   42.9080 N   0  0  0  0  0  0  0  0  0  0  0  0
   45.0170   34.5130   41.1950 C   0  0  0  0  0  0  0  0  0  0  0  0
   43.9490   35.0320   40.8390 O   0  0  0  0  0  0  0  0  0  0  0  0
   45.5880   33.4800   40.2940 C   0  0  0  0  0  0  0  0  0  0  0  0
   45.0720   32.2030   40.3990 C   0  0  0  0  0  0  0  0  0  0  0  0
   46.0480   31.2980   39.1350 S   0  0  0  0  0  0  0  0  0  0  0  0
   47.0120   32.8730   38.6810 C   0  0  0  0  0  0  0  0  0  0  0  0
   46.5350   33.5980   39.3880 N   0  0  0  0  0  0  0  0  0  0  0  0
   46.0487   36.9135   42.9499 H   0  0  0  0  0  0  0  0  0  0  0  0
   44.3884   36.5333   42.3810 H   0  0  0  0  0  0  0  0  0  0  0  0
   45.3219   36.7057   45.0892 H   0  0  0  0  0  0  0  0  0  0  0  0
   43.7027   36.2267   44.5402 H   0  0  0  0  0  0  0  0  0  0  0  0
   46.0568   34.5082   45.3328 H   0  0  0  0  0  0  0  0  0  0  0  0
   44.3478   34.1546   45.5213 H   0  0  0  0  0  0  0  0  0  0  0  0
   44.1064   33.5503   43.2397 H   0  0  0  0  0  0  0  0  0  0  0  0
   45.7369   32.9574   43.5823 H   0  0  0  0  0  0  0  0  0  0  0  0
   47.6072   36.5940   41.6429 H   0  0  0  0  0  0  0  0  0  0  0  0
   50.0906   36.1695   41.6224 H   0  0  0  0  0  0  0  0  0  0  0  0
   49.3273   32.2907   43.2639 H   0  0  0  0  0  0  0  0  0  0  0  0
   44.2824   31.8267   41.0660 H   0  0  0  0  0  0  0  0  0  0  0  0
   47.8084   33.0271   37.9381 H   0  0  0  0  0  0  0  0  0  0  0  0
  1  2  1  0
  1  5  1  0
  2  3  1  0
  3  4  1  0
  5  4  1  0
  6  1  1  0
  6 11  1  0
  7  6  2  0
  8  7  1  0
  8  9  2  0
  9 10  1  0
 10 11  2  0
 12  1  1  0
 13 12  2  0
 14 15  2  0
 14 12  1  0
 16 15  1  0
 17 16  1  0
 17 18  2  0
 18 14  1  0
  2 19  1  0
  2 20  1  0
  3 21  1  0
  3 22  1  0
  4 23  1  0
  4 24  1  0
  5 25  1  0
  5 26  1  0
  7 27  1  0
  8 28  1  0
 10 29  1  0
 15 30  1  0
 17 31  1  0
M  ISO  8  19  13  20  13  21  13  22  13  23  13  24  13  25  13  26  13
M  ISO  5  27  14  28  14  29  14  30  14  31  14
M  END
>  <minimizedAffinity>  (1) 
-4.59706879

>  <minimizedRMSD>  (1) 
0.614003003

$$$$
