
     RDKit          3D

 33 35  0  0  0  0  0  0  0  0999 V2000
   45.6950   34.8730   42.5150 C   0  0  0  0  0  0  0  0  0  0  0  0
   45.2230   36.1310   43.0640 C   0  0  0  0  0  0  0  0  0  0  0  0
   44.7950   35.9230   44.5090 C   0  0  0  0  0  0  0  0  0  0  0  0
   45.1070   34.4820   44.8540 C   0  0  0  0  0  0  0  0  0  0  0  0
   45.1410   33.8070   43.5460 C   0  0  0  0  0  0  0  0  0  0  0  0
   47.1260   34.6260   42.4960 C   0  0  0  0  0  0  0  0  0  0  0  0
   47.9920   35.6290   41.9940 C   0  0  0  0  0  0  0  0  0  0  0  0
   49.3720   35.4350   41.9620 C   0  0  0  0  0  0  0  0  0  0  0  0
   49.8210   34.2340   42.4400 N   0  0  0  0  0  0  0  0  0  0  0  0
   48.9750   33.2890   42.9140 C   0  0  0  0  0  0  0  0  0  0  0  0
   47.6520   33.4960   42.9370 N   0  0  0  0  0  0  0  0  0  0  0  0
   45.0040   34.5120   41.2280 C   0  0  0  0  0  0  0  0  0  0  0  0
   43.9660   35.0910   40.8640 O   0  0  0  0  0  0  0  0  0  0  0  0
   45.5220   33.4460   40.3370 C   0  0  0  0  0  0  0  0  0  0  0  0
   45.0280   32.1850   40.4300 C   0  0  0  0  0  0  0  0  0  0  0  0
   45.3970   31.0880   39.6840 C   0  0  0  0  0  0  0  0  0  0  0  0
   46.3700   31.3160   38.7530 N   0  0  0  0  0  0  0  0  0  0  0  0
   46.8850   32.5690   38.6340 C   0  0  0  0  0  0  0  0  0  0  0  0
   46.4700   33.5630   39.3950 N   0  0  0  0  0  0  0  0  0  0  0  0
   46.0320   36.8752   43.0244 H   0  0  0  0  0  0  0  0  0  0  0  0
   44.3662   36.4903   42.4752 H   0  0  0  0  0  0  0  0  0  0  0  0
   45.3542   36.6006   45.1710 H   0  0  0  0  0  0  0  0  0  0  0  0
   43.7238   36.1370   44.6383 H   0  0  0  0  0  0  0  0  0  0  0  0
   46.0797   34.4023   45.3615 H   0  0  0  0  0  0  0  0  0  0  0  0
   44.3707   34.0403   45.5416 H   0  0  0  0  0  0  0  0  0  0  0  0
   44.1298   33.4855   43.2561 H   0  0  0  0  0  0  0  0  0  0  0  0
   45.7750   32.9086   43.5742 H   0  0  0  0  0  0  0  0  0  0  0  0
   47.5690   36.5746   41.6241 H   0  0  0  0  0  0  0  0  0  0  0  0
   50.0593   36.2019   41.5754 H   0  0  0  0  0  0  0  0  0  0  0  0
   49.3806   32.3366   43.2859 H   0  0  0  0  0  0  0  0  0  0  0  0
   44.2456   32.0213   41.1857 H   0  0  0  0  0  0  0  0  0  0  0  0
   44.9403   30.0977   39.8278 H   0  0  0  0  0  0  0  0  0  0  0  0
   47.6673   32.7582   37.8842 H   0  0  0  0  0  0  0  0  0  0  0  0
  1  2  1  0
  1  5  1  0
  2  3  1  0
  3  4  1  0
  5  4  1  0
  6  1  1  0
  6 11  1  0
  7  6  2  0
  8  7  1  0
  8  9  2  0
  9 10  1  0
 10 11  2  0
 12  1  1  0
 13 12  2  0
 14 15  2  0
 14 12  1  0
 16 15  1  0
 17 16  2  0
 18 17  1  0
 18 19  2  0
 19 14  1  0
  2 20  1  0
  2 21  1  0
  3 22  1  0
  3 23  1  0
  4 24  1  0
  4 25  1  0
  5 26  1  0
  5 27  1  0
  7 28  1  0
  8 29  1  0
 10 30  1  0
 15 31  1  0
 16 32  1  0
 18 33  1  0
M  ISO  8  20  13  21  13  22  13  23  13  24  13  25  13  26  13  27  13
M  ISO  6  28  14  29  14  30  14  31  14  32  14  33  14
M  END
>  <minimizedAffinity>  (1) 
-4.63608885

>  <minimizedRMSD>  (1) 
0.325542599

$$$$
