
     RDKit          3D

 40 42  0  0  1  0  0  0  0  0999 V2000
   45.6720   34.2180   42.2010 C   0  0  0  0  0  0  0  0  0  0  0  0
   47.0640   34.2650   42.2940 C   0  0  0  0  0  0  0  0  0  0  0  0
   47.6710   33.9140   43.5250 C   0  0  0  0  0  0  0  0  0  0  0  0
   46.8960   33.5500   44.5520 N   0  0  0  0  0  0  0  0  0  0  0  0
   45.5490   33.5060   44.4560 C   0  0  0  0  0  0  0  0  0  0  0  0
   44.9710   33.8350   43.3040 N   0  0  0  0  0  0  0  0  0  0  0  0
   44.9080   34.5890   41.0620 C   0  0  0  0  0  0  0  0  0  0  0  0
   44.2530   33.3210   40.4240 C   0  0  0  0  0  0  0  0  0  0  0  0
   43.2530   34.0290   39.4710 C   0  0  0  0  0  0  0  0  0  0  0  0
   42.8880   35.2940   40.1770 C   0  0  0  0  0  0  0  0  0  0  0  0
   43.6620   35.3040   41.4810 C   0  0  0  0  0  0  0  0  0  0  0  0
   47.8940   34.6830   41.1530 C   0  0  1  0  0  0  0  0  0  0  0  0
   48.8500   35.7610   41.4800 C   0  0  0  0  0  0  0  0  0  0  0  0
   48.5080   33.4470   40.5520 C   0  0  0  0  0  0  0  0  0  0  0  0
   47.7790   32.9840   39.3830 N   0  0  0  0  0  0  0  0  0  0  0  0
   47.5710   33.9230   38.4690 N   0  0  0  0  0  0  0  0  0  0  0  0
   46.8920   33.4030   37.4380 C   0  0  0  0  0  0  0  0  0  0  0  0
   46.6570   32.0790   37.7030 C   0  0  0  0  0  0  0  0  0  0  0  0
   47.2280   31.8510   38.9290 C   0  0  0  0  0  0  0  0  0  0  0  0
   47.3540   30.7440   39.7740 O   0  0  0  0  0  0  0  0  0  0  0  0
   48.7652   33.9406   43.6345 H   0  0  0  0  0  0  0  0  0  0  0  0
   44.9384   33.2021   45.3191 H   0  0  0  0  0  0  0  0  0  0  0  0
   45.5924   35.1588   40.4163 H   0  0  0  0  0  0  0  0  0  0  0  0
   44.9843   32.7087   39.8760 H   0  0  0  0  0  0  0  0  0  0  0  0
   43.8105   32.6056   41.1328 H   0  0  0  0  0  0  0  0  0  0  0  0
   42.3623   33.4040   39.3093 H   0  0  0  0  0  0  0  0  0  0  0  0
   43.6863   34.2167   38.4775 H   0  0  0  0  0  0  0  0  0  0  0  0
   43.1664   36.1641   39.5642 H   0  0  0  0  0  0  0  0  0  0  0  0
   41.8045   35.3469   40.3595 H   0  0  0  0  0  0  0  0  0  0  0  0
   43.1286   34.7600   42.2744 H   0  0  0  0  0  0  0  0  0  0  0  0
   43.8282   36.3038   41.9085 H   0  0  0  0  0  0  0  0  0  0  0  0
   47.2658   35.1635   40.3885 H   0  0  0  0  0  0  0  0  0  0  0  0
   48.9350   35.8568   42.5725 H   0  0  0  0  0  0  0  0  0  0  0  0
   49.8354   35.5185   41.0555 H   0  0  0  0  0  0  0  0  0  0  0  0
   48.4914   36.7103   41.0555 H   0  0  0  0  0  0  0  0  0  0  0  0
   49.5432   33.6734   40.2570 H   0  0  0  0  0  0  0  0  0  0  0  0
   48.4724   32.6501   41.3094 H   0  0  0  0  0  0  0  0  0  0  0  0
   46.5772   33.9453   36.5342 H   0  0  0  0  0  0  0  0  0  0  0  0
   46.1248   31.3548   37.0687 H   0  0  0  0  0  0  0  0  0  0  0  0
   47.8272   30.8329   40.6390 H   0  0  0  0  0  0  0  0  0  0  0  0
  1  2  1  0
  1  6  2  0
  2  3  2  0
  3  4  1  0
  5  4  2  0
  6  5  1  0
  7 11  1  0
  7  1  1  0
  8  7  1  0
  9 10  1  0
  9  8  1  0
 10 11  1  0
 12 13  1  0
 12  2  1  0
 14 12  1  0
 15 14  1  0
 16 15  1  0
 17 18  1  0
 17 16  2  0
 18 19  2  0
 19 15  1  0
 19 20  1  0
  3 21  1  0
  5 22  1  0
  7 23  1  0
  8 24  1  0
  8 25  1  0
  9 26  1  0
  9 27  1  0
 10 28  1  0
 10 29  1  0
 11 30  1  0
 11 31  1  0
 12 32  1  6
 13 33  1  0
 13 34  1  0
 13 35  1  0
 14 36  1  0
 14 37  1  0
 17 38  1  0
 18 39  1  0
 20 40  1  0
M  ISO  8  21  14  22  14  23  13  24  13  25  13  26  13  27  13  28  13
M  ISO  8  29  13  30  13  31  13  32   8  33   8  34   8  35   8  36   8
M  ISO  4  37   8  38  14  39  14  40   3
M  END
>  <minimizedAffinity>  (1) 
-4.6973443

>  <minimizedRMSD>  (1) 
0.0485331304

$$$$
