
     RDKit          3D

 25 26  0  0  0  0  0  0  0  0999 V2000
   44.5320   35.9240   44.8460 C   0  0  0  0  0  0  0  0  0  0  0  0
   45.1340   35.9160   43.5610 C   0  0  0  0  0  0  0  0  0  0  0  0
   45.9700   34.8500   43.2340 C   0  0  0  0  0  0  0  0  0  0  0  0
   46.1610   33.8780   44.1630 N   0  0  0  0  0  0  0  0  0  0  0  0
   45.5770   33.9110   45.3770 C   0  0  0  0  0  0  0  0  0  0  0  0
   44.7640   34.9290   45.7180 N   0  0  0  0  0  0  0  0  0  0  0  0
   45.8150   32.8500   46.3240 N   0  0  0  0  0  0  0  0  0  0  0  0
   45.1780   32.8900   47.6420 C   0  0  0  0  0  0  0  0  0  0  0  0
   46.0160   32.2620   48.7140 C   0  0  0  0  0  0  0  0  0  0  0  0
   47.4540   32.2220   48.2550 C   0  0  0  0  0  0  0  0  0  0  0  0
   47.5010   31.2370   47.1020 C   0  0  0  0  0  0  0  0  0  0  0  0
   46.6840   31.7570   45.9650 C   0  0  0  0  0  0  0  0  0  0  0  0
   43.8684   36.7537   45.1310 H   0  0  0  0  0  0  0  0  0  0  0  0
   44.9461   36.7282   42.8433 H   0  0  0  0  0  0  0  0  0  0  0  0
   46.4613   34.7974   42.2512 H   0  0  0  0  0  0  0  0  0  0  0  0
   44.9936   33.9405   47.9110 H   0  0  0  0  0  0  0  0  0  0  0  0
   44.2430   32.3145   47.5743 H   0  0  0  0  0  0  0  0  0  0  0  0
   45.9400   32.8560   49.6367 H   0  0  0  0  0  0  0  0  0  0  0  0
   45.6609   31.2399   48.9118 H   0  0  0  0  0  0  0  0  0  0  0  0
   47.7751   33.2189   47.9187 H   0  0  0  0  0  0  0  0  0  0  0  0
   48.1275   31.9186   49.0701 H   0  0  0  0  0  0  0  0  0  0  0  0
   48.5429   31.1064   46.7744 H   0  0  0  0  0  0  0  0  0  0  0  0
   47.0944   30.2694   47.4314 H   0  0  0  0  0  0  0  0  0  0  0  0
   46.0646   30.9343   45.5784 H   0  0  0  0  0  0  0  0  0  0  0  0
   47.3894   32.1423   45.2140 H   0  0  0  0  0  0  0  0  0  0  0  0
  1  6  2  0
  2  1  1  0
  3  2  2  0
  3  4  1  0
  4  5  2  0
  5  6  1  0
  5  7  1  0
  7  8  1  0
  8  9  1  0
 10  9  1  0
 11 10  1  0
 12  7  1  0
 12 11  1  0
  1 13  1  0
  2 14  1  0
  3 15  1  0
  8 16  1  0
  8 17  1  0
  9 18  1  0
  9 19  1  0
 10 20  1  0
 10 21  1  0
 11 22  1  0
 11 23  1  0
 12 24  1  0
 12 25  1  0
M  ISO  8  13  14  14  14  15  14  16  13  17  13  18  13  19  13  20  13
M  ISO  5  21  13  22  13  23  13  24  13  25  13
M  END
>  <minimizedAffinity>  (1) 
-4.62901545

>  <minimizedRMSD>  (1) 
0.785734653

$$$$
