
     RDKit          3D

 24 26  0  0  0  0  0  0  0  0999 V2000
   46.1690   33.6390   40.2220 N   0  0  0  0  0  0  0  0  0  0  0  0
   45.6090   33.0190   39.1790 C   0  0  0  0  0  0  0  0  0  0  0  0
   46.6590   32.5940   38.3670 C   0  0  0  0  0  0  0  0  0  0  0  0
   47.8260   32.9620   38.9300 N   0  0  0  0  0  0  0  0  0  0  0  0
   47.5170   33.6160   40.0930 C   0  0  0  0  0  0  0  0  0  0  0  0
   48.4720   34.1730   41.0000 N   0  0  0  0  0  0  0  0  0  0  0  0
   48.5710   35.4880   41.0460 N   0  0  0  0  0  0  0  0  0  0  0  0
   49.4850   35.8890   41.9180 C   0  0  0  0  0  0  0  0  0  0  0  0
   50.0160   34.7290   42.4770 C   0  0  0  0  0  0  0  0  0  0  0  0
   49.3550   33.6570   41.8750 C   0  0  0  0  0  0  0  0  0  0  0  0
   43.4860   35.4780   41.9430 C   0  0  0  0  0  0  0  0  0  0  0  0
   44.2530   34.8920   40.9300 C   0  0  0  0  0  0  0  0  0  0  0  0
   45.4250   34.2160   41.2780 C   0  0  0  0  0  0  0  0  0  0  0  0
   45.7690   34.1570   42.5860 N   0  0  0  0  0  0  0  0  0  0  0  0
   45.0170   34.7280   43.5490 C   0  0  0  0  0  0  0  0  0  0  0  0
   43.8830   35.3830   43.2310 N   0  0  0  0  0  0  0  0  0  0  0  0
   44.5339   32.8732   38.9976 H   0  0  0  0  0  0  0  0  0  0  0  0
   46.5519   32.0463   37.4191 H   0  0  0  0  0  0  0  0  0  0  0  0
   49.7667   36.9262   42.1524 H   0  0  0  0  0  0  0  0  0  0  0  0
   50.8028   34.6693   43.2434 H   0  0  0  0  0  0  0  0  0  0  0  0
   49.5243   32.5892   42.0780 H   0  0  0  0  0  0  0  0  0  0  0  0
   42.5602   36.0158   41.6909 H   0  0  0  0  0  0  0  0  0  0  0  0
   43.9387   34.9624   39.8782 H   0  0  0  0  0  0  0  0  0  0  0  0
   45.3313   34.6586   44.6008 H   0  0  0  0  0  0  0  0  0  0  0  0
  1 13  1  0
  2  1  1  0
  3  4  1  0
  3  2  2  0
  4  5  2  0
  5  1  1  0
  5  6  1  0
  6  7  1  0
  6 10  1  0
  7  8  2  0
  8  9  1  0
 10  9  2  0
 11 16  2  0
 12 13  2  0
 12 11  1  0
 13 14  1  0
 14 15  2  0
 16 15  1  0
  2 17  1  0
  3 18  1  0
  8 19  1  0
  9 20  1  0
 10 21  1  0
 11 22  1  0
 12 23  1  0
 15 24  1  0
M  ISO  8  17  14  18  14  19  14  20  14  21  14  22  14  23  14  24  14
M  END
>  <minimizedAffinity>  (1) 
-4.30779076

>  <minimizedRMSD>  (1) 
2.49330664

$$$$
