
     RDKit          3D

 24 26  0  0  0  0  0  0  0  0999 V2000
   45.6420   34.3550   41.6400 N   0  0  0  0  0  0  0  0  0  0  0  0
   46.5710   34.2950   40.6570 C   0  0  0  0  0  0  0  0  0  0  0  0
   47.7960   34.4670   41.3150 C   0  0  0  0  0  0  0  0  0  0  0  0
   47.5720   34.6230   42.6510 N   0  0  0  0  0  0  0  0  0  0  0  0
   46.2320   34.5490   42.8230 C   0  0  0  0  0  0  0  0  0  0  0  0
   42.1850   35.2720   40.7560 C   0  0  0  0  0  0  0  0  0  0  0  0
   43.5600   35.3830   41.0200 C   0  0  0  0  0  0  0  0  0  0  0  0
   44.2630   34.2230   41.3790 C   0  0  0  0  0  0  0  0  0  0  0  0
   43.5720   33.0510   41.4510 N   0  0  0  0  0  0  0  0  0  0  0  0
   42.2450   32.9770   41.1890 C   0  0  0  0  0  0  0  0  0  0  0  0
   41.5650   34.0850   40.8450 N   0  0  0  0  0  0  0  0  0  0  0  0
   45.6160   34.6750   44.1390 C   0  0  0  0  0  0  0  0  0  0  0  0
   44.7730   35.6360   44.6540 C   0  0  0  0  0  0  0  0  0  0  0  0
   44.4560   35.3340   45.9260 N   0  0  0  0  0  0  0  0  0  0  0  0
   45.0920   34.1770   46.2400 C   0  0  0  0  0  0  0  0  0  0  0  0
   45.7840   33.8000   45.1480 N   0  0  0  0  0  0  0  0  0  0  0  0
   46.4017   34.1446   39.5806 H   0  0  0  0  0  0  0  0  0  0  0  0
   48.7833   34.4749   40.8300 H   0  0  0  0  0  0  0  0  0  0  0  0
   41.6107   36.1666   40.4735 H   0  0  0  0  0  0  0  0  0  0  0  0
   44.0722   36.3537   40.9472 H   0  0  0  0  0  0  0  0  0  0  0  0
   41.7238   32.0108   41.2576 H   0  0  0  0  0  0  0  0  0  0  0  0
   44.4127   36.5192   44.1061 H   0  0  0  0  0  0  0  0  0  0  0  0
   45.0502   33.6477   47.2034 H   0  0  0  0  0  0  0  0  0  0  0  0
   46.3662   32.9522   45.0921 H   0  0  0  0  0  0  0  0  0  0  0  0
  1  5  1  0
  2  3  2  0
  2  1  1  0
  3  4  1  0
  4  5  2  0
  5 12  1  0
  6 11  2  0
  6  7  1  0
  7  8  2  0
  8  9  1  0
  8  1  1  0
 10  9  2  0
 11 10  1  0
 12 13  2  0
 12 16  1  0
 13 14  1  0
 14 15  2  0
 16 15  1  0
  2 17  1  0
  3 18  1  0
  6 19  1  0
  7 20  1  0
 10 21  1  0
 13 22  1  0
 15 23  1  0
 16 24  1  0
M  ISO  8  17  14  18  14  19  14  20  14  21  14  22  14  23  14  24   9
M  END
>  <minimizedAffinity>  (1) 
-4.39961576

>  <minimizedRMSD>  (1) 
4.13620377

$$$$
