
     RDKit          3D

 23 24  0  0  0  0  0  0  0  0999 V2000
   46.6730   34.4040   41.4500 N   0  0  0  0  0  0  0  0  0  0  0  0
   46.0920   33.6830   40.4830 C   0  0  0  0  0  0  0  0  0  0  0  0
   46.9840   33.6830   39.4210 C   0  0  0  0  0  0  0  0  0  0  0  0
   48.0920   34.4050   39.7610 N   0  0  0  0  0  0  0  0  0  0  0  0
   47.8850   34.8510   41.0350 C   0  0  0  0  0  0  0  0  0  0  0  0
   44.6960   36.0320   44.0930 C   0  0  0  0  0  0  0  0  0  0  0  0
   45.2900   35.7780   42.8470 C   0  0  0  0  0  0  0  0  0  0  0  0
   46.0790   34.6460   42.7150 C   0  0  0  0  0  0  0  0  0  0  0  0
   46.2480   33.8230   43.7990 N   0  0  0  0  0  0  0  0  0  0  0  0
   45.6550   34.1070   44.9810 C   0  0  0  0  0  0  0  0  0  0  0  0
   44.8860   35.2000   45.1270 N   0  0  0  0  0  0  0  0  0  0  0  0
   48.7720   35.6900   41.9100 C   0  0  0  0  0  0  0  0  0  0  0  0
   49.8450   34.8150   42.5290 C   0  0  0  0  0  0  0  0  0  0  0  0
   45.1088   33.1914   40.5227 H   0  0  0  0  0  0  0  0  0  0  0  0
   46.8240   33.1801   38.4559 H   0  0  0  0  0  0  0  0  0  0  0  0
   44.0667   36.9248   44.2228 H   0  0  0  0  0  0  0  0  0  0  0  0
   45.1335   36.4593   41.9976 H   0  0  0  0  0  0  0  0  0  0  0  0
   45.8044   33.4325   45.8370 H   0  0  0  0  0  0  0  0  0  0  0  0
   49.2450   36.4775   41.3049 H   0  0  0  0  0  0  0  0  0  0  0  0
   48.1703   36.1515   42.7069 H   0  0  0  0  0  0  0  0  0  0  0  0
   49.7764   34.8710   43.6254 H   0  0  0  0  0  0  0  0  0  0  0  0
   49.7008   33.7736   42.2053 H   0  0  0  0  0  0  0  0  0  0  0  0
   50.8360   35.1657   42.2053 H   0  0  0  0  0  0  0  0  0  0  0  0
  1  8  1  0
  2  1  1  0
  3  4  1  0
  3  2  2  0
  4  5  2  0
  5  1  1  0
  5 12  1  0
  6 11  2  0
  7  6  1  0
  8  7  2  0
  8  9  1  0
  9 10  2  0
 10 11  1  0
 12 13  1  0
  2 14  1  0
  3 15  1  0
  6 16  1  0
  7 17  1  0
 10 18  1  0
 12 19  1  0
 12 20  1  0
 13 21  1  0
 13 22  1  0
 13 23  1  0
M  ISO  8  14  14  15  14  16  14  17  14  18  14  19   8  20   8  21   8
M  ISO  2  22   8  23   8
M  END
>  <minimizedAffinity>  (1) 
-4.52744436

>  <minimizedRMSD>  (1) 
0.804319918

$$$$
