
     RDKit          3D

 29 31  0  0  0  0  0  0  0  0999 V2000
   47.3720   33.8540   42.4370 N   0  0  0  0  0  0  0  0  0  0  0  0
   46.7900   34.2910   43.5850 C   0  0  0  0  0  0  0  0  0  0  0  0
   45.6340   34.9290   43.1860 C   0  0  0  0  0  0  0  0  0  0  0  0
   45.5400   34.8700   41.8470 N   0  0  0  0  0  0  0  0  0  0  0  0
   46.6360   34.1920   41.3760 C   0  0  0  0  0  0  0  0  0  0  0  0
   46.8820   33.9320   40.0010 N   0  0  0  0  0  0  0  0  0  0  0  0
   48.0310   34.3660   39.2320 C   0  0  0  0  0  0  0  0  0  0  0  0
   47.9350   33.6940   37.8940 C   0  0  0  0  0  0  0  0  0  0  0  0
   47.0270   32.5190   38.1750 C   0  0  0  0  0  0  0  0  0  0  0  0
   46.0200   33.1780   39.1060 C   0  0  0  0  0  0  0  0  0  0  0  0
   51.0080   33.2180   42.3550 C   0  0  0  0  0  0  0  0  0  0  0  0
   49.7800   33.8990   42.3530 C   0  0  0  0  0  0  0  0  0  0  0  0
   48.6010   33.1420   42.4430 C   0  0  0  0  0  0  0  0  0  0  0  0
   48.7220   31.7940   42.5280 N   0  0  0  0  0  0  0  0  0  0  0  0
   49.9100   31.1760   42.5270 C   0  0  0  0  0  0  0  0  0  0  0  0
   51.0480   31.8790   42.4420 N   0  0  0  0  0  0  0  0  0  0  0  0
   47.1615   34.1632   44.6125 H   0  0  0  0  0  0  0  0  0  0  0  0
   44.9059   35.4090   43.8564 H   0  0  0  0  0  0  0  0  0  0  0  0
   48.0137   35.4590   39.1091 H   0  0  0  0  0  0  0  0  0  0  0  0
   48.9697   34.1011   39.7406 H   0  0  0  0  0  0  0  0  0  0  0  0
   48.9233   33.3573   37.5477 H   0  0  0  0  0  0  0  0  0  0  0  0
   47.5586   34.3556   37.0999 H   0  0  0  0  0  0  0  0  0  0  0  0
   46.5498   32.1437   37.2577 H   0  0  0  0  0  0  0  0  0  0  0  0
   47.5309   31.6338   38.5904 H   0  0  0  0  0  0  0  0  0  0  0  0
   45.3398   33.8423   38.5528 H   0  0  0  0  0  0  0  0  0  0  0  0
   45.3612   32.4643   39.6224 H   0  0  0  0  0  0  0  0  0  0  0  0
   51.9465   33.7874   42.2846 H   0  0  0  0  0  0  0  0  0  0  0  0
   49.7427   34.9961   42.2828 H   0  0  0  0  0  0  0  0  0  0  0  0
   49.9524   30.0790   42.5967 H   0  0  0  0  0  0  0  0  0  0  0  0
  1 13  1  0
  1  2  1  0
  3  2  2  0
  4  3  1  0
  5  4  2  0
  5  1  1  0
  6  5  1  0
  7  6  1  0
  8  9  1  0
  8  7  1  0
  9 10  1  0
 10  6  1  0
 11 16  2  0
 12 11  1  0
 12 13  2  0
 13 14  1  0
 15 14  2  0
 16 15  1  0
  2 17  1  0
  3 18  1  0
  7 19  1  0
  7 20  1  0
  8 21  1  0
  8 22  1  0
  9 23  1  0
  9 24  1  0
 10 25  1  0
 10 26  1  0
 11 27  1  0
 12 28  1  0
 15 29  1  0
M  ISO  8  17  14  18  14  19  13  20  13  21  13  22  13  23  13  24  13
M  ISO  5  25  13  26  13  27  14  28  14  29  14
M  END
>  <minimizedAffinity>  (1) 
-3.92686844

>  <minimizedRMSD>  (1) 
5.25024414

$$$$
