
     RDKit          3D

 26 28  0  0  0  0  0  0  0  0999 V2000
   44.5040   35.8480   44.5640 C   0  0  0  0  0  0  0  0  0  0  0  0
   45.2430   35.6740   43.3800 C   0  0  0  0  0  0  0  0  0  0  0  0
   46.1840   34.6300   43.3710 C   0  0  0  0  0  0  0  0  0  0  0  0
   46.3270   33.8630   44.4850 N   0  0  0  0  0  0  0  0  0  0  0  0
   45.5930   34.0750   45.5920 C   0  0  0  0  0  0  0  0  0  0  0  0
   44.6780   35.0660   45.6390 N   0  0  0  0  0  0  0  0  0  0  0  0
   46.9290   34.4510   42.1820 N   0  0  0  0  0  0  0  0  0  0  0  0
   46.3250   34.3000   40.9650 C   0  0  0  0  0  0  0  0  0  0  0  0
   47.3880   34.1540   40.0660 C   0  0  0  0  0  0  0  0  0  0  0  0
   48.5680   34.2190   40.7420 N   0  0  0  0  0  0  0  0  0  0  0  0
   48.2530   34.4020   42.0410 C   0  0  0  0  0  0  0  0  0  0  0  0
   49.1560   34.5310   43.1450 N   0  0  0  0  0  0  0  0  0  0  0  0
   45.7810   33.2260   46.7620 C   0  0  0  0  0  0  0  0  0  0  0  0
   46.8650   32.4230   47.0340 C   0  0  0  0  0  0  0  0  0  0  0  0
   46.6900   31.7740   48.2230 N   0  0  0  0  0  0  0  0  0  0  0  0
   45.4810   32.1860   48.6880 C   0  0  0  0  0  0  0  0  0  0  0  0
   44.9470   33.0560   47.8030 N   0  0  0  0  0  0  0  0  0  0  0  0
   43.7569   36.6541   44.6096 H   0  0  0  0  0  0  0  0  0  0  0  0
   45.0920   36.3227   42.5046 H   0  0  0  0  0  0  0  0  0  0  0  0
   45.2477   34.2945   40.7426 H   0  0  0  0  0  0  0  0  0  0  0  0
   47.2857   34.0091   38.9804 H   0  0  0  0  0  0  0  0  0  0  0  0
   48.7887   34.6683   44.0974 H   0  0  0  0  0  0  0  0  0  0  0  0
   50.1728   34.4865   42.9866 H   0  0  0  0  0  0  0  0  0  0  0  0
   47.7475   32.3186   46.3856 H   0  0  0  0  0  0  0  0  0  0  0  0
   45.0140   31.8639   49.6304 H   0  0  0  0  0  0  0  0  0  0  0  0
   44.0343   33.5212   47.9101 H   0  0  0  0  0  0  0  0  0  0  0  0
  1  6  2  0
  2  1  1  0
  3  2  2  0
  3  4  1  0
  4  5  2  0
  5  6  1  0
  5 13  1  0
  7  3  1  0
  8  7  1  0
  9 10  1  0
  9  8  2  0
 10 11  2  0
 11  7  1  0
 11 12  1  0
 13 14  2  0
 13 17  1  0
 14 15  1  0
 15 16  2  0
 17 16  1  0
  1 18  1  0
  2 19  1  0
  8 20  1  0
  9 21  1  0
 12 22  1  0
 12 23  1  0
 14 24  1  0
 16 25  1  0
 17 26  1  0
M  ISO  7  18  14  19  14  20  14  21  14  24  14  25  14  26   9
M  END
>  <minimizedAffinity>  (1) 
-6.03473091

>  <minimizedRMSD>  (1) 
0.612561166

$$$$
