
     RDKit          3D

 27 29  0  0  0  0  0  0  0  0999 V2000
   44.5650   35.4800   44.9470 C   0  0  0  0  0  0  0  0  0  0  0  0
   45.2450   35.4220   43.7040 C   0  0  0  0  0  0  0  0  0  0  0  0
   46.2500   34.4430   43.5910 C   0  0  0  0  0  0  0  0  0  0  0  0
   46.4980   33.6390   44.6510 N   0  0  0  0  0  0  0  0  0  0  0  0
   45.8240   33.7360   45.8100 C   0  0  0  0  0  0  0  0  0  0  0  0
   44.8540   34.6630   45.9510 N   0  0  0  0  0  0  0  0  0  0  0  0
   46.9330   34.3740   42.3620 N   0  0  0  0  0  0  0  0  0  0  0  0
   46.2660   34.2690   41.1750 C   0  0  0  0  0  0  0  0  0  0  0  0
   47.2580   34.2270   40.2020 C   0  0  0  0  0  0  0  0  0  0  0  0
   48.4720   34.3060   40.8000 N   0  0  0  0  0  0  0  0  0  0  0  0
   48.2510   34.3960   42.1350 C   0  0  0  0  0  0  0  0  0  0  0  0
   49.2020   34.5010   43.1900 N   0  0  0  0  0  0  0  0  0  0  0  0
   46.1030   32.8620   46.9440 C   0  0  0  0  0  0  0  0  0  0  0  0
   45.1480   32.5790   47.8980 C   0  0  0  0  0  0  0  0  0  0  0  0
   45.4310   31.7470   48.9680 C   0  0  0  0  0  0  0  0  0  0  0  0
   46.6730   31.2150   49.0550 N   0  0  0  0  0  0  0  0  0  0  0  0
   47.6190   31.4760   48.1370 C   0  0  0  0  0  0  0  0  0  0  0  0
   47.2990   32.2860   47.1220 N   0  0  0  0  0  0  0  0  0  0  0  0
   43.7704   36.2284   45.0832 H   0  0  0  0  0  0  0  0  0  0  0  0
   45.0010   36.1032   42.8754 H   0  0  0  0  0  0  0  0  0  0  0  0
   45.1776   34.2267   41.0217 H   0  0  0  0  0  0  0  0  0  0  0  0
   47.0853   34.1430   39.1189 H   0  0  0  0  0  0  0  0  0  0  0  0
   48.8824   34.5621   44.1673 H   0  0  0  0  0  0  0  0  0  0  0  0
   50.2094   34.5158   42.9757 H   0  0  0  0  0  0  0  0  0  0  0  0
   44.1450   33.0215   47.8073 H   0  0  0  0  0  0  0  0  0  0  0  0
   44.6669   31.5241   49.7273 H   0  0  0  0  0  0  0  0  0  0  0  0
   48.6245   31.0374   48.2178 H   0  0  0  0  0  0  0  0  0  0  0  0
  1  6  2  0
  2  1  1  0
  3  2  2  0
  3  4  1  0
  4  5  2  0
  5  6  1  0
  5 13  1  0
  7  3  1  0
  8  7  1  0
  9 10  1  0
  9  8  2  0
 10 11  2  0
 11  7  1  0
 11 12  1  0
 13 18  1  0
 13 14  2  0
 14 15  1  0
 15 16  2  0
 17 16  1  0
 18 17  2  0
  1 19  1  0
  2 20  1  0
  8 21  1  0
  9 22  1  0
 12 23  1  0
 12 24  1  0
 14 25  1  0
 15 26  1  0
 17 27  1  0
M  ISO  7  19  14  20  14  21  14  22  14  25  14  26  14  27  14
M  END
>  <minimizedAffinity>  (1) 
-5.90526009

>  <minimizedRMSD>  (1) 
0.902988076

$$$$
