
     RDKit          3D

 22 23  0  0  0  0  0  0  0  0999 V2000
   44.5870   35.7520   44.7060 C   0  0  0  0  0  0  0  0  0  0  0  0
   45.3090   35.6180   43.5060 C   0  0  0  0  0  0  0  0  0  0  0  0
   46.2150   34.5650   43.4010 C   0  0  0  0  0  0  0  0  0  0  0  0
   46.3370   33.7350   44.4740 N   0  0  0  0  0  0  0  0  0  0  0  0
   45.6320   33.8880   45.6100 C   0  0  0  0  0  0  0  0  0  0  0  0
   44.7510   34.9100   45.7130 N   0  0  0  0  0  0  0  0  0  0  0  0
   46.9330   34.4350   42.2060 N   0  0  0  0  0  0  0  0  0  0  0  0
   46.3130   34.2940   41.0060 C   0  0  0  0  0  0  0  0  0  0  0  0
   47.3750   34.1980   40.0840 C   0  0  0  0  0  0  0  0  0  0  0  0
   48.5550   34.2800   40.7320 N   0  0  0  0  0  0  0  0  0  0  0  0
   48.2680   34.4260   42.0450 C   0  0  0  0  0  0  0  0  0  0  0  0
   49.1890   34.5560   43.1320 N   0  0  0  0  0  0  0  0  0  0  0  0
   45.8110   32.9430   46.7540 C   0  0  0  0  0  0  0  0  0  0  0  0
   45.6190   31.6300   46.3680 F   0  0  0  0  0  0  0  0  0  0  0  0
   44.9040   33.2410   47.7700 F   0  0  0  0  0  0  0  0  0  0  0  0
   47.1190   33.0690   47.2200 F   0  0  0  0  0  0  0  0  0  0  0  0
   43.8679   36.5779   44.8095 H   0  0  0  0  0  0  0  0  0  0  0  0
   45.1625   36.3239   42.6752 H   0  0  0  0  0  0  0  0  0  0  0  0
   45.2327   34.2621   40.8010 H   0  0  0  0  0  0  0  0  0  0  0  0
   47.2586   34.0745   38.9972 H   0  0  0  0  0  0  0  0  0  0  0  0
   48.8380   34.6619   44.0945 H   0  0  0  0  0  0  0  0  0  0  0  0
   50.2031   34.5437   42.9521 H   0  0  0  0  0  0  0  0  0  0  0  0
  1  6  2  0
  2  1  1  0
  3  2  2  0
  3  4  1  0
  4  5  2  0
  5  6  1  0
  5 13  1  0
  7  3  1  0
  8  7  1  0
  9 10  1  0
  9  8  2  0
 10 11  2  0
 11  7  1  0
 11 12  1  0
 13 16  1  0
 13 15  1  0
 14 13  1  0
  1 17  1  0
  2 18  1  0
  8 19  1  0
  9 20  1  0
 12 21  1  0
 12 22  1  0
M  ISO  4  17  14  18  14  19  14  20  14
M  END
>  <minimizedAffinity>  (1) 
-5.410748

>  <minimizedRMSD>  (1) 
0.362754971

$$$$
