
     RDKit          3D

 24 26  0  0  0  0  0  0  0  0999 V2000
   44.5220   35.7610   44.6530 C   0  0  0  0  0  0  0  0  0  0  0  0
   45.2560   35.6050   43.4540 C   0  0  0  0  0  0  0  0  0  0  0  0
   46.2150   34.5900   43.4200 C   0  0  0  0  0  0  0  0  0  0  0  0
   46.3850   33.8190   44.5220 N   0  0  0  0  0  0  0  0  0  0  0  0
   45.6660   33.9980   45.6450 C   0  0  0  0  0  0  0  0  0  0  0  0
   44.7330   34.9690   45.7120 N   0  0  0  0  0  0  0  0  0  0  0  0
   46.9510   34.4330   42.2230 N   0  0  0  0  0  0  0  0  0  0  0  0
   46.3200   34.2900   41.0190 C   0  0  0  0  0  0  0  0  0  0  0  0
   47.3720   34.1630   40.0940 C   0  0  0  0  0  0  0  0  0  0  0  0
   48.5670   34.2320   40.7550 N   0  0  0  0  0  0  0  0  0  0  0  0
   48.2690   34.3980   42.0610 C   0  0  0  0  0  0  0  0  0  0  0  0
   49.1810   34.5220   43.1420 N   0  0  0  0  0  0  0  0  0  0  0  0
   45.9090   33.1280   46.7880 C   0  0  0  0  0  0  0  0  0  0  0  0
   47.0320   32.4560   47.0880 N   0  0  0  0  0  0  0  0  0  0  0  0
   46.8700   31.7910   48.1800 O   0  0  0  0  0  0  0  0  0  0  0  0
   45.6560   31.9760   48.6590 C   0  0  0  0  0  0  0  0  0  0  0  0
   45.0820   32.8100   47.7730 N   0  0  0  0  0  0  0  0  0  0  0  0
   43.7598   36.5516   44.7171 H   0  0  0  0  0  0  0  0  0  0  0  0
   45.0790   36.2556   42.5849 H   0  0  0  0  0  0  0  0  0  0  0  0
   45.2383   34.2772   40.8194 H   0  0  0  0  0  0  0  0  0  0  0  0
   47.2521   34.0291   39.0088 H   0  0  0  0  0  0  0  0  0  0  0  0
   48.8283   34.6455   44.1018 H   0  0  0  0  0  0  0  0  0  0  0  0
   50.1954   34.4884   42.9664 H   0  0  0  0  0  0  0  0  0  0  0  0
   45.2147   31.5480   49.5712 H   0  0  0  0  0  0  0  0  0  0  0  0
  1  6  2  0
  2  1  1  0
  3  2  2  0
  3  4  1  0
  4  5  2  0
  5  6  1  0
  5 13  1  0
  7  3  1  0
  8  7  1  0
  9 10  1  0
  9  8  2  0
 10 11  2  0
 11  7  1  0
 11 12  1  0
 13 14  2  0
 13 17  1  0
 14 15  1  0
 15 16  1  0
 17 16  2  0
  1 18  1  0
  2 19  1  0
  8 20  1  0
  9 21  1  0
 12 22  1  0
 12 23  1  0
 16 24  1  0
M  ISO  5  18  14  19  14  20  14  21  14  24  14
M  END
>  <minimizedAffinity>  (1) 
-5.57131815

>  <minimizedRMSD>  (1) 
0.438651383

$$$$
