
     RDKit          3D

 32 34  0  0  0  0  0  0  0  0999 V2000
   45.0600   34.6270   45.2740 C   0  0  0  0  0  0  0  0  0  0  0  0
   45.6670   34.8520   44.0180 C   0  0  0  0  0  0  0  0  0  0  0  0
   46.7600   34.0170   43.6930 C   0  0  0  0  0  0  0  0  0  0  0  0
   47.1430   33.0810   44.5810 N   0  0  0  0  0  0  0  0  0  0  0  0
   46.5340   32.9030   45.7680 C   0  0  0  0  0  0  0  0  0  0  0  0
   45.4890   33.6840   46.1080 N   0  0  0  0  0  0  0  0  0  0  0  0
   47.3630   34.2410   42.4420 N   0  0  0  0  0  0  0  0  0  0  0  0
   46.6880   34.1540   41.2720 C   0  0  0  0  0  0  0  0  0  0  0  0
   47.6180   34.4400   40.2750 C   0  0  0  0  0  0  0  0  0  0  0  0
   48.8130   34.6890   40.8520 N   0  0  0  0  0  0  0  0  0  0  0  0
   48.6450   34.5620   42.1940 C   0  0  0  0  0  0  0  0  0  0  0  0
   49.6170   34.7280   43.2350 N   0  0  0  0  0  0  0  0  0  0  0  0
   46.9700   31.8630   46.7400 C   0  0  0  0  0  0  0  0  0  0  0  0
   45.9210   30.7940   46.9610 C   0  0  0  0  0  0  0  0  0  0  0  0
   45.0980   31.2590   48.1230 C   0  0  0  0  0  0  0  0  0  0  0  0
   45.9250   32.3200   48.8310 C   0  0  0  0  0  0  0  0  0  0  0  0
   47.2380   32.3970   48.1160 C   0  0  0  0  0  0  0  0  0  0  0  0
   44.2051   35.2519   45.5716 H   0  0  0  0  0  0  0  0  0  0  0  0
   45.3089   35.6334   43.3316 H   0  0  0  0  0  0  0  0  0  0  0  0
   45.6244   33.9082   41.1364 H   0  0  0  0  0  0  0  0  0  0  0  0
   47.4124   34.4597   39.1946 H   0  0  0  0  0  0  0  0  0  0  0  0
   49.3441   34.5989   44.2198 H   0  0  0  0  0  0  0  0  0  0  0  0
   50.5881   34.9763   42.9980 H   0  0  0  0  0  0  0  0  0  0  0  0
   47.8851   31.4679   46.2747 H   0  0  0  0  0  0  0  0  0  0  0  0
   45.2914   30.6851   46.0656 H   0  0  0  0  0  0  0  0  0  0  0  0
   46.3793   29.8136   47.1578 H   0  0  0  0  0  0  0  0  0  0  0  0
   44.1485   31.6881   47.7703 H   0  0  0  0  0  0  0  0  0  0  0  0
   44.8514   30.4264   48.7982 H   0  0  0  0  0  0  0  0  0  0  0  0
   45.4120   33.2920   48.7856 H   0  0  0  0  0  0  0  0  0  0  0  0
   46.0685   32.0646   49.8913 H   0  0  0  0  0  0  0  0  0  0  0  0
   47.9925   31.7818   48.6281 H   0  0  0  0  0  0  0  0  0  0  0  0
   47.6309   33.4241   48.0885 H   0  0  0  0  0  0  0  0  0  0  0  0
  1  6  2  0
  2  1  1  0
  3  2  2  0
  3  4  1  0
  4  5  2  0
  5  6  1  0
  5 13  1  0
  7  3  1  0
  8  7  1  0
  9 10  1  0
  9  8  2  0
 10 11  2  0
 11  7  1  0
 11 12  1  0
 13 14  1  0
 13 17  1  0
 14 15  1  0
 15 16  1  0
 17 16  1  0
  1 18  1  0
  2 19  1  0
  8 20  1  0
  9 21  1  0
 12 22  1  0
 12 23  1  0
 13 24  1  0
 14 25  1  0
 14 26  1  0
 15 27  1  0
 15 28  1  0
 16 29  1  0
 16 30  1  0
 17 31  1  0
 17 32  1  0
M  ISO  8  18  14  19  14  20  14  21  14  24  13  25  13  26  13  27  13
M  ISO  5  28  13  29  13  30  13  31  13  32  13
M  END
>  <minimizedAffinity>  (1) 
-5.54852009

>  <minimizedRMSD>  (1) 
1.5677259

$$$$
