
     RDKit          3D

 22 23  0  0  0  0  0  0  0  0999 V2000
   46.9230   34.4380   42.2300 N   0  0  0  0  0  0  0  0  0  0  0  0
   46.3100   34.3000   41.0140 C   0  0  0  0  0  0  0  0  0  0  0  0
   47.3650   34.1800   40.1000 C   0  0  0  0  0  0  0  0  0  0  0  0
   48.5460   34.2450   40.7660 N   0  0  0  0  0  0  0  0  0  0  0  0
   48.2540   34.4040   42.0780 C   0  0  0  0  0  0  0  0  0  0  0  0
   49.1610   34.5230   43.1700 N   0  0  0  0  0  0  0  0  0  0  0  0
   44.5620   35.8230   44.6760 C   0  0  0  0  0  0  0  0  0  0  0  0
   45.2940   35.6780   43.4700 C   0  0  0  0  0  0  0  0  0  0  0  0
   46.1910   34.5890   43.4270 C   0  0  0  0  0  0  0  0  0  0  0  0
   46.2980   33.7740   44.5030 N   0  0  0  0  0  0  0  0  0  0  0  0
   45.5750   33.9620   45.6230 C   0  0  0  0  0  0  0  0  0  0  0  0
   44.6950   35.0030   45.7060 N   0  0  0  0  0  0  0  0  0  0  0  0
   45.7640   33.0110   46.7500 C   0  0  0  0  0  0  0  0  0  0  0  0
   45.2307   34.2864   40.8019 H   0  0  0  0  0  0  0  0  0  0  0  0
   47.2537   34.0530   39.0130 H   0  0  0  0  0  0  0  0  0  0  0  0
   48.8011   34.6408   44.1279 H   0  0  0  0  0  0  0  0  0  0  0  0
   50.1767   34.4913   43.0017 H   0  0  0  0  0  0  0  0  0  0  0  0
   43.8496   36.6570   44.7592 H   0  0  0  0  0  0  0  0  0  0  0  0
   45.1707   36.3692   42.6232 H   0  0  0  0  0  0  0  0  0  0  0  0
   45.6574   33.5476   47.7043 H   0  0  0  0  0  0  0  0  0  0  0  0
   45.0063   32.2158   46.6898 H   0  0  0  0  0  0  0  0  0  0  0  0
   46.7682   32.5660   46.6898 H   0  0  0  0  0  0  0  0  0  0  0  0
  1  9  1  0
  2  1  1  0
  3  4  1  0
  3  2  2  0
  4  5  2  0
  5  1  1  0
  5  6  1  0
  7 12  2  0
  8  7  1  0
  9  8  2  0
  9 10  1  0
 10 11  2  0
 11 12  1  0
 11 13  1  0
  2 14  1  0
  3 15  1  0
  6 16  1  0
  6 17  1  0
  7 18  1  0
  8 19  1  0
 13 20  1  0
 13 21  1  0
 13 22  1  0
M  ISO  7  14  14  15  14  18  14  19  14  20   8  21   8  22   8
M  END
>  <minimizedAffinity>  (1) 
-4.67753267

>  <minimizedRMSD>  (1) 
0.129183725

$$$$
