
     RDKit          3D

 20 21  0  0  0  0  0  0  0  0999 V2000
   46.9400   34.4370   42.2290 N   0  0  0  0  0  0  0  0  0  0  0  0
   46.3120   34.3000   41.0200 C   0  0  0  0  0  0  0  0  0  0  0  0
   47.3690   34.1860   40.0940 C   0  0  0  0  0  0  0  0  0  0  0  0
   48.5520   34.2560   40.7540 N   0  0  0  0  0  0  0  0  0  0  0  0
   48.2570   34.4090   42.0580 C   0  0  0  0  0  0  0  0  0  0  0  0
   49.1670   34.5300   43.1540 N   0  0  0  0  0  0  0  0  0  0  0  0
   44.5690   35.7900   44.6910 C   0  0  0  0  0  0  0  0  0  0  0  0
   45.3060   35.6400   43.5000 C   0  0  0  0  0  0  0  0  0  0  0  0
   46.2040   34.5810   43.4260 C   0  0  0  0  0  0  0  0  0  0  0  0
   46.3150   33.7640   44.4980 N   0  0  0  0  0  0  0  0  0  0  0  0
   45.6080   33.9200   45.6260 C   0  0  0  0  0  0  0  0  0  0  0  0
   44.7230   34.9520   45.7160 N   0  0  0  0  0  0  0  0  0  0  0  0
   45.8950   32.7340   46.9350 S   0  0  0  0  0  0  0  0  0  0  0  0
   45.2309   34.2828   40.8177 H   0  0  0  0  0  0  0  0  0  0  0  0
   47.2527   34.0601   39.0074 H   0  0  0  0  0  0  0  0  0  0  0  0
   48.8069   34.6434   44.1123 H   0  0  0  0  0  0  0  0  0  0  0  0
   50.1828   34.5038   42.9853 H   0  0  0  0  0  0  0  0  0  0  0  0
   43.8498   36.6178   44.7772 H   0  0  0  0  0  0  0  0  0  0  0  0
   45.1757   36.3360   42.6582 H   0  0  0  0  0  0  0  0  0  0  0  0
   45.7460   33.3497   48.1498 H   0  0  0  0  0  0  0  0  0  0  0  0
  1  9  1  0
  2  1  1  0
  3  4  1  0
  3  2  2  0
  4  5  2  0
  5  1  1  0
  5  6  1  0
  7 12  2  0
  8  7  1  0
  9  8  2  0
  9 10  1  0
 10 11  2  0
 11 12  1  0
 11 13  1  0
  2 14  1  0
  3 15  1  0
  6 16  1  0
  6 17  1  0
  7 18  1  0
  8 19  1  0
 13 20  1  0
M  ISO  5  14  14  15  14  18  14  19  14  20  11
M  END
>  <minimizedAffinity>  (1) 
-4.61014223

>  <minimizedRMSD>  (1) 
0.158751041

$$$$
