
     RDKit          3D

 25 26  0  0  0  0  0  0  0  0999 V2000
   44.5560   35.8730   44.6890 C   0  0  0  0  0  0  0  0  0  0  0  0
   45.2930   35.7180   43.4960 C   0  0  0  0  0  0  0  0  0  0  0  0
   46.1680   34.6130   43.4540 C   0  0  0  0  0  0  0  0  0  0  0  0
   46.2450   33.7940   44.5250 N   0  0  0  0  0  0  0  0  0  0  0  0
   45.5140   33.9890   45.6460 C   0  0  0  0  0  0  0  0  0  0  0  0
   44.6610   35.0470   45.7170 N   0  0  0  0  0  0  0  0  0  0  0  0
   46.9160   34.4390   42.2650 N   0  0  0  0  0  0  0  0  0  0  0  0
   46.3050   34.3130   41.0480 C   0  0  0  0  0  0  0  0  0  0  0  0
   47.3480   34.1630   40.1340 C   0  0  0  0  0  0  0  0  0  0  0  0
   48.5300   34.2010   40.8060 N   0  0  0  0  0  0  0  0  0  0  0  0
   48.2330   34.3740   42.1240 C   0  0  0  0  0  0  0  0  0  0  0  0
   49.1270   34.4780   43.2210 N   0  0  0  0  0  0  0  0  0  0  0  0
   45.6210   33.0680   46.8090 C   0  0  0  0  0  0  0  0  0  0  0  0
   47.0160   32.4880   46.9290 C   0  0  0  0  0  0  0  0  0  0  0  0
   43.8605   36.7216   44.7682 H   0  0  0  0  0  0  0  0  0  0  0  0
   45.1914   36.4155   42.6515 H   0  0  0  0  0  0  0  0  0  0  0  0
   45.2257   34.3269   40.8360 H   0  0  0  0  0  0  0  0  0  0  0  0
   47.2334   34.0349   39.0475 H   0  0  0  0  0  0  0  0  0  0  0  0
   48.7595   34.6085   44.1743 H   0  0  0  0  0  0  0  0  0  0  0  0
   50.1435   34.4230   43.0640 H   0  0  0  0  0  0  0  0  0  0  0  0
   45.3842   33.6236   47.7284 H   0  0  0  0  0  0  0  0  0  0  0  0
   44.9133   32.2392   46.6603 H   0  0  0  0  0  0  0  0  0  0  0  0
   47.2777   32.3792   47.9919 H   0  0  0  0  0  0  0  0  0  0  0  0
   47.0466   31.5026   46.4411 H   0  0  0  0  0  0  0  0  0  0  0  0
   47.7362   33.1612   46.4411 H   0  0  0  0  0  0  0  0  0  0  0  0
  1  6  2  0
  2  1  1  0
  3  2  2  0
  3  4  1  0
  4  5  2  0
  5  6  1  0
  5 13  1  0
  7  3  1  0
  8  7  1  0
  9 10  1  0
  9  8  2  0
 10 11  2  0
 11  7  1  0
 11 12  1  0
 13 14  1  0
  1 15  1  0
  2 16  1  0
  8 17  1  0
  9 18  1  0
 12 19  1  0
 12 20  1  0
 13 21  1  0
 13 22  1  0
 14 23  1  0
 14 24  1  0
 14 25  1  0
M  ISO  8  15  14  16  14  17  14  18  14  21   8  22   8  23   8  24   8
M  ISO  1  25   8
M  END
>  <minimizedAffinity>  (1) 
-4.77542353

>  <minimizedRMSD>  (1) 
0.234634072

$$$$
