
     RDKit          3D

 44 49  0  0  0  0  0  0  0  0999 V2000
   44.6170   35.5340   44.9970 C   0  0  0  0  0  0  0  0  0  0  0  0
   44.1590   35.4420   43.6720 C   0  0  0  0  0  0  0  0  0  0  0  0
   44.5180   34.3420   42.8990 C   0  0  0  0  0  0  0  0  0  0  0  0
   45.3020   33.4300   43.5160 N   0  0  0  0  0  0  0  0  0  0  0  0
   45.7370   33.5220   44.7790 C   0  0  0  0  0  0  0  0  0  0  0  0
   45.3740   34.5880   45.4870 N   0  0  0  0  0  0  0  0  0  0  0  0
   46.5320   32.4050   44.8860 C   0  0  0  0  0  0  0  0  0  0  0  0
   47.2960   31.3830   44.8860 N   0  0  0  0  0  0  0  0  0  0  0  0
   47.9920   30.4250   44.9540 C   0  0  0  0  0  0  0  0  0  0  0  0
   47.8340   30.1400   46.2370 N   0  0  0  0  0  0  0  0  0  0  0  0
   46.9950   30.9770   46.9550 C   0  0  0  0  0  0  0  0  0  0  0  0
   46.8670   30.5810   48.3090 C   0  0  0  0  0  0  0  0  0  0  0  0
   46.0360   31.3180   49.0690 C   0  0  0  0  0  0  0  0  0  0  0  0
   45.3480   32.3770   48.5980 C   0  0  0  0  0  0  0  0  0  0  0  0
   45.5690   32.6540   47.2660 C   0  0  0  0  0  0  0  0  0  0  0  0
   46.3800   32.0540   46.2740 C   0  0  0  0  0  0  0  0  0  0  0  0
   44.0640   34.2730   41.5740 N   0  0  0  0  0  0  0  0  0  0  0  0
   42.7690   34.2860   41.2570 C   0  0  0  0  0  0  0  0  0  0  0  0
   42.7410   34.2020   39.8600 C   0  0  0  0  0  0  0  0  0  0  0  0
   44.0360   34.1410   39.3820 N   0  0  0  0  0  0  0  0  0  0  0  0
   44.8400   34.1870   40.4590 C   0  0  0  0  0  0  0  0  0  0  0  0
   46.2600   34.1520   40.4740 N   0  0  0  0  0  0  0  0  0  0  0  0
   41.5140   34.1860   39.1040 N   0  0  0  0  0  0  0  0  0  0  0  0
   41.2600   35.2100   38.2640 C   0  0  0  0  0  0  0  0  0  0  0  0
   40.0730   34.9990   37.6610 N   0  0  0  0  0  0  0  0  0  0  0  0
   39.5640   33.8400   38.1150 C   0  0  0  0  0  0  0  0  0  0  0  0
   38.4230   33.0640   37.9180 C   0  0  0  0  0  0  0  0  0  0  0  0
   38.2770   31.9050   38.5960 N   0  0  0  0  0  0  0  0  0  0  0  0
   39.2050   31.4650   39.4700 C   0  0  0  0  0  0  0  0  0  0  0  0
   40.3420   32.1750   39.7070 N   0  0  0  0  0  0  0  0  0  0  0  0
   40.4820   33.3380   39.0220 C   0  0  0  0  0  0  0  0  0  0  0  0
   44.3398   36.3980   45.6189 H   0  0  0  0  0  0  0  0  0  0  0  0
   43.5220   36.2328   43.2492 H   0  0  0  0  0  0  0  0  0  0  0  0
   48.5911   29.9224   44.1804 H   0  0  0  0  0  0  0  0  0  0  0  0
   47.4161   29.7193   48.7165 H   0  0  0  0  0  0  0  0  0  0  0  0
   45.9122   31.0425   50.1267 H   0  0  0  0  0  0  0  0  0  0  0  0
   44.6666   32.9710   49.2247 H   0  0  0  0  0  0  0  0  0  0  0  0
   44.9975   33.5192   46.8988 H   0  0  0  0  0  0  0  0  0  0  0  0
   41.9111   34.3489   41.9426 H   0  0  0  0  0  0  0  0  0  0  0  0
   46.7668   34.1944   41.3697 H   0  0  0  0  0  0  0  0  0  0  0  0
   46.7829   34.0843   39.5892 H   0  0  0  0  0  0  0  0  0  0  0  0
   41.9156   36.0775   38.0977 H   0  0  0  0  0  0  0  0  0  0  0  0
   37.6451   33.3940   37.2137 H   0  0  0  0  0  0  0  0  0  0  0  0
   39.0403   30.5157   40.0007 H   0  0  0  0  0  0  0  0  0  0  0  0
  1  6  2  0
  2  1  1  0
  3  4  1  0
  3  2  2  0
  4  5  2  0
  5  7  1  0
  5  6  1  0
  7  8  2  0
  7 16  1  0
  8  9  1  0
  9 10  2  0
 10 11  1  0
 11 12  1  0
 12 13  2  0
 14 13  1  0
 15 14  2  0
 16 11  2  0
 16 15  1  0
 17  3  1  0
 18 17  1  0
 19 18  2  0
 20 19  1  0
 20 21  2  0
 21 22  1  0
 21 17  1  0
 23 19  1  0
 24 23  1  0
 25 26  1  0
 25 24  2  0
 26 31  2  0
 27 26  1  0
 27 28  2  0
 28 29  1  0
 29 30  2  0
 31 23  1  0
 31 30  1  0
  1 32  1  0
  2 33  1  0
  9 34  1  0
 12 35  1  0
 13 36  1  0
 14 37  1  0
 15 38  1  0
 18 39  1  0
 22 40  1  0
 22 41  1  0
 24 42  1  0
 27 43  1  0
 29 44  1  0
M  ISO  8  32  14  33  14  34  14  35  14  36  14  37  14  38  14  39  14
M  ISO  3  42  14  43  14  44  14
M  END
>  <minimizedAffinity>  (1) 
-7.29898214

>  <minimizedRMSD>  (1) 
0.691190302

$$$$
