
     RDKit          3D

 46 50  0  0  0  0  0  0  0  0999 V2000
   44.6440   35.7730   45.0030 C   0  0  0  0  0  0  0  0  0  0  0  0
   43.9880   35.7320   43.7570 C   0  0  0  0  0  0  0  0  0  0  0  0
   44.1770   34.6310   42.9260 C   0  0  0  0  0  0  0  0  0  0  0  0
   45.0000   33.6750   43.4070 N   0  0  0  0  0  0  0  0  0  0  0  0
   45.6210   33.7180   44.5910 C   0  0  0  0  0  0  0  0  0  0  0  0
   45.4190   34.7840   45.3610 N   0  0  0  0  0  0  0  0  0  0  0  0
   46.3690   32.5650   44.5640 C   0  0  0  0  0  0  0  0  0  0  0  0
   47.0820   31.5130   44.4380 N   0  0  0  0  0  0  0  0  0  0  0  0
   47.7370   30.5240   44.3860 C   0  0  0  0  0  0  0  0  0  0  0  0
   47.6640   30.1690   45.6590 N   0  0  0  0  0  0  0  0  0  0  0  0
   46.9260   30.9840   46.5010 C   0  0  0  0  0  0  0  0  0  0  0  0
   46.8920   30.5090   47.8270 C   0  0  0  0  0  0  0  0  0  0  0  0
   46.1660   31.2340   48.7030 C   0  0  0  0  0  0  0  0  0  0  0  0
   45.4950   32.3530   48.3550 C   0  0  0  0  0  0  0  0  0  0  0  0
   45.6170   32.7000   47.0300 C   0  0  0  0  0  0  0  0  0  0  0  0
   46.3090   32.1330   45.9350 C   0  0  0  0  0  0  0  0  0  0  0  0
   43.5280   34.6120   41.6830 N   0  0  0  0  0  0  0  0  0  0  0  0
   42.2200   34.8280   41.5500 C   0  0  0  0  0  0  0  0  0  0  0  0
   41.9760   34.7220   40.1790 C   0  0  0  0  0  0  0  0  0  0  0  0
   43.1560   34.4420   39.5250 N   0  0  0  0  0  0  0  0  0  0  0  0
   44.1060   34.3780   40.4730 C   0  0  0  0  0  0  0  0  0  0  0  0
   45.4940   34.1140   40.2880 N   0  0  0  0  0  0  0  0  0  0  0  0
   40.7580   34.8570   39.4540 N   0  0  0  0  0  0  0  0  0  0  0  0
   40.6560   34.7400   38.0010 C   0  0  0  0  0  0  0  0  0  0  0  0
   39.2450   34.2940   37.6910 C   0  0  0  0  0  0  0  0  0  0  0  0
   38.7110   33.4290   38.6160 O   0  0  0  0  0  0  0  0  0  0  0  0
   38.5810   33.9620   39.8750 C   0  0  0  0  0  0  0  0  0  0  0  0
   39.5140   35.1270   40.1500 C   0  0  0  0  0  0  0  0  0  0  0  0
   44.5042   36.6347   45.6722 H   0  0  0  0  0  0  0  0  0  0  0  0
   43.3344   36.5597   43.4444 H   0  0  0  0  0  0  0  0  0  0  0  0
   48.2492   30.0473   43.5372 H   0  0  0  0  0  0  0  0  0  0  0  0
   47.4277   29.5976   48.1311 H   0  0  0  0  0  0  0  0  0  0  0  0
   46.1184   30.8980   49.7493 H   0  0  0  0  0  0  0  0  0  0  0  0
   44.9003   32.9383   49.0718 H   0  0  0  0  0  0  0  0  0  0  0  0
   45.0587   33.6104   46.7664 H   0  0  0  0  0  0  0  0  0  0  0  0
   41.4917   35.0428   42.3459 H   0  0  0  0  0  0  0  0  0  0  0  0
   46.1266   34.0911   41.1005 H   0  0  0  0  0  0  0  0  0  0  0  0
   45.8647   33.9461   39.3418 H   0  0  0  0  0  0  0  0  0  0  0  0
   40.8569   35.7129   37.5287 H   0  0  0  0  0  0  0  0  0  0  0  0
   41.3898   34.0182   37.6130 H   0  0  0  0  0  0  0  0  0  0  0  0
   38.6039   35.1866   37.6431 H   0  0  0  0  0  0  0  0  0  0  0  0
   39.2886   33.7485   36.7368 H   0  0  0  0  0  0  0  0  0  0  0  0
   37.5453   34.3116   39.9977 H   0  0  0  0  0  0  0  0  0  0  0  0
   38.8459   33.1664   40.5870 H   0  0  0  0  0  0  0  0  0  0  0  0
   39.6987   35.2144   41.2309 H   0  0  0  0  0  0  0  0  0  0  0  0
   39.0704   36.0717   39.8024 H   0  0  0  0  0  0  0  0  0  0  0  0
  1  6  2  0
  2  1  1  0
  3  4  1  0
  3  2  2  0
  4  5  2  0
  5  6  1  0
  7  5  1  0
  7 16  1  0
  8  7  2  0
  9  8  1  0
  9 10  2  0
 10 11  1  0
 11 12  1  0
 12 13  2  0
 14 13  1  0
 15 14  2  0
 16 11  2  0
 16 15  1  0
 17  3  1  0
 18 17  1  0
 19 18  2  0
 20 19  1  0
 20 21  2  0
 21 17  1  0
 22 21  1  0
 23 28  1  0
 23 19  1  0
 24 23  1  0
 25 24  1  0
 25 26  1  0
 26 27  1  0
 27 28  1  0
  1 29  1  0
  2 30  1  0
  9 31  1  0
 12 32  1  0
 13 33  1  0
 14 34  1  0
 15 35  1  0
 18 36  1  0
 22 37  1  0
 22 38  1  0
 24 39  1  0
 24 40  1  0
 25 41  1  0
 25 42  1  0
 27 43  1  0
 27 44  1  0
 28 45  1  0
 28 46  1  0
M  ISO  8  29  14  30  14  31  14  32  14  33  14  34  14  35  14  36  14
M  ISO  8  39  13  40  13  41  13  42  13  43  13  44  13  45  13  46  13
M  END
>  <minimizedAffinity>  (1) 
-6.96744871

>  <minimizedRMSD>  (1) 
0.763844728

$$$$
