
     RDKit          3D

 17 18  0  0  0  0  0  0  0  0999 V2000
   45.0010   34.8870   44.8570 C   0  0  0  0  0  0  0  0  0  0  0  0
   45.8730   34.5970   43.7730 C   0  0  0  0  0  0  0  0  0  0  0  0
   46.8460   33.6140   43.9610 C   0  0  0  0  0  0  0  0  0  0  0  0
   46.9130   32.9850   45.1640 N   0  0  0  0  0  0  0  0  0  0  0  0
   46.0600   33.2900   46.1780 C   0  0  0  0  0  0  0  0  0  0  0  0
   45.1150   34.2250   46.0340 N   0  0  0  0  0  0  0  0  0  0  0  0
   46.2110   32.5580   47.4330 C   0  0  0  0  0  0  0  0  0  0  0  0
   45.1030   32.0990   48.1120 C   0  0  0  0  0  0  0  0  0  0  0  0
   45.5300   31.4440   49.2620 C   0  0  0  0  0  0  0  0  0  0  0  0
   46.8930   31.5290   49.2430 N   0  0  0  0  0  0  0  0  0  0  0  0
   47.2850   32.1840   48.1660 N   0  0  0  0  0  0  0  0  0  0  0  0
   44.2248   35.6575   44.7394 H   0  0  0  0  0  0  0  0  0  0  0  0
   45.7839   35.1307   42.8153 H   0  0  0  0  0  0  0  0  0  0  0  0
   47.5444   33.3537   43.1520 H   0  0  0  0  0  0  0  0  0  0  0  0
   44.0570   32.2289   47.7973 H   0  0  0  0  0  0  0  0  0  0  0  0
   44.9029   30.9600   50.0252 H   0  0  0  0  0  0  0  0  0  0  0  0
   47.5208   31.1404   49.9612 H   0  0  0  0  0  0  0  0  0  0  0  0
  1  6  2  0
  2  3  2  0
  2  1  1  0
  3  4  1  0
  4  5  2  0
  5  7  1  0
  6  5  1  0
  7  8  1  0
  7 11  2  0
  8  9  2  0
 10  9  1  0
 11 10  1  0
  1 12  1  0
  2 13  1  0
  3 14  1  0
  8 15  1  0
  9 16  1  0
 10 17  1  0
M  ISO  6  12  14  13  14  14  14  15  14  16  14  17   9
M  END
>  <minimizedAffinity>  (1) 
-4.10024023

>  <minimizedRMSD>  (1) 
1.21134412

$$$$
