
     RDKit          3D

 29 31  0  0  1  0  0  0  0  0999 V2000
   46.0290   33.0490   46.8470 C   0  0  0  0  0  0  0  0  0  0  0  0
   45.0670   32.8160   47.8030 C   0  0  0  0  0  0  0  0  0  0  0  0
   45.6240   31.9800   48.7790 C   0  0  0  0  0  0  0  0  0  0  0  0
   46.8960   31.7460   48.3700 N   0  0  0  0  0  0  0  0  0  0  0  0
   47.1480   32.3740   47.2250 N   0  0  0  0  0  0  0  0  0  0  0  0
   44.5740   35.6250   44.6740 C   0  0  0  0  0  0  0  0  0  0  0  0
   45.2850   35.4390   43.4690 C   0  0  0  0  0  0  0  0  0  0  0  0
   46.2410   34.4350   43.4390 C   0  0  0  0  0  0  0  0  0  0  0  0
   46.4530   33.6850   44.5470 N   0  0  0  0  0  0  0  0  0  0  0  0
   45.7510   33.8940   45.6860 C   0  0  0  0  0  0  0  0  0  0  0  0
   44.8130   34.8570   45.7650 N   0  0  0  0  0  0  0  0  0  0  0  0
   48.0290   29.6280   48.4830 N   0  0  0  0  0  0  0  0  0  0  0  0
   49.4540   29.4100   48.3420 C   0  0  0  0  0  0  0  0  0  0  0  0
   50.0700   30.3000   49.4260 C   0  0  0  0  0  0  0  0  0  0  0  0
   49.1950   31.5450   49.2480 C   0  0  0  0  0  0  0  0  0  0  0  0
   47.8360   30.9170   49.1010 C   0  0  1  0  0  0  0  0  0  0  0  0
   44.0421   33.2155   47.8010 H   0  0  0  0  0  0  0  0  0  0  0  0
   45.1338   31.5948   49.6852 H   0  0  0  0  0  0  0  0  0  0  0  0
   43.8075   36.4121   44.7290 H   0  0  0  0  0  0  0  0  0  0  0  0
   45.0882   36.0666   42.5873 H   0  0  0  0  0  0  0  0  0  0  0  0
   46.8220   34.2492   42.5236 H   0  0  0  0  0  0  0  0  0  0  0  0
   47.6193   28.8914   49.0749 H   0  0  0  0  0  0  0  0  0  0  0  0
   49.7073   28.3532   48.5122 H   0  0  0  0  0  0  0  0  0  0  0  0
   49.8230   29.6507   47.3341 H   0  0  0  0  0  0  0  0  0  0  0  0
   49.9623   29.8613   50.4290 H   0  0  0  0  0  0  0  0  0  0  0  0
   51.1533   30.4691   49.3370 H   0  0  0  0  0  0  0  0  0  0  0  0
   49.2436   32.2030   50.1282 H   0  0  0  0  0  0  0  0  0  0  0  0
   49.4902   32.1925   48.4092 H   0  0  0  0  0  0  0  0  0  0  0  0
   47.3734   30.8039   50.0926 H   0  0  0  0  0  0  0  0  0  0  0  0
  1  5  2  0
  1  2  1  0
  2  3  2  0
  4  3  1  0
  5  4  1  0
  6 11  2  0
  7  6  1  0
  8  7  2  0
  8  9  1  0
  9 10  2  0
 10 11  1  0
 10  1  1  0
 12 16  1  0
 13 12  1  0
 13 14  1  0
 15 14  1  0
 16  4  1  0
 16 15  1  0
  2 17  1  0
  3 18  1  0
  6 19  1  0
  7 20  1  0
  8 21  1  0
 12 22  1  0
 13 23  1  0
 13 24  1  0
 14 25  1  0
 14 26  1  0
 15 27  1  0
 15 28  1  0
 16 29  1  1
M  ISO  8  17  14  18  14  19  14  20  14  21  14  22   5  23  13  24  13
M  ISO  5  25  13  26  13  27  13  28  13  29  13
M  END
>  <minimizedAffinity>  (1) 
-5.27952528

>  <minimizedRMSD>  (1) 
1.18859887

$$$$
