
     RDKit          3D

 23 25  0  0  0  0  0  0  0  0999 V2000
   46.0990   33.1030   46.5600 C   0  0  0  0  0  0  0  0  0  0  0  0
   45.2580   32.8370   47.6100 C   0  0  0  0  0  0  0  0  0  0  0  0
   45.8860   31.9380   48.4560 C   0  0  0  0  0  0  0  0  0  0  0  0
   47.1120   31.6780   47.8880 N   0  0  0  0  0  0  0  0  0  0  0  0
   47.2080   32.3730   46.7800 N   0  0  0  0  0  0  0  0  0  0  0  0
   44.4510   35.8100   44.7060 C   0  0  0  0  0  0  0  0  0  0  0  0
   45.0620   35.7140   43.4280 C   0  0  0  0  0  0  0  0  0  0  0  0
   46.0190   34.7220   43.2500 C   0  0  0  0  0  0  0  0  0  0  0  0
   46.3290   33.8940   44.2870 N   0  0  0  0  0  0  0  0  0  0  0  0
   45.7200   34.0180   45.4990 C   0  0  0  0  0  0  0  0  0  0  0  0
   44.8020   34.9600   45.6900 N   0  0  0  0  0  0  0  0  0  0  0  0
   48.1000   30.7840   48.4430 C   0  0  0  0  0  0  0  0  0  0  0  0
   48.4740   29.6640   47.7490 C   0  0  0  0  0  0  0  0  0  0  0  0
   49.7350   28.8920   48.8870 S   0  0  0  0  0  0  0  0  0  0  0  0
   49.4900   30.3020   50.1210 C   0  0  0  0  0  0  0  0  0  0  0  0
   48.7160   30.9300   49.6030 N   0  0  0  0  0  0  0  0  0  0  0  0
   44.2551   33.2649   47.7556 H   0  0  0  0  0  0  0  0  0  0  0  0
   45.4864   31.5178   49.3908 H   0  0  0  0  0  0  0  0  0  0  0  0
   43.6888   36.5808   44.8930 H   0  0  0  0  0  0  0  0  0  0  0  0
   44.7887   36.3978   42.6109 H   0  0  0  0  0  0  0  0  0  0  0  0
   46.5226   34.6060   42.2790 H   0  0  0  0  0  0  0  0  0  0  0  0
   48.1207   29.3096   46.7694 H   0  0  0  0  0  0  0  0  0  0  0  0
   49.9781   30.4652   51.0932 H   0  0  0  0  0  0  0  0  0  0  0  0
  1  5  2  0
  1  2  1  0
  2  3  2  0
  4 12  1  0
  4  3  1  0
  5  4  1  0
  6 11  2  0
  7  6  1  0
  8  7  2  0
  8  9  1  0
  9 10  2  0
 10 11  1  0
 10  1  1  0
 12 16  1  0
 13 12  2  0
 13 14  1  0
 14 15  1  0
 16 15  2  0
  2 17  1  0
  3 18  1  0
  6 19  1  0
  7 20  1  0
  8 21  1  0
 13 22  1  0
 15 23  1  0
M  ISO  7  17  14  18  14  19  14  20  14  21  14  22  14  23  14
M  END
>  <minimizedAffinity>  (1) 
-5.02209759

>  <minimizedRMSD>  (1) 
1.64050305

$$$$
