
     RDKit          3D

 26 28  0  0  0  0  0  0  0  0999 V2000
   46.1180   33.0900   46.5270 C   0  0  0  0  0  0  0  0  0  0  0  0
   45.2590   32.8570   47.5930 C   0  0  0  0  0  0  0  0  0  0  0  0
   45.8950   31.9230   48.4200 C   0  0  0  0  0  0  0  0  0  0  0  0
   47.1020   31.6310   47.8270 N   0  0  0  0  0  0  0  0  0  0  0  0
   47.2170   32.3230   46.7200 N   0  0  0  0  0  0  0  0  0  0  0  0
   44.4440   35.8190   44.7180 C   0  0  0  0  0  0  0  0  0  0  0  0
   45.0600   35.7370   43.4380 C   0  0  0  0  0  0  0  0  0  0  0  0
   46.0310   34.7430   43.2450 C   0  0  0  0  0  0  0  0  0  0  0  0
   46.3420   33.9080   44.2780 N   0  0  0  0  0  0  0  0  0  0  0  0
   45.7160   34.0360   45.4840 C   0  0  0  0  0  0  0  0  0  0  0  0
   44.7950   34.9650   45.6950 N   0  0  0  0  0  0  0  0  0  0  0  0
   48.0550   30.7150   48.3580 C   0  0  0  0  0  0  0  0  0  0  0  0
   48.4000   29.5080   47.7470 C   0  0  0  0  0  0  0  0  0  0  0  0
   49.3470   28.6820   48.3520 C   0  0  0  0  0  0  0  0  0  0  0  0
   49.9410   29.0610   49.5550 C   0  0  0  0  0  0  0  0  0  0  0  0
   49.5720   30.2580   50.1230 C   0  0  0  0  0  0  0  0  0  0  0  0
   48.6590   31.0510   49.5360 N   0  0  0  0  0  0  0  0  0  0  0  0
   44.2727   33.3160   47.7558 H   0  0  0  0  0  0  0  0  0  0  0  0
   45.5059   31.5045   49.3599 H   0  0  0  0  0  0  0  0  0  0  0  0
   43.6774   36.5844   44.9089 H   0  0  0  0  0  0  0  0  0  0  0  0
   44.7845   36.4287   42.6282 H   0  0  0  0  0  0  0  0  0  0  0  0
   46.5352   34.6382   42.2730 H   0  0  0  0  0  0  0  0  0  0  0  0
   47.9296   29.2115   46.7979 H   0  0  0  0  0  0  0  0  0  0  0  0
   49.6260   27.7290   47.8788 H   0  0  0  0  0  0  0  0  0  0  0  0
   50.6890   28.4163   50.0396 H   0  0  0  0  0  0  0  0  0  0  0  0
   50.0311   30.5713   51.0723 H   0  0  0  0  0  0  0  0  0  0  0  0
  1  5  2  0
  1  2  1  0
  2  3  2  0
  4 12  1  0
  4  3  1  0
  5  4  1  0
  6 11  2  0
  7  6  1  0
  8  7  2  0
  8  9  1  0
  9 10  2  0
 10 11  1  0
 10  1  1  0
 12 17  2  0
 13 14  2  0
 13 12  1  0
 14 15  1  0
 15 16  2  0
 17 16  1  0
  2 18  1  0
  3 19  1  0
  6 20  1  0
  7 21  1  0
  8 22  1  0
 13 23  1  0
 14 24  1  0
 15 25  1  0
 16 26  1  0
M  ISO  8  18  14  19  14  20  14  21  14  22  14  23  14  24  14  25  14
M  ISO  1  26  14
M  END
>  <minimizedAffinity>  (1) 
-5.18564987

>  <minimizedRMSD>  (1) 
1.79392791

$$$$
