
     RDKit          3D

 20 21  0  0  0  0  0  0  0  0999 V2000
   44.9310   34.8150   45.3030 C   0  0  0  0  0  0  0  0  0  0  0  0
   44.4390   35.8750   44.4960 C   0  0  0  0  0  0  0  0  0  0  0  0
   45.0690   36.1160   43.2840 C   0  0  0  0  0  0  0  0  0  0  0  0
   46.1280   35.3430   42.9030 N   0  0  0  0  0  0  0  0  0  0  0  0
   46.5680   34.3350   43.7100 C   0  0  0  0  0  0  0  0  0  0  0  0
   45.9830   34.0700   44.8920 N   0  0  0  0  0  0  0  0  0  0  0  0
   47.7000   33.5460   43.2480 C   0  0  0  0  0  0  0  0  0  0  0  0
   47.6330   32.1770   43.1970 C   0  0  0  0  0  0  0  0  0  0  0  0
   48.8310   31.6760   42.7280 C   0  0  0  0  0  0  0  0  0  0  0  0
   49.6060   32.7750   42.5040 N   0  0  0  0  0  0  0  0  0  0  0  0
   48.9430   33.8870   42.8090 N   0  0  0  0  0  0  0  0  0  0  0  0
   50.9830   32.7350   41.9940 C   0  0  0  0  0  0  0  0  0  0  0  0
   44.4531   34.5980   46.2697 H   0  0  0  0  0  0  0  0  0  0  0  0
   43.5845   36.4862   44.8221 H   0  0  0  0  0  0  0  0  0  0  0  0
   44.7162   36.9281   42.6312 H   0  0  0  0  0  0  0  0  0  0  0  0
   46.7604   31.5723   43.4850 H   0  0  0  0  0  0  0  0  0  0  0  0
   49.1009   30.6214   42.5698 H   0  0  0  0  0  0  0  0  0  0  0  0
   51.6866   32.7146   42.8393 H   0  0  0  0  0  0  0  0  0  0  0  0
   51.1207   31.8325   41.3804 H   0  0  0  0  0  0  0  0  0  0  0  0
   51.1728   33.6280   41.3804 H   0  0  0  0  0  0  0  0  0  0  0  0
  2  1  2  0
  3  2  1  0
  4  3  2  0
  4  5  1  0
  5  6  2  0
  6  1  1  0
  7  5  1  0
  8  7  1  0
  9  8  2  0
 10  9  1  0
 10 11  1  0
 11  7  2  0
 12 10  1  0
  1 13  1  0
  2 14  1  0
  3 15  1  0
  8 16  1  0
  9 17  1  0
 12 18  1  0
 12 19  1  0
 12 20  1  0
M  ISO  8  13  14  14  14  15  14  16  14  17  14  18   8  19   8  20   8
M  END
>  <minimizedAffinity>  (1) 
-3.69801021

>  <minimizedRMSD>  (1) 
5.08787537

$$$$
