
     RDKit          3D

 26 27  0  0  0  0  0  0  0  0999 V2000
   46.0510   33.0140   46.7550 C   0  0  0  0  0  0  0  0  0  0  0  0
   45.1260   32.8480   47.7710 C   0  0  0  0  0  0  0  0  0  0  0  0
   45.6700   31.9550   48.6840 C   0  0  0  0  0  0  0  0  0  0  0  0
   46.8910   31.6160   48.1990 N   0  0  0  0  0  0  0  0  0  0  0  0
   47.1180   32.2450   47.0530 N   0  0  0  0  0  0  0  0  0  0  0  0
   44.5520   35.6790   44.6950 C   0  0  0  0  0  0  0  0  0  0  0  0
   45.2580   35.5260   43.4710 C   0  0  0  0  0  0  0  0  0  0  0  0
   46.2270   34.5150   43.3910 C   0  0  0  0  0  0  0  0  0  0  0  0
   46.4420   33.7330   44.4800 N   0  0  0  0  0  0  0  0  0  0  0  0
   45.7380   33.9170   45.6370 C   0  0  0  0  0  0  0  0  0  0  0  0
   44.8100   34.8700   45.7480 N   0  0  0  0  0  0  0  0  0  0  0  0
   47.8800   30.7240   48.7480 C   0  0  0  0  0  0  0  0  0  0  0  0
   48.3660   29.7030   47.7690 C   0  0  0  0  0  0  0  0  0  0  0  0
   49.0890   31.5240   49.2300 C   0  0  0  0  0  0  0  0  0  0  0  0
   44.1417   33.3339   47.8419 H   0  0  0  0  0  0  0  0  0  0  0  0
   45.2049   31.5948   49.6135 H   0  0  0  0  0  0  0  0  0  0  0  0
   43.7871   36.4642   44.7871 H   0  0  0  0  0  0  0  0  0  0  0  0
   45.0507   36.1810   42.6119 H   0  0  0  0  0  0  0  0  0  0  0  0
   46.8007   34.3590   42.4655 H   0  0  0  0  0  0  0  0  0  0  0  0
   47.3858   30.1948   49.5761 H   0  0  0  0  0  0  0  0  0  0  0  0
   48.7769   28.8398   48.3131 H   0  0  0  0  0  0  0  0  0  0  0  0
   47.5283   29.3731   47.1370 H   0  0  0  0  0  0  0  0  0  0  0  0
   49.1502   30.1452   47.1370 H   0  0  0  0  0  0  0  0  0  0  0  0
   49.1063   31.5354   50.3298 H   0  0  0  0  0  0  0  0  0  0  0  0
   50.0112   31.0573   48.8536 H   0  0  0  0  0  0  0  0  0  0  0  0
   49.0200   32.5553   48.8536 H   0  0  0  0  0  0  0  0  0  0  0  0
  1  5  2  0
  1  2  1  0
  2  3  2  0
  4  3  1  0
  4 12  1  0
  5  4  1  0
  6 11  2  0
  7  6  1  0
  8  7  2  0
  8  9  1  0
  9 10  2  0
 10 11  1  0
 10  1  1  0
 12 14  1  0
 13 12  1  0
  2 15  1  0
  3 16  1  0
  6 17  1  0
  7 18  1  0
  8 19  1  0
 12 20  1  0
 13 21  1  0
 13 22  1  0
 13 23  1  0
 14 24  1  0
 14 25  1  0
 14 26  1  0
M  ISO  8  15  14  16  14  17  14  18  14  19  14  20   8  21   8  22   8
M  ISO  4  23   8  24   8  25   8  26   8
M  END
>  <minimizedAffinity>  (1) 
-4.69140387

>  <minimizedRMSD>  (1) 
1.21442473

$$$$
