
     RDKit          3D

 20 21  0  0  0  0  0  0  0  0999 V2000
   45.9970   33.1900   46.6170 C   0  0  0  0  0  0  0  0  0  0  0  0
   45.1360   32.9020   47.6600 C   0  0  0  0  0  0  0  0  0  0  0  0
   45.8010   32.1520   48.6090 C   0  0  0  0  0  0  0  0  0  0  0  0
   47.0730   32.0020   48.1110 N   0  0  0  0  0  0  0  0  0  0  0  0
   47.1850   32.6150   46.9360 N   0  0  0  0  0  0  0  0  0  0  0  0
   44.4060   35.7890   44.5740 C   0  0  0  0  0  0  0  0  0  0  0  0
   44.7690   35.3910   43.2660 C   0  0  0  0  0  0  0  0  0  0  0  0
   45.5440   34.2490   43.1270 C   0  0  0  0  0  0  0  0  0  0  0  0
   45.9280   33.5540   44.2370 N   0  0  0  0  0  0  0  0  0  0  0  0
   45.5580   33.9700   45.4760 C   0  0  0  0  0  0  0  0  0  0  0  0
   44.8060   35.0740   45.6500 N   0  0  0  0  0  0  0  0  0  0  0  0
   48.1900   31.2900   48.7190 C   0  0  0  0  0  0  0  0  0  0  0  0
   47.7770   30.5910   49.8090 F   0  0  0  0  0  0  0  0  0  0  0  0
   49.1930   32.1980   49.0490 F   0  0  0  0  0  0  0  0  0  0  0  0
   48.7940   30.4350   47.7870 F   0  0  0  0  0  0  0  0  0  0  0  0
   44.0851   33.2208   47.7235 H   0  0  0  0  0  0  0  0  0  0  0  0
   45.4007   31.7604   49.5558 H   0  0  0  0  0  0  0  0  0  0  0  0
   43.7916   36.6900   44.7175 H   0  0  0  0  0  0  0  0  0  0  0  0
   44.4469   35.9687   42.3871 H   0  0  0  0  0  0  0  0  0  0  0  0
   45.8476   33.9053   42.1271 H   0  0  0  0  0  0  0  0  0  0  0  0
  1  5  2  0
  1  2  1  0
  2  3  2  0
  4  3  1  0
  4 12  1  0
  5  4  1  0
  6 11  2  0
  7  6  1  0
  8  7  2  0
  8  9  1  0
  9 10  2  0
 10 11  1  0
 10  1  1  0
 12 14  1  0
 12 13  1  0
 15 12  1  0
  2 16  1  0
  3 17  1  0
  6 18  1  0
  7 19  1  0
  8 20  1  0
M  ISO  5  16  14  17  14  18  14  19  14  20  14
M  END
>  <minimizedAffinity>  (1) 
-4.8261404

>  <minimizedRMSD>  (1) 
1.39169979

$$$$
