
     RDKit          3D

 25 27  0  0  0  0  0  0  0  0999 V2000
   46.8770   31.9330   45.5030 C   0  0  0  0  0  0  0  0  0  0  0  0
   47.4270   30.9400   44.7070 C   0  0  0  0  0  0  0  0  0  0  0  0
   47.9440   31.5480   43.5600 C   0  0  0  0  0  0  0  0  0  0  0  0
   47.6890   32.8710   43.7030 N   0  0  0  0  0  0  0  0  0  0  0  0
   47.0610   33.1060   44.8430 N   0  0  0  0  0  0  0  0  0  0  0  0
   45.0370   30.1320   48.1280 C   0  0  0  0  0  0  0  0  0  0  0  0
   45.1460   31.0290   49.2130 C   0  0  0  0  0  0  0  0  0  0  0  0
   45.8400   32.2160   49.0190 C   0  0  0  0  0  0  0  0  0  0  0  0
   46.3800   32.4590   47.7980 N   0  0  0  0  0  0  0  0  0  0  0  0
   46.2630   31.5820   46.7700 C   0  0  0  0  0  0  0  0  0  0  0  0
   45.5960   30.4280   46.9370 N   0  0  0  0  0  0  0  0  0  0  0  0
   48.0830   33.8030   42.7050 C   0  0  0  0  0  0  0  0  0  0  0  0
   47.4420   33.6120   41.5020 C   0  0  0  0  0  0  0  0  0  0  0  0
   47.7310   34.4550   40.4290 C   0  0  0  0  0  0  0  0  0  0  0  0
   48.6450   35.4560   40.5880 N   0  0  0  0  0  0  0  0  0  0  0  0
   49.2540   35.6110   41.7870 C   0  0  0  0  0  0  0  0  0  0  0  0
   48.9830   34.7960   42.8470 N   0  0  0  0  0  0  0  0  0  0  0  0
   47.4520   29.8647   44.9374 H   0  0  0  0  0  0  0  0  0  0  0  0
   48.4517   31.0557   42.7175 H   0  0  0  0  0  0  0  0  0  0  0  0
   44.4922   29.1849   48.2551 H   0  0  0  0  0  0  0  0  0  0  0  0
   44.6927   30.7935   50.1872 H   0  0  0  0  0  0  0  0  0  0  0  0
   45.9496   32.9432   49.8370 H   0  0  0  0  0  0  0  0  0  0  0  0
   46.7077   32.8010   41.3877 H   0  0  0  0  0  0  0  0  0  0  0  0
   47.2261   34.3141   39.4619 H   0  0  0  0  0  0  0  0  0  0  0  0
   49.9901   36.4190   41.9104 H   0  0  0  0  0  0  0  0  0  0  0  0
  1 10  1  0
  2  1  1  0
  3  4  1  0
  3  2  2  0
  4  5  1  0
  5  1  2  0
  6  7  2  0
  8  7  1  0
  9  8  2  0
 10 11  2  0
 10  9  1  0
 11  6  1  0
 12 17  1  0
 12  4  1  0
 13 12  2  0
 14 15  2  0
 14 13  1  0
 15 16  1  0
 16 17  2  0
  2 18  1  0
  3 19  1  0
  6 20  1  0
  7 21  1  0
  8 22  1  0
 13 23  1  0
 14 24  1  0
 16 25  1  0
M  ISO  8  18  14  19  14  20  14  21  14  22  14  23  14  24  14  25  14
M  END
>  <minimizedAffinity>  (1) 
-4.77825975

>  <minimizedRMSD>  (1) 
7.37218952

$$$$
