
     RDKit          3D

 29 30  0  0  0  0  0  0  0  0999 V2000
   46.6080   33.5990   44.3610 C   0  0  0  0  0  0  0  0  0  0  0  0
   45.8050   34.5590   43.7940 C   0  0  0  0  0  0  0  0  0  0  0  0
   46.4280   35.0920   42.6820 C   0  0  0  0  0  0  0  0  0  0  0  0
   47.6140   34.4270   42.6050 N   0  0  0  0  0  0  0  0  0  0  0  0
   47.7220   33.5480   43.5940 N   0  0  0  0  0  0  0  0  0  0  0  0
   45.1750   32.8190   47.6470 C   0  0  0  0  0  0  0  0  0  0  0  0
   45.4330   31.4290   47.7610 C   0  0  0  0  0  0  0  0  0  0  0  0
   46.0900   30.8120   46.7050 C   0  0  0  0  0  0  0  0  0  0  0  0
   46.4590   31.5420   45.6140 N   0  0  0  0  0  0  0  0  0  0  0  0
   46.1860   32.8740   45.5560 C   0  0  0  0  0  0  0  0  0  0  0  0
   45.5530   33.5260   46.5500 N   0  0  0  0  0  0  0  0  0  0  0  0
   48.6530   34.6130   41.6060 C   0  0  0  0  0  0  0  0  0  0  0  0
   47.9880   34.4270   40.2550 C   0  0  0  0  0  0  0  0  0  0  0  0
   49.8100   33.6590   41.8110 C   0  0  0  0  0  0  0  0  0  0  0  0
   49.1320   36.0650   41.6410 C   0  0  0  0  0  0  0  0  0  0  0  0
   44.8151   34.8582   44.1690 H   0  0  0  0  0  0  0  0  0  0  0  0
   46.0509   35.8770   42.0100 H   0  0  0  0  0  0  0  0  0  0  0  0
   44.6562   33.3374   48.4668 H   0  0  0  0  0  0  0  0  0  0  0  0
   45.1245   30.8618   48.6516 H   0  0  0  0  0  0  0  0  0  0  0  0
   46.3126   29.7356   46.7484 H   0  0  0  0  0  0  0  0  0  0  0  0
   46.9380   34.1333   40.4005 H   0  0  0  0  0  0  0  0  0  0  0  0
   48.0300   35.3714   39.6925 H   0  0  0  0  0  0  0  0  0  0  0  0
   48.5139   33.6415   39.6925 H   0  0  0  0  0  0  0  0  0  0  0  0
   49.9819   33.5173   42.8882 H   0  0  0  0  0  0  0  0  0  0  0  0
   49.5731   32.6902   41.3469 H   0  0  0  0  0  0  0  0  0  0  0  0
   50.7159   34.0762   41.3469 H   0  0  0  0  0  0  0  0  0  0  0  0
   49.2394   36.3906   42.6862 H   0  0  0  0  0  0  0  0  0  0  0  0
   50.1035   36.1430   41.1310 H   0  0  0  0  0  0  0  0  0  0  0  0
   48.3976   36.7058   41.1310 H   0  0  0  0  0  0  0  0  0  0  0  0
  1 10  1  0
  2  1  1  0
  3  2  2  0
  4  3  1  0
  4  5  1  0
  5  1  2  0
  6  7  2  0
  8  7  1  0
  9  8  2  0
 10  9  1  0
 10 11  2  0
 11  6  1  0
 12 15  1  0
 12 14  1  0
 12  4  1  0
 13 12  1  0
  2 16  1  0
  3 17  1  0
  6 18  1  0
  7 19  1  0
  8 20  1  0
 13 21  1  0
 13 22  1  0
 13 23  1  0
 14 24  1  0
 14 25  1  0
 14 26  1  0
 15 27  1  0
 15 28  1  0
 15 29  1  0
M  ISO  8  16  14  17  14  18  14  19  14  20  14  21   8  22   8  23   8
M  ISO  6  24   8  25   8  26   8  27   8  28   8  29   8
M  END
>  <minimizedAffinity>  (1) 
-4.70090675

>  <minimizedRMSD>  (1) 
6.5419302

$$$$
