
     RDKit          3D

 34 37  0  0  0  0  0  0  0  0999 V2000
   44.3890   35.9880   44.8000 C   0  0  0  0  0  0  0  0  0  0  0  0
   45.0490   35.9330   43.5570 C   0  0  0  0  0  0  0  0  0  0  0  0
   45.9790   34.9410   43.3600 C   0  0  0  0  0  0  0  0  0  0  0  0
   46.2240   34.0630   44.3610 N   0  0  0  0  0  0  0  0  0  0  0  0
   45.5630   34.1470   45.5570 C   0  0  0  0  0  0  0  0  0  0  0  0
   44.6560   35.0940   45.7830 N   0  0  0  0  0  0  0  0  0  0  0  0
   45.8980   33.1580   46.5620 C   0  0  0  0  0  0  0  0  0  0  0  0
   45.0650   32.9580   47.6510 C   0  0  0  0  0  0  0  0  0  0  0  0
   45.5900   31.9740   48.4620 C   0  0  0  0  0  0  0  0  0  0  0  0
   46.7300   31.5900   47.8530 N   0  0  0  0  0  0  0  0  0  0  0  0
   46.9160   32.2880   46.7290 N   0  0  0  0  0  0  0  0  0  0  0  0
   48.9180   28.7840   48.3810 N   0  0  0  0  0  0  0  0  0  0  0  0
   47.8080   29.3100   47.8400 N   0  0  0  0  0  0  0  0  0  0  0  0
   47.7230   30.6170   48.1840 C   0  0  0  0  0  0  0  0  0  0  0  0
   48.8230   30.9240   48.9710 C   0  0  0  0  0  0  0  0  0  0  0  0
   49.5420   29.7610   49.0730 C   0  0  0  0  0  0  0  0  0  0  0  0
   46.7390   34.7610   42.1290 C   0  0  0  0  0  0  0  0  0  0  0  0
   46.1880   33.9820   41.1330 C   0  0  0  0  0  0  0  0  0  0  0  0
   46.8560   33.7630   39.9240 C   0  0  0  0  0  0  0  0  0  0  0  0
   48.1100   34.3320   39.6910 C   0  0  0  0  0  0  0  0  0  0  0  0
   48.6300   35.1010   40.7030 C   0  0  0  0  0  0  0  0  0  0  0  0
   47.9750   35.3190   41.8940 C   0  0  0  0  0  0  0  0  0  0  0  0
   43.6401   36.7741   44.9769 H   0  0  0  0  0  0  0  0  0  0  0  0
   44.8261   36.6640   42.7658 H   0  0  0  0  0  0  0  0  0  0  0  0
   44.1275   33.5015   47.8399 H   0  0  0  0  0  0  0  0  0  0  0  0
   45.1699   31.5864   49.4018 H   0  0  0  0  0  0  0  0  0  0  0  0
   49.2368   27.8093   48.2853 H   0  0  0  0  0  0  0  0  0  0  0  0
   49.0677   31.8979   49.4200 H   0  0  0  0  0  0  0  0  0  0  0  0
   50.4818   29.6423   49.6321 H   0  0  0  0  0  0  0  0  0  0  0  0
   45.2013   33.5228   41.2932 H   0  0  0  0  0  0  0  0  0  0  0  0
   46.3894   33.1367   39.1493 H   0  0  0  0  0  0  0  0  0  0  0  0
   48.6522   34.1727   38.7473 H   0  0  0  0  0  0  0  0  0  0  0  0
   49.6165   35.5647   40.5549 H   0  0  0  0  0  0  0  0  0  0  0  0
   48.4446   35.9460   42.6663 H   0  0  0  0  0  0  0  0  0  0  0  0
  1  6  2  0
  2  1  1  0
  3  2  2  0
  3  4  1  0
  4  5  2  0
  5  6  1  0
  5  7  1  0
  7 11  2  0
  7  8  1  0
  8  9  2  0
 10 14  1  0
 10  9  1  0
 11 10  1  0
 12 16  1  0
 13 14  2  0
 13 12  1  0
 14 15  1  0
 15 16  2  0
 17  3  1  0
 18 17  2  0
 19 18  1  0
 20 19  2  0
 20 21  1  0
 21 22  2  0
 22 17  1  0
  1 23  1  0
  2 24  1  0
  8 25  1  0
  9 26  1  0
 12 27  1  0
 15 28  1  0
 16 29  1  0
 18 30  1  0
 19 31  1  0
 20 32  1  0
 21 33  1  0
 22 34  1  0
M  ISO  8  23  14  24  14  25  14  26  14  27   9  28  14  29  14  30  14
M  ISO  4  31  14  32  14  33  14  34  14
M  END
>  <minimizedAffinity>  (1) 
-7.28038788

>  <minimizedRMSD>  (1) 
0.784548759

$$$$
