
     RDKit          3D

 35 37  0  0  1  0  0  0  0  0999 V2000
   44.5790   35.4030   45.3800 C   0  0  0  0  0  0  0  0  0  0  0  0
   44.7430   36.4040   44.4010 C   0  0  0  0  0  0  0  0  0  0  0  0
   45.4180   36.0610   43.2440 C   0  0  0  0  0  0  0  0  0  0  0  0
   45.8780   34.7870   43.1240 N   0  0  0  0  0  0  0  0  0  0  0  0
   45.7100   33.8540   44.0710 C   0  0  0  0  0  0  0  0  0  0  0  0
   45.0580   34.1730   45.1930 N   0  0  0  0  0  0  0  0  0  0  0  0
   46.2330   32.5340   43.8460 N   0  0  0  0  0  0  0  0  0  0  0  0
   46.0020   31.5050   44.8840 C   0  0  0  0  0  0  0  0  0  0  0  0
   47.1020   30.5110   44.9710 C   0  0  0  0  0  0  0  0  0  0  0  0
   48.3420   31.1040   44.3210 C   0  0  0  0  0  0  0  0  0  0  0  0
   48.0140   31.1890   42.8560 C   0  0  0  0  0  0  0  0  0  0  0  0
   46.9540   32.2250   42.6460 C   0  0  2  0  0  0  0  0  0  0  0  0
   47.6560   33.4100   42.0440 C   0  0  0  0  0  0  0  0  0  0  0  0
   47.4470   33.9810   40.8060 C   0  0  0  0  0  0  0  0  0  0  0  0
   48.1590   35.0750   40.3710 C   0  0  0  0  0  0  0  0  0  0  0  0
   49.1250   35.6590   41.1580 C   0  0  0  0  0  0  0  0  0  0  0  0
   49.3920   35.1470   42.4090 C   0  0  0  0  0  0  0  0  0  0  0  0
   48.6520   34.0510   42.7970 C   0  0  0  0  0  0  0  0  0  0  0  0
   44.0473   35.6406   46.3132 H   0  0  0  0  0  0  0  0  0  0  0  0
   44.3488   37.4198   44.5519 H   0  0  0  0  0  0  0  0  0  0  0  0
   45.5783   36.7979   42.4432 H   0  0  0  0  0  0  0  0  0  0  0  0
   45.9044   32.0059   45.8585 H   0  0  0  0  0  0  0  0  0  0  0  0
   45.0871   30.9599   44.6089 H   0  0  0  0  0  0  0  0  0  0  0  0
   47.3107   30.2802   46.0261 H   0  0  0  0  0  0  0  0  0  0  0  0
   46.8132   29.5837   44.4546 H   0  0  0  0  0  0  0  0  0  0  0  0
   48.5508   32.1041   44.7286 H   0  0  0  0  0  0  0  0  0  0  0  0
   49.2374   30.4931   44.5080 H   0  0  0  0  0  0  0  0  0  0  0  0
   48.9169   31.4676   42.2928 H   0  0  0  0  0  0  0  0  0  0  0  0
   47.6506   30.2128   42.5023 H   0  0  0  0  0  0  0  0  0  0  0  0
   46.1666   31.8597   41.9703 H   0  0  0  0  0  0  0  0  0  0  0  0
   46.6843   33.5465   40.1431 H   0  0  0  0  0  0  0  0  0  0  0  0
   47.9519   35.4912   39.3741 H   0  0  0  0  0  0  0  0  0  0  0  0
   49.6827   36.5325   40.7893 H   0  0  0  0  0  0  0  0  0  0  0  0
   50.1564   35.5902   43.0643 H   0  0  0  0  0  0  0  0  0  0  0  0
   48.8626   33.6381   43.7946 H   0  0  0  0  0  0  0  0  0  0  0  0
  2  1  2  0
  3  2  1  0
  4  3  2  0
  4  5  1  0
  5  6  2  0
  6  1  1  0
  7  5  1  0
  7  8  1  0
  8  9  1  0
 10  9  1  0
 11 10  1  0
 12 11  1  0
 12  7  1  0
 13 12  1  0
 13 18  1  0
 14 13  2  0
 15 14  1  0
 15 16  2  0
 16 17  1  0
 17 18  2  0
  1 19  1  0
  2 20  1  0
  3 21  1  0
  8 22  1  0
  8 23  1  0
  9 24  1  0
  9 25  1  0
 10 26  1  0
 10 27  1  0
 11 28  1  0
 11 29  1  0
 12 30  1  6
 14 31  1  0
 15 32  1  0
 16 33  1  0
 17 34  1  0
 18 35  1  0
M  ISO  8  19  14  20  14  21  14  22  13  23  13  24  13  25  13  26  13
M  ISO  8  27  13  28  13  29  13  30  13  31  14  32  14  33  14  34  14
M  ISO  1  35  14
M  END
>  <minimizedAffinity>  (1) 
-5.22675085

>  <minimizedRMSD>  (1) 
2.93291187

$$$$
