
     RDKit          3D

 32 34  0  0  1  0  0  0  0  0999 V2000
   44.6150   35.7600   44.8740 C   0  0  0  0  0  0  0  0  0  0  0  0
   45.2350   35.6830   43.5960 C   0  0  0  0  0  0  0  0  0  0  0  0
   46.0580   34.5780   43.3280 C   0  0  0  0  0  0  0  0  0  0  0  0
   46.2130   33.6540   44.3050 N   0  0  0  0  0  0  0  0  0  0  0  0
   45.6060   33.7580   45.5140 C   0  0  0  0  0  0  0  0  0  0  0  0
   44.8160   34.7960   45.8020 N   0  0  0  0  0  0  0  0  0  0  0  0
   45.8140   32.7400   46.5020 N   0  0  0  0  0  0  0  0  0  0  0  0
   45.1990   32.8700   47.8330 C   0  0  0  0  0  0  0  0  0  0  0  0
   46.0330   32.2690   48.9230 C   0  0  0  0  0  0  0  0  0  0  0  0
   47.4460   32.1270   48.4400 C   0  0  0  0  0  0  0  0  0  0  0  0
   47.4090   31.0680   47.3430 C   0  0  0  0  0  0  0  0  0  0  0  0
   46.6290   31.5840   46.1900 C   0  0  1  0  0  0  0  0  0  0  0  0
   45.7060   30.5730   45.6070 C   0  0  0  0  0  0  0  0  0  0  0  0
   45.4230   30.2170   44.2880 C   0  0  0  0  0  0  0  0  0  0  0  0
   44.4810   29.2110   44.3260 C   0  0  0  0  0  0  0  0  0  0  0  0
   44.2020   28.9650   45.6250 N   0  0  0  0  0  0  0  0  0  0  0  0
   44.9260   29.7700   46.3820 N   0  0  0  0  0  0  0  0  0  0  0  0
   43.9638   36.6143   45.1109 H   0  0  0  0  0  0  0  0  0  0  0  0
   45.0743   36.4660   42.8404 H   0  0  0  0  0  0  0  0  0  0  0  0
   46.5606   34.4665   42.3559 H   0  0  0  0  0  0  0  0  0  0  0  0
   45.0552   33.9387   48.0501 H   0  0  0  0  0  0  0  0  0  0  0  0
   44.2441   32.3244   47.8096 H   0  0  0  0  0  0  0  0  0  0  0  0
   46.0102   32.9231   49.8071 H   0  0  0  0  0  0  0  0  0  0  0  0
   45.6330   31.2804   49.1926 H   0  0  0  0  0  0  0  0  0  0  0  0
   47.8102   33.0833   48.0364 H   0  0  0  0  0  0  0  0  0  0  0  0
   48.1246   31.8389   49.2564 H   0  0  0  0  0  0  0  0  0  0  0  0
   48.4348   30.8380   47.0194 H   0  0  0  0  0  0  0  0  0  0  0  0
   46.9352   30.1534   47.7291 H   0  0  0  0  0  0  0  0  0  0  0  0
   47.4159   31.8579   45.4718 H   0  0  0  0  0  0  0  0  0  0  0  0
   45.8692   30.6577   43.3843 H   0  0  0  0  0  0  0  0  0  0  0  0
   44.0376   28.7018   43.4576 H   0  0  0  0  0  0  0  0  0  0  0  0
   43.5322   28.2625   45.9697 H   0  0  0  0  0  0  0  0  0  0  0  0
  1  6  2  0
  2  1  1  0
  3  2  2  0
  3  4  1  0
  4  5  2  0
  5  6  1  0
  5  7  1  0
  7  8  1  0
  8  9  1  0
 10  9  1  0
 11 10  1  0
 12  7  1  0
 12 11  1  0
 13 12  1  0
 13 17  2  0
 14 15  2  0
 14 13  1  0
 15 16  1  0
 16 17  1  0
  1 18  1  0
  2 19  1  0
  3 20  1  0
  8 21  1  0
  8 22  1  0
  9 23  1  0
  9 24  1  0
 10 25  1  0
 10 26  1  0
 11 27  1  0
 11 28  1  0
 12 29  1  6
 14 30  1  0
 15 31  1  0
 16 32  1  0
M  ISO  8  18  14  19  14  20  14  21  13  22  13  23  13  24  13  25  13
M  ISO  7  26  13  27  13  28  13  29  13  30  14  31  14  32   9
M  END
>  <minimizedAffinity>  (1) 
-5.12432766

>  <minimizedRMSD>  (1) 
0.395317078

$$$$
