
     RDKit          3D

 31 33  0  0  0  0  0  0  0  0999 V2000
   44.5590   35.8850   44.3280 C   0  0  0  0  0  0  0  0  0  0  0  0
   45.2620   35.7440   43.1280 C   0  0  0  0  0  0  0  0  0  0  0  0
   46.2240   34.7380   43.0720 C   0  0  0  0  0  0  0  0  0  0  0  0
   46.4200   33.9640   44.1680 N   0  0  0  0  0  0  0  0  0  0  0  0
   45.6970   34.1530   45.3130 C   0  0  0  0  0  0  0  0  0  0  0  0
   44.7760   35.1000   45.3990 N   0  0  0  0  0  0  0  0  0  0  0  0
   46.0080   33.2510   46.4120 C   0  0  0  0  0  0  0  0  0  0  0  0
   45.1040   33.1310   47.4670 C   0  0  0  0  0  0  0  0  0  0  0  0
   45.5870   32.2350   48.3890 C   0  0  0  0  0  0  0  0  0  0  0  0
   46.7800   31.8210   47.8840 N   0  0  0  0  0  0  0  0  0  0  0  0
   47.0170   32.4250   46.7220 N   0  0  0  0  0  0  0  0  0  0  0  0
   48.9530   29.1180   48.7870 N   0  0  0  0  0  0  0  0  0  0  0  0
   47.8790   29.5660   48.1160 N   0  0  0  0  0  0  0  0  0  0  0  0
   47.7570   30.9040   48.3660 C   0  0  0  0  0  0  0  0  0  0  0  0
   48.7680   31.3050   49.2070 C   0  0  0  0  0  0  0  0  0  0  0  0
   49.5100   30.1580   49.4580 C   0  0  0  0  0  0  0  0  0  0  0  0
   47.0520   34.4800   41.8480 C   0  0  0  0  0  0  0  0  0  0  0  0
   48.2180   35.4530   41.9320 C   0  0  0  0  0  0  0  0  0  0  0  0
   49.7310   34.6500   42.4630 S   0  0  0  0  0  0  0  0  0  0  0  0
   43.7945   36.6726   44.3999 H   0  0  0  0  0  0  0  0  0  0  0  0
   45.0643   36.3984   42.2662 H   0  0  0  0  0  0  0  0  0  0  0  0
   44.1495   33.6716   47.5483 H   0  0  0  0  0  0  0  0  0  0  0  0
   45.1125   31.9208   49.3304 H   0  0  0  0  0  0  0  0  0  0  0  0
   49.2966   28.1470   48.7915 H   0  0  0  0  0  0  0  0  0  0  0  0
   48.9502   32.3171   49.5974 H   0  0  0  0  0  0  0  0  0  0  0  0
   50.4038   30.1017   50.0968 H   0  0  0  0  0  0  0  0  0  0  0  0
   46.4616   34.6655   40.9386 H   0  0  0  0  0  0  0  0  0  0  0  0
   47.3950   33.4359   41.8007 H   0  0  0  0  0  0  0  0  0  0  0  0
   48.3818   35.8967   40.9389 H   0  0  0  0  0  0  0  0  0  0  0  0
   47.9639   36.2222   42.6762 H   0  0  0  0  0  0  0  0  0  0  0  0
   49.7785   34.6248   43.8319 H   0  0  0  0  0  0  0  0  0  0  0  0
  1  6  2  0
  2  1  1  0
  3  2  2  0
  3  4  1  0
  4  5  2  0
  5  6  1  0
  5  7  1  0
  7 11  2  0
  7  8  1  0
  8  9  2  0
 10 14  1  0
 10  9  1  0
 11 10  1  0
 12 16  1  0
 13 14  2  0
 13 12  1  0
 14 15  1  0
 15 16  2  0
 17 18  1  0
 17  3  1  0
 18 19  1  0
  1 20  1  0
  2 21  1  0
  8 22  1  0
  9 23  1  0
 12 24  1  0
 15 25  1  0
 16 26  1  0
 17 27  1  0
 17 28  1  0
 18 29  1  0
 18 30  1  0
 19 31  1  0
M  ISO  8  20  14  21  14  22  14  23  14  24   9  25  14  26  14  27   8
M  ISO  4  28   8  29   8  30   8  31  11
M  END
>  <minimizedAffinity>  (1) 
-5.87478399

>  <minimizedRMSD>  (1) 
0.285252064

$$$$
