
     RDKit          3D

 52 56  0  0  1  0  0  0  0  0999 V2000
   44.4320   35.9380   44.6780 C   0  0  0  0  0  0  0  0  0  0  0  0
   45.0200   35.7580   43.4230 C   0  0  0  0  0  0  0  0  0  0  0  0
   45.9070   34.7090   43.2640 C   0  0  0  0  0  0  0  0  0  0  0  0
   46.1590   33.9210   44.3110 N   0  0  0  0  0  0  0  0  0  0  0  0
   45.5740   34.1190   45.5190 C   0  0  0  0  0  0  0  0  0  0  0  0
   44.7110   35.1180   45.7190 N   0  0  0  0  0  0  0  0  0  0  0  0
   45.9240   33.1940   46.5970 C   0  0  0  0  0  0  0  0  0  0  0  0
   45.0550   32.9820   47.6390 C   0  0  0  0  0  0  0  0  0  0  0  0
   45.6090   32.0760   48.5170 C   0  0  0  0  0  0  0  0  0  0  0  0
   46.8090   31.7550   47.9860 N   0  0  0  0  0  0  0  0  0  0  0  0
   47.0020   32.4150   46.8460 N   0  0  0  0  0  0  0  0  0  0  0  0
   49.1320   29.1400   48.7650 N   0  0  0  0  0  0  0  0  0  0  0  0
   48.0300   29.5560   48.1500 N   0  0  0  0  0  0  0  0  0  0  0  0
   47.8410   30.8800   48.4180 C   0  0  0  0  0  0  0  0  0  0  0  0
   48.8660   31.2800   49.2270 C   0  0  0  0  0  0  0  0  0  0  0  0
   49.6540   30.1780   49.4270 C   0  0  0  0  0  0  0  0  0  0  0  0
   46.5690   34.4560   41.9630 C   0  0  0  0  0  0  0  0  0  0  0  0
   47.8320   35.3060   41.9220 C   0  0  0  0  0  0  0  0  0  0  0  0
   49.0410   34.5700   41.4870 C   0  0  1  0  0  0  0  0  0  0  0  0
   50.1610   34.4600   42.5260 C   0  0  0  0  0  0  0  0  0  0  0  0
   49.4020   33.2580   42.0370 C   0  0  2  0  0  0  0  0  0  0  0  0
   49.9920   32.1970   41.3260 N   0  0  0  0  0  0  0  0  0  0  0  0
   51.3610   31.9300   41.4630 C   0  0  0  0  0  0  0  0  0  0  0  0
   51.9530   31.5390   40.1050 C   0  0  0  0  0  0  0  0  0  0  0  0
   51.1810   30.4320   39.4470 C   0  0  0  0  0  0  0  0  0  0  0  0
   49.6970   30.7040   39.4370 C   0  0  0  0  0  0  0  0  0  0  0  0
   49.4840   32.1090   39.9950 C   0  0  0  0  0  0  0  0  0  0  0  0
   43.7242   36.7673   44.8240 H   0  0  0  0  0  0  0  0  0  0  0  0
   44.7841   36.4313   42.5858 H   0  0  0  0  0  0  0  0  0  0  0  0
   44.0712   33.4603   47.7546 H   0  0  0  0  0  0  0  0  0  0  0  0
   45.1685   31.6956   49.4504 H   0  0  0  0  0  0  0  0  0  0  0  0
   49.5168   28.1850   48.7367 H   0  0  0  0  0  0  0  0  0  0  0  0
   49.0268   32.2880   49.6369 H   0  0  0  0  0  0  0  0  0  0  0  0
   50.5702   30.1510   50.0352 H   0  0  0  0  0  0  0  0  0  0  0  0
   46.8295   33.3910   41.8745 H   0  0  0  0  0  0  0  0  0  0  0  0
   45.8994   34.7148   41.1296 H   0  0  0  0  0  0  0  0  0  0  0  0
   47.6651   36.1397   41.2241 H   0  0  0  0  0  0  0  0  0  0  0  0
   48.0200   35.6455   42.9513 H   0  0  0  0  0  0  0  0  0  0  0  0
   48.9178   34.9292   40.4546 H   0  0  0  0  0  0  0  0  0  0  0  0
   51.2097   34.6130   42.2313 H   0  0  0  0  0  0  0  0  0  0  0  0
   50.3786   34.9130   43.5045 H   0  0  0  0  0  0  0  0  0  0  0  0
   48.8212   32.4537   42.5121 H   0  0  0  0  0  0  0  0  0  0  0  0
   51.8723   32.8285   41.8390 H   0  0  0  0  0  0  0  0  0  0  0  0
   51.4996   31.1002   42.1716 H   0  0  0  0  0  0  0  0  0  0  0  0
   51.9403   32.4198   39.4462 H   0  0  0  0  0  0  0  0  0  0  0  0
   52.9790   31.1805   40.2746 H   0  0  0  0  0  0  0  0  0  0  0  0
   51.5291   30.3249   38.4090 H   0  0  0  0  0  0  0  0  0  0  0  0
   51.3529   29.5103   40.0223 H   0  0  0  0  0  0  0  0  0  0  0  0
   49.3115   30.6460   38.4084 H   0  0  0  0  0  0  0  0  0  0  0  0
   49.1628   29.9601   40.0463 H   0  0  0  0  0  0  0  0  0  0  0  0
   50.0090   32.8358   39.3577 H   0  0  0  0  0  0  0  0  0  0  0  0
   48.4062   32.3284   40.0087 H   0  0  0  0  0  0  0  0  0  0  0  0
  1  6  2  0
  2  1  1  0
  3  2  2  0
  3  4  1  0
  4  5  2  0
  5  6  1  0
  5  7  1  0
  7 11  2  0
  7  8  1  0
  8  9  2  0
 10 14  1  0
 10  9  1  0
 11 10  1  0
 12 16  1  0
 13 14  2  0
 13 12  1  0
 14 15  1  0
 15 16  2  0
 17  3  1  0
 18 17  1  0
 19 18  1  0
 19 21  1  0
 19 20  1  0
 21 20  1  0
 22 23  1  0
 22 21  1  0
 24 23  1  0
 25 24  1  0
 26 25  1  0
 26 27  1  0
 27 22  1  0
  1 28  1  0
  2 29  1  0
  8 30  1  0
  9 31  1  0
 12 32  1  0
 15 33  1  0
 16 34  1  0
 17 35  1  0
 17 36  1  0
 18 37  1  0
 18 38  1  0
 19 39  1  6
 20 40  1  0
 20 41  1  0
 21 42  1  1
 23 43  1  0
 23 44  1  0
 24 45  1  0
 24 46  1  0
 25 47  1  0
 25 48  1  0
 26 49  1  0
 26 50  1  0
 27 51  1  0
 27 52  1  0
M  ISO  8  28  14  29  14  30  14  31  14  32   9  33  14  34  14  35   8
M  ISO  8  36   8  37   8  38   8  39  13  40  13  41  13  42  13  43  13
M  ISO  8  44  13  45  13  46  13  47  13  48  13  49  13  50  13  51  13
M  ISO  1  52  13
M  END
>  <minimizedAffinity>  (1) 
-6.87885809

>  <minimizedRMSD>  (1) 
0.665173888

$$$$
