
     RDKit          3D

 46 50  0  0  1  0  0  0  0  0999 V2000
   44.4150   35.9320   44.7330 C   0  0  0  0  0  0  0  0  0  0  0  0
   45.0120   35.7630   43.4780 C   0  0  0  0  0  0  0  0  0  0  0  0
   45.9030   34.7220   43.3060 C   0  0  0  0  0  0  0  0  0  0  0  0
   46.1620   33.9100   44.3510 N   0  0  0  0  0  0  0  0  0  0  0  0
   45.5570   34.1090   45.5620 C   0  0  0  0  0  0  0  0  0  0  0  0
   44.7000   35.0950   45.7600 N   0  0  0  0  0  0  0  0  0  0  0  0
   45.9110   33.1650   46.6310 C   0  0  0  0  0  0  0  0  0  0  0  0
   45.0490   32.9500   47.6700 C   0  0  0  0  0  0  0  0  0  0  0  0
   45.5960   32.0340   48.5350 C   0  0  0  0  0  0  0  0  0  0  0  0
   46.7940   31.7080   47.9970 N   0  0  0  0  0  0  0  0  0  0  0  0
   46.9790   32.3800   46.8670 N   0  0  0  0  0  0  0  0  0  0  0  0
   49.1270   29.1000   48.7640 N   0  0  0  0  0  0  0  0  0  0  0  0
   48.0170   29.5080   48.1310 N   0  0  0  0  0  0  0  0  0  0  0  0
   47.8200   30.8220   48.4170 C   0  0  0  0  0  0  0  0  0  0  0  0
   48.8430   31.2250   49.2500 C   0  0  0  0  0  0  0  0  0  0  0  0
   49.6380   30.1300   49.4450 C   0  0  0  0  0  0  0  0  0  0  0  0
   46.5730   34.4830   42.0060 C   0  0  0  0  0  0  0  0  0  0  0  0
   47.8240   35.3330   41.9750 C   0  0  0  0  0  0  0  0  0  0  0  0
   49.0370   34.6550   41.4540 C   0  0  1  0  0  0  0  0  0  0  0  0
   50.1180   34.3570   42.4720 C   0  0  0  0  0  0  0  0  0  0  0  0
   49.3530   33.2510   41.7820 C   0  0  2  0  0  0  0  0  0  0  0  0
   50.1880   32.4070   40.9240 C   0  0  0  0  0  0  0  0  0  0  0  0
   49.6400   31.8680   39.7720 C   0  0  0  0  0  0  0  0  0  0  0  0
   50.4590   31.0670   38.9710 C   0  0  0  0  0  0  0  0  0  0  0  0
   51.7760   30.8380   39.3460 C   0  0  0  0  0  0  0  0  0  0  0  0
   52.3000   31.3890   40.5030 C   0  0  0  0  0  0  0  0  0  0  0  0
   51.4800   32.1460   41.2340 N   0  0  0  0  0  0  0  0  0  0  0  0
   43.7038   36.7567   44.8878 H   0  0  0  0  0  0  0  0  0  0  0  0
   44.7765   36.4444   42.6472 H   0  0  0  0  0  0  0  0  0  0  0  0
   44.0696   33.4352   47.7940 H   0  0  0  0  0  0  0  0  0  0  0  0
   45.1547   31.6481   49.4658 H   0  0  0  0  0  0  0  0  0  0  0  0
   49.5209   28.1489   48.7306 H   0  0  0  0  0  0  0  0  0  0  0  0
   48.9901   32.2294   49.6738 H   0  0  0  0  0  0  0  0  0  0  0  0
   50.5487   30.1015   50.0613 H   0  0  0  0  0  0  0  0  0  0  0  0
   46.8390   33.4199   41.9106 H   0  0  0  0  0  0  0  0  0  0  0  0
   45.9054   34.7464   41.1724 H   0  0  0  0  0  0  0  0  0  0  0  0
   47.6245   36.2087   41.3399 H   0  0  0  0  0  0  0  0  0  0  0  0
   48.0441   35.5897   43.0217 H   0  0  0  0  0  0  0  0  0  0  0  0
   48.9519   35.1871   40.4950 H   0  0  0  0  0  0  0  0  0  0  0  0
   51.1752   34.5364   42.2267 H   0  0  0  0  0  0  0  0  0  0  0  0
   50.3177   34.6439   43.5150 H   0  0  0  0  0  0  0  0  0  0  0  0
   48.6973   32.4092   42.0493 H   0  0  0  0  0  0  0  0  0  0  0  0
   48.5934   32.0640   39.4960 H   0  0  0  0  0  0  0  0  0  0  0  0
   50.0618   30.6201   38.0477 H   0  0  0  0  0  0  0  0  0  0  0  0
   52.4155   30.2066   38.7116 H   0  0  0  0  0  0  0  0  0  0  0  0
   53.3426   31.2111   40.8051 H   0  0  0  0  0  0  0  0  0  0  0  0
  1  6  2  0
  2  1  1  0
  3  2  2  0
  3  4  1  0
  4  5  2  0
  5  6  1  0
  5  7  1  0
  7 11  2  0
  7  8  1  0
  8  9  2  0
 10 14  1  0
 10  9  1  0
 11 10  1  0
 12 16  1  0
 13 14  2  0
 13 12  1  0
 14 15  1  0
 15 16  2  0
 17  3  1  0
 18 17  1  0
 19 21  1  0
 19 18  1  0
 19 20  1  0
 21 20  1  0
 22 27  1  0
 22 21  1  0
 23 22  2  0
 24 25  2  0
 24 23  1  0
 25 26  1  0
 26 27  2  0
  1 28  1  0
  2 29  1  0
  8 30  1  0
  9 31  1  0
 12 32  1  0
 15 33  1  0
 16 34  1  0
 17 35  1  0
 17 36  1  0
 18 37  1  0
 18 38  1  0
 19 39  1  6
 20 40  1  0
 20 41  1  0
 21 42  1  1
 23 43  1  0
 24 44  1  0
 25 45  1  0
 26 46  1  0
M  ISO  8  28  14  29  14  30  14  31  14  32   9  33  14  34  14  35   8
M  ISO  8  36   8  37   8  38   8  39  13  40  13  41  13  42  13  43  14
M  ISO  3  44  14  45  14  46  14
M  END
>  <minimizedAffinity>  (1) 
-6.97593451

>  <minimizedRMSD>  (1) 
0.739619195

$$$$
