
     RDKit          3D

 45 49  0  0  1  0  0  0  0  0999 V2000
   44.4150   35.9390   44.7330 C   0  0  0  0  0  0  0  0  0  0  0  0
   44.9840   35.7570   43.4700 C   0  0  0  0  0  0  0  0  0  0  0  0
   45.8630   34.6940   43.2900 C   0  0  0  0  0  0  0  0  0  0  0  0
   46.1140   33.9060   44.3410 N   0  0  0  0  0  0  0  0  0  0  0  0
   45.5470   34.1050   45.5620 C   0  0  0  0  0  0  0  0  0  0  0  0
   44.7000   35.1110   45.7720 N   0  0  0  0  0  0  0  0  0  0  0  0
   45.9020   33.1730   46.6340 C   0  0  0  0  0  0  0  0  0  0  0  0
   45.0430   32.9520   47.6760 C   0  0  0  0  0  0  0  0  0  0  0  0
   45.6030   32.0430   48.5410 C   0  0  0  0  0  0  0  0  0  0  0  0
   46.7910   31.7320   48.0030 N   0  0  0  0  0  0  0  0  0  0  0  0
   46.9870   32.3930   46.8690 N   0  0  0  0  0  0  0  0  0  0  0  0
   49.1390   29.1180   48.7450 N   0  0  0  0  0  0  0  0  0  0  0  0
   48.0340   29.5270   48.1290 N   0  0  0  0  0  0  0  0  0  0  0  0
   47.8310   30.8540   48.4220 C   0  0  0  0  0  0  0  0  0  0  0  0
   48.8550   31.2450   49.2430 C   0  0  0  0  0  0  0  0  0  0  0  0
   49.6550   30.1570   49.4320 C   0  0  0  0  0  0  0  0  0  0  0  0
   46.4980   34.4440   41.9810 C   0  0  0  0  0  0  0  0  0  0  0  0
   47.6900   35.3710   41.8710 C   0  0  0  0  0  0  0  0  0  0  0  0
   48.9680   34.7090   41.4980 C   0  0  1  0  0  0  0  0  0  0  0  0
   50.0450   34.6960   42.5810 C   0  0  0  0  0  0  0  0  0  0  0  0
   49.3880   33.4240   42.0640 C   0  0  2  0  0  0  0  0  0  0  0  0
   50.1870   32.5360   41.1770 C   0  0  0  0  0  0  0  0  0  0  0  0
   51.4700   32.1120   41.4540 C   0  0  0  0  0  0  0  0  0  0  0  0
   52.1650   31.2950   40.6090 C   0  0  0  0  0  0  0  0  0  0  0  0
   51.5580   30.9070   39.4770 N   0  0  0  0  0  0  0  0  0  0  0  0
   50.3090   31.2970   39.1670 C   0  0  0  0  0  0  0  0  0  0  0  0
   49.6510   32.1010   40.0220 N   0  0  0  0  0  0  0  0  0  0  0  0
   43.7176   36.7750   44.8905 H   0  0  0  0  0  0  0  0  0  0  0  0
   44.7431   36.4368   42.6394 H   0  0  0  0  0  0  0  0  0  0  0  0
   44.0589   33.4273   47.8014 H   0  0  0  0  0  0  0  0  0  0  0  0
   45.1697   31.6541   49.4743 H   0  0  0  0  0  0  0  0  0  0  0  0
   49.5342   28.1677   48.7042 H   0  0  0  0  0  0  0  0  0  0  0  0
   49.0041   32.2479   49.6696 H   0  0  0  0  0  0  0  0  0  0  0  0
   50.5692   30.1313   50.0432 H   0  0  0  0  0  0  0  0  0  0  0  0
   46.8290   33.3969   41.9177 H   0  0  0  0  0  0  0  0  0  0  0  0
   45.7862   34.6282   41.1628 H   0  0  0  0  0  0  0  0  0  0  0  0
   47.4631   36.1297   41.1075 H   0  0  0  0  0  0  0  0  0  0  0  0
   47.8442   35.7942   42.8746 H   0  0  0  0  0  0  0  0  0  0  0  0
   48.8658   35.0493   40.4570 H   0  0  0  0  0  0  0  0  0  0  0  0
   51.0910   34.9246   42.3290 H   0  0  0  0  0  0  0  0  0  0  0  0
   50.1877   35.1717   43.5625 H   0  0  0  0  0  0  0  0  0  0  0  0
   48.8731   32.5817   42.5492 H   0  0  0  0  0  0  0  0  0  0  0  0
   51.9494   32.4432   42.3870 H   0  0  0  0  0  0  0  0  0  0  0  0
   53.1872   30.9663   40.8480 H   0  0  0  0  0  0  0  0  0  0  0  0
   49.8341   30.9650   38.2320 H   0  0  0  0  0  0  0  0  0  0  0  0
  1  6  2  0
  2  1  1  0
  3  2  2  0
  3  4  1  0
  4  5  2  0
  5  6  1  0
  5  7  1  0
  7 11  2  0
  7  8  1  0
  8  9  2  0
 10 14  1  0
 10  9  1  0
 11 10  1  0
 12 16  1  0
 13 14  2  0
 13 12  1  0
 14 15  1  0
 15 16  2  0
 17  3  1  0
 18 17  1  0
 19 18  1  0
 19 21  1  0
 19 20  1  0
 21 20  1  0
 22 23  2  0
 22 21  1  0
 24 23  1  0
 25 24  2  0
 26 25  1  0
 26 27  2  0
 27 22  1  0
  1 28  1  0
  2 29  1  0
  8 30  1  0
  9 31  1  0
 12 32  1  0
 15 33  1  0
 16 34  1  0
 17 35  1  0
 17 36  1  0
 18 37  1  0
 18 38  1  0
 19 39  1  6
 20 40  1  0
 20 41  1  0
 21 42  1  1
 23 43  1  0
 24 44  1  0
 26 45  1  0
M  ISO  8  28  14  29  14  30  14  31  14  32   9  33  14  34  14  35   8
M  ISO  8  36   8  37   8  38   8  39  13  40  13  41  13  42  13  43  14
M  ISO  2  44  14  45  14
M  END
>  <minimizedAffinity>  (1) 
-7.02688742

>  <minimizedRMSD>  (1) 
0.446007311

$$$$
