
     RDKit          3D

 44 48  0  0  1  0  0  0  0  0999 V2000
   44.4300   35.9110   44.7240 C   0  0  0  0  0  0  0  0  0  0  0  0
   45.0090   35.7240   43.4530 C   0  0  0  0  0  0  0  0  0  0  0  0
   45.8890   34.6640   43.2950 C   0  0  0  0  0  0  0  0  0  0  0  0
   46.1460   33.8760   44.3460 N   0  0  0  0  0  0  0  0  0  0  0  0
   45.5720   34.0790   45.5630 C   0  0  0  0  0  0  0  0  0  0  0  0
   44.7190   35.0870   45.7600 N   0  0  0  0  0  0  0  0  0  0  0  0
   45.9270   33.1560   46.6330 C   0  0  0  0  0  0  0  0  0  0  0  0
   45.0630   32.9390   47.6790 C   0  0  0  0  0  0  0  0  0  0  0  0
   45.6170   32.0340   48.5560 C   0  0  0  0  0  0  0  0  0  0  0  0
   46.8130   31.7190   48.0220 N   0  0  0  0  0  0  0  0  0  0  0  0
   47.0030   32.3820   46.8800 N   0  0  0  0  0  0  0  0  0  0  0  0
   49.1500   29.1040   48.7830 N   0  0  0  0  0  0  0  0  0  0  0  0
   48.0350   29.5160   48.1650 N   0  0  0  0  0  0  0  0  0  0  0  0
   47.8500   30.8450   48.4470 C   0  0  0  0  0  0  0  0  0  0  0  0
   48.8820   31.2500   49.2580 C   0  0  0  0  0  0  0  0  0  0  0  0
   49.6790   30.1400   49.4510 C   0  0  0  0  0  0  0  0  0  0  0  0
   46.5340   34.4120   41.9840 C   0  0  0  0  0  0  0  0  0  0  0  0
   47.7050   35.3610   41.8590 C   0  0  0  0  0  0  0  0  0  0  0  0
   48.9930   34.7050   41.4850 C   0  0  1  0  0  0  0  0  0  0  0  0
   50.0570   34.6930   42.5860 C   0  0  0  0  0  0  0  0  0  0  0  0
   49.4140   33.4190   42.0450 C   0  0  2  0  0  0  0  0  0  0  0  0
   50.1670   32.5270   41.2150 C   0  0  0  0  0  0  0  0  0  0  0  0
   51.5370   32.0730   41.3630 C   0  0  0  0  0  0  0  0  0  0  0  0
   51.9950   31.2230   40.4180 C   0  0  0  0  0  0  0  0  0  0  0  0
   51.1210   30.8250   39.3440 C   0  0  0  0  0  0  0  0  0  0  0  0
   49.5680   31.7440   39.7520 S   0  0  0  0  0  0  0  0  0  0  0  0
   43.7283   36.7439   44.8784 H   0  0  0  0  0  0  0  0  0  0  0  0
   44.7711   36.3957   42.6150 H   0  0  0  0  0  0  0  0  0  0  0  0
   44.0788   33.4157   47.7976 H   0  0  0  0  0  0  0  0  0  0  0  0
   45.1786   31.6514   49.4895 H   0  0  0  0  0  0  0  0  0  0  0  0
   49.5369   28.1500   48.7506 H   0  0  0  0  0  0  0  0  0  0  0  0
   49.0412   32.2571   49.6708 H   0  0  0  0  0  0  0  0  0  0  0  0
   50.5983   30.1097   50.0543 H   0  0  0  0  0  0  0  0  0  0  0  0
   46.8877   33.3716   41.9341 H   0  0  0  0  0  0  0  0  0  0  0  0
   45.8180   34.5728   41.1646 H   0  0  0  0  0  0  0  0  0  0  0  0
   47.4624   36.1072   41.0881 H   0  0  0  0  0  0  0  0  0  0  0  0
   47.8563   35.8058   42.8536 H   0  0  0  0  0  0  0  0  0  0  0  0
   48.9008   35.0488   40.4442 H   0  0  0  0  0  0  0  0  0  0  0  0
   51.1048   34.9317   42.3513 H   0  0  0  0  0  0  0  0  0  0  0  0
   50.1826   35.1610   43.5735 H   0  0  0  0  0  0  0  0  0  0  0  0
   48.9000   32.5694   42.5183 H   0  0  0  0  0  0  0  0  0  0  0  0
   52.1693   32.4034   42.2003 H   0  0  0  0  0  0  0  0  0  0  0  0
   53.0245   30.8388   40.4681 H   0  0  0  0  0  0  0  0  0  0  0  0
   51.3244   30.1496   38.4999 H   0  0  0  0  0  0  0  0  0  0  0  0
  1  6  2  0
  2  1  1  0
  3  2  2  0
  3  4  1  0
  4  5  2  0
  5  6  1  0
  5  7  1  0
  7 11  2  0
  7  8  1  0
  8  9  2  0
 10 14  1  0
 10  9  1  0
 11 10  1  0
 12 16  1  0
 13 14  2  0
 13 12  1  0
 14 15  1  0
 15 16  2  0
 17  3  1  0
 18 17  1  0
 19 18  1  0
 19 21  1  0
 19 20  1  0
 21 20  1  0
 22 23  2  0
 22 21  1  0
 24 23  1  0
 25 26  1  0
 25 24  2  0
 26 22  1  0
  1 27  1  0
  2 28  1  0
  8 29  1  0
  9 30  1  0
 12 31  1  0
 15 32  1  0
 16 33  1  0
 17 34  1  0
 17 35  1  0
 18 36  1  0
 18 37  1  0
 19 38  1  6
 20 39  1  0
 20 40  1  0
 21 41  1  1
 23 42  1  0
 24 43  1  0
 25 44  1  0
M  ISO  8  27  14  28  14  29  14  30  14  31   9  32  14  33  14  34   8
M  ISO  8  35   8  36   8  37   8  38  13  39  13  40  13  41  13  42  14
M  ISO  2  43  14  44  14
M  END
>  <minimizedAffinity>  (1) 
-6.84761047

>  <minimizedRMSD>  (1) 
0.412185431

$$$$
