
     RDKit          3D

 38 40  0  0  1  0  0  0  0  0999 V2000
   44.5960   35.5630   44.9840 C   0  0  0  0  0  0  0  0  0  0  0  0
   45.2520   35.5450   43.7150 C   0  0  0  0  0  0  0  0  0  0  0  0
   46.1450   34.5010   43.4310 C   0  0  0  0  0  0  0  0  0  0  0  0
   46.3350   33.5640   44.3850 N   0  0  0  0  0  0  0  0  0  0  0  0
   45.7000   33.6090   45.5730 C   0  0  0  0  0  0  0  0  0  0  0  0
   44.8290   34.6040   45.8800 N   0  0  0  0  0  0  0  0  0  0  0  0
   45.9490   32.5720   46.5570 N   0  0  0  0  0  0  0  0  0  0  0  0
   45.2810   32.6400   47.8680 C   0  0  0  0  0  0  0  0  0  0  0  0
   46.1130   32.0640   48.9750 C   0  0  0  0  0  0  0  0  0  0  0  0
   47.5640   32.1110   48.5570 C   0  0  0  0  0  0  0  0  0  0  0  0
   47.6970   31.0990   47.4290 C   0  0  0  0  0  0  0  0  0  0  0  0
   46.8340   31.4850   46.2720 C   0  0  1  0  0  0  0  0  0  0  0  0
   46.1490   30.2920   45.8270 N   0  0  0  0  0  0  0  0  0  0  0  0
   44.9740   30.0050   46.6220 C   0  0  0  0  0  0  0  0  0  0  0  0
   44.2950   28.7280   46.2160 C   0  0  0  0  0  0  0  0  0  0  0  0
   44.6680   28.3920   44.9250 O   0  0  0  0  0  0  0  0  0  0  0  0
   44.5720   29.5750   44.1560 C   0  0  0  0  0  0  0  0  0  0  0  0
   45.8120   30.4180   44.4180 C   0  0  0  0  0  0  0  0  0  0  0  0
   43.8932   36.3746   45.2235 H   0  0  0  0  0  0  0  0  0  0  0  0
   45.0604   36.3353   42.9742 H   0  0  0  0  0  0  0  0  0  0  0  0
   46.6713   34.4475   42.4665 H   0  0  0  0  0  0  0  0  0  0  0  0
   45.0686   33.6941   48.1000 H   0  0  0  0  0  0  0  0  0  0  0  0
   44.3595   32.0431   47.8014 H   0  0  0  0  0  0  0  0  0  0  0  0
   45.9715   32.6550   49.8919 H   0  0  0  0  0  0  0  0  0  0  0  0
   45.8108   31.0250   49.1727 H   0  0  0  0  0  0  0  0  0  0  0  0
   47.8293   33.1181   48.2028 H   0  0  0  0  0  0  0  0  0  0  0  0
   48.2371   31.8776   49.3951 H   0  0  0  0  0  0  0  0  0  0  0  0
   48.7460   31.0597   47.1003 H   0  0  0  0  0  0  0  0  0  0  0  0
   47.3766   30.1132   47.7972 H   0  0  0  0  0  0  0  0  0  0  0  0
   47.4621   31.8797   45.4598 H   0  0  0  0  0  0  0  0  0  0  0  0
   45.2746   29.9233   47.6770 H   0  0  0  0  0  0  0  0  0  0  0  0
   44.2585   30.8255   46.4643 H   0  0  0  0  0  0  0  0  0  0  0  0
   44.5905   27.9219   46.9037 H   0  0  0  0  0  0  0  0  0  0  0  0
   43.2044   28.8660   46.2563 H   0  0  0  0  0  0  0  0  0  0  0  0
   43.6722   30.1363   44.4480 H   0  0  0  0  0  0  0  0  0  0  0  0
   44.5017   29.3269   43.0866 H   0  0  0  0  0  0  0  0  0  0  0  0
   46.6472   30.0563   43.8002 H   0  0  0  0  0  0  0  0  0  0  0  0
   45.6205   31.4707   44.1626 H   0  0  0  0  0  0  0  0  0  0  0  0
  1  6  2  0
  2  1  1  0
  3  2  2  0
  3  4  1  0
  4  5  2  0
  5  6  1  0
  5  7  1  0
  7  8  1  0
  8  9  1  0
 10  9  1  0
 11 10  1  0
 12  7  1  0
 12 11  1  0
 13 12  1  0
 13 14  1  0
 15 14  1  0
 16 15  1  0
 17 18  1  0
 17 16  1  0
 18 13  1  0
  1 19  1  0
  2 20  1  0
  3 21  1  0
  8 22  1  0
  8 23  1  0
  9 24  1  0
  9 25  1  0
 10 26  1  0
 10 27  1  0
 11 28  1  0
 11 29  1  0
 12 30  1  6
 14 31  1  0
 14 32  1  0
 15 33  1  0
 15 34  1  0
 17 35  1  0
 17 36  1  0
 18 37  1  0
 18 38  1  0
M  ISO  8  19  14  20  14  21  14  22  13  23  13  24  13  25  13  26  13
M  ISO  8  27  13  28  13  29  13  30  13  31  13  32  13  33  13  34  13
M  ISO  4  35  13  36  13  37  13  38  13
M  END
>  <minimizedAffinity>  (1) 
-5.02237844

>  <minimizedRMSD>  (1) 
0.470545202

$$$$
