
     RDKit          3D

 49 53  0  0  1  0  0  0  0  0999 V2000
   44.4480   35.8590   44.7010 C   0  0  0  0  0  0  0  0  0  0  0  0
   45.0290   35.6520   43.4380 C   0  0  0  0  0  0  0  0  0  0  0  0
   45.9140   34.5950   43.2860 C   0  0  0  0  0  0  0  0  0  0  0  0
   46.1750   33.8200   44.3450 N   0  0  0  0  0  0  0  0  0  0  0  0
   45.5980   34.0410   45.5610 C   0  0  0  0  0  0  0  0  0  0  0  0
   44.7420   35.0460   45.7530 N   0  0  0  0  0  0  0  0  0  0  0  0
   45.9570   33.1290   46.6490 C   0  0  0  0  0  0  0  0  0  0  0  0
   45.0870   32.9200   47.6910 C   0  0  0  0  0  0  0  0  0  0  0  0
   45.6480   32.0330   48.5760 C   0  0  0  0  0  0  0  0  0  0  0  0
   46.8490   31.7210   48.0500 N   0  0  0  0  0  0  0  0  0  0  0  0
   47.0390   32.3670   46.9080 N   0  0  0  0  0  0  0  0  0  0  0  0
   49.1880   29.1160   48.8610 N   0  0  0  0  0  0  0  0  0  0  0  0
   48.0790   29.5230   48.2400 N   0  0  0  0  0  0  0  0  0  0  0  0
   47.8900   30.8590   48.4960 C   0  0  0  0  0  0  0  0  0  0  0  0
   48.9180   31.2710   49.2990 C   0  0  0  0  0  0  0  0  0  0  0  0
   49.7050   30.1750   49.5080 C   0  0  0  0  0  0  0  0  0  0  0  0
   46.5660   34.3120   41.9880 C   0  0  0  0  0  0  0  0  0  0  0  0
   47.6740   35.3410   41.8140 C   0  0  0  0  0  0  0  0  0  0  0  0
   49.0120   34.7570   41.4990 C   0  0  1  0  0  0  0  0  0  0  0  0
   50.0350   34.7860   42.6300 C   0  0  0  0  0  0  0  0  0  0  0  0
   49.4730   33.4910   42.0840 C   0  0  2  0  0  0  0  0  0  0  0  0
   50.3610   32.7250   41.2820 N   0  0  0  0  0  0  0  0  0  0  0  0
   51.0960   31.7020   41.9700 C   0  0  0  0  0  0  0  0  0  0  0  0
   51.9580   31.2190   40.7930 C   0  0  0  0  0  0  0  0  0  0  0  0
   50.8670   31.1150   39.7250 C   0  0  0  0  0  0  0  0  0  0  0  0
   49.7270   31.9820   40.2220 C   0  0  0  0  0  0  0  0  0  0  0  0
   43.7437   36.6921   44.8420 H   0  0  0  0  0  0  0  0  0  0  0  0
   44.7879   36.3117   42.5914 H   0  0  0  0  0  0  0  0  0  0  0  0
   44.0978   33.3889   47.7992 H   0  0  0  0  0  0  0  0  0  0  0  0
   45.2111   31.6576   49.5131 H   0  0  0  0  0  0  0  0  0  0  0  0
   49.5775   28.1626   48.8471 H   0  0  0  0  0  0  0  0  0  0  0  0
   49.0786   32.2838   49.6971 H   0  0  0  0  0  0  0  0  0  0  0  0
   50.6229   30.1607   50.1139 H   0  0  0  0  0  0  0  0  0  0  0  0
   46.9900   33.2970   41.9914 H   0  0  0  0  0  0  0  0  0  0  0  0
   45.8411   34.3718   41.1628 H   0  0  0  0  0  0  0  0  0  0  0  0
   47.3911   36.0163   40.9930 H   0  0  0  0  0  0  0  0  0  0  0  0
   47.7762   35.8597   42.7787 H   0  0  0  0  0  0  0  0  0  0  0  0
   48.9437   35.1053   40.4578 H   0  0  0  0  0  0  0  0  0  0  0  0
   51.0790   35.0678   42.4283 H   0  0  0  0  0  0  0  0  0  0  0  0
   50.1065   35.2618   43.6192 H   0  0  0  0  0  0  0  0  0  0  0  0
   48.9688   32.6204   42.5288 H   0  0  0  0  0  0  0  0  0  0  0  0
   51.7045   32.1086   42.7912 H   0  0  0  0  0  0  0  0  0  0  0  0
   50.4917   30.9311   42.4705 H   0  0  0  0  0  0  0  0  0  0  0  0
   52.7328   31.9510   40.5214 H   0  0  0  0  0  0  0  0  0  0  0  0
   52.5328   30.2987   40.9736 H   0  0  0  0  0  0  0  0  0  0  0  0
   50.5361   30.0718   39.6142 H   0  0  0  0  0  0  0  0  0  0  0  0
   51.2290   31.4436   38.7396 H   0  0  0  0  0  0  0  0  0  0  0  0
   49.3575   32.6502   39.4302 H   0  0  0  0  0  0  0  0  0  0  0  0
   48.8428   31.4127   40.5446 H   0  0  0  0  0  0  0  0  0  0  0  0
  1  6  2  0
  2  1  1  0
  3  2  2  0
  3  4  1  0
  4  5  2  0
  5  6  1  0
  5  7  1  0
  7 11  2  0
  7  8  1  0
  8  9  2  0
 10 14  1  0
 10  9  1  0
 11 10  1  0
 12 16  1  0
 13 14  2  0
 13 12  1  0
 14 15  1  0
 15 16  2  0
 17  3  1  0
 18 17  1  0
 19 18  1  0
 19 21  1  0
 19 20  1  0
 21 20  1  0
 22 23  1  0
 22 21  1  0
 24 23  1  0
 25 26  1  0
 25 24  1  0
 26 22  1  0
  1 27  1  0
  2 28  1  0
  8 29  1  0
  9 30  1  0
 12 31  1  0
 15 32  1  0
 16 33  1  0
 17 34  1  0
 17 35  1  0
 18 36  1  0
 18 37  1  0
 19 38  1  6
 20 39  1  0
 20 40  1  0
 21 41  1  1
 23 42  1  0
 23 43  1  0
 24 44  1  0
 24 45  1  0
 25 46  1  0
 25 47  1  0
 26 48  1  0
 26 49  1  0
M  ISO  8  27  14  28  14  29  14  30  14  31   9  32  14  33  14  34   8
M  ISO  8  35   8  36   8  37   8  38  13  39  13  40  13  41  13  42  13
M  ISO  7  43  13  44  13  45  13  46  13  47  13  48  13  49  13
M  END
>  <minimizedAffinity>  (1) 
-6.77401018

>  <minimizedRMSD>  (1) 
0.417702556

$$$$
