
     RDKit          3D

 38 41  0  0  1  0  0  0  0  0999 V2000
   44.4240   36.1020   44.4780 C   0  0  0  0  0  0  0  0  0  0  0  0
   44.9830   35.8710   43.2040 C   0  0  0  0  0  0  0  0  0  0  0  0
   45.8260   34.7860   43.0630 C   0  0  0  0  0  0  0  0  0  0  0  0
   46.0620   34.0250   44.1290 N   0  0  0  0  0  0  0  0  0  0  0  0
   45.5190   34.2570   45.3440 C   0  0  0  0  0  0  0  0  0  0  0  0
   44.6980   35.2910   45.5350 N   0  0  0  0  0  0  0  0  0  0  0  0
   45.8600   33.3430   46.4290 C   0  0  0  0  0  0  0  0  0  0  0  0
   44.9930   33.1930   47.4930 C   0  0  0  0  0  0  0  0  0  0  0  0
   45.5300   32.2840   48.3830 C   0  0  0  0  0  0  0  0  0  0  0  0
   46.7060   31.9080   47.8350 N   0  0  0  0  0  0  0  0  0  0  0  0
   46.9030   32.5330   46.6770 N   0  0  0  0  0  0  0  0  0  0  0  0
   48.9300   29.2140   48.6400 N   0  0  0  0  0  0  0  0  0  0  0  0
   47.8280   29.6600   48.0350 N   0  0  0  0  0  0  0  0  0  0  0  0
   47.7120   31.0000   48.2700 C   0  0  0  0  0  0  0  0  0  0  0  0
   48.7760   31.3740   49.0420 C   0  0  0  0  0  0  0  0  0  0  0  0
   49.5130   30.2480   49.2550 C   0  0  0  0  0  0  0  0  0  0  0  0
   46.4560   34.4720   41.7650 C   0  0  0  0  0  0  0  0  0  0  0  0
   47.7500   35.2690   41.6790 C   0  0  0  0  0  0  0  0  0  0  0  0
   48.9640   34.4390   41.5460 C   0  0  1  0  0  0  0  0  0  0  0  0
   50.0610   34.7270   42.5650 C   0  0  0  0  0  0  0  0  0  0  0  0
   49.3440   33.3770   42.4690 C   0  0  1  0  0  0  0  0  0  0  0  0
   48.7770   33.0150   43.6350 O   0  0  0  0  0  0  0  0  0  0  0  0
   43.7497   36.9593   44.6204 H   0  0  0  0  0  0  0  0  0  0  0  0
   44.7559   36.5308   42.3537 H   0  0  0  0  0  0  0  0  0  0  0  0
   44.0310   33.7130   47.6123 H   0  0  0  0  0  0  0  0  0  0  0  0
   45.0943   31.9404   49.3328 H   0  0  0  0  0  0  0  0  0  0  0  0
   49.2721   28.2425   48.6343 H   0  0  0  0  0  0  0  0  0  0  0  0
   48.9943   32.3847   49.4173 H   0  0  0  0  0  0  0  0  0  0  0  0
   50.4424   30.1976   49.8413 H   0  0  0  0  0  0  0  0  0  0  0  0
   46.6734   33.3954   41.7038 H   0  0  0  0  0  0  0  0  0  0  0  0
   45.7838   34.7345   40.9348 H   0  0  0  0  0  0  0  0  0  0  0  0
   47.6886   35.9332   40.8043 H   0  0  0  0  0  0  0  0  0  0  0  0
   47.8457   35.8198   42.6263 H   0  0  0  0  0  0  0  0  0  0  0  0
   48.8399   34.4215   40.4532 H   0  0  0  0  0  0  0  0  0  0  0  0
   51.1085   34.8268   42.2444 H   0  0  0  0  0  0  0  0  0  0  0  0
   50.2414   35.4777   43.3485 H   0  0  0  0  0  0  0  0  0  0  0  0
   49.5132   32.3156   42.2351 H   0  0  0  0  0  0  0  0  0  0  0  0
   49.3194   33.3613   44.3873 H   0  0  0  0  0  0  0  0  0  0  0  0
  1  6  2  0
  2  1  1  0
  3  2  2  0
  3  4  1  0
  4  5  2  0
  5  6  1  0
  5  7  1  0
  7 11  2  0
  7  8  1  0
  8  9  2  0
 10 14  1  0
 10  9  1  0
 11 10  1  0
 12 16  1  0
 13 14  2  0
 13 12  1  0
 14 15  1  0
 15 16  2  0
 17  3  1  0
 18 17  1  0
 19 18  1  0
 19 21  1  0
 19 20  1  0
 21 20  1  0
 21 22  1  0
  1 23  1  0
  2 24  1  0
  8 25  1  0
  9 26  1  0
 12 27  1  0
 15 28  1  0
 16 29  1  0
 17 30  1  0
 17 31  1  0
 18 32  1  0
 18 33  1  0
 19 34  1  6
 20 35  1  0
 20 36  1  0
 21 37  1  6
 22 38  1  0
M  ISO  8  23  14  24  14  25  14  26  14  27   9  28  14  29  14  30   8
M  ISO  8  31   8  32   8  33   8  34  13  35  13  36  13  37  13  38   3
M  END
>  <minimizedAffinity>  (1) 
-6.277246

>  <minimizedRMSD>  (1) 
0.272650898

$$$$
