
     RDKit          3D

 53 57  0  0  1  0  0  0  0  0999 V2000
   44.4380   36.0870   44.4810 C   0  0  0  0  0  0  0  0  0  0  0  0
   45.0510   35.9040   43.2330 C   0  0  0  0  0  0  0  0  0  0  0  0
   45.9310   34.8490   43.1030 C   0  0  0  0  0  0  0  0  0  0  0  0
   46.1480   34.0690   44.1610 N   0  0  0  0  0  0  0  0  0  0  0  0
   45.5530   34.2560   45.3500 C   0  0  0  0  0  0  0  0  0  0  0  0
   44.6930   35.2620   45.5280 N   0  0  0  0  0  0  0  0  0  0  0  0
   45.8760   33.3310   46.4290 C   0  0  0  0  0  0  0  0  0  0  0  0
   45.0060   33.1850   47.4900 C   0  0  0  0  0  0  0  0  0  0  0  0
   45.5320   32.2630   48.3750 C   0  0  0  0  0  0  0  0  0  0  0  0
   46.7070   31.8780   47.8220 N   0  0  0  0  0  0  0  0  0  0  0  0
   46.9000   32.5120   46.6800 N   0  0  0  0  0  0  0  0  0  0  0  0
   48.9140   29.1780   48.6180 N   0  0  0  0  0  0  0  0  0  0  0  0
   47.8220   29.6400   48.0120 N   0  0  0  0  0  0  0  0  0  0  0  0
   47.7030   30.9640   48.2510 C   0  0  0  0  0  0  0  0  0  0  0  0
   48.7690   31.3260   49.0360 C   0  0  0  0  0  0  0  0  0  0  0  0
   49.5020   30.1900   49.2470 C   0  0  0  0  0  0  0  0  0  0  0  0
   46.6210   34.5810   41.8270 C   0  0  0  0  0  0  0  0  0  0  0  0
   48.0160   35.1980   41.9380 C   0  0  0  0  0  0  0  0  0  0  0  0
   49.1050   34.3100   41.5070 C   0  0  1  0  0  0  0  0  0  0  0  0
   50.2610   34.1370   42.4570 C   0  0  0  0  0  0  0  0  0  0  0  0
   49.3720   33.0000   42.0810 C   0  0  1  0  0  0  0  0  0  0  0  0
   48.7970   32.3730   43.1200 O   0  0  0  0  0  0  0  0  0  0  0  0
   49.0970   28.3020   43.1160 N   0  0  0  0  0  0  0  0  0  0  0  0
   50.2640   28.9260   42.6090 C   0  0  0  0  0  0  0  0  0  0  0  0
   50.2850   30.4420   42.7040 C   0  0  0  0  0  0  0  0  0  0  0  0
   48.9850   31.0000   43.1420 C   0  0  0  0  0  0  0  0  0  0  0  0
   48.3310   30.2710   44.2710 C   0  0  0  0  0  0  0  0  0  0  0  0
   48.7730   28.8390   44.3910 C   0  0  0  0  0  0  0  0  0  0  0  0
   43.7326   36.9204   44.6147 H   0  0  0  0  0  0  0  0  0  0  0  0
   44.8382   36.5765   42.3890 H   0  0  0  0  0  0  0  0  0  0  0  0
   44.0502   33.7156   47.6115 H   0  0  0  0  0  0  0  0  0  0  0  0
   45.0923   31.9172   49.3221 H   0  0  0  0  0  0  0  0  0  0  0  0
   49.2460   28.2031   48.6019 H   0  0  0  0  0  0  0  0  0  0  0  0
   48.9908   32.3325   49.4204 H   0  0  0  0  0  0  0  0  0  0  0  0
   50.4262   30.1252   49.8400 H   0  0  0  0  0  0  0  0  0  0  0  0
   46.0689   35.0415   40.9945 H   0  0  0  0  0  0  0  0  0  0  0  0
   46.6830   33.5001   41.6324 H   0  0  0  0  0  0  0  0  0  0  0  0
   48.0428   36.1040   41.3147 H   0  0  0  0  0  0  0  0  0  0  0  0
   48.1839   35.4085   43.0045 H   0  0  0  0  0  0  0  0  0  0  0  0
   48.9396   34.6337   40.4688 H   0  0  0  0  0  0  0  0  0  0  0  0
   51.2957   34.1791   42.0860 H   0  0  0  0  0  0  0  0  0  0  0  0
   50.5868   34.6064   43.3970 H   0  0  0  0  0  0  0  0  0  0  0  0
   49.3847   32.0273   41.5675 H   0  0  0  0  0  0  0  0  0  0  0  0
   49.2629   27.2893   43.2047 H   0  0  0  0  0  0  0  0  0  0  0  0
   50.3627   28.6509   41.5485 H   0  0  0  0  0  0  0  0  0  0  0  0
   51.0948   28.5711   43.2365 H   0  0  0  0  0  0  0  0  0  0  0  0
   51.0585   30.7396   43.4273 H   0  0  0  0  0  0  0  0  0  0  0  0
   50.4975   30.8373   41.6997 H   0  0  0  0  0  0  0  0  0  0  0  0
   48.3789   30.7491   42.2590 H   0  0  0  0  0  0  0  0  0  0  0  0
   48.5739   30.7910   45.2094 H   0  0  0  0  0  0  0  0  0  0  0  0
   47.2497   30.2619   44.0694 H   0  0  0  0  0  0  0  0  0  0  0  0
   47.9597   28.2467   44.8356 H   0  0  0  0  0  0  0  0  0  0  0  0
   49.6687   28.7989   45.0282 H   0  0  0  0  0  0  0  0  0  0  0  0
  1  6  2  0
  2  1  1  0
  3  2  2  0
  3  4  1  0
  4  5  2  0
  5  6  1  0
  5  7  1  0
  7 11  2  0
  7  8  1  0
  8  9  2  0
 10 14  1  0
 10  9  1  0
 11 10  1  0
 12 16  1  0
 13 14  2  0
 13 12  1  0
 14 15  1  0
 15 16  2  0
 17 18  1  0
 17  3  1  0
 19 18  1  0
 19 21  1  0
 19 20  1  0
 21 20  1  0
 21 22  1  0
 22 26  1  0
 23 28  1  0
 24 25  1  0
 24 23  1  0
 25 26  1  0
 26 27  1  0
 27 28  1  0
  1 29  1  0
  2 30  1  0
  8 31  1  0
  9 32  1  0
 12 33  1  0
 15 34  1  0
 16 35  1  0
 17 36  1  0
 17 37  1  0
 18 38  1  0
 18 39  1  0
 19 40  1  6
 20 41  1  0
 20 42  1  0
 21 43  1  6
 23 44  1  0
 24 45  1  0
 24 46  1  0
 25 47  1  0
 25 48  1  0
 26 49  1  0
 27 50  1  0
 27 51  1  0
 28 52  1  0
 28 53  1  0
M  ISO  8  29  14  30  14  31  14  32  14  33   9  34  14  35  14  36   8
M  ISO  8  37   8  38   8  39   8  40  13  41  13  42  13  43  13  44   5
M  ISO  8  45  13  46  13  47  13  48  13  49  13  50  13  51  13  52  13
M  ISO  1  53  13
M  END
>  <minimizedAffinity>  (1) 
-6.25543451

>  <minimizedRMSD>  (1) 
0.634892046

$$$$
