
     RDKit          3D

 49 53  0  0  1  0  0  0  0  0999 V2000
   46.5910   34.4660   41.9910 C   0  0  0  0  0  0  0  0  0  0  0  0
   44.4170   35.9160   44.6910 C   0  0  0  0  0  0  0  0  0  0  0  0
   45.0120   35.7430   43.4350 C   0  0  0  0  0  0  0  0  0  0  0  0
   45.8980   34.7120   43.2860 C   0  0  0  0  0  0  0  0  0  0  0  0
   46.1450   33.9340   44.3330 N   0  0  0  0  0  0  0  0  0  0  0  0
   45.5700   34.1060   45.5410 C   0  0  0  0  0  0  0  0  0  0  0  0
   44.7020   35.0950   45.7330 N   0  0  0  0  0  0  0  0  0  0  0  0
   45.9240   33.1870   46.6090 C   0  0  0  0  0  0  0  0  0  0  0  0
   45.0490   32.9800   47.6560 C   0  0  0  0  0  0  0  0  0  0  0  0
   45.6140   32.0660   48.5390 C   0  0  0  0  0  0  0  0  0  0  0  0
   46.8020   31.7530   48.0000 N   0  0  0  0  0  0  0  0  0  0  0  0
   46.9880   32.4160   46.8590 N   0  0  0  0  0  0  0  0  0  0  0  0
   49.1210   29.1250   48.7720 N   0  0  0  0  0  0  0  0  0  0  0  0
   48.0040   29.5430   48.1630 N   0  0  0  0  0  0  0  0  0  0  0  0
   47.8470   30.8720   48.4330 C   0  0  0  0  0  0  0  0  0  0  0  0
   48.8880   31.2670   49.2210 C   0  0  0  0  0  0  0  0  0  0  0  0
   49.6630   30.1580   49.4150 C   0  0  0  0  0  0  0  0  0  0  0  0
   47.8200   35.3470   41.9710 C   0  0  0  0  0  0  0  0  0  0  0  0
   49.0330   34.6870   41.5070 C   0  0  1  0  0  0  0  0  0  0  0  0
   50.1890   34.5510   42.4710 C   0  0  0  0  0  0  0  0  0  0  0  0
   49.5090   33.3540   41.9620 C   0  0  1  0  0  0  0  0  0  0  0  0
   48.9280   32.5670   42.9090 O   0  0  0  0  0  0  0  0  0  0  0  0
   48.8520   31.2430   42.5420 C   0  0  0  0  0  0  0  0  0  0  0  0
   49.6490   30.3520   43.4290 C   0  0  0  0  0  0  0  0  0  0  0  0
   49.1580   29.5870   44.4690 C   0  0  0  0  0  0  0  0  0  0  0  0
   49.9890   28.7920   45.2300 C   0  0  0  0  0  0  0  0  0  0  0  0
   51.3050   28.7620   44.9510 N   0  0  0  0  0  0  0  0  0  0  0  0
   51.7370   29.5280   43.9230 C   0  0  0  0  0  0  0  0  0  0  0  0
   50.9650   30.3270   43.1450 N   0  0  0  0  0  0  0  0  0  0  0  0
   46.8834   33.4084   41.9143 H   0  0  0  0  0  0  0  0  0  0  0  0
   45.9298   34.6965   41.1427 H   0  0  0  0  0  0  0  0  0  0  0  0
   43.7007   36.7381   44.8364 H   0  0  0  0  0  0  0  0  0  0  0  0
   44.7746   36.4140   42.5963 H   0  0  0  0  0  0  0  0  0  0  0  0
   44.0659   33.4593   47.7730 H   0  0  0  0  0  0  0  0  0  0  0  0
   45.1812   31.6833   49.4751 H   0  0  0  0  0  0  0  0  0  0  0  0
   49.4975   28.1666   48.7474 H   0  0  0  0  0  0  0  0  0  0  0  0
   49.0678   32.2761   49.6204 H   0  0  0  0  0  0  0  0  0  0  0  0
   50.5885   30.1239   50.0086 H   0  0  0  0  0  0  0  0  0  0  0  0
   47.6190   36.2010   41.3074 H   0  0  0  0  0  0  0  0  0  0  0  0
   48.0068   35.6445   43.0134 H   0  0  0  0  0  0  0  0  0  0  0  0
   48.8338   35.1081   40.5105 H   0  0  0  0  0  0  0  0  0  0  0  0
   51.2117   34.7854   42.1406 H   0  0  0  0  0  0  0  0  0  0  0  0
   50.4210   34.9493   43.4698 H   0  0  0  0  0  0  0  0  0  0  0  0
   49.7348   32.4510   41.3758 H   0  0  0  0  0  0  0  0  0  0  0  0
   47.7990   30.9273   42.5812 H   0  0  0  0  0  0  0  0  0  0  0  0
   49.2664   31.1564   41.5267 H   0  0  0  0  0  0  0  0  0  0  0  0
   48.0817   29.6125   44.6949 H   0  0  0  0  0  0  0  0  0  0  0  0
   49.5810   28.1897   46.0551 H   0  0  0  0  0  0  0  0  0  0  0  0
   52.8133   29.5003   43.6974 H   0  0  0  0  0  0  0  0  0  0  0  0
  1  4  1  0
  2  7  2  0
  3  2  1  0
  4  3  2  0
  4  5  1  0
  5  6  2  0
  6  7  1  0
  6  8  1  0
  8 12  2  0
  8  9  1  0
  9 10  2  0
 11 15  1  0
 11 10  1  0
 12 11  1  0
 13 17  1  0
 14 15  2  0
 14 13  1  0
 15 16  1  0
 16 17  2  0
 18  1  1  0
 19 21  1  0
 19 18  1  0
 19 20  1  0
 21 20  1  0
 21 22  1  0
 23 22  1  0
 23 24  1  0
 24 25  2  0
 25 26  1  0
 27 26  2  0
 28 27  1  0
 29 24  1  0
 29 28  2  0
  1 30  1  0
  1 31  1  0
  2 32  1  0
  3 33  1  0
  9 34  1  0
 10 35  1  0
 13 36  1  0
 16 37  1  0
 17 38  1  0
 18 39  1  0
 18 40  1  0
 19 41  1  6
 20 42  1  0
 20 43  1  0
 21 44  1  6
 23 45  1  0
 23 46  1  0
 25 47  1  0
 26 48  1  0
 28 49  1  0
M  ISO  8  30   8  31   8  32  14  33  14  34  14  35  14  36   9  37  14
M  ISO  8  38  14  39   8  40   8  41  13  42  13  43  13  44  13  45   8
M  ISO  4  46   8  47  14  48  14  49  14
M  END
>  <minimizedAffinity>  (1) 
-6.22543716

>  <minimizedRMSD>  (1) 
1.26831663

$$$$
