
     RDKit          3D

 48 52  0  0  1  0  0  0  0  0999 V2000
   46.6410   34.5550   41.8500 C   0  0  0  0  0  0  0  0  0  0  0  0
   44.4260   36.0400   44.5050 C   0  0  0  0  0  0  0  0  0  0  0  0
   45.0460   35.8570   43.2540 C   0  0  0  0  0  0  0  0  0  0  0  0
   45.9280   34.8180   43.1290 C   0  0  0  0  0  0  0  0  0  0  0  0
   46.1480   34.0450   44.1910 N   0  0  0  0  0  0  0  0  0  0  0  0
   45.5510   34.2270   45.3810 C   0  0  0  0  0  0  0  0  0  0  0  0
   44.6870   35.2230   45.5530 N   0  0  0  0  0  0  0  0  0  0  0  0
   45.8830   33.3100   46.4650 C   0  0  0  0  0  0  0  0  0  0  0  0
   45.0220   33.1710   47.5360 C   0  0  0  0  0  0  0  0  0  0  0  0
   45.5600   32.2500   48.4240 C   0  0  0  0  0  0  0  0  0  0  0  0
   46.7130   31.8640   47.8680 N   0  0  0  0  0  0  0  0  0  0  0  0
   46.9140   32.4860   46.7070 N   0  0  0  0  0  0  0  0  0  0  0  0
   48.9070   29.1350   48.6500 N   0  0  0  0  0  0  0  0  0  0  0  0
   47.8100   29.6010   48.0580 N   0  0  0  0  0  0  0  0  0  0  0  0
   47.7180   30.9380   48.3010 C   0  0  0  0  0  0  0  0  0  0  0  0
   48.7920   31.2910   49.0620 C   0  0  0  0  0  0  0  0  0  0  0  0
   49.5100   30.1490   49.2610 C   0  0  0  0  0  0  0  0  0  0  0  0
   47.9110   35.3830   41.8760 C   0  0  0  0  0  0  0  0  0  0  0  0
   49.1160   34.6610   41.4890 C   0  0  1  0  0  0  0  0  0  0  0  0
   50.2450   34.5570   42.4890 C   0  0  0  0  0  0  0  0  0  0  0  0
   49.5400   33.3480   42.0410 C   0  0  1  0  0  0  0  0  0  0  0  0
   48.9110   32.6370   43.0170 O   0  0  0  0  0  0  0  0  0  0  0  0
   48.5730   31.3590   42.6430 C   0  0  0  0  0  0  0  0  0  0  0  0
   49.2430   30.3970   43.5230 N   0  0  0  0  0  0  0  0  0  0  0  0
   50.5270   30.0840   43.3690 N   0  0  0  0  0  0  0  0  0  0  0  0
   50.9420   29.2100   44.2980 C   0  0  0  0  0  0  0  0  0  0  0  0
   49.8560   28.9460   45.1020 C   0  0  0  0  0  0  0  0  0  0  0  0
   48.8370   29.7030   44.5790 C   0  0  0  0  0  0  0  0  0  0  0  0
   46.0123   34.8532   40.9981 H   0  0  0  0  0  0  0  0  0  0  0  0
   46.8706   33.4849   41.7398 H   0  0  0  0  0  0  0  0  0  0  0  0
   43.7121   36.8669   44.6341 H   0  0  0  0  0  0  0  0  0  0  0  0
   44.8292   36.5252   42.4075 H   0  0  0  0  0  0  0  0  0  0  0  0
   44.0675   33.7025   47.6640 H   0  0  0  0  0  0  0  0  0  0  0  0
   45.1308   31.9111   49.3784 H   0  0  0  0  0  0  0  0  0  0  0  0
   49.2322   28.1578   48.6368 H   0  0  0  0  0  0  0  0  0  0  0  0
   49.0317   32.2958   49.4400 H   0  0  0  0  0  0  0  0  0  0  0  0
   50.4438   30.0782   49.8380 H   0  0  0  0  0  0  0  0  0  0  0  0
   47.7823   36.2298   41.1858 H   0  0  0  0  0  0  0  0  0  0  0  0
   48.0574   35.6949   42.9206 H   0  0  0  0  0  0  0  0  0  0  0  0
   48.9539   35.0221   40.4627 H   0  0  0  0  0  0  0  0  0  0  0  0
   51.2817   34.7399   42.1700 H   0  0  0  0  0  0  0  0  0  0  0  0
   50.4657   35.0136   43.4651 H   0  0  0  0  0  0  0  0  0  0  0  0
   49.7537   32.4022   41.5216 H   0  0  0  0  0  0  0  0  0  0  0  0
   47.4834   31.2303   42.7218 H   0  0  0  0  0  0  0  0  0  0  0  0
   48.8894   31.1862   41.6038 H   0  0  0  0  0  0  0  0  0  0  0  0
   51.9524   28.7869   44.3979 H   0  0  0  0  0  0  0  0  0  0  0  0
   49.8139   28.2753   45.9729 H   0  0  0  0  0  0  0  0  0  0  0  0
   47.8145   29.7308   44.9836 H   0  0  0  0  0  0  0  0  0  0  0  0
  1 18  1  0
  1  4  1  0
  2  7  2  0
  3  2  1  0
  4  3  2  0
  4  5  1  0
  5  6  2  0
  6  7  1  0
  6  8  1  0
  8 12  2  0
  8  9  1  0
  9 10  2  0
 11 15  1  0
 11 10  1  0
 12 11  1  0
 13 17  1  0
 14 15  2  0
 14 13  1  0
 15 16  1  0
 16 17  2  0
 19 18  1  0
 19 21  1  0
 19 20  1  0
 21 20  1  0
 21 22  1  0
 23 22  1  0
 23 24  1  0
 24 28  1  0
 25 24  1  0
 25 26  2  0
 26 27  1  0
 28 27  2  0
  1 29  1  0
  1 30  1  0
  2 31  1  0
  3 32  1  0
  9 33  1  0
 10 34  1  0
 13 35  1  0
 16 36  1  0
 17 37  1  0
 18 38  1  0
 18 39  1  0
 19 40  1  6
 20 41  1  0
 20 42  1  0
 21 43  1  6
 23 44  1  0
 23 45  1  0
 26 46  1  0
 27 47  1  0
 28 48  1  0
M  ISO  8  29   8  30   8  31  14  32  14  33  14  34  14  35   9  36  14
M  ISO  8  37  14  38   8  39   8  40  13  41  13  42  13  43  13  44   8
M  ISO  4  45   8  46  14  47  14  48  14
M  END
>  <minimizedAffinity>  (1) 
-6.16587591

>  <minimizedRMSD>  (1) 
1.12769449

$$$$
