
     RDKit          3D

 50 54  0  0  1  0  0  0  0  0999 V2000
   46.5980   34.4650   41.9910 C   0  0  0  0  0  0  0  0  0  0  0  0
   44.4200   35.9110   44.6950 C   0  0  0  0  0  0  0  0  0  0  0  0
   45.0160   35.7420   43.4320 C   0  0  0  0  0  0  0  0  0  0  0  0
   45.9030   34.7110   43.2850 C   0  0  0  0  0  0  0  0  0  0  0  0
   46.1490   33.9290   44.3370 N   0  0  0  0  0  0  0  0  0  0  0  0
   45.5740   34.1000   45.5400 C   0  0  0  0  0  0  0  0  0  0  0  0
   44.7060   35.0920   45.7280 N   0  0  0  0  0  0  0  0  0  0  0  0
   45.9350   33.1770   46.6090 C   0  0  0  0  0  0  0  0  0  0  0  0
   45.0590   32.9690   47.6560 C   0  0  0  0  0  0  0  0  0  0  0  0
   45.6250   32.0620   48.5360 C   0  0  0  0  0  0  0  0  0  0  0  0
   46.8110   31.7530   48.0010 N   0  0  0  0  0  0  0  0  0  0  0  0
   47.0040   32.4100   46.8570 N   0  0  0  0  0  0  0  0  0  0  0  0
   49.1420   29.1290   48.7680 N   0  0  0  0  0  0  0  0  0  0  0  0
   48.0270   29.5500   48.1630 N   0  0  0  0  0  0  0  0  0  0  0  0
   47.8620   30.8740   48.4370 C   0  0  0  0  0  0  0  0  0  0  0  0
   48.9010   31.2680   49.2270 C   0  0  0  0  0  0  0  0  0  0  0  0
   49.6720   30.1600   49.4110 C   0  0  0  0  0  0  0  0  0  0  0  0
   47.8020   35.3820   41.9550 C   0  0  0  0  0  0  0  0  0  0  0  0
   49.0330   34.7520   41.4960 C   0  0  1  0  0  0  0  0  0  0  0  0
   50.1720   34.5970   42.4790 C   0  0  0  0  0  0  0  0  0  0  0  0
   49.5140   33.4100   41.9130 C   0  0  1  0  0  0  0  0  0  0  0  0
   48.9190   32.5820   42.8140 O   0  0  0  0  0  0  0  0  0  0  0  0
   48.8490   31.2710   42.4010 C   0  0  0  0  0  0  0  0  0  0  0  0
   49.7700   30.4610   43.2780 C   0  0  0  0  0  0  0  0  0  0  0  0
   51.1310   30.3520   43.1200 C   0  0  0  0  0  0  0  0  0  0  0  0
   51.8590   29.5500   43.9730 C   0  0  0  0  0  0  0  0  0  0  0  0
   51.2740   28.8370   44.9990 C   0  0  0  0  0  0  0  0  0  0  0  0
   49.9070   28.9690   45.1290 C   0  0  0  0  0  0  0  0  0  0  0  0
   49.2190   29.7580   44.2830 N   0  0  0  0  0  0  0  0  0  0  0  0
   46.9205   33.4152   41.9288 H   0  0  0  0  0  0  0  0  0  0  0  0
   45.9280   34.6627   41.1413 H   0  0  0  0  0  0  0  0  0  0  0  0
   43.7028   36.7316   44.8440 H   0  0  0  0  0  0  0  0  0  0  0  0
   44.7777   36.4137   42.5941 H   0  0  0  0  0  0  0  0  0  0  0  0
   44.0742   33.4452   47.7718 H   0  0  0  0  0  0  0  0  0  0  0  0
   45.1928   31.6788   49.4721 H   0  0  0  0  0  0  0  0  0  0  0  0
   49.5224   28.1722   48.7396 H   0  0  0  0  0  0  0  0  0  0  0  0
   49.0801   32.2746   49.6328 H   0  0  0  0  0  0  0  0  0  0  0  0
   50.5972   30.1259   50.0051 H   0  0  0  0  0  0  0  0  0  0  0  0
   47.5741   36.2206   41.2806 H   0  0  0  0  0  0  0  0  0  0  0  0
   47.9829   35.6985   42.9928 H   0  0  0  0  0  0  0  0  0  0  0  0
   48.8495   35.2056   40.5108 H   0  0  0  0  0  0  0  0  0  0  0  0
   51.1983   34.8540   42.1779 H   0  0  0  0  0  0  0  0  0  0  0  0
   50.3798   34.9629   43.4953 H   0  0  0  0  0  0  0  0  0  0  0  0
   49.7643   32.5305   41.3015 H   0  0  0  0  0  0  0  0  0  0  0  0
   47.8175   30.9021   42.5004 H   0  0  0  0  0  0  0  0  0  0  0  0
   49.1486   31.1842   41.3461 H   0  0  0  0  0  0  0  0  0  0  0  0
   51.6383   30.9035   42.3147 H   0  0  0  0  0  0  0  0  0  0  0  0
   52.9472   29.4758   43.8301 H   0  0  0  0  0  0  0  0  0  0  0  0
   51.8637   28.1999   45.6746 H   0  0  0  0  0  0  0  0  0  0  0  0
   49.3774   28.4276   45.9268 H   0  0  0  0  0  0  0  0  0  0  0  0
  1  4  1  0
  2  7  2  0
  3  2  1  0
  4  3  2  0
  4  5  1  0
  5  6  2  0
  6  7  1  0
  6  8  1  0
  8 12  2  0
  8  9  1  0
  9 10  2  0
 11 15  1  0
 11 10  1  0
 12 11  1  0
 13 17  1  0
 14 15  2  0
 14 13  1  0
 15 16  1  0
 16 17  2  0
 18  1  1  0
 19 21  1  0
 19 18  1  0
 19 20  1  0
 21 20  1  0
 21 22  1  0
 23 22  1  0
 23 24  1  0
 24 29  1  0
 25 24  2  0
 25 26  1  0
 26 27  2  0
 27 28  1  0
 29 28  2  0
  1 30  1  0
  1 31  1  0
  2 32  1  0
  3 33  1  0
  9 34  1  0
 10 35  1  0
 13 36  1  0
 16 37  1  0
 17 38  1  0
 18 39  1  0
 18 40  1  0
 19 41  1  6
 20 42  1  0
 20 43  1  0
 21 44  1  6
 23 45  1  0
 23 46  1  0
 25 47  1  0
 26 48  1  0
 27 49  1  0
 28 50  1  0
M  ISO  8  30   8  31   8  32  14  33  14  34  14  35  14  36   9  37  14
M  ISO  8  38  14  39   8  40   8  41  13  42  13  43  13  44  13  45   8
M  ISO  5  46   8  47  14  48  14  49  14  50  14
M  END
>  <minimizedAffinity>  (1) 
-6.31861734

>  <minimizedRMSD>  (1) 
1.28959715

$$$$
