
     RDKit          3D

 51 55  0  0  1  0  0  0  0  0999 V2000
   46.6030   34.4760   41.9870 C   0  0  0  0  0  0  0  0  0  0  0  0
   44.4210   35.9140   44.6930 C   0  0  0  0  0  0  0  0  0  0  0  0
   45.0190   35.7470   43.4360 C   0  0  0  0  0  0  0  0  0  0  0  0
   45.9070   34.7190   43.2800 C   0  0  0  0  0  0  0  0  0  0  0  0
   46.1520   33.9360   44.3280 N   0  0  0  0  0  0  0  0  0  0  0  0
   45.5740   34.1030   45.5330 C   0  0  0  0  0  0  0  0  0  0  0  0
   44.7080   35.0900   45.7200 N   0  0  0  0  0  0  0  0  0  0  0  0
   45.9330   33.1730   46.6000 C   0  0  0  0  0  0  0  0  0  0  0  0
   45.0600   32.9810   47.6550 C   0  0  0  0  0  0  0  0  0  0  0  0
   45.6230   32.0650   48.5340 C   0  0  0  0  0  0  0  0  0  0  0  0
   46.8040   31.7380   47.9840 N   0  0  0  0  0  0  0  0  0  0  0  0
   46.9920   32.3910   46.8390 N   0  0  0  0  0  0  0  0  0  0  0  0
   49.0980   29.0870   48.7400 N   0  0  0  0  0  0  0  0  0  0  0  0
   47.9890   29.5220   48.1410 N   0  0  0  0  0  0  0  0  0  0  0  0
   47.8410   30.8480   48.4130 C   0  0  0  0  0  0  0  0  0  0  0  0
   48.8860   31.2270   49.1970 C   0  0  0  0  0  0  0  0  0  0  0  0
   49.6470   30.1090   49.3810 C   0  0  0  0  0  0  0  0  0  0  0  0
   47.8260   35.3640   41.9680 C   0  0  0  0  0  0  0  0  0  0  0  0
   49.0450   34.7150   41.5050 C   0  0  1  0  0  0  0  0  0  0  0  0
   50.1880   34.5470   42.4830 C   0  0  0  0  0  0  0  0  0  0  0  0
   49.5070   33.3680   41.9290 C   0  0  1  0  0  0  0  0  0  0  0  0
   48.9070   32.5530   42.8380 O   0  0  0  0  0  0  0  0  0  0  0  0
   48.8270   31.2420   42.4440 C   0  0  0  0  0  0  0  0  0  0  0  0
   49.7840   30.4230   43.2710 C   0  0  0  0  0  0  0  0  0  0  0  0
   51.1460   30.3410   43.1260 C   0  0  0  0  0  0  0  0  0  0  0  0
   51.9030   29.5790   43.9590 C   0  0  0  0  0  0  0  0  0  0  0  0
   51.2720   28.8810   44.9650 C   0  0  0  0  0  0  0  0  0  0  0  0
   49.8960   28.9160   45.1720 C   0  0  0  0  0  0  0  0  0  0  0  0
   49.1500   29.7110   44.2950 C   0  0  0  0  0  0  0  0  0  0  0  0
   46.9020   33.4201   41.9118 H   0  0  0  0  0  0  0  0  0  0  0  0
   45.9416   34.7016   41.1375 H   0  0  0  0  0  0  0  0  0  0  0  0
   43.7033   36.7339   44.8439 H   0  0  0  0  0  0  0  0  0  0  0  0
   44.7811   36.4223   42.6009 H   0  0  0  0  0  0  0  0  0  0  0  0
   44.0831   33.4716   47.7775 H   0  0  0  0  0  0  0  0  0  0  0  0
   45.1952   31.6893   49.4752 H   0  0  0  0  0  0  0  0  0  0  0  0
   49.4641   28.1247   48.7098 H   0  0  0  0  0  0  0  0  0  0  0  0
   49.0788   32.2317   49.6011 H   0  0  0  0  0  0  0  0  0  0  0  0
   50.5742   30.0632   49.9711 H   0  0  0  0  0  0  0  0  0  0  0  0
   47.6193   36.2169   41.3048 H   0  0  0  0  0  0  0  0  0  0  0  0
   48.0099   35.6600   43.0113 H   0  0  0  0  0  0  0  0  0  0  0  0
   48.8641   35.1667   40.5185 H   0  0  0  0  0  0  0  0  0  0  0  0
   51.2166   34.7847   42.1741 H   0  0  0  0  0  0  0  0  0  0  0  0
   50.4080   34.9159   43.4957 H   0  0  0  0  0  0  0  0  0  0  0  0
   49.7379   32.4806   41.3214 H   0  0  0  0  0  0  0  0  0  0  0  0
   47.8014   30.8736   42.5937 H   0  0  0  0  0  0  0  0  0  0  0  0
   49.0887   31.1569   41.3790 H   0  0  0  0  0  0  0  0  0  0  0  0
   51.6359   30.9042   42.3180 H   0  0  0  0  0  0  0  0  0  0  0  0
   52.9942   29.5211   43.8327 H   0  0  0  0  0  0  0  0  0  0  0  0
   51.8862   28.2652   45.6384 H   0  0  0  0  0  0  0  0  0  0  0  0
   49.4192   28.3474   45.9840 H   0  0  0  0  0  0  0  0  0  0  0  0
   48.0581   29.7766   44.4113 H   0  0  0  0  0  0  0  0  0  0  0  0
  1  4  1  0
  2  7  2  0
  3  2  1  0
  4  3  2  0
  4  5  1  0
  5  6  2  0
  6  7  1  0
  6  8  1  0
  8 12  2  0
  8  9  1  0
  9 10  2  0
 11 15  1  0
 11 10  1  0
 12 11  1  0
 13 17  1  0
 14 15  2  0
 14 13  1  0
 15 16  1  0
 16 17  2  0
 18  1  1  0
 19 21  1  0
 19 18  1  0
 19 20  1  0
 21 20  1  0
 21 22  1  0
 23 22  1  0
 23 24  1  0
 24 29  1  0
 25 24  2  0
 25 26  1  0
 26 27  2  0
 27 28  1  0
 29 28  2  0
  1 30  1  0
  1 31  1  0
  2 32  1  0
  3 33  1  0
  9 34  1  0
 10 35  1  0
 13 36  1  0
 16 37  1  0
 17 38  1  0
 18 39  1  0
 18 40  1  0
 19 41  1  6
 20 42  1  0
 20 43  1  0
 21 44  1  6
 23 45  1  0
 23 46  1  0
 25 47  1  0
 26 48  1  0
 27 49  1  0
 28 50  1  0
 29 51  1  0
M  ISO  8  30   8  31   8  32  14  33  14  34  14  35  14  36   9  37  14
M  ISO  8  38  14  39   8  40   8  41  13  42  13  43  13  44  13  45   8
M  ISO  6  46   8  47  14  48  14  49  14  50  14  51  14
M  END
>  <minimizedAffinity>  (1) 
-6.38367081

>  <minimizedRMSD>  (1) 
1.33390069

$$$$
