
     RDKit          3D

 34 35  0  0  1  0  0  0  0  0999 V2000
   44.5850   35.7030   44.8130 C   0  0  0  0  0  0  0  0  0  0  0  0
   45.2960   35.7260   43.5740 C   0  0  0  0  0  0  0  0  0  0  0  0
   46.2320   34.7140   43.3310 C   0  0  0  0  0  0  0  0  0  0  0  0
   46.3930   33.7780   44.3070 N   0  0  0  0  0  0  0  0  0  0  0  0
   45.7130   33.7810   45.4580 C   0  0  0  0  0  0  0  0  0  0  0  0
   44.8100   34.7290   45.7260 N   0  0  0  0  0  0  0  0  0  0  0  0
   45.9460   32.7430   46.4200 N   0  0  0  0  0  0  0  0  0  0  0  0
   45.2340   32.7720   47.7040 C   0  0  0  0  0  0  0  0  0  0  0  0
   46.0130   32.1690   48.8360 C   0  0  0  0  0  0  0  0  0  0  0  0
   47.4660   32.2070   48.4680 C   0  0  0  0  0  0  0  0  0  0  0  0
   47.6550   31.2230   47.3470 C   0  0  0  0  0  0  0  0  0  0  0  0
   46.8590   31.6800   46.1420 C   0  0  1  0  0  0  0  0  0  0  0  0
   46.2090   30.4840   45.4790 C   0  0  0  0  0  0  0  0  0  0  0  0
   45.4180   30.8330   44.2420 C   0  0  0  0  0  0  0  0  0  0  0  0
   45.2630   29.7340   46.3850 C   0  0  0  0  0  0  0  0  0  0  0  0
   43.8445   36.4875   45.0281 H   0  0  0  0  0  0  0  0  0  0  0  0
   45.1130   36.5169   42.8317 H   0  0  0  0  0  0  0  0  0  0  0  0
   46.8102   34.6765   42.3959 H   0  0  0  0  0  0  0  0  0  0  0  0
   45.0109   33.8196   47.9545 H   0  0  0  0  0  0  0  0  0  0  0  0
   44.3227   32.1682   47.5815 H   0  0  0  0  0  0  0  0  0  0  0  0
   45.8452   32.7488   49.7556 H   0  0  0  0  0  0  0  0  0  0  0  0
   45.6900   31.1326   49.0139 H   0  0  0  0  0  0  0  0  0  0  0  0
   47.7465   33.2176   48.1364 H   0  0  0  0  0  0  0  0  0  0  0  0
   48.0988   31.9500   49.3302 H   0  0  0  0  0  0  0  0  0  0  0  0
   48.7214   31.1664   47.0833 H   0  0  0  0  0  0  0  0  0  0  0  0
   47.3055   30.2297   47.6650 H   0  0  0  0  0  0  0  0  0  0  0  0
   47.5626   32.1304   45.4263 H   0  0  0  0  0  0  0  0  0  0  0  0
   47.0734   29.8560   45.2173 H   0  0  0  0  0  0  0  0  0  0  0  0
   44.4481   31.2609   44.5356 H   0  0  0  0  0  0  0  0  0  0  0  0
   45.9772   31.5679   43.6444 H   0  0  0  0  0  0  0  0  0  0  0  0
   45.2521   29.9245   43.6444 H   0  0  0  0  0  0  0  0  0  0  0  0
   45.5210   29.9385   47.4346 H   0  0  0  0  0  0  0  0  0  0  0  0
   44.2313   30.0622   46.1903 H   0  0  0  0  0  0  0  0  0  0  0  0
   45.3473   28.6546   46.1903 H   0  0  0  0  0  0  0  0  0  0  0  0
  1  6  2  0
  2  1  1  0
  3  2  2  0
  3  4  1  0
  4  5  2  0
  5  6  1  0
  5  7  1  0
  7  8  1  0
  8  9  1  0
 10  9  1  0
 11 10  1  0
 12  7  1  0
 12 11  1  0
 13 12  1  0
 13 15  1  0
 14 13  1  0
  1 16  1  0
  2 17  1  0
  3 18  1  0
  8 19  1  0
  8 20  1  0
  9 21  1  0
  9 22  1  0
 10 23  1  0
 10 24  1  0
 11 25  1  0
 11 26  1  0
 12 27  1  6
 13 28  1  0
 14 29  1  0
 14 30  1  0
 14 31  1  0
 15 32  1  0
 15 33  1  0
 15 34  1  0
M  ISO  8  16  14  17  14  18  14  19  13  20  13  21  13  22  13  23  13
M  ISO  8  24  13  25  13  26  13  27  13  28   8  29   8  30   8  31   8
M  ISO  3  32   8  33   8  34   8
M  END
>  <minimizedAffinity>  (1) 
-4.83990097

>  <minimizedRMSD>  (1) 
0.279152989

$$$$
