
     RDKit          3D

 26 27  0  0  1  0  0  0  0  0999 V2000
   44.5310   35.9690   44.8380 C   0  0  0  0  0  0  0  0  0  0  0  0
   45.1030   35.9530   43.5370 C   0  0  0  0  0  0  0  0  0  0  0  0
   45.9050   34.8740   43.2050 C   0  0  0  0  0  0  0  0  0  0  0  0
   46.1030   33.8970   44.1280 N   0  0  0  0  0  0  0  0  0  0  0  0
   45.5530   33.9370   45.3470 C   0  0  0  0  0  0  0  0  0  0  0  0
   44.7730   34.9630   45.7020 N   0  0  0  0  0  0  0  0  0  0  0  0
   45.7870   32.8800   46.2980 N   0  0  0  0  0  0  0  0  0  0  0  0
   45.1650   32.9320   47.6230 C   0  0  0  0  0  0  0  0  0  0  0  0
   45.9890   32.2680   48.6780 C   0  0  0  0  0  0  0  0  0  0  0  0
   47.4170   32.2220   48.2120 C   0  0  0  0  0  0  0  0  0  0  0  0
   47.4690   31.2520   47.0460 C   0  0  0  0  0  0  0  0  0  0  0  0
   46.6450   31.7710   45.9240 C   0  0  2  0  0  0  0  0  0  0  0  0
   47.3900   32.1300   44.8000 O   0  0  0  0  0  0  0  0  0  0  0  0
   43.8869   36.8074   45.1417 H   0  0  0  0  0  0  0  0  0  0  0  0
   44.9157   36.7668   42.8210 H   0  0  0  0  0  0  0  0  0  0  0  0
   46.3733   34.8091   42.2118 H   0  0  0  0  0  0  0  0  0  0  0  0
   45.0206   33.9862   47.9020 H   0  0  0  0  0  0  0  0  0  0  0  0
   44.2094   32.3908   47.5608 H   0  0  0  0  0  0  0  0  0  0  0  0
   45.9231   32.8406   49.6149 H   0  0  0  0  0  0  0  0  0  0  0  0
   45.6190   31.2478   48.8575 H   0  0  0  0  0  0  0  0  0  0  0  0
   47.7413   33.2217   47.8872 H   0  0  0  0  0  0  0  0  0  0  0  0
   48.0858   31.8987   49.0233 H   0  0  0  0  0  0  0  0  0  0  0  0
   48.5108   31.1378   46.7119 H   0  0  0  0  0  0  0  0  0  0  0  0
   47.0741   30.2766   47.3664 H   0  0  0  0  0  0  0  0  0  0  0  0
   46.0100   30.9127   45.6591 H   0  0  0  0  0  0  0  0  0  0  0  0
   48.2435   32.5413   45.0873 H   0  0  0  0  0  0  0  0  0  0  0  0
  1  6  2  0
  2  1  1  0
  3  2  2  0
  3  4  1  0
  4  5  2  0
  5  6  1  0
  5  7  1  0
  7  8  1  0
  8  9  1  0
 10  9  1  0
 11 10  1  0
 12  7  1  0
 12 11  1  0
 13 12  1  0
  1 14  1  0
  2 15  1  0
  3 16  1  0
  8 17  1  0
  8 18  1  0
  9 19  1  0
  9 20  1  0
 10 21  1  0
 10 22  1  0
 11 23  1  0
 11 24  1  0
 12 25  1  6
 13 26  1  0
M  ISO  8  14  14  15  14  16  14  17  13  18  13  19  13  20  13  21  13
M  ISO  5  22  13  23  13  24  13  25  13  26   3
M  END
>  <minimizedAffinity>  (1) 
-4.82415342

>  <minimizedRMSD>  (1) 
0.0557895191

$$$$
