
     RDKit          3D

 24 26  0  0  0  0  0  0  0  0999 V2000
   45.5090   33.9390   42.1430 N   0  0  0  0  0  0  0  0  0  0  0  0
   44.8780   33.2230   41.1990 C   0  0  0  0  0  0  0  0  0  0  0  0
   45.5940   33.2260   40.0520 N   0  0  0  0  0  0  0  0  0  0  0  0
   46.7060   33.9560   40.2570 C   0  0  0  0  0  0  0  0  0  0  0  0
   47.7680   34.2710   39.4110 C   0  0  0  0  0  0  0  0  0  0  0  0
   47.8220   33.8710   38.2300 O   0  0  0  0  0  0  0  0  0  0  0  0
   48.7830   35.0310   39.8540 N   0  0  0  0  0  0  0  0  0  0  0  0
   48.7110   35.4530   41.1240 C   0  0  0  0  0  0  0  0  0  0  0  0
   49.7220   36.2620   41.7110 N   0  0  0  0  0  0  0  0  0  0  0  0
   47.6980   35.1550   41.9420 N   0  0  0  0  0  0  0  0  0  0  0  0
   46.6470   34.3980   41.5620 C   0  0  0  0  0  0  0  0  0  0  0  0
   44.3330   35.8620   45.0540 C   0  0  0  0  0  0  0  0  0  0  0  0
   44.6020   35.4970   43.7150 C   0  0  0  0  0  0  0  0  0  0  0  0
   45.2510   34.2800   43.4910 C   0  0  0  0  0  0  0  0  0  0  0  0
   45.5870   33.5150   44.5700 N   0  0  0  0  0  0  0  0  0  0  0  0
   45.3120   33.9000   45.8280 C   0  0  0  0  0  0  0  0  0  0  0  0
   44.6910   35.0600   46.0790 N   0  0  0  0  0  0  0  0  0  0  0  0
   43.9163   32.7077   41.3386 H   0  0  0  0  0  0  0  0  0  0  0  0
   49.5780   35.2775   39.2472 H   0  0  0  0  0  0  0  0  0  0  0  0
   49.6328   36.5677   42.6905 H   0  0  0  0  0  0  0  0  0  0  0  0
   50.5436   36.5424   41.1567 H   0  0  0  0  0  0  0  0  0  0  0  0
   43.8241   36.8143   45.2638 H   0  0  0  0  0  0  0  0  0  0  0  0
   44.3104   36.1487   42.8782 H   0  0  0  0  0  0  0  0  0  0  0  0
   45.6023   33.2505   46.6670 H   0  0  0  0  0  0  0  0  0  0  0  0
  1 14  1  0
  2  1  1  0
  3  4  1  0
  3  2  2  0
  4 11  2  0
  5  7  1  0
  5  4  1  0
  6  5  2  0
  7  8  1  0
  8  9  1  0
  8 10  2  0
 11 10  1  0
 11  1  1  0
 12 17  2  0
 13 12  1  0
 14 13  2  0
 14 15  1  0
 15 16  2  0
 16 17  1  0
  2 18  1  0
  7 19  1  0
  9 20  1  0
  9 21  1  0
 12 22  1  0
 13 23  1  0
 16 24  1  0
M  ISO  5  18  14  19   9  22  14  23  14  24  14
M  END
>  <minimizedAffinity>  (1) 
-5.20511866

>  <minimizedRMSD>  (1) 
1.66020513

$$$$
