
     RDKit          3D

 38 42  0  0  0  0  0  0  0  0999 V2000
   44.5400   35.4220   45.2670 C   0  0  0  0  0  0  0  0  0  0  0  0
   44.7600   35.2010   43.8900 C   0  0  0  0  0  0  0  0  0  0  0  0
   45.3830   34.0210   43.5320 C   0  0  0  0  0  0  0  0  0  0  0  0
   45.7040   33.2260   44.5450 N   0  0  0  0  0  0  0  0  0  0  0  0
   45.5270   33.3780   45.8350 C   0  0  0  0  0  0  0  0  0  0  0  0
   44.9210   34.5230   46.1970 N   0  0  0  0  0  0  0  0  0  0  0  0
   45.6070   33.7860   42.1670 N   0  0  0  0  0  0  0  0  0  0  0  0
   44.9470   33.1360   41.1810 C   0  0  0  0  0  0  0  0  0  0  0  0
   45.6250   33.2460   40.0200 N   0  0  0  0  0  0  0  0  0  0  0  0
   46.7330   33.9680   40.2450 C   0  0  0  0  0  0  0  0  0  0  0  0
   47.7600   34.3690   39.3950 C   0  0  0  0  0  0  0  0  0  0  0  0
   47.7770   34.0750   38.1920 O   0  0  0  0  0  0  0  0  0  0  0  0
   48.7860   35.1040   39.8700 N   0  0  0  0  0  0  0  0  0  0  0  0
   48.7590   35.4230   41.1790 C   0  0  0  0  0  0  0  0  0  0  0  0
   49.7770   36.1880   41.7890 N   0  0  0  0  0  0  0  0  0  0  0  0
   47.7710   35.0370   41.9910 N   0  0  0  0  0  0  0  0  0  0  0  0
   46.7230   34.3060   41.5870 C   0  0  0  0  0  0  0  0  0  0  0  0
   45.8660   32.5290   46.9610 C   0  0  0  0  0  0  0  0  0  0  0  0
   45.3790   32.7250   48.1810 N   0  0  0  0  0  0  0  0  0  0  0  0
   45.6550   31.9780   49.2540 C   0  0  0  0  0  0  0  0  0  0  0  0
   46.4950   30.9110   49.1640 N   0  0  0  0  0  0  0  0  0  0  0  0
   47.0520   30.6190   47.9560 C   0  0  0  0  0  0  0  0  0  0  0  0
   47.9040   29.5440   47.8450 C   0  0  0  0  0  0  0  0  0  0  0  0
   48.4750   29.2320   46.6390 C   0  0  0  0  0  0  0  0  0  0  0  0
   48.1620   30.0330   45.5550 C   0  0  0  0  0  0  0  0  0  0  0  0
   47.3060   31.0910   45.7250 C   0  0  0  0  0  0  0  0  0  0  0  0
   46.7090   31.4430   46.9110 C   0  0  0  0  0  0  0  0  0  0  0  0
   44.0456   36.3504   45.5891 H   0  0  0  0  0  0  0  0  0  0  0  0
   44.4486   35.9371   43.1343 H   0  0  0  0  0  0  0  0  0  0  0  0
   43.9966   32.5967   41.3075 H   0  0  0  0  0  0  0  0  0  0  0  0
   49.5570   35.4084   39.2587 H   0  0  0  0  0  0  0  0  0  0  0  0
   49.7216   36.4119   42.7928 H   0  0  0  0  0  0  0  0  0  0  0  0
   50.5751   36.5222   41.2301 H   0  0  0  0  0  0  0  0  0  0  0  0
   45.1974   32.2287   50.2224 H   0  0  0  0  0  0  0  0  0  0  0  0
   48.1282   28.9310   48.7304 H   0  0  0  0  0  0  0  0  0  0  0  0
   49.1576   28.3756   46.5364 H   0  0  0  0  0  0  0  0  0  0  0  0
   48.5957   29.8232   44.5661 H   0  0  0  0  0  0  0  0  0  0  0  0
   47.0796   31.7063   44.8418 H   0  0  0  0  0  0  0  0  0  0  0  0
  1  6  2  0
  2  1  1  0
  3  2  2  0
  3  4  1  0
  4  5  2  0
  5  6  1  0
  5 18  1  0
  7  3  1  0
  8  7  1  0
  9 10  1  0
  9  8  2  0
 10 17  2  0
 11 13  1  0
 11 10  1  0
 12 11  2  0
 13 14  1  0
 14 15  1  0
 14 16  2  0
 17 16  1  0
 17  7  1  0
 18 19  2  0
 19 20  1  0
 21 20  2  0
 22 21  1  0
 23 22  2  0
 24 23  1  0
 25 26  1  0
 25 24  2  0
 26 27  2  0
 27 18  1  0
 27 22  1  0
  1 28  1  0
  2 29  1  0
  8 30  1  0
 13 31  1  0
 15 32  1  0
 15 33  1  0
 20 34  1  0
 23 35  1  0
 24 36  1  0
 25 37  1  0
 26 38  1  0
M  ISO  8  28  14  29  14  30  14  31   9  34  14  35  14  36  14  37  14
M  ISO  1  38  14
M  END
>  <minimizedAffinity>  (1) 
-7.34565067

>  <minimizedRMSD>  (1) 
0.558865905

$$$$
