
     RDKit          3D

 40 44  0  0  0  0  0  0  0  0999 V2000
   44.3750   35.8420   45.1080 C   0  0  0  0  0  0  0  0  0  0  0  0
   44.6260   35.5160   43.7490 C   0  0  0  0  0  0  0  0  0  0  0  0
   45.2360   34.2960   43.5220 C   0  0  0  0  0  0  0  0  0  0  0  0
   45.5260   33.5570   44.6070 N   0  0  0  0  0  0  0  0  0  0  0  0
   45.2940   33.8570   45.8730 C   0  0  0  0  0  0  0  0  0  0  0  0
   44.7110   35.0180   46.1130 N   0  0  0  0  0  0  0  0  0  0  0  0
   45.4990   33.9400   42.1770 N   0  0  0  0  0  0  0  0  0  0  0  0
   44.8600   33.2150   41.2350 C   0  0  0  0  0  0  0  0  0  0  0  0
   45.5770   33.2110   40.0910 N   0  0  0  0  0  0  0  0  0  0  0  0
   46.6820   33.9340   40.2900 C   0  0  0  0  0  0  0  0  0  0  0  0
   47.7490   34.2470   39.4450 C   0  0  0  0  0  0  0  0  0  0  0  0
   47.7960   33.8400   38.2690 O   0  0  0  0  0  0  0  0  0  0  0  0
   48.7730   35.0130   39.8880 N   0  0  0  0  0  0  0  0  0  0  0  0
   48.6980   35.4390   41.1600 C   0  0  0  0  0  0  0  0  0  0  0  0
   49.7120   36.2440   41.7260 N   0  0  0  0  0  0  0  0  0  0  0  0
   47.6900   35.1490   41.9770 N   0  0  0  0  0  0  0  0  0  0  0  0
   46.6310   34.3870   41.5940 C   0  0  0  0  0  0  0  0  0  0  0  0
   45.7530   32.7980   46.7650 C   0  0  0  0  0  0  0  0  0  0  0  0
   45.3780   32.7170   48.0860 C   0  0  0  0  0  0  0  0  0  0  0  0
   45.7840   31.7420   48.9600 C   0  0  0  0  0  0  0  0  0  0  0  0
   46.6300   30.7490   48.5300 C   0  0  0  0  0  0  0  0  0  0  0  0
   47.0320   30.7810   47.2310 C   0  0  0  0  0  0  0  0  0  0  0  0
   47.8820   29.7700   46.8280 C   0  0  0  0  0  0  0  0  0  0  0  0
   48.3410   29.7240   45.5320 C   0  0  0  0  0  0  0  0  0  0  0  0
   47.9110   30.7300   44.6630 C   0  0  0  0  0  0  0  0  0  0  0  0
   47.0640   31.7120   45.1220 C   0  0  0  0  0  0  0  0  0  0  0  0
   46.5880   31.7880   46.4060 C   0  0  0  0  0  0  0  0  0  0  0  0
   43.8897   36.8004   45.3448 H   0  0  0  0  0  0  0  0  0  0  0  0
   44.3518   36.1930   42.9265 H   0  0  0  0  0  0  0  0  0  0  0  0
   43.8971   32.7029   41.3781 H   0  0  0  0  0  0  0  0  0  0  0  0
   49.5688   35.2568   39.2813 H   0  0  0  0  0  0  0  0  0  0  0  0
   49.6338   36.5593   42.7034 H   0  0  0  0  0  0  0  0  0  0  0  0
   50.5294   36.5155   41.1611 H   0  0  0  0  0  0  0  0  0  0  0  0
   44.7007   33.4938   48.4704 H   0  0  0  0  0  0  0  0  0  0  0  0
   45.4333   31.7549   50.0025 H   0  0  0  0  0  0  0  0  0  0  0  0
   46.9704   29.9559   49.2121 H   0  0  0  0  0  0  0  0  0  0  0  0
   48.1935   28.9978   47.5467 H   0  0  0  0  0  0  0  0  0  0  0  0
   49.0194   28.9271   45.1934 H   0  0  0  0  0  0  0  0  0  0  0  0
   48.2484   30.7368   43.6160 H   0  0  0  0  0  0  0  0  0  0  0  0
   46.7470   32.4891   44.4109 H   0  0  0  0  0  0  0  0  0  0  0  0
  1  6  2  0
  2  1  1  0
  3  2  2  0
  3  4  1  0
  4  5  2  0
  5  6  1  0
  5 18  1  0
  7  3  1  0
  8  7  1  0
  9 10  1  0
  9  8  2  0
 10 17  2  0
 11 13  1  0
 11 10  1  0
 12 11  2  0
 13 14  1  0
 14 15  1  0
 14 16  2  0
 17 16  1  0
 17  7  1  0
 18 19  2  0
 19 20  1  0
 21 20  2  0
 22 21  1  0
 23 22  2  0
 24 23  1  0
 25 26  1  0
 25 24  2  0
 26 27  2  0
 27 18  1  0
 27 22  1  0
  1 28  1  0
  2 29  1  0
  8 30  1  0
 13 31  1  0
 15 32  1  0
 15 33  1  0
 19 34  1  0
 20 35  1  0
 21 36  1  0
 23 37  1  0
 24 38  1  0
 25 39  1  0
 26 40  1  0
M  ISO  8  28  14  29  14  30  14  31   9  34  14  35  14  36  14  37  14
M  ISO  3  38  14  39  14  40  14
M  END
>  <minimizedAffinity>  (1) 
-7.62769365

>  <minimizedRMSD>  (1) 
0.268120229

$$$$
