
     RDKit          3D

 33 36  0  0  0  0  0  0  0  0999 V2000
   45.6080   33.7700   42.2340 N   0  0  0  0  0  0  0  0  0  0  0  0
   44.9790   33.0630   41.2890 C   0  0  0  0  0  0  0  0  0  0  0  0
   45.6520   33.1270   40.1240 N   0  0  0  0  0  0  0  0  0  0  0  0
   46.7430   33.8910   40.3160 C   0  0  0  0  0  0  0  0  0  0  0  0
   47.7750   34.2810   39.4500 C   0  0  0  0  0  0  0  0  0  0  0  0
   47.8050   33.9210   38.2580 O   0  0  0  0  0  0  0  0  0  0  0  0
   48.7670   35.0600   39.8880 N   0  0  0  0  0  0  0  0  0  0  0  0
   48.7220   35.4430   41.1780 C   0  0  0  0  0  0  0  0  0  0  0  0
   49.7160   36.2670   41.7550 N   0  0  0  0  0  0  0  0  0  0  0  0
   47.7440   35.0760   42.0090 N   0  0  0  0  0  0  0  0  0  0  0  0
   46.7180   34.2970   41.6410 C   0  0  0  0  0  0  0  0  0  0  0  0
   44.4540   35.5660   45.2270 C   0  0  0  0  0  0  0  0  0  0  0  0
   44.6970   35.2510   43.8710 C   0  0  0  0  0  0  0  0  0  0  0  0
   45.3810   34.0560   43.5900 C   0  0  0  0  0  0  0  0  0  0  0  0
   45.7630   33.2820   44.6360 N   0  0  0  0  0  0  0  0  0  0  0  0
   45.5130   33.6150   45.9230 C   0  0  0  0  0  0  0  0  0  0  0  0
   44.8610   34.7530   46.2140 N   0  0  0  0  0  0  0  0  0  0  0  0
   45.9510   32.7390   47.0090 C   0  0  0  0  0  0  0  0  0  0  0  0
   45.0710   32.4610   48.0490 C   0  0  0  0  0  0  0  0  0  0  0  0
   45.4900   31.6230   49.0870 C   0  0  0  0  0  0  0  0  0  0  0  0
   46.7720   31.1170   49.0140 C   0  0  0  0  0  0  0  0  0  0  0  0
   47.6430   31.3910   47.9880 C   0  0  0  0  0  0  0  0  0  0  0  0
   47.1950   32.2110   46.9970 N   0  0  0  0  0  0  0  0  0  0  0  0
   44.0424   32.5067   41.4418 H   0  0  0  0  0  0  0  0  0  0  0  0
   49.5333   35.3551   39.2662 H   0  0  0  0  0  0  0  0  0  0  0  0
   49.6476   36.5395   42.7460 H   0  0  0  0  0  0  0  0  0  0  0  0
   50.5083   36.5947   41.1843 H   0  0  0  0  0  0  0  0  0  0  0  0
   43.9212   36.4950   45.4782 H   0  0  0  0  0  0  0  0  0  0  0  0
   44.3622   35.9183   43.0632 H   0  0  0  0  0  0  0  0  0  0  0  0
   44.0598   32.8940   48.0551 H   0  0  0  0  0  0  0  0  0  0  0  0
   44.8247   31.3770   49.9278 H   0  0  0  0  0  0  0  0  0  0  0  0
   47.1158   30.4566   49.8237 H   0  0  0  0  0  0  0  0  0  0  0  0
   48.6577   30.9669   47.9675 H   0  0  0  0  0  0  0  0  0  0  0  0
  1 14  1  0
  2  1  1  0
  3  4  1  0
  3  2  2  0
  4 11  2  0
  5  7  1  0
  5  4  1  0
  6  5  2  0
  7  8  1  0
  8  9  1  0
  8 10  2  0
 11 10  1  0
 11  1  1  0
 12 17  2  0
 13 12  1  0
 14 13  2  0
 14 15  1  0
 15 16  2  0
 16 17  1  0
 16 18  1  0
 18 19  2  0
 19 20  1  0
 21 20  2  0
 22 21  1  0
 23 18  1  0
 23 22  2  0
  2 24  1  0
  7 25  1  0
  9 26  1  0
  9 27  1  0
 12 28  1  0
 13 29  1  0
 19 30  1  0
 20 31  1  0
 21 32  1  0
 22 33  1  0
M  ISO  8  24  14  25   9  28  14  29  14  30  14  31  14  32  14  33  14
M  END
>  <minimizedAffinity>  (1) 
-6.99696732

>  <minimizedRMSD>  (1) 
0.674039125

$$$$
