
     RDKit          3D

 31 34  0  0  0  0  0  0  0  0999 V2000
   45.5710   33.8360   42.2130 N   0  0  0  0  0  0  0  0  0  0  0  0
   44.9370   33.1090   41.2680 C   0  0  0  0  0  0  0  0  0  0  0  0
   45.6390   33.1480   40.1050 N   0  0  0  0  0  0  0  0  0  0  0  0
   46.7340   33.9040   40.2980 C   0  0  0  0  0  0  0  0  0  0  0  0
   47.7760   34.2660   39.4490 C   0  0  0  0  0  0  0  0  0  0  0  0
   47.8090   33.8730   38.2590 O   0  0  0  0  0  0  0  0  0  0  0  0
   48.7770   35.0460   39.8840 N   0  0  0  0  0  0  0  0  0  0  0  0
   48.7070   35.4450   41.1580 C   0  0  0  0  0  0  0  0  0  0  0  0
   49.7050   36.2750   41.7480 N   0  0  0  0  0  0  0  0  0  0  0  0
   47.7190   35.1110   41.9890 N   0  0  0  0  0  0  0  0  0  0  0  0
   46.6790   34.3270   41.6140 C   0  0  0  0  0  0  0  0  0  0  0  0
   44.4120   35.7160   45.1470 C   0  0  0  0  0  0  0  0  0  0  0  0
   44.6800   35.3580   43.8140 C   0  0  0  0  0  0  0  0  0  0  0  0
   45.3250   34.1500   43.5610 C   0  0  0  0  0  0  0  0  0  0  0  0
   45.6640   33.3740   44.6190 N   0  0  0  0  0  0  0  0  0  0  0  0
   45.3960   33.7360   45.8950 C   0  0  0  0  0  0  0  0  0  0  0  0
   44.7780   34.8930   46.1650 N   0  0  0  0  0  0  0  0  0  0  0  0
   45.8320   32.7810   46.9000 C   0  0  0  0  0  0  0  0  0  0  0  0
   45.1180   32.6030   48.1880 C   0  0  0  0  0  0  0  0  0  0  0  0
   45.6400   31.6690   49.0370 C   0  0  0  0  0  0  0  0  0  0  0  0
   46.7820   30.9220   48.7130 C   0  0  0  0  0  0  0  0  0  0  0  0
   47.2330   31.5740   46.9900 S   0  0  0  0  0  0  0  0  0  0  0  0
   43.9923   32.5657   41.4174 H   0  0  0  0  0  0  0  0  0  0  0  0
   49.5566   35.3223   39.2702 H   0  0  0  0  0  0  0  0  0  0  0  0
   49.6186   36.5633   42.7330 H   0  0  0  0  0  0  0  0  0  0  0  0
   50.5123   36.5863   41.1892 H   0  0  0  0  0  0  0  0  0  0  0  0
   43.9038   36.6664   45.3671 H   0  0  0  0  0  0  0  0  0  0  0  0
   44.3856   36.0199   42.9862 H   0  0  0  0  0  0  0  0  0  0  0  0
   44.2222   33.1879   48.4439 H   0  0  0  0  0  0  0  0  0  0  0  0
   45.1489   31.4971   50.0061 H   0  0  0  0  0  0  0  0  0  0  0  0
   47.2898   30.1500   49.3098 H   0  0  0  0  0  0  0  0  0  0  0  0
  1 14  1  0
  2  1  1  0
  3  4  1  0
  3  2  2  0
  4 11  2  0
  5  7  1  0
  5  4  1  0
  6  5  2  0
  7  8  1  0
  8  9  1  0
  8 10  2  0
 11 10  1  0
 11  1  1  0
 12 17  2  0
 13 12  1  0
 14 13  2  0
 14 15  1  0
 15 16  2  0
 16 17  1  0
 16 18  1  0
 18 22  1  0
 18 19  2  0
 19 20  1  0
 21 20  2  0
 22 21  1  0
  2 23  1  0
  7 24  1  0
  9 25  1  0
  9 26  1  0
 12 27  1  0
 13 28  1  0
 19 29  1  0
 20 30  1  0
 21 31  1  0
M  ISO  7  23  14  24   9  27  14  28  14  29  14  30  14  31  14
M  END
>  <minimizedAffinity>  (1) 
-6.59047747

>  <minimizedRMSD>  (1) 
0.462347209

$$$$
