
     RDKit          3D

 30 32  0  0  0  0  0  0  0  0999 V2000
   45.6350   34.0900   42.7710 N   0  0  0  0  0  0  0  0  0  0  0  0
   44.8990   33.8810   41.6700 C   0  0  0  0  0  0  0  0  0  0  0  0
   45.6670   34.0120   40.5620 N   0  0  0  0  0  0  0  0  0  0  0  0
   46.9230   34.3130   40.9570 C   0  0  0  0  0  0  0  0  0  0  0  0
   48.0780   34.5460   40.2130 C   0  0  0  0  0  0  0  0  0  0  0  0
   48.0890   34.5000   38.9680 O   0  0  0  0  0  0  0  0  0  0  0  0
   49.2300   34.8320   40.8500 N   0  0  0  0  0  0  0  0  0  0  0  0
   49.1920   34.8750   42.1850 C   0  0  0  0  0  0  0  0  0  0  0  0
   50.3440   35.1660   42.9670 N   0  0  0  0  0  0  0  0  0  0  0  0
   48.0850   34.6510   42.8960 N   0  0  0  0  0  0  0  0  0  0  0  0
   46.8950   34.3590   42.3310 C   0  0  0  0  0  0  0  0  0  0  0  0
   44.4630   35.2090   46.0800 C   0  0  0  0  0  0  0  0  0  0  0  0
   44.7160   35.1810   44.6910 C   0  0  0  0  0  0  0  0  0  0  0  0
   45.3970   34.0890   44.1650 C   0  0  0  0  0  0  0  0  0  0  0  0
   45.7910   33.0930   45.0190 N   0  0  0  0  0  0  0  0  0  0  0  0
   45.5280   33.1650   46.3330 C   0  0  0  0  0  0  0  0  0  0  0  0
   44.8790   34.1920   46.8770 N   0  0  0  0  0  0  0  0  0  0  0  0
   45.9950   32.0350   47.1810 C   0  0  0  0  0  0  0  0  0  0  0  0
   45.6990   32.3620   48.6490 C   0  0  0  0  0  0  0  0  0  0  0  0
   43.8261   33.6382   41.6670 H   0  0  0  0  0  0  0  0  0  0  0  0
   50.1017   35.0097   40.3309 H   0  0  0  0  0  0  0  0  0  0  0  0
   50.2763   35.1904   43.9945 H   0  0  0  0  0  0  0  0  0  0  0  0
   51.2459   35.3523   42.5058 H   0  0  0  0  0  0  0  0  0  0  0  0
   43.9246   36.0616   46.5195 H   0  0  0  0  0  0  0  0  0  0  0  0
   44.3824   36.0033   44.0409 H   0  0  0  0  0  0  0  0  0  0  0  0
   45.4661   31.1143   46.8937 H   0  0  0  0  0  0  0  0  0  0  0  0
   47.0761   31.8864   47.0424 H   0  0  0  0  0  0  0  0  0  0  0  0
   46.2947   31.7039   49.2986 H   0  0  0  0  0  0  0  0  0  0  0  0
   45.9608   33.4111   48.8509 H   0  0  0  0  0  0  0  0  0  0  0  0
   44.6291   32.2057   48.8509 H   0  0  0  0  0  0  0  0  0  0  0  0
  1 14  1  0
  2  1  1  0
  3  4  1  0
  3  2  2  0
  4 11  2  0
  5  7  1  0
  5  4  1  0
  6  5  2  0
  7  8  1  0
  8 10  2  0
  8  9  1  0
 11  1  1  0
 11 10  1  0
 12 17  2  0
 13 12  1  0
 14 13  2  0
 14 15  1  0
 15 16  2  0
 16 17  1  0
 16 18  1  0
 18 19  1  0
  2 20  1  0
  7 21  1  0
  9 22  1  0
  9 23  1  0
 12 24  1  0
 13 25  1  0
 18 26  1  0
 18 27  1  0
 19 28  1  0
 19 29  1  0
 19 30  1  0
M  ISO  8  20  14  21   9  24  14  25  14  26   8  27   8  28   8  29   8
M  ISO  1  30   8
M  END
>  <minimizedAffinity>  (1) 
-6.01895094

>  <minimizedRMSD>  (1) 
1.07321453

$$$$
