
     RDKit          3D

 31 34  0  0  0  0  0  0  0  0999 V2000
   45.5080   33.9480   42.1680 N   0  0  0  0  0  0  0  0  0  0  0  0
   44.8630   33.2330   41.2210 C   0  0  0  0  0  0  0  0  0  0  0  0
   45.5750   33.2330   40.0730 N   0  0  0  0  0  0  0  0  0  0  0  0
   46.6910   33.9520   40.2750 C   0  0  0  0  0  0  0  0  0  0  0  0
   47.7650   34.2730   39.4370 C   0  0  0  0  0  0  0  0  0  0  0  0
   47.8050   33.8680   38.2480 O   0  0  0  0  0  0  0  0  0  0  0  0
   48.7810   35.0210   39.8740 N   0  0  0  0  0  0  0  0  0  0  0  0
   48.7130   35.4400   41.1500 C   0  0  0  0  0  0  0  0  0  0  0  0
   49.7220   36.2380   41.7420 N   0  0  0  0  0  0  0  0  0  0  0  0
   47.7010   35.1480   41.9690 N   0  0  0  0  0  0  0  0  0  0  0  0
   46.6370   34.3940   41.5880 C   0  0  0  0  0  0  0  0  0  0  0  0
   44.3710   35.8780   45.0840 C   0  0  0  0  0  0  0  0  0  0  0  0
   44.6460   35.5170   43.7460 C   0  0  0  0  0  0  0  0  0  0  0  0
   45.2470   34.2810   43.5150 C   0  0  0  0  0  0  0  0  0  0  0  0
   45.5350   33.4960   44.5820 N   0  0  0  0  0  0  0  0  0  0  0  0
   45.2590   33.8740   45.8400 C   0  0  0  0  0  0  0  0  0  0  0  0
   44.6810   35.0570   46.0960 N   0  0  0  0  0  0  0  0  0  0  0  0
   45.6100   32.9520   46.9410 C   0  0  0  0  0  0  0  0  0  0  0  0
   47.0340   32.5440   47.0140 C   0  0  0  0  0  0  0  0  0  0  0  0
   45.9830   31.5420   46.7100 C   0  0  0  0  0  0  0  0  0  0  0  0
   43.8981   32.7245   41.3638 H   0  0  0  0  0  0  0  0  0  0  0  0
   49.5755   35.2644   39.2654 H   0  0  0  0  0  0  0  0  0  0  0  0
   49.6317   36.5382   42.7232 H   0  0  0  0  0  0  0  0  0  0  0  0
   50.5462   36.5183   41.1914 H   0  0  0  0  0  0  0  0  0  0  0  0
   43.8957   36.8467   45.2976 H   0  0  0  0  0  0  0  0  0  0  0  0
   44.3938   36.1900   42.9132 H   0  0  0  0  0  0  0  0  0  0  0  0
   44.8597   33.4184   47.5964 H   0  0  0  0  0  0  0  0  0  0  0  0
   47.7381   32.8589   46.2298 H   0  0  0  0  0  0  0  0  0  0  0  0
   47.8328   32.6325   47.7651 H   0  0  0  0  0  0  0  0  0  0  0  0
   45.7225   30.7755   47.4547 H   0  0  0  0  0  0  0  0  0  0  0  0
   45.8125   30.8155   45.9018 H   0  0  0  0  0  0  0  0  0  0  0  0
  1 14  1  0
  2  1  1  0
  3  4  1  0
  3  2  2  0
  4 11  2  0
  5  7  1  0
  5  4  1  0
  6  5  2  0
  7  8  1  0
  8  9  1  0
  8 10  2  0
 11 10  1  0
 11  1  1  0
 12 17  2  0
 13 12  1  0
 14 13  2  0
 14 15  1  0
 15 16  2  0
 16 17  1  0
 16 18  1  0
 18 19  1  0
 20 18  1  0
 20 19  1  0
  2 21  1  0
  7 22  1  0
  9 23  1  0
  9 24  1  0
 12 25  1  0
 13 26  1  0
 18 27  1  0
 19 28  1  0
 19 29  1  0
 20 30  1  0
 20 31  1  0
M  ISO  8  21  14  22   9  25  14  26  14  27  13  28  13  29  13  30  13
M  ISO  1  31  13
M  END
>  <minimizedAffinity>  (1) 
-5.86168194

>  <minimizedRMSD>  (1) 
0.0640579686

$$$$
