
     RDKit          3D

 27 29  0  0  0  0  0  0  0  0999 V2000
   45.5010   33.9320   42.1320 N   0  0  0  0  0  0  0  0  0  0  0  0
   44.8780   33.2300   41.1850 C   0  0  0  0  0  0  0  0  0  0  0  0
   45.5880   33.2320   40.0380 N   0  0  0  0  0  0  0  0  0  0  0  0
   46.7110   33.9630   40.2490 C   0  0  0  0  0  0  0  0  0  0  0  0
   47.7660   34.2760   39.4040 C   0  0  0  0  0  0  0  0  0  0  0  0
   47.8260   33.8850   38.2190 O   0  0  0  0  0  0  0  0  0  0  0  0
   48.7840   35.0310   39.8530 N   0  0  0  0  0  0  0  0  0  0  0  0
   48.7120   35.4460   41.1260 C   0  0  0  0  0  0  0  0  0  0  0  0
   49.7210   36.2540   41.7180 N   0  0  0  0  0  0  0  0  0  0  0  0
   47.7010   35.1480   41.9420 N   0  0  0  0  0  0  0  0  0  0  0  0
   46.6470   34.3910   41.5480 C   0  0  0  0  0  0  0  0  0  0  0  0
   44.3420   35.8290   45.0560 C   0  0  0  0  0  0  0  0  0  0  0  0
   44.6040   35.4710   43.7220 C   0  0  0  0  0  0  0  0  0  0  0  0
   45.2470   34.2680   43.4770 C   0  0  0  0  0  0  0  0  0  0  0  0
   45.5950   33.4870   44.5530 N   0  0  0  0  0  0  0  0  0  0  0  0
   45.3230   33.8740   45.8130 C   0  0  0  0  0  0  0  0  0  0  0  0
   44.7080   35.0200   46.0860 N   0  0  0  0  0  0  0  0  0  0  0  0
   45.7630   32.9190   46.8590 C   0  0  0  0  0  0  0  0  0  0  0  0
   43.9141   32.7178   41.3208 H   0  0  0  0  0  0  0  0  0  0  0  0
   49.5804   35.2785   39.2485 H   0  0  0  0  0  0  0  0  0  0  0  0
   49.6310   36.5536   42.6994 H   0  0  0  0  0  0  0  0  0  0  0  0
   50.5420   36.5398   41.1655 H   0  0  0  0  0  0  0  0  0  0  0  0
   43.8322   36.7799   45.2703 H   0  0  0  0  0  0  0  0  0  0  0  0
   44.3059   36.1296   42.8929 H   0  0  0  0  0  0  0  0  0  0  0  0
   45.5657   33.3472   47.8528 H   0  0  0  0  0  0  0  0  0  0  0  0
   45.2091   31.9749   46.7500 H   0  0  0  0  0  0  0  0  0  0  0  0
   46.8405   32.7266   46.7500 H   0  0  0  0  0  0  0  0  0  0  0  0
  1 14  1  0
  2  1  1  0
  3  4  1  0
  3  2  2  0
  4 11  2  0
  5  7  1  0
  5  4  1  0
  6  5  2  0
  7  8  1  0
  8  9  1  0
  8 10  2  0
 11 10  1  0
 11  1  1  0
 12 17  2  0
 13 12  1  0
 14 13  2  0
 14 15  1  0
 15 16  2  0
 16 17  1  0
 16 18  1  0
  2 19  1  0
  7 20  1  0
  9 21  1  0
  9 22  1  0
 12 23  1  0
 13 24  1  0
 18 25  1  0
 18 26  1  0
 18 27  1  0
M  ISO  7  19  14  20   9  23  14  24  14  25   8  26   8  27   8
M  END
>  <minimizedAffinity>  (1) 
-5.55626059

>  <minimizedRMSD>  (1) 
0.0234881025

$$$$
