
     RDKit          3D

 26 28  0  0  0  0  0  0  0  0999 V2000
   45.4850   33.9610   42.1170 N   0  0  0  0  0  0  0  0  0  0  0  0
   44.8780   33.1950   41.1920 C   0  0  0  0  0  0  0  0  0  0  0  0
   45.5930   33.1470   40.0560 N   0  0  0  0  0  0  0  0  0  0  0  0
   46.7000   33.9030   40.2390 C   0  0  0  0  0  0  0  0  0  0  0  0
   47.7730   34.1990   39.3970 C   0  0  0  0  0  0  0  0  0  0  0  0
   47.8350   33.7400   38.2320 O   0  0  0  0  0  0  0  0  0  0  0  0
   48.7670   34.9850   39.8120 N   0  0  0  0  0  0  0  0  0  0  0  0
   48.6760   35.4630   41.0600 C   0  0  0  0  0  0  0  0  0  0  0  0
   49.6680   36.3100   41.6230 N   0  0  0  0  0  0  0  0  0  0  0  0
   47.6560   35.1900   41.8820 N   0  0  0  0  0  0  0  0  0  0  0  0
   46.6250   34.4060   41.5260 C   0  0  0  0  0  0  0  0  0  0  0  0
   44.3260   36.0400   44.9150 C   0  0  0  0  0  0  0  0  0  0  0  0
   44.6150   35.6230   43.5910 C   0  0  0  0  0  0  0  0  0  0  0  0
   45.2060   34.3550   43.4390 C   0  0  0  0  0  0  0  0  0  0  0  0
   45.4680   33.6000   44.5490 N   0  0  0  0  0  0  0  0  0  0  0  0
   45.1640   34.0630   45.7800 C   0  0  0  0  0  0  0  0  0  0  0  0
   44.6010   35.2630   45.9820 N   0  0  0  0  0  0  0  0  0  0  0  0
   45.4800   33.1950   46.8550 N   0  0  0  0  0  0  0  0  0  0  0  0
   43.9207   32.6756   41.3462 H   0  0  0  0  0  0  0  0  0  0  0  0
   49.5656   35.2134   39.2028 H   0  0  0  0  0  0  0  0  0  0  0  0
   49.5620   36.6573   42.5869 H   0  0  0  0  0  0  0  0  0  0  0  0
   50.4932   36.5767   41.0673 H   0  0  0  0  0  0  0  0  0  0  0  0
   43.8644   37.0253   45.0762 H   0  0  0  0  0  0  0  0  0  0  0  0
   44.3880   36.2605   42.7238 H   0  0  0  0  0  0  0  0  0  0  0  0
   45.2770   33.4800   47.8238 H   0  0  0  0  0  0  0  0  0  0  0  0
   45.9126   32.2793   46.6674 H   0  0  0  0  0  0  0  0  0  0  0  0
  1 14  1  0
  2  1  1  0
  3  4  1  0
  3  2  2  0
  4 11  2  0
  5  7  1  0
  5  4  1  0
  6  5  2  0
  7  8  1  0
  8  9  1  0
  8 10  2  0
 11 10  1  0
 11  1  1  0
 12 17  2  0
 13 12  1  0
 14 13  2  0
 14 15  1  0
 15 16  2  0
 16 17  1  0
 16 18  1  0
  2 19  1  0
  7 20  1  0
  9 21  1  0
  9 22  1  0
 12 23  1  0
 13 24  1  0
 18 25  1  0
 18 26  1  0
M  ISO  4  19  14  20   9  23  14  24  14
M  END
>  <minimizedAffinity>  (1) 
-5.79506493

>  <minimizedRMSD>  (1) 
0.142200619

$$$$
