
     RDKit          3D

 52 55  0  0  0  0  0  0  0  0999 V2000
   44.4720   35.1760   46.1030 C   0  0  0  0  0  0  0  0  0  0  0  0
   44.7310   35.1580   44.7240 C   0  0  0  0  0  0  0  0  0  0  0  0
   45.4260   34.0670   44.2010 C   0  0  0  0  0  0  0  0  0  0  0  0
   45.8280   33.0640   45.0360 N   0  0  0  0  0  0  0  0  0  0  0  0
   45.5490   33.1370   46.3590 C   0  0  0  0  0  0  0  0  0  0  0  0
   44.8810   34.1740   46.8930 N   0  0  0  0  0  0  0  0  0  0  0  0
   45.6680   34.0770   42.8120 N   0  0  0  0  0  0  0  0  0  0  0  0
   44.9100   33.8680   41.7150 C   0  0  0  0  0  0  0  0  0  0  0  0
   45.6460   34.0000   40.5970 N   0  0  0  0  0  0  0  0  0  0  0  0
   46.9130   34.3020   40.9800 C   0  0  0  0  0  0  0  0  0  0  0  0
   48.0560   34.5390   40.2200 C   0  0  0  0  0  0  0  0  0  0  0  0
   48.0700   34.5020   38.9840 O   0  0  0  0  0  0  0  0  0  0  0  0
   49.2210   34.8260   40.8480 N   0  0  0  0  0  0  0  0  0  0  0  0
   49.1960   34.8640   42.1840 C   0  0  0  0  0  0  0  0  0  0  0  0
   50.3530   35.1540   42.9600 N   0  0  0  0  0  0  0  0  0  0  0  0
   48.0960   34.6360   42.9080 N   0  0  0  0  0  0  0  0  0  0  0  0
   46.9030   34.3440   42.3510 C   0  0  0  0  0  0  0  0  0  0  0  0
   45.9610   32.0770   47.2970 C   0  0  0  0  0  0  0  0  0  0  0  0
   47.2990   32.4100   47.9290 C   0  0  0  0  0  0  0  0  0  0  0  0
   44.9930   31.8610   48.4320 C   0  0  0  0  0  0  0  0  0  0  0  0
   46.1970   30.8310   46.5020 C   0  0  0  0  0  0  0  0  0  0  0  0
   45.4300   29.6220   46.8240 C   0  0  0  0  0  0  0  0  0  0  0  0
   46.1770   28.4480   47.3490 C   0  0  0  0  0  0  0  0  0  0  0  0
   45.4620   27.1360   46.9950 C   0  0  0  0  0  0  0  0  0  0  0  0
   43.9720   27.3480   46.8650 C   0  0  0  0  0  0  0  0  0  0  0  0
   43.6140   28.3340   45.7780 C   0  0  0  0  0  0  0  0  0  0  0  0
   44.8320   29.1530   45.4920 C   0  0  0  0  0  0  0  0  0  0  0  0
   43.9258   36.0242   46.5414 H   0  0  0  0  0  0  0  0  0  0  0  0
   44.3959   35.9800   44.0743 H   0  0  0  0  0  0  0  0  0  0  0  0
   43.8377   33.6233   41.7328 H   0  0  0  0  0  0  0  0  0  0  0  0
   50.0869   35.0068   40.3203 H   0  0  0  0  0  0  0  0  0  0  0  0
   50.2920   35.1737   43.9880 H   0  0  0  0  0  0  0  0  0  0  0  0
   51.2515   35.3442   42.4937 H   0  0  0  0  0  0  0  0  0  0  0  0
   47.2031   32.3861   49.0246 H   0  0  0  0  0  0  0  0  0  0  0  0
   48.0490   31.6711   47.6104 H   0  0  0  0  0  0  0  0  0  0  0  0
   47.6152   33.4142   47.6104 H   0  0  0  0  0  0  0  0  0  0  0  0
   45.5197   31.9785   49.3905 H   0  0  0  0  0  0  0  0  0  0  0  0
   44.1808   32.6000   48.3669 H   0  0  0  0  0  0  0  0  0  0  0  0
   44.5720   30.8468   48.3669 H   0  0  0  0  0  0  0  0  0  0  0  0
   47.2613   30.5757   46.6124 H   0  0  0  0  0  0  0  0  0  0  0  0
   45.8557   31.0966   45.4906 H   0  0  0  0  0  0  0  0  0  0  0  0
   44.7374   29.9180   47.6257 H   0  0  0  0  0  0  0  0  0  0  0  0
   47.1854   28.4377   46.9096 H   0  0  0  0  0  0  0  0  0  0  0  0
   46.2340   28.5309   48.4444 H   0  0  0  0  0  0  0  0  0  0  0  0
   45.8560   26.7582   46.0400 H   0  0  0  0  0  0  0  0  0  0  0  0
   45.6431   26.4102   47.8015 H   0  0  0  0  0  0  0  0  0  0  0  0
   43.4984   26.3825   46.6337 H   0  0  0  0  0  0  0  0  0  0  0  0
   43.6116   27.7610   47.8187 H   0  0  0  0  0  0  0  0  0  0  0  0
   43.3025   27.7955   44.8708 H   0  0  0  0  0  0  0  0  0  0  0  0
   42.7819   28.9779   46.0990 H   0  0  0  0  0  0  0  0  0  0  0  0
   45.5693   28.5435   44.9489 H   0  0  0  0  0  0  0  0  0  0  0  0
   44.5637   30.0223   44.8737 H   0  0  0  0  0  0  0  0  0  0  0  0
  1  6  2  0
  2  1  1  0
  3  2  2  0
  3  4  1  0
  4  5  2  0
  5  6  1  0
  5 18  1  0
  7  3  1  0
  8  7  1  0
  9 10  1  0
  9  8  2  0
 10 17  2  0
 11 13  1  0
 11 10  1  0
 12 11  2  0
 13 14  1  0
 14 16  2  0
 14 15  1  0
 17  7  1  0
 17 16  1  0
 18 19  1  0
 18 20  1  0
 21 22  1  0
 21 18  1  0
 22 23  1  0
 24 23  1  0
 25 24  1  0
 26 25  1  0
 27 26  1  0
 27 22  1  0
  1 28  1  0
  2 29  1  0
  8 30  1  0
 13 31  1  0
 15 32  1  0
 15 33  1  0
 19 34  1  0
 19 35  1  0
 19 36  1  0
 20 37  1  0
 20 38  1  0
 20 39  1  0
 21 40  1  0
 21 41  1  0
 22 42  1  0
 23 43  1  0
 23 44  1  0
 24 45  1  0
 24 46  1  0
 25 47  1  0
 25 48  1  0
 26 49  1  0
 26 50  1  0
 27 51  1  0
 27 52  1  0
M  ISO  8  28  14  29  14  30  14  31   9  34   8  35   8  36   8  37   8
M  ISO  8  38   8  39   8  40   8  41   8  42  13  43  13  44  13  45  13
M  ISO  7  46  13  47  13  48  13  49  13  50  13  51  13  52  13
M  END
>  <minimizedAffinity>  (1) 
-7.15366602

>  <minimizedRMSD>  (1) 
1.22893226

$$$$
