
     RDKit          3D

 36 38  0  0  0  0  0  0  0  0999 V2000
   45.6630   34.0710   42.7970 N   0  0  0  0  0  0  0  0  0  0  0  0
   44.9180   33.8730   41.7010 C   0  0  0  0  0  0  0  0  0  0  0  0
   45.6650   34.0180   40.5840 N   0  0  0  0  0  0  0  0  0  0  0  0
   46.9230   34.3180   40.9710 C   0  0  0  0  0  0  0  0  0  0  0  0
   48.0670   34.5630   40.2200 C   0  0  0  0  0  0  0  0  0  0  0  0
   48.0870   34.5380   38.9800 O   0  0  0  0  0  0  0  0  0  0  0  0
   49.2310   34.8480   40.8460 N   0  0  0  0  0  0  0  0  0  0  0  0
   49.2010   34.8740   42.1870 C   0  0  0  0  0  0  0  0  0  0  0  0
   50.3590   35.1600   42.9580 N   0  0  0  0  0  0  0  0  0  0  0  0
   48.1050   34.6380   42.9060 N   0  0  0  0  0  0  0  0  0  0  0  0
   46.9130   34.3490   42.3500 C   0  0  0  0  0  0  0  0  0  0  0  0
   44.4710   35.1740   46.0990 C   0  0  0  0  0  0  0  0  0  0  0  0
   44.7300   35.1460   44.7150 C   0  0  0  0  0  0  0  0  0  0  0  0
   45.4300   34.0510   44.1800 C   0  0  0  0  0  0  0  0  0  0  0  0
   45.8210   33.0730   45.0330 N   0  0  0  0  0  0  0  0  0  0  0  0
   45.5510   33.1420   46.3560 C   0  0  0  0  0  0  0  0  0  0  0  0
   44.8860   34.1730   46.8890 N   0  0  0  0  0  0  0  0  0  0  0  0
   45.9670   32.0880   47.2990 C   0  0  0  0  0  0  0  0  0  0  0  0
   47.3270   32.3930   47.9070 C   0  0  0  0  0  0  0  0  0  0  0  0
   44.9760   31.8280   48.3990 C   0  0  0  0  0  0  0  0  0  0  0  0
   46.1680   30.8140   46.4740 C   0  0  0  0  0  0  0  0  0  0  0  0
   43.8460   33.6264   41.7092 H   0  0  0  0  0  0  0  0  0  0  0  0
   50.0966   35.0356   40.3202 H   0  0  0  0  0  0  0  0  0  0  0  0
   50.3029   35.1723   43.9864 H   0  0  0  0  0  0  0  0  0  0  0  0
   51.2549   35.3551   42.4887 H   0  0  0  0  0  0  0  0  0  0  0  0
   43.9243   36.0231   46.5351 H   0  0  0  0  0  0  0  0  0  0  0  0
   44.3908   35.9659   44.0648 H   0  0  0  0  0  0  0  0  0  0  0  0
   47.2503   32.3758   49.0042 H   0  0  0  0  0  0  0  0  0  0  0  0
   48.0538   31.6355   47.5783 H   0  0  0  0  0  0  0  0  0  0  0  0
   47.6607   33.3883   47.5783 H   0  0  0  0  0  0  0  0  0  0  0  0
   45.4683   31.9572   49.3742 H   0  0  0  0  0  0  0  0  0  0  0  0
   44.1393   32.5370   48.3139 H   0  0  0  0  0  0  0  0  0  0  0  0
   44.5952   30.7995   48.3139 H   0  0  0  0  0  0  0  0  0  0  0  0
   46.3032   29.9569   47.1501 H   0  0  0  0  0  0  0  0  0  0  0  0
   45.2854   30.6449   45.8396 H   0  0  0  0  0  0  0  0  0  0  0  0
   47.0598   30.9249   45.8396 H   0  0  0  0  0  0  0  0  0  0  0  0
  1 14  1  0
  2  1  1  0
  3  4  1  0
  3  2  2  0
  4 11  2  0
  5  7  1  0
  5  4  1  0
  6  5  2  0
  7  8  1  0
  8 10  2  0
  8  9  1  0
 11  1  1  0
 11 10  1  0
 12 17  2  0
 13 12  1  0
 14 13  2  0
 14 15  1  0
 15 16  2  0
 16 17  1  0
 16 18  1  0
 18 19  1  0
 18 20  1  0
 21 18  1  0
  2 22  1  0
  7 23  1  0
  9 24  1  0
  9 25  1  0
 12 26  1  0
 13 27  1  0
 19 28  1  0
 19 29  1  0
 19 30  1  0
 20 31  1  0
 20 32  1  0
 20 33  1  0
 21 34  1  0
 21 35  1  0
 21 36  1  0
M  ISO  8  22  14  23   9  26  14  27  14  28   8  29   8  30   8  31   8
M  ISO  5  32   8  33   8  34   8  35   8  36   8
M  END
>  <minimizedAffinity>  (1) 
-6.66542864

>  <minimizedRMSD>  (1) 
1.08062232

$$$$
