
     RDKit          3D

 38 40  0  0  1  0  0  0  0  0999 V2000
   44.6220   36.0150   44.6150 C   0  0  0  0  0  0  0  0  0  0  0  0
   44.7600   35.7950   43.2290 C   0  0  0  0  0  0  0  0  0  0  0  0
   45.1710   34.5390   42.8180 C   0  0  0  0  0  0  0  0  0  0  0  0
   45.4110   33.6120   43.7620 N   0  0  0  0  0  0  0  0  0  0  0  0
   45.2760   33.8370   45.0730 C   0  0  0  0  0  0  0  0  0  0  0  0
   44.8810   35.0350   45.5130 N   0  0  0  0  0  0  0  0  0  0  0  0
   45.5620   32.7780   46.0060 N   0  0  0  0  0  0  0  0  0  0  0  0
   45.3910   33.0410   47.4490 C   0  0  0  0  0  0  0  0  0  0  0  0
   46.3160   32.2450   48.2960 C   0  0  0  0  0  0  0  0  0  0  0  0
   47.5030   31.8250   47.4370 C   0  0  0  0  0  0  0  0  0  0  0  0
   46.9400   30.8140   46.4700 C   0  0  0  0  0  0  0  0  0  0  0  0
   45.9990   31.4830   45.5350 C   0  0  2  0  0  0  0  0  0  0  0  0
   48.1440   31.7960   41.8010 C   0  0  0  0  0  0  0  0  0  0  0  0
   48.6110   32.3920   42.9280 C   0  0  0  0  0  0  0  0  0  0  0  0
   47.8790   32.2430   44.0850 C   0  0  0  0  0  0  0  0  0  0  0  0
   46.6830   31.5230   44.2130 C   0  0  0  0  0  0  0  0  0  0  0  0
   46.2580   30.9400   43.0300 C   0  0  0  0  0  0  0  0  0  0  0  0
   46.9700   31.0760   41.8650 C   0  0  0  0  0  0  0  0  0  0  0  0
   49.0730   31.9880   40.3360 S   0  0  0  0  0  0  0  0  0  0  0  0
   50.5300   32.1270   40.7350 O   0  0  0  0  0  0  0  0  0  0  0  0
   48.6150   33.2730   39.6600 O   0  0  0  0  0  0  0  0  0  0  0  0
   44.2974   37.0028   44.9741 H   0  0  0  0  0  0  0  0  0  0  0  0
   44.5488   36.5923   42.5013 H   0  0  0  0  0  0  0  0  0  0  0  0
   45.2976   34.3059   41.7505 H   0  0  0  0  0  0  0  0  0  0  0  0
   45.5762   34.1092   47.6353 H   0  0  0  0  0  0  0  0  0  0  0  0
   44.3648   32.7501   47.7179 H   0  0  0  0  0  0  0  0  0  0  0  0
   46.6654   32.8555   49.1417 H   0  0  0  0  0  0  0  0  0  0  0  0
   45.8006   31.3580   48.6930 H   0  0  0  0  0  0  0  0  0  0  0  0
   47.9157   32.6898   46.8969 H   0  0  0  0  0  0  0  0  0  0  0  0
   48.3253   31.4108   48.0389 H   0  0  0  0  0  0  0  0  0  0  0  0
   47.7618   30.3588   45.8978 H   0  0  0  0  0  0  0  0  0  0  0  0
   46.4030   30.0346   47.0305 H   0  0  0  0  0  0  0  0  0  0  0  0
   45.0573   30.9202   45.4548 H   0  0  0  0  0  0  0  0  0  0  0  0
   49.5438   32.9750   42.9173 H   0  0  0  0  0  0  0  0  0  0  0  0
   48.2677   32.7329   44.9899 H   0  0  0  0  0  0  0  0  0  0  0  0
   45.3272   30.3539   43.0247 H   0  0  0  0  0  0  0  0  0  0  0  0
   46.5914   30.5944   40.9514 H   0  0  0  0  0  0  0  0  0  0  0  0
   48.9090   30.9246   39.4880 H   0  0  0  0  0  0  0  0  0  0  0  0
  1  6  2  0
  2  1  1  0
  3  2  2  0
  3  4  1  0
  4  5  2  0
  5  6  1  0
  5  7  1  0
  7  8  1  0
  8  9  1  0
 10  9  1  0
 11 10  1  0
 12  7  1  0
 12 11  1  0
 13 18  2  0
 13 14  1  0
 14 15  2  0
 15 16  1  0
 16 12  1  0
 17 16  2  0
 18 17  1  0
 19 20  2  0
 19 13  1  0
 21 19  2  0
  1 22  1  0
  2 23  1  0
  3 24  1  0
  8 25  1  0
  8 26  1  0
  9 27  1  0
  9 28  1  0
 10 29  1  0
 10 30  1  0
 11 31  1  0
 11 32  1  0
 12 33  1  6
 14 34  1  0
 15 35  1  0
 17 36  1  0
 18 37  1  0
 19 38  1  0
M  ISO  8  22  14  23  14  24  14  25  13  26  13  27  13  28  13  29  13
M  ISO  8  30  13  31  13  32  13  33  13  34  14  35  14  36  14  37  14
M  ISO  1  38  11
M  END
>  <minimizedAffinity>  (1) 
-4.79687262

>  <minimizedRMSD>  (1) 
1.63375998

$$$$
