
     RDKit          3D

 48 51  0  0  0  0  0  0  0  0999 V2000
   44.4670   35.2030   46.0750 C   0  0  0  0  0  0  0  0  0  0  0  0
   44.7290   35.1740   44.6960 C   0  0  0  0  0  0  0  0  0  0  0  0
   45.4100   34.0750   44.1630 C   0  0  0  0  0  0  0  0  0  0  0  0
   45.7870   33.0850   45.0090 N   0  0  0  0  0  0  0  0  0  0  0  0
   45.5140   33.1560   46.3340 C   0  0  0  0  0  0  0  0  0  0  0  0
   44.8620   34.2000   46.8600 N   0  0  0  0  0  0  0  0  0  0  0  0
   45.6500   34.0910   42.7820 N   0  0  0  0  0  0  0  0  0  0  0  0
   44.9080   33.8940   41.6840 C   0  0  0  0  0  0  0  0  0  0  0  0
   45.6610   34.0310   40.5680 N   0  0  0  0  0  0  0  0  0  0  0  0
   46.9250   34.3260   40.9570 C   0  0  0  0  0  0  0  0  0  0  0  0
   48.0740   34.5610   40.2050 C   0  0  0  0  0  0  0  0  0  0  0  0
   48.1000   34.5300   38.9760 O   0  0  0  0  0  0  0  0  0  0  0  0
   49.2290   34.8390   40.8410 N   0  0  0  0  0  0  0  0  0  0  0  0
   49.2040   34.8730   42.1900 C   0  0  0  0  0  0  0  0  0  0  0  0
   50.3570   35.1570   42.9550 N   0  0  0  0  0  0  0  0  0  0  0  0
   48.1050   34.6470   42.9010 N   0  0  0  0  0  0  0  0  0  0  0  0
   46.9100   34.3620   42.3380 C   0  0  0  0  0  0  0  0  0  0  0  0
   45.9270   32.0810   47.2760 C   0  0  0  0  0  0  0  0  0  0  0  0
   47.3340   32.3700   47.8180 C   0  0  0  0  0  0  0  0  0  0  0  0
   44.9970   31.9430   48.4380 C   0  0  0  0  0  0  0  0  0  0  0  0
   46.0470   30.8110   46.4680 C   0  0  0  0  0  0  0  0  0  0  0  0
   45.4800   29.6430   46.9730 N   0  0  0  0  0  0  0  0  0  0  0  0
   44.3590   29.0230   46.4170 C   0  0  0  0  0  0  0  0  0  0  0  0
   44.6480   27.5330   46.2990 C   0  0  0  0  0  0  0  0  0  0  0  0
   45.7700   27.3320   47.2870 C   0  0  0  0  0  0  0  0  0  0  0  0
   46.4030   28.6690   47.5000 C   0  0  0  0  0  0  0  0  0  0  0  0
   43.9319   36.0594   46.5111 H   0  0  0  0  0  0  0  0  0  0  0  0
   44.4046   36.0006   44.0467 H   0  0  0  0  0  0  0  0  0  0  0  0
   43.8345   33.6539   41.6890 H   0  0  0  0  0  0  0  0  0  0  0  0
   50.0977   35.0187   40.3176 H   0  0  0  0  0  0  0  0  0  0  0  0
   50.3013   35.1746   43.9833 H   0  0  0  0  0  0  0  0  0  0  0  0
   51.2534   35.3465   42.4845 H   0  0  0  0  0  0  0  0  0  0  0  0
   47.3114   32.3654   48.9178 H   0  0  0  0  0  0  0  0  0  0  0  0
   48.0301   31.5961   47.4623 H   0  0  0  0  0  0  0  0  0  0  0  0
   47.6687   33.3556   47.4623 H   0  0  0  0  0  0  0  0  0  0  0  0
   45.5664   32.0275   49.3754 H   0  0  0  0  0  0  0  0  0  0  0  0
   44.2383   32.7384   48.3969 H   0  0  0  0  0  0  0  0  0  0  0  0
   44.5019   30.9616   48.3969 H   0  0  0  0  0  0  0  0  0  0  0  0
   47.1205   30.6160   46.3280 H   0  0  0  0  0  0  0  0  0  0  0  0
   45.4676   31.0177   45.5561 H   0  0  0  0  0  0  0  0  0  0  0  0
   43.4853   29.1824   47.0660 H   0  0  0  0  0  0  0  0  0  0  0  0
   44.1431   29.4475   45.4254 H   0  0  0  0  0  0  0  0  0  0  0  0
   43.7663   26.9353   46.5735 H   0  0  0  0  0  0  0  0  0  0  0  0
   44.9057   27.2186   45.2769 H   0  0  0  0  0  0  0  0  0  0  0  0
   45.3730   26.9453   48.2372 H   0  0  0  0  0  0  0  0  0  0  0  0
   46.5030   26.6042   46.9089 H   0  0  0  0  0  0  0  0  0  0  0  0
   47.3626   28.7255   46.9653 H   0  0  0  0  0  0  0  0  0  0  0  0
   46.6082   28.8487   48.5657 H   0  0  0  0  0  0  0  0  0  0  0  0
  1  6  2  0
  2  1  1  0
  3  2  2  0
  3  4  1  0
  4  5  2  0
  5  6  1  0
  5 18  1  0
  7  3  1  0
  8  7  1  0
  9 10  1  0
  9  8  2  0
 10 17  2  0
 11 13  1  0
 11 10  1  0
 12 11  2  0
 13 14  1  0
 14 16  2  0
 14 15  1  0
 17  7  1  0
 17 16  1  0
 18 19  1  0
 18 20  1  0
 21 22  1  0
 21 18  1  0
 22 26  1  0
 23 22  1  0
 24 23  1  0
 24 25  1  0
 25 26  1  0
  1 27  1  0
  2 28  1  0
  8 29  1  0
 13 30  1  0
 15 31  1  0
 15 32  1  0
 19 33  1  0
 19 34  1  0
 19 35  1  0
 20 36  1  0
 20 37  1  0
 20 38  1  0
 21 39  1  0
 21 40  1  0
 23 41  1  0
 23 42  1  0
 24 43  1  0
 24 44  1  0
 25 45  1  0
 25 46  1  0
 26 47  1  0
 26 48  1  0
M  ISO  8  27  14  28  14  29  14  30   9  33   8  34   8  35   8  36   8
M  ISO  8  37   8  38   8  39   8  40   8  41  13  42  13  43  13  44  13
M  ISO  4  45  13  46  13  47  13  48  13
M  END
>  <minimizedAffinity>  (1) 
-6.8409524

>  <minimizedRMSD>  (1) 
0.733369827

$$$$
