
     RDKit          3D

 49 52  0  0  0  0  0  0  0  0999 V2000
   44.5050   35.1160   46.1270 C   0  0  0  0  0  0  0  0  0  0  0  0
   44.7660   35.0920   44.7450 C   0  0  0  0  0  0  0  0  0  0  0  0
   45.4430   33.9860   44.2020 C   0  0  0  0  0  0  0  0  0  0  0  0
   45.8140   32.9880   45.0480 N   0  0  0  0  0  0  0  0  0  0  0  0
   45.5400   33.0560   46.3720 C   0  0  0  0  0  0  0  0  0  0  0  0
   44.8960   34.1030   46.9060 N   0  0  0  0  0  0  0  0  0  0  0  0
   45.6790   34.0080   42.8220 N   0  0  0  0  0  0  0  0  0  0  0  0
   44.9360   33.7940   41.7270 C   0  0  0  0  0  0  0  0  0  0  0  0
   45.6790   33.9500   40.6040 N   0  0  0  0  0  0  0  0  0  0  0  0
   46.9210   34.2690   40.9920 C   0  0  0  0  0  0  0  0  0  0  0  0
   48.0660   34.5350   40.2400 C   0  0  0  0  0  0  0  0  0  0  0  0
   48.0840   34.5070   38.9990 O   0  0  0  0  0  0  0  0  0  0  0  0
   49.2270   34.8410   40.8790 N   0  0  0  0  0  0  0  0  0  0  0  0
   49.1990   34.8690   42.2100 C   0  0  0  0  0  0  0  0  0  0  0  0
   50.3450   35.1750   42.9730 N   0  0  0  0  0  0  0  0  0  0  0  0
   48.1010   34.6140   42.9240 N   0  0  0  0  0  0  0  0  0  0  0  0
   46.9110   34.3030   42.3660 C   0  0  0  0  0  0  0  0  0  0  0  0
   45.9290   31.9650   47.3070 C   0  0  0  0  0  0  0  0  0  0  0  0
   47.4090   32.0740   47.6250 C   0  0  0  0  0  0  0  0  0  0  0  0
   45.1720   32.0240   48.5980 C   0  0  0  0  0  0  0  0  0  0  0  0
   45.7150   30.6800   46.5790 C   0  0  0  0  0  0  0  0  0  0  0  0
   44.9350   29.6020   47.1980 C   0  0  0  0  0  0  0  0  0  0  0  0
   44.0610   29.0450   46.0570 C   0  0  0  0  0  0  0  0  0  0  0  0
   44.0160   27.5680   46.2020 C   0  0  0  0  0  0  0  0  0  0  0  0
   44.7990   27.1890   47.4190 C   0  0  0  0  0  0  0  0  0  0  0  0
   45.6530   28.4260   47.7470 C   0  0  0  0  0  0  0  0  0  0  0  0
   43.9761   35.9733   46.5690 H   0  0  0  0  0  0  0  0  0  0  0  0
   44.4460   35.9240   44.1005 H   0  0  0  0  0  0  0  0  0  0  0  0
   43.8687   33.5280   41.7382 H   0  0  0  0  0  0  0  0  0  0  0  0
   50.0910   35.0425   40.3557 H   0  0  0  0  0  0  0  0  0  0  0  0
   50.2905   35.1884   44.0015 H   0  0  0  0  0  0  0  0  0  0  0  0
   51.2365   35.3850   42.5018 H   0  0  0  0  0  0  0  0  0  0  0  0
   47.5498   32.0844   48.7159 H   0  0  0  0  0  0  0  0  0  0  0  0
   47.9409   31.2126   47.1948 H   0  0  0  0  0  0  0  0  0  0  0  0
   47.8089   33.0040   47.1948 H   0  0  0  0  0  0  0  0  0  0  0  0
   45.8779   31.9690   49.4398 H   0  0  0  0  0  0  0  0  0  0  0  0
   44.6108   32.9686   48.6512 H   0  0  0  0  0  0  0  0  0  0  0  0
   44.4713   31.1777   48.6512 H   0  0  0  0  0  0  0  0  0  0  0  0
   46.7120   30.2671   46.3657 H   0  0  0  0  0  0  0  0  0  0  0  0
   45.0940   30.9782   45.7214 H   0  0  0  0  0  0  0  0  0  0  0  0
   44.4426   30.0626   48.0671 H   0  0  0  0  0  0  0  0  0  0  0  0
   44.4996   29.3127   45.0844 H   0  0  0  0  0  0  0  0  0  0  0  0
   43.0468   29.4679   46.1072 H   0  0  0  0  0  0  0  0  0  0  0  0
   42.9728   27.2373   46.3135 H   0  0  0  0  0  0  0  0  0  0  0  0
   44.4462   27.0875   45.3109 H   0  0  0  0  0  0  0  0  0  0  0  0
   44.1238   26.9532   48.2547 H   0  0  0  0  0  0  0  0  0  0  0  0
   45.4167   26.2946   47.2499 H   0  0  0  0  0  0  0  0  0  0  0  0
   46.6447   28.3360   47.2796 H   0  0  0  0  0  0  0  0  0  0  0  0
   45.8012   28.5261   48.8324 H   0  0  0  0  0  0  0  0  0  0  0  0
  1  6  2  0
  2  1  1  0
  3  2  2  0
  3  4  1  0
  4  5  2  0
  5  6  1  0
  5 18  1  0
  7  3  1  0
  8  7  1  0
  9 10  1  0
  9  8  2  0
 10 17  2  0
 11 13  1  0
 11 10  1  0
 12 11  2  0
 13 14  1  0
 14 16  2  0
 14 15  1  0
 17  7  1  0
 17 16  1  0
 18 19  1  0
 18 20  1  0
 21 22  1  0
 21 18  1  0
 22 26  1  0
 23 24  1  0
 23 22  1  0
 24 25  1  0
 25 26  1  0
  1 27  1  0
  2 28  1  0
  8 29  1  0
 13 30  1  0
 15 31  1  0
 15 32  1  0
 19 33  1  0
 19 34  1  0
 19 35  1  0
 20 36  1  0
 20 37  1  0
 20 38  1  0
 21 39  1  0
 21 40  1  0
 22 41  1  0
 23 42  1  0
 23 43  1  0
 24 44  1  0
 24 45  1  0
 25 46  1  0
 25 47  1  0
 26 48  1  0
 26 49  1  0
M  ISO  8  27  14  28  14  29  14  30   9  33   8  34   8  35   8  36   8
M  ISO  8  37   8  38   8  39   8  40   8  41  13  42  13  43  13  44  13
M  ISO  5  45  13  46  13  47  13  48  13  49  13
M  END
>  <minimizedAffinity>  (1) 
-6.99961281

>  <minimizedRMSD>  (1) 
1.43245554

$$$$
