
     RDKit          3D

 44 47  0  0  0  0  0  0  0  0999 V2000
   44.5180   35.0520   46.1630 C   0  0  0  0  0  0  0  0  0  0  0  0
   44.7670   35.0380   44.7810 C   0  0  0  0  0  0  0  0  0  0  0  0
   45.4690   33.9570   44.2290 C   0  0  0  0  0  0  0  0  0  0  0  0
   45.8790   32.9720   45.0510 N   0  0  0  0  0  0  0  0  0  0  0  0
   45.6200   33.0210   46.3810 C   0  0  0  0  0  0  0  0  0  0  0  0
   44.9500   34.0420   46.9410 N   0  0  0  0  0  0  0  0  0  0  0  0
   45.6860   34.0000   42.8410 N   0  0  0  0  0  0  0  0  0  0  0  0
   44.9330   33.8070   41.7540 C   0  0  0  0  0  0  0  0  0  0  0  0
   45.6610   33.9790   40.6300 N   0  0  0  0  0  0  0  0  0  0  0  0
   46.9210   34.2920   41.0070 C   0  0  0  0  0  0  0  0  0  0  0  0
   48.0420   34.5610   40.2380 C   0  0  0  0  0  0  0  0  0  0  0  0
   48.0510   34.5550   38.9950 O   0  0  0  0  0  0  0  0  0  0  0  0
   49.2190   34.8550   40.8540 N   0  0  0  0  0  0  0  0  0  0  0  0
   49.2010   34.8590   42.1910 C   0  0  0  0  0  0  0  0  0  0  0  0
   50.3700   35.1530   42.9580 N   0  0  0  0  0  0  0  0  0  0  0  0
   48.1180   34.5980   42.9200 N   0  0  0  0  0  0  0  0  0  0  0  0
   46.9330   34.3030   42.3780 C   0  0  0  0  0  0  0  0  0  0  0  0
   46.0560   31.9570   47.3060 C   0  0  0  0  0  0  0  0  0  0  0  0
   47.2990   32.3840   48.0850 C   0  0  0  0  0  0  0  0  0  0  0  0
   44.9940   31.5330   48.2810 C   0  0  0  0  0  0  0  0  0  0  0  0
   46.5130   30.7870   46.4550 C   0  0  0  0  0  0  0  0  0  0  0  0
   45.7360   29.5540   46.6930 C   0  0  0  0  0  0  0  0  0  0  0  0
   44.7620   29.3360   45.7380 C   0  0  0  0  0  0  0  0  0  0  0  0
   43.9390   28.2200   45.8100 C   0  0  0  0  0  0  0  0  0  0  0  0
   44.1150   27.3560   46.8330 N   0  0  0  0  0  0  0  0  0  0  0  0
   45.0800   27.5780   47.7720 C   0  0  0  0  0  0  0  0  0  0  0  0
   45.8740   28.6630   47.6940 N   0  0  0  0  0  0  0  0  0  0  0  0
   43.9675   35.8920   46.6117 H   0  0  0  0  0  0  0  0  0  0  0  0
   44.4169   35.8619   44.1418 H   0  0  0  0  0  0  0  0  0  0  0  0
   43.8651   33.5438   41.7725 H   0  0  0  0  0  0  0  0  0  0  0  0
   50.0753   35.0627   40.3207 H   0  0  0  0  0  0  0  0  0  0  0  0
   50.3254   35.1485   43.9870 H   0  0  0  0  0  0  0  0  0  0  0  0
   51.2573   35.3695   42.4819 H   0  0  0  0  0  0  0  0  0  0  0  0
   47.0972   32.3147   49.1641 H   0  0  0  0  0  0  0  0  0  0  0  0
   48.1392   31.7230   47.8259 H   0  0  0  0  0  0  0  0  0  0  0  0
   47.5556   33.4218   47.8259 H   0  0  0  0  0  0  0  0  0  0  0  0
   45.3598   31.6790   49.3081 H   0  0  0  0  0  0  0  0  0  0  0  0
   44.0894   32.1389   48.1243 H   0  0  0  0  0  0  0  0  0  0  0  0
   44.7554   30.4707   48.1243 H   0  0  0  0  0  0  0  0  0  0  0  0
   47.5701   30.5828   46.6807 H   0  0  0  0  0  0  0  0  0  0  0  0
   46.3614   31.0701   45.4029 H   0  0  0  0  0  0  0  0  0  0  0  0
   44.6373   30.0529   44.9131 H   0  0  0  0  0  0  0  0  0  0  0  0
   43.1619   28.0437   45.0517 H   0  0  0  0  0  0  0  0  0  0  0  0
   45.2104   26.8649   48.5994 H   0  0  0  0  0  0  0  0  0  0  0  0
  1  6  2  0
  2  1  1  0
  3  2  2  0
  3  4  1  0
  4  5  2  0
  5  6  1  0
  5 18  1  0
  7  3  1  0
  8  7  1  0
  9 10  1  0
  9  8  2  0
 10 17  2  0
 11 13  1  0
 11 10  1  0
 12 11  2  0
 13 14  1  0
 14 16  2  0
 14 15  1  0
 17  7  1  0
 17 16  1  0
 18 19  1  0
 18 20  1  0
 21 22  1  0
 21 18  1  0
 22 27  2  0
 23 24  2  0
 23 22  1  0
 24 25  1  0
 25 26  2  0
 27 26  1  0
  1 28  1  0
  2 29  1  0
  8 30  1  0
 13 31  1  0
 15 32  1  0
 15 33  1  0
 19 34  1  0
 19 35  1  0
 19 36  1  0
 20 37  1  0
 20 38  1  0
 20 39  1  0
 21 40  1  0
 21 41  1  0
 23 42  1  0
 24 43  1  0
 26 44  1  0
M  ISO  8  28  14  29  14  30  14  31   9  34   8  35   8  36   8  37   8
M  ISO  7  38   8  39   8  40   8  41   8  42  14  43  14  44  14
M  END
>  <minimizedAffinity>  (1) 
-6.88800907

>  <minimizedRMSD>  (1) 
1.36179686

$$$$
