
     RDKit          3D

 32 34  0  0  1  0  0  0  0  0999 V2000
   44.4850   36.2470   44.8160 C   0  0  0  0  0  0  0  0  0  0  0  0
   44.8180   36.1880   43.4260 C   0  0  0  0  0  0  0  0  0  0  0  0
   45.4140   35.0300   42.9580 C   0  0  0  0  0  0  0  0  0  0  0  0
   45.6410   34.0320   43.8540 N   0  0  0  0  0  0  0  0  0  0  0  0
   45.3210   34.1110   45.1470 C   0  0  0  0  0  0  0  0  0  0  0  0
   44.7440   35.2150   45.6300 N   0  0  0  0  0  0  0  0  0  0  0  0
   45.6060   32.9940   46.0100 N   0  0  0  0  0  0  0  0  0  0  0  0
   45.2220   33.0940   47.4350 C   0  0  0  0  0  0  0  0  0  0  0  0
   46.1180   32.2990   48.3160 C   0  0  0  0  0  0  0  0  0  0  0  0
   47.4420   32.0890   47.5950 C   0  0  0  0  0  0  0  0  0  0  0  0
   47.0920   31.1140   46.4720 C   0  0  0  0  0  0  0  0  0  0  0  0
   46.2520   31.8100   45.4730 C   0  0  2  0  0  0  0  0  0  0  0  0
   47.1080   32.1660   44.2810 C   0  0  0  0  0  0  0  0  0  0  0  0
   46.9940   31.5840   43.0120 C   0  0  0  0  0  0  0  0  0  0  0  0
   47.9030   32.0790   42.1730 N   0  0  0  0  0  0  0  0  0  0  0  0
   48.6190   32.9870   42.8800 C   0  0  0  0  0  0  0  0  0  0  0  0
   48.1380   33.0320   44.1320 N   0  0  0  0  0  0  0  0  0  0  0  0
   44.0098   37.1522   45.2220 H   0  0  0  0  0  0  0  0  0  0  0  0
   44.6079   37.0327   42.7534 H   0  0  0  0  0  0  0  0  0  0  0  0
   45.6940   34.9206   41.8999 H   0  0  0  0  0  0  0  0  0  0  0  0
   45.2696   34.1494   47.7413 H   0  0  0  0  0  0  0  0  0  0  0  0
   44.2033   32.6921   47.5389 H   0  0  0  0  0  0  0  0  0  0  0  0
   46.2900   32.8418   49.2572 H   0  0  0  0  0  0  0  0  0  0  0  0
   45.6557   31.3277   48.5458 H   0  0  0  0  0  0  0  0  0  0  0  0
   47.8212   33.0375   47.1870 H   0  0  0  0  0  0  0  0  0  0  0  0
   48.2331   31.7092   48.2583 H   0  0  0  0  0  0  0  0  0  0  0  0
   48.0155   30.7570   45.9926 H   0  0  0  0  0  0  0  0  0  0  0  0
   46.5432   30.2545   46.8843 H   0  0  0  0  0  0  0  0  0  0  0  0
   45.4425   31.1284   45.1727 H   0  0  0  0  0  0  0  0  0  0  0  0
   46.2512   30.8185   42.7433 H   0  0  0  0  0  0  0  0  0  0  0  0
   49.4552   33.5872   42.4921 H   0  0  0  0  0  0  0  0  0  0  0  0
   48.5026   33.6420   44.8776 H   0  0  0  0  0  0  0  0  0  0  0  0
  1  6  2  0
  2  1  1  0
  3  2  2  0
  3  4  1  0
  4  5  2  0
  5  6  1  0
  5  7  1  0
  7  8  1  0
  8  9  1  0
 10  9  1  0
 11 10  1  0
 12  7  1  0
 12 11  1  0
 13 12  1  0
 14 13  2  0
 15 16  2  0
 15 14  1  0
 16 17  1  0
 17 13  1  0
  1 18  1  0
  2 19  1  0
  3 20  1  0
  8 21  1  0
  8 22  1  0
  9 23  1  0
  9 24  1  0
 10 25  1  0
 10 26  1  0
 11 27  1  0
 11 28  1  0
 12 29  1  6
 14 30  1  0
 16 31  1  0
 17 32  1  0
M  ISO  8  18  14  19  14  20  14  21  13  22  13  23  13  24  13  25  13
M  ISO  7  26  13  27  13  28  13  29  13  30  14  31  14  32   9
M  END
>  <minimizedAffinity>  (1) 
-4.77906609

>  <minimizedRMSD>  (1) 
0.955371857

$$$$
