
     RDKit          3D

 43 46  0  0  0  0  0  0  0  0999 V2000
   44.4830   35.1640   46.1110 C   0  0  0  0  0  0  0  0  0  0  0  0
   44.7380   35.1600   44.7280 C   0  0  0  0  0  0  0  0  0  0  0  0
   45.4290   34.0870   44.1650 C   0  0  0  0  0  0  0  0  0  0  0  0
   45.8270   33.0800   44.9970 N   0  0  0  0  0  0  0  0  0  0  0  0
   45.5560   33.1320   46.3250 C   0  0  0  0  0  0  0  0  0  0  0  0
   44.8980   34.1500   46.8750 N   0  0  0  0  0  0  0  0  0  0  0  0
   45.6550   34.1380   42.7810 N   0  0  0  0  0  0  0  0  0  0  0  0
   44.8960   34.0110   41.6850 C   0  0  0  0  0  0  0  0  0  0  0  0
   45.6440   34.1540   40.5670 N   0  0  0  0  0  0  0  0  0  0  0  0
   46.9110   34.3770   40.9530 C   0  0  0  0  0  0  0  0  0  0  0  0
   48.0640   34.5890   40.2060 C   0  0  0  0  0  0  0  0  0  0  0  0
   48.0830   34.6020   38.9590 O   0  0  0  0  0  0  0  0  0  0  0  0
   49.2400   34.7940   40.8250 N   0  0  0  0  0  0  0  0  0  0  0  0
   49.2210   34.7800   42.1690 C   0  0  0  0  0  0  0  0  0  0  0  0
   50.4000   34.9850   42.9320 N   0  0  0  0  0  0  0  0  0  0  0  0
   48.1240   34.5780   42.8940 N   0  0  0  0  0  0  0  0  0  0  0  0
   46.9210   34.3680   42.3350 C   0  0  0  0  0  0  0  0  0  0  0  0
   45.9880   32.0400   47.2280 C   0  0  0  0  0  0  0  0  0  0  0  0
   47.2600   32.4070   47.9600 C   0  0  0  0  0  0  0  0  0  0  0  0
   44.9320   31.6550   48.2340 C   0  0  0  0  0  0  0  0  0  0  0  0
   46.3300   30.8420   46.3570 C   0  0  0  0  0  0  0  0  0  0  0  0
   45.9120   29.5730   46.9680 C   0  0  0  0  0  0  0  0  0  0  0  0
   44.7250   28.9270   46.6110 C   0  0  0  0  0  0  0  0  0  0  0  0
   44.5910   27.7660   47.3420 C   0  0  0  0  0  0  0  0  0  0  0  0
   45.6870   27.7200   48.1250 N   0  0  0  0  0  0  0  0  0  0  0  0
   46.4530   28.7740   47.9050 N   0  0  0  0  0  0  0  0  0  0  0  0
   43.9396   36.0056   46.5654 H   0  0  0  0  0  0  0  0  0  0  0  0
   44.3963   35.9938   44.0972 H   0  0  0  0  0  0  0  0  0  0  0  0
   43.8133   33.8171   41.6928 H   0  0  0  0  0  0  0  0  0  0  0  0
   50.1098   34.9534   40.2969 H   0  0  0  0  0  0  0  0  0  0  0  0
   50.3568   34.9692   43.9610 H   0  0  0  0  0  0  0  0  0  0  0  0
   51.2989   35.1496   42.4568 H   0  0  0  0  0  0  0  0  0  0  0  0
   47.0861   32.3568   49.0450 H   0  0  0  0  0  0  0  0  0  0  0  0
   48.0584   31.7026   47.6836 H   0  0  0  0  0  0  0  0  0  0  0  0
   47.5604   33.4285   47.6836 H   0  0  0  0  0  0  0  0  0  0  0  0
   45.3251   31.7983   49.2513 H   0  0  0  0  0  0  0  0  0  0  0  0
   44.0428   32.2868   48.0921 H   0  0  0  0  0  0  0  0  0  0  0  0
   44.6580   30.5991   48.0921 H   0  0  0  0  0  0  0  0  0  0  0  0
   47.4184   30.8177   46.1999 H   0  0  0  0  0  0  0  0  0  0  0  0
   45.7899   30.9520   45.4051 H   0  0  0  0  0  0  0  0  0  0  0  0
   44.0070   29.2899   45.8608 H   0  0  0  0  0  0  0  0  0  0  0  0
   43.7690   27.0364   47.2962 H   0  0  0  0  0  0  0  0  0  0  0  0
   45.8975   26.9701   48.7989 H   0  0  0  0  0  0  0  0  0  0  0  0
  1  6  2  0
  2  1  1  0
  3  2  2  0
  3  4  1  0
  4  5  2  0
  5  6  1  0
  5 18  1  0
  7  3  1  0
  8  7  1  0
  9 10  1  0
  9  8  2  0
 10 17  2  0
 11 13  1  0
 11 10  1  0
 12 11  2  0
 13 14  1  0
 14 16  2  0
 14 15  1  0
 17  7  1  0
 17 16  1  0
 18 19  1  0
 18 20  1  0
 21 22  1  0
 21 18  1  0
 22 26  2  0
 23 22  1  0
 23 24  2  0
 24 25  1  0
 26 25  1  0
  1 27  1  0
  2 28  1  0
  8 29  1  0
 13 30  1  0
 15 31  1  0
 15 32  1  0
 19 33  1  0
 19 34  1  0
 19 35  1  0
 20 36  1  0
 20 37  1  0
 20 38  1  0
 21 39  1  0
 21 40  1  0
 23 41  1  0
 24 42  1  0
 25 43  1  0
M  ISO  8  27  14  28  14  29  14  30   9  33   8  34   8  35   8  36   8
M  ISO  7  37   8  38   8  39   8  40   8  41  14  42  14  43   9
M  END
>  <minimizedAffinity>  (1) 
-6.89829922

>  <minimizedRMSD>  (1) 
0.852512956

$$$$
