
     RDKit          3D

 50 53  0  0  0  0  0  0  0  0999 V2000
   44.4620   35.2080   46.0790 C   0  0  0  0  0  0  0  0  0  0  0  0
   44.7220   35.1610   44.6980 C   0  0  0  0  0  0  0  0  0  0  0  0
   45.4150   34.0430   44.1740 C   0  0  0  0  0  0  0  0  0  0  0  0
   45.7920   33.0710   45.0320 N   0  0  0  0  0  0  0  0  0  0  0  0
   45.5210   33.1550   46.3510 C   0  0  0  0  0  0  0  0  0  0  0  0
   44.8630   34.2100   46.8750 N   0  0  0  0  0  0  0  0  0  0  0  0
   45.6500   34.0480   42.7910 N   0  0  0  0  0  0  0  0  0  0  0  0
   44.9180   33.8320   41.7000 C   0  0  0  0  0  0  0  0  0  0  0  0
   45.6670   33.9710   40.5800 N   0  0  0  0  0  0  0  0  0  0  0  0
   46.9190   34.2850   40.9700 C   0  0  0  0  0  0  0  0  0  0  0  0
   48.0700   34.5340   40.2260 C   0  0  0  0  0  0  0  0  0  0  0  0
   48.1000   34.4960   38.9840 O   0  0  0  0  0  0  0  0  0  0  0  0
   49.2290   34.8340   40.8530 N   0  0  0  0  0  0  0  0  0  0  0  0
   49.1840   34.8720   42.1920 C   0  0  0  0  0  0  0  0  0  0  0  0
   50.3430   35.1730   42.9650 N   0  0  0  0  0  0  0  0  0  0  0  0
   48.0870   34.6360   42.9060 N   0  0  0  0  0  0  0  0  0  0  0  0
   46.8960   34.3300   42.3500 C   0  0  0  0  0  0  0  0  0  0  0  0
   45.9130   32.1000   47.3130 C   0  0  0  0  0  0  0  0  0  0  0  0
   47.3460   32.3590   47.8160 C   0  0  0  0  0  0  0  0  0  0  0  0
   45.0360   32.0180   48.5130 C   0  0  0  0  0  0  0  0  0  0  0  0
   46.0060   30.8080   46.5450 C   0  0  0  0  0  0  0  0  0  0  0  0
   45.1020   29.7800   46.8490 N   0  0  0  0  0  0  0  0  0  0  0  0
   44.6580   29.1950   45.5730 C   0  0  0  0  0  0  0  0  0  0  0  0
   45.7200   28.3630   44.9230 C   0  0  0  0  0  0  0  0  0  0  0  0
   45.9480   27.2090   45.7740 N   0  0  0  0  0  0  0  0  0  0  0  0
   46.5000   27.7390   47.0080 C   0  0  0  0  0  0  0  0  0  0  0  0
   45.5220   28.6880   47.6550 C   0  0  0  0  0  0  0  0  0  0  0  0
   43.9268   36.0686   46.5067 H   0  0  0  0  0  0  0  0  0  0  0  0
   44.3934   35.9770   44.0375 H   0  0  0  0  0  0  0  0  0  0  0  0
   43.8484   33.5751   41.7072 H   0  0  0  0  0  0  0  0  0  0  0  0
   50.0971   35.0226   40.3318 H   0  0  0  0  0  0  0  0  0  0  0  0
   50.2845   35.1965   43.9931 H   0  0  0  0  0  0  0  0  0  0  0  0
   51.2390   35.3670   42.4956 H   0  0  0  0  0  0  0  0  0  0  0  0
   47.3538   32.3604   48.9160 H   0  0  0  0  0  0  0  0  0  0  0  0
   48.0134   31.5669   47.4456 H   0  0  0  0  0  0  0  0  0  0  0  0
   47.6939   33.3346   47.4456 H   0  0  0  0  0  0  0  0  0  0  0  0
   45.6524   32.0756   49.4223 H   0  0  0  0  0  0  0  0  0  0  0  0
   44.3202   32.8531   48.5018 H   0  0  0  0  0  0  0  0  0  0  0  0
   44.4874   31.0646   48.5018 H   0  0  0  0  0  0  0  0  0  0  0  0
   47.0180   30.4077   46.7051 H   0  0  0  0  0  0  0  0  0  0  0  0
   45.7532   31.0909   45.5125 H   0  0  0  0  0  0  0  0  0  0  0  0
   43.7796   28.5606   45.7625 H   0  0  0  0  0  0  0  0  0  0  0  0
   44.4187   30.0240   44.8907 H   0  0  0  0  0  0  0  0  0  0  0  0
   45.3849   28.0360   43.9276 H   0  0  0  0  0  0  0  0  0  0  0  0
   46.6463   28.9431   44.7983 H   0  0  0  0  0  0  0  0  0  0  0  0
   45.0620   26.7171   45.9582 H   0  0  0  0  0  0  0  0  0  0  0  0
   46.7097   26.9082   47.6978 H   0  0  0  0  0  0  0  0  0  0  0  0
   47.4283   28.2832   46.7796 H   0  0  0  0  0  0  0  0  0  0  0  0
   45.9955   29.0974   48.5595 H   0  0  0  0  0  0  0  0  0  0  0  0
   44.6166   28.0965   47.8560 H   0  0  0  0  0  0  0  0  0  0  0  0
  1  6  2  0
  2  1  1  0
  3  2  2  0
  3  4  1  0
  4  5  2  0
  5  6  1  0
  5 18  1  0
  7  3  1  0
  8  7  1  0
  9 10  1  0
  9  8  2  0
 10 17  2  0
 11 13  1  0
 11 10  1  0
 12 11  2  0
 13 14  1  0
 14 16  2  0
 14 15  1  0
 17  7  1  0
 17 16  1  0
 18 19  1  0
 18 20  1  0
 21 22  1  0
 21 18  1  0
 22 27  1  0
 23 22  1  0
 24 23  1  0
 24 25  1  0
 25 26  1  0
 26 27  1  0
  1 28  1  0
  2 29  1  0
  8 30  1  0
 13 31  1  0
 15 32  1  0
 15 33  1  0
 19 34  1  0
 19 35  1  0
 19 36  1  0
 20 37  1  0
 20 38  1  0
 20 39  1  0
 21 40  1  0
 21 41  1  0
 23 42  1  0
 23 43  1  0
 24 44  1  0
 24 45  1  0
 25 46  1  0
 26 47  1  0
 26 48  1  0
 27 49  1  0
 27 50  1  0
M  ISO  8  28  14  29  14  30  14  31   9  34   8  35   8  36   8  37   8
M  ISO  8  38   8  39   8  40   8  41   8  42  13  43  13  44  13  45  13
M  ISO  5  46   5  47  13  48  13  49  13  50  13
M  END
>  <minimizedAffinity>  (1) 
-6.74393749

>  <minimizedRMSD>  (1) 
0.719620764

$$$$
