
     RDKit          3D

 43 46  0  0  0  0  0  0  0  0999 V2000
   44.4980   35.0940   46.1430 C   0  0  0  0  0  0  0  0  0  0  0  0
   44.7450   35.0820   44.7590 C   0  0  0  0  0  0  0  0  0  0  0  0
   45.4610   34.0010   44.2000 C   0  0  0  0  0  0  0  0  0  0  0  0
   45.8720   33.0260   45.0500 N   0  0  0  0  0  0  0  0  0  0  0  0
   45.6080   33.0850   46.3800 C   0  0  0  0  0  0  0  0  0  0  0  0
   44.9350   34.0940   46.9270 N   0  0  0  0  0  0  0  0  0  0  0  0
   45.6770   34.0390   42.8220 N   0  0  0  0  0  0  0  0  0  0  0  0
   44.9270   33.8530   41.7310 C   0  0  0  0  0  0  0  0  0  0  0  0
   45.6630   34.0160   40.6080 N   0  0  0  0  0  0  0  0  0  0  0  0
   46.9280   34.3160   40.9910 C   0  0  0  0  0  0  0  0  0  0  0  0
   48.0600   34.5750   40.2320 C   0  0  0  0  0  0  0  0  0  0  0  0
   48.0640   34.5650   38.9890 O   0  0  0  0  0  0  0  0  0  0  0  0
   49.2200   34.8540   40.8460 N   0  0  0  0  0  0  0  0  0  0  0  0
   49.2130   34.8640   42.1970 C   0  0  0  0  0  0  0  0  0  0  0  0
   50.3720   35.1430   42.9530 N   0  0  0  0  0  0  0  0  0  0  0  0
   48.1230   34.6140   42.9190 N   0  0  0  0  0  0  0  0  0  0  0  0
   46.9330   34.3300   42.3760 C   0  0  0  0  0  0  0  0  0  0  0  0
   46.0610   32.0150   47.3030 C   0  0  0  0  0  0  0  0  0  0  0  0
   47.2870   32.4400   48.0770 C   0  0  0  0  0  0  0  0  0  0  0  0
   44.9880   31.5840   48.2710 C   0  0  0  0  0  0  0  0  0  0  0  0
   46.4860   30.8380   46.4340 C   0  0  0  0  0  0  0  0  0  0  0  0
   45.7400   29.6410   46.7220 N   0  0  0  0  0  0  0  0  0  0  0  0
   45.8850   28.6920   47.6640 C   0  0  0  0  0  0  0  0  0  0  0  0
   44.8970   27.7450   47.5050 C   0  0  0  0  0  0  0  0  0  0  0  0
   44.1320   28.1210   46.4450 N   0  0  0  0  0  0  0  0  0  0  0  0
   44.6560   29.2710   45.9810 C   0  0  0  0  0  0  0  0  0  0  0  0
   43.9409   35.9311   46.5889 H   0  0  0  0  0  0  0  0  0  0  0  0
   44.3857   35.9028   44.1209 H   0  0  0  0  0  0  0  0  0  0  0  0
   43.8562   33.6014   41.7448 H   0  0  0  0  0  0  0  0  0  0  0  0
   50.0777   35.0518   40.3111 H   0  0  0  0  0  0  0  0  0  0  0  0
   50.3283   35.1416   43.9821 H   0  0  0  0  0  0  0  0  0  0  0  0
   51.2613   35.3480   42.4756 H   0  0  0  0  0  0  0  0  0  0  0  0
   47.0825   32.3691   49.1555 H   0  0  0  0  0  0  0  0  0  0  0  0
   48.1297   31.7815   47.8195 H   0  0  0  0  0  0  0  0  0  0  0  0
   47.5413   33.4788   47.8195 H   0  0  0  0  0  0  0  0  0  0  0  0
   45.3448   31.7273   49.3016 H   0  0  0  0  0  0  0  0  0  0  0  0
   44.0835   32.1886   48.1088 H   0  0  0  0  0  0  0  0  0  0  0  0
   44.7530   30.5217   48.1088 H   0  0  0  0  0  0  0  0  0  0  0  0
   47.5536   30.6385   46.6083 H   0  0  0  0  0  0  0  0  0  0  0  0
   46.2904   31.1091   45.3860 H   0  0  0  0  0  0  0  0  0  0  0  0
   46.6670   28.6747   48.4374 H   0  0  0  0  0  0  0  0  0  0  0  0
   44.7529   26.8469   48.1236 H   0  0  0  0  0  0  0  0  0  0  0  0
   44.2638   29.8351   45.1220 H   0  0  0  0  0  0  0  0  0  0  0  0
  1  6  2  0
  2  1  1  0
  3  2  2  0
  3  4  1  0
  4  5  2  0
  5  6  1  0
  5 18  1  0
  7  3  1  0
  8  7  1  0
  9 10  1  0
  9  8  2  0
 10 17  2  0
 11 13  1  0
 11 10  1  0
 12 11  2  0
 13 14  1  0
 14 16  2  0
 14 15  1  0
 17  7  1  0
 17 16  1  0
 18 19  1  0
 18 20  1  0
 21 22  1  0
 21 18  1  0
 22 23  1  0
 24 23  2  0
 25 24  1  0
 26 25  2  0
 26 22  1  0
  1 27  1  0
  2 28  1  0
  8 29  1  0
 13 30  1  0
 15 31  1  0
 15 32  1  0
 19 33  1  0
 19 34  1  0
 19 35  1  0
 20 36  1  0
 20 37  1  0
 20 38  1  0
 21 39  1  0
 21 40  1  0
 23 41  1  0
 24 42  1  0
 26 43  1  0
M  ISO  8  27  14  28  14  29  14  30   9  33   8  34   8  35   8  36   8
M  ISO  7  37   8  38   8  39   8  40   8  41  14  42  14  43  14
M  END
>  <minimizedAffinity>  (1) 
-6.72487354

>  <minimizedRMSD>  (1) 
1.16739023

$$$$
