
     RDKit          3D

 32 34  0  0  1  0  0  0  0  0999 V2000
   44.5190   36.1160   44.7920 C   0  0  0  0  0  0  0  0  0  0  0  0
   44.9420   36.0500   43.4500 C   0  0  0  0  0  0  0  0  0  0  0  0
   45.6150   34.9140   43.0370 C   0  0  0  0  0  0  0  0  0  0  0  0
   45.8230   33.9300   43.9610 N   0  0  0  0  0  0  0  0  0  0  0  0
   45.4090   34.0220   45.2290 C   0  0  0  0  0  0  0  0  0  0  0  0
   44.7570   35.1120   45.6490 N   0  0  0  0  0  0  0  0  0  0  0  0
   45.6640   32.9250   46.1290 N   0  0  0  0  0  0  0  0  0  0  0  0
   45.2170   33.0540   47.5290 C   0  0  0  0  0  0  0  0  0  0  0  0
   46.0860   32.3110   48.4840 C   0  0  0  0  0  0  0  0  0  0  0  0
   47.4320   32.1050   47.8420 C   0  0  0  0  0  0  0  0  0  0  0  0
   47.2330   31.1440   46.7110 C   0  0  0  0  0  0  0  0  0  0  0  0
   46.3190   31.7310   45.6850 C   0  0  2  0  0  0  0  0  0  0  0  0
   46.9180   31.8060   44.3780 N   0  0  0  0  0  0  0  0  0  0  0  0
   48.0580   32.4040   44.0330 N   0  0  0  0  0  0  0  0  0  0  0  0
   48.3250   32.2710   42.7250 C   0  0  0  0  0  0  0  0  0  0  0  0
   47.2970   31.5360   42.1620 C   0  0  0  0  0  0  0  0  0  0  0  0
   46.4430   31.2650   43.2140 C   0  0  0  0  0  0  0  0  0  0  0  0
   43.9825   37.0093   45.1444 H   0  0  0  0  0  0  0  0  0  0  0  0
   44.7433   36.8764   42.7518 H   0  0  0  0  0  0  0  0  0  0  0  0
   45.9699   34.8071   42.0013 H   0  0  0  0  0  0  0  0  0  0  0  0
   45.2241   34.1192   47.8033 H   0  0  0  0  0  0  0  0  0  0  0  0
   44.2076   32.6219   47.5952 H   0  0  0  0  0  0  0  0  0  0  0  0
   46.2016   32.8926   49.4105 H   0  0  0  0  0  0  0  0  0  0  0  0
   45.6324   31.3395   48.7297 H   0  0  0  0  0  0  0  0  0  0  0  0
   47.8199   33.0615   47.4616 H   0  0  0  0  0  0  0  0  0  0  0  0
   48.1584   31.7123   48.5687 H   0  0  0  0  0  0  0  0  0  0  0  0
   48.2056   30.9239   46.2468 H   0  0  0  0  0  0  0  0  0  0  0  0
   46.7838   30.2194   47.1026 H   0  0  0  0  0  0  0  0  0  0  0  0
   45.4923   31.0169   45.5563 H   0  0  0  0  0  0  0  0  0  0  0  0
   49.2018   32.6732   42.1963 H   0  0  0  0  0  0  0  0  0  0  0  0
   47.1844   31.2343   41.1102 H   0  0  0  0  0  0  0  0  0  0  0  0
   45.5080   30.6920   43.1276 H   0  0  0  0  0  0  0  0  0  0  0  0
  1  6  2  0
  2  1  1  0
  3  2  2  0
  3  4  1  0
  4  5  2  0
  5  6  1  0
  5  7  1  0
  7  8  1  0
  8  9  1  0
 10  9  1  0
 11 10  1  0
 12  7  1  0
 12 11  1  0
 13 12  1  0
 14 13  1  0
 15 14  2  0
 16 15  1  0
 16 17  2  0
 17 13  1  0
  1 18  1  0
  2 19  1  0
  3 20  1  0
  8 21  1  0
  8 22  1  0
  9 23  1  0
  9 24  1  0
 10 25  1  0
 10 26  1  0
 11 27  1  0
 11 28  1  0
 12 29  1  6
 15 30  1  0
 16 31  1  0
 17 32  1  0
M  ISO  8  18  14  19  14  20  14  21  13  22  13  23  13  24  13  25  13
M  ISO  7  26  13  27  13  28  13  29  13  30  14  31  14  32  14
M  END
>  <minimizedAffinity>  (1) 
-4.76269293

>  <minimizedRMSD>  (1) 
0.821439624

$$$$
