
     RDKit          3D

 32 33  0  0  0  0  0  0  0  0999 V2000
   48.5030   34.2000   40.3320 C   0  0  0  0  0  0  0  0  0  0  0  0
   49.3050   33.1370   40.9360 C   0  0  0  0  0  0  0  0  0  0  0  0
   49.6650   33.5850   42.3540 C   0  0  0  0  0  0  0  0  0  0  0  0
   48.9480   34.8860   42.6170 C   0  0  0  0  0  0  0  0  0  0  0  0
   48.7350   35.4340   41.2520 C   0  0  0  0  0  0  0  0  0  0  0  0
   47.0430   34.0150   40.2940 C   0  0  0  0  0  0  0  0  0  0  0  0
   46.4730   33.2610   39.2540 C   0  0  0  0  0  0  0  0  0  0  0  0
   45.0940   33.0640   39.2170 C   0  0  0  0  0  0  0  0  0  0  0  0
   44.3660   33.6390   40.2320 N   0  0  0  0  0  0  0  0  0  0  0  0
   44.9410   34.3600   41.2200 C   0  0  0  0  0  0  0  0  0  0  0  0
   46.2770   34.5470   41.2500 N   0  0  0  0  0  0  0  0  0  0  0  0
   44.0840   34.9490   42.2820 C   0  0  0  0  0  0  0  0  0  0  0  0
   42.7920   35.4880   41.6700 C   0  0  0  0  0  0  0  0  0  0  0  0
   44.8320   36.0610   42.9560 C   0  0  0  0  0  0  0  0  0  0  0  0
   48.8192   34.2644   39.2804 H   0  0  0  0  0  0  0  0  0  0  0  0
   48.7250   32.2030   40.9726 H   0  0  0  0  0  0  0  0  0  0  0  0
   50.2139   32.9524   40.3445 H   0  0  0  0  0  0  0  0  0  0  0  0
   49.3420   32.8251   43.0808 H   0  0  0  0  0  0  0  0  0  0  0  0
   50.7526   33.7163   42.4533 H   0  0  0  0  0  0  0  0  0  0  0  0
   47.9890   34.7125   43.1272 H   0  0  0  0  0  0  0  0  0  0  0  0
   49.5113   35.5657   43.2733 H   0  0  0  0  0  0  0  0  0  0  0  0
   49.6209   35.9966   40.9224 H   0  0  0  0  0  0  0  0  0  0  0  0
   47.8818   36.1276   41.2224 H   0  0  0  0  0  0  0  0  0  0  0  0
   47.1134   32.8277   38.4716 H   0  0  0  0  0  0  0  0  0  0  0  0
   44.6135   32.4797   38.4185 H   0  0  0  0  0  0  0  0  0  0  0  0
   43.8293   34.1748   43.0207 H   0  0  0  0  0  0  0  0  0  0  0  0
   42.0985   35.7773   42.4734 H   0  0  0  0  0  0  0  0  0  0  0  0
   43.0194   36.3663   41.0480 H   0  0  0  0  0  0  0  0  0  0  0  0
   42.3278   34.7085   41.0480 H   0  0  0  0  0  0  0  0  0  0  0  0
   44.7548   35.9462   44.0473 H   0  0  0  0  0  0  0  0  0  0  0  0
   45.8901   36.0248   42.6575 H   0  0  0  0  0  0  0  0  0  0  0  0
   44.3996   37.0274   42.6575 H   0  0  0  0  0  0  0  0  0  0  0  0
  1  2  1  0
  1  5  1  0
  2  3  1  0
  3  4  1  0
  5  4  1  0
  6  1  1  0
  6 11  1  0
  7  6  2  0
  8  7  1  0
  8  9  2  0
  9 10  1  0
 10 11  2  0
 10 12  1  0
 12 14  1  0
 13 12  1  0
  1 15  1  0
  2 16  1  0
  2 17  1  0
  3 18  1  0
  3 19  1  0
  4 20  1  0
  4 21  1  0
  5 22  1  0
  5 23  1  0
  7 24  1  0
  8 25  1  0
 12 26  1  0
 13 27  1  0
 13 28  1  0
 13 29  1  0
 14 30  1  0
 14 31  1  0
 14 32  1  0
M  ISO  8  15  13  16  13  17  13  18  13  19  13  20  13  21  13  22  13
M  ISO  8  23  13  24  14  25  14  26   8  27   8  28   8  29   8  30   8
M  ISO  2  31   8  32   8
M  END
>  <minimizedAffinity>  (1) 
-4.22009134

>  <minimizedRMSD>  (1) 
3.18049121

$$$$
