
     RDKit          3D

 30 32  0  0  0  0  0  0  0  0999 V2000
   47.7600   35.1550   41.6610 C   0  0  0  0  0  0  0  0  0  0  0  0
   49.1010   35.7320   41.6990 C   0  0  0  0  0  0  0  0  0  0  0  0
   49.9990   34.7770   42.4890 C   0  0  0  0  0  0  0  0  0  0  0  0
   49.1740   33.5550   42.8230 C   0  0  0  0  0  0  0  0  0  0  0  0
   47.7810   34.0660   42.7750 C   0  0  0  0  0  0  0  0  0  0  0  0
   47.3480   34.4530   40.4380 C   0  0  0  0  0  0  0  0  0  0  0  0
   48.2230   34.4340   39.3380 C   0  0  0  0  0  0  0  0  0  0  0  0
   47.8590   33.7520   38.1760 C   0  0  0  0  0  0  0  0  0  0  0  0
   46.6340   33.1280   38.1910 N   0  0  0  0  0  0  0  0  0  0  0  0
   45.8140   33.1650   39.2670 C   0  0  0  0  0  0  0  0  0  0  0  0
   46.1710   33.8210   40.3740 N   0  0  0  0  0  0  0  0  0  0  0  0
   44.4950   32.4580   39.1970 C   0  0  0  0  0  0  0  0  0  0  0  0
   43.8810   32.1240   37.9100 C   0  0  0  0  0  0  0  0  0  0  0  0
   43.3940   33.3470   38.6580 C   0  0  0  0  0  0  0  0  0  0  0  0
   47.0587   35.9967   41.7595 H   0  0  0  0  0  0  0  0  0  0  0  0
   49.4874   35.8485   40.6757 H   0  0  0  0  0  0  0  0  0  0  0  0
   49.0796   36.7227   42.1765 H   0  0  0  0  0  0  0  0  0  0  0  0
   50.8689   34.4888   41.8806 H   0  0  0  0  0  0  0  0  0  0  0  0
   50.3682   35.2595   43.4060 H   0  0  0  0  0  0  0  0  0  0  0  0
   49.3285   32.7590   42.0797 H   0  0  0  0  0  0  0  0  0  0  0  0
   49.4372   33.1073   43.7927 H   0  0  0  0  0  0  0  0  0  0  0  0
   47.5017   34.5053   43.7440 H   0  0  0  0  0  0  0  0  0  0  0  0
   47.0636   33.2596   42.5630 H   0  0  0  0  0  0  0  0  0  0  0  0
   49.1905   34.9545   39.3928 H   0  0  0  0  0  0  0  0  0  0  0  0
   48.5170   33.7157   37.2953 H   0  0  0  0  0  0  0  0  0  0  0  0
   44.6935   31.8379   40.0836 H   0  0  0  0  0  0  0  0  0  0  0  0
   43.2323   31.2396   37.8266 H   0  0  0  0  0  0  0  0  0  0  0  0
   44.2659   31.9427   36.8956 H   0  0  0  0  0  0  0  0  0  0  0  0
   43.6263   34.3556   38.2854 H   0  0  0  0  0  0  0  0  0  0  0  0
   42.4244   33.7148   39.0250 H   0  0  0  0  0  0  0  0  0  0  0  0
  1  2  1  0
  1  5  1  0
  2  3  1  0
  3  4  1  0
  5  4  1  0
  6  1  1  0
  7  6  2  0
  8  9  2  0
  8  7  1  0
  9 10  1  0
 10 11  2  0
 11  6  1  0
 12 10  1  0
 13 14  1  0
 13 12  1  0
 14 12  1  0
  1 15  1  0
  2 16  1  0
  2 17  1  0
  3 18  1  0
  3 19  1  0
  4 20  1  0
  4 21  1  0
  5 22  1  0
  5 23  1  0
  7 24  1  0
  8 25  1  0
 12 26  1  0
 13 27  1  0
 13 28  1  0
 14 29  1  0
 14 30  1  0
M  ISO  8  15  13  16  13  17  13  18  13  19  13  20  13  21  13  22  13
M  ISO  8  23  13  24  14  25  14  26  13  27  13  28  13  29  13  30  13
M  END
>  <minimizedAffinity>  (1) 
-4.16183376

>  <minimizedRMSD>  (1) 
3.83195853

$$$$
