
     RDKit          3D

 30 32  0  0  0  0  0  0  0  0999 V2000
   46.4010   32.9420   38.0730 C   0  0  0  0  0  0  0  0  0  0  0  0
   45.4610   32.1600   38.7810 C   0  0  0  0  0  0  0  0  0  0  0  0
   45.4540   32.1860   40.1750 C   0  0  0  0  0  0  0  0  0  0  0  0
   46.3890   32.9980   40.7750 N   0  0  0  0  0  0  0  0  0  0  0  0
   47.2730   33.7340   40.0730 C   0  0  0  0  0  0  0  0  0  0  0  0
   47.2760   33.7060   38.7350 N   0  0  0  0  0  0  0  0  0  0  0  0
   46.4080   32.8890   36.6040 C   0  0  0  0  0  0  0  0  0  0  0  0
   45.7740   31.7400   35.9630 C   0  0  0  0  0  0  0  0  0  0  0  0
   46.8740   30.7650   35.5500 C   0  0  0  0  0  0  0  0  0  0  0  0
   48.1770   31.3110   36.0780 C   0  0  0  0  0  0  0  0  0  0  0  0
   47.9100   32.7660   36.2090 C   0  0  0  0  0  0  0  0  0  0  0  0
   48.1920   34.5380   40.8690 C   0  0  0  0  0  0  0  0  0  0  0  0
   48.7270   33.9430   41.9940 C   0  0  0  0  0  0  0  0  0  0  0  0
   49.5640   34.8570   42.6040 C   0  0  0  0  0  0  0  0  0  0  0  0
   49.4890   35.9870   41.7940 C   0  0  0  0  0  0  0  0  0  0  0  0
   48.6670   35.7620   40.7770 O   0  0  0  0  0  0  0  0  0  0  0  0
   44.7390   31.5344   38.2357 H   0  0  0  0  0  0  0  0  0  0  0  0
   44.7403   31.5902   40.7629 H   0  0  0  0  0  0  0  0  0  0  0  0
   45.8464   33.7761   36.2758 H   0  0  0  0  0  0  0  0  0  0  0  0
   45.0869   31.2506   36.6689 H   0  0  0  0  0  0  0  0  0  0  0  0
   45.1983   32.0624   35.0829 H   0  0  0  0  0  0  0  0  0  0  0  0
   46.6790   29.7723   35.9818 H   0  0  0  0  0  0  0  0  0  0  0  0
   46.9105   30.6590   34.4557 H   0  0  0  0  0  0  0  0  0  0  0  0
   48.4241   30.8664   37.0533 H   0  0  0  0  0  0  0  0  0  0  0  0
   49.0334   31.0877   35.4247 H   0  0  0  0  0  0  0  0  0  0  0  0
   48.5485   33.2036   36.9905 H   0  0  0  0  0  0  0  0  0  0  0  0
   48.1276   33.3030   35.2740 H   0  0  0  0  0  0  0  0  0  0  0  0
   48.5226   32.9202   42.3434 H   0  0  0  0  0  0  0  0  0  0  0  0
   50.1556   34.7226   43.5216 H   0  0  0  0  0  0  0  0  0  0  0  0
   50.0312   36.9276   41.9711 H   0  0  0  0  0  0  0  0  0  0  0  0
  1  6  1  0
  1  2  2  0
  2  3  1  0
  3  4  2  0
  5  4  1  0
  5 12  1  0
  6  5  2  0
  7  1  1  0
  8  7  1  0
  9  8  1  0
  9 10  1  0
 10 11  1  0
 11  7  1  0
 12 13  2  0
 13 14  1  0
 15 14  2  0
 16 12  1  0
 16 15  1  0
  2 17  1  0
  3 18  1  0
  7 19  1  0
  8 20  1  0
  8 21  1  0
  9 22  1  0
  9 23  1  0
 10 24  1  0
 10 25  1  0
 11 26  1  0
 11 27  1  0
 13 28  1  0
 14 29  1  0
 15 30  1  0
M  ISO  8  17  14  18  14  19  13  20  13  21  13  22  13  23  13  24  13
M  ISO  6  25  13  26  13  27  13  28  14  29  14  30  14
M  END
>  <minimizedAffinity>  (1) 
-3.52906322

>  <minimizedRMSD>  (1) 
6.16353846

$$$$
