
     RDKit          3D

 32 34  0  0  1  0  0  0  0  0999 V2000
   44.5690   35.3960   45.0000 C   0  0  0  0  0  0  0  0  0  0  0  0
   44.8730   36.4910   44.1650 C   0  0  0  0  0  0  0  0  0  0  0  0
   45.6710   36.2700   43.0550 C   0  0  0  0  0  0  0  0  0  0  0  0
   46.1060   35.0130   42.8530 N   0  0  0  0  0  0  0  0  0  0  0  0
   45.8180   33.9760   43.6460 C   0  0  0  0  0  0  0  0  0  0  0  0
   45.0490   34.1590   44.7250 N   0  0  0  0  0  0  0  0  0  0  0  0
   46.3430   32.6760   43.3410 N   0  0  0  0  0  0  0  0  0  0  0  0
   46.0230   31.5550   44.2560 C   0  0  0  0  0  0  0  0  0  0  0  0
   47.1080   30.5250   44.2860 C   0  0  0  0  0  0  0  0  0  0  0  0
   48.4040   31.1780   43.8180 C   0  0  0  0  0  0  0  0  0  0  0  0
   48.1580   31.3970   42.3270 C   0  0  0  0  0  0  0  0  0  0  0  0
   47.1640   32.4830   42.1610 C   0  0  2  0  0  0  0  0  0  0  0  0
   47.9350   33.7560   41.8670 C   0  0  0  0  0  0  0  0  0  0  0  0
   47.9430   34.6330   40.8210 C   0  0  0  0  0  0  0  0  0  0  0  0
   48.8500   35.6410   41.0650 C   0  0  0  0  0  0  0  0  0  0  0  0
   49.3740   35.3330   42.2820 C   0  0  0  0  0  0  0  0  0  0  0  0
   48.8310   34.2470   42.7170 O   0  0  0  0  0  0  0  0  0  0  0  0
   43.9344   35.5479   45.8855 H   0  0  0  0  0  0  0  0  0  0  0  0
   44.4859   37.4958   44.3898 H   0  0  0  0  0  0  0  0  0  0  0  0
   45.9377   37.0868   42.3682 H   0  0  0  0  0  0  0  0  0  0  0  0
   45.8851   31.9545   45.2716 H   0  0  0  0  0  0  0  0  0  0  0  0
   45.1061   31.0702   43.8897 H   0  0  0  0  0  0  0  0  0  0  0  0
   47.2321   30.1457   45.3111 H   0  0  0  0  0  0  0  0  0  0  0  0
   46.8489   29.6836   43.6265 H   0  0  0  0  0  0  0  0  0  0  0  0
   48.5747   32.1337   44.3353 H   0  0  0  0  0  0  0  0  0  0  0  0
   49.2963   30.5692   44.0257 H   0  0  0  0  0  0  0  0  0  0  0  0
   49.1001   31.6798   41.8346 H   0  0  0  0  0  0  0  0  0  0  0  0
   47.7787   30.4706   41.8710 H   0  0  0  0  0  0  0  0  0  0  0  0
   46.4788   32.2157   41.3431 H   0  0  0  0  0  0  0  0  0  0  0  0
   47.3192   34.5478   39.9190 H   0  0  0  0  0  0  0  0  0  0  0  0
   49.0947   36.4994   40.4221 H   0  0  0  0  0  0  0  0  0  0  0  0
   50.1402   35.9181   42.8117 H   0  0  0  0  0  0  0  0  0  0  0  0
  2  1  2  0
  3  2  1  0
  4  3  2  0
  4  5  1  0
  5  6  2  0
  6  1  1  0
  7  5  1  0
  7  8  1  0
  8  9  1  0
 10  9  1  0
 11 10  1  0
 12 11  1  0
 12  7  1  0
 13 12  1  0
 13 17  1  0
 14 15  1  0
 14 13  2  0
 15 16  2  0
 16 17  1  0
  1 18  1  0
  2 19  1  0
  3 20  1  0
  8 21  1  0
  8 22  1  0
  9 23  1  0
  9 24  1  0
 10 25  1  0
 10 26  1  0
 11 27  1  0
 11 28  1  0
 12 29  1  6
 14 30  1  0
 15 31  1  0
 16 32  1  0
M  ISO  8  18  14  19  14  20  14  21  13  22  13  23  13  24  13  25  13
M  ISO  7  26  13  27  13  28  13  29  13  30  14  31  14  32  14
M  END
>  <minimizedAffinity>  (1) 
-4.68704891

>  <minimizedRMSD>  (1) 
3.19901514

$$$$
