
     RDKit          3D

 27 28  0  0  1  0  0  0  0  0999 V2000
   44.5240   35.9950   44.8460 C   0  0  0  0  0  0  0  0  0  0  0  0
   45.0770   35.9640   43.5500 C   0  0  0  0  0  0  0  0  0  0  0  0
   45.8560   34.8760   43.2000 C   0  0  0  0  0  0  0  0  0  0  0  0
   46.0570   33.8950   44.1000 N   0  0  0  0  0  0  0  0  0  0  0  0
   45.5170   33.9460   45.3410 C   0  0  0  0  0  0  0  0  0  0  0  0
   44.7570   34.9870   45.7070 N   0  0  0  0  0  0  0  0  0  0  0  0
   45.7520   32.8810   46.2900 N   0  0  0  0  0  0  0  0  0  0  0  0
   45.1780   32.9470   47.6200 C   0  0  0  0  0  0  0  0  0  0  0  0
   46.0500   32.3030   48.6540 C   0  0  0  0  0  0  0  0  0  0  0  0
   47.4520   32.2030   48.1310 C   0  0  0  0  0  0  0  0  0  0  0  0
   47.4020   31.2060   46.9900 C   0  0  0  0  0  0  0  0  0  0  0  0
   46.5710   31.7510   45.8840 C   0  0  2  0  0  0  0  0  0  0  0  0
   47.3880   32.0990   44.6830 C   0  0  0  0  0  0  0  0  0  0  0  0
   47.7960   31.4000   43.7690 O   0  0  0  0  0  0  0  0  0  0  0  0
   43.8996   36.8462   45.1550 H   0  0  0  0  0  0  0  0  0  0  0  0
   44.8943   36.7817   42.8372 H   0  0  0  0  0  0  0  0  0  0  0  0
   46.3060   34.8129   42.1982 H   0  0  0  0  0  0  0  0  0  0  0  0
   45.0328   34.0036   47.8895 H   0  0  0  0  0  0  0  0  0  0  0  0
   44.2239   32.3999   47.5997 H   0  0  0  0  0  0  0  0  0  0  0  0
   46.0427   32.9111   49.5706 H   0  0  0  0  0  0  0  0  0  0  0  0
   45.6695   31.2960   48.8801 H   0  0  0  0  0  0  0  0  0  0  0  0
   47.7952   33.1829   47.7676 H   0  0  0  0  0  0  0  0  0  0  0  0
   48.1530   31.8825   48.9158 H   0  0  0  0  0  0  0  0  0  0  0  0
   48.4220   31.0189   46.6230 H   0  0  0  0  0  0  0  0  0  0  0  0
   46.9597   30.2646   47.3481 H   0  0  0  0  0  0  0  0  0  0  0  0
   45.8852   30.9368   45.6070 H   0  0  0  0  0  0  0  0  0  0  0  0
   47.6683   33.1602   44.6100 H   0  0  0  0  0  0  0  0  0  0  0  0
  1  6  2  0
  2  1  1  0
  3  2  2  0
  3  4  1  0
  4  5  2  0
  5  6  1  0
  5  7  1  0
  7  8  1  0
  8  9  1  0
 10  9  1  0
 11 10  1  0
 12  7  1  0
 12 11  1  0
 13 12  1  0
 14 13  2  0
  1 15  1  0
  2 16  1  0
  3 17  1  0
  8 18  1  0
  8 19  1  0
  9 20  1  0
  9 21  1  0
 10 22  1  0
 10 23  1  0
 11 24  1  0
 11 25  1  0
 12 26  1  6
 13 27  1  0
M  ISO  8  15  14  16  14  17  14  18  13  19  13  20  13  21  13  22  13
M  ISO  5  23  13  24  13  25  13  26  13  27   6
M  END
>  <minimizedAffinity>  (1) 
-4.65282679

>  <minimizedRMSD>  (1) 
0.290113658

$$$$
