
     RDKit          3D

 35 37  0  0  0  0  0  0  0  0999 V2000
   48.3950   34.1010   40.6470 C   0  0  0  0  0  0  0  0  0  0  0  0
   49.1700   32.9190   40.6540 C   0  0  0  0  0  0  0  0  0  0  0  0
   49.4110   32.2180   39.4690 C   0  0  0  0  0  0  0  0  0  0  0  0
   48.8520   32.7550   38.3420 N   0  0  0  0  0  0  0  0  0  0  0  0
   48.1070   33.8990   38.3640 C   0  0  0  0  0  0  0  0  0  0  0  0
   47.8870   34.5600   39.5100 N   0  0  0  0  0  0  0  0  0  0  0  0
   47.5520   34.4060   37.1460 N   0  0  0  0  0  0  0  0  0  0  0  0
   50.1830   31.0250   39.4250 N   0  0  0  0  0  0  0  0  0  0  0  0
   49.6500   29.9880   38.7290 C   0  0  0  0  0  0  0  0  0  0  0  0
   50.3030   28.7750   38.6110 C   0  0  0  0  0  0  0  0  0  0  0  0
   51.5200   28.7320   39.2580 C   0  0  0  0  0  0  0  0  0  0  0  0
   52.1940   27.6570   39.2050 O   0  0  0  0  0  0  0  0  0  0  0  0
   52.0880   29.7290   39.9570 N   0  0  0  0  0  0  0  0  0  0  0  0
   51.3800   30.8790   40.0210 C   0  0  0  0  0  0  0  0  0  0  0  0
   51.8490   31.8650   40.6630 O   0  0  0  0  0  0  0  0  0  0  0  0
   48.1610   34.7850   41.9130 C   0  0  0  0  0  0  0  0  0  0  0  0
   48.4650   34.1400   43.1550 C   0  0  0  0  0  0  0  0  0  0  0  0
   47.1690   33.5370   43.7240 C   0  0  0  0  0  0  0  0  0  0  0  0
   46.0750   33.8090   42.7120 C   0  0  0  0  0  0  0  0  0  0  0  0
   46.5910   34.9640   41.9680 C   0  0  0  0  0  0  0  0  0  0  0  0
   49.5876   32.5471   41.6013 H   0  0  0  0  0  0  0  0  0  0  0  0
   46.9891   35.2685   37.1563 H   0  0  0  0  0  0  0  0  0  0  0  0
   47.7155   33.9083   36.2592 H   0  0  0  0  0  0  0  0  0  0  0  0
   48.6705   30.1167   38.2451 H   0  0  0  0  0  0  0  0  0  0  0  0
   49.8896   27.9224   38.0522 H   0  0  0  0  0  0  0  0  0  0  0  0
   53.0046   29.6239   40.4150 H   0  0  0  0  0  0  0  0  0  0  0  0
   48.8313   35.6565   41.8767 H   0  0  0  0  0  0  0  0  0  0  0  0
   49.2029   33.3417   42.9873 H   0  0  0  0  0  0  0  0  0  0  0  0
   48.8841   34.8686   43.8646 H   0  0  0  0  0  0  0  0  0  0  0  0
   47.2883   32.4533   43.8698 H   0  0  0  0  0  0  0  0  0  0  0  0
   46.9227   33.9826   44.6991 H   0  0  0  0  0  0  0  0  0  0  0  0
   45.9277   32.9448   42.0476 H   0  0  0  0  0  0  0  0  0  0  0  0
   45.0943   33.9949   43.1742 H   0  0  0  0  0  0  0  0  0  0  0  0
   46.3314   35.8988   42.4863 H   0  0  0  0  0  0  0  0  0  0  0  0
   46.1573   35.0179   40.9586 H   0  0  0  0  0  0  0  0  0  0  0  0
  1  2  2  0
  1 16  1  0
  3  2  1  0
  4  5  1  0
  4  3  2  0
  5  6  2  0
  6  1  1  0
  7  5  1  0
  8  3  1  0
  8 14  1  0
  9  8  1  0
 10  9  2  0
 10 11  1  0
 11 13  1  0
 12 11  2  0
 13 14  1  0
 14 15  2  0
 16 20  1  0
 16 17  1  0
 17 18  1  0
 19 18  1  0
 20 19  1  0
  2 21  1  0
  7 22  1  0
  7 23  1  0
  9 24  1  0
 10 25  1  0
 13 26  1  0
 16 27  1  0
 17 28  1  0
 17 29  1  0
 18 30  1  0
 18 31  1  0
 19 32  1  0
 19 33  1  0
 20 34  1  0
 20 35  1  0
M  ISO  8  21  14  24  14  25  14  26   9  27  13  28  13  29  13  30  13
M  ISO  5  31  13  32  13  33  13  34  13  35  13
M  END
>  <minimizedAffinity>  (1) 
-4.57326889

>  <minimizedRMSD>  (1) 
0.367613733

$$$$
