
     RDKit          3D

 31 33  0  0  0  0  0  0  0  0999 V2000
   48.3910   34.0990   40.6520 C   0  0  0  0  0  0  0  0  0  0  0  0
   49.1450   32.9030   40.6910 C   0  0  0  0  0  0  0  0  0  0  0  0
   49.3950   32.2030   39.5210 C   0  0  0  0  0  0  0  0  0  0  0  0
   48.8810   32.7320   38.3730 N   0  0  0  0  0  0  0  0  0  0  0  0
   48.1590   33.8870   38.3620 C   0  0  0  0  0  0  0  0  0  0  0  0
   47.9150   34.5710   39.5060 N   0  0  0  0  0  0  0  0  0  0  0  0
   47.6240   34.4210   37.1500 N   0  0  0  0  0  0  0  0  0  0  0  0
   50.1440   30.9950   39.4850 N   0  0  0  0  0  0  0  0  0  0  0  0
   51.4900   31.0290   39.2970 C   0  0  0  0  0  0  0  0  0  0  0  0
   51.9410   29.7580   39.3060 N   0  0  0  0  0  0  0  0  0  0  0  0
   50.8460   28.9720   39.5000 C   0  0  0  0  0  0  0  0  0  0  0  0
   49.7570   29.7350   39.6080 N   0  0  0  0  0  0  0  0  0  0  0  0
   48.1300   34.7920   41.9120 C   0  0  0  0  0  0  0  0  0  0  0  0
   48.4180   34.1580   43.1670 C   0  0  0  0  0  0  0  0  0  0  0  0
   47.1270   33.5320   43.7200 C   0  0  0  0  0  0  0  0  0  0  0  0
   46.0380   33.8060   42.6900 C   0  0  0  0  0  0  0  0  0  0  0  0
   46.5690   34.9690   41.9650 C   0  0  0  0  0  0  0  0  0  0  0  0
   49.5330   32.5284   41.6497 H   0  0  0  0  0  0  0  0  0  0  0  0
   47.0813   35.2962   37.1682 H   0  0  0  0  0  0  0  0  0  0  0  0
   47.7809   33.9308   36.2578 H   0  0  0  0  0  0  0  0  0  0  0  0
   52.1025   31.9326   39.1616 H   0  0  0  0  0  0  0  0  0  0  0  0
   50.8577   27.8736   39.5588 H   0  0  0  0  0  0  0  0  0  0  0  0
   48.7972   35.6651   41.8620 H   0  0  0  0  0  0  0  0  0  0  0  0
   49.1742   33.3731   43.0186 H   0  0  0  0  0  0  0  0  0  0  0  0
   48.8046   34.9021   43.8790 H   0  0  0  0  0  0  0  0  0  0  0  0
   47.2579   32.4483   43.8556 H   0  0  0  0  0  0  0  0  0  0  0  0
   46.8652   33.9595   44.6992 H   0  0  0  0  0  0  0  0  0  0  0  0
   45.9023   32.9465   42.0171 H   0  0  0  0  0  0  0  0  0  0  0  0
   45.0480   33.9826   43.1359 H   0  0  0  0  0  0  0  0  0  0  0  0
   46.3102   35.8973   42.4954 H   0  0  0  0  0  0  0  0  0  0  0  0
   46.1429   35.0335   40.9529 H   0  0  0  0  0  0  0  0  0  0  0  0
  1  2  2  0
  1 13  1  0
  3  2  1  0
  4  3  2  0
  5  4  1  0
  5  6  2  0
  6  1  1  0
  7  5  1  0
  8  3  1  0
  8 12  1  0
  9 10  2  0
  9  8  1  0
 10 11  1  0
 11 12  2  0
 13 17  1  0
 13 14  1  0
 14 15  1  0
 16 15  1  0
 17 16  1  0
  2 18  1  0
  7 19  1  0
  7 20  1  0
  9 21  1  0
 11 22  1  0
 13 23  1  0
 14 24  1  0
 14 25  1  0
 15 26  1  0
 15 27  1  0
 16 28  1  0
 16 29  1  0
 17 30  1  0
 17 31  1  0
M  ISO  8  18  14  21  14  22  14  23  13  24  13  25  13  26  13  27  13
M  ISO  4  28  13  29  13  30  13  31  13
M  END
>  <minimizedAffinity>  (1) 
-4.24611282

>  <minimizedRMSD>  (1) 
0.261144042

$$$$
