
     RDKit          3D

 33 35  0  0  0  0  0  0  0  0999 V2000
   48.4520   34.0790   40.6240 C   0  0  0  0  0  0  0  0  0  0  0  0
   49.1100   32.8300   40.6380 C   0  0  0  0  0  0  0  0  0  0  0  0
   49.2970   32.1410   39.4490 C   0  0  0  0  0  0  0  0  0  0  0  0
   48.8180   32.7360   38.3100 N   0  0  0  0  0  0  0  0  0  0  0  0
   48.1880   33.9360   38.3250 C   0  0  0  0  0  0  0  0  0  0  0  0
   48.0030   34.6150   39.4900 N   0  0  0  0  0  0  0  0  0  0  0  0
   47.6940   34.5220   37.1320 N   0  0  0  0  0  0  0  0  0  0  0  0
   48.2510   34.7650   41.8980 C   0  0  0  0  0  0  0  0  0  0  0  0
   48.5530   34.1140   43.1380 C   0  0  0  0  0  0  0  0  0  0  0  0
   47.2630   33.5140   43.7220 C   0  0  0  0  0  0  0  0  0  0  0  0
   46.1540   33.8340   42.7280 C   0  0  0  0  0  0  0  0  0  0  0  0
   46.6950   34.9870   41.9980 C   0  0  0  0  0  0  0  0  0  0  0  0
   49.9530   30.8510   39.2880 C   0  0  0  0  0  0  0  0  0  0  0  0
   51.2210   30.7370   38.7640 C   0  0  0  0  0  0  0  0  0  0  0  0
   51.9040   29.5390   38.5820 C   0  0  0  0  0  0  0  0  0  0  0  0
   51.2450   28.4040   38.9610 N   0  0  0  0  0  0  0  0  0  0  0  0
   49.9880   28.5230   39.4810 C   0  0  0  0  0  0  0  0  0  0  0  0
   49.3800   29.7110   39.6310 N   0  0  0  0  0  0  0  0  0  0  0  0
   49.4721   32.4059   41.5862 H   0  0  0  0  0  0  0  0  0  0  0  0
   47.2181   35.4349   37.1653 H   0  0  0  0  0  0  0  0  0  0  0  0
   47.8110   34.0348   36.2321 H   0  0  0  0  0  0  0  0  0  0  0  0
   48.9458   35.6156   41.8362 H   0  0  0  0  0  0  0  0  0  0  0  0
   49.2855   33.3121   42.9636 H   0  0  0  0  0  0  0  0  0  0  0  0
   48.9742   34.8437   43.8453 H   0  0  0  0  0  0  0  0  0  0  0  0
   47.3679   32.4252   43.8380 H   0  0  0  0  0  0  0  0  0  0  0  0
   47.0420   33.9316   44.7154 H   0  0  0  0  0  0  0  0  0  0  0  0
   45.9718   32.9863   42.0511 H   0  0  0  0  0  0  0  0  0  0  0  0
   45.1849   34.0373   43.2070 H   0  0  0  0  0  0  0  0  0  0  0  0
   46.4784   35.9174   42.5434 H   0  0  0  0  0  0  0  0  0  0  0  0
   46.2412   35.0735   40.9997 H   0  0  0  0  0  0  0  0  0  0  0  0
   51.7331   31.6640   38.4666 H   0  0  0  0  0  0  0  0  0  0  0  0
   52.9180   29.5073   38.1567 H   0  0  0  0  0  0  0  0  0  0  0  0
   49.4536   27.6120   39.7884 H   0  0  0  0  0  0  0  0  0  0  0  0
  1  2  2  0
  1  8  1  0
  3  2  1  0
  4  5  1  0
  4  3  2  0
  5  6  2  0
  6  1  1  0
  7  5  1  0
  8 12  1  0
  8  9  1  0
  9 10  1  0
 11 10  1  0
 12 11  1  0
 13  3  1  0
 13 18  1  0
 14 13  2  0
 15 14  1  0
 15 16  2  0
 16 17  1  0
 17 18  2  0
  2 19  1  0
  7 20  1  0
  7 21  1  0
  8 22  1  0
  9 23  1  0
  9 24  1  0
 10 25  1  0
 10 26  1  0
 11 27  1  0
 11 28  1  0
 12 29  1  0
 12 30  1  0
 14 31  1  0
 15 32  1  0
 17 33  1  0
M  ISO  8  19  14  22  13  23  13  24  13  25  13  26  13  27  13  28  13
M  ISO  5  29  13  30  13  31  14  32  14  33  14
M  END
>  <minimizedAffinity>  (1) 
-4.0483923

>  <minimizedRMSD>  (1) 
0.076353386

$$$$
