
     RDKit          3D

 28 29  0  0  0  0  0  0  0  0999 V2000
   48.1670   34.7910   41.9330 C   0  0  0  0  0  0  0  0  0  0  0  0
   48.4380   34.1380   43.1790 C   0  0  0  0  0  0  0  0  0  0  0  0
   47.1330   33.5460   43.7320 C   0  0  0  0  0  0  0  0  0  0  0  0
   46.0530   33.8500   42.7030 C   0  0  0  0  0  0  0  0  0  0  0  0
   46.6030   34.9950   41.9720 C   0  0  0  0  0  0  0  0  0  0  0  0
   48.4050   34.0990   40.6690 C   0  0  0  0  0  0  0  0  0  0  0  0
   49.1470   32.9020   40.6930 C   0  0  0  0  0  0  0  0  0  0  0  0
   49.3900   32.1890   39.5110 C   0  0  0  0  0  0  0  0  0  0  0  0
   48.8650   32.7380   38.3770 N   0  0  0  0  0  0  0  0  0  0  0  0
   48.1490   33.9010   38.3830 C   0  0  0  0  0  0  0  0  0  0  0  0
   47.9240   34.5720   39.5220 N   0  0  0  0  0  0  0  0  0  0  0  0
   47.6250   34.4200   37.1540 N   0  0  0  0  0  0  0  0  0  0  0  0
   50.1660   30.9230   39.4800 C   0  0  0  0  0  0  0  0  0  0  0  0
   49.9620   30.2750   38.2820 F   0  0  0  0  0  0  0  0  0  0  0  0
   49.8560   30.1330   40.5730 F   0  0  0  0  0  0  0  0  0  0  0  0
   51.5340   31.1590   39.5840 F   0  0  0  0  0  0  0  0  0  0  0  0
   48.8532   35.6502   41.9018 H   0  0  0  0  0  0  0  0  0  0  0  0
   49.1698   33.3321   43.0207 H   0  0  0  0  0  0  0  0  0  0  0  0
   48.8478   34.8645   43.8961 H   0  0  0  0  0  0  0  0  0  0  0  0
   47.2353   32.4590   43.8663 H   0  0  0  0  0  0  0  0  0  0  0  0
   46.8829   33.9783   44.7121 H   0  0  0  0  0  0  0  0  0  0  0  0
   45.8941   32.9927   42.0323 H   0  0  0  0  0  0  0  0  0  0  0  0
   45.0714   34.0564   43.1546 H   0  0  0  0  0  0  0  0  0  0  0  0
   46.3547   35.9324   42.4913 H   0  0  0  0  0  0  0  0  0  0  0  0
   46.1842   35.0577   40.9568 H   0  0  0  0  0  0  0  0  0  0  0  0
   49.5394   32.5232   41.6483 H   0  0  0  0  0  0  0  0  0  0  0  0
   47.0845   35.2968   37.1541 H   0  0  0  0  0  0  0  0  0  0  0  0
   47.7890   33.9162   36.2707 H   0  0  0  0  0  0  0  0  0  0  0  0
  1  5  1  0
  1  2  1  0
  2  3  1  0
  4  3  1  0
  5  4  1  0
  6  7  2  0
  6  1  1  0
  8  7  1  0
  9 10  1  0
  9  8  2  0
 10 11  2  0
 11  6  1  0
 12 10  1  0
 13  8  1  0
 13 16  1  0
 13 15  1  0
 14 13  1  0
  1 17  1  0
  2 18  1  0
  2 19  1  0
  3 20  1  0
  3 21  1  0
  4 22  1  0
  4 23  1  0
  5 24  1  0
  5 25  1  0
  7 26  1  0
 12 27  1  0
 12 28  1  0
M  ISO  8  17  13  18  13  19  13  20  13  21  13  22  13  23  13  24  13
M  ISO  2  25  13  26  14
M  END
>  <minimizedAffinity>  (1) 
-3.97464204

>  <minimizedRMSD>  (1) 
0.194907069

$$$$
