
     RDKit          3D

 34 35  0  0  0  0  0  0  0  0999 V2000
   48.1710   34.7820   41.9220 C   0  0  0  0  0  0  0  0  0  0  0  0
   48.4470   34.1410   43.1720 C   0  0  0  0  0  0  0  0  0  0  0  0
   47.1430   33.5460   43.7280 C   0  0  0  0  0  0  0  0  0  0  0  0
   46.0590   33.8440   42.7070 C   0  0  0  0  0  0  0  0  0  0  0  0
   46.6080   34.9870   41.9660 C   0  0  0  0  0  0  0  0  0  0  0  0
   48.4120   34.0850   40.6600 C   0  0  0  0  0  0  0  0  0  0  0  0
   49.1540   32.8810   40.6870 C   0  0  0  0  0  0  0  0  0  0  0  0
   49.3900   32.1780   39.5100 C   0  0  0  0  0  0  0  0  0  0  0  0
   48.8670   32.7260   38.3680 N   0  0  0  0  0  0  0  0  0  0  0  0
   48.1540   33.8910   38.3730 C   0  0  0  0  0  0  0  0  0  0  0  0
   47.9290   34.5670   39.5210 N   0  0  0  0  0  0  0  0  0  0  0  0
   47.6290   34.4220   37.1580 N   0  0  0  0  0  0  0  0  0  0  0  0
   50.1610   30.9100   39.4660 C   0  0  0  0  0  0  0  0  0  0  0  0
   51.6410   31.1440   39.6730 C   0  0  0  0  0  0  0  0  0  0  0  0
   49.9810   30.1540   38.1920 C   0  0  0  0  0  0  0  0  0  0  0  0
   48.8562   35.6415   41.8813 H   0  0  0  0  0  0  0  0  0  0  0  0
   49.1834   33.3381   43.0201 H   0  0  0  0  0  0  0  0  0  0  0  0
   48.8541   34.8742   43.8838 H   0  0  0  0  0  0  0  0  0  0  0  0
   47.2489   32.4594   43.8627 H   0  0  0  0  0  0  0  0  0  0  0  0
   46.8951   33.9807   44.7076 H   0  0  0  0  0  0  0  0  0  0  0  0
   45.8952   32.9834   42.0417 H   0  0  0  0  0  0  0  0  0  0  0  0
   45.0799   34.0529   43.1628 H   0  0  0  0  0  0  0  0  0  0  0  0
   46.3623   35.9274   42.4811 H   0  0  0  0  0  0  0  0  0  0  0  0
   46.1853   35.0443   40.9521 H   0  0  0  0  0  0  0  0  0  0  0  0
   49.5456   32.4995   41.6415 H   0  0  0  0  0  0  0  0  0  0  0  0
   47.0923   35.3010   37.1696 H   0  0  0  0  0  0  0  0  0  0  0  0
   47.7865   33.9265   36.2689 H   0  0  0  0  0  0  0  0  0  0  0  0
   49.7545   30.3069   40.2913 H   0  0  0  0  0  0  0  0  0  0  0  0
   51.8596   31.1786   40.7505 H   0  0  0  0  0  0  0  0  0  0  0  0
   52.2101   30.3247   39.2095 H   0  0  0  0  0  0  0  0  0  0  0  0
   51.9296   32.0989   39.2095 H   0  0  0  0  0  0  0  0  0  0  0  0
   49.7317   29.1070   38.4190 H   0  0  0  0  0  0  0  0  0  0  0  0
   49.1656   30.6069   37.6089 H   0  0  0  0  0  0  0  0  0  0  0  0
   50.9130   30.1909   37.6089 H   0  0  0  0  0  0  0  0  0  0  0  0
  1  5  1  0
  1  2  1  0
  2  3  1  0
  4  3  1  0
  5  4  1  0
  6  7  2  0
  6  1  1  0
  8  7  1  0
  9 10  1  0
  9  8  2  0
 10 11  2  0
 11  6  1  0
 12 10  1  0
 13  8  1  0
 13 14  1  0
 15 13  1  0
  1 16  1  0
  2 17  1  0
  2 18  1  0
  3 19  1  0
  3 20  1  0
  4 21  1  0
  4 22  1  0
  5 23  1  0
  5 24  1  0
  7 25  1  0
 12 26  1  0
 12 27  1  0
 13 28  1  0
 14 29  1  0
 14 30  1  0
 14 31  1  0
 15 32  1  0
 15 33  1  0
 15 34  1  0
M  ISO  8  16  13  17  13  18  13  19  13  20  13  21  13  22  13  23  13
M  ISO  8  24  13  25  14  28   8  29   8  30   8  31   8  32   8  33   8
M  ISO  1  34   8
M  END
>  <minimizedAffinity>  (1) 
-3.94712019

>  <minimizedRMSD>  (1) 
0.18181923

$$$$
