
     RDKit          3D

 32 34  0  0  0  0  0  0  0  0999 V2000
   48.1220   34.7930   41.9170 C   0  0  0  0  0  0  0  0  0  0  0  0
   48.3920   34.1560   43.1720 C   0  0  0  0  0  0  0  0  0  0  0  0
   47.0930   33.5300   43.7080 C   0  0  0  0  0  0  0  0  0  0  0  0
   46.0170   33.8190   42.6790 C   0  0  0  0  0  0  0  0  0  0  0  0
   46.5530   34.9670   41.9430 C   0  0  0  0  0  0  0  0  0  0  0  0
   48.3900   34.0960   40.6610 C   0  0  0  0  0  0  0  0  0  0  0  0
   49.1490   32.9030   40.6990 C   0  0  0  0  0  0  0  0  0  0  0  0
   49.4020   32.2070   39.5280 C   0  0  0  0  0  0  0  0  0  0  0  0
   48.8850   32.7360   38.3760 N   0  0  0  0  0  0  0  0  0  0  0  0
   48.1550   33.8890   38.3580 C   0  0  0  0  0  0  0  0  0  0  0  0
   47.9110   34.5680   39.5120 N   0  0  0  0  0  0  0  0  0  0  0  0
   47.6200   34.4190   37.1600 N   0  0  0  0  0  0  0  0  0  0  0  0
   50.1900   30.9470   39.4900 C   0  0  0  0  0  0  0  0  0  0  0  0
   50.9330   30.5580   38.2700 C   0  0  0  0  0  0  0  0  0  0  0  0
   51.6940   31.0960   39.4490 C   0  0  0  0  0  0  0  0  0  0  0  0
   48.7909   35.6655   41.8819 H   0  0  0  0  0  0  0  0  0  0  0  0
   49.1488   33.3703   43.0311 H   0  0  0  0  0  0  0  0  0  0  0  0
   48.7701   34.8980   43.8907 H   0  0  0  0  0  0  0  0  0  0  0  0
   47.2178   32.4442   43.8321 H   0  0  0  0  0  0  0  0  0  0  0  0
   46.8262   33.9485   44.6897 H   0  0  0  0  0  0  0  0  0  0  0  0
   45.8688   32.9574   42.0114 H   0  0  0  0  0  0  0  0  0  0  0  0
   45.0334   34.0180   43.1295 H   0  0  0  0  0  0  0  0  0  0  0  0
   46.2834   35.9039   42.4523 H   0  0  0  0  0  0  0  0  0  0  0  0
   46.1418   35.0120   40.9238 H   0  0  0  0  0  0  0  0  0  0  0  0
   49.5380   32.5282   41.6572 H   0  0  0  0  0  0  0  0  0  0  0  0
   47.0734   35.2917   37.1819 H   0  0  0  0  0  0  0  0  0  0  0  0
   47.7772   33.9321   36.2661 H   0  0  0  0  0  0  0  0  0  0  0  0
   49.4533   30.4262   40.1193 H   0  0  0  0  0  0  0  0  0  0  0  0
   50.8400   31.1630   37.3561 H   0  0  0  0  0  0  0  0  0  0  0  0
   50.9956   29.6432   37.6623 H   0  0  0  0  0  0  0  0  0  0  0  0
   52.3325   30.4288   40.0465 H   0  0  0  0  0  0  0  0  0  0  0  0
   52.4059   31.9181   39.6146 H   0  0  0  0  0  0  0  0  0  0  0  0
  1  5  1  0
  1  2  1  0
  2  3  1  0
  4  3  1  0
  5  4  1  0
  6  7  2  0
  6  1  1  0
  8  7  1  0
  9  8  2  0
 10  9  1  0
 10 11  2  0
 11  6  1  0
 12 10  1  0
 13  8  1  0
 14 15  1  0
 14 13  1  0
 15 13  1  0
  1 16  1  0
  2 17  1  0
  2 18  1  0
  3 19  1  0
  3 20  1  0
  4 21  1  0
  4 22  1  0
  5 23  1  0
  5 24  1  0
  7 25  1  0
 12 26  1  0
 12 27  1  0
 13 28  1  0
 14 29  1  0
 14 30  1  0
 15 31  1  0
 15 32  1  0
M  ISO  8  16  13  17  13  18  13  19  13  20  13  21  13  22  13  23  13
M  ISO  7  24  13  25  14  28  13  29  13  30  13  31  13  32  13
M  END
>  <minimizedAffinity>  (1) 
-3.94850731

>  <minimizedRMSD>  (1) 
0.377379864

$$$$
