
     RDKit          3D

 46 49  0  0  1  0  0  0  0  0999 V2000
   46.8110   33.1650   40.5800 C   0  0  0  0  0  0  0  0  0  0  0  0
   48.0560   32.5190   40.7520 C   0  0  0  0  0  0  0  0  0  0  0  0
   48.9400   32.4070   39.6950 C   0  0  0  0  0  0  0  0  0  0  0  0
   48.5300   32.9480   38.5190 N   0  0  0  0  0  0  0  0  0  0  0  0
   47.3270   33.5650   38.3690 C   0  0  0  0  0  0  0  0  0  0  0  0
   46.4780   33.6710   39.3910 N   0  0  0  0  0  0  0  0  0  0  0  0
   46.9560   34.1050   37.1030 N   0  0  0  0  0  0  0  0  0  0  0  0
   50.2090   31.7730   39.8160 N   0  0  0  0  0  0  0  0  0  0  0  0
   50.6120   30.8550   38.8960 C   0  0  0  0  0  0  0  0  0  0  0  0
   51.8500   30.2550   39.0440 C   0  0  0  0  0  0  0  0  0  0  0  0
   52.6470   30.6050   40.1260 C   0  0  0  0  0  0  0  0  0  0  0  0
   53.9090   29.9610   40.2410 N   0  0  0  0  0  0  0  0  0  0  0  0
   52.2190   31.5150   41.0150 N   0  0  0  0  0  0  0  0  0  0  0  0
   51.0120   32.0950   40.8660 C   0  0  0  0  0  0  0  0  0  0  0  0
   50.6950   32.9360   41.7460 O   0  0  0  0  0  0  0  0  0  0  0  0
   45.8910   33.2470   41.7250 C   0  0  2  0  0  0  0  0  0  0  0  0
   44.5500   33.6530   41.5550 C   0  0  0  0  0  0  0  0  0  0  0  0
   44.4550   35.1660   41.8830 C   0  0  0  0  0  0  0  0  0  0  0  0
   45.8570   35.5920   42.2510 C   0  0  0  0  0  0  0  0  0  0  0  0
   46.5340   34.3670   42.6410 C   0  0  1  0  0  0  0  0  0  0  0  0
   46.3700   33.9210   43.9820 N   0  0  0  0  0  0  0  0  0  0  0  0
   45.4470   34.3580   44.8340 C   0  0  0  0  0  0  0  0  0  0  0  0
   45.2620   33.9490   46.1380 C   0  0  0  0  0  0  0  0  0  0  0  0
   46.1220   32.9730   46.6420 C   0  0  0  0  0  0  0  0  0  0  0  0
   46.0090   32.5640   47.8040 O   0  0  0  0  0  0  0  0  0  0  0  0
   47.0670   32.5260   45.7710 N   0  0  0  0  0  0  0  0  0  0  0  0
   47.1760   32.9830   44.5090 C   0  0  0  0  0  0  0  0  0  0  0  0
   48.1170   32.4290   43.8880 O   0  0  0  0  0  0  0  0  0  0  0  0
   48.3237   32.1022   41.7341 H   0  0  0  0  0  0  0  0  0  0  0  0
   46.0451   34.5722   36.9893 H   0  0  0  0  0  0  0  0  0  0  0  0
   47.5988   34.0280   36.3019 H   0  0  0  0  0  0  0  0  0  0  0  0
   49.9631   30.5937   38.0471 H   0  0  0  0  0  0  0  0  0  0  0  0
   52.1986   29.5100   38.3136 H   0  0  0  0  0  0  0  0  0  0  0  0
   54.5338   30.1891   41.0275 H   0  0  0  0  0  0  0  0  0  0  0  0
   54.1986   29.2663   39.5379 H   0  0  0  0  0  0  0  0  0  0  0  0
   45.8011   32.2093   42.0788 H   0  0  0  0  0  0  0  0  0  0  0  0
   44.2369   33.4773   40.5152 H   0  0  0  0  0  0  0  0  0  0  0  0
   43.8919   33.0779   42.2230 H   0  0  0  0  0  0  0  0  0  0  0  0
   44.1012   35.7274   41.0057 H   0  0  0  0  0  0  0  0  0  0  0  0
   43.7435   35.3612   42.6989 H   0  0  0  0  0  0  0  0  0  0  0  0
   46.3596   36.0532   41.3881 H   0  0  0  0  0  0  0  0  0  0  0  0
   45.8624   36.3407   43.0568 H   0  0  0  0  0  0  0  0  0  0  0  0
   47.6117   34.5610   42.5366 H   0  0  0  0  0  0  0  0  0  0  0  0
   44.7573   35.1282   44.4583 H   0  0  0  0  0  0  0  0  0  0  0  0
   44.4628   34.3782   46.7601 H   0  0  0  0  0  0  0  0  0  0  0  0
   47.7292   31.8052   46.0916 H   0  0  0  0  0  0  0  0  0  0  0  0
  1  2  2  0
  1 16  1  0
  3  8  1  0
  3  2  1  0
  4  3  2  0
  5  4  1  0
  5  6  2  0
  6  1  1  0
  7  5  1  0
  8 14  1  0
  9 10  2  0
  9  8  1  0
 10 11  1  0
 11 12  1  0
 11 13  2  0
 14 13  1  0
 14 15  2  0
 16 20  1  0
 17 16  1  0
 17 18  1  0
 18 19  1  0
 19 20  1  0
 20 21  1  0
 21 27  1  0
 21 22  1  0
 22 23  2  0
 23 24  1  0
 24 25  2  0
 26 24  1  0
 27 26  1  0
 28 27  2  0
  2 29  1  0
  7 30  1  0
  7 31  1  0
  9 32  1  0
 10 33  1  0
 12 34  1  0
 12 35  1  0
 16 36  1  1
 17 37  1  0
 17 38  1  0
 18 39  1  0
 18 40  1  0
 19 41  1  0
 19 42  1  0
 20 43  1  6
 22 44  1  0
 23 45  1  0
 26 46  1  0
M  ISO  8  29  14  32  14  33  14  36  13  37  13  38  13  39  13  40  13
M  ISO  6  41  13  42  13  43  13  44  14  45  14  46   9
M  END
>  <minimizedAffinity>  (1) 
-6.18931913

>  <minimizedRMSD>  (1) 
3.32005954

$$$$
