
     RDKit          3D

 39 41  0  0  1  0  0  0  0  0999 V2000
   47.3310   33.9580   41.4410 C   0  0  0  0  0  0  0  0  0  0  0  0
   48.4240   33.0560   41.5600 C   0  0  0  0  0  0  0  0  0  0  0  0
   48.9840   32.4580   40.4400 C   0  0  0  0  0  0  0  0  0  0  0  0
   48.4110   32.8020   39.2470 N   0  0  0  0  0  0  0  0  0  0  0  0
   47.3670   33.6650   39.1470 C   0  0  0  0  0  0  0  0  0  0  0  0
   46.8300   34.2420   40.2440 N   0  0  0  0  0  0  0  0  0  0  0  0
   46.8080   33.9690   37.8770 N   0  0  0  0  0  0  0  0  0  0  0  0
   50.0760   31.5600   40.5010 N   0  0  0  0  0  0  0  0  0  0  0  0
   50.0450   30.3910   39.8190 C   0  0  0  0  0  0  0  0  0  0  0  0
   51.1330   29.5410   39.9080 C   0  0  0  0  0  0  0  0  0  0  0  0
   52.2250   29.8920   40.6820 C   0  0  0  0  0  0  0  0  0  0  0  0
   53.3170   28.9990   40.7580 N   0  0  0  0  0  0  0  0  0  0  0  0
   52.2160   31.0620   41.3440 N   0  0  0  0  0  0  0  0  0  0  0  0
   51.1570   31.8900   41.2570 C   0  0  0  0  0  0  0  0  0  0  0  0
   51.2450   32.9710   41.9190 O   0  0  0  0  0  0  0  0  0  0  0  0
   46.7830   34.5330   42.6600 C   0  0  2  0  0  0  0  0  0  0  0  0
   46.8810   33.8850   43.9070 C   0  0  0  0  0  0  0  0  0  0  0  0
   45.5760   33.0860   44.1630 C   0  0  0  0  0  0  0  0  0  0  0  0
   44.6850   33.3030   42.9390 C   0  0  0  0  0  0  0  0  0  0  0  0
   45.2090   34.5380   42.3810 C   0  0  1  0  0  0  0  0  0  0  0  0
   44.6570   35.7590   43.0480 C   0  0  0  0  0  0  0  0  0  0  0  0
   45.2900   36.8340   43.2150 O   0  0  0  0  0  0  0  0  0  0  0  0
   43.3280   35.6100   43.4900 O   0  0  0  0  0  0  0  0  0  0  0  0
   48.8321   32.8287   42.5559 H   0  0  0  0  0  0  0  0  0  0  0  0
   46.0163   34.6241   37.8062 H   0  0  0  0  0  0  0  0  0  0  0  0
   47.1943   33.5343   37.0269 H   0  0  0  0  0  0  0  0  0  0  0  0
   49.1720   30.1222   39.2061 H   0  0  0  0  0  0  0  0  0  0  0  0
   51.1299   28.5855   39.3631 H   0  0  0  0  0  0  0  0  0  0  0  0
   54.1404   29.2397   41.3281 H   0  0  0  0  0  0  0  0  0  0  0  0
   53.2898   28.1072   40.2433 H   0  0  0  0  0  0  0  0  0  0  0  0
   47.3660   35.4556   42.7977 H   0  0  0  0  0  0  0  0  0  0  0  0
   47.7394   33.1972   43.8991 H   0  0  0  0  0  0  0  0  0  0  0  0
   47.0238   34.6300   44.7036 H   0  0  0  0  0  0  0  0  0  0  0  0
   45.8029   32.0163   44.2827 H   0  0  0  0  0  0  0  0  0  0  0  0
   45.0768   33.4248   45.0828 H   0  0  0  0  0  0  0  0  0  0  0  0
   44.7819   32.4720   42.2249 H   0  0  0  0  0  0  0  0  0  0  0  0
   43.6131   33.3523   43.1811 H   0  0  0  0  0  0  0  0  0  0  0  0
   44.9382   34.5776   41.3156 H   0  0  0  0  0  0  0  0  0  0  0  0
   42.8704   36.3610   43.9445 H   0  0  0  0  0  0  0  0  0  0  0  0
  1  2  2  0
  1 16  1  0
  3  8  1  0
  3  2  1  0
  4  3  2  0
  5  4  1  0
  5  6  2  0
  6  1  1  0
  7  5  1  0
  8 14  1  0
  9 10  2  0
  9  8  1  0
 10 11  1  0
 11 12  1  0
 11 13  2  0
 14 13  1  0
 14 15  2  0
 16 17  1  0
 17 18  1  0
 19 18  1  0
 20 16  1  0
 20 19  1  0
 20 21  1  0
 21 22  2  0
 21 23  1  0
  2 24  1  0
  7 25  1  0
  7 26  1  0
  9 27  1  0
 10 28  1  0
 12 29  1  0
 12 30  1  0
 16 31  1  1
 17 32  1  0
 17 33  1  0
 18 34  1  0
 18 35  1  0
 19 36  1  0
 19 37  1  0
 20 38  1  6
 23 39  1  0
M  ISO  8  24  14  27  14  28  14  31  13  32  13  33  13  34  13  35  13
M  ISO  4  36  13  37  13  38  13  39   3
M  END
>  <minimizedAffinity>  (1) 
-5.55008316

>  <minimizedRMSD>  (1) 
1.48579025

$$$$
