
     RDKit          3D

 52 55  0  0  1  0  0  0  0  0999 V2000
   48.5150   33.6030   40.2460 C   0  0  0  0  0  0  0  0  0  0  0  0
   49.3390   32.4770   39.9850 C   0  0  0  0  0  0  0  0  0  0  0  0
   49.5460   32.0400   38.6880 C   0  0  0  0  0  0  0  0  0  0  0  0
   48.9080   32.7590   37.7110 N   0  0  0  0  0  0  0  0  0  0  0  0
   48.1190   33.8420   37.9970 C   0  0  0  0  0  0  0  0  0  0  0  0
   47.9270   34.2570   39.2570 N   0  0  0  0  0  0  0  0  0  0  0  0
   47.4800   34.5500   36.9290 N   0  0  0  0  0  0  0  0  0  0  0  0
   50.3620   30.9320   38.3580 N   0  0  0  0  0  0  0  0  0  0  0  0
   49.9260   29.9790   37.5060 C   0  0  0  0  0  0  0  0  0  0  0  0
   50.7680   28.9160   37.2190 C   0  0  0  0  0  0  0  0  0  0  0  0
   52.0270   28.8510   37.8020 C   0  0  0  0  0  0  0  0  0  0  0  0
   52.8390   27.7350   37.4650 N   0  0  0  0  0  0  0  0  0  0  0  0
   52.4250   29.8200   38.6450 N   0  0  0  0  0  0  0  0  0  0  0  0
   51.6000   30.8430   38.9130 C   0  0  0  0  0  0  0  0  0  0  0  0
   52.0720   31.7050   39.7210 O   0  0  0  0  0  0  0  0  0  0  0  0
   48.3250   34.0140   41.6330 C   0  0  2  0  0  0  0  0  0  0  0  0
   49.0870   33.4490   42.6870 C   0  0  0  0  0  0  0  0  0  0  0  0
   48.2370   32.3280   43.3410 C   0  0  0  0  0  0  0  0  0  0  0  0
   46.9200   32.2780   42.5460 C   0  0  0  0  0  0  0  0  0  0  0  0
   46.8370   33.6160   41.9650 C   0  0  1  0  0  0  0  0  0  0  0  0
   46.2740   34.5310   43.0130 C   0  0  0  0  0  0  0  0  0  0  0  0
   45.3360   35.5960   42.5520 C   0  0  0  0  0  0  0  0  0  0  0  0
   45.0000   36.4100   43.8090 C   0  0  0  0  0  0  0  0  0  0  0  0
   44.4610   35.6060   44.9310 C   0  0  0  0  0  0  0  0  0  0  0  0
   45.2620   34.3540   45.2190 C   0  0  0  0  0  0  0  0  0  0  0  0
   45.4130   33.6380   43.9020 C   0  0  0  0  0  0  0  0  0  0  0  0
   49.8176   31.9466   40.8214 H   0  0  0  0  0  0  0  0  0  0  0  0
   46.8851   35.3653   37.1349 H   0  0  0  0  0  0  0  0  0  0  0  0
   47.6152   34.2440   35.9548 H   0  0  0  0  0  0  0  0  0  0  0  0
   48.9268   30.0448   37.0508 H   0  0  0  0  0  0  0  0  0  0  0  0
   50.4393   28.1242   36.5298 H   0  0  0  0  0  0  0  0  0  0  0  0
   53.7808   27.6419   37.8716 H   0  0  0  0  0  0  0  0  0  0  0  0
   52.4859   27.0190   36.8141 H   0  0  0  0  0  0  0  0  0  0  0  0
   48.6379   35.0685   41.6292 H   0  0  0  0  0  0  0  0  0  0  0  0
   50.0207   33.0258   42.2881 H   0  0  0  0  0  0  0  0  0  0  0  0
   49.3437   34.2185   43.4299 H   0  0  0  0  0  0  0  0  0  0  0  0
   48.7607   31.3629   43.2747 H   0  0  0  0  0  0  0  0  0  0  0  0
   48.0572   32.5281   44.4076 H   0  0  0  0  0  0  0  0  0  0  0  0
   46.9605   31.5080   41.7615 H   0  0  0  0  0  0  0  0  0  0  0  0
   46.0487   32.0192   43.1656 H   0  0  0  0  0  0  0  0  0  0  0  0
   46.2026   33.6702   41.0680 H   0  0  0  0  0  0  0  0  0  0  0  0
   47.1393   35.0401   43.4625 H   0  0  0  0  0  0  0  0  0  0  0  0
   45.8184   36.2342   41.7970 H   0  0  0  0  0  0  0  0  0  0  0  0
   44.4348   35.1744   42.0828 H   0  0  0  0  0  0  0  0  0  0  0  0
   45.9187   36.9081   44.1525 H   0  0  0  0  0  0  0  0  0  0  0  0
   44.2099   37.1197   43.5224 H   0  0  0  0  0  0  0  0  0  0  0  0
   44.4558   36.2314   45.8359 H   0  0  0  0  0  0  0  0  0  0  0  0
   43.4506   35.2828   44.6401 H   0  0  0  0  0  0  0  0  0  0  0  0
   46.2498   34.6184   45.6245 H   0  0  0  0  0  0  0  0  0  0  0  0
   44.7595   33.7198   45.9642 H   0  0  0  0  0  0  0  0  0  0  0  0
   44.4269   33.4815   43.4404 H   0  0  0  0  0  0  0  0  0  0  0  0
   45.8781   32.6507   44.0397 H   0  0  0  0  0  0  0  0  0  0  0  0
  1 16  1  0
  2  1  2  0
  3  2  1  0
  4  5  1  0
  4  3  2  0
  5  6  2  0
  6  1  1  0
  7  5  1  0
  8  3  1  0
  8 14  1  0
  9  8  1  0
 10  9  2  0
 10 11  1  0
 11 13  2  0
 12 11  1  0
 13 14  1  0
 14 15  2  0
 16 20  1  0
 16 17  1  0
 17 18  1  0
 19 18  1  0
 20 19  1  0
 20 21  1  0
 21 26  1  0
 22 21  1  0
 22 23  1  0
 23 24  1  0
 24 25  1  0
 26 25  1  0
  2 27  1  0
  7 28  1  0
  7 29  1  0
  9 30  1  0
 10 31  1  0
 12 32  1  0
 12 33  1  0
 16 34  1  6
 17 35  1  0
 17 36  1  0
 18 37  1  0
 18 38  1  0
 19 39  1  0
 19 40  1  0
 20 41  1  6
 21 42  1  0
 22 43  1  0
 22 44  1  0
 23 45  1  0
 23 46  1  0
 24 47  1  0
 24 48  1  0
 25 49  1  0
 25 50  1  0
 26 51  1  0
 26 52  1  0
M  ISO  8  27  14  30  14  31  14  34  13  35  13  36  13  37  13  38  13
M  ISO  8  39  13  40  13  41  13  42  13  43  13  44  13  45  13  46  13
M  ISO  6  47  13  48  13  49  13  50  13  51  13  52  13
M  END
>  <minimizedAffinity>  (1) 
-6.08560848

>  <minimizedRMSD>  (1) 
1.6056447

$$$$
