
     RDKit          3D

 37 39  0  0  1  0  0  0  0  0999 V2000
   48.1540   34.0680   40.4520 C   0  0  0  0  0  0  0  0  0  0  0  0
   48.9500   32.8980   40.5210 C   0  0  0  0  0  0  0  0  0  0  0  0
   49.3680   32.2540   39.3570 C   0  0  0  0  0  0  0  0  0  0  0  0
   48.9550   32.8310   38.1830 N   0  0  0  0  0  0  0  0  0  0  0  0
   48.1910   33.9570   38.1450 C   0  0  0  0  0  0  0  0  0  0  0  0
   47.8010   34.5600   39.2660 N   0  0  0  0  0  0  0  0  0  0  0  0
   47.7850   34.4980   36.8950 N   0  0  0  0  0  0  0  0  0  0  0  0
   50.1680   31.0860   39.3580 N   0  0  0  0  0  0  0  0  0  0  0  0
   49.8520   30.0300   38.5770 C   0  0  0  0  0  0  0  0  0  0  0  0
   50.6530   28.9060   38.6070 C   0  0  0  0  0  0  0  0  0  0  0  0
   51.7680   28.8800   39.4360 C   0  0  0  0  0  0  0  0  0  0  0  0
   52.5620   27.7110   39.4460 N   0  0  0  0  0  0  0  0  0  0  0  0
   52.0510   29.9500   40.1990 N   0  0  0  0  0  0  0  0  0  0  0  0
   51.2620   31.0400   40.1620 C   0  0  0  0  0  0  0  0  0  0  0  0
   51.6140   31.9980   40.9180 O   0  0  0  0  0  0  0  0  0  0  0  0
   47.7330   34.6880   41.6950 C   0  0  2  0  0  0  0  0  0  0  0  0
   48.4380   34.4660   42.9090 C   0  0  0  0  0  0  0  0  0  0  0  0
   47.7310   33.3280   43.6940 C   0  0  0  0  0  0  0  0  0  0  0  0
   46.5500   32.8710   42.8290 C   0  0  0  0  0  0  0  0  0  0  0  0
   46.3210   34.0370   41.9930 C   0  0  2  0  0  0  0  0  0  0  0  0
   45.3230   33.8540   40.5520 S   0  0  0  0  0  0  0  0  0  0  0  0
   49.2410   32.4939   41.5018 H   0  0  0  0  0  0  0  0  0  0  0  0
   47.2069   35.3500   36.8659 H   0  0  0  0  0  0  0  0  0  0  0  0
   48.0689   34.0381   36.0182 H   0  0  0  0  0  0  0  0  0  0  0  0
   48.9669   30.0653   37.9248 H   0  0  0  0  0  0  0  0  0  0  0  0
   50.4102   28.0364   37.9786 H   0  0  0  0  0  0  0  0  0  0  0  0
   53.3952   27.6595   40.0493 H   0  0  0  0  0  0  0  0  0  0  0  0
   52.3075   26.9105   38.8500 H   0  0  0  0  0  0  0  0  0  0  0  0
   47.8474   35.7634   41.4939 H   0  0  0  0  0  0  0  0  0  0  0  0
   49.4749   34.1737   42.6868 H   0  0  0  0  0  0  0  0  0  0  0  0
   48.4475   35.3867   43.5108 H   0  0  0  0  0  0  0  0  0  0  0  0
   48.4264   32.4920   43.8600 H   0  0  0  0  0  0  0  0  0  0  0  0
   47.3904   33.6770   44.6800 H   0  0  0  0  0  0  0  0  0  0  0  0
   46.8141   31.9909   42.2243 H   0  0  0  0  0  0  0  0  0  0  0  0
   45.6685   32.5604   43.4091 H   0  0  0  0  0  0  0  0  0  0  0  0
   45.6687   34.7054   42.5741 H   0  0  0  0  0  0  0  0  0  0  0  0
   44.0256   33.6161   40.9222 H   0  0  0  0  0  0  0  0  0  0  0  0
  1  2  2  0
  1 16  1  0
  3  8  1  0
  3  2  1  0
  4  3  2  0
  5  4  1  0
  5  6  2  0
  6  1  1  0
  7  5  1  0
  8 14  1  0
  9 10  2  0
  9  8  1  0
 10 11  1  0
 11 12  1  0
 11 13  2  0
 14 13  1  0
 14 15  2  0
 16 20  1  0
 16 17  1  0
 17 18  1  0
 19 18  1  0
 20 19  1  0
 21 20  1  0
  2 22  1  0
  7 23  1  0
  7 24  1  0
  9 25  1  0
 10 26  1  0
 12 27  1  0
 12 28  1  0
 16 29  1  6
 17 30  1  0
 17 31  1  0
 18 32  1  0
 18 33  1  0
 19 34  1  0
 19 35  1  0
 20 36  1  1
 21 37  1  0
M  ISO  8  22  14  25  14  26  14  29  13  30  13  31  13  32  13  33  13
M  ISO  4  34  13  35  13  36  13  37  11
M  END
>  <minimizedAffinity>  (1) 
-4.5482254

>  <minimizedRMSD>  (1) 
0.562866688

$$$$
