
     RDKit          3D

 38 40  0  0  1  0  0  0  0  0999 V2000
   48.2320   34.1770   40.4070 C   0  0  0  0  0  0  0  0  0  0  0  0
   48.9780   32.9770   40.5170 C   0  0  0  0  0  0  0  0  0  0  0  0
   49.3390   32.2580   39.3820 C   0  0  0  0  0  0  0  0  0  0  0  0
   48.9250   32.7900   38.1860 N   0  0  0  0  0  0  0  0  0  0  0  0
   48.2070   33.9480   38.1160 C   0  0  0  0  0  0  0  0  0  0  0  0
   47.8650   34.6330   39.2080 N   0  0  0  0  0  0  0  0  0  0  0  0
   47.7970   34.4430   36.8390 N   0  0  0  0  0  0  0  0  0  0  0  0
   50.0880   31.0570   39.4210 N   0  0  0  0  0  0  0  0  0  0  0  0
   49.7050   29.9750   38.7080 C   0  0  0  0  0  0  0  0  0  0  0  0
   50.4860   28.8320   38.7940 C   0  0  0  0  0  0  0  0  0  0  0  0
   51.6140   28.8030   39.5790 C   0  0  0  0  0  0  0  0  0  0  0  0
   52.3630   27.5970   39.6160 N   0  0  0  0  0  0  0  0  0  0  0  0
   51.9510   29.8870   40.2600 N   0  0  0  0  0  0  0  0  0  0  0  0
   51.2070   31.0080   40.1920 C   0  0  0  0  0  0  0  0  0  0  0  0
   51.6230   31.9910   40.8870 O   0  0  0  0  0  0  0  0  0  0  0  0
   47.8720   34.8770   41.6270 C   0  0  2  0  0  0  0  0  0  0  0  0
   48.4740   34.5610   42.8720 C   0  0  0  0  0  0  0  0  0  0  0  0
   47.5450   33.5820   43.6360 C   0  0  0  0  0  0  0  0  0  0  0  0
   46.3420   33.3160   42.7260 C   0  0  0  0  0  0  0  0  0  0  0  0
   46.3480   34.4790   41.8540 C   0  0  2  0  0  0  0  0  0  0  0  0
   45.6850   34.3700   40.5900 N   0  0  0  0  0  0  0  0  0  0  0  0
   49.2748   32.6101   41.5106 H   0  0  0  0  0  0  0  0  0  0  0  0
   47.2546   35.3163   36.7751 H   0  0  0  0  0  0  0  0  0  0  0  0
   48.0440   33.9263   35.9829 H   0  0  0  0  0  0  0  0  0  0  0  0
   48.8026   29.9998   38.0794 H   0  0  0  0  0  0  0  0  0  0  0  0
   50.1984   27.9353   38.2255 H   0  0  0  0  0  0  0  0  0  0  0  0
   53.2142   27.5369   40.1928 H   0  0  0  0  0  0  0  0  0  0  0  0
   52.0550   26.7824   39.0660 H   0  0  0  0  0  0  0  0  0  0  0  0
   48.1819   35.9142   41.4315 H   0  0  0  0  0  0  0  0  0  0  0  0
   49.4518   34.0870   42.7012 H   0  0  0  0  0  0  0  0  0  0  0  0
   48.6208   35.4777   43.4620 H   0  0  0  0  0  0  0  0  0  0  0  0
   48.0761   32.6420   43.8468 H   0  0  0  0  0  0  0  0  0  0  0  0
   47.2263   34.0088   44.5984 H   0  0  0  0  0  0  0  0  0  0  0  0
   46.4749   32.3872   42.1518 H   0  0  0  0  0  0  0  0  0  0  0  0
   45.3975   33.1817   43.2736 H   0  0  0  0  0  0  0  0  0  0  0  0
   45.7500   35.2425   42.3732 H   0  0  0  0  0  0  0  0  0  0  0  0
   44.6799   34.2048   40.7426 H   0  0  0  0  0  0  0  0  0  0  0  0
   45.8126   35.2433   40.0589 H   0  0  0  0  0  0  0  0  0  0  0  0
  1  2  2  0
  1 16  1  0
  3  8  1  0
  3  2  1  0
  4  3  2  0
  5  4  1  0
  5  6  2  0
  6  1  1  0
  7  5  1  0
  8 14  1  0
  9 10  2  0
  9  8  1  0
 10 11  1  0
 11 12  1  0
 11 13  2  0
 14 13  1  0
 14 15  2  0
 16 20  1  0
 16 17  1  0
 17 18  1  0
 19 18  1  0
 20 19  1  0
 21 20  1  0
  2 22  1  0
  7 23  1  0
  7 24  1  0
  9 25  1  0
 10 26  1  0
 12 27  1  0
 12 28  1  0
 16 29  1  6
 17 30  1  0
 17 31  1  0
 18 32  1  0
 18 33  1  0
 19 34  1  0
 19 35  1  0
 20 36  1  1
 21 37  1  0
 21 38  1  0
M  ISO  8  22  14  25  14  26  14  29  13  30  13  31  13  32  13  33  13
M  ISO  5  34  13  35  13  36  13  37   5  38   5
M  END
>  <minimizedAffinity>  (1) 
-4.85371828

>  <minimizedRMSD>  (1) 
0.371178955

$$$$
