
     RDKit          3D

 16 16  0  0  0  0  0  0  0  0999 V2000
   44.5450   35.6650   44.8410 C   0  0  0  0  0  0  0  0  0  0  0  0
   45.1660   35.6760   43.5700 C   0  0  0  0  0  0  0  0  0  0  0  0
   46.1450   34.7110   43.3240 C   0  0  0  0  0  0  0  0  0  0  0  0
   46.4540   33.8180   44.3000 N   0  0  0  0  0  0  0  0  0  0  0  0
   45.8360   33.8390   45.5090 C   0  0  0  0  0  0  0  0  0  0  0  0
   44.8930   34.7520   45.7760 N   0  0  0  0  0  0  0  0  0  0  0  0
   46.2770   32.7990   46.4840 C   0  0  0  0  0  0  0  0  0  0  0  0
   45.2570   32.8360   47.6140 C   0  0  0  0  0  0  0  0  0  0  0  0
   43.7685   36.4092   45.0719 H   0  0  0  0  0  0  0  0  0  0  0  0
   44.8884   36.4161   42.8050 H   0  0  0  0  0  0  0  0  0  0  0  0
   46.6594   34.6744   42.3524 H   0  0  0  0  0  0  0  0  0  0  0  0
   46.2872   31.8071   46.0086 H   0  0  0  0  0  0  0  0  0  0  0  0
   47.2963   32.9914   46.8501 H   0  0  0  0  0  0  0  0  0  0  0  0
   45.7805   32.8170   48.5813 H   0  0  0  0  0  0  0  0  0  0  0  0
   44.6594   33.7564   47.5385 H   0  0  0  0  0  0  0  0  0  0  0  0
   44.5943   31.9613   47.5385 H   0  0  0  0  0  0  0  0  0  0  0  0
  1  6  2  0
  2  1  1  0
  3  2  2  0
  3  4  1  0
  4  5  2  0
  5  6  1  0
  5  7  1  0
  7  8  1  0
  1  9  1  0
  2 10  1  0
  3 11  1  0
  7 12  1  0
  7 13  1  0
  8 14  1  0
  8 15  1  0
  8 16  1  0
M  ISO  8   9  14  10  14  11  14  12   8  13   8  14   8  15   8  16   8
M  END
>  <minimizedAffinity>  (1) 
-3.1672163

>  <minimizedRMSD>  (1) 
0.592437148

$$$$
