
     RDKit          3D

 26 27  0  0  0  0  0  0  0  0999 V2000
   46.6150   32.8050   45.9680 C   0  0  0  0  0  0  0  0  0  0  0  0
   44.5140   35.6650   44.8460 C   0  0  0  0  0  0  0  0  0  0  0  0
   44.9990   35.8710   43.5370 C   0  0  0  0  0  0  0  0  0  0  0  0
   46.0140   35.0390   43.0850 C   0  0  0  0  0  0  0  0  0  0  0  0
   46.4740   34.0850   43.9230 N   0  0  0  0  0  0  0  0  0  0  0  0
   46.0030   33.8960   45.1730 C   0  0  0  0  0  0  0  0  0  0  0  0
   45.0290   34.6850   45.6260 N   0  0  0  0  0  0  0  0  0  0  0  0
   45.7130   32.6180   47.1820 C   0  0  0  0  0  0  0  0  0  0  0  0
   45.4890   31.2290   47.5070 N   0  0  0  0  0  0  0  0  0  0  0  0
   45.5090   30.3900   46.4540 C   0  0  0  0  0  0  0  0  0  0  0  0
   45.3070   29.0380   46.6450 C   0  0  0  0  0  0  0  0  0  0  0  0
   45.0850   28.5400   47.9120 C   0  0  0  0  0  0  0  0  0  0  0  0
   44.8830   27.3550   48.2730 O   0  0  0  0  0  0  0  0  0  0  0  0
   45.0720   29.4210   48.9530 N   0  0  0  0  0  0  0  0  0  0  0  0
   45.2690   30.7350   48.7600 C   0  0  0  0  0  0  0  0  0  0  0  0
   45.2660   31.5840   49.6910 O   0  0  0  0  0  0  0  0  0  0  0  0
   47.6303   33.0854   46.2850 H   0  0  0  0  0  0  0  0  0  0  0  0
   46.7023   31.8779   45.3824 H   0  0  0  0  0  0  0  0  0  0  0  0
   43.7102   36.3064   45.2365 H   0  0  0  0  0  0  0  0  0  0  0  0
   44.5866   36.6643   42.8963 H   0  0  0  0  0  0  0  0  0  0  0  0
   46.4315   35.1534   42.0738 H   0  0  0  0  0  0  0  0  0  0  0  0
   46.1822   33.1096   48.0470 H   0  0  0  0  0  0  0  0  0  0  0  0
   44.7363   33.0618   46.9390 H   0  0  0  0  0  0  0  0  0  0  0  0
   45.6863   30.7820   45.4416 H   0  0  0  0  0  0  0  0  0  0  0  0
   45.3231   28.3547   45.7831 H   0  0  0  0  0  0  0  0  0  0  0  0
   44.9075   29.0709   49.9076 H   0  0  0  0  0  0  0  0  0  0  0  0
  1  8  1  0
  2  7  2  0
  3  2  1  0
  4  3  2  0
  4  5  1  0
  5  6  2  0
  6  7  1  0
  6  1  1  0
  8  9  1  0
  9 15  1  0
 10 11  2  0
 10  9  1  0
 11 12  1  0
 12 13  2  0
 12 14  1  0
 15 14  1  0
 15 16  2  0
  1 17  1  0
  1 18  1  0
  2 19  1  0
  3 20  1  0
  4 21  1  0
  8 22  1  0
  8 23  1  0
 10 24  1  0
 11 25  1  0
 14 26  1  0
M  ISO  8  17   8  18   8  19  14  20  14  21  14  22   8  23   8  24  14
M  ISO  2  25  14  26   9
M  END
>  <minimizedAffinity>  (1) 
-4.96995974

>  <minimizedRMSD>  (1) 
1.85815895

$$$$
