
     RDKit          3D

 23 24  0  0  0  0  0  0  0  0999 V2000
   46.2980   32.9250   45.6210 C   0  0  0  0  0  0  0  0  0  0  0  0
   44.5020   35.9890   44.4860 C   0  0  0  0  0  0  0  0  0  0  0  0
   45.0770   36.1840   43.2180 C   0  0  0  0  0  0  0  0  0  0  0  0
   46.0410   35.2790   42.7990 C   0  0  0  0  0  0  0  0  0  0  0  0
   46.3910   34.2520   43.6170 N   0  0  0  0  0  0  0  0  0  0  0  0
   45.8090   34.0970   44.8440 C   0  0  0  0  0  0  0  0  0  0  0  0
   44.8800   34.9530   45.2680 N   0  0  0  0  0  0  0  0  0  0  0  0
   45.5960   33.0110   46.9670 C   0  0  0  0  0  0  0  0  0  0  0  0
   46.2230   32.1430   47.9770 C   0  0  0  0  0  0  0  0  0  0  0  0
   47.5910   31.9690   48.0220 C   0  0  0  0  0  0  0  0  0  0  0  0
   47.8460   31.1080   49.0700 C   0  0  0  0  0  0  0  0  0  0  0  0
   46.6620   30.7850   49.6280 N   0  0  0  0  0  0  0  0  0  0  0  0
   45.6890   31.4180   48.9560 N   0  0  0  0  0  0  0  0  0  0  0  0
   47.3889   32.9782   45.7519 H   0  0  0  0  0  0  0  0  0  0  0  0
   46.0836   31.9759   45.1079 H   0  0  0  0  0  0  0  0  0  0  0  0
   43.7340   36.6890   44.8468 H   0  0  0  0  0  0  0  0  0  0  0  0
   44.7725   37.0263   42.5794 H   0  0  0  0  0  0  0  0  0  0  0  0
   46.5176   35.3916   41.8140 H   0  0  0  0  0  0  0  0  0  0  0  0
   45.6347   34.0518   47.3210 H   0  0  0  0  0  0  0  0  0  0  0  0
   44.5581   32.6737   46.8290 H   0  0  0  0  0  0  0  0  0  0  0  0
   48.3339   32.4274   47.3527 H   0  0  0  0  0  0  0  0  0  0  0  0
   48.8353   30.7504   49.3915 H   0  0  0  0  0  0  0  0  0  0  0  0
   46.5274   30.1581   50.4341 H   0  0  0  0  0  0  0  0  0  0  0  0
  1  8  1  0
  2  7  2  0
  3  2  1  0
  4  3  2  0
  4  5  1  0
  5  6  2  0
  6  7  1  0
  6  1  1  0
  8  9  1  0
  9 10  1  0
  9 13  2  0
 10 11  2  0
 11 12  1  0
 13 12  1  0
  1 14  1  0
  1 15  1  0
  2 16  1  0
  3 17  1  0
  4 18  1  0
  8 19  1  0
  8 20  1  0
 10 21  1  0
 11 22  1  0
 12 23  1  0
M  ISO  8  14   8  15   8  16  14  17  14  18  14  19   8  20   8  21  14
M  ISO  2  22  14  23   9
M  END
>  <minimizedAffinity>  (1) 
-4.6326642

>  <minimizedRMSD>  (1) 
1.00147033

$$$$
