
     RDKit          3D

 23 23  0  0  0  0  0  0  0  0999 V2000
   46.1600   32.9150   46.0930 C   0  0  0  0  0  0  0  0  0  0  0  0
   44.4780   35.9310   44.7170 C   0  0  0  0  0  0  0  0  0  0  0  0
   45.0650   35.9960   43.4270 C   0  0  0  0  0  0  0  0  0  0  0  0
   45.9950   35.0240   43.0860 C   0  0  0  0  0  0  0  0  0  0  0  0
   46.3120   34.0570   43.9780 N   0  0  0  0  0  0  0  0  0  0  0  0
   45.7230   34.0270   45.2140 C   0  0  0  0  0  0  0  0  0  0  0  0
   44.8280   34.9450   45.5720 N   0  0  0  0  0  0  0  0  0  0  0  0
   45.3050   33.0260   47.3540 C   0  0  0  0  0  0  0  0  0  0  0  0
   44.8240   31.6800   47.6450 N   0  0  0  0  0  0  0  0  0  0  0  0
   45.1520   31.1060   48.9050 C   0  0  0  0  0  0  0  0  0  0  0  0
   45.4010   31.8640   49.9120 N   0  0  0  0  0  0  0  0  0  0  0  0
   45.1970   29.6940   49.0230 N   0  0  0  0  0  0  0  0  0  0  0  0
   45.6430   31.5100   50.8430 H   0  0  0  0  0  0  0  0  0  0  0  0
   47.2264   33.0190   46.3420 H   0  0  0  0  0  0  0  0  0  0  0  0
   46.0373   31.9376   45.6034 H   0  0  0  0  0  0  0  0  0  0  0  0
   43.7368   36.6845   45.0216 H   0  0  0  0  0  0  0  0  0  0  0  0
   44.7914   36.7922   42.7190 H   0  0  0  0  0  0  0  0  0  0  0  0
   46.4723   35.0395   42.0951 H   0  0  0  0  0  0  0  0  0  0  0  0
   45.9098   33.4033   48.1918 H   0  0  0  0  0  0  0  0  0  0  0  0
   44.4687   33.7257   47.2086 H   0  0  0  0  0  0  0  0  0  0  0  0
   44.2620   31.1590   46.9568 H   0  0  0  0  0  0  0  0  0  0  0  0
   45.4325   29.2600   49.9269 H   0  0  0  0  0  0  0  0  0  0  0  0
   44.9942   29.1021   48.2048 H   0  0  0  0  0  0  0  0  0  0  0  0
  1  8  1  0
  2  7  2  0
  3  2  1  0
  4  3  2  0
  4  5  1  0
  5  6  2  0
  6  7  1  0
  6  1  1  0
  8  9  1  0
  9 10  1  0
 10 12  1  0
 10 11  2  0
 11 13  1  0
  1 14  1  0
  1 15  1  0
  2 16  1  0
  3 17  1  0
  4 18  1  0
  8 19  1  0
  8 20  1  0
  9 21  1  0
 12 22  1  0
 12 23  1  0
M  ISO  7  14   8  15   8  16  14  17  14  18  14  19   8  20   8
M  END
>  <minimizedAffinity>  (1) 
-4.82859659

>  <minimizedRMSD>  (1) 
1.81124365

$$$$
