
     RDKit          3D

 22 23  0  0  0  0  0  0  0  0999 V2000
   46.5410   32.7320   45.2210 C   0  0  0  0  0  0  0  0  0  0  0  0
   44.5470   35.7930   44.6180 C   0  0  0  0  0  0  0  0  0  0  0  0
   45.0210   36.1740   43.3280 C   0  0  0  0  0  0  0  0  0  0  0  0
   45.9880   35.3810   42.7280 C   0  0  0  0  0  0  0  0  0  0  0  0
   46.4420   34.2810   43.3850 N   0  0  0  0  0  0  0  0  0  0  0  0
   45.9650   33.9530   44.6120 C   0  0  0  0  0  0  0  0  0  0  0  0
   45.0290   34.6940   45.2290 N   0  0  0  0  0  0  0  0  0  0  0  0
   46.7730   33.0420   46.6920 C   0  0  0  0  0  0  0  0  0  0  0  0
   46.1270   31.9860   47.5530 C   0  0  0  0  0  0  0  0  0  0  0  0
   45.8760   30.7030   46.9820 C   0  0  0  0  0  0  0  0  0  0  0  0
   45.1270   29.8110   48.3310 S   0  0  0  0  0  0  0  0  0  0  0  0
   45.2520   31.3010   49.4990 C   0  0  0  0  0  0  0  0  0  0  0  0
   45.7940   32.2310   48.8190 N   0  0  0  0  0  0  0  0  0  0  0  0
   47.4935   32.4784   44.7326 H   0  0  0  0  0  0  0  0  0  0  0  0
   45.8637   31.8737   45.1006 H   0  0  0  0  0  0  0  0  0  0  0  0
   43.7804   36.4026   45.1186 H   0  0  0  0  0  0  0  0  0  0  0  0
   44.6312   37.0705   42.8236 H   0  0  0  0  0  0  0  0  0  0  0  0
   46.3822   35.6388   41.7339 H   0  0  0  0  0  0  0  0  0  0  0  0
   47.8543   33.0637   46.8930 H   0  0  0  0  0  0  0  0  0  0  0  0
   46.3284   34.0201   46.9280 H   0  0  0  0  0  0  0  0  0  0  0  0
   46.0913   30.3515   45.9622 H   0  0  0  0  0  0  0  0  0  0  0  0
   44.9238   31.3510   50.5477 H   0  0  0  0  0  0  0  0  0  0  0  0
  1  8  1  0
  2  7  2  0
  3  2  1  0
  4  3  2  0
  4  5  1  0
  5  6  2  0
  6  1  1  0
  6  7  1  0
  8  9  1  0
  9 13  1  0
 10  9  2  0
 10 11  1  0
 11 12  1  0
 13 12  2  0
  1 14  1  0
  1 15  1  0
  2 16  1  0
  3 17  1  0
  4 18  1  0
  8 19  1  0
  8 20  1  0
 10 21  1  0
 12 22  1  0
M  ISO  8  14   8  15   8  16  14  17  14  18  14  19   8  20   8  21  14
M  ISO  1  22  14
M  END
>  <minimizedAffinity>  (1) 
-4.19833946

>  <minimizedRMSD>  (1) 
1.35316801

$$$$
