
     RDKit          3D

 37 39  0  0  1  0  0  0  0  0999 V2000
   45.9790   32.0470   47.3000 N   0  0  0  0  0  0  0  0  0  0  0  0
   45.6830   30.8160   46.6290 C   0  0  0  0  0  0  0  0  0  0  0  0
   44.7880   29.8880   47.4000 C   0  0  0  0  0  0  0  0  0  0  0  0
   45.1240   29.7210   48.7030 O   0  0  0  0  0  0  0  0  0  0  0  0
   45.4870   30.8550   49.3660 C   0  0  0  0  0  0  0  0  0  0  0  0
   46.4540   31.7310   48.6280 C   0  0  1  0  0  0  0  0  0  0  0  0
   47.8500   31.3630   48.8020 C   0  0  0  0  0  0  0  0  0  0  0  0
   48.1230   30.0240   48.4920 C   0  0  0  0  0  0  0  0  0  0  0  0
   49.3420   29.3760   48.5870 C   0  0  0  0  0  0  0  0  0  0  0  0
   50.3780   30.1480   49.0370 N   0  0  0  0  0  0  0  0  0  0  0  0
   50.1270   31.4570   49.3440 C   0  0  0  0  0  0  0  0  0  0  0  0
   48.9280   32.0320   49.2320 N   0  0  0  0  0  0  0  0  0  0  0  0
   46.9080   32.7990   46.5630 C   0  0  0  0  0  0  0  0  0  0  0  0
   46.8030   32.6990   45.0920 C   0  0  0  0  0  0  0  0  0  0  0  0
   44.5790   35.6610   44.7390 C   0  0  0  0  0  0  0  0  0  0  0  0
   44.9680   36.1530   43.4710 C   0  0  0  0  0  0  0  0  0  0  0  0
   45.9610   35.4580   42.8000 C   0  0  0  0  0  0  0  0  0  0  0  0
   46.5040   34.3650   43.3680 N   0  0  0  0  0  0  0  0  0  0  0  0
   46.1130   33.9160   44.5810 C   0  0  0  0  0  0  0  0  0  0  0  0
   45.1740   34.5500   45.2480 N   0  0  0  0  0  0  0  0  0  0  0  0
   45.1909   31.0543   45.6745 H   0  0  0  0  0  0  0  0  0  0  0  0
   46.6411   30.2915   46.4987 H   0  0  0  0  0  0  0  0  0  0  0  0
   43.7645   30.2890   47.3599 H   0  0  0  0  0  0  0  0  0  0  0  0
   44.8879   28.8999   46.9270 H   0  0  0  0  0  0  0  0  0  0  0  0
   44.5777   31.4409   49.5656 H   0  0  0  0  0  0  0  0  0  0  0  0
   46.0014   30.5278   50.2816 H   0  0  0  0  0  0  0  0  0  0  0  0
   46.4758   32.7163   49.1165 H   0  0  0  0  0  0  0  0  0  0  0  0
   47.2751   29.4218   48.1337 H   0  0  0  0  0  0  0  0  0  0  0  0
   49.4689   28.3165   48.3199 H   0  0  0  0  0  0  0  0  0  0  0  0
   50.9639   32.0729   49.7050 H   0  0  0  0  0  0  0  0  0  0  0  0
   46.7790   33.8562   46.8383 H   0  0  0  0  0  0  0  0  0  0  0  0
   47.8941   32.3838   46.8183 H   0  0  0  0  0  0  0  0  0  0  0  0
   47.8091   32.6313   44.6524 H   0  0  0  0  0  0  0  0  0  0  0  0
   46.2325   31.7999   44.8163 H   0  0  0  0  0  0  0  0  0  0  0  0
   43.7953   36.1773   45.3128 H   0  0  0  0  0  0  0  0  0  0  0  0
   44.5018   37.0494   43.0362 H   0  0  0  0  0  0  0  0  0  0  0  0
   46.3030   35.7966   41.8109 H   0  0  0  0  0  0  0  0  0  0  0  0
  1  6  1  0
  2  1  1  0
  2  3  1  0
  3  4  1  0
  4  5  1  0
  6  7  1  0
  6  5  1  0
  7 12  2  0
  8  9  2  0
  8  7  1  0
  9 10  1  0
 10 11  2  0
 12 11  1  0
 13  1  1  0
 14 13  1  0
 15 20  2  0
 16 15  1  0
 17 18  1  0
 17 16  2  0
 18 19  2  0
 19 14  1  0
 19 20  1  0
  2 21  1  0
  2 22  1  0
  3 23  1  0
  3 24  1  0
  5 25  1  0
  5 26  1  0
  6 27  1  1
  8 28  1  0
  9 29  1  0
 11 30  1  0
 13 31  1  0
 13 32  1  0
 14 33  1  0
 14 34  1  0
 15 35  1  0
 16 36  1  0
 17 37  1  0
M  ISO  8  21  13  22  13  23  13  24  13  25  13  26  13  27  13  28  14
M  ISO  8  29  14  30  14  31   8  32   8  33   8  34   8  35  14  36  14
M  ISO  1  37  14
M  END
>  <minimizedAffinity>  (1) 
-5.20730639

>  <minimizedRMSD>  (1) 
0.898814142

$$$$
