
     RDKit          3D

 36 38  0  0  1  0  0  0  0  0999 V2000
   45.5990   31.2180   45.1450 N   0  0  0  0  0  0  0  0  0  0  0  0
   45.3840   30.6880   43.8120 C   0  0  0  0  0  0  0  0  0  0  0  0
   44.3970   29.5760   43.7700 C   0  0  0  0  0  0  0  0  0  0  0  0
   44.5780   28.5850   44.6890 O   0  0  0  0  0  0  0  0  0  0  0  0
   44.8590   29.0410   45.9550 C   0  0  0  0  0  0  0  0  0  0  0  0
   45.9500   30.0560   45.9860 C   0  0  2  0  0  0  0  0  0  0  0  0
   46.1350   30.5180   47.3980 C   0  0  0  0  0  0  0  0  0  0  0  0
   45.0850   31.0790   48.1220 C   0  0  0  0  0  0  0  0  0  0  0  0
   45.5160   31.4220   49.4010 C   0  0  0  0  0  0  0  0  0  0  0  0
   46.8100   31.0530   49.3960 N   0  0  0  0  0  0  0  0  0  0  0  0
   47.1810   30.5320   48.2520 N   0  0  0  0  0  0  0  0  0  0  0  0
   46.7320   32.0830   45.1380 C   0  0  0  0  0  0  0  0  0  0  0  0
   47.7190   31.8240   44.0550 C   0  0  0  0  0  0  0  0  0  0  0  0
   47.0690   35.0650   42.3390 C   0  0  0  0  0  0  0  0  0  0  0  0
   48.3680   35.4060   41.8800 C   0  0  0  0  0  0  0  0  0  0  0  0
   49.4090   34.5070   42.1700 C   0  0  0  0  0  0  0  0  0  0  0  0
   49.1260   33.3830   42.8600 N   0  0  0  0  0  0  0  0  0  0  0  0
   47.8750   33.0840   43.2860 C   0  0  0  0  0  0  0  0  0  0  0  0
   46.8620   33.9180   43.0260 N   0  0  0  0  0  0  0  0  0  0  0  0
   45.0198   31.5019   43.1678 H   0  0  0  0  0  0  0  0  0  0  0  0
   46.3456   30.2816   43.4653 H   0  0  0  0  0  0  0  0  0  0  0  0
   43.3974   30.0062   43.9304 H   0  0  0  0  0  0  0  0  0  0  0  0
   44.5273   29.0988   42.7875 H   0  0  0  0  0  0  0  0  0  0  0  0
   43.9482   29.4942   46.3733 H   0  0  0  0  0  0  0  0  0  0  0  0
   45.1999   28.1773   46.5448 H   0  0  0  0  0  0  0  0  0  0  0  0
   46.8751   29.6028   45.6002 H   0  0  0  0  0  0  0  0  0  0  0  0
   44.0647   31.2290   47.7392 H   0  0  0  0  0  0  0  0  0  0  0  0
   44.9392   31.8824   50.2167 H   0  0  0  0  0  0  0  0  0  0  0  0
   47.4399   31.1674   50.2028 H   0  0  0  0  0  0  0  0  0  0  0  0
   46.3708   33.1163   45.0295 H   0  0  0  0  0  0  0  0  0  0  0  0
   47.2618   31.9004   46.0845 H   0  0  0  0  0  0  0  0  0  0  0  0
   48.6848   31.5268   44.4897 H   0  0  0  0  0  0  0  0  0  0  0  0
   47.3732   31.0100   43.4009 H   0  0  0  0  0  0  0  0  0  0  0  0
   46.2238   35.7387   42.1345 H   0  0  0  0  0  0  0  0  0  0  0  0
   48.5525   36.3350   41.3207 H   0  0  0  0  0  0  0  0  0  0  0  0
   50.4371   34.7166   41.8398 H   0  0  0  0  0  0  0  0  0  0  0  0
  1  6  1  0
  2  1  1  0
  3  2  1  0
  3  4  1  0
  4  5  1  0
  5  6  1  0
  6  7  1  0
  7  8  1  0
  7 11  2  0
  8  9  2  0
 10  9  1  0
 11 10  1  0
 12  1  1  0
 13 12  1  0
 14 19  2  0
 15 16  2  0
 15 14  1  0
 16 17  1  0
 17 18  2  0
 18 13  1  0
 19 18  1  0
  2 20  1  0
  2 21  1  0
  3 22  1  0
  3 23  1  0
  5 24  1  0
  5 25  1  0
  6 26  1  6
  8 27  1  0
  9 28  1  0
 10 29  1  0
 12 30  1  0
 12 31  1  0
 13 32  1  0
 13 33  1  0
 14 34  1  0
 15 35  1  0
 16 36  1  0
M  ISO  8  20  13  21  13  22  13  23  13  24  13  25  13  26  13  27  14
M  ISO  8  28  14  29   9  30   8  31   8  32   8  33   8  34  14  35  14
M  ISO  1  36  14
M  END
>  <minimizedAffinity>  (1) 
-4.32474422

>  <minimizedRMSD>  (1) 
3.48194075

$$$$
