
     RDKit          3D

 35 37  0  0  1  0  0  0  0  0999 V2000
   47.0950   30.3310   45.4020 N   0  0  0  0  0  0  0  0  0  0  0  0
   48.2310   30.2260   44.5010 C   0  0  0  0  0  0  0  0  0  0  0  0
   49.2010   29.1720   44.9250 C   0  0  0  0  0  0  0  0  0  0  0  0
   49.5730   29.2090   46.2390 O   0  0  0  0  0  0  0  0  0  0  0  0
   48.5100   29.3510   47.1080 C   0  0  0  0  0  0  0  0  0  0  0  0
   47.6600   30.5380   46.7350 C   0  0  2  0  0  0  0  0  0  0  0  0
   46.6950   30.8660   47.7290 N   0  0  0  0  0  0  0  0  0  0  0  0
   45.6850   30.1190   48.1980 C   0  0  0  0  0  0  0  0  0  0  0  0
   45.0090   30.8070   49.1350 N   0  0  0  0  0  0  0  0  0  0  0  0
   45.6090   32.0080   49.2530 C   0  0  0  0  0  0  0  0  0  0  0  0
   46.6210   32.0180   48.3970 N   0  0  0  0  0  0  0  0  0  0  0  0
   46.3390   31.4930   45.0720 C   0  0  0  0  0  0  0  0  0  0  0  0
   47.0990   32.6220   44.5000 C   0  0  0  0  0  0  0  0  0  0  0  0
   44.6510   35.2670   45.4550 C   0  0  0  0  0  0  0  0  0  0  0  0
   44.6260   36.0710   44.2920 C   0  0  0  0  0  0  0  0  0  0  0  0
   45.4380   35.6720   43.2400 C   0  0  0  0  0  0  0  0  0  0  0  0
   46.2050   34.5610   43.3590 N   0  0  0  0  0  0  0  0  0  0  0  0
   46.2060   33.8140   44.4880 C   0  0  0  0  0  0  0  0  0  0  0  0
   45.4390   34.1650   45.5200 N   0  0  0  0  0  0  0  0  0  0  0  0
   48.7515   31.1947   44.4750 H   0  0  0  0  0  0  0  0  0  0  0  0
   47.8464   29.9471   43.5089 H   0  0  0  0  0  0  0  0  0  0  0  0
   48.7424   28.1913   44.7302 H   0  0  0  0  0  0  0  0  0  0  0  0
   50.1183   29.3556   44.3463 H   0  0  0  0  0  0  0  0  0  0  0  0
   47.8925   28.4414   47.0721 H   0  0  0  0  0  0  0  0  0  0  0  0
   48.9060   29.5094   48.1219 H   0  0  0  0  0  0  0  0  0  0  0  0
   48.2996   31.4319   46.6911 H   0  0  0  0  0  0  0  0  0  0  0  0
   45.4456   29.0978   47.8664 H   0  0  0  0  0  0  0  0  0  0  0  0
   45.3152   32.8237   49.9300 H   0  0  0  0  0  0  0  0  0  0  0  0
   45.5727   31.1986   44.3398 H   0  0  0  0  0  0  0  0  0  0  0  0
   45.9342   31.8626   46.0257 H   0  0  0  0  0  0  0  0  0  0  0  0
   47.9867   32.8259   45.1168 H   0  0  0  0  0  0  0  0  0  0  0  0
   47.4326   32.3822   43.4796 H   0  0  0  0  0  0  0  0  0  0  0  0
   44.0240   35.5385   46.3171 H   0  0  0  0  0  0  0  0  0  0  0  0
   43.9938   36.9687   44.2246 H   0  0  0  0  0  0  0  0  0  0  0  0
   45.4592   36.2576   42.3091 H   0  0  0  0  0  0  0  0  0  0  0  0
  1  6  1  0
  2  3  1  0
  2  1  1  0
  3  4  1  0
  4  5  1  0
  6  5  1  0
  6  7  1  0
  7  8  1  0
  7 11  1  0
  8  9  2  0
  9 10  1  0
 11 10  2  0
 12  1  1  0
 13 12  1  0
 14 19  2  0
 15 14  1  0
 16 17  1  0
 16 15  2  0
 17 18  2  0
 18 13  1  0
 18 19  1  0
  2 20  1  0
  2 21  1  0
  3 22  1  0
  3 23  1  0
  5 24  1  0
  5 25  1  0
  6 26  1  6
  8 27  1  0
 10 28  1  0
 12 29  1  0
 12 30  1  0
 13 31  1  0
 13 32  1  0
 14 33  1  0
 15 34  1  0
 16 35  1  0
M  ISO  8  20  13  21  13  22  13  23  13  24  13  25  13  26  13  27  14
M  ISO  8  28  14  29   8  30   8  31   8  32   8  33  14  34  14  35  14
M  END
>  <minimizedAffinity>  (1) 
-4.50124264

>  <minimizedRMSD>  (1) 
3.1298914

$$$$
