
     RDKit          3D

 46 50  0  0  1  0  0  0  0  0999 V2000
   44.5300   35.9290   44.8470 C   0  0  0  0  0  0  0  0  0  0  0  0
   45.0940   35.9170   43.5360 C   0  0  0  0  0  0  0  0  0  0  0  0
   45.9160   34.8450   43.2070 C   0  0  0  0  0  0  0  0  0  0  0  0
   46.1350   33.8780   44.1420 N   0  0  0  0  0  0  0  0  0  0  0  0
   45.5770   33.9340   45.3710 C   0  0  0  0  0  0  0  0  0  0  0  0
   44.7830   34.9470   45.7230 N   0  0  0  0  0  0  0  0  0  0  0  0
   45.8480   32.8740   46.3360 N   0  0  0  0  0  0  0  0  0  0  0  0
   45.2500   32.9240   47.6600 C   0  0  0  0  0  0  0  0  0  0  0  0
   46.1550   32.3780   48.7260 C   0  0  0  0  0  0  0  0  0  0  0  0
   47.5490   32.2920   48.2110 C   0  0  0  0  0  0  0  0  0  0  0  0
   47.5430   31.2640   47.0770 C   0  0  0  0  0  0  0  0  0  0  0  0
   46.7200   31.7770   45.9530 C   0  0  1  0  0  0  0  0  0  0  0  0
   45.9630   30.7050   45.2420 C   0  0  0  0  0  0  0  0  0  0  0  0
   46.1220   30.2470   43.9990 N   0  0  0  0  0  0  0  0  0  0  0  0
   45.2860   29.3020   43.7200 O   0  0  0  0  0  0  0  0  0  0  0  0
   44.5480   29.1050   44.7700 C   0  0  0  0  0  0  0  0  0  0  0  0
   44.9450   29.9590   45.7240 N   0  0  0  0  0  0  0  0  0  0  0  0
   43.4350   28.2070   45.1300 C   0  0  0  0  0  0  0  0  0  0  0  0
   42.2070   28.1670   44.4760 C   0  0  0  0  0  0  0  0  0  0  0  0
   41.1910   27.3240   44.8310 C   0  0  0  0  0  0  0  0  0  0  0  0
   41.3350   26.4480   45.8810 C   0  0  0  0  0  0  0  0  0  0  0  0
   42.5260   26.4480   46.5570 C   0  0  0  0  0  0  0  0  0  0  0  0
   42.6290   25.5580   47.6000 C   0  0  0  0  0  0  0  0  0  0  0  0
   43.7860   25.4870   48.3360 C   0  0  0  0  0  0  0  0  0  0  0  0
   44.8190   26.3360   47.9830 C   0  0  0  0  0  0  0  0  0  0  0  0
   44.6580   27.2090   46.9290 C   0  0  0  0  0  0  0  0  0  0  0  0
   43.5230   27.3160   46.1640 C   0  0  0  0  0  0  0  0  0  0  0  0
   43.8746   36.7609   45.1443 H   0  0  0  0  0  0  0  0  0  0  0  0
   44.8870   36.7223   42.8159 H   0  0  0  0  0  0  0  0  0  0  0  0
   46.3803   34.7787   42.2120 H   0  0  0  0  0  0  0  0  0  0  0  0
   45.0150   33.9713   47.9005 H   0  0  0  0  0  0  0  0  0  0  0  0
   44.3456   32.2982   47.6397 H   0  0  0  0  0  0  0  0  0  0  0  0
   46.1300   33.0432   49.6017 H   0  0  0  0  0  0  0  0  0  0  0  0
   45.8120   31.3730   49.0129 H   0  0  0  0  0  0  0  0  0  0  0  0
   47.8727   33.2722   47.8309 H   0  0  0  0  0  0  0  0  0  0  0  0
   48.2451   31.9933   49.0087 H   0  0  0  0  0  0  0  0  0  0  0  0
   48.5729   31.0936   46.7302 H   0  0  0  0  0  0  0  0  0  0  0  0
   47.1191   30.3166   47.4412 H   0  0  0  0  0  0  0  0  0  0  0  0
   47.4484   32.1835   45.2360 H   0  0  0  0  0  0  0  0  0  0  0  0
   42.0455   28.8497   43.6288 H   0  0  0  0  0  0  0  0  0  0  0  0
   40.2456   27.3468   44.2691 H   0  0  0  0  0  0  0  0  0  0  0  0
   40.5192   25.7686   46.1690 H   0  0  0  0  0  0  0  0  0  0  0  0
   41.7818   24.9008   47.8456 H   0  0  0  0  0  0  0  0  0  0  0  0
   43.8873   24.7819   49.1742 H   0  0  0  0  0  0  0  0  0  0  0  0
   45.7662   26.3145   48.5418 H   0  0  0  0  0  0  0  0  0  0  0  0
   45.5021   27.8697   46.6821 H   0  0  0  0  0  0  0  0  0  0  0  0
  1  6  2  0
  2  1  1  0
  3  2  2  0
  3  4  1  0
  4  5  2  0
  5  6  1  0
  5  7  1  0
  7  8  1  0
  8  9  1  0
 10  9  1  0
 11 10  1  0
 12  7  1  0
 12 11  1  0
 13 17  1  0
 13 12  1  0
 14 13  2  0
 15 14  1  0
 15 16  1  0
 16 18  1  0
 16 17  2  0
 18 27  2  0
 19 20  2  0
 19 18  1  0
 20 21  1  0
 21 22  2  0
 22 23  1  0
 23 24  2  0
 25 24  1  0
 26 25  2  0
 27 22  1  0
 27 26  1  0
  1 28  1  0
  2 29  1  0
  3 30  1  0
  8 31  1  0
  8 32  1  0
  9 33  1  0
  9 34  1  0
 10 35  1  0
 10 36  1  0
 11 37  1  0
 11 38  1  0
 12 39  1  6
 19 40  1  0
 20 41  1  0
 21 42  1  0
 23 43  1  0
 24 44  1  0
 25 45  1  0
 26 46  1  0
M  ISO  8  28  14  29  14  30  14  31  13  32  13  33  13  34  13  35  13
M  ISO  8  36  13  37  13  38  13  39  13  40  14  41  14  42  14  43  14
M  ISO  3  44  14  45  14  46  14
M  END
>  <minimizedAffinity>  (1) 
-6.93249178

>  <minimizedRMSD>  (1) 
0.911272943

$$$$
