
     RDKit          3D

 42 45  0  0  1  0  0  0  0  0999 V2000
   47.1250   30.1390   45.4720 N   0  0  0  0  0  0  0  0  0  0  0  0
   48.2500   30.0560   44.5580 C   0  0  0  0  0  0  0  0  0  0  0  0
   49.3130   29.1230   45.0440 C   0  0  0  0  0  0  0  0  0  0  0  0
   49.7010   29.3120   46.3380 O   0  0  0  0  0  0  0  0  0  0  0  0
   48.6370   29.4190   47.2210 C   0  0  0  0  0  0  0  0  0  0  0  0
   47.6920   30.5030   46.7760 C   0  0  2  0  0  0  0  0  0  0  0  0
   46.7170   30.8370   47.7570 N   0  0  0  0  0  0  0  0  0  0  0  0
   45.7210   30.0850   48.2390 C   0  0  0  0  0  0  0  0  0  0  0  0
   45.0240   30.7740   49.1580 N   0  0  0  0  0  0  0  0  0  0  0  0
   45.5930   31.9850   49.2550 C   0  0  0  0  0  0  0  0  0  0  0  0
   46.5990   31.9880   48.4070 N   0  0  0  0  0  0  0  0  0  0  0  0
   46.2470   31.1900   45.0710 C   0  0  0  0  0  0  0  0  0  0  0  0
   46.8990   32.3510   44.4340 C   0  0  0  0  0  0  0  0  0  0  0  0
   44.7460   35.0960   45.7130 C   0  0  0  0  0  0  0  0  0  0  0  0
   44.2790   35.6910   44.5270 C   0  0  0  0  0  0  0  0  0  0  0  0
   44.7230   35.1240   43.3340 C   0  0  0  0  0  0  0  0  0  0  0  0
   45.5520   34.0660   43.3720 N   0  0  0  0  0  0  0  0  0  0  0  0
   45.9870   33.5140   44.5170 C   0  0  0  0  0  0  0  0  0  0  0  0
   45.5860   34.0260   45.6760 N   0  0  0  0  0  0  0  0  0  0  0  0
   44.2680   35.7040   42.0530 C   0  0  0  0  0  0  0  0  0  0  0  0
   44.0480   34.9020   40.8480 C   0  0  0  0  0  0  0  0  0  0  0  0
   42.8410   35.2660   41.6470 C   0  0  0  0  0  0  0  0  0  0  0  0
   48.6863   31.0592   44.4431 H   0  0  0  0  0  0  0  0  0  0  0  0
   47.8752   29.6668   43.5999 H   0  0  0  0  0  0  0  0  0  0  0  0
   48.9337   28.0949   44.9486 H   0  0  0  0  0  0  0  0  0  0  0  0
   50.2009   29.3213   44.4257 H   0  0  0  0  0  0  0  0  0  0  0  0
   48.0981   28.4607   47.2568 H   0  0  0  0  0  0  0  0  0  0  0  0
   49.0255   29.6720   48.2185 H   0  0  0  0  0  0  0  0  0  0  0  0
   48.2579   31.4382   46.6527 H   0  0  0  0  0  0  0  0  0  0  0  0
   45.5042   29.0524   47.9280 H   0  0  0  0  0  0  0  0  0  0  0  0
   45.2810   32.8102   49.9120 H   0  0  0  0  0  0  0  0  0  0  0  0
   45.5227   30.7729   44.3559 H   0  0  0  0  0  0  0  0  0  0  0  0
   45.7870   31.5699   45.9951 H   0  0  0  0  0  0  0  0  0  0  0  0
   47.1123   32.1228   43.3793 H   0  0  0  0  0  0  0  0  0  0  0  0
   47.8437   32.5789   44.9493 H   0  0  0  0  0  0  0  0  0  0  0  0
   44.4275   35.5016   46.6846 H   0  0  0  0  0  0  0  0  0  0  0  0
   43.6004   36.5566   44.5405 H   0  0  0  0  0  0  0  0  0  0  0  0
   44.8446   36.6262   42.2179 H   0  0  0  0  0  0  0  0  0  0  0  0
   44.3865   33.8556   40.8250 H   0  0  0  0  0  0  0  0  0  0  0  0
   44.3252   35.0281   39.7910 H   0  0  0  0  0  0  0  0  0  0  0  0
   42.1206   36.0032   41.2628 H   0  0  0  0  0  0  0  0  0  0  0  0
   42.0139   34.7208   42.1251 H   0  0  0  0  0  0  0  0  0  0  0  0
  1  6  1  0
  2  3  1  0
  2  1  1  0
  3  4  1  0
  4  5  1  0
  6  5  1  0
  6  7  1  0
  7  8  1  0
  7 11  1  0
  8  9  2  0
  9 10  1  0
 11 10  2  0
 12  1  1  0
 13 18  1  0
 13 12  1  0
 15 14  2  0
 16 17  2  0
 16 15  1  0
 17 18  1  0
 18 19  2  0
 19 14  1  0
 20 16  1  0
 21 22  1  0
 21 20  1  0
 22 20  1  0
  2 23  1  0
  2 24  1  0
  3 25  1  0
  3 26  1  0
  5 27  1  0
  5 28  1  0
  6 29  1  6
  8 30  1  0
 10 31  1  0
 12 32  1  0
 12 33  1  0
 13 34  1  0
 13 35  1  0
 14 36  1  0
 15 37  1  0
 20 38  1  0
 21 39  1  0
 21 40  1  0
 22 41  1  0
 22 42  1  0
M  ISO  8  23  13  24  13  25  13  26  13  27  13  28  13  29  13  30  14
M  ISO  8  31  14  32   8  33   8  34   8  35   8  36  14  37  14  38  13
M  ISO  4  39  13  40  13  41  13  42  13
M  END
>  <minimizedAffinity>  (1) 
-4.90997839

>  <minimizedRMSD>  (1) 
0.681855321

$$$$
