
     RDKit          3D

 36 38  0  0  1  0  0  0  0  0999 V2000
   47.1360   30.1750   45.4650 N   0  0  0  0  0  0  0  0  0  0  0  0
   48.2670   30.0890   44.5640 C   0  0  0  0  0  0  0  0  0  0  0  0
   49.2880   29.1060   45.0340 C   0  0  0  0  0  0  0  0  0  0  0  0
   49.6780   29.2790   46.3350 O   0  0  0  0  0  0  0  0  0  0  0  0
   48.6210   29.4150   47.2130 C   0  0  0  0  0  0  0  0  0  0  0  0
   47.6970   30.5150   46.7740 C   0  0  2  0  0  0  0  0  0  0  0  0
   46.7230   30.8450   47.7530 N   0  0  0  0  0  0  0  0  0  0  0  0
   45.7320   30.0940   48.2390 C   0  0  0  0  0  0  0  0  0  0  0  0
   45.0300   30.7810   49.1550 N   0  0  0  0  0  0  0  0  0  0  0  0
   45.6040   32.0000   49.2390 C   0  0  0  0  0  0  0  0  0  0  0  0
   46.6110   32.0120   48.3940 N   0  0  0  0  0  0  0  0  0  0  0  0
   46.3020   31.2590   45.0610 C   0  0  0  0  0  0  0  0  0  0  0  0
   46.9830   32.4400   44.5010 C   0  0  0  0  0  0  0  0  0  0  0  0
   44.7150   35.2180   45.5230 C   0  0  0  0  0  0  0  0  0  0  0  0
   44.1900   35.6290   44.2690 C   0  0  0  0  0  0  0  0  0  0  0  0
   44.6320   34.9420   43.1480 C   0  0  0  0  0  0  0  0  0  0  0  0
   45.5190   33.9390   43.2830 N   0  0  0  0  0  0  0  0  0  0  0  0
   46.0080   33.5630   44.4890 C   0  0  0  0  0  0  0  0  0  0  0  0
   45.6080   34.1970   45.5820 N   0  0  0  0  0  0  0  0  0  0  0  0
   43.9870   35.4380   41.5630 S   0  0  0  0  0  0  0  0  0  0  0  0
   48.7374   31.0806   44.4901 H   0  0  0  0  0  0  0  0  0  0  0  0
   47.8952   29.7488   43.5862 H   0  0  0  0  0  0  0  0  0  0  0  0
   48.8660   28.0953   44.9321 H   0  0  0  0  0  0  0  0  0  0  0  0
   50.1830   29.2594   44.4132 H   0  0  0  0  0  0  0  0  0  0  0  0
   48.0614   28.4688   47.2521 H   0  0  0  0  0  0  0  0  0  0  0  0
   49.0200   29.6670   48.2066 H   0  0  0  0  0  0  0  0  0  0  0  0
   48.2738   31.4450   46.6626 H   0  0  0  0  0  0  0  0  0  0  0  0
   45.5204   29.0590   47.9326 H   0  0  0  0  0  0  0  0  0  0  0  0
   45.2885   32.8274   49.8916 H   0  0  0  0  0  0  0  0  0  0  0  0
   45.6080   30.8797   44.2964 H   0  0  0  0  0  0  0  0  0  0  0  0
   45.8175   31.6126   45.9831 H   0  0  0  0  0  0  0  0  0  0  0  0
   47.8496   32.7034   45.1252 H   0  0  0  0  0  0  0  0  0  0  0  0
   47.3407   32.2305   43.4821 H   0  0  0  0  0  0  0  0  0  0  0  0
   44.3984   35.7264   46.4456 H   0  0  0  0  0  0  0  0  0  0  0  0
   43.4665   36.4538   44.1904 H   0  0  0  0  0  0  0  0  0  0  0  0
   42.9108   36.2656   41.7466 H   0  0  0  0  0  0  0  0  0  0  0  0
  1  6  1  0
  2  3  1  0
  2  1  1  0
  3  4  1  0
  4  5  1  0
  6  5  1  0
  6  7  1  0
  7  8  1  0
  7 11  1  0
  8  9  2  0
  9 10  1  0
 11 10  2  0
 12  1  1  0
 13 12  1  0
 14 19  2  0
 15 14  1  0
 16 17  1  0
 16 15  2  0
 17 18  2  0
 18 13  1  0
 18 19  1  0
 20 16  1  0
  2 21  1  0
  2 22  1  0
  3 23  1  0
  3 24  1  0
  5 25  1  0
  5 26  1  0
  6 27  1  6
  8 28  1  0
 10 29  1  0
 12 30  1  0
 12 31  1  0
 13 32  1  0
 13 33  1  0
 14 34  1  0
 15 35  1  0
 20 36  1  0
M  ISO  8  21  13  22  13  23  13  24  13  25  13  26  13  27  13  28  14
M  ISO  8  29  14  30   8  31   8  32   8  33   8  34  14  35  14  36  11
M  END
>  <minimizedAffinity>  (1) 
-4.35806131

>  <minimizedRMSD>  (1) 
0.572649062

$$$$
