
     RDKit          3D

 40 42  0  0  1  0  0  0  0  0999 V2000
   47.8220   29.5610   46.0510 N   0  0  0  0  0  0  0  0  0  0  0  0
   49.0850   29.4710   45.3550 C   0  0  0  0  0  0  0  0  0  0  0  0
   50.1080   28.7310   46.1620 C   0  0  0  0  0  0  0  0  0  0  0  0
   50.2420   29.1540   47.4610 O   0  0  0  0  0  0  0  0  0  0  0  0
   49.0290   29.2360   48.1120 C   0  0  0  0  0  0  0  0  0  0  0  0
   48.0990   30.1530   47.3610 C   0  0  2  0  0  0  0  0  0  0  0  0
   46.9340   30.4970   48.1060 N   0  0  0  0  0  0  0  0  0  0  0  0
   45.7670   29.8190   48.1770 C   0  0  0  0  0  0  0  0  0  0  0  0
   44.9140   30.4700   48.9860 N   0  0  0  0  0  0  0  0  0  0  0  0
   45.5640   31.5790   49.4270 C   0  0  0  0  0  0  0  0  0  0  0  0
   46.7700   31.5650   48.8810 N   0  0  0  0  0  0  0  0  0  0  0  0
   46.9420   30.4490   45.3580 C   0  0  0  0  0  0  0  0  0  0  0  0
   47.5780   31.6350   44.7670 C   0  0  0  0  0  0  0  0  0  0  0  0
   45.1130   34.1000   46.0850 C   0  0  0  0  0  0  0  0  0  0  0  0
   44.9310   34.9360   44.9570 C   0  0  0  0  0  0  0  0  0  0  0  0
   45.6400   34.6370   43.8110 C   0  0  0  0  0  0  0  0  0  0  0  0
   46.4660   33.5760   43.8100 N   0  0  0  0  0  0  0  0  0  0  0  0
   46.6410   32.7760   44.8870 C   0  0  0  0  0  0  0  0  0  0  0  0
   45.9710   33.0430   46.0000 N   0  0  0  0  0  0  0  0  0  0  0  0
   45.5280   35.4360   42.5820 C   0  0  0  0  0  0  0  0  0  0  0  0
   46.5900   35.0560   41.7540 F   0  0  0  0  0  0  0  0  0  0  0  0
   44.3220   35.1880   41.9450 F   0  0  0  0  0  0  0  0  0  0  0  0
   45.7050   36.7620   42.8530 F   0  0  0  0  0  0  0  0  0  0  0  0
   44.0530   36.0460   44.9950 N   0  0  0  0  0  0  0  0  0  0  0  0
   48.9309   28.9424   44.4027 H   0  0  0  0  0  0  0  0  0  0  0  0
   49.4560   30.4920   45.1820 H   0  0  0  0  0  0  0  0  0  0  0  0
   49.8262   27.6678   46.1772 H   0  0  0  0  0  0  0  0  0  0  0  0
   51.0768   28.9205   45.6766 H   0  0  0  0  0  0  0  0  0  0  0  0
   48.5804   28.2335   48.1731 H   0  0  0  0  0  0  0  0  0  0  0  0
   49.1899   29.6365   49.1238 H   0  0  0  0  0  0  0  0  0  0  0  0
   48.5894   31.1247   47.2017 H   0  0  0  0  0  0  0  0  0  0  0  0
   45.5486   28.8772   47.6522 H   0  0  0  0  0  0  0  0  0  0  0  0
   45.1637   32.3438   50.1088 H   0  0  0  0  0  0  0  0  0  0  0  0
   46.4592   29.8837   44.5473 H   0  0  0  0  0  0  0  0  0  0  0  0
   46.2382   30.8281   46.1136 H   0  0  0  0  0  0  0  0  0  0  0  0
   47.8011   31.4473   43.7063 H   0  0  0  0  0  0  0  0  0  0  0  0
   48.5181   31.8609   45.2915 H   0  0  0  0  0  0  0  0  0  0  0  0
   44.5686   34.3006   47.0195 H   0  0  0  0  0  0  0  0  0  0  0  0
   43.9372   36.6398   44.1614 H   0  0  0  0  0  0  0  0  0  0  0  0
   43.5301   36.2598   45.8563 H   0  0  0  0  0  0  0  0  0  0  0  0
  1  6  1  0
  2  1  1  0
  2  3  1  0
  3  4  1  0
  4  5  1  0
  6  7  1  0
  6  5  1  0
  7  8  1  0
  7 11  1  0
  8  9  2  0
  9 10  1  0
 11 10  2  0
 12  1  1  0
 13 18  1  0
 13 12  1  0
 15 24  1  0
 15 14  2  0
 16 15  1  0
 17 16  2  0
 17 18  1  0
 18 19  2  0
 19 14  1  0
 20 23  1  0
 20 16  1  0
 21 20  1  0
 22 20  1  0
  2 25  1  0
  2 26  1  0
  3 27  1  0
  3 28  1  0
  5 29  1  0
  5 30  1  0
  6 31  1  6
  8 32  1  0
 10 33  1  0
 12 34  1  0
 12 35  1  0
 13 36  1  0
 13 37  1  0
 14 38  1  0
 24 39  1  0
 24 40  1  0
M  ISO  8  25  13  26  13  27  13  28  13  29  13  30  13  31  13  32  14
M  ISO  6  33  14  34   8  35   8  36   8  37   8  38  14
M  END
>  <minimizedAffinity>  (1) 
-5.18618727

>  <minimizedRMSD>  (1) 
0.660127401

$$$$
