
     RDKit          3D

 41 43  0  0  1  0  0  0  0  0999 V2000
   47.1460   30.0290   45.6080 C   0  0  0  0  0  0  0  0  0  0  0  0
   47.9950   29.3710   46.5340 N   0  0  0  0  0  0  0  0  0  0  0  0
   49.2640   29.0990   45.9260 C   0  0  0  0  0  0  0  0  0  0  0  0
   50.3090   28.6640   46.9060 C   0  0  0  0  0  0  0  0  0  0  0  0
   50.3890   29.4010   48.0620 O   0  0  0  0  0  0  0  0  0  0  0  0
   49.1490   29.6230   48.6330 C   0  0  0  0  0  0  0  0  0  0  0  0
   48.2380   30.3090   47.6470 C   0  0  2  0  0  0  0  0  0  0  0  0
   47.0540   30.8140   48.2440 N   0  0  0  0  0  0  0  0  0  0  0  0
   45.9350   30.1510   48.5500 C   0  0  0  0  0  0  0  0  0  0  0  0
   45.0480   30.9930   49.1030 N   0  0  0  0  0  0  0  0  0  0  0  0
   45.6290   32.2130   49.1430 C   0  0  0  0  0  0  0  0  0  0  0  0
   46.8400   32.0820   48.6200 N   0  0  0  0  0  0  0  0  0  0  0  0
   47.8360   30.8480   44.5760 C   0  0  0  0  0  0  0  0  0  0  0  0
   45.5940   33.7430   45.1880 C   0  0  0  0  0  0  0  0  0  0  0  0
   45.7340   34.5050   43.9880 C   0  0  0  0  0  0  0  0  0  0  0  0
   46.5880   33.9840   43.0390 C   0  0  0  0  0  0  0  0  0  0  0  0
   47.2420   32.8100   43.2680 N   0  0  0  0  0  0  0  0  0  0  0  0
   47.0880   32.1130   44.4140 C   0  0  0  0  0  0  0  0  0  0  0  0
   46.2710   32.5840   45.3550 N   0  0  0  0  0  0  0  0  0  0  0  0
   46.8270   34.6570   41.7530 C   0  0  0  0  0  0  0  0  0  0  0  0
   47.6130   33.7900   40.9780 F   0  0  0  0  0  0  0  0  0  0  0  0
   45.6300   34.8800   41.0780 F   0  0  0  0  0  0  0  0  0  0  0  0
   47.5760   35.7790   41.9240 F   0  0  0  0  0  0  0  0  0  0  0  0
   45.0010   35.7680   43.8060 C   0  0  0  0  0  0  0  0  0  0  0  0
   43.8610   35.4670   43.0350 F   0  0  0  0  0  0  0  0  0  0  0  0
   45.6660   36.7360   43.1190 F   0  0  0  0  0  0  0  0  0  0  0  0
   44.4210   36.2380   44.9970 F   0  0  0  0  0  0  0  0  0  0  0  0
   46.5509   29.2625   45.0900 H   0  0  0  0  0  0  0  0  0  0  0  0
   46.5433   30.7340   46.1994 H   0  0  0  0  0  0  0  0  0  0  0  0
   49.1303   28.3009   45.1809 H   0  0  0  0  0  0  0  0  0  0  0  0
   49.6147   30.0368   45.4704 H   0  0  0  0  0  0  0  0  0  0  0  0
   50.0969   27.6213   47.1847 H   0  0  0  0  0  0  0  0  0  0  0  0
   51.2733   28.8038   46.3956 H   0  0  0  0  0  0  0  0  0  0  0  0
   48.7067   28.6598   48.9274 H   0  0  0  0  0  0  0  0  0  0  0  0
   49.2706   30.2659   49.5173 H   0  0  0  0  0  0  0  0  0  0  0  0
   48.7240   31.2135   47.2524 H   0  0  0  0  0  0  0  0  0  0  0  0
   45.7663   29.0781   48.3753 H   0  0  0  0  0  0  0  0  0  0  0  0
   45.1819   33.1384   49.5350 H   0  0  0  0  0  0  0  0  0  0  0  0
   48.8656   31.0628   44.8983 H   0  0  0  0  0  0  0  0  0  0  0  0
   47.8729   30.3034   43.6210 H   0  0  0  0  0  0  0  0  0  0  0  0
   44.9277   34.1030   45.9858 H   0  0  0  0  0  0  0  0  0  0  0  0
  1  2  1  0
  2  7  1  0
  3  2  1  0
  3  4  1  0
  4  5  1  0
  5  6  1  0
  7  8  1  0
  7  6  1  0
  8  9  1  0
  8 12  1  0
  9 10  2  0
 10 11  1  0
 12 11  2  0
 13  1  1  0
 14 19  2  0
 15 14  1  0
 16 17  1  0
 16 15  2  0
 17 18  2  0
 18 13  1  0
 18 19  1  0
 20 23  1  0
 20 16  1  0
 21 20  1  0
 22 20  1  0
 24 15  1  0
 24 27  1  0
 25 24  1  0
 26 24  1  0
  1 28  1  0
  1 29  1  0
  3 30  1  0
  3 31  1  0
  4 32  1  0
  4 33  1  0
  6 34  1  0
  6 35  1  0
  7 36  1  6
  9 37  1  0
 11 38  1  0
 13 39  1  0
 13 40  1  0
 14 41  1  0
M  ISO  8  28   8  29   8  30  13  31  13  32  13  33  13  34  13  35  13
M  ISO  6  36  13  37  14  38  14  39   8  40   8  41  14
M  END
>  <minimizedAffinity>  (1) 
-5.57980299

>  <minimizedRMSD>  (1) 
1.81112933

$$$$
