
     RDKit          3D

 40 42  0  0  1  0  0  0  0  0999 V2000
   48.0000   29.4550   46.6290 N   0  0  0  0  0  0  0  0  0  0  0  0
   49.2780   29.1430   46.0210 C   0  0  0  0  0  0  0  0  0  0  0  0
   50.2940   28.6910   47.0120 C   0  0  0  0  0  0  0  0  0  0  0  0
   50.3940   29.4690   48.1470 O   0  0  0  0  0  0  0  0  0  0  0  0
   49.1730   29.7620   48.7180 C   0  0  0  0  0  0  0  0  0  0  0  0
   48.2640   30.4170   47.7040 C   0  0  2  0  0  0  0  0  0  0  0  0
   47.0880   30.9700   48.2800 N   0  0  0  0  0  0  0  0  0  0  0  0
   46.0290   30.3160   48.7800 C   0  0  0  0  0  0  0  0  0  0  0  0
   45.1210   31.1960   49.2330 N   0  0  0  0  0  0  0  0  0  0  0  0
   45.6290   32.4300   49.0100 C   0  0  0  0  0  0  0  0  0  0  0  0
   46.8120   32.2650   48.4370 N   0  0  0  0  0  0  0  0  0  0  0  0
   47.1710   30.1050   45.6760 C   0  0  0  0  0  0  0  0  0  0  0  0
   47.8530   30.8180   44.5880 C   0  0  0  0  0  0  0  0  0  0  0  0
   45.5590   33.7460   44.8960 C   0  0  0  0  0  0  0  0  0  0  0  0
   45.9190   34.4900   43.7540 C   0  0  0  0  0  0  0  0  0  0  0  0
   46.9060   33.9870   42.9350 C   0  0  0  0  0  0  0  0  0  0  0  0
   47.4830   32.8130   43.2530 N   0  0  0  0  0  0  0  0  0  0  0  0
   47.1420   32.0980   44.3430 C   0  0  0  0  0  0  0  0  0  0  0  0
   46.1910   32.5630   45.1510 N   0  0  0  0  0  0  0  0  0  0  0  0
   47.3540   34.6880   41.7190 C   0  0  0  0  0  0  0  0  0  0  0  0
   48.4270   33.9490   41.2040 F   0  0  0  0  0  0  0  0  0  0  0  0
   46.3320   34.7290   40.7770 F   0  0  0  0  0  0  0  0  0  0  0  0
   47.8540   35.9190   42.0300 F   0  0  0  0  0  0  0  0  0  0  0  0
   45.2460   35.7480   43.4740 C   0  0  0  0  0  0  0  0  0  0  0  0
   44.7650   36.4210   44.4180 O   0  0  0  0  0  0  0  0  0  0  0  0
   49.1290   28.3431   45.2807 H   0  0  0  0  0  0  0  0  0  0  0  0
   49.6569   30.0647   45.5554 H   0  0  0  0  0  0  0  0  0  0  0  0
   50.0351   27.6680   47.3224 H   0  0  0  0  0  0  0  0  0  0  0  0
   51.2678   28.7632   46.5055 H   0  0  0  0  0  0  0  0  0  0  0  0
   48.7071   28.8320   49.0758 H   0  0  0  0  0  0  0  0  0  0  0  0
   49.3279   30.4535   49.5593 H   0  0  0  0  0  0  0  0  0  0  0  0
   48.7717   31.2933   47.2746 H   0  0  0  0  0  0  0  0  0  0  0  0
   45.9203   29.2219   48.8140 H   0  0  0  0  0  0  0  0  0  0  0  0
   45.1503   33.3889   49.2576 H   0  0  0  0  0  0  0  0  0  0  0  0
   46.5242   29.3409   45.2202 H   0  0  0  0  0  0  0  0  0  0  0  0
   46.6349   30.8822   46.2405 H   0  0  0  0  0  0  0  0  0  0  0  0
   48.8953   31.0218   44.8744 H   0  0  0  0  0  0  0  0  0  0  0  0
   47.8483   30.2044   43.6751 H   0  0  0  0  0  0  0  0  0  0  0  0
   44.7764   34.1151   45.5752 H   0  0  0  0  0  0  0  0  0  0  0  0
   45.1587   36.1087   42.4385 H   0  0  0  0  0  0  0  0  0  0  0  0
  1  6  1  0
  2  1  1  0
  2  3  1  0
  3  4  1  0
  4  5  1  0
  6  7  1  0
  6  5  1  0
  7 11  1  0
  7  8  1  0
  8  9  2  0
 10  9  1  0
 11 10  2  0
 12  1  1  0
 13 12  1  0
 14 19  2  0
 15 14  1  0
 16 17  1  0
 16 15  2  0
 17 18  2  0
 18 13  1  0
 18 19  1  0
 20 23  1  0
 20 16  1  0
 21 20  1  0
 22 20  1  0
 24 15  1  0
 24 25  2  0
  2 26  1  0
  2 27  1  0
  3 28  1  0
  3 29  1  0
  5 30  1  0
  5 31  1  0
  6 32  1  6
  8 33  1  0
 10 34  1  0
 12 35  1  0
 12 36  1  0
 13 37  1  0
 13 38  1  0
 14 39  1  0
 24 40  1  0
M  ISO  8  26  13  27  13  28  13  29  13  30  13  31  13  32  13  33  14
M  ISO  7  34  14  35   8  36   8  37   8  38   8  39  14  40   6
M  END
>  <minimizedAffinity>  (1) 
-4.99169111

>  <minimizedRMSD>  (1) 
1.90293884

$$$$
