
     RDKit          3D

 39 41  0  0  1  0  0  0  0  0999 V2000
   47.9840   29.4470   46.6320 N   0  0  0  0  0  0  0  0  0  0  0  0
   49.2560   29.1410   46.0240 C   0  0  0  0  0  0  0  0  0  0  0  0
   50.2810   28.6970   47.0120 C   0  0  0  0  0  0  0  0  0  0  0  0
   50.3810   29.4670   48.1410 O   0  0  0  0  0  0  0  0  0  0  0  0
   49.1610   29.7600   48.7210 C   0  0  0  0  0  0  0  0  0  0  0  0
   48.2470   30.4080   47.7100 C   0  0  2  0  0  0  0  0  0  0  0  0
   47.0680   30.9560   48.2950 N   0  0  0  0  0  0  0  0  0  0  0  0
   46.0060   30.2950   48.7660 C   0  0  0  0  0  0  0  0  0  0  0  0
   45.0990   31.1700   49.2400 N   0  0  0  0  0  0  0  0  0  0  0  0
   45.6210   32.4030   49.0530 C   0  0  0  0  0  0  0  0  0  0  0  0
   46.8030   32.2450   48.4850 N   0  0  0  0  0  0  0  0  0  0  0  0
   47.1350   30.0860   45.6790 C   0  0  0  0  0  0  0  0  0  0  0  0
   47.8220   30.8280   44.6110 C   0  0  0  0  0  0  0  0  0  0  0  0
   45.5510   33.7510   45.0140 C   0  0  0  0  0  0  0  0  0  0  0  0
   45.8520   34.4990   43.8430 C   0  0  0  0  0  0  0  0  0  0  0  0
   46.8000   33.9850   42.9800 C   0  0  0  0  0  0  0  0  0  0  0  0
   47.3950   32.8170   43.2720 N   0  0  0  0  0  0  0  0  0  0  0  0
   47.1040   32.1110   44.3880 C   0  0  0  0  0  0  0  0  0  0  0  0
   46.2000   32.5730   45.2360 N   0  0  0  0  0  0  0  0  0  0  0  0
   47.1840   34.6800   41.7430 C   0  0  0  0  0  0  0  0  0  0  0  0
   48.1590   33.8920   41.1220 F   0  0  0  0  0  0  0  0  0  0  0  0
   46.0830   34.7980   40.8860 F   0  0  0  0  0  0  0  0  0  0  0  0
   47.7540   35.8900   42.0270 F   0  0  0  0  0  0  0  0  0  0  0  0
   45.0380   36.0500   43.4920 S   0  0  0  0  0  0  0  0  0  0  0  0
   49.1083   28.3379   45.2869 H   0  0  0  0  0  0  0  0  0  0  0  0
   49.6279   30.0642   45.5556 H   0  0  0  0  0  0  0  0  0  0  0  0
   50.0320   27.6713   47.3217 H   0  0  0  0  0  0  0  0  0  0  0  0
   51.2513   28.7810   46.5007 H   0  0  0  0  0  0  0  0  0  0  0  0
   48.6992   28.8306   49.0856 H   0  0  0  0  0  0  0  0  0  0  0  0
   49.3191   30.4541   49.5596 H   0  0  0  0  0  0  0  0  0  0  0  0
   48.7492   31.2853   47.2763 H   0  0  0  0  0  0  0  0  0  0  0  0
   45.8904   29.2011   48.7663 H   0  0  0  0  0  0  0  0  0  0  0  0
   45.1494   33.3593   49.3234 H   0  0  0  0  0  0  0  0  0  0  0  0
   46.5135   29.3111   45.2066 H   0  0  0  0  0  0  0  0  0  0  0  0
   46.5603   30.8351   46.2434 H   0  0  0  0  0  0  0  0  0  0  0  0
   48.8607   31.0317   44.9102 H   0  0  0  0  0  0  0  0  0  0  0  0
   47.8281   30.2346   43.6848 H   0  0  0  0  0  0  0  0  0  0  0  0
   44.8033   34.1185   45.7323 H   0  0  0  0  0  0  0  0  0  0  0  0
   44.7120   36.6712   44.6687 H   0  0  0  0  0  0  0  0  0  0  0  0
  1  6  1  0
  2  1  1  0
  2  3  1  0
  3  4  1  0
  4  5  1  0
  6  7  1  0
  6  5  1  0
  7 11  1  0
  7  8  1  0
  8  9  2  0
 10  9  1  0
 11 10  2  0
 12  1  1  0
 13 12  1  0
 14 19  2  0
 15 14  1  0
 16 17  1  0
 16 15  2  0
 17 18  2  0
 18 13  1  0
 18 19  1  0
 20 23  1  0
 20 16  1  0
 21 20  1  0
 22 20  1  0
 24 15  1  0
  2 25  1  0
  2 26  1  0
  3 27  1  0
  3 28  1  0
  5 29  1  0
  5 30  1  0
  6 31  1  6
  8 32  1  0
 10 33  1  0
 12 34  1  0
 12 35  1  0
 13 36  1  0
 13 37  1  0
 14 38  1  0
 24 39  1  0
M  ISO  8  25  13  26  13  27  13  28  13  29  13  30  13  31  13  32  14
M  ISO  7  33  14  34   8  35   8  36   8  37   8  38  14  39  11
M  END
>  <minimizedAffinity>  (1) 
-4.81032324

>  <minimizedRMSD>  (1) 
1.79523742

$$$$
