
     RDKit          3D

 38 40  0  0  1  0  0  0  0  0999 V2000
   48.8130   34.4430   41.8030 C   0  0  0  0  0  0  0  0  0  0  0  0
   47.7310   34.2800   42.7950 C   0  0  0  0  0  0  0  0  0  0  0  0
   46.6610   35.1580   42.6030 C   0  0  0  0  0  0  0  0  0  0  0  0
   45.5580   35.1020   43.4780 C   0  0  0  0  0  0  0  0  0  0  0  0
   45.5980   34.1770   44.4830 N   0  0  0  0  0  0  0  0  0  0  0  0
   46.6420   33.3390   44.6520 C   0  0  0  0  0  0  0  0  0  0  0  0
   47.6780   33.4010   43.8190 N   0  0  0  0  0  0  0  0  0  0  0  0
   50.1410   34.0560   42.4080 C   0  0  0  0  0  0  0  0  0  0  0  0
   48.9490   35.8120   41.2790 C   0  0  0  0  0  0  0  0  0  0  0  0
   48.5090   33.5090   40.6500 C   0  0  0  0  0  0  0  0  0  0  0  0
   48.0010   34.1840   39.4340 C   0  0  2  0  0  0  0  0  0  0  0  0
   47.0030   33.5760   38.5590 C   0  0  0  0  0  0  0  0  0  0  0  0
   48.4100   33.7100   38.0500 C   0  0  2  0  0  0  0  0  0  0  0  0
   49.2610   32.5340   37.9060 C   0  0  0  0  0  0  0  0  0  0  0  0
   50.1080   31.9860   38.8770 C   0  0  0  0  0  0  0  0  0  0  0  0
   50.8960   30.8720   38.6850 C   0  0  0  0  0  0  0  0  0  0  0  0
   50.8700   30.2390   37.4740 C   0  0  0  0  0  0  0  0  0  0  0  0
   50.0370   30.7760   36.5140 C   0  0  0  0  0  0  0  0  0  0  0  0
   49.2780   31.8640   36.7280 N   0  0  0  0  0  0  0  0  0  0  0  0
   46.6796   35.8850   41.7777 H   0  0  0  0  0  0  0  0  0  0  0  0
   44.6979   35.7769   43.3568 H   0  0  0  0  0  0  0  0  0  0  0  0
   46.6368   32.6083   45.4742 H   0  0  0  0  0  0  0  0  0  0  0  0
   50.0645   34.0783   43.5051 H   0  0  0  0  0  0  0  0  0  0  0  0
   50.4117   33.0416   42.0798 H   0  0  0  0  0  0  0  0  0  0  0  0
   50.9143   34.7662   42.0798 H   0  0  0  0  0  0  0  0  0  0  0  0
   49.0194   36.5203   42.1177 H   0  0  0  0  0  0  0  0  0  0  0  0
   49.8584   35.8805   40.6639 H   0  0  0  0  0  0  0  0  0  0  0  0
   48.0709   36.0581   40.6639 H   0  0  0  0  0  0  0  0  0  0  0  0
   49.4341   32.9754   40.3863 H   0  0  0  0  0  0  0  0  0  0  0  0
   47.7091   32.8364   40.9932 H   0  0  0  0  0  0  0  0  0  0  0  0
   48.0581   35.1335   39.9865 H   0  0  0  0  0  0  0  0  0  0  0  0
   46.6023   32.5799   38.7984 H   0  0  0  0  0  0  0  0  0  0  0  0
   46.0177   33.8897   38.1839 H   0  0  0  0  0  0  0  0  0  0  0  0
   48.8879   34.1578   37.1662 H   0  0  0  0  0  0  0  0  0  0  0  0
   50.1470   32.4782   39.8599 H   0  0  0  0  0  0  0  0  0  0  0  0
   51.5377   30.4970   39.4959 H   0  0  0  0  0  0  0  0  0  0  0  0
   51.4820   29.3469   37.2748 H   0  0  0  0  0  0  0  0  0  0  0  0
   49.9922   30.2909   35.5277 H   0  0  0  0  0  0  0  0  0  0  0  0
  1  8  1  0
  1  2  1  0
  2  7  1  0
  3  2  2  0
  3  4  1  0
  4  5  2  0
  5  6  1  0
  7  6  2  0
  9  1  1  0
 10  1  1  0
 11 10  1  0
 12 11  1  0
 13 12  1  0
 13 11  1  0
 14 13  1  0
 14 15  2  0
 16 15  1  0
 17 16  2  0
 18 19  2  0
 18 17  1  0
 19 14  1  0
  3 20  1  0
  4 21  1  0
  6 22  1  0
  8 23  1  0
  8 24  1  0
  8 25  1  0
  9 26  1  0
  9 27  1  0
  9 28  1  0
 10 29  1  0
 10 30  1  0
 11 31  1  1
 12 32  1  0
 12 33  1  0
 13 34  1  6
 15 35  1  0
 16 36  1  0
 17 37  1  0
 18 38  1  0
M  ISO  8  20  14  21  14  22  14  23   8  24   8  25   8  26   8  27   8
M  ISO  8  28   8  29   8  30   8  31  13  32  13  33  13  34  13  35  14
M  ISO  3  36  14  37  14  38  14
M  END
>  <minimizedAffinity>  (1) 
-4.63667345

>  <minimizedRMSD>  (1) 
1.25513434

$$$$
