
     RDKit          3D

 37 39  0  0  1  0  0  0  0  0999 V2000
   48.7960   34.4570   41.8190 C   0  0  0  0  0  0  0  0  0  0  0  0
   47.7110   34.2960   42.8060 C   0  0  0  0  0  0  0  0  0  0  0  0
   46.6410   35.1690   42.6140 C   0  0  0  0  0  0  0  0  0  0  0  0
   45.5380   35.1150   43.4840 C   0  0  0  0  0  0  0  0  0  0  0  0
   45.5810   34.1890   44.4890 N   0  0  0  0  0  0  0  0  0  0  0  0
   46.6300   33.3480   44.6610 C   0  0  0  0  0  0  0  0  0  0  0  0
   47.6550   33.4200   43.8290 N   0  0  0  0  0  0  0  0  0  0  0  0
   50.1260   34.0880   42.4300 C   0  0  0  0  0  0  0  0  0  0  0  0
   48.9310   35.8180   41.2840 C   0  0  0  0  0  0  0  0  0  0  0  0
   48.5090   33.5190   40.6650 C   0  0  0  0  0  0  0  0  0  0  0  0
   47.9910   34.1780   39.4430 C   0  0  2  0  0  0  0  0  0  0  0  0
   47.0010   33.5590   38.5680 C   0  0  0  0  0  0  0  0  0  0  0  0
   48.4110   33.7080   38.0710 C   0  0  2  0  0  0  0  0  0  0  0  0
   49.2660   32.5290   37.8930 C   0  0  0  0  0  0  0  0  0  0  0  0
   50.1150   31.9750   38.8600 C   0  0  0  0  0  0  0  0  0  0  0  0
   50.8900   30.8630   38.6050 C   0  0  0  0  0  0  0  0  0  0  0  0
   50.8640   30.2470   37.3900 N   0  0  0  0  0  0  0  0  0  0  0  0
   50.0540   30.7810   36.4800 C   0  0  0  0  0  0  0  0  0  0  0  0
   49.3010   31.8600   36.7220 N   0  0  0  0  0  0  0  0  0  0  0  0
   46.6597   35.8948   41.7877 H   0  0  0  0  0  0  0  0  0  0  0  0
   44.6773   35.7889   43.3614 H   0  0  0  0  0  0  0  0  0  0  0  0
   46.6285   32.6155   45.4817 H   0  0  0  0  0  0  0  0  0  0  0  0
   50.0446   34.1106   43.5267 H   0  0  0  0  0  0  0  0  0  0  0  0
   50.4112   33.0768   42.1043 H   0  0  0  0  0  0  0  0  0  0  0  0
   50.8915   34.8077   42.1043 H   0  0  0  0  0  0  0  0  0  0  0  0
   49.0020   36.5338   42.1163 H   0  0  0  0  0  0  0  0  0  0  0  0
   49.8398   35.8812   40.6675 H   0  0  0  0  0  0  0  0  0  0  0  0
   48.0523   36.0585   40.6675 H   0  0  0  0  0  0  0  0  0  0  0  0
   49.4437   33.0009   40.4044 H   0  0  0  0  0  0  0  0  0  0  0  0
   47.7168   32.8378   41.0091 H   0  0  0  0  0  0  0  0  0  0  0  0
   48.0319   35.1292   39.9940 H   0  0  0  0  0  0  0  0  0  0  0  0
   46.6088   32.5596   38.8076 H   0  0  0  0  0  0  0  0  0  0  0  0
   46.0141   33.8605   38.1870 H   0  0  0  0  0  0  0  0  0  0  0  0
   48.9038   34.1678   37.2017 H   0  0  0  0  0  0  0  0  0  0  0  0
   50.1651   32.4420   39.8547 H   0  0  0  0  0  0  0  0  0  0  0  0
   51.5414   30.4660   39.3975 H   0  0  0  0  0  0  0  0  0  0  0  0
   50.0010   30.3150   35.4850 H   0  0  0  0  0  0  0  0  0  0  0  0
  1  8  1  0
  1  2  1  0
  2  7  1  0
  3  2  2  0
  3  4  1  0
  4  5  2  0
  5  6  1  0
  7  6  2  0
  9  1  1  0
 10  1  1  0
 11 10  1  0
 12 11  1  0
 13 12  1  0
 13 11  1  0
 14 13  1  0
 14 15  2  0
 16 15  1  0
 17 16  2  0
 18 19  2  0
 18 17  1  0
 19 14  1  0
  3 20  1  0
  4 21  1  0
  6 22  1  0
  8 23  1  0
  8 24  1  0
  8 25  1  0
  9 26  1  0
  9 27  1  0
  9 28  1  0
 10 29  1  0
 10 30  1  0
 11 31  1  1
 12 32  1  0
 12 33  1  0
 13 34  1  6
 15 35  1  0
 16 36  1  0
 18 37  1  0
M  ISO  8  20  14  21  14  22  14  23   8  24   8  25   8  26   8  27   8
M  ISO  8  28   8  29   8  30   8  31  13  32  13  33  13  34  13  35  14
M  ISO  2  36  14  37  14
M  END
>  <minimizedAffinity>  (1) 
-4.65482664

>  <minimizedRMSD>  (1) 
1.24171638

$$$$
