
     RDKit          3D

 36 38  0  0  1  0  0  0  0  0999 V2000
   48.8420   34.5130   41.8510 C   0  0  0  0  0  0  0  0  0  0  0  0
   47.7340   34.3250   42.8100 C   0  0  0  0  0  0  0  0  0  0  0  0
   46.6700   35.1860   42.6310 C   0  0  0  0  0  0  0  0  0  0  0  0
   45.5580   35.0900   43.5070 C   0  0  0  0  0  0  0  0  0  0  0  0
   45.6090   34.1450   44.4790 N   0  0  0  0  0  0  0  0  0  0  0  0
   46.6550   33.3220   44.6280 C   0  0  0  0  0  0  0  0  0  0  0  0
   47.6910   33.4220   43.8030 N   0  0  0  0  0  0  0  0  0  0  0  0
   50.1620   34.1220   42.4780 C   0  0  0  0  0  0  0  0  0  0  0  0
   48.9690   35.9030   41.3350 C   0  0  0  0  0  0  0  0  0  0  0  0
   48.5910   33.5960   40.6710 C   0  0  0  0  0  0  0  0  0  0  0  0
   47.9340   34.2470   39.5130 C   0  0  2  0  0  0  0  0  0  0  0  0
   46.9660   33.5610   38.6450 C   0  0  0  0  0  0  0  0  0  0  0  0
   48.3610   33.8400   38.1300 C   0  0  2  0  0  0  0  0  0  0  0  0
   49.1570   32.6400   37.8720 C   0  0  0  0  0  0  0  0  0  0  0  0
   49.3810   32.0740   36.6760 C   0  0  0  0  0  0  0  0  0  0  0  0
   50.0970   30.9820   36.3970 C   0  0  0  0  0  0  0  0  0  0  0  0
   50.6560   30.4320   37.6780 C   0  0  0  0  0  0  0  0  0  0  0  0
   50.0160   31.6260   39.0080 S   0  0  0  0  0  0  0  0  0  0  0  0
   46.6840   35.9331   41.8237 H   0  0  0  0  0  0  0  0  0  0  0  0
   44.6886   35.7557   43.4021 H   0  0  0  0  0  0  0  0  0  0  0  0
   46.6561   32.5678   45.4288 H   0  0  0  0  0  0  0  0  0  0  0  0
   50.0698   34.1493   43.5738 H   0  0  0  0  0  0  0  0  0  0  0  0
   50.4329   33.1050   42.1581 H   0  0  0  0  0  0  0  0  0  0  0  0
   50.9431   34.8273   42.1581 H   0  0  0  0  0  0  0  0  0  0  0  0
   49.0330   36.6036   42.1806 H   0  0  0  0  0  0  0  0  0  0  0  0
   49.8784   35.9847   40.7215 H   0  0  0  0  0  0  0  0  0  0  0  0
   48.0895   36.1482   40.7215 H   0  0  0  0  0  0  0  0  0  0  0  0
   49.5590   33.1954   40.3357 H   0  0  0  0  0  0  0  0  0  0  0  0
   47.9002   32.8159   41.0236 H   0  0  0  0  0  0  0  0  0  0  0  0
   47.8794   35.1809   40.0916 H   0  0  0  0  0  0  0  0  0  0  0  0
   46.6612   32.5287   38.8717 H   0  0  0  0  0  0  0  0  0  0  0  0
   45.9495   33.7851   38.2893 H   0  0  0  0  0  0  0  0  0  0  0  0
   48.8574   34.3904   37.3172 H   0  0  0  0  0  0  0  0  0  0  0  0
   48.9146   32.5741   35.8144 H   0  0  0  0  0  0  0  0  0  0  0  0
   50.2518   30.5557   35.3948 H   0  0  0  0  0  0  0  0  0  0  0  0
   51.2896   29.5431   37.8140 H   0  0  0  0  0  0  0  0  0  0  0  0
  1  8  1  0
  1  2  1  0
  2  7  1  0
  3  2  2  0
  3  4  1  0
  4  5  2  0
  5  6  1  0
  7  6  2  0
  9  1  1  0
 10  1  1  0
 11 10  1  0
 12 11  1  0
 13 12  1  0
 13 11  1  0
 14 13  1  0
 14 18  1  0
 15 14  2  0
 16 15  1  0
 16 17  2  0
 17 18  1  0
  3 19  1  0
  4 20  1  0
  6 21  1  0
  8 22  1  0
  8 23  1  0
  8 24  1  0
  9 25  1  0
  9 26  1  0
  9 27  1  0
 10 28  1  0
 10 29  1  0
 11 30  1  1
 12 31  1  0
 12 32  1  0
 13 33  1  6
 15 34  1  0
 16 35  1  0
 17 36  1  0
M  ISO  8  19  14  20  14  21  14  22   8  23   8  24   8  25   8  26   8
M  ISO  8  27   8  28   8  29   8  30  13  31  13  32  13  33  13  34  14
M  ISO  2  35  14  36  14
M  END
>  <minimizedAffinity>  (1) 
-4.70569515

>  <minimizedRMSD>  (1) 
0.763988554

$$$$
