
     RDKit          3D

 35 37  0  0  1  0  0  0  0  0999 V2000
   48.7540   34.4280   41.8330 C   0  0  0  0  0  0  0  0  0  0  0  0
   47.6150   34.3770   42.7680 C   0  0  0  0  0  0  0  0  0  0  0  0
   46.5950   35.2630   42.4510 C   0  0  0  0  0  0  0  0  0  0  0  0
   45.4460   35.3110   43.2850 C   0  0  0  0  0  0  0  0  0  0  0  0
   45.4230   34.4680   44.3580 N   0  0  0  0  0  0  0  0  0  0  0  0
   46.4280   33.6240   44.6290 C   0  0  0  0  0  0  0  0  0  0  0  0
   47.4910   33.5930   43.8430 N   0  0  0  0  0  0  0  0  0  0  0  0
   50.0670   34.3650   42.5890 C   0  0  0  0  0  0  0  0  0  0  0  0
   48.8060   35.6470   40.9920 C   0  0  0  0  0  0  0  0  0  0  0  0
   48.6620   33.2100   40.9380 C   0  0  0  0  0  0  0  0  0  0  0  0
   48.1420   33.5340   39.5700 C   0  0  2  0  0  0  0  0  0  0  0  0
   46.7320   33.3280   39.2170 C   0  0  0  0  0  0  0  0  0  0  0  0
   47.7780   32.3700   38.6810 C   0  0  1  0  0  0  0  0  0  0  0  0
   47.9040   32.4550   37.2400 N   0  0  0  0  0  0  0  0  0  0  0  0
   48.7720   33.1710   36.5470 C   0  0  0  0  0  0  0  0  0  0  0  0
   48.5610   32.9760   35.2310 N   0  0  0  0  0  0  0  0  0  0  0  0
   47.5360   32.1180   35.1010 C   0  0  0  0  0  0  0  0  0  0  0  0
   47.1390   31.8040   36.3670 N   0  0  0  0  0  0  0  0  0  0  0  0
   46.6748   35.9164   41.5697 H   0  0  0  0  0  0  0  0  0  0  0  0
   44.6121   35.9970   43.0753 H   0  0  0  0  0  0  0  0  0  0  0  0
   46.3689   32.9587   45.5030 H   0  0  0  0  0  0  0  0  0  0  0  0
   49.8680   34.3745   43.6708 H   0  0  0  0  0  0  0  0  0  0  0  0
   50.5997   33.4403   42.3223 H   0  0  0  0  0  0  0  0  0  0  0  0
   50.6858   35.2345   42.3223 H   0  0  0  0  0  0  0  0  0  0  0  0
   48.8440   36.5367   41.6378 H   0  0  0  0  0  0  0  0  0  0  0  0
   49.7037   35.6163   40.3570 H   0  0  0  0  0  0  0  0  0  0  0  0
   47.9090   35.6929   40.3570 H   0  0  0  0  0  0  0  0  0  0  0  0
   49.6654   32.7705   40.8379 H   0  0  0  0  0  0  0  0  0  0  0  0
   47.9547   32.5084   41.4042 H   0  0  0  0  0  0  0  0  0  0  0  0
   48.8053   34.4091   39.5055 H   0  0  0  0  0  0  0  0  0  0  0  0
   46.0193   32.9885   39.9830 H   0  0  0  0  0  0  0  0  0  0  0  0
   45.9494   33.9526   38.7616 H   0  0  0  0  0  0  0  0  0  0  0  0
   48.0421   31.3028   38.7189 H   0  0  0  0  0  0  0  0  0  0  0  0
   49.5456   33.8239   36.9774 H   0  0  0  0  0  0  0  0  0  0  0  0
   47.1035   31.7436   34.1615 H   0  0  0  0  0  0  0  0  0  0  0  0
  1  8  1  0
  1  2  1  0
  2  7  1  0
  3  2  2  0
  3  4  1  0
  4  5  2  0
  5  6  1  0
  7  6  2  0
  9  1  1  0
 10  1  1  0
 11 10  1  0
 12 11  1  0
 13 12  1  0
 13 11  1  0
 14 13  1  0
 15 14  1  0
 16 15  2  0
 17 16  1  0
 17 18  2  0
 18 14  1  0
  3 19  1  0
  4 20  1  0
  6 21  1  0
  8 22  1  0
  8 23  1  0
  8 24  1  0
  9 25  1  0
  9 26  1  0
  9 27  1  0
 10 28  1  0
 10 29  1  0
 11 30  1  6
 12 31  1  0
 12 32  1  0
 13 33  1  1
 15 34  1  0
 17 35  1  0
M  ISO  8  19  14  20  14  21  14  22   8  23   8  24   8  25   8  26   8
M  ISO  8  27   8  28   8  29   8  30  13  31  13  32  13  33  13  34  14
M  ISO  1  35  14
M  END
>  <minimizedAffinity>  (1) 
-4.62046099

>  <minimizedRMSD>  (1) 
2.11550975

$$$$
