
     RDKit          3D

 41 42  0  0  1  0  0  0  0  0999 V2000
   47.6030   34.1340   42.2520 C   0  0  0  0  0  0  0  0  0  0  0  0
   46.5940   34.4760   43.2670 C   0  0  0  0  0  0  0  0  0  0  0  0
   45.8110   35.5770   42.9450 C   0  0  0  0  0  0  0  0  0  0  0  0
   44.8110   35.9910   43.8600 C   0  0  0  0  0  0  0  0  0  0  0  0
   44.6770   35.2720   45.0120 N   0  0  0  0  0  0  0  0  0  0  0  0
   45.4540   34.2120   45.2880 C   0  0  0  0  0  0  0  0  0  0  0  0
   46.3850   33.8350   44.4270 N   0  0  0  0  0  0  0  0  0  0  0  0
   48.8050   33.4690   42.8920 C   0  0  0  0  0  0  0  0  0  0  0  0
   48.1240   35.3080   41.4970 C   0  0  0  0  0  0  0  0  0  0  0  0
   46.9660   33.1980   41.2670 C   0  0  0  0  0  0  0  0  0  0  0  0
   47.0020   33.6780   39.8530 C   0  0  2  0  0  0  0  0  0  0  0  0
   46.0390   33.1550   38.8620 C   0  0  0  0  0  0  0  0  0  0  0  0
   47.4850   32.6660   38.8350 C   0  0  1  0  0  0  0  0  0  0  0  0
   48.2060   33.0660   37.6030 C   0  0  0  0  0  0  0  0  0  0  0  0
   48.4470   34.5650   37.5210 C   0  0  0  0  0  0  0  0  0  0  0  0
   49.5440   32.3610   37.5970 C   0  0  0  0  0  0  0  0  0  0  0  0
   47.4860   32.6900   36.3290 C   0  0  0  0  0  0  0  0  0  0  0  0
   45.9639   36.1168   41.9988 H   0  0  0  0  0  0  0  0  0  0  0  0
   44.1678   36.8583   43.6497 H   0  0  0  0  0  0  0  0  0  0  0  0
   45.3166   33.6581   46.2284 H   0  0  0  0  0  0  0  0  0  0  0  0
   48.7126   33.5201   43.9869 H   0  0  0  0  0  0  0  0  0  0  0  0
   48.8527   32.4162   42.5768 H   0  0  0  0  0  0  0  0  0  0  0  0
   49.7222   33.9880   42.5768 H   0  0  0  0  0  0  0  0  0  0  0  0
   48.4654   36.0773   42.2053 H   0  0  0  0  0  0  0  0  0  0  0  0
   48.9666   34.9924   40.8642 H   0  0  0  0  0  0  0  0  0  0  0  0
   47.3247   35.7211   40.8642 H   0  0  0  0  0  0  0  0  0  0  0  0
   47.4930   32.2338   41.3173 H   0  0  0  0  0  0  0  0  0  0  0  0
   45.9051   33.1197   41.5468 H   0  0  0  0  0  0  0  0  0  0  0  0
   47.2736   34.7004   40.1545 H   0  0  0  0  0  0  0  0  0  0  0  0
   45.2360   32.4753   39.1832 H   0  0  0  0  0  0  0  0  0  0  0  0
   45.3614   33.6106   38.1250 H   0  0  0  0  0  0  0  0  0  0  0  0
   48.0618   31.7352   38.9395 H   0  0  0  0  0  0  0  0  0  0  0  0
   48.5140   34.9817   38.5368 H   0  0  0  0  0  0  0  0  0  0  0  0
   49.3874   34.7563   36.9834 H   0  0  0  0  0  0  0  0  0  0  0  0
   47.6139   35.0414   36.9834 H   0  0  0  0  0  0  0  0  0  0  0  0
   49.8720   32.1882   38.6326 H   0  0  0  0  0  0  0  0  0  0  0  0
   49.4479   31.3964   37.0770 H   0  0  0  0  0  0  0  0  0  0  0  0
   50.2852   32.9856   37.0770 H   0  0  0  0  0  0  0  0  0  0  0  0
   46.5361   32.1940   36.5774 H   0  0  0  0  0  0  0  0  0  0  0  0
   47.2831   33.5973   35.7411 H   0  0  0  0  0  0  0  0  0  0  0  0
   48.1146   32.0050   35.7411 H   0  0  0  0  0  0  0  0  0  0  0  0
  1  8  1  0
  1  2  1  0
  2  7  1  0
  3  2  2  0
  3  4  1  0
  4  5  2  0
  5  6  1  0
  7  6  2  0
  9  1  1  0
 10  1  1  0
 11 10  1  0
 12 11  1  0
 13 12  1  0
 13 11  1  0
 14 13  1  0
 15 14  1  0
 16 14  1  0
 17 14  1  0
  3 18  1  0
  4 19  1  0
  6 20  1  0
  8 21  1  0
  8 22  1  0
  8 23  1  0
  9 24  1  0
  9 25  1  0
  9 26  1  0
 10 27  1  0
 10 28  1  0
 11 29  1  1
 12 30  1  0
 12 31  1  0
 13 32  1  1
 15 33  1  0
 15 34  1  0
 15 35  1  0
 16 36  1  0
 16 37  1  0
 16 38  1  0
 17 39  1  0
 17 40  1  0
 17 41  1  0
M  ISO  8  18  14  19  14  20  14  21   8  22   8  23   8  24   8  25   8
M  ISO  8  26   8  27   8  28   8  29  13  30  13  31  13  32  13  33   8
M  ISO  8  34   8  35   8  36   8  37   8  38   8  39   8  40   8  41   8
M  END
>  <minimizedAffinity>  (1) 
-4.59520769

>  <minimizedRMSD>  (1) 
1.82904184

$$$$
