
     RDKit          3D

 35 36  0  0  1  0  0  0  0  0999 V2000
   48.7960   34.5780   41.9370 C   0  0  0  0  0  0  0  0  0  0  0  0
   47.6530   34.4200   42.8510 C   0  0  0  0  0  0  0  0  0  0  0  0
   46.6000   35.2880   42.5900 C   0  0  0  0  0  0  0  0  0  0  0  0
   45.4480   35.2350   43.4130 C   0  0  0  0  0  0  0  0  0  0  0  0
   45.4480   34.3180   44.4240 N   0  0  0  0  0  0  0  0  0  0  0  0
   46.4850   33.4970   44.6420 C   0  0  0  0  0  0  0  0  0  0  0  0
   47.5530   33.5580   43.8680 N   0  0  0  0  0  0  0  0  0  0  0  0
   50.1000   34.2980   42.6570 C   0  0  0  0  0  0  0  0  0  0  0  0
   48.9250   35.9300   41.3380 C   0  0  0  0  0  0  0  0  0  0  0  0
   48.6290   33.5670   40.8230 C   0  0  0  0  0  0  0  0  0  0  0  0
   48.0060   34.1420   39.5900 C   0  0  2  0  0  0  0  0  0  0  0  0
   46.8100   33.5540   38.9770 C   0  0  0  0  0  0  0  0  0  0  0  0
   48.1480   33.3610   38.3110 C   0  0  1  0  0  0  0  0  0  0  0  0
   48.2990   34.0490   36.9970 C   0  0  0  0  0  0  0  0  0  0  0  0
   48.5680   33.0540   35.8880 C   0  0  0  0  0  0  0  0  0  0  0  0
   46.6598   36.0048   41.7578 H   0  0  0  0  0  0  0  0  0  0  0  0
   44.5910   35.9037   43.2446 H   0  0  0  0  0  0  0  0  0  0  0  0
   46.4461   32.7710   45.4674 H   0  0  0  0  0  0  0  0  0  0  0  0
   49.9338   34.3337   43.7438 H   0  0  0  0  0  0  0  0  0  0  0  0
   50.4678   33.3004   42.3749 H   0  0  0  0  0  0  0  0  0  0  0  0
   50.8449   35.0567   42.3749 H   0  0  0  0  0  0  0  0  0  0  0  0
   48.9966   36.6806   42.1389 H   0  0  0  0  0  0  0  0  0  0  0  0
   49.8311   35.9704   40.7156 H   0  0  0  0  0  0  0  0  0  0  0  0
   48.0429   36.1410   40.7156 H   0  0  0  0  0  0  0  0  0  0  0  0
   49.6206   33.1699   40.5604 H   0  0  0  0  0  0  0  0  0  0  0  0
   47.9531   32.7824   41.1939 H   0  0  0  0  0  0  0  0  0  0  0  0
   48.2435   35.1588   39.9359 H   0  0  0  0  0  0  0  0  0  0  0  0
   46.3102   32.7011   39.4595 H   0  0  0  0  0  0  0  0  0  0  0  0
   45.8347   33.9465   38.6533 H   0  0  0  0  0  0  0  0  0  0  0  0
   48.8054   32.5339   38.0049 H   0  0  0  0  0  0  0  0  0  0  0  0
   47.3730   34.5978   36.7704 H   0  0  0  0  0  0  0  0  0  0  0  0
   49.1525   34.7401   37.0607 H   0  0  0  0  0  0  0  0  0  0  0  0
   48.8314   32.0797   36.3255 H   0  0  0  0  0  0  0  0  0  0  0  0
   47.6670   32.9453   35.2664 H   0  0  0  0  0  0  0  0  0  0  0  0
   49.4010   33.4141   35.2664 H   0  0  0  0  0  0  0  0  0  0  0  0
  1  8  1  0
  1  2  1  0
  2  7  1  0
  3  2  2  0
  3  4  1  0
  4  5  2  0
  5  6  1  0
  7  6  2  0
  9  1  1  0
 10  1  1  0
 11 10  1  0
 12 11  1  0
 13 12  1  0
 13 11  1  0
 14 13  1  0
 15 14  1  0
  3 16  1  0
  4 17  1  0
  6 18  1  0
  8 19  1  0
  8 20  1  0
  8 21  1  0
  9 22  1  0
  9 23  1  0
  9 24  1  0
 10 25  1  0
 10 26  1  0
 11 27  1  6
 12 28  1  0
 12 29  1  0
 13 30  1  1
 14 31  1  0
 14 32  1  0
 15 33  1  0
 15 34  1  0
 15 35  1  0
M  ISO  8  16  14  17  14  18  14  19   8  20   8  21   8  22   8  23   8
M  ISO  8  24   8  25   8  26   8  27  13  28  13  29  13  30  13  31   8
M  ISO  4  32   8  33   8  34   8  35   8
M  END
>  <minimizedAffinity>  (1) 
-4.53975725

>  <minimizedRMSD>  (1) 
0.729971826

$$$$
