
     RDKit          3D

 34 36  0  0  1  0  0  0  0  0999 V2000
   46.1710   34.5800   42.9310 C   0  0  0  0  0  0  0  0  0  0  0  0
   46.2600   33.8020   44.1810 C   0  0  0  0  0  0  0  0  0  0  0  0
   45.4440   34.2780   45.2000 C   0  0  0  0  0  0  0  0  0  0  0  0
   45.4540   33.6140   46.4520 C   0  0  0  0  0  0  0  0  0  0  0  0
   46.2800   32.5320   46.5730 N   0  0  0  0  0  0  0  0  0  0  0  0
   47.0530   32.1030   45.5650 C   0  0  0  0  0  0  0  0  0  0  0  0
   47.0300   32.7340   44.4070 N   0  0  0  0  0  0  0  0  0  0  0  0
   47.5540   34.9730   42.4510 C   0  0  0  0  0  0  0  0  0  0  0  0
   45.3950   35.8380   43.0470 C   0  0  0  0  0  0  0  0  0  0  0  0
   45.5190   33.6850   41.8980 C   0  0  0  0  0  0  0  0  0  0  0  0
   44.0200   33.7500   41.9390 C   0  0  2  0  0  0  0  0  0  0  0  0
   43.1920   32.6850   41.3490 C   0  0  0  0  0  0  0  0  0  0  0  0
   43.3480   33.9990   40.6080 C   0  0  1  0  0  0  0  0  0  0  0  0
   42.1930   34.8740   40.4670 C   0  0  0  0  0  0  0  0  0  0  0  0
   41.5040   35.0820   39.3290 N   0  0  0  0  0  0  0  0  0  0  0  0
   40.5340   35.9100   39.5220 O   0  0  0  0  0  0  0  0  0  0  0  0
   40.5460   36.2710   40.7690 C   0  0  0  0  0  0  0  0  0  0  0  0
   41.5750   35.6370   41.3830 N   0  0  0  0  0  0  0  0  0  0  0  0
   44.8010   35.1556   45.0376 H   0  0  0  0  0  0  0  0  0  0  0  0
   44.8255   33.9540   47.2883 H   0  0  0  0  0  0  0  0  0  0  0  0
   47.7044   31.2275   45.7033 H   0  0  0  0  0  0  0  0  0  0  0  0
   48.2045   35.1578   43.3186 H   0  0  0  0  0  0  0  0  0  0  0  0
   47.9761   34.1592   41.8430 H   0  0  0  0  0  0  0  0  0  0  0  0
   47.4851   35.8871   41.8430 H   0  0  0  0  0  0  0  0  0  0  0  0
   45.2457   36.0801   44.1096 H   0  0  0  0  0  0  0  0  0  0  0  0
   45.9462   36.6552   42.5587 H   0  0  0  0  0  0  0  0  0  0  0  0
   44.4174   35.7121   42.5587 H   0  0  0  0  0  0  0  0  0  0  0  0
   45.8315   32.6469   42.0842 H   0  0  0  0  0  0  0  0  0  0  0  0
   45.8398   34.0344   40.9055 H   0  0  0  0  0  0  0  0  0  0  0  0
   44.0263   34.2097   42.9383 H   0  0  0  0  0  0  0  0  0  0  0  0
   43.6684   31.7746   40.9563 H   0  0  0  0  0  0  0  0  0  0  0  0
   42.3345   32.0900   41.6963 H   0  0  0  0  0  0  0  0  0  0  0  0
   43.6986   34.3329   39.6203 H   0  0  0  0  0  0  0  0  0  0  0  0
   39.8429   36.9703   41.2450 H   0  0  0  0  0  0  0  0  0  0  0  0
  1  9  1  0
  1  2  1  0
  2  7  1  0
  2  3  2  0
  3  4  1  0
  4  5  2  0
  6  5  1  0
  7  6  2  0
  8  1  1  0
 10 11  1  0
 10  1  1  0
 12 11  1  0
 13 12  1  0
 13 11  1  0
 14 13  1  0
 14 18  1  0
 15 16  1  0
 15 14  2  0
 16 17  1  0
 17 18  2  0
  3 19  1  0
  4 20  1  0
  6 21  1  0
  8 22  1  0
  8 23  1  0
  8 24  1  0
  9 25  1  0
  9 26  1  0
  9 27  1  0
 10 28  1  0
 10 29  1  0
 11 30  1  1
 12 31  1  0
 12 32  1  0
 13 33  1  6
 17 34  1  0
M  ISO  8  19  14  20  14  21  14  22   8  23   8  24   8  25   8  26   8
M  ISO  8  27   8  28   8  29   8  30  13  31  13  32  13  33  13  34  14
M  END
>  <minimizedAffinity>  (1) 
-4.5764451

>  <minimizedRMSD>  (1) 
5.25869131

$$$$
