
     RDKit          3D

 45 48  0  0  1  0  0  0  0  0999 V2000
   46.7000   30.9800   37.0140 C   0  0  0  0  0  0  0  0  0  0  0  0
   45.9010   32.2080   37.3030 C   0  0  2  0  0  0  0  0  0  0  0  0
   46.5780   33.5020   37.4850 C   0  0  0  0  0  0  0  0  0  0  0  0
   46.0210   32.7640   38.7070 C   0  0  1  0  0  0  0  0  0  0  0  0
   44.9350   33.4840   39.3630 C   0  0  0  0  0  0  0  0  0  0  0  0
   43.6220   33.5830   38.9560 C   0  0  0  0  0  0  0  0  0  0  0  0
   42.6710   34.2960   39.6590 C   0  0  0  0  0  0  0  0  0  0  0  0
   43.0100   34.9570   40.8350 C   0  0  0  0  0  0  0  0  0  0  0  0
   44.3280   34.8600   41.2460 C   0  0  0  0  0  0  0  0  0  0  0  0
   44.6290   35.5370   42.4290 C   0  0  0  0  0  0  0  0  0  0  0  0
   45.9350   35.4670   42.8770 C   0  0  0  0  0  0  0  0  0  0  0  0
   46.9200   34.7680   42.2110 C   0  0  0  0  0  0  0  0  0  0  0  0
   46.5510   34.1240   41.0510 C   0  0  0  0  0  0  0  0  0  0  0  0
   45.2710   34.1440   40.5340 C   0  0  0  0  0  0  0  0  0  0  0  0
   46.3810   30.2860   35.7120 C   0  0  0  0  0  0  0  0  0  0  0  0
   47.3550   30.7730   34.7120 C   0  0  0  0  0  0  0  0  0  0  0  0
   47.0630   30.4410   33.3980 C   0  0  0  0  0  0  0  0  0  0  0  0
   47.9540   30.8700   32.3830 C   0  0  0  0  0  0  0  0  0  0  0  0
   49.0440   31.5860   32.7610 N   0  0  0  0  0  0  0  0  0  0  0  0
   49.3000   31.8930   34.0410 C   0  0  0  0  0  0  0  0  0  0  0  0
   48.4620   31.4870   34.9790 N   0  0  0  0  0  0  0  0  0  0  0  0
   46.4920   28.7910   35.9010 C   0  0  0  0  0  0  0  0  0  0  0  0
   44.9700   30.6130   35.3730 C   0  0  0  0  0  0  0  0  0  0  0  0
   47.7625   31.2643   36.9946 H   0  0  0  0  0  0  0  0  0  0  0  0
   46.4463   30.2621   37.8078 H   0  0  0  0  0  0  0  0  0  0  0  0
   45.0793   31.8837   36.6475 H   0  0  0  0  0  0  0  0  0  0  0  0
   47.6656   33.5775   37.3384 H   0  0  0  0  0  0  0  0  0  0  0  0
   46.4492   34.5098   37.0634 H   0  0  0  0  0  0  0  0  0  0  0  0
   46.3618   32.3136   39.6509 H   0  0  0  0  0  0  0  0  0  0  0  0
   43.3183   33.0717   38.0306 H   0  0  0  0  0  0  0  0  0  0  0  0
   41.6372   34.3416   39.2860 H   0  0  0  0  0  0  0  0  0  0  0  0
   42.2669   35.5288   41.4102 H   0  0  0  0  0  0  0  0  0  0  0  0
   43.8617   36.1007   42.9799 H   0  0  0  0  0  0  0  0  0  0  0  0
   46.2005   35.9923   43.8063 H   0  0  0  0  0  0  0  0  0  0  0  0
   47.9523   34.7268   42.5888 H   0  0  0  0  0  0  0  0  0  0  0  0
   47.3214   33.5605   40.5042 H   0  0  0  0  0  0  0  0  0  0  0  0
   46.1629   29.8595   33.1497 H   0  0  0  0  0  0  0  0  0  0  0  0
   47.7690   30.6312   31.3253 H   0  0  0  0  0  0  0  0  0  0  0  0
   50.1950   32.4747   34.3067 H   0  0  0  0  0  0  0  0  0  0  0  0
   46.5093   28.5576   36.9758 H   0  0  0  0  0  0  0  0  0  0  0  0
   45.6281   28.2970   35.4324 H   0  0  0  0  0  0  0  0  0  0  0  0
   47.4194   28.4300   35.4324 H   0  0  0  0  0  0  0  0  0  0  0  0
   44.3920   30.7470   36.2992 H   0  0  0  0  0  0  0  0  0  0  0  0
   44.9401   31.5419   34.7845 H   0  0  0  0  0  0  0  0  0  0  0  0
   44.5345   29.7920   34.7845 H   0  0  0  0  0  0  0  0  0  0  0  0
  1  2  1  0
  2  3  1  0
  2  4  1  0
  3  4  1  0
  4  5  1  0
  5 14  1  0
  6  5  2  0
  6  7  1  0
  7  8  2  0
  8  9  1  0
  9 10  2  0
 10 11  1  0
 12 11  2  0
 13 12  1  0
 14 13  2  0
 14  9  1  0
 15 22  1  0
 15  1  1  0
 16 21  1  0
 16 15  1  0
 17 16  2  0
 18 19  2  0
 18 17  1  0
 19 20  1  0
 20 21  2  0
 23 15  1  0
  1 24  1  0
  1 25  1  0
  2 26  1  6
  3 27  1  0
  3 28  1  0
  4 29  1  1
  6 30  1  0
  7 31  1  0
  8 32  1  0
 10 33  1  0
 11 34  1  0
 12 35  1  0
 13 36  1  0
 17 37  1  0
 18 38  1  0
 20 39  1  0
 22 40  1  0
 22 41  1  0
 22 42  1  0
 23 43  1  0
 23 44  1  0
 23 45  1  0
M  ISO  8  24   8  25   8  26  13  27  13  28  13  29  13  30  14  31  14
M  ISO  8  32  14  33  14  34  14  35  14  36  14  37  14  38  14  39  14
M  ISO  6  40   8  41   8  42   8  43   8  44   8  45   8
M  END
>  <minimizedAffinity>  (1) 
-4.53426456

>  <minimizedRMSD>  (1) 
8.12848377

$$$$
