
     RDKit          3D

 44 48  0  0  1  0  0  0  0  0999 V2000
   44.5890   35.7910   44.8970 C   0  0  0  0  0  0  0  0  0  0  0  0
   45.1710   35.7750   43.5910 C   0  0  0  0  0  0  0  0  0  0  0  0
   45.9950   34.7130   43.2790 C   0  0  0  0  0  0  0  0  0  0  0  0
   46.2170   33.7420   44.2130 N   0  0  0  0  0  0  0  0  0  0  0  0
   45.6420   33.8030   45.4350 C   0  0  0  0  0  0  0  0  0  0  0  0
   44.8360   34.8110   45.7840 N   0  0  0  0  0  0  0  0  0  0  0  0
   45.9050   32.7470   46.4090 N   0  0  0  0  0  0  0  0  0  0  0  0
   45.2950   32.7940   47.7240 C   0  0  0  0  0  0  0  0  0  0  0  0
   46.1880   32.2630   48.8030 C   0  0  0  0  0  0  0  0  0  0  0  0
   47.5840   32.1710   48.3020 C   0  0  0  0  0  0  0  0  0  0  0  0
   47.6010   31.1500   47.1750 C   0  0  0  0  0  0  0  0  0  0  0  0
   46.7850   31.6510   46.0400 C   0  0  1  0  0  0  0  0  0  0  0  0
   46.0430   30.5770   45.3210 C   0  0  0  0  0  0  0  0  0  0  0  0
   46.4260   29.8320   44.2870 N   0  0  0  0  0  0  0  0  0  0  0  0
   45.5210   28.9890   43.9250 O   0  0  0  0  0  0  0  0  0  0  0  0
   44.4890   29.1580   44.7310 C   0  0  0  0  0  0  0  0  0  0  0  0
   44.7980   30.1240   45.5870 N   0  0  0  0  0  0  0  0  0  0  0  0
   43.3340   28.2890   44.4920 C   0  0  0  0  0  0  0  0  0  0  0  0
   42.5440   28.3590   43.4250 N   0  0  0  0  0  0  0  0  0  0  0  0
   41.4820   27.5820   43.1750 C   0  0  0  0  0  0  0  0  0  0  0  0
   41.1220   26.6100   44.0530 N   0  0  0  0  0  0  0  0  0  0  0  0
   41.8590   26.4570   45.1690 C   0  0  0  0  0  0  0  0  0  0  0  0
   41.4900   25.4770   46.0470 C   0  0  0  0  0  0  0  0  0  0  0  0
   42.2030   25.2710   47.2040 C   0  0  0  0  0  0  0  0  0  0  0  0
   43.2960   26.0920   47.4330 C   0  0  0  0  0  0  0  0  0  0  0  0
   43.6220   27.0640   46.5130 C   0  0  0  0  0  0  0  0  0  0  0  0
   42.9390   27.3000   45.3510 C   0  0  0  0  0  0  0  0  0  0  0  0
   43.9261   36.6214   45.1817 H   0  0  0  0  0  0  0  0  0  0  0  0
   44.9701   36.5764   42.8648 H   0  0  0  0  0  0  0  0  0  0  0  0
   46.4682   34.6493   42.2880 H   0  0  0  0  0  0  0  0  0  0  0  0
   45.0464   33.8397   47.9578 H   0  0  0  0  0  0  0  0  0  0  0  0
   44.3996   32.1557   47.6943 H   0  0  0  0  0  0  0  0  0  0  0  0
   46.1551   32.9393   49.6699 H   0  0  0  0  0  0  0  0  0  0  0  0
   45.8424   31.2619   49.1002 H   0  0  0  0  0  0  0  0  0  0  0  0
   47.9129   33.1509   47.9256 H   0  0  0  0  0  0  0  0  0  0  0  0
   48.2654   31.8663   49.1100 H   0  0  0  0  0  0  0  0  0  0  0  0
   48.6366   30.9911   46.8399 H   0  0  0  0  0  0  0  0  0  0  0  0
   47.1821   30.1990   47.5358 H   0  0  0  0  0  0  0  0  0  0  0  0
   47.5205   32.0545   45.3285 H   0  0  0  0  0  0  0  0  0  0  0  0
   40.8987   27.7317   42.2545 H   0  0  0  0  0  0  0  0  0  0  0  0
   40.6152   24.8478   45.8260 H   0  0  0  0  0  0  0  0  0  0  0  0
   41.9175   24.4859   47.9196 H   0  0  0  0  0  0  0  0  0  0  0  0
   43.8996   25.9681   48.3442 H   0  0  0  0  0  0  0  0  0  0  0  0
   44.4955   27.6970   46.7282 H   0  0  0  0  0  0  0  0  0  0  0  0
  1  6  2  0
  2  1  1  0
  3  2  2  0
  3  4  1  0
  4  5  2  0
  5  6  1  0
  5  7  1  0
  7  8  1  0
  8  9  1  0
 10  9  1  0
 11 10  1  0
 12  7  1  0
 12 11  1  0
 13 17  1  0
 13 12  1  0
 14 13  2  0
 15 14  1  0
 15 16  1  0
 16 17  2  0
 18 16  1  0
 18 27  1  0
 19 18  2  0
 20 19  1  0
 20 21  2  0
 21 22  1  0
 22 27  2  0
 22 23  1  0
 23 24  2  0
 24 25  1  0
 26 25  2  0
 27 26  1  0
  1 28  1  0
  2 29  1  0
  3 30  1  0
  8 31  1  0
  8 32  1  0
  9 33  1  0
  9 34  1  0
 10 35  1  0
 10 36  1  0
 11 37  1  0
 11 38  1  0
 12 39  1  6
 20 40  1  0
 23 41  1  0
 24 42  1  0
 25 43  1  0
 26 44  1  0
M  ISO  8  28  14  29  14  30  14  31  13  32  13  33  13  34  13  35  13
M  ISO  8  36  13  37  13  38  13  39  13  40  14  41  14  42  14  43  14
M  ISO  1  44  14
M  END
>  <minimizedAffinity>  (1) 
-6.13210821

>  <minimizedRMSD>  (1) 
0.763900876

$$$$
