
     RDKit          3D

 43 46  0  0  1  0  0  0  0  0999 V2000
   44.5890   35.8000   44.9190 C   0  0  0  0  0  0  0  0  0  0  0  0
   45.1860   35.7460   43.6240 C   0  0  0  0  0  0  0  0  0  0  0  0
   45.9790   34.6450   43.3300 C   0  0  0  0  0  0  0  0  0  0  0  0
   46.1380   33.6900   44.2900 N   0  0  0  0  0  0  0  0  0  0  0  0
   45.5600   33.7790   45.4910 C   0  0  0  0  0  0  0  0  0  0  0  0
   44.7890   34.8240   45.8110 N   0  0  0  0  0  0  0  0  0  0  0  0
   45.7760   32.7360   46.4750 N   0  0  0  0  0  0  0  0  0  0  0  0
   45.1670   32.8210   47.7860 C   0  0  0  0  0  0  0  0  0  0  0  0
   46.0250   32.2690   48.8790 C   0  0  0  0  0  0  0  0  0  0  0  0
   47.4410   32.1190   48.3880 C   0  0  0  0  0  0  0  0  0  0  0  0
   47.4090   31.0720   47.2910 C   0  0  0  0  0  0  0  0  0  0  0  0
   46.6070   31.6100   46.1390 C   0  0  1  0  0  0  0  0  0  0  0  0
   45.8360   30.5490   45.4240 C   0  0  0  0  0  0  0  0  0  0  0  0
   45.7860   30.2760   44.1210 N   0  0  0  0  0  0  0  0  0  0  0  0
   45.0390   29.2650   43.8400 O   0  0  0  0  0  0  0  0  0  0  0  0
   44.5660   28.8410   44.9970 C   0  0  0  0  0  0  0  0  0  0  0  0
   45.0320   29.6060   45.9900 N   0  0  0  0  0  0  0  0  0  0  0  0
   43.6930   27.7340   45.1630 N   0  0  0  0  0  0  0  0  0  0  0  0
   42.4690   27.8500   44.3780 C   0  0  0  0  0  0  0  0  0  0  0  0
   41.3380   27.7780   45.3770 C   0  0  0  0  0  0  0  0  0  0  0  0
   41.3020   26.4590   45.8110 O   0  0  0  0  0  0  0  0  0  0  0  0
   42.4160   26.1860   46.5930 C   0  0  0  0  0  0  0  0  0  0  0  0
   43.7290   26.5080   45.9320 C   0  0  0  0  0  0  0  0  0  0  0  0
   43.9546   36.6576   45.1876 H   0  0  0  0  0  0  0  0  0  0  0  0
   45.0241   36.5462   42.8868 H   0  0  0  0  0  0  0  0  0  0  0  0
   46.4660   34.5458   42.3487 H   0  0  0  0  0  0  0  0  0  0  0  0
   44.9604   33.8788   48.0061 H   0  0  0  0  0  0  0  0  0  0  0  0
   44.2500   32.2142   47.7568 H   0  0  0  0  0  0  0  0  0  0  0  0
   46.0072   32.9546   49.7391 H   0  0  0  0  0  0  0  0  0  0  0  0
   45.6390   31.2846   49.1824 H   0  0  0  0  0  0  0  0  0  0  0  0
   47.8080   33.0761   47.9890 H   0  0  0  0  0  0  0  0  0  0  0  0
   48.1148   31.8190   49.2041 H   0  0  0  0  0  0  0  0  0  0  0  0
   48.4342   30.8521   46.9584 H   0  0  0  0  0  0  0  0  0  0  0  0
   46.9509   30.1458   47.6682 H   0  0  0  0  0  0  0  0  0  0  0  0
   47.3613   31.9950   45.4370 H   0  0  0  0  0  0  0  0  0  0  0  0
   42.4466   28.8098   43.8410 H   0  0  0  0  0  0  0  0  0  0  0  0
   42.3943   27.0560   43.6203 H   0  0  0  0  0  0  0  0  0  0  0  0
   41.5298   28.4547   46.2227 H   0  0  0  0  0  0  0  0  0  0  0  0
   40.3810   28.0838   44.9290 H   0  0  0  0  0  0  0  0  0  0  0  0
   42.3414   26.7772   47.5176 H   0  0  0  0  0  0  0  0  0  0  0  0
   42.4135   25.1017   46.7783 H   0  0  0  0  0  0  0  0  0  0  0  0
   43.9939   25.6799   45.2581 H   0  0  0  0  0  0  0  0  0  0  0  0
   44.4732   26.6439   46.7306 H   0  0  0  0  0  0  0  0  0  0  0  0
  1  6  2  0
  2  1  1  0
  3  2  2  0
  3  4  1  0
  4  5  2  0
  5  6  1  0
  5  7  1  0
  7  8  1  0
  8  9  1  0
 10  9  1  0
 11 10  1  0
 12  7  1  0
 12 11  1  0
 13 17  1  0
 13 12  1  0
 14 13  2  0
 15 14  1  0
 15 16  1  0
 16 18  1  0
 16 17  2  0
 18 23  1  0
 19 18  1  0
 19 20  1  0
 20 21  1  0
 21 22  1  0
 23 22  1  0
  1 24  1  0
  2 25  1  0
  3 26  1  0
  8 27  1  0
  8 28  1  0
  9 29  1  0
  9 30  1  0
 10 31  1  0
 10 32  1  0
 11 33  1  0
 11 34  1  0
 12 35  1  6
 19 36  1  0
 19 37  1  0
 20 38  1  0
 20 39  1  0
 22 40  1  0
 22 41  1  0
 23 42  1  0
 23 43  1  0
M  ISO  8  24  14  25  14  26  14  27  13  28  13  29  13  30  13  31  13
M  ISO  8  32  13  33  13  34  13  35  13  36  13  37  13  38  13  39  13
M  ISO  4  40  13  41  13  42  13  43  13
M  END
>  <minimizedAffinity>  (1) 
-5.91621017

>  <minimizedRMSD>  (1) 
0.100672662

$$$$
