
     RDKit          3D

 46 49  0  0  1  0  0  0  0  0999 V2000
   46.6640   33.2590   44.1220 C   0  0  2  0  0  0  0  0  0  0  0  0
   45.2310   32.8790   44.1680 C   0  0  0  0  0  0  0  0  0  0  0  0
   45.8810   33.5370   45.3620 C   0  0  1  0  0  0  0  0  0  0  0  0
   45.9180   32.6830   46.5290 N   0  0  0  0  0  0  0  0  0  0  0  0
   45.2300   32.9160   47.6600 N   0  0  0  0  0  0  0  0  0  0  0  0
   45.5120   31.9540   48.5460 C   0  0  0  0  0  0  0  0  0  0  0  0
   46.3970   31.1290   47.9080 C   0  0  0  0  0  0  0  0  0  0  0  0
   46.6630   31.5930   46.6090 C   0  0  0  0  0  0  0  0  0  0  0  0
   47.6180   30.6900   46.0000 C   0  0  0  0  0  0  0  0  0  0  0  0
   47.9370   30.4460   44.6870 C   0  0  0  0  0  0  0  0  0  0  0  0
   48.8970   29.6030   44.2050 C   0  0  0  0  0  0  0  0  0  0  0  0
   49.6220   28.9260   45.1540 C   0  0  0  0  0  0  0  0  0  0  0  0
   49.4440   29.0400   46.5120 C   0  0  0  0  0  0  0  0  0  0  0  0
   48.4430   29.9240   46.8520 C   0  0  0  0  0  0  0  0  0  0  0  0
   47.1460   34.4640   43.3550 C   0  0  0  0  0  0  0  0  0  0  0  0
   47.3410   34.1320   41.8780 C   0  0  0  0  0  0  0  0  0  0  0  0
   46.0210   34.2280   41.2410 C   0  0  0  0  0  0  0  0  0  0  0  0
   45.8320   33.3340   40.1990 C   0  0  0  0  0  0  0  0  0  0  0  0
   44.5890   33.3410   39.5050 C   0  0  0  0  0  0  0  0  0  0  0  0
   43.6440   34.2450   39.9200 N   0  0  0  0  0  0  0  0  0  0  0  0
   43.8670   35.1010   40.9420 C   0  0  0  0  0  0  0  0  0  0  0  0
   45.0270   35.0770   41.5710 N   0  0  0  0  0  0  0  0  0  0  0  0
   48.2900   35.1470   41.2720 C   0  0  0  0  0  0  0  0  0  0  0  0
   48.0030   32.8250   41.7440 C   0  0  0  0  0  0  0  0  0  0  0  0
   47.5685   32.6956   43.8493 H   0  0  0  0  0  0  0  0  0  0  0  0
   44.4949   33.4331   43.5670 H   0  0  0  0  0  0  0  0  0  0  0  0
   44.6658   31.9500   44.0024 H   0  0  0  0  0  0  0  0  0  0  0  0
   45.7911   34.4470   45.9734 H   0  0  0  0  0  0  0  0  0  0  0  0
   45.1172   31.8491   49.5674 H   0  0  0  0  0  0  0  0  0  0  0  0
   46.8401   30.2252   48.3517 H   0  0  0  0  0  0  0  0  0  0  0  0
   47.3503   30.9940   43.9350 H   0  0  0  0  0  0  0  0  0  0  0  0
   49.0775   29.4748   43.1275 H   0  0  0  0  0  0  0  0  0  0  0  0
   50.4055   28.2396   44.8004 H   0  0  0  0  0  0  0  0  0  0  0  0
   50.0389   28.4833   47.2510 H   0  0  0  0  0  0  0  0  0  0  0  0
   48.2629   30.0494   47.9299 H   0  0  0  0  0  0  0  0  0  0  0  0
   46.4028   35.2697   43.4472 H   0  0  0  0  0  0  0  0  0  0  0  0
   48.1129   34.7809   43.7729 H   0  0  0  0  0  0  0  0  0  0  0  0
   46.6285   32.6313   39.9132 H   0  0  0  0  0  0  0  0  0  0  0  0
   44.3944   32.6506   38.6710 H   0  0  0  0  0  0  0  0  0  0  0  0
   43.0864   35.8133   41.2476 H   0  0  0  0  0  0  0  0  0  0  0  0
   48.8027   35.6953   42.0760 H   0  0  0  0  0  0  0  0  0  0  0  0
   49.0340   34.6277   40.6501 H   0  0  0  0  0  0  0  0  0  0  0  0
   47.7219   35.8545   40.6501 H   0  0  0  0  0  0  0  0  0  0  0  0
   48.2107   32.4150   42.7434 H   0  0  0  0  0  0  0  0  0  0  0  0
   47.3454   32.1356   41.1942 H   0  0  0  0  0  0  0  0  0  0  0  0
   48.9479   32.9472   41.1942 H   0  0  0  0  0  0  0  0  0  0  0  0
  1  2  1  0
  1  3  1  0
  2  3  1  0
  3  4  1  0
  4  8  1  0
  4  5  1  0
  5  6  2  0
  7  6  1  0
  8  7  2  0
  9  8  1  0
  9 14  1  0
 10  9  2  0
 11 10  1  0
 11 12  2  0
 12 13  1  0
 13 14  2  0
 15  1  1  0
 16 15  1  0
 17 22  1  0
 17 16  1  0
 18 17  2  0
 19 20  2  0
 19 18  1  0
 20 21  1  0
 21 22  2  0
 23 16  1  0
 24 16  1  0
  1 25  1  1
  2 26  1  0
  2 27  1  0
  3 28  1  1
  6 29  1  0
  7 30  1  0
 10 31  1  0
 11 32  1  0
 12 33  1  0
 13 34  1  0
 14 35  1  0
 15 36  1  0
 15 37  1  0
 18 38  1  0
 19 39  1  0
 21 40  1  0
 23 41  1  0
 23 42  1  0
 23 43  1  0
 24 44  1  0
 24 45  1  0
 24 46  1  0
M  ISO  8  25  13  26  13  27  13  28  13  29  14  30  14  31  14  32  14
M  ISO  8  33  14  34  14  35  14  36   8  37   8  38  14  39  14  40  14
M  ISO  6  41   8  42   8  43   8  44   8  45   8  46   8
M  END
>  <minimizedAffinity>  (1) 
-4.96323824

>  <minimizedRMSD>  (1) 
1.34216118

$$$$
