
     RDKit          3D

 44 47  0  0  1  0  0  0  0  0999 V2000
   47.2370   34.3360   43.4730 C   0  0  0  0  0  0  0  0  0  0  0  0
   46.6980   33.1060   44.1930 C   0  0  2  0  0  0  0  0  0  0  0  0
   45.2620   32.8260   44.2490 C   0  0  0  0  0  0  0  0  0  0  0  0
   46.0040   33.3930   45.4500 C   0  0  1  0  0  0  0  0  0  0  0  0
   45.9300   32.6040   46.6240 N   0  0  0  0  0  0  0  0  0  0  0  0
   45.1900   32.8160   47.7270 N   0  0  0  0  0  0  0  0  0  0  0  0
   45.3840   31.7810   48.5910 C   0  0  0  0  0  0  0  0  0  0  0  0
   46.2550   30.9580   47.9610 C   0  0  0  0  0  0  0  0  0  0  0  0
   46.6070   31.5040   46.6940 C   0  0  0  0  0  0  0  0  0  0  0  0
   47.5800   30.5760   46.1470 C   0  0  0  0  0  0  0  0  0  0  0  0
   48.5660   29.9030   46.8240 C   0  0  0  0  0  0  0  0  0  0  0  0
   49.4280   28.9070   46.4570 C   0  0  0  0  0  0  0  0  0  0  0  0
   49.2890   28.4980   45.1910 N   0  0  0  0  0  0  0  0  0  0  0  0
   48.3600   29.0780   44.4340 C   0  0  0  0  0  0  0  0  0  0  0  0
   47.6100   30.0280   44.9490 N   0  0  0  0  0  0  0  0  0  0  0  0
   47.2040   34.1320   41.9680 C   0  0  0  0  0  0  0  0  0  0  0  0
   45.8420   34.4490   41.5270 C   0  0  0  0  0  0  0  0  0  0  0  0
   45.3970   33.6250   40.4890 C   0  0  0  0  0  0  0  0  0  0  0  0
   44.0930   33.8450   39.9790 C   0  0  0  0  0  0  0  0  0  0  0  0
   43.3560   34.8590   40.5450 N   0  0  0  0  0  0  0  0  0  0  0  0
   43.8240   35.6270   41.5420 C   0  0  0  0  0  0  0  0  0  0  0  0
   45.0450   35.4190   42.0170 N   0  0  0  0  0  0  0  0  0  0  0  0
   48.1970   35.0890   41.3300 C   0  0  0  0  0  0  0  0  0  0  0  0
   47.6610   32.7580   41.6490 C   0  0  0  0  0  0  0  0  0  0  0  0
   46.6182   35.2074   43.7333 H   0  0  0  0  0  0  0  0  0  0  0  0
   48.2785   34.5018   43.7856 H   0  0  0  0  0  0  0  0  0  0  0  0
   47.5436   32.4824   43.8672 H   0  0  0  0  0  0  0  0  0  0  0  0
   44.5533   33.4540   43.6892 H   0  0  0  0  0  0  0  0  0  0  0  0
   44.6250   31.9490   44.0618 H   0  0  0  0  0  0  0  0  0  0  0  0
   46.0561   34.2815   46.0964 H   0  0  0  0  0  0  0  0  0  0  0  0
   44.9316   31.6438   49.5842 H   0  0  0  0  0  0  0  0  0  0  0  0
   46.6343   30.0088   48.3674 H   0  0  0  0  0  0  0  0  0  0  0  0
   48.6866   30.2291   47.8676 H   0  0  0  0  0  0  0  0  0  0  0  0
   50.1724   28.4786   47.1443 H   0  0  0  0  0  0  0  0  0  0  0  0
   48.2210   28.7659   43.3884 H   0  0  0  0  0  0  0  0  0  0  0  0
   46.0390   32.8305   40.0807 H   0  0  0  0  0  0  0  0  0  0  0  0
   43.6866   33.2293   39.1630 H   0  0  0  0  0  0  0  0  0  0  0  0
   43.1968   36.4263   41.9636 H   0  0  0  0  0  0  0  0  0  0  0  0
   48.7501   35.6221   42.1173 H   0  0  0  0  0  0  0  0  0  0  0  0
   48.9031   34.5221   40.7054 H   0  0  0  0  0  0  0  0  0  0  0  0
   47.6566   35.8155   40.7054 H   0  0  0  0  0  0  0  0  0  0  0  0
   47.8444   32.2065   42.5829 H   0  0  0  0  0  0  0  0  0  0  0  0
   46.8866   32.2406   41.0637 H   0  0  0  0  0  0  0  0  0  0  0  0
   48.5910   32.8075   41.0637 H   0  0  0  0  0  0  0  0  0  0  0  0
  1  2  1  0
  2  3  1  0
  2  4  1  0
  3  4  1  0
  4  5  1  0
  5  9  1  0
  5  6  1  0
  6  7  2  0
  8  7  1  0
  9  8  2  0
 10  9  1  0
 10 11  2  0
 12 11  1  0
 13 12  2  0
 14 15  2  0
 14 13  1  0
 15 10  1  0
 16  1  1  0
 17 16  1  0
 17 22  1  0
 18 17  2  0
 19 18  1  0
 19 20  2  0
 20 21  1  0
 21 22  2  0
 23 16  1  0
 24 16  1  0
  1 25  1  0
  1 26  1  0
  2 27  1  1
  3 28  1  0
  3 29  1  0
  4 30  1  1
  7 31  1  0
  8 32  1  0
 11 33  1  0
 12 34  1  0
 14 35  1  0
 18 36  1  0
 19 37  1  0
 21 38  1  0
 23 39  1  0
 23 40  1  0
 23 41  1  0
 24 42  1  0
 24 43  1  0
 24 44  1  0
M  ISO  8  25   8  26   8  27  13  28  13  29  13  30  13  31  14  32  14
M  ISO  8  33  14  34  14  35  14  36  14  37  14  38  14  39   8  40   8
M  ISO  4  41   8  42   8  43   8  44   8
M  END
>  <minimizedAffinity>  (1) 
-4.78946352

>  <minimizedRMSD>  (1) 
1.54787445

$$$$
