
     RDKit          3D

 49 52  0  0  1  0  0  0  0  0999 V2000
   46.7240   34.3110   43.5220 C   0  0  0  0  0  0  0  0  0  0  0  0
   45.7300   33.7090   44.4780 C   0  0  2  0  0  0  0  0  0  0  0  0
   45.0670   34.5230   45.5250 C   0  0  0  0  0  0  0  0  0  0  0  0
   46.1890   33.5690   45.8980 C   0  0  1  0  0  0  0  0  0  0  0  0
   45.7630   32.5270   46.7840 N   0  0  0  0  0  0  0  0  0  0  0  0
   45.1960   32.6590   47.9780 N   0  0  0  0  0  0  0  0  0  0  0  0
   44.9570   31.4350   48.4940 C   0  0  0  0  0  0  0  0  0  0  0  0
   45.4060   30.5210   47.5580 C   0  0  0  0  0  0  0  0  0  0  0  0
   45.9130   31.2420   46.4820 C   0  0  0  0  0  0  0  0  0  0  0  0
   46.3950   30.4030   45.4390 N   0  0  0  0  0  0  0  0  0  0  0  0
   45.4520   29.7760   44.5350 C   0  0  0  0  0  0  0  0  0  0  0  0
   45.8460   28.3640   44.2980 C   0  0  0  0  0  0  0  0  0  0  0  0
   47.1840   28.1360   44.4590 O   0  0  0  0  0  0  0  0  0  0  0  0
   48.0240   29.1910   44.2310 C   0  0  0  0  0  0  0  0  0  0  0  0
   47.8390   30.2310   45.3000 C   0  0  0  0  0  0  0  0  0  0  0  0
   46.5070   33.8370   42.0980 C   0  0  0  0  0  0  0  0  0  0  0  0
   45.1320   34.1780   41.7270 C   0  0  0  0  0  0  0  0  0  0  0  0
   44.4180   33.1090   41.2200 C   0  0  0  0  0  0  0  0  0  0  0  0
   43.0650   33.3200   40.8240 C   0  0  0  0  0  0  0  0  0  0  0  0
   42.5600   34.5740   40.9710 N   0  0  0  0  0  0  0  0  0  0  0  0
   43.2940   35.5910   41.4720 C   0  0  0  0  0  0  0  0  0  0  0  0
   44.5450   35.3750   41.8330 N   0  0  0  0  0  0  0  0  0  0  0  0
   47.4960   34.5630   41.1940 C   0  0  0  0  0  0  0  0  0  0  0  0
   46.8550   32.3930   42.0120 C   0  0  0  0  0  0  0  0  0  0  0  0
   46.6244   35.4061   43.5501 H   0  0  0  0  0  0  0  0  0  0  0  0
   47.7295   33.9929   43.8348 H   0  0  0  0  0  0  0  0  0  0  0  0
   45.3297   33.0498   43.6936 H   0  0  0  0  0  0  0  0  0  0  0  0
   45.2328   35.6097   45.5644 H   0  0  0  0  0  0  0  0  0  0  0  0
   44.0281   34.6699   45.8553 H   0  0  0  0  0  0  0  0  0  0  0  0
   47.2003   33.5735   46.3308 H   0  0  0  0  0  0  0  0  0  0  0  0
   44.4961   31.2089   49.4669 H   0  0  0  0  0  0  0  0  0  0  0  0
   45.3689   29.4253   47.6480 H   0  0  0  0  0  0  0  0  0  0  0  0
   44.4459   29.8049   44.9789 H   0  0  0  0  0  0  0  0  0  0  0  0
   45.4503   30.3184   43.5780 H   0  0  0  0  0  0  0  0  0  0  0  0
   45.5683   28.0933   43.2686 H   0  0  0  0  0  0  0  0  0  0  0  0
   45.3216   27.7522   45.0468 H   0  0  0  0  0  0  0  0  0  0  0  0
   49.0655   28.8373   44.2423 H   0  0  0  0  0  0  0  0  0  0  0  0
   47.7928   29.6334   43.2508 H   0  0  0  0  0  0  0  0  0  0  0  0
   48.2774   29.8879   46.2487 H   0  0  0  0  0  0  0  0  0  0  0  0
   48.3369   31.1761   45.0373 H   0  0  0  0  0  0  0  0  0  0  0  0
   44.8835   32.1170   41.1241 H   0  0  0  0  0  0  0  0  0  0  0  0
   42.4540   32.5014   40.4159 H   0  0  0  0  0  0  0  0  0  0  0  0
   42.8521   36.5927   41.5785 H   0  0  0  0  0  0  0  0  0  0  0  0
   48.2299   35.1017   41.8114 H   0  0  0  0  0  0  0  0  0  0  0  0
   48.0175   33.8316   40.5590 H   0  0  0  0  0  0  0  0  0  0  0  0
   46.9545   35.2797   40.5590 H   0  0  0  0  0  0  0  0  0  0  0  0
   46.9548   31.9789   43.0262 H   0  0  0  0  0  0  0  0  0  0  0  0
   46.0606   31.8558   41.4731 H   0  0  0  0  0  0  0  0  0  0  0  0
   47.8069   32.2767   41.4731 H   0  0  0  0  0  0  0  0  0  0  0  0
  1  2  1  0
  2  3  1  0
  2  4  1  0
  3  4  1  0
  4  5  1  0
  5  6  1  0
  6  7  2  0
  8  7  1  0
  9  5  1  0
  9  8  2  0
 10  9  1  0
 11 10  1  0
 12 13  1  0
 12 11  1  0
 14 13  1  0
 14 15  1  0
 15 10  1  0
 16  1  1  0
 17 22  1  0
 17 16  1  0
 18 17  2  0
 19 20  2  0
 19 18  1  0
 20 21  1  0
 21 22  2  0
 23 16  1  0
 24 16  1  0
  1 25  1  0
  1 26  1  0
  2 27  1  6
  3 28  1  0
  3 29  1  0
  4 30  1  6
  7 31  1  0
  8 32  1  0
 11 33  1  0
 11 34  1  0
 12 35  1  0
 12 36  1  0
 14 37  1  0
 14 38  1  0
 15 39  1  0
 15 40  1  0
 18 41  1  0
 19 42  1  0
 21 43  1  0
 23 44  1  0
 23 45  1  0
 23 46  1  0
 24 47  1  0
 24 48  1  0
 24 49  1  0
M  ISO  8  25   8  26   8  27  13  28  13  29  13  30  13  31  14  32  14
M  ISO  8  33  13  34  13  35  13  36  13  37  13  38  13  39  13  40  13
M  ISO  8  41  14  42  14  43  14  44   8  45   8  46   8  47   8  48   8
M  ISO  1  49   8
M  END
>  <minimizedAffinity>  (1) 
-4.78264618

>  <minimizedRMSD>  (1) 
2.30183291

$$$$
