
     RDKit          3D

 43 46  0  0  1  0  0  0  0  0999 V2000
   47.1290   34.4470   43.3740 C   0  0  0  0  0  0  0  0  0  0  0  0
   46.6940   33.1980   44.1230 C   0  0  2  0  0  0  0  0  0  0  0  0
   45.2630   32.8070   44.1670 C   0  0  0  0  0  0  0  0  0  0  0  0
   45.9450   33.4490   45.3580 C   0  0  1  0  0  0  0  0  0  0  0  0
   45.9180   32.6810   46.5480 N   0  0  0  0  0  0  0  0  0  0  0  0
   45.2340   32.9150   47.6810 N   0  0  0  0  0  0  0  0  0  0  0  0
   45.4760   31.9080   48.5580 C   0  0  0  0  0  0  0  0  0  0  0  0
   46.3210   31.0730   47.9120 C   0  0  0  0  0  0  0  0  0  0  0  0
   46.6040   31.5850   46.6180 C   0  0  0  0  0  0  0  0  0  0  0  0
   47.5680   30.6450   46.0410 C   0  0  0  0  0  0  0  0  0  0  0  0
   48.4740   29.8260   46.6630 C   0  0  0  0  0  0  0  0  0  0  0  0
   49.1450   28.9210   45.9030 C   0  0  0  0  0  0  0  0  0  0  0  0
   48.6120   29.1970   44.7150 N   0  0  0  0  0  0  0  0  0  0  0  0
   47.7540   30.1480   44.8450 N   0  0  0  0  0  0  0  0  0  0  0  0
   47.3470   34.1310   41.9000 C   0  0  0  0  0  0  0  0  0  0  0  0
   46.0290   34.2240   41.2580 C   0  0  0  0  0  0  0  0  0  0  0  0
   45.8760   33.3260   40.2100 C   0  0  0  0  0  0  0  0  0  0  0  0
   44.6460   33.3220   39.5020 C   0  0  0  0  0  0  0  0  0  0  0  0
   43.6880   34.2110   39.9050 N   0  0  0  0  0  0  0  0  0  0  0  0
   43.8800   35.0700   40.9360 C   0  0  0  0  0  0  0  0  0  0  0  0
   45.0230   35.0630   41.5830 N   0  0  0  0  0  0  0  0  0  0  0  0
   48.2890   35.1790   41.3220 C   0  0  0  0  0  0  0  0  0  0  0  0
   48.0240   32.8270   41.7660 C   0  0  0  0  0  0  0  0  0  0  0  0
   46.3490   35.2168   43.4685 H   0  0  0  0  0  0  0  0  0  0  0  0
   48.0730   34.8119   43.8050 H   0  0  0  0  0  0  0  0  0  0  0  0
   47.5987   32.6429   43.8344 H   0  0  0  0  0  0  0  0  0  0  0  0
   44.5169   33.3692   43.5863 H   0  0  0  0  0  0  0  0  0  0  0  0
   44.6947   31.8818   43.9906 H   0  0  0  0  0  0  0  0  0  0  0  0
   45.9118   34.3526   45.9845 H   0  0  0  0  0  0  0  0  0  0  0  0
   45.0720   31.7953   49.5749 H   0  0  0  0  0  0  0  0  0  0  0  0
   46.7276   30.1386   48.3262 H   0  0  0  0  0  0  0  0  0  0  0  0
   48.6528   29.8991   47.7459 H   0  0  0  0  0  0  0  0  0  0  0  0
   49.9054   28.1784   46.1864 H   0  0  0  0  0  0  0  0  0  0  0  0
   48.8487   28.7243   43.8310 H   0  0  0  0  0  0  0  0  0  0  0  0
   46.6872   32.6356   39.9356 H   0  0  0  0  0  0  0  0  0  0  0  0
   44.4704   32.6321   38.6634 H   0  0  0  0  0  0  0  0  0  0  0  0
   43.0829   35.7691   41.2291 H   0  0  0  0  0  0  0  0  0  0  0  0
   48.7789   35.7240   42.1424 H   0  0  0  0  0  0  0  0  0  0  0  0
   49.0522   34.6845   40.7031 H   0  0  0  0  0  0  0  0  0  0  0  0
   47.7163   35.8853   40.7031 H   0  0  0  0  0  0  0  0  0  0  0  0
   48.2357   32.4193   42.7655 H   0  0  0  0  0  0  0  0  0  0  0  0
   47.3734   32.1309   41.2163 H   0  0  0  0  0  0  0  0  0  0  0  0
   48.9677   32.9586   41.2163 H   0  0  0  0  0  0  0  0  0  0  0  0
  1  2  1  0
  2  3  1  0
  2  4  1  0
  3  4  1  0
  4  5  1  0
  5  9  1  0
  5  6  1  0
  6  7  2  0
  8  7  1  0
  9  8  2  0
 10  9  1  0
 10 11  1  0
 12 11  2  0
 13 14  1  0
 13 12  1  0
 14 10  2  0
 15  1  1  0
 16 21  1  0
 16 15  1  0
 17 16  2  0
 18 19  2  0
 18 17  1  0
 19 20  1  0
 20 21  2  0
 22 15  1  0
 23 15  1  0
  1 24  1  0
  1 25  1  0
  2 26  1  1
  3 27  1  0
  3 28  1  0
  4 29  1  1
  7 30  1  0
  8 31  1  0
 11 32  1  0
 12 33  1  0
 13 34  1  0
 17 35  1  0
 18 36  1  0
 20 37  1  0
 22 38  1  0
 22 39  1  0
 22 40  1  0
 23 41  1  0
 23 42  1  0
 23 43  1  0
M  ISO  8  24   8  25   8  26  13  27  13  28  13  29  13  30  14  31  14
M  ISO  8  32  14  33  14  34   9  35  14  36  14  37  14  38   8  39   8
M  ISO  4  40   8  41   8  42   8  43   8
M  END
>  <minimizedAffinity>  (1) 
-4.68462038

>  <minimizedRMSD>  (1) 
1.30293524

$$$$
