
     RDKit          3D

 43 46  0  0  1  0  0  0  0  0999 V2000
   46.8910   34.3150   43.5020 C   0  0  0  0  0  0  0  0  0  0  0  0
   45.8480   33.6710   44.3830 C   0  0  2  0  0  0  0  0  0  0  0  0
   45.1000   34.4620   45.3930 C   0  0  0  0  0  0  0  0  0  0  0  0
   46.2350   33.5190   45.7970 C   0  0  1  0  0  0  0  0  0  0  0  0
   45.8160   32.4620   46.6710 N   0  0  0  0  0  0  0  0  0  0  0  0
   45.2540   32.6050   47.8870 N   0  0  0  0  0  0  0  0  0  0  0  0
   44.9790   31.3950   48.3970 C   0  0  0  0  0  0  0  0  0  0  0  0
   45.3930   30.5110   47.4510 C   0  0  0  0  0  0  0  0  0  0  0  0
   45.9310   31.1970   46.3430 C   0  0  0  0  0  0  0  0  0  0  0  0
   46.4650   30.3820   45.2540 C   0  0  0  0  0  0  0  0  0  0  0  0
   47.9470   30.3920   44.9410 C   0  0  0  0  0  0  0  0  0  0  0  0
   47.3640   29.2670   45.6570 C   0  0  0  0  0  0  0  0  0  0  0  0
   46.7420   33.8830   42.0550 C   0  0  0  0  0  0  0  0  0  0  0  0
   45.4050   34.2800   41.6110 C   0  0  0  0  0  0  0  0  0  0  0  0
   44.7810   33.3380   40.8080 C   0  0  0  0  0  0  0  0  0  0  0  0
   43.4780   33.6160   40.3190 C   0  0  0  0  0  0  0  0  0  0  0  0
   42.9220   34.8120   40.6780 N   0  0  0  0  0  0  0  0  0  0  0  0
   43.5590   35.7070   41.4630 C   0  0  0  0  0  0  0  0  0  0  0  0
   44.7730   35.4280   41.9090 N   0  0  0  0  0  0  0  0  0  0  0  0
   47.8020   34.5850   41.2280 C   0  0  0  0  0  0  0  0  0  0  0  0
   47.0190   32.4270   41.9560 C   0  0  0  0  0  0  0  0  0  0  0  0
   46.7832   35.4081   43.5614 H   0  0  0  0  0  0  0  0  0  0  0  0
   47.8835   33.9990   43.8556 H   0  0  0  0  0  0  0  0  0  0  0  0
   45.5024   33.0133   43.5718 H   0  0  0  0  0  0  0  0  0  0  0  0
   45.2364   35.5517   45.4552 H   0  0  0  0  0  0  0  0  0  0  0  0
   44.0426   34.5843   45.6706 H   0  0  0  0  0  0  0  0  0  0  0  0
   47.2291   33.5324   46.2678 H   0  0  0  0  0  0  0  0  0  0  0  0
   44.5184   31.1676   49.3697 H   0  0  0  0  0  0  0  0  0  0  0  0
   45.3189   29.4169   47.5376 H   0  0  0  0  0  0  0  0  0  0  0  0
   45.5563   30.5201   44.6497 H   0  0  0  0  0  0  0  0  0  0  0  0
   48.2907   30.2650   43.9038 H   0  0  0  0  0  0  0  0  0  0  0  0
   48.7769   31.0885   45.1311 H   0  0  0  0  0  0  0  0  0  0  0  0
   47.6016   29.1162   46.7204 H   0  0  0  0  0  0  0  0  0  0  0  0
   47.3543   28.1788   45.4968 H   0  0  0  0  0  0  0  0  0  0  0  0
   45.2856   32.3939   40.5549 H   0  0  0  0  0  0  0  0  0  0  0  0
   42.9396   32.9009   39.6796 H   0  0  0  0  0  0  0  0  0  0  0  0
   43.0739   36.6578   41.7289 H   0  0  0  0  0  0  0  0  0  0  0  0
   48.5297   35.0670   41.8974 H   0  0  0  0  0  0  0  0  0  0  0  0
   48.3184   33.8498   40.5934 H   0  0  0  0  0  0  0  0  0  0  0  0
   47.3266   35.3474   40.5934 H   0  0  0  0  0  0  0  0  0  0  0  0
   47.1003   31.9997   42.9663 H   0  0  0  0  0  0  0  0  0  0  0  0
   46.1986   31.9337   41.4142 H   0  0  0  0  0  0  0  0  0  0  0  0
   47.9632   32.2694   41.4142 H   0  0  0  0  0  0  0  0  0  0  0  0
  1  2  1  0
  2  3  1  0
  2  4  1  0
  3  4  1  0
  4  5  1  0
  5  6  1  0
  6  7  2  0
  8  7  1  0
  9  5  1  0
  9  8  2  0
 10 12  1  0
 10  9  1  0
 11 10  1  0
 11 12  1  0
 13  1  1  0
 14 19  1  0
 14 13  1  0
 15 14  2  0
 16 17  2  0
 16 15  1  0
 17 18  1  0
 18 19  2  0
 20 13  1  0
 21 13  1  0
  1 22  1  0
  1 23  1  0
  2 24  1  6
  3 25  1  0
  3 26  1  0
  4 27  1  6
  7 28  1  0
  8 29  1  0
 10 30  1  0
 11 31  1  0
 11 32  1  0
 12 33  1  0
 12 34  1  0
 15 35  1  0
 16 36  1  0
 18 37  1  0
 20 38  1  0
 20 39  1  0
 20 40  1  0
 21 41  1  0
 21 42  1  0
 21 43  1  0
M  ISO  8  22   8  23   8  24  13  25  13  26  13  27  13  28  14  29  14
M  ISO  8  30  13  31  13  32  13  33  13  34  13  35  14  36  14  37  14
M  ISO  6  38   8  39   8  40   8  41   8  42   8  43   8
M  END
>  <minimizedAffinity>  (1) 
-4.70952702

>  <minimizedRMSD>  (1) 
1.60650575

$$$$
