
     RDKit          3D

 39 41  0  0  1  0  0  0  0  0999 V2000
   46.7740   34.2900   43.5060 C   0  0  0  0  0  0  0  0  0  0  0  0
   45.7670   33.6780   44.4460 C   0  0  2  0  0  0  0  0  0  0  0  0
   45.0790   34.4920   45.4800 C   0  0  0  0  0  0  0  0  0  0  0  0
   46.2270   33.5520   45.8560 C   0  0  1  0  0  0  0  0  0  0  0  0
   45.8090   32.5000   46.7580 N   0  0  0  0  0  0  0  0  0  0  0  0
   45.1790   32.6370   47.9420 N   0  0  0  0  0  0  0  0  0  0  0  0
   44.9340   31.4330   48.4440 C   0  0  0  0  0  0  0  0  0  0  0  0
   45.4290   30.5480   47.5400 C   0  0  0  0  0  0  0  0  0  0  0  0
   45.9940   31.2180   46.4570 C   0  0  0  0  0  0  0  0  0  0  0  0
   46.6010   30.3690   45.4020 C   0  0  0  0  0  0  0  0  0  0  0  0
   47.0210   29.1440   45.8740 F   0  0  0  0  0  0  0  0  0  0  0  0
   47.8100   30.9290   44.9180 F   0  0  0  0  0  0  0  0  0  0  0  0
   45.8450   30.3000   44.2460 F   0  0  0  0  0  0  0  0  0  0  0  0
   46.5400   33.8400   42.0710 C   0  0  0  0  0  0  0  0  0  0  0  0
   45.1570   34.1770   41.7330 C   0  0  0  0  0  0  0  0  0  0  0  0
   44.4220   33.0960   41.2540 C   0  0  0  0  0  0  0  0  0  0  0  0
   43.0640   33.2980   40.8880 C   0  0  0  0  0  0  0  0  0  0  0  0
   42.5660   34.5680   41.0380 N   0  0  0  0  0  0  0  0  0  0  0  0
   43.3120   35.5880   41.5070 C   0  0  0  0  0  0  0  0  0  0  0  0
   44.5750   35.3870   41.8430 N   0  0  0  0  0  0  0  0  0  0  0  0
   47.5000   34.5980   41.1700 C   0  0  0  0  0  0  0  0  0  0  0  0
   46.8790   32.4080   41.9510 C   0  0  0  0  0  0  0  0  0  0  0  0
   46.6900   35.3857   43.5556 H   0  0  0  0  0  0  0  0  0  0  0  0
   47.7779   33.9609   43.8124 H   0  0  0  0  0  0  0  0  0  0  0  0
   45.3733   33.0117   43.6643 H   0  0  0  0  0  0  0  0  0  0  0  0
   45.2244   35.5819   45.5121 H   0  0  0  0  0  0  0  0  0  0  0  0
   44.0370   34.6248   45.8064 H   0  0  0  0  0  0  0  0  0  0  0  0
   47.2400   33.5731   46.2842 H   0  0  0  0  0  0  0  0  0  0  0  0
   44.4335   31.1999   49.3954 H   0  0  0  0  0  0  0  0  0  0  0  0
   45.3892   29.4540   47.6481 H   0  0  0  0  0  0  0  0  0  0  0  0
   44.8847   32.1024   41.1605 H   0  0  0  0  0  0  0  0  0  0  0  0
   42.4421   32.4764   40.5031 H   0  0  0  0  0  0  0  0  0  0  0  0
   42.8692   36.5896   41.6104 H   0  0  0  0  0  0  0  0  0  0  0  0
   48.2144   35.1621   41.7876 H   0  0  0  0  0  0  0  0  0  0  0  0
   48.0469   33.8855   40.5350 H   0  0  0  0  0  0  0  0  0  0  0  0
   46.9338   35.2953   40.5350 H   0  0  0  0  0  0  0  0  0  0  0  0
   46.9826   31.9704   42.9549 H   0  0  0  0  0  0  0  0  0  0  0  0
   46.0795   31.8865   41.4044 H   0  0  0  0  0  0  0  0  0  0  0  0
   47.8275   32.3003   41.4044 H   0  0  0  0  0  0  0  0  0  0  0  0
  1  2  1  0
  2  3  1  0
  2  4  1  0
  3  4  1  0
  4  5  1  0
  5  6  1  0
  6  7  2  0
  8  7  1  0
  9  5  1  0
  9  8  2  0
 10 11  1  0
 10  9  1  0
 12 10  1  0
 13 10  1  0
 14  1  1  0
 15 20  1  0
 15 14  1  0
 16 15  2  0
 17 18  2  0
 17 16  1  0
 18 19  1  0
 19 20  2  0
 21 14  1  0
 22 14  1  0
  1 23  1  0
  1 24  1  0
  2 25  1  6
  3 26  1  0
  3 27  1  0
  4 28  1  6
  7 29  1  0
  8 30  1  0
 16 31  1  0
 17 32  1  0
 19 33  1  0
 21 34  1  0
 21 35  1  0
 21 36  1  0
 22 37  1  0
 22 38  1  0
 22 39  1  0
M  ISO  8  23   8  24   8  25  13  26  13  27  13  28  13  29  14  30  14
M  ISO  8  31  14  32  14  33  14  34   8  35   8  36   8  37   8  38   8
M  ISO  1  39   8
M  END
>  <minimizedAffinity>  (1) 
-4.75527763

>  <minimizedRMSD>  (1) 
1.92246461

$$$$
