
     RDKit          3D

 37 39  0  0  1  0  0  0  0  0999 V2000
   46.8570   34.3570   43.4480 C   0  0  0  0  0  0  0  0  0  0  0  0
   45.8400   33.7230   44.3560 C   0  0  2  0  0  0  0  0  0  0  0  0
   45.0650   34.5130   45.3420 C   0  0  0  0  0  0  0  0  0  0  0  0
   46.2360   33.6320   45.7950 C   0  0  1  0  0  0  0  0  0  0  0  0
   45.8310   32.5940   46.6900 N   0  0  0  0  0  0  0  0  0  0  0  0
   45.1060   32.6910   47.8010 N   0  0  0  0  0  0  0  0  0  0  0  0
   44.9480   31.4580   48.3490 C   0  0  0  0  0  0  0  0  0  0  0  0
   45.6200   30.5830   47.5120 C   0  0  0  0  0  0  0  0  0  0  0  0
   46.1620   31.3250   46.4830 C   0  0  0  0  0  0  0  0  0  0  0  0
   47.0940   30.4130   45.2610 S   0  0  0  0  0  0  0  0  0  0  0  0
   46.7140   33.8730   42.0150 C   0  0  0  0  0  0  0  0  0  0  0  0
   45.3790   34.2700   41.5580 C   0  0  0  0  0  0  0  0  0  0  0  0
   44.7720   33.3450   40.7370 C   0  0  0  0  0  0  0  0  0  0  0  0
   43.4820   33.5990   40.2210 C   0  0  0  0  0  0  0  0  0  0  0  0
   42.9070   34.7810   40.5840 N   0  0  0  0  0  0  0  0  0  0  0  0
   43.5180   35.6780   41.3910 C   0  0  0  0  0  0  0  0  0  0  0  0
   44.7180   35.3870   41.8400 N   0  0  0  0  0  0  0  0  0  0  0  0
   47.7830   34.5550   41.1710 C   0  0  0  0  0  0  0  0  0  0  0  0
   46.9960   32.4220   41.9640 C   0  0  0  0  0  0  0  0  0  0  0  0
   46.7226   35.4485   43.4702 H   0  0  0  0  0  0  0  0  0  0  0  0
   47.8580   34.0743   43.8059 H   0  0  0  0  0  0  0  0  0  0  0  0
   45.5164   33.0316   43.5641 H   0  0  0  0  0  0  0  0  0  0  0  0
   45.1576   35.6088   45.3660 H   0  0  0  0  0  0  0  0  0  0  0  0
   44.0021   34.5992   45.6119 H   0  0  0  0  0  0  0  0  0  0  0  0
   47.2252   33.7007   46.2712 H   0  0  0  0  0  0  0  0  0  0  0  0
   44.3991   31.2064   49.2685 H   0  0  0  0  0  0  0  0  0  0  0  0
   45.7060   29.4943   47.6437 H   0  0  0  0  0  0  0  0  0  0  0  0
   47.9634   29.5622   45.8912 H   0  0  0  0  0  0  0  0  0  0  0  0
   45.2917   32.4092   40.4835 H   0  0  0  0  0  0  0  0  0  0  0  0
   42.9692   32.8826   39.5624 H   0  0  0  0  0  0  0  0  0  0  0  0
   43.0250   36.6229   41.6633 H   0  0  0  0  0  0  0  0  0  0  0  0
   48.5248   35.0282   41.8312 H   0  0  0  0  0  0  0  0  0  0  0  0
   48.2812   33.8075   40.5362 H   0  0  0  0  0  0  0  0  0  0  0  0
   47.3150   35.3218   40.5362 H   0  0  0  0  0  0  0  0  0  0  0  0
   47.0727   32.0272   42.9878 H   0  0  0  0  0  0  0  0  0  0  0  0
   46.1809   31.9085   41.4331 H   0  0  0  0  0  0  0  0  0  0  0  0
   47.9441   32.2512   41.4331 H   0  0  0  0  0  0  0  0  0  0  0  0
  1  2  1  0
  2  3  1  0
  2  4  1  0
  3  4  1  0
  4  5  1  0
  5  6  1  0
  6  7  2  0
  8  7  1  0
  9  5  1  0
  9  8  2  0
 10  9  1  0
 11  1  1  0
 12 17  1  0
 12 11  1  0
 13 12  2  0
 14 15  2  0
 14 13  1  0
 15 16  1  0
 16 17  2  0
 18 11  1  0
 19 11  1  0
  1 20  1  0
  1 21  1  0
  2 22  1  6
  3 23  1  0
  3 24  1  0
  4 25  1  6
  7 26  1  0
  8 27  1  0
 10 28  1  0
 13 29  1  0
 14 30  1  0
 16 31  1  0
 18 32  1  0
 18 33  1  0
 18 34  1  0
 19 35  1  0
 19 36  1  0
 19 37  1  0
M  ISO  8  20   8  21   8  22  13  23  13  24  13  25  13  26  14  27  14
M  ISO  8  28  11  29  14  30  14  31  14  32   8  33   8  34   8  35   8
M  ISO  2  36   8  37   8
M  END
>  <minimizedAffinity>  (1) 
-4.62746954

>  <minimizedRMSD>  (1) 
1.27307224

$$$$
