
     RDKit          3D

 38 40  0  0  1  0  0  0  0  0999 V2000
   46.8390   34.3900   43.4540 C   0  0  0  0  0  0  0  0  0  0  0  0
   45.8170   33.7440   44.3570 C   0  0  2  0  0  0  0  0  0  0  0  0
   45.0570   34.5340   45.3570 C   0  0  0  0  0  0  0  0  0  0  0  0
   46.2160   33.6330   45.7810 C   0  0  1  0  0  0  0  0  0  0  0  0
   45.8150   32.5890   46.6660 N   0  0  0  0  0  0  0  0  0  0  0  0
   45.1440   32.6540   47.8000 N   0  0  0  0  0  0  0  0  0  0  0  0
   44.9670   31.4290   48.3310 C   0  0  0  0  0  0  0  0  0  0  0  0
   45.5680   30.5700   47.4600 C   0  0  0  0  0  0  0  0  0  0  0  0
   46.0900   31.3230   46.4310 C   0  0  0  0  0  0  0  0  0  0  0  0
   46.7670   30.5650   45.4310 C   0  0  0  0  0  0  0  0  0  0  0  0
   47.8910   30.6120   44.8980 O   0  0  0  0  0  0  0  0  0  0  0  0
   46.6990   33.9030   42.0180 C   0  0  0  0  0  0  0  0  0  0  0  0
   45.3700   34.3020   41.5490 C   0  0  0  0  0  0  0  0  0  0  0  0
   44.7910   33.3750   40.6890 C   0  0  0  0  0  0  0  0  0  0  0  0
   43.4990   33.6470   40.1660 C   0  0  0  0  0  0  0  0  0  0  0  0
   42.9050   34.8220   40.5510 N   0  0  0  0  0  0  0  0  0  0  0  0
   43.4920   35.6920   41.3820 C   0  0  0  0  0  0  0  0  0  0  0  0
   44.6950   35.4210   41.8590 N   0  0  0  0  0  0  0  0  0  0  0  0
   47.7750   34.5880   41.1820 C   0  0  0  0  0  0  0  0  0  0  0  0
   46.9870   32.4540   41.9700 C   0  0  0  0  0  0  0  0  0  0  0  0
   46.6984   35.4807   43.4772 H   0  0  0  0  0  0  0  0  0  0  0  0
   47.8415   34.1176   43.8156 H   0  0  0  0  0  0  0  0  0  0  0  0
   45.4831   33.0629   43.5604 H   0  0  0  0  0  0  0  0  0  0  0  0
   45.1648   35.6280   45.3949 H   0  0  0  0  0  0  0  0  0  0  0  0
   43.9978   34.6326   45.6371 H   0  0  0  0  0  0  0  0  0  0  0  0
   47.2098   33.6843   46.2497 H   0  0  0  0  0  0  0  0  0  0  0  0
   44.4483   31.1759   49.2674 H   0  0  0  0  0  0  0  0  0  0  0  0
   45.6257   29.4761   47.5602 H   0  0  0  0  0  0  0  0  0  0  0  0
   46.1498   29.7441   45.0371 H   0  0  0  0  0  0  0  0  0  0  0  0
   45.3227   32.4505   40.4195 H   0  0  0  0  0  0  0  0  0  0  0  0
   42.9969   32.9465   39.4825 H   0  0  0  0  0  0  0  0  0  0  0  0
   42.9788   36.6228   41.6651 H   0  0  0  0  0  0  0  0  0  0  0  0
   48.5133   35.0580   41.8484 H   0  0  0  0  0  0  0  0  0  0  0  0
   48.2762   33.8424   40.5473 H   0  0  0  0  0  0  0  0  0  0  0  0
   47.3116   35.3577   40.5473 H   0  0  0  0  0  0  0  0  0  0  0  0
   47.0650   32.0615   42.9946 H   0  0  0  0  0  0  0  0  0  0  0  0
   46.1742   31.9360   41.4398 H   0  0  0  0  0  0  0  0  0  0  0  0
   47.9361   32.2862   41.4398 H   0  0  0  0  0  0  0  0  0  0  0  0
  1  2  1  0
  2  3  1  0
  2  4  1  0
  3  4  1  0
  4  5  1  0
  5  6  1  0
  6  7  2  0
  8  7  1  0
  9  5  1  0
  9  8  2  0
 10  9  1  0
 11 10  2  0
 12  1  1  0
 13 18  1  0
 13 12  1  0
 14 13  2  0
 15 16  2  0
 15 14  1  0
 16 17  1  0
 17 18  2  0
 19 12  1  0
 20 12  1  0
  1 21  1  0
  1 22  1  0
  2 23  1  6
  3 24  1  0
  3 25  1  0
  4 26  1  6
  7 27  1  0
  8 28  1  0
 10 29  1  0
 14 30  1  0
 15 31  1  0
 17 32  1  0
 19 33  1  0
 19 34  1  0
 19 35  1  0
 20 36  1  0
 20 37  1  0
 20 38  1  0
M  ISO  8  21   8  22   8  23  13  24  13  25  13  26  13  27  14  28  14
M  ISO  8  29   6  30  14  31  14  32  14  33   8  34   8  35   8  36   8
M  ISO  2  37   8  38   8
M  END
>  <minimizedAffinity>  (1) 
-4.58420086

>  <minimizedRMSD>  (1) 
1.42422163

$$$$
