
     RDKit          3D

 52 56  0  0  1  0  0  0  0  0999 V2000
   47.3400   34.1240   41.8430 C   0  0  1  0  0  0  0  0  0  0  0  0
   45.9770   34.3500   41.3480 C   0  0  0  0  0  0  0  0  0  0  0  0
   45.5550   33.4940   40.3680 C   0  0  0  0  0  0  0  0  0  0  0  0
   44.2520   33.6480   39.8340 C   0  0  0  0  0  0  0  0  0  0  0  0
   43.4730   34.6470   40.3210 N   0  0  0  0  0  0  0  0  0  0  0  0
   43.9040   35.4700   41.2760 C   0  0  0  0  0  0  0  0  0  0  0  0
   45.1200   35.3010   41.7530 N   0  0  0  0  0  0  0  0  0  0  0  0
   48.2760   35.1570   41.2220 C   0  0  0  0  0  0  0  0  0  0  0  0
   47.2980   34.3730   43.3440 C   0  0  0  0  0  0  0  0  0  0  0  0
   46.6970   33.2090   44.1010 C   0  0  2  0  0  0  0  0  0  0  0  0
   45.2540   33.0060   44.2120 C   0  0  0  0  0  0  0  0  0  0  0  0
   46.0720   33.5490   45.3890 C   0  0  1  0  0  0  0  0  0  0  0  0
   46.0090   32.7060   46.5390 N   0  0  0  0  0  0  0  0  0  0  0  0
   45.2730   32.8500   47.6440 N   0  0  0  0  0  0  0  0  0  0  0  0
   45.5100   31.8350   48.4830 C   0  0  0  0  0  0  0  0  0  0  0  0
   46.4320   31.0370   47.8610 C   0  0  0  0  0  0  0  0  0  0  0  0
   46.7350   31.6080   46.6260 C   0  0  0  0  0  0  0  0  0  0  0  0
   47.6710   30.9700   45.7880 N   0  0  0  0  0  0  0  0  0  0  0  0
   47.8710   32.8010   41.5830 C   0  0  0  0  0  0  0  0  0  0  0  0
   49.3160   32.6010   41.5890 C   0  0  0  0  0  0  0  0  0  0  0  0
   50.3260   32.8530   42.4840 C   0  0  0  0  0  0  0  0  0  0  0  0
   51.5330   32.4940   42.0560 N   0  0  0  0  0  0  0  0  0  0  0  0
   51.3360   31.9710   40.8120 C   0  0  0  0  0  0  0  0  0  0  0  0
   52.3380   31.4640   39.9740 C   0  0  0  0  0  0  0  0  0  0  0  0
   51.8650   30.9950   38.7490 C   0  0  0  0  0  0  0  0  0  0  0  0
   50.5340   31.0280   38.3990 C   0  0  0  0  0  0  0  0  0  0  0  0
   49.6120   31.5430   39.2820 C   0  0  0  0  0  0  0  0  0  0  0  0
   50.0050   32.0260   40.5110 C   0  0  0  0  0  0  0  0  0  0  0  0
   46.2181   32.6973   39.9998 H   0  0  0  0  0  0  0  0  0  0  0  0
   43.8815   32.9760   39.0459 H   0  0  0  0  0  0  0  0  0  0  0  0
   43.2577   36.2739   41.6581 H   0  0  0  0  0  0  0  0  0  0  0  0
   48.7843   35.7179   42.0201 H   0  0  0  0  0  0  0  0  0  0  0  0
   49.0248   34.6458   40.5991 H   0  0  0  0  0  0  0  0  0  0  0  0
   47.6936   35.8519   40.5991 H   0  0  0  0  0  0  0  0  0  0  0  0
   48.3242   34.5377   43.7044 H   0  0  0  0  0  0  0  0  0  0  0  0
   46.6642   35.2543   43.5220 H   0  0  0  0  0  0  0  0  0  0  0  0
   47.4913   32.5348   43.7481 H   0  0  0  0  0  0  0  0  0  0  0  0
   44.5593   33.6648   43.6704 H   0  0  0  0  0  0  0  0  0  0  0  0
   44.5662   32.1616   44.0577 H   0  0  0  0  0  0  0  0  0  0  0  0
   46.1880   34.4400   46.0236 H   0  0  0  0  0  0  0  0  0  0  0  0
   45.0560   31.6744   49.4720 H   0  0  0  0  0  0  0  0  0  0  0  0
   46.8592   30.1074   48.2652 H   0  0  0  0  0  0  0  0  0  0  0  0
   48.1175   30.0920   46.0892 H   0  0  0  0  0  0  0  0  0  0  0  0
   47.9087   31.3816   44.8742 H   0  0  0  0  0  0  0  0  0  0  0  0
   47.5087   32.4987   40.5893 H   0  0  0  0  0  0  0  0  0  0  0  0
   47.5206   32.2053   42.4388 H   0  0  0  0  0  0  0  0  0  0  0  0
   50.1523   33.3116   43.4687 H   0  0  0  0  0  0  0  0  0  0  0  0
   52.4273   32.5905   42.5579 H   0  0  0  0  0  0  0  0  0  0  0  0
   53.4007   31.4383   40.2567 H   0  0  0  0  0  0  0  0  0  0  0  0
   52.5873   30.5803   38.0305 H   0  0  0  0  0  0  0  0  0  0  0  0
   50.2093   30.6453   37.4201 H   0  0  0  0  0  0  0  0  0  0  0  0
   48.5483   31.5692   39.0029 H   0  0  0  0  0  0  0  0  0  0  0  0
  1  8  1  6
  1  9  1  0
  2  7  1  0
  2  1  1  0
  3  2  2  0
  4  5  2  0
  4  3  1  0
  5  6  1  0
  6  7  2  0
  9 10  1  0
 10 11  1  0
 10 12  1  0
 11 12  1  0
 12 13  1  0
 13 17  1  0
 13 14  1  0
 14 15  2  0
 16 15  1  0
 17 16  2  0
 18 17  1  0
 19 20  1  0
 19  1  1  0
 20 21  2  0
 22 21  1  0
 23 22  1  0
 24 23  2  0
 25 24  1  0
 26 25  2  0
 26 27  1  0
 27 28  2  0
 28 23  1  0
 28 20  1  0
  3 29  1  0
  4 30  1  0
  6 31  1  0
  8 32  1  0
  8 33  1  0
  8 34  1  0
  9 35  1  0
  9 36  1  0
 10 37  1  1
 11 38  1  0
 11 39  1  0
 12 40  1  1
 15 41  1  0
 16 42  1  0
 18 43  1  0
 18 44  1  0
 19 45  1  0
 19 46  1  0
 21 47  1  0
 22 48  1  0
 24 49  1  0
 25 50  1  0
 26 51  1  0
 27 52  1  0
M  ISO  8  29  14  30  14  31  14  32   8  33   8  34   8  35   8  36   8
M  ISO  8  37  13  38  13  39  13  40  13  41  14  42  14  45   8  46   8
M  ISO  6  47  14  48   9  49  14  50  14  51  14  52  14
M  END
>  <minimizedAffinity>  (1) 
-5.74542093

>  <minimizedRMSD>  (1) 
1.03800571

$$$$
