
     RDKit          3D

 45 48  0  0  1  0  0  0  0  0999 V2000
   46.5590   33.9390   42.0400 C   0  0  1  0  0  0  0  0  0  0  0  0
   45.1690   34.1990   41.7040 C   0  0  0  0  0  0  0  0  0  0  0  0
   44.5010   33.0730   41.2400 C   0  0  0  0  0  0  0  0  0  0  0  0
   43.1270   33.2230   40.8990 C   0  0  0  0  0  0  0  0  0  0  0  0
   42.5560   34.4550   41.0470 N   0  0  0  0  0  0  0  0  0  0  0  0
   43.2470   35.5140   41.5000 C   0  0  0  0  0  0  0  0  0  0  0  0
   44.5240   35.3510   41.8110 N   0  0  0  0  0  0  0  0  0  0  0  0
   47.4780   34.8140   41.1560 C   0  0  0  0  0  0  0  0  0  0  0  0
   46.8090   34.3820   43.4690 C   0  0  0  0  0  0  0  0  0  0  0  0
   45.7840   33.7710   44.4160 C   0  0  2  0  0  0  0  0  0  0  0  0
   45.0700   34.5310   45.4360 C   0  0  0  0  0  0  0  0  0  0  0  0
   46.2240   33.5880   45.8150 C   0  0  1  0  0  0  0  0  0  0  0  0
   45.8090   32.5180   46.6750 N   0  0  0  0  0  0  0  0  0  0  0  0
   45.1850   32.6090   47.8440 N   0  0  0  0  0  0  0  0  0  0  0  0
   44.9720   31.3730   48.3360 C   0  0  0  0  0  0  0  0  0  0  0  0
   45.4970   30.4990   47.4150 C   0  0  0  0  0  0  0  0  0  0  0  0
   46.0210   31.2540   46.3700 C   0  0  0  0  0  0  0  0  0  0  0  0
   46.6150   30.5810   45.3000 N   0  0  0  0  0  0  0  0  0  0  0  0
   47.0630   32.5800   41.8760 C   0  0  0  0  0  0  0  0  0  0  0  0
   48.5460   32.6260   41.8040 C   0  0  0  0  0  0  0  0  0  0  0  0
   49.6160   32.8970   42.6070 C   0  0  0  0  0  0  0  0  0  0  0  0
   50.8210   32.7640   41.9570 C   0  0  0  0  0  0  0  0  0  0  0  0
   50.4720   32.3990   40.7130 N   0  0  0  0  0  0  0  0  0  0  0  0
   49.1610   32.3160   40.6180 N   0  0  0  0  0  0  0  0  0  0  0  0
   45.0130   32.1045   41.1401 H   0  0  0  0  0  0  0  0  0  0  0  0
   42.5410   32.3699   40.5264 H   0  0  0  0  0  0  0  0  0  0  0  0
   42.7627   36.4955   41.6103 H   0  0  0  0  0  0  0  0  0  0  0  0
   48.1252   35.4302   41.7974 H   0  0  0  0  0  0  0  0  0  0  0  0
   48.1005   34.1666   40.5209 H   0  0  0  0  0  0  0  0  0  0  0  0
   46.8619   35.4675   40.5209 H   0  0  0  0  0  0  0  0  0  0  0  0
   47.8163   34.0622   43.7740 H   0  0  0  0  0  0  0  0  0  0  0  0
   46.7220   35.4775   43.5171 H   0  0  0  0  0  0  0  0  0  0  0  0
   45.4019   33.1369   43.6024 H   0  0  0  0  0  0  0  0  0  0  0  0
   45.2012   35.6209   45.5061 H   0  0  0  0  0  0  0  0  0  0  0  0
   44.0179   34.6420   45.7372 H   0  0  0  0  0  0  0  0  0  0  0  0
   47.2295   33.5948   46.2611 H   0  0  0  0  0  0  0  0  0  0  0  0
   44.4774   31.1154   49.2842 H   0  0  0  0  0  0  0  0  0  0  0  0
   45.5022   29.4016   47.4900 H   0  0  0  0  0  0  0  0  0  0  0  0
   46.6569   29.5519   45.2983 H   0  0  0  0  0  0  0  0  0  0  0  0
   47.0112   31.1138   44.5126 H   0  0  0  0  0  0  0  0  0  0  0  0
   46.7532   31.9646   42.7335 H   0  0  0  0  0  0  0  0  0  0  0  0
   46.6571   32.1391   40.9536 H   0  0  0  0  0  0  0  0  0  0  0  0
   49.5243   33.1909   43.6630 H   0  0  0  0  0  0  0  0  0  0  0  0
   51.8321   32.9199   42.3611 H   0  0  0  0  0  0  0  0  0  0  0  0
   51.1327   32.2114   39.9454 H   0  0  0  0  0  0  0  0  0  0  0  0
  1  8  1  6
  1  9  1  0
  2  7  1  0
  2  1  1  0
  3  2  2  0
  4  5  2  0
  4  3  1  0
  5  6  1  0
  6  7  2  0
  9 10  1  0
 10 11  1  0
 10 12  1  0
 11 12  1  0
 12 13  1  0
 13 14  1  0
 14 15  2  0
 16 15  1  0
 17 13  1  0
 17 16  2  0
 18 17  1  0
 19  1  1  0
 20 19  1  0
 20 21  1  0
 22 21  2  0
 23 22  1  0
 24 23  1  0
 24 20  2  0
  3 25  1  0
  4 26  1  0
  6 27  1  0
  8 28  1  0
  8 29  1  0
  8 30  1  0
  9 31  1  0
  9 32  1  0
 10 33  1  6
 11 34  1  0
 11 35  1  0
 12 36  1  6
 15 37  1  0
 16 38  1  0
 18 39  1  0
 18 40  1  0
 19 41  1  0
 19 42  1  0
 21 43  1  0
 22 44  1  0
 23 45  1  0
M  ISO  8  25  14  26  14  27  14  28   8  29   8  30   8  31   8  32   8
M  ISO  8  33  13  34  13  35  13  36  13  37  14  38  14  41   8  42   8
M  ISO  3  43  14  44  14  45   9
M  END
>  <minimizedAffinity>  (1) 
-5.29308462

>  <minimizedRMSD>  (1) 
1.07407629

$$$$
