
     RDKit          3D

 51 54  0  0  1  0  0  0  0  0999 V2000
   46.6510   34.0020   41.9770 C   0  0  1  0  0  0  0  0  0  0  0  0
   45.2510   34.1680   41.5360 C   0  0  0  0  0  0  0  0  0  0  0  0
   44.6930   33.0320   40.9950 C   0  0  0  0  0  0  0  0  0  0  0  0
   43.3540   33.0790   40.5480 C   0  0  0  0  0  0  0  0  0  0  0  0
   42.6750   34.2480   40.6720 N   0  0  0  0  0  0  0  0  0  0  0  0
   43.2390   35.3330   41.1990 C   0  0  0  0  0  0  0  0  0  0  0  0
   44.4890   35.2730   41.6130 N   0  0  0  0  0  0  0  0  0  0  0  0
   47.5410   34.8820   41.0990 C   0  0  0  0  0  0  0  0  0  0  0  0
   46.7300   34.5720   43.3880 C   0  0  0  0  0  0  0  0  0  0  0  0
   45.7450   33.9070   44.3350 C   0  0  2  0  0  0  0  0  0  0  0  0
   45.0200   34.6160   45.3760 C   0  0  0  0  0  0  0  0  0  0  0  0
   46.2110   33.7130   45.7240 C   0  0  1  0  0  0  0  0  0  0  0  0
   45.8360   32.6020   46.5570 N   0  0  0  0  0  0  0  0  0  0  0  0
   45.2500   32.6570   47.7530 N   0  0  0  0  0  0  0  0  0  0  0  0
   45.0580   31.4150   48.2110 C   0  0  0  0  0  0  0  0  0  0  0  0
   45.5570   30.5610   47.2400 C   0  0  0  0  0  0  0  0  0  0  0  0
   46.0450   31.3500   46.1980 C   0  0  0  0  0  0  0  0  0  0  0  0
   46.6030   30.7280   45.0900 N   0  0  0  0  0  0  0  0  0  0  0  0
   47.1510   32.6500   41.9800 C   0  0  0  0  0  0  0  0  0  0  0  0
   48.5360   32.3900   42.4610 C   0  0  0  0  0  0  0  0  0  0  0  0
   49.3990   33.5410   42.8340 C   0  0  0  0  0  0  0  0  0  0  0  0
   50.7890   33.2950   42.2430 C   0  0  0  0  0  0  0  0  0  0  0  0
   50.7830   31.8290   41.9040 C   0  0  0  0  0  0  0  0  0  0  0  0
   49.3770   31.7160   41.3440 C   0  0  0  0  0  0  0  0  0  0  0  0
   45.2790   32.1048   40.9123 H   0  0  0  0  0  0  0  0  0  0  0  0
   42.8737   32.1913   40.1107 H   0  0  0  0  0  0  0  0  0  0  0  0
   42.6681   36.2690   41.2879 H   0  0  0  0  0  0  0  0  0  0  0  0
   48.1780   35.5118   41.7374 H   0  0  0  0  0  0  0  0  0  0  0  0
   48.1742   34.2450   40.4639 H   0  0  0  0  0  0  0  0  0  0  0  0
   46.9112   35.5223   40.4639 H   0  0  0  0  0  0  0  0  0  0  0  0
   47.7489   34.4207   43.7740 H   0  0  0  0  0  0  0  0  0  0  0  0
   46.4753   35.6407   43.3338 H   0  0  0  0  0  0  0  0  0  0  0  0
   45.3755   33.2755   43.5136 H   0  0  0  0  0  0  0  0  0  0  0  0
   45.1107   35.7086   45.4659 H   0  0  0  0  0  0  0  0  0  0  0  0
   43.9683   34.6803   45.6920 H   0  0  0  0  0  0  0  0  0  0  0  0
   47.2192   33.7523   46.1621 H   0  0  0  0  0  0  0  0  0  0  0  0
   44.5962   31.1285   49.1674 H   0  0  0  0  0  0  0  0  0  0  0  0
   45.5665   29.4619   47.2831 H   0  0  0  0  0  0  0  0  0  0  0  0
   46.6518   29.7001   45.0466 H   0  0  0  0  0  0  0  0  0  0  0  0
   46.9683   31.2943   44.3111 H   0  0  0  0  0  0  0  0  0  0  0  0
   46.4741   32.0581   42.6136 H   0  0  0  0  0  0  0  0  0  0  0  0
   47.1892   32.3822   40.9138 H   0  0  0  0  0  0  0  0  0  0  0  0
   48.3164   31.8024   43.3646 H   0  0  0  0  0  0  0  0  0  0  0  0
   48.9783   34.4718   42.4258 H   0  0  0  0  0  0  0  0  0  0  0  0
   49.4585   33.6376   43.9281 H   0  0  0  0  0  0  0  0  0  0  0  0
   50.9443   33.9048   41.3408 H   0  0  0  0  0  0  0  0  0  0  0  0
   51.5990   33.5672   42.9356 H   0  0  0  0  0  0  0  0  0  0  0  0
   51.5466   31.5768   41.1535 H   0  0  0  0  0  0  0  0  0  0  0  0
   51.0137   31.1511   42.7390 H   0  0  0  0  0  0  0  0  0  0  0  0
   49.2812   32.2550   40.3899 H   0  0  0  0  0  0  0  0  0  0  0  0
   49.0698   30.6848   41.1155 H   0  0  0  0  0  0  0  0  0  0  0  0
  1  8  1  6
  1 19  1  0
  1  9  1  0
  2  7  1  0
  2  1  1  0
  3  2  2  0
  4  5  2  0
  4  3  1  0
  5  6  1  0
  6  7  2  0
  9 10  1  0
 10 11  1  0
 10 12  1  0
 11 12  1  0
 12 13  1  0
 13 14  1  0
 14 15  2  0
 16 15  1  0
 17 13  1  0
 17 16  2  0
 18 17  1  0
 19 20  1  0
 20 21  1  0
 22 21  1  0
 23 22  1  0
 24 23  1  0
 24 20  1  0
  3 25  1  0
  4 26  1  0
  6 27  1  0
  8 28  1  0
  8 29  1  0
  8 30  1  0
  9 31  1  0
  9 32  1  0
 10 33  1  6
 11 34  1  0
 11 35  1  0
 12 36  1  6
 15 37  1  0
 16 38  1  0
 18 39  1  0
 18 40  1  0
 19 41  1  0
 19 42  1  0
 20 43  1  0
 21 44  1  0
 21 45  1  0
 22 46  1  0
 22 47  1  0
 23 48  1  0
 23 49  1  0
 24 50  1  0
 24 51  1  0
M  ISO  8  25  14  26  14  27  14  28   8  29   8  30   8  31   8  32   8
M  ISO  8  33  13  34  13  35  13  36  13  37  14  38  14  41   8  42   8
M  ISO  8  43  13  44  13  45  13  46  13  47  13  48  13  49  13  50  13
M  ISO  1  51  13
M  END
>  <minimizedAffinity>  (1) 
-5.16314363

>  <minimizedRMSD>  (1) 
1.05182672

$$$$
