
     RDKit          3D

 48 51  0  0  1  0  0  0  0  0999 V2000
   47.1510   34.1130   41.8100 C   0  0  1  0  0  0  0  0  0  0  0  0
   45.7920   34.4540   41.4240 C   0  0  0  0  0  0  0  0  0  0  0  0
   45.2840   33.6600   40.4250 C   0  0  0  0  0  0  0  0  0  0  0  0
   43.9490   33.9160   39.9810 C   0  0  0  0  0  0  0  0  0  0  0  0
   43.2620   34.9350   40.5800 N   0  0  0  0  0  0  0  0  0  0  0  0
   43.8010   35.6840   41.5520 C   0  0  0  0  0  0  0  0  0  0  0  0
   45.0320   35.4290   41.9430 N   0  0  0  0  0  0  0  0  0  0  0  0
   48.1350   35.1100   41.1370 C   0  0  0  0  0  0  0  0  0  0  0  0
   47.2930   34.3470   43.3050 C   0  0  0  0  0  0  0  0  0  0  0  0
   46.6810   33.1930   44.0840 C   0  0  2  0  0  0  0  0  0  0  0  0
   45.2430   32.9530   44.1890 C   0  0  0  0  0  0  0  0  0  0  0  0
   46.0220   33.5520   45.3650 C   0  0  1  0  0  0  0  0  0  0  0  0
   46.0050   32.7090   46.5300 N   0  0  0  0  0  0  0  0  0  0  0  0
   45.2830   32.8680   47.6290 N   0  0  0  0  0  0  0  0  0  0  0  0
   45.5310   31.8800   48.4940 C   0  0  0  0  0  0  0  0  0  0  0  0
   46.4660   31.0700   47.8750 C   0  0  0  0  0  0  0  0  0  0  0  0
   46.7400   31.6280   46.6320 C   0  0  0  0  0  0  0  0  0  0  0  0
   47.6540   30.9750   45.8180 N   0  0  0  0  0  0  0  0  0  0  0  0
   47.6120   32.8000   41.4560 C   0  0  0  0  0  0  0  0  0  0  0  0
   49.0020   32.4940   41.2930 C   0  0  0  0  0  0  0  0  0  0  0  0
   49.2720   31.9010   40.0300 C   0  0  0  0  0  0  0  0  0  0  0  0
   50.5220   31.4790   39.5700 C   0  0  0  0  0  0  0  0  0  0  0  0
   51.6050   31.6260   40.3630 C   0  0  0  0  0  0  0  0  0  0  0  0
   51.4140   32.1920   41.5980 C   0  0  0  0  0  0  0  0  0  0  0  0
   50.1670   32.5780   41.9770 C   0  0  0  0  0  0  0  0  0  0  0  0
   45.8849   32.8529   39.9806 H   0  0  0  0  0  0  0  0  0  0  0  0
   43.4899   33.3129   39.1838 H   0  0  0  0  0  0  0  0  0  0  0  0
   43.2245   36.4982   42.0153 H   0  0  0  0  0  0  0  0  0  0  0  0
   48.6826   35.6649   41.9130 H   0  0  0  0  0  0  0  0  0  0  0  0
   48.8487   34.5545   40.5108 H   0  0  0  0  0  0  0  0  0  0  0  0
   47.5702   35.8163   40.5108 H   0  0  0  0  0  0  0  0  0  0  0  0
   48.3601   34.4299   43.5589 H   0  0  0  0  0  0  0  0  0  0  0  0
   46.7671   35.2756   43.5718 H   0  0  0  0  0  0  0  0  0  0  0  0
   47.4930   32.5306   43.7494 H   0  0  0  0  0  0  0  0  0  0  0  0
   44.5368   33.5760   43.6206 H   0  0  0  0  0  0  0  0  0  0  0  0
   44.5838   32.0834   44.0504 H   0  0  0  0  0  0  0  0  0  0  0  0
   46.0790   34.4634   45.9782 H   0  0  0  0  0  0  0  0  0  0  0  0
   45.0850   31.7401   49.4898 H   0  0  0  0  0  0  0  0  0  0  0  0
   46.9106   30.1534   48.2900 H   0  0  0  0  0  0  0  0  0  0  0  0
   48.1096   30.1111   46.1450 H   0  0  0  0  0  0  0  0  0  0  0  0
   47.8770   31.3541   44.8866 H   0  0  0  0  0  0  0  0  0  0  0  0
   47.2391   32.1231   42.2388 H   0  0  0  0  0  0  0  0  0  0  0  0
   47.2343   32.6960   40.4281 H   0  0  0  0  0  0  0  0  0  0  0  0
   48.4175   31.7613   39.3515 H   0  0  0  0  0  0  0  0  0  0  0  0
   50.6230   31.0309   38.5705 H   0  0  0  0  0  0  0  0  0  0  0  0
   52.6031   31.3040   40.0312 H   0  0  0  0  0  0  0  0  0  0  0  0
   52.2665   32.3329   42.2787 H   0  0  0  0  0  0  0  0  0  0  0  0
   50.0944   33.0211   42.9812 H   0  0  0  0  0  0  0  0  0  0  0  0
  1  8  1  6
  1  9  1  0
  2  1  1  0
  2  7  1  0
  3  2  2  0
  4  3  1  0
  4  5  2  0
  5  6  1  0
  6  7  2  0
  9 10  1  0
 10 11  1  0
 10 12  1  0
 11 12  1  0
 12 13  1  0
 13 17  1  0
 13 14  1  0
 14 15  2  0
 16 15  1  0
 17 16  2  0
 18 17  1  0
 19  1  1  0
 20 19  1  0
 20 25  1  0
 21 20  2  0
 22 21  1  0
 22 23  2  0
 23 24  1  0
 24 25  2  0
  3 26  1  0
  4 27  1  0
  6 28  1  0
  8 29  1  0
  8 30  1  0
  8 31  1  0
  9 32  1  0
  9 33  1  0
 10 34  1  1
 11 35  1  0
 11 36  1  0
 12 37  1  1
 15 38  1  0
 16 39  1  0
 18 40  1  0
 18 41  1  0
 19 42  1  0
 19 43  1  0
 21 44  1  0
 22 45  1  0
 23 46  1  0
 24 47  1  0
 25 48  1  0
M  ISO  8  26  14  27  14  28  14  29   8  30   8  31   8  32   8  33   8
M  ISO  8  34  13  35  13  36  13  37  13  38  14  39  14  42   8  43   8
M  ISO  5  44  14  45  14  46  14  47  14  48  14
M  END
>  <minimizedAffinity>  (1) 
-5.26353359

>  <minimizedRMSD>  (1) 
0.499665618

$$$$
