
     RDKit          3D

 45 48  0  0  1  0  0  0  0  0999 V2000
   46.6650   33.9580   42.0120 C   0  0  1  0  0  0  0  0  0  0  0  0
   45.2880   34.1890   41.6070 C   0  0  0  0  0  0  0  0  0  0  0  0
   44.6850   33.0890   41.0260 C   0  0  0  0  0  0  0  0  0  0  0  0
   43.3340   33.2240   40.6080 C   0  0  0  0  0  0  0  0  0  0  0  0
   42.7110   34.4210   40.8000 N   0  0  0  0  0  0  0  0  0  0  0  0
   43.3370   35.4700   41.3690 C   0  0  0  0  0  0  0  0  0  0  0  0
   44.5960   35.3190   41.7510 N   0  0  0  0  0  0  0  0  0  0  0  0
   47.6130   34.8130   41.1510 C   0  0  0  0  0  0  0  0  0  0  0  0
   46.8410   34.4380   43.4410 C   0  0  0  0  0  0  0  0  0  0  0  0
   45.8180   33.8040   44.3700 C   0  0  2  0  0  0  0  0  0  0  0  0
   45.0590   34.5480   45.3630 C   0  0  0  0  0  0  0  0  0  0  0  0
   46.2280   33.6470   45.7800 C   0  0  1  0  0  0  0  0  0  0  0  0
   45.8210   32.5750   46.6430 N   0  0  0  0  0  0  0  0  0  0  0  0
   45.1820   32.6590   47.8030 N   0  0  0  0  0  0  0  0  0  0  0  0
   44.9840   31.4200   48.2960 C   0  0  0  0  0  0  0  0  0  0  0  0
   45.5340   30.5610   47.3870 C   0  0  0  0  0  0  0  0  0  0  0  0
   46.0620   31.3140   46.3420 C   0  0  0  0  0  0  0  0  0  0  0  0
   46.6830   30.6410   45.2820 N   0  0  0  0  0  0  0  0  0  0  0  0
   47.1740   32.5940   41.9140 C   0  0  0  0  0  0  0  0  0  0  0  0
   48.6670   32.6090   41.9200 C   0  0  0  0  0  0  0  0  0  0  0  0
   49.4370   31.9420   40.9510 C   0  0  0  0  0  0  0  0  0  0  0  0
   50.7910   32.1000   41.1650 C   0  0  0  0  0  0  0  0  0  0  0  0
   50.7970   32.8860   42.2970 C   0  0  0  0  0  0  0  0  0  0  0  0
   49.5930   33.1270   42.6570 O   0  0  0  0  0  0  0  0  0  0  0  0
   45.2314   32.1437   40.8922 H   0  0  0  0  0  0  0  0  0  0  0  0
   42.8029   32.3819   40.1402 H   0  0  0  0  0  0  0  0  0  0  0  0
   42.8153   36.4277   41.5126 H   0  0  0  0  0  0  0  0  0  0  0  0
   48.2694   35.4050   41.8058 H   0  0  0  0  0  0  0  0  0  0  0  0
   48.2250   34.1554   40.5161 H   0  0  0  0  0  0  0  0  0  0  0  0
   47.0219   35.4894   40.5161 H   0  0  0  0  0  0  0  0  0  0  0  0
   47.8510   34.1717   43.7860 H   0  0  0  0  0  0  0  0  0  0  0  0
   46.6964   35.5283   43.4599 H   0  0  0  0  0  0  0  0  0  0  0  0
   45.4771   33.1502   43.5537 H   0  0  0  0  0  0  0  0  0  0  0  0
   45.1552   35.6420   45.4258 H   0  0  0  0  0  0  0  0  0  0  0  0
   43.9967   34.6289   45.6369 H   0  0  0  0  0  0  0  0  0  0  0  0
   47.2219   33.6869   46.2496 H   0  0  0  0  0  0  0  0  0  0  0  0
   44.4820   31.1547   49.2381 H   0  0  0  0  0  0  0  0  0  0  0  0
   45.5558   29.4641   47.4671 H   0  0  0  0  0  0  0  0  0  0  0  0
   46.7415   29.6127   45.2886 H   0  0  0  0  0  0  0  0  0  0  0  0
   47.0811   31.1745   44.4960 H   0  0  0  0  0  0  0  0  0  0  0  0
   46.8173   32.1375   40.9789 H   0  0  0  0  0  0  0  0  0  0  0  0
   46.8135   32.0095   42.7733 H   0  0  0  0  0  0  0  0  0  0  0  0
   49.0100   31.3620   40.1195 H   0  0  0  0  0  0  0  0  0  0  0  0
   51.6389   31.7043   40.5867 H   0  0  0  0  0  0  0  0  0  0  0  0
   51.6982   33.2502   42.8119 H   0  0  0  0  0  0  0  0  0  0  0  0
  1  8  1  6
  1  9  1  0
  2  7  1  0
  2  1  1  0
  3  2  2  0
  4  5  2  0
  4  3  1  0
  5  6  1  0
  6  7  2  0
  9 10  1  0
 10 11  1  0
 10 12  1  0
 11 12  1  0
 12 13  1  0
 13 14  1  0
 14 15  2  0
 16 15  1  0
 17 13  1  0
 17 16  2  0
 18 17  1  0
 19 20  1  0
 19  1  1  0
 20 24  1  0
 21 22  1  0
 21 20  2  0
 22 23  2  0
 23 24  1  0
  3 25  1  0
  4 26  1  0
  6 27  1  0
  8 28  1  0
  8 29  1  0
  8 30  1  0
  9 31  1  0
  9 32  1  0
 10 33  1  6
 11 34  1  0
 11 35  1  0
 12 36  1  6
 15 37  1  0
 16 38  1  0
 18 39  1  0
 18 40  1  0
 19 41  1  0
 19 42  1  0
 21 43  1  0
 22 44  1  0
 23 45  1  0
M  ISO  8  25  14  26  14  27  14  28   8  29   8  30   8  31   8  32   8
M  ISO  8  33  13  34  13  35  13  36  13  37  14  38  14  41   8  42   8
M  ISO  3  43  14  44  14  45  14
M  END
>  <minimizedAffinity>  (1) 
-5.13771963

>  <minimizedRMSD>  (1) 
0.986339867

$$$$
