
     RDKit          3D

 48 51  0  0  1  0  0  0  0  0999 V2000
   46.6800   34.0860   41.9610 C   0  0  1  0  0  0  0  0  0  0  0  0
   45.3360   34.3350   41.4940 C   0  0  0  0  0  0  0  0  0  0  0  0
   44.8200   33.3180   40.7050 C   0  0  0  0  0  0  0  0  0  0  0  0
   43.4900   33.4770   40.2200 C   0  0  0  0  0  0  0  0  0  0  0  0
   42.8030   34.6130   40.5530 N   0  0  0  0  0  0  0  0  0  0  0  0
   43.3470   35.5630   41.3160 C   0  0  0  0  0  0  0  0  0  0  0  0
   44.5800   35.4000   41.7580 N   0  0  0  0  0  0  0  0  0  0  0  0
   47.6640   34.9530   41.1400 C   0  0  0  0  0  0  0  0  0  0  0  0
   46.8090   34.5980   43.3880 C   0  0  0  0  0  0  0  0  0  0  0  0
   45.8080   33.8990   44.2990 C   0  0  2  0  0  0  0  0  0  0  0  0
   45.0050   34.5840   45.3040 C   0  0  0  0  0  0  0  0  0  0  0  0
   46.2130   33.7370   45.7130 C   0  0  1  0  0  0  0  0  0  0  0  0
   45.8450   32.6180   46.5380 N   0  0  0  0  0  0  0  0  0  0  0  0
   45.2560   32.6560   47.7300 N   0  0  0  0  0  0  0  0  0  0  0  0
   45.0730   31.4010   48.1830 C   0  0  0  0  0  0  0  0  0  0  0  0
   45.5810   30.5680   47.2100 C   0  0  0  0  0  0  0  0  0  0  0  0
   46.0640   31.3670   46.1810 C   0  0  0  0  0  0  0  0  0  0  0  0
   46.6320   30.7490   45.0720 N   0  0  0  0  0  0  0  0  0  0  0  0
   47.1670   32.7230   41.8790 C   0  0  0  0  0  0  0  0  0  0  0  0
   48.6080   32.5040   41.7280 C   0  0  0  0  0  0  0  0  0  0  0  0
   49.7230   32.7680   42.4550 C   0  0  0  0  0  0  0  0  0  0  0  0
   51.0060   32.4820   42.0940 C   0  0  0  0  0  0  0  0  0  0  0  0
   51.2910   31.8760   40.9120 C   0  0  0  0  0  0  0  0  0  0  0  0
   50.2480   31.5510   40.0770 C   0  0  0  0  0  0  0  0  0  0  0  0
   48.9710   31.8740   40.5120 C   0  0  0  0  0  0  0  0  0  0  0  0
   45.4139   32.4242   40.4633 H   0  0  0  0  0  0  0  0  0  0  0  0
   43.0251   32.7033   39.5913 H   0  0  0  0  0  0  0  0  0  0  0  0
   42.7767   36.4679   41.5726 H   0  0  0  0  0  0  0  0  0  0  0  0
   48.3101   35.5223   41.8245 H   0  0  0  0  0  0  0  0  0  0  0  0
   48.2845   34.3027   40.5059 H   0  0  0  0  0  0  0  0  0  0  0  0
   47.0970   35.6504   40.5059 H   0  0  0  0  0  0  0  0  0  0  0  0
   47.8282   34.4016   43.7522 H   0  0  0  0  0  0  0  0  0  0  0  0
   46.6041   35.6787   43.3977 H   0  0  0  0  0  0  0  0  0  0  0  0
   45.5058   33.2472   43.4660 H   0  0  0  0  0  0  0  0  0  0  0  0
   45.0450   35.6800   45.3894 H   0  0  0  0  0  0  0  0  0  0  0  0
   43.9382   34.6049   45.5713 H   0  0  0  0  0  0  0  0  0  0  0  0
   47.1969   33.8231   46.1973 H   0  0  0  0  0  0  0  0  0  0  0  0
   44.6119   31.1018   49.1358 H   0  0  0  0  0  0  0  0  0  0  0  0
   45.6006   29.4686   47.2421 H   0  0  0  0  0  0  0  0  0  0  0  0
   46.6890   29.7215   45.0279 H   0  0  0  0  0  0  0  0  0  0  0  0
   46.9956   31.3188   44.2948 H   0  0  0  0  0  0  0  0  0  0  0  0
   46.8554   32.2107   42.8012 H   0  0  0  0  0  0  0  0  0  0  0  0
   46.7363   32.3387   40.9426 H   0  0  0  0  0  0  0  0  0  0  0  0
   49.5777   33.2596   43.4283 H   0  0  0  0  0  0  0  0  0  0  0  0
   51.8284   32.7477   42.7745 H   0  0  0  0  0  0  0  0  0  0  0  0
   52.3301   31.6509   40.6300 H   0  0  0  0  0  0  0  0  0  0  0  0
   50.4184   31.0576   39.1087 H   0  0  0  0  0  0  0  0  0  0  0  0
   48.1451   31.6107   39.8349 H   0  0  0  0  0  0  0  0  0  0  0  0
  1  8  1  6
  1  9  1  0
  2  7  1  0
  2  1  1  0
  3  2  2  0
  4  5  2  0
  4  3  1  0
  5  6  1  0
  6  7  2  0
  9 10  1  0
 10 11  1  0
 10 12  1  0
 11 12  1  0
 12 13  1  0
 13 14  1  0
 14 15  2  0
 16 15  1  0
 17 13  1  0
 17 16  2  0
 18 17  1  0
 19  1  1  0
 20 19  1  0
 20 21  2  0
 22 21  1  0
 23 22  2  0
 24 25  2  0
 24 23  1  0
 25 20  1  0
  3 26  1  0
  4 27  1  0
  6 28  1  0
  8 29  1  0
  8 30  1  0
  8 31  1  0
  9 32  1  0
  9 33  1  0
 10 34  1  6
 11 35  1  0
 11 36  1  0
 12 37  1  6
 15 38  1  0
 16 39  1  0
 18 40  1  0
 18 41  1  0
 19 42  1  0
 19 43  1  0
 21 44  1  0
 22 45  1  0
 23 46  1  0
 24 47  1  0
 25 48  1  0
M  ISO  8  26  14  27  14  28  14  29   8  30   8  31   8  32   8  33   8
M  ISO  8  34  13  35  13  36  13  37  13  38  14  39  14  42   8  43   8
M  ISO  5  44  14  45  14  46  14  47  14  48  14
M  END
>  <minimizedAffinity>  (1) 
-5.27375364

>  <minimizedRMSD>  (1) 
1.2058593

$$$$
