
     RDKit          3D

 45 48  0  0  1  0  0  0  0  0999 V2000
   47.1640   34.1090   41.8190 C   0  0  1  0  0  0  0  0  0  0  0  0
   45.8080   34.4500   41.4280 C   0  0  0  0  0  0  0  0  0  0  0  0
   45.3020   33.6510   40.4320 C   0  0  0  0  0  0  0  0  0  0  0  0
   43.9690   33.9000   39.9840 C   0  0  0  0  0  0  0  0  0  0  0  0
   43.2760   34.9190   40.5750 N   0  0  0  0  0  0  0  0  0  0  0  0
   43.8110   35.6750   41.5460 C   0  0  0  0  0  0  0  0  0  0  0  0
   45.0470   35.4220   41.9400 N   0  0  0  0  0  0  0  0  0  0  0  0
   48.1450   35.0930   41.1450 C   0  0  0  0  0  0  0  0  0  0  0  0
   47.3050   34.3300   43.3150 C   0  0  0  0  0  0  0  0  0  0  0  0
   46.6810   33.1810   44.0930 C   0  0  2  0  0  0  0  0  0  0  0  0
   45.2400   32.9690   44.2060 C   0  0  0  0  0  0  0  0  0  0  0  0
   46.0460   33.5430   45.3770 C   0  0  1  0  0  0  0  0  0  0  0  0
   46.0140   32.6940   46.5410 N   0  0  0  0  0  0  0  0  0  0  0  0
   45.2920   32.8570   47.6400 N   0  0  0  0  0  0  0  0  0  0  0  0
   45.5410   31.8470   48.4980 C   0  0  0  0  0  0  0  0  0  0  0  0
   46.4580   31.0430   47.8750 C   0  0  0  0  0  0  0  0  0  0  0  0
   46.7440   31.6000   46.6340 C   0  0  0  0  0  0  0  0  0  0  0  0
   47.6630   30.9520   45.8080 N   0  0  0  0  0  0  0  0  0  0  0  0
   47.6340   32.7830   41.4780 C   0  0  0  0  0  0  0  0  0  0  0  0
   49.0340   32.5650   41.4350 N   0  0  0  0  0  0  0  0  0  0  0  0
   49.5850   31.9170   40.3490 C   0  0  0  0  0  0  0  0  0  0  0  0
   50.9520   31.7450   40.4040 C   0  0  0  0  0  0  0  0  0  0  0  0
   51.2700   32.3150   41.5900 N   0  0  0  0  0  0  0  0  0  0  0  0
   50.1570   32.7610   42.1330 C   0  0  0  0  0  0  0  0  0  0  0  0
   45.9056   32.8433   39.9924 H   0  0  0  0  0  0  0  0  0  0  0  0
   43.5145   33.2910   39.1886 H   0  0  0  0  0  0  0  0  0  0  0  0
   43.2320   36.4897   42.0053 H   0  0  0  0  0  0  0  0  0  0  0  0
   48.6975   35.6472   41.9181 H   0  0  0  0  0  0  0  0  0  0  0  0
   48.8542   34.5322   40.5184 H   0  0  0  0  0  0  0  0  0  0  0  0
   47.5821   35.8005   40.5184 H   0  0  0  0  0  0  0  0  0  0  0  0
   48.3727   34.4001   43.5700 H   0  0  0  0  0  0  0  0  0  0  0  0
   46.7847   35.2611   43.5840 H   0  0  0  0  0  0  0  0  0  0  0  0
   47.4771   32.5044   43.7488 H   0  0  0  0  0  0  0  0  0  0  0  0
   44.5417   33.6107   43.6487 H   0  0  0  0  0  0  0  0  0  0  0  0
   44.5607   32.1151   44.0668 H   0  0  0  0  0  0  0  0  0  0  0  0
   46.1345   34.4485   45.9952 H   0  0  0  0  0  0  0  0  0  0  0  0
   45.0983   31.6992   49.4941 H   0  0  0  0  0  0  0  0  0  0  0  0
   46.8919   30.1189   48.2846 H   0  0  0  0  0  0  0  0  0  0  0  0
   48.1123   30.0800   46.1221 H   0  0  0  0  0  0  0  0  0  0  0  0
   47.8921   31.3456   44.8842 H   0  0  0  0  0  0  0  0  0  0  0  0
   47.2170   32.0869   42.2206 H   0  0  0  0  0  0  0  0  0  0  0  0
   47.2997   32.6306   40.4412 H   0  0  0  0  0  0  0  0  0  0  0  0
   48.9788   31.5637   39.5019 H   0  0  0  0  0  0  0  0  0  0  0  0
   51.6162   31.2658   39.6698 H   0  0  0  0  0  0  0  0  0  0  0  0
   50.1513   33.2680   43.1092 H   0  0  0  0  0  0  0  0  0  0  0  0
  1  8  1  6
  1  9  1  0
  2  1  1  0
  2  7  1  0
  3  2  2  0
  4  3  1  0
  4  5  2  0
  5  6  1  0
  6  7  2  0
  9 10  1  0
 10 11  1  0
 10 12  1  0
 11 12  1  0
 12 13  1  0
 13 17  1  0
 13 14  1  0
 14 15  2  0
 16 15  1  0
 17 16  2  0
 18 17  1  0
 19  1  1  0
 20 19  1  0
 20 24  1  0
 21 22  2  0
 21 20  1  0
 22 23  1  0
 23 24  2  0
  3 25  1  0
  4 26  1  0
  6 27  1  0
  8 28  1  0
  8 29  1  0
  8 30  1  0
  9 31  1  0
  9 32  1  0
 10 33  1  1
 11 34  1  0
 11 35  1  0
 12 36  1  1
 15 37  1  0
 16 38  1  0
 18 39  1  0
 18 40  1  0
 19 41  1  0
 19 42  1  0
 21 43  1  0
 22 44  1  0
 24 45  1  0
M  ISO  8  25  14  26  14  27  14  28   8  29   8  30   8  31   8  32   8
M  ISO  8  33  13  34  13  35  13  36  13  37  14  38  14  41   8  42   8
M  ISO  3  43  14  44  14  45  14
M  END
>  <minimizedAffinity>  (1) 
-5.04238892

>  <minimizedRMSD>  (1) 
0.444600105

$$$$
