
     RDKit          3D

 45 48  0  0  1  0  0  0  0  0999 V2000
   43.9230   34.0690   41.2240 C   0  0  1  0  0  0  0  0  0  0  0  0
   42.7110   34.7500   40.7620 C   0  0  0  0  0  0  0  0  0  0  0  0
   42.5270   34.7060   39.3830 C   0  0  0  0  0  0  0  0  0  0  0  0
   41.3830   35.3290   38.8380 C   0  0  0  0  0  0  0  0  0  0  0  0
   40.5270   35.9390   39.6960 N   0  0  0  0  0  0  0  0  0  0  0  0
   40.7230   35.9720   41.0150 C   0  0  0  0  0  0  0  0  0  0  0  0
   41.8040   35.3770   41.4910 N   0  0  0  0  0  0  0  0  0  0  0  0
   44.8240   33.7900   40.0150 C   0  0  0  0  0  0  0  0  0  0  0  0
   44.6600   35.0400   42.1070 C   0  0  0  0  0  0  0  0  0  0  0  0
   44.4050   34.7630   43.5680 C   0  0  2  0  0  0  0  0  0  0  0  0
   44.6520   35.7730   44.5930 C   0  0  0  0  0  0  0  0  0  0  0  0
   45.6240   34.6200   44.4160 C   0  0  1  0  0  0  0  0  0  0  0  0
   45.6970   33.7670   45.5770 N   0  0  0  0  0  0  0  0  0  0  0  0
   45.0450   33.9160   46.7270 N   0  0  0  0  0  0  0  0  0  0  0  0
   45.3900   32.8980   47.5610 C   0  0  0  0  0  0  0  0  0  0  0  0
   46.2730   32.1380   46.8610 C   0  0  0  0  0  0  0  0  0  0  0  0
   46.4590   32.7060   45.5940 C   0  0  0  0  0  0  0  0  0  0  0  0
   47.3360   32.0780   44.7110 N   0  0  0  0  0  0  0  0  0  0  0  0
   43.7090   32.7860   41.8890 C   0  0  0  0  0  0  0  0  0  0  0  0
   42.4810   32.3380   42.3540 N   0  0  0  0  0  0  0  0  0  0  0  0
   41.2830   31.9790   41.6350 C   0  0  0  0  0  0  0  0  0  0  0  0
   41.1910   31.3400   40.4280 N   0  0  0  0  0  0  0  0  0  0  0  0
   39.9170   31.1930   40.1290 O   0  0  0  0  0  0  0  0  0  0  0  0
   39.1640   31.6960   41.0590 C   0  0  0  0  0  0  0  0  0  0  0  0
   39.9960   32.1960   42.0140 N   0  0  0  0  0  0  0  0  0  0  0  0
   43.2552   34.1982   38.7335 H   0  0  0  0  0  0  0  0  0  0  0  0
   41.1923   35.3201   37.7547 H   0  0  0  0  0  0  0  0  0  0  0  0
   40.0102   36.4767   41.6837 H   0  0  0  0  0  0  0  0  0  0  0  0
   45.8205   33.4814   40.3638 H   0  0  0  0  0  0  0  0  0  0  0  0
   44.3832   32.9863   39.4069 H   0  0  0  0  0  0  0  0  0  0  0  0
   44.9146   34.7022   39.4069 H   0  0  0  0  0  0  0  0  0  0  0  0
   45.7388   34.9542   41.9100 H   0  0  0  0  0  0  0  0  0  0  0  0
   44.2997   36.0543   41.8803 H   0  0  0  0  0  0  0  0  0  0  0  0
   43.5138   34.1617   43.3350 H   0  0  0  0  0  0  0  0  0  0  0  0
   44.9481   36.7914   44.3013 H   0  0  0  0  0  0  0  0  0  0  0  0
   44.0761   36.1817   45.4363 H   0  0  0  0  0  0  0  0  0  0  0  0
   46.6737   34.4231   44.1526 H   0  0  0  0  0  0  0  0  0  0  0  0
   45.0301   32.7262   48.5861 H   0  0  0  0  0  0  0  0  0  0  0  0
   46.7625   31.2245   47.2297 H   0  0  0  0  0  0  0  0  0  0  0  0
   47.8249   31.2173   44.9957 H   0  0  0  0  0  0  0  0  0  0  0  0
   47.4951   32.4747   43.7739 H   0  0  0  0  0  0  0  0  0  0  0  0
   44.0519   32.0221   41.1756 H   0  0  0  0  0  0  0  0  0  0  0  0
   44.2366   32.9579   42.8388 H   0  0  0  0  0  0  0  0  0  0  0  0
   42.4139   32.2471   43.3778 H   0  0  0  0  0  0  0  0  0  0  0  0
   38.0642   31.7148   41.0730 H   0  0  0  0  0  0  0  0  0  0  0  0
  1  8  1  6
  1 19  1  0
  1  9  1  0
  2  1  1  0
  2  7  1  0
  3  2  2  0
  4  3  1  0
  4  5  2  0
  5  6  1  0
  6  7  2  0
  9 10  1  0
 10 12  1  0
 10 11  1  0
 12 11  1  0
 12 13  1  0
 13 17  1  0
 13 14  1  0
 14 15  2  0
 16 15  1  0
 17 16  2  0
 18 17  1  0
 19 20  1  0
 21 25  1  0
 21 20  1  0
 22 21  2  0
 23 22  1  0
 23 24  1  0
 24 25  2  0
  3 26  1  0
  4 27  1  0
  6 28  1  0
  8 29  1  0
  8 30  1  0
  8 31  1  0
  9 32  1  0
  9 33  1  0
 10 34  1  6
 11 35  1  0
 11 36  1  0
 12 37  1  6
 15 38  1  0
 16 39  1  0
 18 40  1  0
 18 41  1  0
 19 42  1  0
 19 43  1  0
 20 44  1  0
 24 45  1  0
M  ISO  8  26  14  27  14  28  14  29   8  30   8  31   8  32   8  33   8
M  ISO  8  34  13  35  13  36  13  37  13  38  14  39  14  42   8  43   8
M  ISO  1  45  14
M  END
>  <minimizedAffinity>  (1) 
-5.54282999

>  <minimizedRMSD>  (1) 
1.91198623

$$$$
