
     RDKit          3D

 34 36  0  0  1  0  0  0  0  0999 V2000
   46.4510   31.4750   47.0210 C   0  0  2  0  0  0  0  0  0  0  0  0
   44.7400   35.1360   45.6380 C   0  0  0  0  0  0  0  0  0  0  0  0
   44.3320   35.6600   44.4150 C   0  0  0  0  0  0  0  0  0  0  0  0
   44.7610   35.0200   43.2410 C   0  0  0  0  0  0  0  0  0  0  0  0
   45.5470   33.9290   43.3510 N   0  0  0  0  0  0  0  0  0  0  0  0
   45.9410   33.4250   44.5600 C   0  0  0  0  0  0  0  0  0  0  0  0
   45.5270   34.0410   45.6780 N   0  0  0  0  0  0  0  0  0  0  0  0
   46.7660   32.2940   44.7030 N   0  0  0  0  0  0  0  0  0  0  0  0
   47.4850   31.9540   43.5960 C   0  0  0  0  0  0  0  0  0  0  0  0
   48.2330   30.8190   43.9800 C   0  0  0  0  0  0  0  0  0  0  0  0
   47.9370   30.5300   45.2800 N   0  0  0  0  0  0  0  0  0  0  0  0
   47.0440   31.4410   45.6950 C   0  0  0  0  0  0  0  0  0  0  0  0
   47.3460   32.4160   47.8740 C   0  0  0  0  0  0  0  0  0  0  0  0
   46.4820   30.1300   47.6750 C   0  0  0  0  0  0  0  0  0  0  0  0
   45.6280   29.1770   47.0620 N   0  0  0  0  0  0  0  0  0  0  0  0
   44.3790   29.4010   46.6510 N   0  0  0  0  0  0  0  0  0  0  0  0
   43.8940   28.2550   46.1220 C   0  0  0  0  0  0  0  0  0  0  0  0
   44.8670   27.2660   46.1950 C   0  0  0  0  0  0  0  0  0  0  0  0
   45.9530   27.8810   46.7960 C   0  0  0  0  0  0  0  0  0  0  0  0
   47.4820   27.0390   47.1260 S   0  0  0  0  0  0  0  0  0  0  0  0
   45.4045   31.8050   46.9444 H   0  0  0  0  0  0  0  0  0  0  0  0
   44.4199   35.6160   46.5746 H   0  0  0  0  0  0  0  0  0  0  0  0
   43.6902   36.5522   44.3692 H   0  0  0  0  0  0  0  0  0  0  0  0
   44.4626   35.4001   42.2528 H   0  0  0  0  0  0  0  0  0  0  0  0
   47.4831   32.4547   42.6165 H   0  0  0  0  0  0  0  0  0  0  0  0
   48.9343   30.2632   43.3402 H   0  0  0  0  0  0  0  0  0  0  0  0
   47.1648   32.2255   48.9421 H   0  0  0  0  0  0  0  0  0  0  0  0
   48.4042   32.2254   47.6419 H   0  0  0  0  0  0  0  0  0  0  0  0
   47.1026   33.4633   47.6419 H   0  0  0  0  0  0  0  0  0  0  0  0
   47.5129   29.7484   47.6354 H   0  0  0  0  0  0  0  0  0  0  0  0
   46.1236   30.2660   48.7061 H   0  0  0  0  0  0  0  0  0  0  0  0
   42.8865   28.1259   45.6998 H   0  0  0  0  0  0  0  0  0  0  0  0
   44.7916   26.2238   45.8512 H   0  0  0  0  0  0  0  0  0  0  0  0
   47.6649   26.9383   48.4800 H   0  0  0  0  0  0  0  0  0  0  0  0
  1 14  1  0
  1 13  1  0
  2  7  2  0
  3  2  1  0
  4  5  1  0
  4  3  2  0
  5  6  2  0
  6  8  1  0
  6  7  1  0
  8 12  1  0
  9 10  2  0
  9  8  1  0
 10 11  1  0
 11 12  2  0
 12  1  1  0
 15 14  1  0
 16 15  1  0
 17 18  1  0
 17 16  2  0
 18 19  2  0
 19 15  1  0
 19 20  1  0
  1 21  1  6
  2 22  1  0
  3 23  1  0
  4 24  1  0
  9 25  1  0
 10 26  1  0
 13 27  1  0
 13 28  1  0
 13 29  1  0
 14 30  1  0
 14 31  1  0
 17 32  1  0
 18 33  1  0
 20 34  1  0
M  ISO  8  21   8  22  14  23  14  24  14  25  14  26  14  27   8  28   8
M  ISO  6  29   8  30   8  31   8  32  14  33  14  34  11
M  END
>  <minimizedAffinity>  (1) 
-4.30286407

>  <minimizedRMSD>  (1) 
0.552098036

$$$$
