
     RDKit          3D

 53 56  0  0  1  0  0  0  0  0999 V2000
   44.8440   34.1160   41.8330 C   0  0  1  0  0  0  0  0  0  0  0  0
   43.5840   34.6160   41.2490 C   0  0  0  0  0  0  0  0  0  0  0  0
   43.4570   34.4330   39.8870 C   0  0  0  0  0  0  0  0  0  0  0  0
   42.2870   34.8820   39.2490 C   0  0  0  0  0  0  0  0  0  0  0  0
   41.3380   35.4710   39.9880 N   0  0  0  0  0  0  0  0  0  0  0  0
   41.4790   35.6400   41.3140 C   0  0  0  0  0  0  0  0  0  0  0  0
   42.5820   35.2130   41.8910 N   0  0  0  0  0  0  0  0  0  0  0  0
   45.9480   34.2620   40.7890 C   0  0  0  0  0  0  0  0  0  0  0  0
   45.1920   35.0210   42.9760 C   0  0  0  0  0  0  0  0  0  0  0  0
   44.6890   34.4890   44.2860 C   0  0  2  0  0  0  0  0  0  0  0  0
   44.6890   35.3070   45.4910 C   0  0  0  0  0  0  0  0  0  0  0  0
   45.7350   34.2180   45.3100 C   0  0  1  0  0  0  0  0  0  0  0  0
   45.6330   33.1730   46.2940 N   0  0  0  0  0  0  0  0  0  0  0  0
   45.2050   33.3030   47.5570 N   0  0  0  0  0  0  0  0  0  0  0  0
   45.2530   32.1070   48.1690 C   0  0  0  0  0  0  0  0  0  0  0  0
   45.7270   31.2460   47.2290 C   0  0  0  0  0  0  0  0  0  0  0  0
   45.9660   31.9330   46.0380 C   0  0  0  0  0  0  0  0  0  0  0  0
   46.4610   31.2380   44.9420 N   0  0  0  0  0  0  0  0  0  0  0  0
   44.8110   32.7080   42.2330 C   0  0  0  0  0  0  0  0  0  0  0  0
   43.7920   32.1090   42.9350 N   0  0  0  0  0  0  0  0  0  0  0  0
   43.0780   31.1250   42.1510 C   0  0  0  0  0  0  0  0  0  0  0  0
   41.6700   31.6230   41.8010 C   0  0  0  0  0  0  0  0  0  0  0  0
   41.0620   30.3450   41.2390 C   0  0  0  0  0  0  0  0  0  0  0  0
   41.8240   29.1910   41.8550 C   0  0  0  0  0  0  0  0  0  0  0  0
   42.8070   29.8380   42.8370 C   0  0  0  0  0  0  0  0  0  0  0  0
   44.2567   33.9447   39.3108 H   0  0  0  0  0  0  0  0  0  0  0  0
   42.1539   34.7521   38.1648 H   0  0  0  0  0  0  0  0  0  0  0  0
   40.6884   36.1254   41.9050 H   0  0  0  0  0  0  0  0  0  0  0  0
   46.9164   34.3901   41.2948 H   0  0  0  0  0  0  0  0  0  0  0  0
   45.9794   33.3602   40.1599 H   0  0  0  0  0  0  0  0  0  0  0  0
   45.7438   35.1410   40.1599 H   0  0  0  0  0  0  0  0  0  0  0  0
   46.2861   35.1211   43.0297 H   0  0  0  0  0  0  0  0  0  0  0  0
   44.7123   35.9946   42.7974 H   0  0  0  0  0  0  0  0  0  0  0  0
   43.8875   33.9220   43.7899 H   0  0  0  0  0  0  0  0  0  0  0  0
   44.9822   36.3658   45.4371 H   0  0  0  0  0  0  0  0  0  0  0  0
   43.9468   35.5521   46.2650 H   0  0  0  0  0  0  0  0  0  0  0  0
   46.8241   34.0899   45.2243 H   0  0  0  0  0  0  0  0  0  0  0  0
   44.9700   31.8749   49.2063 H   0  0  0  0  0  0  0  0  0  0  0  0
   45.8965   30.1703   47.3841 H   0  0  0  0  0  0  0  0  0  0  0  0
   46.6422   30.2265   45.0126 H   0  0  0  0  0  0  0  0  0  0  0  0
   46.6469   31.7341   44.0587 H   0  0  0  0  0  0  0  0  0  0  0  0
   44.8977   32.1359   41.2975 H   0  0  0  0  0  0  0  0  0  0  0  0
   45.6053   32.7007   42.9940 H   0  0  0  0  0  0  0  0  0  0  0  0
   44.1909   31.6443   43.7631 H   0  0  0  0  0  0  0  0  0  0  0  0
   43.7491   30.9733   41.2928 H   0  0  0  0  0  0  0  0  0  0  0  0
   41.1289   31.9735   42.6923 H   0  0  0  0  0  0  0  0  0  0  0  0
   41.6427   32.4851   41.1183 H   0  0  0  0  0  0  0  0  0  0  0  0
   39.9972   30.2822   41.5076 H   0  0  0  0  0  0  0  0  0  0  0  0
   41.1324   30.3236   40.1415 H   0  0  0  0  0  0  0  0  0  0  0  0
   41.1375   28.5147   42.3855 H   0  0  0  0  0  0  0  0  0  0  0  0
   42.3400   28.5862   41.0948 H   0  0  0  0  0  0  0  0  0  0  0  0
   43.7222   29.2379   42.9482 H   0  0  0  0  0  0  0  0  0  0  0  0
   42.4246   29.9405   43.8633 H   0  0  0  0  0  0  0  0  0  0  0  0
  1  8  1  6
  1 19  1  0
  1  9  1  0
  2  1  1  0
  2  7  1  0
  3  2  2  0
  4  3  1  0
  4  5  2  0
  5  6  1  0
  6  7  2  0
  9 10  1  0
 10 12  1  0
 10 11  1  0
 12 11  1  0
 12 13  1  0
 13 14  1  0
 14 15  2  0
 16 15  1  0
 17 13  1  0
 17 16  2  0
 18 17  1  0
 19 20  1  0
 21 25  1  0
 21 20  1  0
 22 21  1  0
 23 22  1  0
 23 24  1  0
 24 25  1  0
  3 26  1  0
  4 27  1  0
  6 28  1  0
  8 29  1  0
  8 30  1  0
  8 31  1  0
  9 32  1  0
  9 33  1  0
 10 34  1  6
 11 35  1  0
 11 36  1  0
 12 37  1  6
 15 38  1  0
 16 39  1  0
 18 40  1  0
 18 41  1  0
 19 42  1  0
 19 43  1  0
 20 44  1  0
 21 45  1  0
 22 46  1  0
 22 47  1  0
 23 48  1  0
 23 49  1  0
 24 50  1  0
 24 51  1  0
 25 52  1  0
 25 53  1  0
M  ISO  8  26  14  27  14  28  14  29   8  30   8  31   8  32   8  33   8
M  ISO  8  34  13  35  13  36  13  37  13  38  14  39  14  42   8  43   8
M  ISO  8  44   5  45  13  46  13  47  13  48  13  49  13  50  13  51  13
M  ISO  2  52  13  53  13
M  END
>  <minimizedAffinity>  (1) 
-4.88032913

>  <minimizedRMSD>  (1) 
1.63405728

$$$$
