
     RDKit          3D

 43 45  0  0  1  0  0  0  0  0999 V2000
   45.6860   33.9810   41.9930 C   0  0  1  0  0  0  0  0  0  0  0  0
   44.4070   34.4010   41.3960 C   0  0  0  0  0  0  0  0  0  0  0  0
   44.1860   33.9490   40.1040 C   0  0  0  0  0  0  0  0  0  0  0  0
   42.9910   34.3060   39.4500 C   0  0  0  0  0  0  0  0  0  0  0  0
   42.1090   35.0720   40.1110 N   0  0  0  0  0  0  0  0  0  0  0  0
   42.3350   35.5000   41.3560 C   0  0  0  0  0  0  0  0  0  0  0  0
   43.4630   35.1550   41.9520 N   0  0  0  0  0  0  0  0  0  0  0  0
   46.8130   34.3640   41.0410 C   0  0  0  0  0  0  0  0  0  0  0  0
   45.8750   34.7890   43.2410 C   0  0  0  0  0  0  0  0  0  0  0  0
   45.1340   34.1930   44.4050 C   0  0  2  0  0  0  0  0  0  0  0  0
   44.8200   34.9730   45.5970 C   0  0  0  0  0  0  0  0  0  0  0  0
   45.9520   33.9490   45.6270 C   0  0  1  0  0  0  0  0  0  0  0  0
   45.7070   32.8770   46.5530 N   0  0  0  0  0  0  0  0  0  0  0  0
   45.1120   32.9680   47.7510 N   0  0  0  0  0  0  0  0  0  0  0  0
   45.0650   31.7500   48.3120 C   0  0  0  0  0  0  0  0  0  0  0  0
   45.6500   30.9110   47.4180 C   0  0  0  0  0  0  0  0  0  0  0  0
   46.0590   31.6400   46.2930 C   0  0  0  0  0  0  0  0  0  0  0  0
   46.6920   30.9900   45.2440 N   0  0  0  0  0  0  0  0  0  0  0  0
   45.7960   32.5430   42.2380 C   0  0  0  0  0  0  0  0  0  0  0  0
   44.8190   31.7550   42.7990 N   0  0  0  0  0  0  0  0  0  0  0  0
   44.3740   30.7160   41.8770 C   0  0  0  0  0  0  0  0  0  0  0  0
   43.0630   31.0820   41.4830 F   0  0  0  0  0  0  0  0  0  0  0  0
   44.2750   29.5360   42.5400 F   0  0  0  0  0  0  0  0  0  0  0  0
   45.0910   30.6880   40.6990 F   0  0  0  0  0  0  0  0  0  0  0  0
   44.9332   33.3207   39.5972 H   0  0  0  0  0  0  0  0  0  0  0  0
   42.7858   33.9660   38.4242 H   0  0  0  0  0  0  0  0  0  0  0  0
   41.5961   36.1278   41.8755 H   0  0  0  0  0  0  0  0  0  0  0  0
   47.6974   34.6646   41.6219 H   0  0  0  0  0  0  0  0  0  0  0  0
   47.0665   33.5015   40.4070 H   0  0  0  0  0  0  0  0  0  0  0  0
   46.4885   35.2023   40.4070 H   0  0  0  0  0  0  0  0  0  0  0  0
   46.9475   34.8269   43.4825 H   0  0  0  0  0  0  0  0  0  0  0  0
   45.4765   35.7982   43.0605 H   0  0  0  0  0  0  0  0  0  0  0  0
   44.4937   33.5984   43.7368 H   0  0  0  0  0  0  0  0  0  0  0  0
   45.0496   36.0483   45.6274 H   0  0  0  0  0  0  0  0  0  0  0  0
   43.9142   35.1501   46.1954 H   0  0  0  0  0  0  0  0  0  0  0  0
   47.0403   33.8829   45.7725 H   0  0  0  0  0  0  0  0  0  0  0  0
   44.6410   31.4858   49.2920 H   0  0  0  0  0  0  0  0  0  0  0  0
   45.7822   29.8277   47.5557 H   0  0  0  0  0  0  0  0  0  0  0  0
   46.8536   29.9738   45.2903 H   0  0  0  0  0  0  0  0  0  0  0  0
   47.0005   31.5235   44.4187 H   0  0  0  0  0  0  0  0  0  0  0  0
   46.0035   32.0948   41.2551 H   0  0  0  0  0  0  0  0  0  0  0  0
   46.5384   32.5401   43.0497 H   0  0  0  0  0  0  0  0  0  0  0  0
   45.1950   31.3099   43.6484 H   0  0  0  0  0  0  0  0  0  0  0  0
  1  8  1  6
  1 19  1  0
  1  9  1  0
  2  7  1  0
  2  1  1  0
  3  2  2  0
  4  3  1  0
  4  5  2  0
  5  6  1  0
  6  7  2  0
  9 10  1  0
 10 11  1  0
 10 12  1  0
 11 12  1  0
 12 13  1  0
 13 14  1  0
 14 15  2  0
 16 15  1  0
 17 13  1  0
 17 16  2  0
 18 17  1  0
 19 20  1  0
 21 23  1  0
 21 20  1  0
 22 21  1  0
 24 21  1  0
  3 25  1  0
  4 26  1  0
  6 27  1  0
  8 28  1  0
  8 29  1  0
  8 30  1  0
  9 31  1  0
  9 32  1  0
 10 33  1  6
 11 34  1  0
 11 35  1  0
 12 36  1  6
 15 37  1  0
 16 38  1  0
 18 39  1  0
 18 40  1  0
 19 41  1  0
 19 42  1  0
 20 43  1  0
M  ISO  8  25  14  26  14  27  14  28   8  29   8  30   8  31   8  32   8
M  ISO  8  33  13  34  13  35  13  36  13  37  14  38  14  41   8  42   8
M  ISO  1  43   5
M  END
>  <minimizedAffinity>  (1) 
-4.39140701

>  <minimizedRMSD>  (1) 
0.626770139

$$$$
