
     RDKit          3D

 47 50  0  0  1  0  0  0  0  0999 V2000
   43.8950   34.0830   41.2360 C   0  0  1  0  0  0  0  0  0  0  0  0
   42.6840   34.7690   40.7530 C   0  0  0  0  0  0  0  0  0  0  0  0
   42.5230   34.7600   39.3880 C   0  0  0  0  0  0  0  0  0  0  0  0
   41.3970   35.3780   38.8300 C   0  0  0  0  0  0  0  0  0  0  0  0
   40.5140   35.9580   39.6600 N   0  0  0  0  0  0  0  0  0  0  0  0
   40.6800   35.9610   40.9830 C   0  0  0  0  0  0  0  0  0  0  0  0
   41.7400   35.3770   41.4760 N   0  0  0  0  0  0  0  0  0  0  0  0
   44.7950   33.7880   40.0380 C   0  0  0  0  0  0  0  0  0  0  0  0
   44.6240   35.0720   42.1080 C   0  0  0  0  0  0  0  0  0  0  0  0
   44.3890   34.7970   43.5750 C   0  0  2  0  0  0  0  0  0  0  0  0
   44.6660   35.8010   44.5880 C   0  0  0  0  0  0  0  0  0  0  0  0
   45.6010   34.6310   44.4090 C   0  0  1  0  0  0  0  0  0  0  0  0
   45.6830   33.7820   45.5630 N   0  0  0  0  0  0  0  0  0  0  0  0
   45.0390   33.9240   46.7210 N   0  0  0  0  0  0  0  0  0  0  0  0
   45.3980   32.9120   47.5410 C   0  0  0  0  0  0  0  0  0  0  0  0
   46.2790   32.1510   46.8460 C   0  0  0  0  0  0  0  0  0  0  0  0
   46.4550   32.7150   45.5790 C   0  0  0  0  0  0  0  0  0  0  0  0
   47.3290   32.0970   44.6810 N   0  0  0  0  0  0  0  0  0  0  0  0
   43.6580   32.8230   41.9070 C   0  0  0  0  0  0  0  0  0  0  0  0
   42.4230   32.3560   42.3410 N   0  0  0  0  0  0  0  0  0  0  0  0
   41.5570   31.6190   41.5000 C   0  0  0  0  0  0  0  0  0  0  0  0
   40.4300   30.7850   41.9510 C   0  0  0  0  0  0  0  0  0  0  0  0
   40.1090   32.1430   41.4570 C   0  0  0  0  0  0  0  0  0  0  0  0
   43.2690   34.2737   38.7422 H   0  0  0  0  0  0  0  0  0  0  0  0
   41.2397   35.3883   37.7413 H   0  0  0  0  0  0  0  0  0  0  0  0
   39.9434   36.4428   41.6427 H   0  0  0  0  0  0  0  0  0  0  0  0
   45.7842   33.4638   40.3935 H   0  0  0  0  0  0  0  0  0  0  0  0
   44.3448   32.9904   39.4288 H   0  0  0  0  0  0  0  0  0  0  0  0
   44.9043   34.6973   39.4288 H   0  0  0  0  0  0  0  0  0  0  0  0
   45.7021   35.0048   41.9002 H   0  0  0  0  0  0  0  0  0  0  0  0
   44.2428   36.0785   41.8806 H   0  0  0  0  0  0  0  0  0  0  0  0
   43.4874   34.2080   43.3508 H   0  0  0  0  0  0  0  0  0  0  0  0
   44.9847   36.8106   44.2893 H   0  0  0  0  0  0  0  0  0  0  0  0
   44.1069   36.2279   45.4337 H   0  0  0  0  0  0  0  0  0  0  0  0
   46.6433   34.4075   44.1377 H   0  0  0  0  0  0  0  0  0  0  0  0
   45.0455   32.7397   48.5686 H   0  0  0  0  0  0  0  0  0  0  0  0
   46.7731   31.2411   47.2173 H   0  0  0  0  0  0  0  0  0  0  0  0
   47.8272   31.2383   44.9555 H   0  0  0  0  0  0  0  0  0  0  0  0
   47.4751   32.5001   43.7445 H   0  0  0  0  0  0  0  0  0  0  0  0
   44.0337   32.0523   41.2179 H   0  0  0  0  0  0  0  0  0  0  0  0
   44.1355   33.0297   42.8761 H   0  0  0  0  0  0  0  0  0  0  0  0
   42.6133   31.7545   43.1551 H   0  0  0  0  0  0  0  0  0  0  0  0
   42.3980   31.3920   40.8283 H   0  0  0  0  0  0  0  0  0  0  0  0
   40.1331   29.9081   41.3569 H   0  0  0  0  0  0  0  0  0  0  0  0
   40.2101   30.2430   42.8826 H   0  0  0  0  0  0  0  0  0  0  0  0
   39.7811   32.9250   42.1578 H   0  0  0  0  0  0  0  0  0  0  0  0
   39.4466   32.5647   40.6867 H   0  0  0  0  0  0  0  0  0  0  0  0
  1  8  1  6
  1 19  1  0
  1  9  1  0
  2  1  1  0
  2  7  1  0
  3  2  2  0
  4  3  1  0
  4  5  2  0
  5  6  1  0
  6  7  2  0
  9 10  1  0
 10 12  1  0
 10 11  1  0
 12 11  1  0
 12 13  1  0
 13 17  1  0
 13 14  1  0
 14 15  2  0
 16 15  1  0
 17 16  2  0
 18 17  1  0
 19 20  1  0
 21 22  1  0
 21 20  1  0
 23 21  1  0
 23 22  1  0
  3 24  1  0
  4 25  1  0
  6 26  1  0
  8 27  1  0
  8 28  1  0
  8 29  1  0
  9 30  1  0
  9 31  1  0
 10 32  1  6
 11 33  1  0
 11 34  1  0
 12 35  1  6
 15 36  1  0
 16 37  1  0
 18 38  1  0
 18 39  1  0
 19 40  1  0
 19 41  1  0
 20 42  1  0
 21 43  1  0
 22 44  1  0
 22 45  1  0
 23 46  1  0
 23 47  1  0
M  ISO  8  24  14  25  14  26  14  27   8  28   8  29   8  30   8  31   8
M  ISO  8  32  13  33  13  34  13  35  13  36  14  37  14  40   8  41   8
M  ISO  6  42   5  43  13  44  13  45  13  46  13  47  13
M  END
>  <minimizedAffinity>  (1) 
-4.95536947

>  <minimizedRMSD>  (1) 
1.99613512

$$$$
