
     RDKit          3D

 37 40  0  0  1  0  0  0  0  0999 V2000
   44.6460   35.6390   44.8740 C   0  0  0  0  0  0  0  0  0  0  0  0
   45.0790   35.4480   43.5350 C   0  0  0  0  0  0  0  0  0  0  0  0
   45.7510   34.2810   43.2400 C   0  0  0  0  0  0  0  0  0  0  0  0
   45.9660   33.3710   44.2420 N   0  0  0  0  0  0  0  0  0  0  0  0
   45.5390   33.5950   45.4930 C   0  0  0  0  0  0  0  0  0  0  0  0
   44.8860   34.7150   45.8060 N   0  0  0  0  0  0  0  0  0  0  0  0
   45.7920   32.6020   46.5350 N   0  0  0  0  0  0  0  0  0  0  0  0
   45.3380   32.8230   47.8880 C   0  0  0  0  0  0  0  0  0  0  0  0
   46.2770   32.2720   48.9150 C   0  0  0  0  0  0  0  0  0  0  0  0
   47.6200   32.0050   48.2880 C   0  0  0  0  0  0  0  0  0  0  0  0
   47.3890   30.8830   47.2730 C   0  0  0  0  0  0  0  0  0  0  0  0
   46.5110   31.3910   46.1850 C   0  0  1  0  0  0  0  0  0  0  0  0
   45.6000   30.3470   45.6300 C   0  0  0  0  0  0  0  0  0  0  0  0
   45.3880   30.0060   44.3580 N   0  0  0  0  0  0  0  0  0  0  0  0
   44.5320   29.0380   44.2530 O   0  0  0  0  0  0  0  0  0  0  0  0
   44.1580   28.7210   45.4800 C   0  0  0  0  0  0  0  0  0  0  0  0
   44.7990   29.5080   46.3450 N   0  0  0  0  0  0  0  0  0  0  0  0
   43.1980   27.6730   45.8300 C   0  0  0  0  0  0  0  0  0  0  0  0
   41.8800   27.5930   45.3950 C   0  0  0  0  0  0  0  0  0  0  0  0
   41.3410   26.4550   45.9620 C   0  0  0  0  0  0  0  0  0  0  0  0
   42.3540   25.8950   46.7140 C   0  0  0  0  0  0  0  0  0  0  0  0
   43.4420   26.6360   46.6180 O   0  0  0  0  0  0  0  0  0  0  0  0
   44.1070   36.5586   45.1456 H   0  0  0  0  0  0  0  0  0  0  0  0
   44.8850   36.2046   42.7605 H   0  0  0  0  0  0  0  0  0  0  0  0
   46.1083   34.0837   42.2185 H   0  0  0  0  0  0  0  0  0  0  0  0
   45.2355   33.9060   48.0513 H   0  0  0  0  0  0  0  0  0  0  0  0
   44.3779   32.2988   48.0037 H   0  0  0  0  0  0  0  0  0  0  0  0
   46.3934   33.0001   49.7312 H   0  0  0  0  0  0  0  0  0  0  0  0
   45.8686   31.3312   49.3127 H   0  0  0  0  0  0  0  0  0  0  0  0
   47.9935   32.9079   47.7828 H   0  0  0  0  0  0  0  0  0  0  0  0
   48.3701   31.7222   49.0412 H   0  0  0  0  0  0  0  0  0  0  0  0
   48.3529   30.5629   46.8506 H   0  0  0  0  0  0  0  0  0  0  0  0
   46.9106   30.0251   47.7681 H   0  0  0  0  0  0  0  0  0  0  0  0
   47.2042   31.6686   45.3773 H   0  0  0  0  0  0  0  0  0  0  0  0
   41.3655   28.3001   44.7276 H   0  0  0  0  0  0  0  0  0  0  0  0
   40.3165   26.0737   45.8397 H   0  0  0  0  0  0  0  0  0  0  0  0
   42.2676   24.9707   47.3042 H   0  0  0  0  0  0  0  0  0  0  0  0
  1  6  2  0
  2  1  1  0
  3  2  2  0
  3  4  1  0
  4  5  2  0
  5  6  1  0
  5  7  1  0
  7  8  1  0
  8  9  1  0
 10  9  1  0
 11 10  1  0
 12  7  1  0
 12 11  1  0
 13 12  1  0
 13 17  1  0
 14 13  2  0
 15 14  1  0
 15 16  1  0
 16 18  1  0
 16 17  2  0
 18 22  1  0
 19 18  2  0
 19 20  1  0
 20 21  2  0
 22 21  1  0
  1 23  1  0
  2 24  1  0
  3 25  1  0
  8 26  1  0
  8 27  1  0
  9 28  1  0
  9 29  1  0
 10 30  1  0
 10 31  1  0
 11 32  1  0
 11 33  1  0
 12 34  1  6
 19 35  1  0
 20 36  1  0
 21 37  1  0
M  ISO  8  23  14  24  14  25  14  26  13  27  13  28  13  29  13  30  13
M  ISO  7  31  13  32  13  33  13  34  13  35  14  36  14  37  14
M  END
>  <minimizedAffinity>  (1) 
-5.60796165

>  <minimizedRMSD>  (1) 
0.64157486

$$$$
