
     RDKit          3D

 52 55  0  0  1  0  0  0  0  0999 V2000
   43.6220   33.9920   41.2370 C   0  0  1  0  0  0  0  0  0  0  0  0
   42.4570   34.7850   40.7660 C   0  0  0  0  0  0  0  0  0  0  0  0
   42.3180   34.8350   39.4080 C   0  0  0  0  0  0  0  0  0  0  0  0
   41.2560   35.5640   38.8530 C   0  0  0  0  0  0  0  0  0  0  0  0
   40.4130   36.1870   39.6780 N   0  0  0  0  0  0  0  0  0  0  0  0
   40.5700   36.1240   41.0130 C   0  0  0  0  0  0  0  0  0  0  0  0
   41.5720   35.4350   41.4970 N   0  0  0  0  0  0  0  0  0  0  0  0
   44.5110   33.6920   40.0470 C   0  0  0  0  0  0  0  0  0  0  0  0
   44.4380   34.8980   42.1240 C   0  0  0  0  0  0  0  0  0  0  0  0
   44.4750   34.3980   43.5340 C   0  0  2  0  0  0  0  0  0  0  0  0
   44.9390   35.2720   44.6120 C   0  0  0  0  0  0  0  0  0  0  0  0
   45.8130   34.1570   44.1250 C   0  0  1  0  0  0  0  0  0  0  0  0
   46.0820   33.1570   45.1170 N   0  0  0  0  0  0  0  0  0  0  0  0
   46.6490   33.3100   46.3150 N   0  0  0  0  0  0  0  0  0  0  0  0
   46.7180   32.1270   46.9430 C   0  0  0  0  0  0  0  0  0  0  0  0
   46.1710   31.2290   46.0880 C   0  0  0  0  0  0  0  0  0  0  0  0
   45.7620   31.8830   44.9180 C   0  0  0  0  0  0  0  0  0  0  0  0
   45.1700   31.1780   43.8890 N   0  0  0  0  0  0  0  0  0  0  0  0
   43.2920   32.7180   41.8560 C   0  0  0  0  0  0  0  0  0  0  0  0
   41.9700   32.2000   41.8940 N   0  0  0  0  0  0  0  0  0  0  0  0
   41.9190   30.7840   41.6360 C   0  0  0  0  0  0  0  0  0  0  0  0
   41.2280   30.2160   40.7480 O   0  0  0  0  0  0  0  0  0  0  0  0
   42.6430   29.8820   42.3600 O   0  0  0  0  0  0  0  0  0  0  0  0
   42.0340   29.3120   43.4730 C   0  0  0  0  0  0  0  0  0  0  0  0
   42.6470   28.2680   44.1400 C   0  0  0  0  0  0  0  0  0  0  0  0
   41.9640   27.7640   45.2370 C   0  0  0  0  0  0  0  0  0  0  0  0
   40.7460   28.2840   45.6300 C   0  0  0  0  0  0  0  0  0  0  0  0
   40.1710   29.3140   44.9490 C   0  0  0  0  0  0  0  0  0  0  0  0
   40.8300   29.7990   43.8910 N   0  0  0  0  0  0  0  0  0  0  0  0
   43.0315   34.3091   38.7566 H   0  0  0  0  0  0  0  0  0  0  0  0
   41.1214   35.6207   37.7627 H   0  0  0  0  0  0  0  0  0  0  0  0
   39.8695   36.6417   41.6847 H   0  0  0  0  0  0  0  0  0  0  0  0
   45.4977   33.3590   40.4012 H   0  0  0  0  0  0  0  0  0  0  0  0
   44.0531   32.8986   39.4380 H   0  0  0  0  0  0  0  0  0  0  0  0
   44.6275   34.6006   39.4380 H   0  0  0  0  0  0  0  0  0  0  0  0
   45.4659   34.9474   41.7353 H   0  0  0  0  0  0  0  0  0  0  0  0
   43.9704   35.8937   42.1233 H   0  0  0  0  0  0  0  0  0  0  0  0
   43.5584   33.8082   43.3858 H   0  0  0  0  0  0  0  0  0  0  0  0
   45.2084   36.3163   44.3957 H   0  0  0  0  0  0  0  0  0  0  0  0
   44.5413   35.5771   45.5911 H   0  0  0  0  0  0  0  0  0  0  0  0
   46.7958   33.9984   43.6571 H   0  0  0  0  0  0  0  0  0  0  0  0
   47.1318   31.9274   47.9425 H   0  0  0  0  0  0  0  0  0  0  0  0
   46.0644   30.1516   46.2826 H   0  0  0  0  0  0  0  0  0  0  0  0
   45.0261   30.1619   43.9769 H   0  0  0  0  0  0  0  0  0  0  0  0
   44.8722   31.6682   43.0335 H   0  0  0  0  0  0  0  0  0  0  0  0
   43.8999   31.9618   41.3377 H   0  0  0  0  0  0  0  0  0  0  0  0
   43.4767   32.9332   42.9188 H   0  0  0  0  0  0  0  0  0  0  0  0
   41.1373   32.7752   42.0855 H   0  0  0  0  0  0  0  0  0  0  0  0
   43.6178   27.8615   43.8202 H   0  0  0  0  0  0  0  0  0  0  0  0
   42.4021   26.9314   45.8069 H   0  0  0  0  0  0  0  0  0  0  0  0
   40.2329   27.8600   46.5058 H   0  0  0  0  0  0  0  0  0  0  0  0
   39.2011   29.7312   45.2576 H   0  0  0  0  0  0  0  0  0  0  0  0
  1  8  1  6
  1 19  1  0
  1  9  1  0
  2  1  1  0
  2  7  1  0
  3  2  2  0
  4  3  1  0
  4  5  2  0
  5  6  1  0
  6  7  2  0
  9 10  1  0
 10 12  1  0
 10 11  1  0
 12 11  1  0
 12 13  1  0
 13 14  1  0
 14 15  2  0
 16 15  1  0
 17 13  1  0
 17 16  2  0
 18 17  1  0
 19 20  1  0
 21 20  1  0
 21 23  1  0
 22 21  2  0
 23 24  1  0
 24 29  1  0
 24 25  2  0
 25 26  1  0
 26 27  2  0
 28 27  1  0
 29 28  2  0
  3 30  1  0
  4 31  1  0
  6 32  1  0
  8 33  1  0
  8 34  1  0
  8 35  1  0
  9 36  1  0
  9 37  1  0
 10 38  1  1
 11 39  1  0
 11 40  1  0
 12 41  1  6
 15 42  1  0
 16 43  1  0
 18 44  1  0
 18 45  1  0
 19 46  1  0
 19 47  1  0
 20 48  1  0
 25 49  1  0
 26 50  1  0
 27 51  1  0
 28 52  1  0
M  ISO  8  30  14  31  14  32  14  33   8  34   8  35   8  36   8  37   8
M  ISO  8  38  13  39  13  40  13  41  13  42  14  43  14  46   8  47   8
M  ISO  4  49  14  50  14  51  14  52  14
M  END
>  <minimizedAffinity>  (1) 
-5.25843906

>  <minimizedRMSD>  (1) 
1.50635111

$$$$
