
     RDKit          3D

 46 48  0  0  1  0  0  0  0  0999 V2000
   43.6620   33.8650   41.0590 C   0  0  1  0  0  0  0  0  0  0  0  0
   42.4850   34.6920   40.6860 C   0  0  0  0  0  0  0  0  0  0  0  0
   42.2730   34.7950   39.3400 C   0  0  0  0  0  0  0  0  0  0  0  0
   41.1910   35.5600   38.8740 C   0  0  0  0  0  0  0  0  0  0  0  0
   40.4060   36.1620   39.7690 N   0  0  0  0  0  0  0  0  0  0  0  0
   40.6360   36.0440   41.0900 C   0  0  0  0  0  0  0  0  0  0  0  0
   41.6520   35.3240   41.4900 N   0  0  0  0  0  0  0  0  0  0  0  0
   44.4430   33.5500   39.8000 C   0  0  0  0  0  0  0  0  0  0  0  0
   44.5640   34.7490   41.8880 C   0  0  0  0  0  0  0  0  0  0  0  0
   44.5700   34.3360   43.3240 C   0  0  2  0  0  0  0  0  0  0  0  0
   45.0670   35.2540   44.3490 C   0  0  0  0  0  0  0  0  0  0  0  0
   45.8910   34.0700   43.9400 C   0  0  1  0  0  0  0  0  0  0  0  0
   46.1040   33.1210   44.9980 N   0  0  0  0  0  0  0  0  0  0  0  0
   46.4790   33.3560   46.2560 N   0  0  0  0  0  0  0  0  0  0  0  0
   46.5600   32.2020   46.9290 C   0  0  0  0  0  0  0  0  0  0  0  0
   46.2260   31.2380   46.0530 C   0  0  0  0  0  0  0  0  0  0  0  0
   45.9300   31.8170   44.8050 C   0  0  0  0  0  0  0  0  0  0  0  0
   45.5550   31.0440   43.7250 N   0  0  0  0  0  0  0  0  0  0  0  0
   43.3500   32.5940   41.6960 C   0  0  0  0  0  0  0  0  0  0  0  0
   42.0390   32.2540   42.1290 N   0  0  0  0  0  0  0  0  0  0  0  0
   41.8380   30.8380   42.2400 C   0  0  0  0  0  0  0  0  0  0  0  0
   40.9380   30.1600   41.6800 O   0  0  0  0  0  0  0  0  0  0  0  0
   42.6480   30.0460   43.0100 O   0  0  0  0  0  0  0  0  0  0  0  0
   42.1870   29.1090   43.8880 C   0  0  0  0  0  0  0  0  0  0  0  0
   42.6840   27.9610   43.9690 O   0  0  0  0  0  0  0  0  0  0  0  0
   41.1290   29.5630   44.6590 O   0  0  0  0  0  0  0  0  0  0  0  0
   42.9412   34.2853   38.6303 H   0  0  0  0  0  0  0  0  0  0  0  0
   40.9955   35.6603   37.7962 H   0  0  0  0  0  0  0  0  0  0  0  0
   39.9817   36.5438   41.8195 H   0  0  0  0  0  0  0  0  0  0  0  0
   45.4315   33.1513   40.0718 H   0  0  0  0  0  0  0  0  0  0  0  0
   43.8964   32.8020   39.2069 H   0  0  0  0  0  0  0  0  0  0  0  0
   44.5683   34.4679   39.2069 H   0  0  0  0  0  0  0  0  0  0  0  0
   45.5887   34.6836   41.4934 H   0  0  0  0  0  0  0  0  0  0  0  0
   44.1851   35.7799   41.8280 H   0  0  0  0  0  0  0  0  0  0  0  0
   43.6283   33.7802   43.2048 H   0  0  0  0  0  0  0  0  0  0  0  0
   45.3863   36.2690   44.0701 H   0  0  0  0  0  0  0  0  0  0  0  0
   44.6780   35.6386   45.3034 H   0  0  0  0  0  0  0  0  0  0  0  0
   46.8680   33.8366   43.4917 H   0  0  0  0  0  0  0  0  0  0  0  0
   46.8423   32.0692   47.9838 H   0  0  0  0  0  0  0  0  0  0  0  0
   46.1897   30.1618   46.2775 H   0  0  0  0  0  0  0  0  0  0  0  0
   45.4885   30.0208   43.8224 H   0  0  0  0  0  0  0  0  0  0  0  0
   45.3416   31.4903   42.8216 H   0  0  0  0  0  0  0  0  0  0  0  0
   43.6464   31.8134   40.9798 H   0  0  0  0  0  0  0  0  0  0  0  0
   43.8847   32.6861   42.6529 H   0  0  0  0  0  0  0  0  0  0  0  0
   41.3106   32.9508   42.3406 H   0  0  0  0  0  0  0  0  0  0  0  0
   40.7144   28.9660   45.3312 H   0  0  0  0  0  0  0  0  0  0  0  0
  1  8  1  6
  1 19  1  0
  1  9  1  0
  2  1  1  0
  2  7  1  0
  3  2  2  0
  4  3  1  0
  4  5  2  0
  5  6  1  0
  6  7  2  0
  9 10  1  0
 10 12  1  0
 10 11  1  0
 12 11  1  0
 12 13  1  0
 13 14  1  0
 14 15  2  0
 16 15  1  0
 17 13  1  0
 17 16  2  0
 18 17  1  0
 19 20  1  0
 20 21  1  0
 21 23  1  0
 22 21  2  0
 23 24  1  0
 24 25  2  0
 24 26  1  0
  3 27  1  0
  4 28  1  0
  6 29  1  0
  8 30  1  0
  8 31  1  0
  8 32  1  0
  9 33  1  0
  9 34  1  0
 10 35  1  1
 11 36  1  0
 11 37  1  0
 12 38  1  6
 15 39  1  0
 16 40  1  0
 18 41  1  0
 18 42  1  0
 19 43  1  0
 19 44  1  0
 20 45  1  0
 26 46  1  0
M  ISO  8  27  14  28  14  29  14  30   8  31   8  32   8  33   8  34   8
M  ISO  8  35  13  36  13  37  13  38  13  39  14  40  14  43   8  44   8
M  ISO  1  46   3
M  END
>  <minimizedAffinity>  (1) 
-4.74674702

>  <minimizedRMSD>  (1) 
1.06436253

$$$$
