
     RDKit          3D

 13 13  0  0  0  0  0  0  0  0999 V2000
   45.4330   34.7830   44.4890 C   0  0  0  0  0  0  0  0  0  0  0  0
   46.3790   34.2730   43.5860 C   0  0  0  0  0  0  0  0  0  0  0  0
   47.1390   33.1910   43.9980 C   0  0  0  0  0  0  0  0  0  0  0  0
   46.9370   32.6700   45.2570 N   0  0  0  0  0  0  0  0  0  0  0  0
   46.0170   33.1940   46.0890 C   0  0  0  0  0  0  0  0  0  0  0  0
   45.2710   34.2410   45.7110 N   0  0  0  0  0  0  0  0  0  0  0  0
   44.6630   35.9210   44.0040 C   0  0  0  0  0  0  0  0  0  0  0  0
   45.1200   36.8320   43.2690 O   0  0  0  0  0  0  0  0  0  0  0  0
   48.3690   32.4670   42.9280 S   0  0  0  0  0  0  0  0  0  0  0  0
   46.5118   34.7163   42.5881 H   0  0  0  0  0  0  0  0  0  0  0  0
   45.8764   32.7581   47.0891 H   0  0  0  0  0  0  0  0  0  0  0  0
   43.6064   35.9873   44.3025 H   0  0  0  0  0  0  0  0  0  0  0  0
   49.3516   31.8886   43.6876 H   0  0  0  0  0  0  0  0  0  0  0  0
  1  6  2  0
  2  3  2  0
  2  1  1  0
  3  4  1  0
  4  5  2  0
  6  5  1  0
  7  1  1  0
  8  7  2  0
  9  3  1  0
  2 10  1  0
  5 11  1  0
  7 12  1  0
  9 13  1  0
M  ISO  4  10  14  11  14  12   6  13  11
M  END
>  <minimizedAffinity>  (1) 
-2.99188519

>  <minimizedRMSD>  (1) 
1.73994052

$$$$
