
     RDKit          3D

 18 19  0  0  0  0  0  0  0  0999 V2000
   45.6170   33.7360   44.5810 C   0  0  0  0  0  0  0  0  0  0  0  0
   46.3850   32.7620   43.8880 C   0  0  0  0  0  0  0  0  0  0  0  0
   47.1310   31.8690   44.6600 C   0  0  0  0  0  0  0  0  0  0  0  0
   47.0890   31.9690   46.0240 N   0  0  0  0  0  0  0  0  0  0  0  0
   46.3470   32.9090   46.6530 C   0  0  0  0  0  0  0  0  0  0  0  0
   45.6180   33.7830   45.9330 N   0  0  0  0  0  0  0  0  0  0  0  0
   44.8270   34.6820   43.7480 C   0  0  0  0  0  0  0  0  0  0  0  0
   45.6770   35.7530   43.0600 C   0  0  0  0  0  0  0  0  0  0  0  0
   44.6760   36.0920   44.0960 C   0  0  0  0  0  0  0  0  0  0  0  0
   48.1350   30.6000   43.8810 S   0  0  0  0  0  0  0  0  0  0  0  0
   46.3917   32.7134   42.7891 H   0  0  0  0  0  0  0  0  0  0  0  0
   46.3391   32.9595   47.7518 H   0  0  0  0  0  0  0  0  0  0  0  0
   44.0892   33.9093   43.4862 H   0  0  0  0  0  0  0  0  0  0  0  0
   46.7520   35.8341   43.2786 H   0  0  0  0  0  0  0  0  0  0  0  0
   45.8729   36.0586   42.0216 H   0  0  0  0  0  0  0  0  0  0  0  0
   43.7582   36.6261   43.8090 H   0  0  0  0  0  0  0  0  0  0  0  0
   44.7191   36.6515   45.0421 H   0  0  0  0  0  0  0  0  0  0  0  0
   48.7379   29.8379   44.8467 H   0  0  0  0  0  0  0  0  0  0  0  0
  1  6  1  0
  2  1  2  0
  2  3  1  0
  3  4  2  0
  4  5  1  0
  6  5  2  0
  7  9  1  0
  7  1  1  0
  8  7  1  0
  8  9  1  0
 10  3  1  0
  2 11  1  0
  5 12  1  0
  7 13  1  0
  8 14  1  0
  8 15  1  0
  9 16  1  0
  9 17  1  0
 10 18  1  0
M  ISO  8  11  14  12  14  13  13  14  13  15  13  16  13  17  13  18  11
M  END
>  <minimizedAffinity>  (1) 
-3.03656101

>  <minimizedRMSD>  (1) 
2.91671944

$$$$
