
     RDKit          3D

 12 12  0  0  0  0  0  0  0  0999 V2000
   45.6820   34.7870   44.0050 C   0  0  0  0  0  0  0  0  0  0  0  0
   46.6980   34.2040   43.2230 C   0  0  0  0  0  0  0  0  0  0  0  0
   47.3780   33.1090   43.7370 C   0  0  0  0  0  0  0  0  0  0  0  0
   47.0360   32.6410   44.9810 N   0  0  0  0  0  0  0  0  0  0  0  0
   46.0580   33.2210   45.7070 C   0  0  0  0  0  0  0  0  0  0  0  0
   45.3860   34.2820   45.2290 N   0  0  0  0  0  0  0  0  0  0  0  0
   48.6800   32.3040   42.8190 S   0  0  0  0  0  0  0  0  0  0  0  0
   44.8740   36.1900   43.2440 S   0  0  0  0  0  0  0  0  0  0  0  0
   46.9462   34.6065   42.2298 H   0  0  0  0  0  0  0  0  0  0  0  0
   45.8080   32.8212   46.7008 H   0  0  0  0  0  0  0  0  0  0  0  0
   49.5781   31.7487   43.6919 H   0  0  0  0  0  0  0  0  0  0  0  0
   44.3935   37.0243   44.2187 H   0  0  0  0  0  0  0  0  0  0  0  0
  1  6  2  0
  2  3  2  0
  2  1  1  0
  3  4  1  0
  4  5  2  0
  6  5  1  0
  7  3  1  0
  8  1  1  0
  2  9  1  0
  5 10  1  0
  7 11  1  0
  8 12  1  0
M  ISO  4   9  14  10  14  11  11  12  11
M  END
>  <minimizedAffinity>  (1) 
-2.52881145

>  <minimizedRMSD>  (1) 
1.89419448

$$$$
