
     RDKit          3D

 42 44  0  0  1  0  0  0  0  0999 V2000
   44.5990   35.7900   44.9220 C   0  0  0  0  0  0  0  0  0  0  0  0
   45.1670   35.7220   43.6250 C   0  0  0  0  0  0  0  0  0  0  0  0
   45.9480   34.6120   43.3310 C   0  0  0  0  0  0  0  0  0  0  0  0
   46.1250   33.6580   44.2940 N   0  0  0  0  0  0  0  0  0  0  0  0
   45.5670   33.7670   45.5030 C   0  0  0  0  0  0  0  0  0  0  0  0
   44.8130   34.8220   45.8100 N   0  0  0  0  0  0  0  0  0  0  0  0
   45.7840   32.7280   46.5070 N   0  0  0  0  0  0  0  0  0  0  0  0
   45.1740   32.8350   47.8170 C   0  0  0  0  0  0  0  0  0  0  0  0
   46.0480   32.2900   48.9060 C   0  0  0  0  0  0  0  0  0  0  0  0
   47.4540   32.1520   48.4060 C   0  0  0  0  0  0  0  0  0  0  0  0
   47.4140   31.0860   47.3140 C   0  0  0  0  0  0  0  0  0  0  0  0
   46.6230   31.5940   46.1620 C   0  0  1  0  0  0  0  0  0  0  0  0
   45.8410   30.5270   45.4630 C   0  0  0  0  0  0  0  0  0  0  0  0
   45.8600   30.1920   44.1730 N   0  0  0  0  0  0  0  0  0  0  0  0
   45.0560   29.2030   43.9200 O   0  0  0  0  0  0  0  0  0  0  0  0
   44.4900   28.8720   45.0660 C   0  0  0  0  0  0  0  0  0  0  0  0
   44.9480   29.6700   46.0550 N   0  0  0  0  0  0  0  0  0  0  0  0
   43.4860   27.7660   45.2160 C   0  0  0  0  0  0  0  0  0  0  0  0
   43.5710   26.8330   44.0130 C   0  0  0  0  0  0  0  0  0  0  0  0
   42.0680   28.3460   45.1990 C   0  0  0  0  0  0  0  0  0  0  0  0
   43.6510   26.9840   46.4730 C   0  0  0  0  0  0  0  0  0  0  0  0
   43.9744   36.6525   45.1976 H   0  0  0  0  0  0  0  0  0  0  0  0
   44.9963   36.5154   42.8824 H   0  0  0  0  0  0  0  0  0  0  0  0
   46.4156   34.5024   42.3414 H   0  0  0  0  0  0  0  0  0  0  0  0
   44.9713   33.8958   48.0257 H   0  0  0  0  0  0  0  0  0  0  0  0
   44.2488   32.2402   47.8033 H   0  0  0  0  0  0  0  0  0  0  0  0
   46.0316   32.9763   49.7655 H   0  0  0  0  0  0  0  0  0  0  0  0
   45.6729   31.3027   49.2134 H   0  0  0  0  0  0  0  0  0  0  0  0
   47.8076   33.1082   47.9929 H   0  0  0  0  0  0  0  0  0  0  0  0
   48.1423   31.8704   49.2166 H   0  0  0  0  0  0  0  0  0  0  0  0
   48.4386   30.8583   46.9847 H   0  0  0  0  0  0  0  0  0  0  0  0
   46.9467   30.1714   47.7080 H   0  0  0  0  0  0  0  0  0  0  0  0
   47.3728   31.9553   45.4428 H   0  0  0  0  0  0  0  0  0  0  0  0
   43.6657   25.7938   44.3609 H   0  0  0  0  0  0  0  0  0  0  0  0
   42.6599   26.9346   43.4051 H   0  0  0  0  0  0  0  0  0  0  0  0
   44.4488   27.0976   43.4051 H   0  0  0  0  0  0  0  0  0  0  0  0
   41.7180   28.4892   46.2320 H   0  0  0  0  0  0  0  0  0  0  0  0
   42.0740   29.3139   44.6764 H   0  0  0  0  0  0  0  0  0  0  0  0
   41.3939   27.6513   44.6764 H   0  0  0  0  0  0  0  0  0  0  0  0
   43.5109   27.6478   47.3389 H   0  0  0  0  0  0  0  0  0  0  0  0
   42.9032   26.1779   46.5042 H   0  0  0  0  0  0  0  0  0  0  0  0
   44.6608   26.5488   46.5042 H   0  0  0  0  0  0  0  0  0  0  0  0
  1  6  2  0
  2  1  1  0
  3  2  2  0
  3  4  1  0
  4  5  2  0
  5  6  1  0
  5  7  1  0
  7  8  1  0
  8  9  1  0
 10  9  1  0
 11 10  1  0
 12  7  1  0
 12 11  1  0
 13 17  1  0
 13 12  1  0
 14 13  2  0
 15 14  1  0
 15 16  1  0
 16 18  1  0
 16 17  2  0
 18 21  1  0
 19 18  1  0
 20 18  1  0
  1 22  1  0
  2 23  1  0
  3 24  1  0
  8 25  1  0
  8 26  1  0
  9 27  1  0
  9 28  1  0
 10 29  1  0
 10 30  1  0
 11 31  1  0
 11 32  1  0
 12 33  1  6
 19 34  1  0
 19 35  1  0
 19 36  1  0
 20 37  1  0
 20 38  1  0
 20 39  1  0
 21 40  1  0
 21 41  1  0
 21 42  1  0
M  ISO  8  22  14  23  14  24  14  25  13  26  13  27  13  28  13  29  13
M  ISO  8  30  13  31  13  32  13  33  13  34   8  35   8  36   8  37   8
M  ISO  5  38   8  39   8  40   8  41   8  42   8
M  END
>  <minimizedAffinity>  (1) 
-5.43216276

>  <minimizedRMSD>  (1) 
0.266343713

$$$$
