
     RDKit          3D

 20 20  0  0  0  0  0  0  0  0999 V2000
   46.1060   35.0330   43.1180 C   0  0  0  0  0  0  0  0  0  0  0  0
   46.4440   33.9950   44.0300 C   0  0  0  0  0  0  0  0  0  0  0  0
   45.7690   33.9660   45.2540 C   0  0  0  0  0  0  0  0  0  0  0  0
   44.8260   34.9240   45.5180 N   0  0  0  0  0  0  0  0  0  0  0  0
   44.5340   35.8950   44.6230 C   0  0  0  0  0  0  0  0  0  0  0  0
   45.1730   35.9460   43.4310 N   0  0  0  0  0  0  0  0  0  0  0  0
   46.8370   35.0390   41.8290 C   0  0  0  0  0  0  0  0  0  0  0  0
   48.3190   34.8820   42.1760 C   0  0  0  0  0  0  0  0  0  0  0  0
   46.4150   33.9640   40.8820 C   0  0  0  0  0  0  0  0  0  0  0  0
   46.1260   32.7010   46.4610 S   0  0  0  0  0  0  0  0  0  0  0  0
   47.2078   33.2434   43.7816 H   0  0  0  0  0  0  0  0  0  0  0  0
   43.7711   36.6493   44.8658 H   0  0  0  0  0  0  0  0  0  0  0  0
   46.6177   35.9796   41.3026 H   0  0  0  0  0  0  0  0  0  0  0  0
   48.4402   34.8692   43.2692 H   0  0  0  0  0  0  0  0  0  0  0  0
   48.6964   33.9388   41.7541 H   0  0  0  0  0  0  0  0  0  0  0  0
   48.8857   35.7251   41.7541 H   0  0  0  0  0  0  0  0  0  0  0  0
   46.0711   33.0880   41.4515 H   0  0  0  0  0  0  0  0  0  0  0  0
   45.5955   34.3343   40.2485 H   0  0  0  0  0  0  0  0  0  0  0  0
   47.2676   33.6779   40.2485 H   0  0  0  0  0  0  0  0  0  0  0  0
   45.9801   33.2181   47.7213 H   0  0  0  0  0  0  0  0  0  0  0  0
  1  6  2  0
  1  2  1  0
  2  3  2  0
  3  4  1  0
  3 10  1  0
  5  4  2  0
  6  5  1  0
  7  8  1  0
  7  1  1  0
  9  7  1  0
  2 11  1  0
  5 12  1  0
  7 13  1  0
  8 14  1  0
  8 15  1  0
  8 16  1  0
  9 17  1  0
  9 18  1  0
  9 19  1  0
 10 20  1  0
M  ISO  8  11  14  12  14  13   8  14   8  15   8  16   8  17   8  18   8
M  ISO  2  19   8  20  11
M  END
>  <minimizedAffinity>  (1) 
-3.85394049

>  <minimizedRMSD>  (1) 
3.78428984

$$$$
