
     RDKit          3D

 24 25  0  0  0  0  0  0  0  0999 V2000
   47.6450   33.1720   43.7250 C   0  0  0  0  0  0  0  0  0  0  0  0
   48.0700   34.0000   42.6080 C   0  0  0  0  0  0  0  0  0  0  0  0
   47.7110   33.5360   41.3420 C   0  0  0  0  0  0  0  0  0  0  0  0
   48.0570   34.2420   40.2110 C   0  0  0  0  0  0  0  0  0  0  0  0
   48.7580   35.4010   40.3880 N   0  0  0  0  0  0  0  0  0  0  0  0
   49.0970   35.8350   41.6190 C   0  0  0  0  0  0  0  0  0  0  0  0
   48.7590   35.1480   42.7120 N   0  0  0  0  0  0  0  0  0  0  0  0
   47.6310   33.7000   38.5760 S   0  0  0  0  0  0  0  0  0  0  0  0
   46.1580   32.9510   43.7130 C   0  0  0  0  0  0  0  0  0  0  0  0
   45.4820   34.0760   44.4630 C   0  0  0  0  0  0  0  0  0  0  0  0
   45.0080   35.1940   43.8050 C   0  0  0  0  0  0  0  0  0  0  0  0
   44.4480   36.0290   44.7720 C   0  0  0  0  0  0  0  0  0  0  0  0
   44.6170   35.3660   45.9460 N   0  0  0  0  0  0  0  0  0  0  0  0
   45.2320   34.2050   45.7600 N   0  0  0  0  0  0  0  0  0  0  0  0
   48.1516   32.1977   43.6607 H   0  0  0  0  0  0  0  0  0  0  0  0
   47.9092   33.6901   44.6587 H   0  0  0  0  0  0  0  0  0  0  0  0
   47.1460   32.5970   41.2462 H   0  0  0  0  0  0  0  0  0  0  0  0
   49.6626   36.7726   41.7241 H   0  0  0  0  0  0  0  0  0  0  0  0
   46.7859   32.6248   38.6570 H   0  0  0  0  0  0  0  0  0  0  0  0
   45.7972   32.9326   42.6740 H   0  0  0  0  0  0  0  0  0  0  0  0
   45.9232   31.9912   44.1964 H   0  0  0  0  0  0  0  0  0  0  0  0
   45.0619   35.3890   42.7238 H   0  0  0  0  0  0  0  0  0  0  0  0
   43.9735   37.0094   44.6179 H   0  0  0  0  0  0  0  0  0  0  0  0
   44.3074   35.7193   46.8627 H   0  0  0  0  0  0  0  0  0  0  0  0
  2  7  1  0
  2  1  1  0
  3  2  2  0
  4  5  2  0
  4  3  1  0
  5  6  1  0
  6  7  2  0
  8  4  1  0
  9  1  1  0
  9 10  1  0
 10 14  2  0
 11 10  1  0
 11 12  2  0
 12 13  1  0
 14 13  1  0
  1 15  1  0
  1 16  1  0
  3 17  1  0
  6 18  1  0
  8 19  1  0
  9 20  1  0
  9 21  1  0
 11 22  1  0
 12 23  1  0
 13 24  1  0
M  ISO  8  15   8  16   8  17  14  18  14  19  11  20   8  21   8  22  14
M  ISO  2  23  14  24   9
M  END
>  <minimizedAffinity>  (1) 
-4.37294722

>  <minimizedRMSD>  (1) 
4.60882187

$$$$
