
     RDKit          3D

 25 26  0  0  0  0  0  0  0  0999 V2000
   46.9200   34.8860   42.7570 C   0  0  0  0  0  0  0  0  0  0  0  0
   45.6870   34.1840   42.4000 C   0  0  0  0  0  0  0  0  0  0  0  0
   44.8940   34.8330   41.4530 C   0  0  0  0  0  0  0  0  0  0  0  0
   43.7150   34.2300   41.0610 C   0  0  0  0  0  0  0  0  0  0  0  0
   43.3760   33.0330   41.6110 N   0  0  0  0  0  0  0  0  0  0  0  0
   44.1800   32.4260   42.5370 C   0  0  0  0  0  0  0  0  0  0  0  0
   45.3110   33.0020   42.9150 N   0  0  0  0  0  0  0  0  0  0  0  0
   42.6180   34.9500   39.8730 S   0  0  0  0  0  0  0  0  0  0  0  0
   47.7840   35.1180   41.5450 C   0  0  0  0  0  0  0  0  0  0  0  0
   48.8460   34.0750   41.4750 C   0  0  0  0  0  0  0  0  0  0  0  0
   48.8530   32.9810   40.6360 C   0  0  0  0  0  0  0  0  0  0  0  0
   49.8880   32.0680   40.6460 C   0  0  0  0  0  0  0  0  0  0  0  0
   50.8920   32.2970   41.5160 N   0  0  0  0  0  0  0  0  0  0  0  0
   50.8720   33.3840   42.3400 C   0  0  0  0  0  0  0  0  0  0  0  0
   49.8660   34.2760   42.3340 N   0  0  0  0  0  0  0  0  0  0  0  0
   46.6633   35.8568   43.2060 H   0  0  0  0  0  0  0  0  0  0  0  0
   47.4806   34.2650   43.4712 H   0  0  0  0  0  0  0  0  0  0  0  0
   45.2003   35.8008   41.0292 H   0  0  0  0  0  0  0  0  0  0  0  0
   43.8863   31.4576   42.9683 H   0  0  0  0  0  0  0  0  0  0  0  0
   41.6102   35.6114   40.5240 H   0  0  0  0  0  0  0  0  0  0  0  0
   47.1627   35.0680   40.6386 H   0  0  0  0  0  0  0  0  0  0  0  0
   48.2535   36.1101   41.6182 H   0  0  0  0  0  0  0  0  0  0  0  0
   48.0130   32.8321   39.9415 H   0  0  0  0  0  0  0  0  0  0  0  0
   49.8934   31.1954   39.9763 H   0  0  0  0  0  0  0  0  0  0  0  0
   51.7105   33.5365   43.0355 H   0  0  0  0  0  0  0  0  0  0  0  0
  2  1  1  0
  2  7  1  0
  3  2  2  0
  4  3  1  0
  4  5  2  0
  5  6  1  0
  6  7  2  0
  8  4  1  0
  9  1  1  0
 10  9  1  0
 10 15  2  0
 11 12  2  0
 11 10  1  0
 12 13  1  0
 13 14  2  0
 15 14  1  0
  1 16  1  0
  1 17  1  0
  3 18  1  0
  6 19  1  0
  8 20  1  0
  9 21  1  0
  9 22  1  0
 11 23  1  0
 12 24  1  0
 14 25  1  0
M  ISO  8  16   8  17   8  18  14  19  14  20  11  21   8  22   8  23  14
M  ISO  2  24  14  25  14
M  END
>  <minimizedAffinity>  (1) 
-3.80323124

>  <minimizedRMSD>  (1) 
6.51403189

$$$$
