
     RDKit          3D

 19 19  0  0  0  0  0  0  0  0999 V2000
   45.4780   34.1820   45.3790 C   0  0  0  0  0  0  0  0  0  0  0  0
   46.2910   33.9160   44.2770 C   0  0  0  0  0  0  0  0  0  0  0  0
   47.1450   32.8270   44.3030 C   0  0  0  0  0  0  0  0  0  0  0  0
   47.1550   32.0390   45.4360 N   0  0  0  0  0  0  0  0  0  0  0  0
   46.3490   32.3270   46.4910 C   0  0  0  0  0  0  0  0  0  0  0  0
   45.5260   33.3820   46.4590 N   0  0  0  0  0  0  0  0  0  0  0  0
   44.6330   35.3560   45.2170 C   0  0  0  0  0  0  0  0  0  0  0  0
   44.5880   35.8490   43.7750 C   0  0  0  0  0  0  0  0  0  0  0  0
   44.8800   37.2430   43.6460 N   0  0  0  0  0  0  0  0  0  0  0  0
   48.2140   32.4120   42.9510 S   0  0  0  0  0  0  0  0  0  0  0  0
   46.2536   34.5683   43.3920 H   0  0  0  0  0  0  0  0  0  0  0  0
   46.3731   31.6845   47.3835 H   0  0  0  0  0  0  0  0  0  0  0  0
   43.6111   35.1016   45.5348 H   0  0  0  0  0  0  0  0  0  0  0  0
   45.0593   36.1619   45.8324 H   0  0  0  0  0  0  0  0  0  0  0  0
   45.3257   35.2817   43.1886 H   0  0  0  0  0  0  0  0  0  0  0  0
   43.5621   35.6951   43.4092 H   0  0  0  0  0  0  0  0  0  0  0  0
   44.9681   37.6634   44.5822 H   0  0  0  0  0  0  0  0  0  0  0  0
   45.7642   37.3624   43.1315 H   0  0  0  0  0  0  0  0  0  0  0  0
   49.4076   31.9486   43.4382 H   0  0  0  0  0  0  0  0  0  0  0  0
  1  6  2  0
  2  3  2  0
  2  1  1  0
  3  4  1  0
  4  5  2  0
  6  5  1  0
  7  1  1  0
  8  7  1  0
  9  8  1  0
 10  3  1  0
  2 11  1  0
  5 12  1  0
  7 13  1  0
  7 14  1  0
  8 15  1  0
  8 16  1  0
  9 17  1  0
  9 18  1  0
 10 19  1  0
M  ISO  8  11  14  12  14  13   8  14   8  15   8  16   8  17   5  18   5
M  ISO  1  19  11
M  END
>  <minimizedAffinity>  (1) 
-3.4006393

>  <minimizedRMSD>  (1) 
0.775938988

$$$$
