
     RDKit          3D

 43 46  0  0  1  0  0  0  0  0999 V2000
   47.0070   33.8200   43.7810 N   0  0  0  0  0  0  0  0  0  0  0  0
   48.3250   33.7740   43.1380 C   0  0  0  0  0  0  0  0  0  0  0  0
   48.2240   32.8440   41.9790 C   0  0  0  0  0  0  0  0  0  0  0  0
   46.8070   33.0130   41.5350 C   0  0  0  0  0  0  0  0  0  0  0  0
   46.0660   33.3860   42.7620 C   0  0  2  0  0  0  0  0  0  0  0  0
   45.0040   34.3380   42.4550 C   0  0  0  0  0  0  0  0  0  0  0  0
   45.0590   35.7130   42.7080 C   0  0  0  0  0  0  0  0  0  0  0  0
   43.9300   36.3070   42.3170 N   0  0  0  0  0  0  0  0  0  0  0  0
   43.0800   35.4090   41.8000 C   0  0  0  0  0  0  0  0  0  0  0  0
   41.8290   35.4700   41.2680 C   0  0  0  0  0  0  0  0  0  0  0  0
   41.1500   34.3690   40.7900 C   0  0  0  0  0  0  0  0  0  0  0  0
   41.8370   33.1810   40.8910 C   0  0  0  0  0  0  0  0  0  0  0  0
   43.1040   33.0910   41.4250 C   0  0  0  0  0  0  0  0  0  0  0  0
   43.7560   34.1970   41.8920 C   0  0  0  0  0  0  0  0  0  0  0  0
   46.9900   32.8720   44.8890 C   0  0  0  0  0  0  0  0  0  0  0  0
   46.0550   33.4170   45.9470 C   0  0  0  0  0  0  0  0  0  0  0  0
   46.0610   32.5910   47.1430 C   0  0  0  0  0  0  0  0  0  0  0  0
   47.3030   32.1940   47.6070 C   0  0  0  0  0  0  0  0  0  0  0  0
   47.4530   31.4050   48.7390 C   0  0  0  0  0  0  0  0  0  0  0  0
   46.2960   31.0310   49.3850 N   0  0  0  0  0  0  0  0  0  0  0  0
   45.0840   31.4220   48.9280 C   0  0  0  0  0  0  0  0  0  0  0  0
   44.9680   32.1890   47.8250 N   0  0  0  0  0  0  0  0  0  0  0  0
   49.0110   30.8750   49.3750 S   0  0  0  0  0  0  0  0  0  0  0  0
   48.6088   34.7783   42.7904 H   0  0  0  0  0  0  0  0  0  0  0  0
   49.0910   33.4279   43.8476 H   0  0  0  0  0  0  0  0  0  0  0  0
   48.9251   33.1293   41.1809 H   0  0  0  0  0  0  0  0  0  0  0  0
   48.4774   31.8044   42.2340 H   0  0  0  0  0  0  0  0  0  0  0  0
   46.7303   33.8088   40.7794 H   0  0  0  0  0  0  0  0  0  0  0  0
   46.4065   32.0999   41.0704 H   0  0  0  0  0  0  0  0  0  0  0  0
   45.5429   32.5146   43.1828 H   0  0  0  0  0  0  0  0  0  0  0  0
   45.9141   36.2321   43.1656 H   0  0  0  0  0  0  0  0  0  0  0  0
   43.7384   37.3155   42.4009 H   0  0  0  0  0  0  0  0  0  0  0  0
   41.3326   36.4503   41.2165 H   0  0  0  0  0  0  0  0  0  0  0  0
   40.1390   34.4352   40.3618 H   0  0  0  0  0  0  0  0  0  0  0  0
   41.3530   32.2619   40.5292 H   0  0  0  0  0  0  0  0  0  0  0  0
   43.5997   32.1104   41.4762 H   0  0  0  0  0  0  0  0  0  0  0  0
   46.6299   31.8933   44.5391 H   0  0  0  0  0  0  0  0  0  0  0  0
   48.0021   32.7414   45.2997 H   0  0  0  0  0  0  0  0  0  0  0  0
   46.3736   34.4352   46.2148 H   0  0  0  0  0  0  0  0  0  0  0  0
   45.0347   33.4200   45.5360 H   0  0  0  0  0  0  0  0  0  0  0  0
   48.2019   32.5147   47.0600 H   0  0  0  0  0  0  0  0  0  0  0  0
   44.1771   31.1086   49.4658 H   0  0  0  0  0  0  0  0  0  0  0  0
   48.9735   30.8878   50.7444 H   0  0  0  0  0  0  0  0  0  0  0  0
  1 15  1  0
  2  1  1  0
  3  2  1  0
  4  3  1  0
  4  5  1  0
  5  1  1  0
  6  7  2  0
  6  5  1  0
  8  7  1  0
  9 14  2  0
  9  8  1  0
 10  9  1  0
 11 12  1  0
 11 10  2  0
 12 13  2  0
 13 14  1  0
 14  6  1  0
 15 16  1  0
 16 17  1  0
 17 18  2  0
 17 22  1  0
 18 19  1  0
 19 23  1  0
 19 20  2  0
 21 20  1  0
 22 21  2  0
  2 24  1  0
  2 25  1  0
  3 26  1  0
  3 27  1  0
  4 28  1  0
  4 29  1  0
  5 30  1  1
  7 31  1  0
  8 32  1  0
 10 33  1  0
 11 34  1  0
 12 35  1  0
 13 36  1  0
 15 37  1  0
 15 38  1  0
 16 39  1  0
 16 40  1  0
 18 41  1  0
 21 42  1  0
 23 43  1  0
M  ISO  8  24  13  25  13  26  13  27  13  28  13  29  13  30  13  31  14
M  ISO  8  32   9  33  14  34  14  35  14  36  14  37   8  38   8  39   8
M  ISO  4  40   8  41  14  42  14  43  11
M  END
>  <minimizedAffinity>  (1) 
-5.90152597

>  <minimizedRMSD>  (1) 
1.47337592

$$$$
