
     RDKit          3D

 42 45  0  0  1  0  0  0  0  0999 V2000
   46.4920   34.8110   42.6650 N   0  0  0  0  0  0  0  0  0  0  0  0
   47.7330   35.3850   42.1330 C   0  0  0  0  0  0  0  0  0  0  0  0
   48.1450   34.5590   40.9630 C   0  0  0  0  0  0  0  0  0  0  0  0
   46.8330   34.0920   40.4010 C   0  0  0  0  0  0  0  0  0  0  0  0
   45.8970   34.0700   41.5730 C   0  0  2  0  0  0  0  0  0  0  0  0
   44.5690   34.5590   41.2190 N   0  0  0  0  0  0  0  0  0  0  0  0
   43.8890   35.5780   41.7870 C   0  0  0  0  0  0  0  0  0  0  0  0
   42.6870   35.7520   41.2030 N   0  0  0  0  0  0  0  0  0  0  0  0
   42.5910   34.8230   40.2350 C   0  0  0  0  0  0  0  0  0  0  0  0
   41.6040   34.5030   39.3030 C   0  0  0  0  0  0  0  0  0  0  0  0
   41.8310   33.4860   38.4490 N   0  0  0  0  0  0  0  0  0  0  0  0
   42.9700   32.7790   38.4740 C   0  0  0  0  0  0  0  0  0  0  0  0
   43.9420   33.0760   39.3740 N   0  0  0  0  0  0  0  0  0  0  0  0
   43.7530   34.0790   40.2350 C   0  0  0  0  0  0  0  0  0  0  0  0
   40.3870   35.2400   39.2600 N   0  0  0  0  0  0  0  0  0  0  0  0
   46.8070   33.8700   43.7450 C   0  0  0  0  0  0  0  0  0  0  0  0
   45.7170   34.0050   44.7840 C   0  0  0  0  0  0  0  0  0  0  0  0
   45.9360   33.0820   45.9020 C   0  0  0  0  0  0  0  0  0  0  0  0
   46.8210   32.0290   45.6600 C   0  0  0  0  0  0  0  0  0  0  0  0
   47.1030   31.0980   46.6430 C   0  0  0  0  0  0  0  0  0  0  0  0
   46.4660   31.2660   47.8670 N   0  0  0  0  0  0  0  0  0  0  0  0
   45.6160   32.2870   48.0800 C   0  0  0  0  0  0  0  0  0  0  0  0
   45.3460   33.1890   47.1210 N   0  0  0  0  0  0  0  0  0  0  0  0
   48.2120   29.7420   46.4050 S   0  0  0  0  0  0  0  0  0  0  0  0
   47.5603   36.4242   41.8165 H   0  0  0  0  0  0  0  0  0  0  0  0
   48.5195   35.3858   42.9020 H   0  0  0  0  0  0  0  0  0  0  0  0
   48.6977   35.1625   40.2279 H   0  0  0  0  0  0  0  0  0  0  0  0
   48.8203   33.7332   41.2314 H   0  0  0  0  0  0  0  0  0  0  0  0
   46.4720   34.7891   39.6304 H   0  0  0  0  0  0  0  0  0  0  0  0
   46.9162   33.1068   39.9190 H   0  0  0  0  0  0  0  0  0  0  0  0
   45.7466   33.0300   41.8984 H   0  0  0  0  0  0  0  0  0  0  0  0
   44.2679   36.1882   42.6201 H   0  0  0  0  0  0  0  0  0  0  0  0
   43.1176   31.9540   37.7615 H   0  0  0  0  0  0  0  0  0  0  0  0
   39.6625   34.9980   38.5690 H   0  0  0  0  0  0  0  0  0  0  0  0
   40.2308   36.0153   39.9199 H   0  0  0  0  0  0  0  0  0  0  0  0
   46.8310   32.8419   43.3547 H   0  0  0  0  0  0  0  0  0  0  0  0
   47.7928   34.0898   44.1808 H   0  0  0  0  0  0  0  0  0  0  0  0
   45.7104   35.0366   45.1658 H   0  0  0  0  0  0  0  0  0  0  0  0
   44.7534   33.7608   44.3131 H   0  0  0  0  0  0  0  0  0  0  0  0
   47.3003   31.9389   44.6740 H   0  0  0  0  0  0  0  0  0  0  0  0
   45.1306   32.3858   49.0622 H   0  0  0  0  0  0  0  0  0  0  0  0
   48.6086   29.2571   47.6234 H   0  0  0  0  0  0  0  0  0  0  0  0
  1 16  1  0
  2  1  1  0
  3  2  1  0
  4  3  1  0
  4  5  1  0
  5  1  1  0
  6  5  1  0
  6  7  1  0
  8  7  2  0
  9 14  2  0
  9  8  1  0
 10  9  1  0
 11 12  1  0
 11 10  2  0
 12 13  2  0
 13 14  1  0
 14  6  1  0
 15 10  1  0
 16 17  1  0
 17 18  1  0
 18 23  1  0
 19 18  2  0
 19 20  1  0
 20 21  2  0
 21 22  1  0
 23 22  2  0
 24 20  1  0
  2 25  1  0
  2 26  1  0
  3 27  1  0
  3 28  1  0
  4 29  1  0
  4 30  1  0
  5 31  1  1
  7 32  1  0
 12 33  1  0
 15 34  1  0
 15 35  1  0
 16 36  1  0
 16 37  1  0
 17 38  1  0
 17 39  1  0
 19 40  1  0
 22 41  1  0
 24 42  1  0
M  ISO  8  25  13  26  13  27  13  28  13  29  13  30  13  31  13  32  14
M  ISO  8  33  14  36   8  37   8  38   8  39   8  40  14  41  14  42  11
M  END
>  <minimizedAffinity>  (1) 
-5.60912848

>  <minimizedRMSD>  (1) 
1.2553426

$$$$
