
     RDKit          3D

 40 43  0  0  1  0  0  0  0  0999 V2000
   46.6040   34.8270   42.6430 N   0  0  0  0  0  0  0  0  0  0  0  0
   47.8670   35.3630   42.1420 C   0  0  0  0  0  0  0  0  0  0  0  0
   48.2780   34.5400   40.9550 C   0  0  0  0  0  0  0  0  0  0  0  0
   46.9480   34.1690   40.3620 C   0  0  0  0  0  0  0  0  0  0  0  0
   46.0060   34.1170   41.5190 C   0  0  2  0  0  0  0  0  0  0  0  0
   44.6650   34.5880   41.2160 N   0  0  0  0  0  0  0  0  0  0  0  0
   43.9960   35.5950   41.8090 C   0  0  0  0  0  0  0  0  0  0  0  0
   42.7810   35.7350   41.2580 N   0  0  0  0  0  0  0  0  0  0  0  0
   42.6280   34.8310   40.2980 C   0  0  0  0  0  0  0  0  0  0  0  0
   41.6950   34.4210   39.3750 C   0  0  0  0  0  0  0  0  0  0  0  0
   41.8470   33.4240   38.4980 N   0  0  0  0  0  0  0  0  0  0  0  0
   43.0250   32.7470   38.5100 C   0  0  0  0  0  0  0  0  0  0  0  0
   43.9860   33.0850   39.3800 N   0  0  0  0  0  0  0  0  0  0  0  0
   43.8120   34.1050   40.2670 C   0  0  0  0  0  0  0  0  0  0  0  0
   46.8700   33.8890   43.7160 C   0  0  0  0  0  0  0  0  0  0  0  0
   45.7590   34.0080   44.7280 C   0  0  0  0  0  0  0  0  0  0  0  0
   45.9610   33.0900   45.8610 C   0  0  0  0  0  0  0  0  0  0  0  0
   46.8360   32.0350   45.6320 C   0  0  0  0  0  0  0  0  0  0  0  0
   47.1040   31.1110   46.6160 C   0  0  0  0  0  0  0  0  0  0  0  0
   46.4720   31.2760   47.8350 N   0  0  0  0  0  0  0  0  0  0  0  0
   45.6210   32.3150   48.0380 C   0  0  0  0  0  0  0  0  0  0  0  0
   45.3550   33.2220   47.0750 N   0  0  0  0  0  0  0  0  0  0  0  0
   48.1980   29.7460   46.3950 S   0  0  0  0  0  0  0  0  0  0  0  0
   47.7347   36.4128   41.8414 H   0  0  0  0  0  0  0  0  0  0  0  0
   48.6391   35.3202   42.9243 H   0  0  0  0  0  0  0  0  0  0  0  0
   48.8810   35.1294   40.2486 H   0  0  0  0  0  0  0  0  0  0  0  0
   48.9087   33.6755   41.2095 H   0  0  0  0  0  0  0  0  0  0  0  0
   46.6244   34.9281   39.6346 H   0  0  0  0  0  0  0  0  0  0  0  0
   46.9905   33.2114   39.8224 H   0  0  0  0  0  0  0  0  0  0  0  0
   45.8580   33.0598   41.7845 H   0  0  0  0  0  0  0  0  0  0  0  0
   44.3897   36.2144   42.6284 H   0  0  0  0  0  0  0  0  0  0  0  0
   40.7375   34.9622   39.3567 H   0  0  0  0  0  0  0  0  0  0  0  0
   43.1899   31.9198   37.8040 H   0  0  0  0  0  0  0  0  0  0  0  0
   46.9022   32.8647   43.3164 H   0  0  0  0  0  0  0  0  0  0  0  0
   47.8392   34.1123   44.1859 H   0  0  0  0  0  0  0  0  0  0  0  0
   45.7285   35.0407   45.1057 H   0  0  0  0  0  0  0  0  0  0  0  0
   44.8123   33.7437   44.2341 H   0  0  0  0  0  0  0  0  0  0  0  0
   47.3215   31.9370   44.6498 H   0  0  0  0  0  0  0  0  0  0  0  0
   45.1333   32.4204   49.0183 H   0  0  0  0  0  0  0  0  0  0  0  0
   48.5826   29.2661   47.6192 H   0  0  0  0  0  0  0  0  0  0  0  0
  1 15  1  0
  2  1  1  0
  3  2  1  0
  4  3  1  0
  4  5  1  0
  5  1  1  0
  6  5  1  0
  6  7  1  0
  8  7  2  0
  9  8  1  0
 10  9  2  0
 11 12  2  0
 11 10  1  0
 12 13  1  0
 13 14  2  0
 14  9  1  0
 14  6  1  0
 15 16  1  0
 16 17  1  0
 17 22  1  0
 18 17  2  0
 18 19  1  0
 19 20  2  0
 20 21  1  0
 22 21  2  0
 23 19  1  0
  2 24  1  0
  2 25  1  0
  3 26  1  0
  3 27  1  0
  4 28  1  0
  4 29  1  0
  5 30  1  1
  7 31  1  0
 10 32  1  0
 12 33  1  0
 15 34  1  0
 15 35  1  0
 16 36  1  0
 16 37  1  0
 18 38  1  0
 21 39  1  0
 23 40  1  0
M  ISO  8  24  13  25  13  26  13  27  13  28  13  29  13  30  13  31  14
M  ISO  8  32  14  33  14  34   8  35   8  36   8  37   8  38  14  39  14
M  ISO  1  40  11
M  END
>  <minimizedAffinity>  (1) 
-5.35111713

>  <minimizedRMSD>  (1) 
1.37339461

$$$$
