
     RDKit          3D

 37 39  0  0  1  0  0  0  0  0999 V2000
   46.6390   34.7460   42.5360 N   0  0  0  0  0  0  0  0  0  0  0  0
   47.8190   35.5190   42.1510 C   0  0  0  0  0  0  0  0  0  0  0  0
   48.4950   34.7850   41.0370 C   0  0  0  0  0  0  0  0  0  0  0  0
   47.3490   34.1310   40.3220 C   0  0  0  0  0  0  0  0  0  0  0  0
   46.3170   33.9310   41.3730 C   0  0  2  0  0  0  0  0  0  0  0  0
   44.9330   34.2850   40.9460 C   0  0  0  0  0  0  0  0  0  0  0  0
   44.2160   35.2200   41.6650 C   0  0  0  0  0  0  0  0  0  0  0  0
   42.9170   35.5580   41.2700 C   0  0  0  0  0  0  0  0  0  0  0  0
   42.3250   34.9950   40.1900 N   0  0  0  0  0  0  0  0  0  0  0  0
   43.0660   34.0840   39.5160 C   0  0  0  0  0  0  0  0  0  0  0  0
   44.3360   33.7190   39.8580 N   0  0  0  0  0  0  0  0  0  0  0  0
   46.9850   33.8520   43.6400 C   0  0  0  0  0  0  0  0  0  0  0  0
   45.9070   34.0280   44.7020 C   0  0  0  0  0  0  0  0  0  0  0  0
   46.0760   33.0610   45.7830 C   0  0  0  0  0  0  0  0  0  0  0  0
   46.9340   32.0010   45.5450 C   0  0  0  0  0  0  0  0  0  0  0  0
   47.1660   31.0350   46.4930 C   0  0  0  0  0  0  0  0  0  0  0  0
   46.5040   31.1630   47.6990 N   0  0  0  0  0  0  0  0  0  0  0  0
   45.6620   32.2050   47.9310 C   0  0  0  0  0  0  0  0  0  0  0  0
   45.4550   33.1330   46.9890 N   0  0  0  0  0  0  0  0  0  0  0  0
   48.2570   29.6620   46.2290 S   0  0  0  0  0  0  0  0  0  0  0  0
   47.5171   36.5208   41.8116 H   0  0  0  0  0  0  0  0  0  0  0  0
   48.5005   35.6367   43.0064 H   0  0  0  0  0  0  0  0  0  0  0  0
   49.0309   35.4795   40.3733 H   0  0  0  0  0  0  0  0  0  0  0  0
   49.2542   34.0696   41.3860 H   0  0  0  0  0  0  0  0  0  0  0  0
   46.9675   34.7826   39.5221 H   0  0  0  0  0  0  0  0  0  0  0  0
   47.6421   33.1867   39.8399 H   0  0  0  0  0  0  0  0  0  0  0  0
   46.3318   32.8544   41.5981 H   0  0  0  0  0  0  0  0  0  0  0  0
   44.6653   35.6988   42.5475 H   0  0  0  0  0  0  0  0  0  0  0  0
   42.3593   36.3042   41.8549 H   0  0  0  0  0  0  0  0  0  0  0  0
   42.6144   33.6062   38.6341 H   0  0  0  0  0  0  0  0  0  0  0  0
   47.0060   32.8092   43.2907 H   0  0  0  0  0  0  0  0  0  0  0  0
   47.9801   34.0898   44.0439 H   0  0  0  0  0  0  0  0  0  0  0  0
   45.9719   35.0452   45.1156 H   0  0  0  0  0  0  0  0  0  0  0  0
   44.9245   33.8643   44.2352 H   0  0  0  0  0  0  0  0  0  0  0  0
   47.4426   31.9308   44.5722 H   0  0  0  0  0  0  0  0  0  0  0  0
   45.1473   32.2859   48.8998 H   0  0  0  0  0  0  0  0  0  0  0  0
   48.6576   29.1579   47.4383 H   0  0  0  0  0  0  0  0  0  0  0  0
  1 12  1  0
  2  1  1  0
  3  2  1  0
  4  3  1  0
  4  5  1  0
  5  1  1  0
  6  5  1  0
  6  7  2  0
  8  7  1  0
  9  8  2  0
 10 11  2  0
 10  9  1  0
 11  6  1  0
 12 13  1  0
 13 14  1  0
 14 19  1  0
 15 14  2  0
 15 16  1  0
 16 17  2  0
 17 18  1  0
 19 18  2  0
 20 16  1  0
  2 21  1  0
  2 22  1  0
  3 23  1  0
  3 24  1  0
  4 25  1  0
  4 26  1  0
  5 27  1  1
  7 28  1  0
  8 29  1  0
 10 30  1  0
 12 31  1  0
 12 32  1  0
 13 33  1  0
 13 34  1  0
 15 35  1  0
 18 36  1  0
 20 37  1  0
M  ISO  8  21  13  22  13  23  13  24  13  25  13  26  13  27  13  28  14
M  ISO  8  29  14  30  14  31   8  32   8  33   8  34   8  35  14  36  14
M  ISO  1  37  11
M  END
>  <minimizedAffinity>  (1) 
-4.86166

>  <minimizedRMSD>  (1) 
1.32726228

$$$$
