
     RDKit          3D

 32 33  0  0  1  0  0  0  0  0999 V2000
   46.6230   33.3290   44.6360 C   0  0  0  0  0  0  0  0  0  0  0  0
   46.5270   34.4930   43.7520 N   0  0  0  0  0  0  0  0  0  0  0  0
   47.6060   34.4530   42.7630 C   0  0  0  0  0  0  0  0  0  0  0  0
   47.0920   33.7730   41.5380 C   0  0  0  0  0  0  0  0  0  0  0  0
   45.6160   34.1040   41.5460 C   0  0  0  0  0  0  0  0  0  0  0  0
   45.3130   34.3840   42.9720 C   0  0  2  0  0  0  0  0  0  0  0  0
   44.6200   35.7400   43.0370 C   0  0  0  0  0  0  0  0  0  0  0  0
   43.8320   35.8500   44.1790 F   0  0  0  0  0  0  0  0  0  0  0  0
   43.8590   35.9800   41.9250 F   0  0  0  0  0  0  0  0  0  0  0  0
   45.5470   36.7800   43.1260 F   0  0  0  0  0  0  0  0  0  0  0  0
   45.7260   33.6060   45.8180 C   0  0  0  0  0  0  0  0  0  0  0  0
   46.0060   32.6960   46.9320 C   0  0  0  0  0  0  0  0  0  0  0  0
   47.0580   31.8040   46.7260 C   0  0  0  0  0  0  0  0  0  0  0  0
   47.4150   30.8990   47.7030 C   0  0  0  0  0  0  0  0  0  0  0  0
   46.6850   30.9230   48.8860 N   0  0  0  0  0  0  0  0  0  0  0  0
   45.6770   31.7910   49.0620 C   0  0  0  0  0  0  0  0  0  0  0  0
   45.3320   32.6700   48.1110 N   0  0  0  0  0  0  0  0  0  0  0  0
   48.7360   29.7390   47.5110 S   0  0  0  0  0  0  0  0  0  0  0  0
   47.6615   33.1930   44.9720 H   0  0  0  0  0  0  0  0  0  0  0  0
   46.3172   32.4101   44.1144 H   0  0  0  0  0  0  0  0  0  0  0  0
   47.9221   35.4771   42.5153 H   0  0  0  0  0  0  0  0  0  0  0  0
   48.4706   33.9056   43.1665 H   0  0  0  0  0  0  0  0  0  0  0  0
   47.2519   32.6862   41.5948 H   0  0  0  0  0  0  0  0  0  0  0  0
   47.6006   34.1011   40.6195 H   0  0  0  0  0  0  0  0  0  0  0  0
   45.4109   34.9870   40.9230 H   0  0  0  0  0  0  0  0  0  0  0  0
   44.9996   33.2902   41.1363 H   0  0  0  0  0  0  0  0  0  0  0  0
   44.6938   33.5670   43.3708 H   0  0  0  0  0  0  0  0  0  0  0  0
   45.8868   34.6412   46.1535 H   0  0  0  0  0  0  0  0  0  0  0  0
   44.6834   33.4531   45.5023 H   0  0  0  0  0  0  0  0  0  0  0  0
   47.6088   31.8226   45.7740 H   0  0  0  0  0  0  0  0  0  0  0  0
   45.1200   31.7808   50.0105 H   0  0  0  0  0  0  0  0  0  0  0  0
   49.1825   29.3469   48.7454 H   0  0  0  0  0  0  0  0  0  0  0  0
  1 11  1  0
  2  1  1  0
  3  2  1  0
  4  5  1  0
  4  3  1  0
  5  6  1  0
  6  7  1  0
  6  2  1  0
  7 10  1  0
  7  8  1  0
  9  7  1  0
 11 12  1  0
 12 17  1  0
 13 12  2  0
 13 14  1  0
 14 15  2  0
 15 16  1  0
 17 16  2  0
 18 14  1  0
  1 19  1  0
  1 20  1  0
  3 21  1  0
  3 22  1  0
  4 23  1  0
  4 24  1  0
  5 25  1  0
  5 26  1  0
  6 27  1  1
 11 28  1  0
 11 29  1  0
 13 30  1  0
 16 31  1  0
 18 32  1  0
M  ISO  8  19   8  20   8  21  13  22  13  23  13  24  13  25  13  26  13
M  ISO  6  27  13  28   8  29   8  30  14  31  14  32  11
M  END
>  <minimizedAffinity>  (1) 
-4.96463776

>  <minimizedRMSD>  (1) 
1.42702377

$$$$
