
     RDKit          3D

 33 35  0  0  1  0  0  0  0  0999 V2000
   44.5930   35.7920   44.9070 C   0  0  0  0  0  0  0  0  0  0  0  0
   45.1740   35.7270   43.6160 C   0  0  0  0  0  0  0  0  0  0  0  0
   45.9610   34.6290   43.3330 C   0  0  0  0  0  0  0  0  0  0  0  0
   46.1410   33.6700   44.2910 N   0  0  0  0  0  0  0  0  0  0  0  0
   45.5650   33.7800   45.5040 C   0  0  0  0  0  0  0  0  0  0  0  0
   44.8000   34.8320   45.8030 N   0  0  0  0  0  0  0  0  0  0  0  0
   45.7810   32.7400   46.5080 N   0  0  0  0  0  0  0  0  0  0  0  0
   45.1680   32.8460   47.8090 C   0  0  0  0  0  0  0  0  0  0  0  0
   46.0430   32.2970   48.9050 C   0  0  0  0  0  0  0  0  0  0  0  0
   47.4460   32.1620   48.4180 C   0  0  0  0  0  0  0  0  0  0  0  0
   47.4250   31.1070   47.3170 C   0  0  0  0  0  0  0  0  0  0  0  0
   46.6220   31.6070   46.1680 C   0  0  1  0  0  0  0  0  0  0  0  0
   45.8530   30.5390   45.4620 C   0  0  0  0  0  0  0  0  0  0  0  0
   45.8430   30.2410   44.1620 N   0  0  0  0  0  0  0  0  0  0  0  0
   45.0620   29.2350   43.9050 O   0  0  0  0  0  0  0  0  0  0  0  0
   44.5420   28.8570   45.0590 C   0  0  0  0  0  0  0  0  0  0  0  0
   45.0050   29.6400   46.0570 N   0  0  0  0  0  0  0  0  0  0  0  0
   43.5740   27.7300   45.2840 C   0  0  0  0  0  0  0  0  0  0  0  0
   43.9599   36.6516   45.1722 H   0  0  0  0  0  0  0  0  0  0  0  0
   45.0049   36.5183   42.8709 H   0  0  0  0  0  0  0  0  0  0  0  0
   46.4383   34.5265   42.3473 H   0  0  0  0  0  0  0  0  0  0  0  0
   44.9646   33.9067   48.0178 H   0  0  0  0  0  0  0  0  0  0  0  0
   44.2420   32.2526   47.7916 H   0  0  0  0  0  0  0  0  0  0  0  0
   46.0205   32.9810   49.7662 H   0  0  0  0  0  0  0  0  0  0  0  0
   45.6680   31.3073   49.2049 H   0  0  0  0  0  0  0  0  0  0  0  0
   47.8027   33.1222   48.0169 H   0  0  0  0  0  0  0  0  0  0  0  0
   48.1231   31.8702   49.2343 H   0  0  0  0  0  0  0  0  0  0  0  0
   48.4536   30.9030   46.9847 H   0  0  0  0  0  0  0  0  0  0  0  0
   46.9750   30.1810   47.7042 H   0  0  0  0  0  0  0  0  0  0  0  0
   47.3700   31.9716   45.4486 H   0  0  0  0  0  0  0  0  0  0  0  0
   43.4390   27.5728   46.3643 H   0  0  0  0  0  0  0  0  0  0  0  0
   42.6059   27.9813   44.8262 H   0  0  0  0  0  0  0  0  0  0  0  0
   43.9685   26.8109   44.8262 H   0  0  0  0  0  0  0  0  0  0  0  0
  1  6  2  0
  2  1  1  0
  3  2  2  0
  3  4  1  0
  4  5  2  0
  5  6  1  0
  5  7  1  0
  7  8  1  0
  8  9  1  0
 10  9  1  0
 11 10  1  0
 12  7  1  0
 12 11  1  0
 13 17  1  0
 13 12  1  0
 14 13  2  0
 15 14  1  0
 15 16  1  0
 16 18  1  0
 16 17  2  0
  1 19  1  0
  2 20  1  0
  3 21  1  0
  8 22  1  0
  8 23  1  0
  9 24  1  0
  9 25  1  0
 10 26  1  0
 10 27  1  0
 11 28  1  0
 11 29  1  0
 12 30  1  6
 18 31  1  0
 18 32  1  0
 18 33  1  0
M  ISO  8  19  14  20  14  21  14  22  13  23  13  24  13  25  13  26  13
M  ISO  7  27  13  28  13  29  13  30  13  31   8  32   8  33   8
M  END
>  <minimizedAffinity>  (1) 
-5.11689901

>  <minimizedRMSD>  (1) 
0.114260763

$$$$
