
     RDKit          3D

 35 37  0  0  1  0  0  0  0  0999 V2000
   46.6350   34.7300   42.5300 N   0  0  0  0  0  0  0  0  0  0  0  0
   47.8050   35.5000   42.1330 C   0  0  0  0  0  0  0  0  0  0  0  0
   48.5080   34.7440   41.0340 C   0  0  0  0  0  0  0  0  0  0  0  0
   47.3650   34.0900   40.3260 C   0  0  0  0  0  0  0  0  0  0  0  0
   46.3400   33.8780   41.3720 C   0  0  2  0  0  0  0  0  0  0  0  0
   44.9510   34.2900   40.9540 C   0  0  0  0  0  0  0  0  0  0  0  0
   44.3930   33.6490   39.8310 C   0  0  0  0  0  0  0  0  0  0  0  0
   42.7180   34.5090   39.7610 S   0  0  0  0  0  0  0  0  0  0  0  0
   43.1230   35.5540   41.2630 C   0  0  0  0  0  0  0  0  0  0  0  0
   44.3190   35.2220   41.6470 N   0  0  0  0  0  0  0  0  0  0  0  0
   46.9480   33.8880   43.6610 C   0  0  0  0  0  0  0  0  0  0  0  0
   45.8750   34.0330   44.7100 C   0  0  0  0  0  0  0  0  0  0  0  0
   46.0510   33.0690   45.7990 C   0  0  0  0  0  0  0  0  0  0  0  0
   46.9110   32.0170   45.5310 C   0  0  0  0  0  0  0  0  0  0  0  0
   47.1570   31.0430   46.4840 C   0  0  0  0  0  0  0  0  0  0  0  0
   46.5170   31.1650   47.6930 N   0  0  0  0  0  0  0  0  0  0  0  0
   45.6810   32.2010   47.9360 C   0  0  0  0  0  0  0  0  0  0  0  0
   45.4420   33.1440   47.0150 N   0  0  0  0  0  0  0  0  0  0  0  0
   48.2490   29.6720   46.1960 S   0  0  0  0  0  0  0  0  0  0  0  0
   47.4941   36.4893   41.7661 H   0  0  0  0  0  0  0  0  0  0  0  0
   48.4786   35.6422   42.9909 H   0  0  0  0  0  0  0  0  0  0  0  0
   49.0543   35.4261   40.3659 H   0  0  0  0  0  0  0  0  0  0  0  0
   49.2674   34.0364   41.3981 H   0  0  0  0  0  0  0  0  0  0  0  0
   46.9771   34.7439   39.5310 H   0  0  0  0  0  0  0  0  0  0  0  0
   47.6625   33.1485   39.8411 H   0  0  0  0  0  0  0  0  0  0  0  0
   46.3697   32.7989   41.5831 H   0  0  0  0  0  0  0  0  0  0  0  0
   44.8148   32.8688   39.1803 H   0  0  0  0  0  0  0  0  0  0  0  0
   42.4712   36.3064   41.7311 H   0  0  0  0  0  0  0  0  0  0  0  0
   47.0007   32.8392   43.3334 H   0  0  0  0  0  0  0  0  0  0  0  0
   47.9172   34.1899   44.0848 H   0  0  0  0  0  0  0  0  0  0  0  0
   45.9163   35.0511   45.1245 H   0  0  0  0  0  0  0  0  0  0  0  0
   44.9016   33.8412   44.2350 H   0  0  0  0  0  0  0  0  0  0  0  0
   47.4043   31.9545   44.5498 H   0  0  0  0  0  0  0  0  0  0  0  0
   45.1848   32.2706   48.9152 H   0  0  0  0  0  0  0  0  0  0  0  0
   48.6602   29.1557   47.3965 H   0  0  0  0  0  0  0  0  0  0  0  0
  1 11  1  0
  2  1  1  0
  3  2  1  0
  4  3  1  0
  4  5  1  0
  5  1  1  0
  6  5  1  0
  6 10  1  0
  7  6  2  0
  8  7  1  0
  8  9  1  0
  9 10  2  0
 11 12  1  0
 12 13  1  0
 13 18  1  0
 14 13  2  0
 14 15  1  0
 15 16  2  0
 16 17  1  0
 18 17  2  0
 19 15  1  0
  2 20  1  0
  2 21  1  0
  3 22  1  0
  3 23  1  0
  4 24  1  0
  4 25  1  0
  5 26  1  1
  7 27  1  0
  9 28  1  0
 11 29  1  0
 11 30  1  0
 12 31  1  0
 12 32  1  0
 14 33  1  0
 17 34  1  0
 19 35  1  0
M  ISO  8  20  13  21  13  22  13  23  13  24  13  25  13  26  13  27  14
M  ISO  8  28  14  29   8  30   8  31   8  32   8  33  14  34  14  35  11
M  END
>  <minimizedAffinity>  (1) 
-4.58842754

>  <minimizedRMSD>  (1) 
1.21654224

$$$$
