
     RDKit          3D

 36 38  0  0  1  0  0  0  0  0999 V2000
   46.4110   34.6950   42.7480 N   0  0  0  0  0  0  0  0  0  0  0  0
   47.5560   35.3400   42.1380 C   0  0  0  0  0  0  0  0  0  0  0  0
   48.0340   34.4610   41.0190 C   0  0  0  0  0  0  0  0  0  0  0  0
   46.7800   33.7960   40.5330 C   0  0  0  0  0  0  0  0  0  0  0  0
   45.8800   33.7940   41.7220 C   0  0  2  0  0  0  0  0  0  0  0  0
   44.6080   34.3810   41.2870 N   0  0  0  0  0  0  0  0  0  0  0  0
   44.0070   34.1260   40.1380 N   0  0  0  0  0  0  0  0  0  0  0  0
   42.8530   34.8270   40.0430 C   0  0  0  0  0  0  0  0  0  0  0  0
   42.7090   35.5680   41.1950 C   0  0  0  0  0  0  0  0  0  0  0  0
   43.8200   35.2690   41.9560 C   0  0  0  0  0  0  0  0  0  0  0  0
   46.8330   33.8630   43.8760 C   0  0  0  0  0  0  0  0  0  0  0  0
   45.7460   33.9620   44.9370 C   0  0  0  0  0  0  0  0  0  0  0  0
   45.9810   32.9880   46.0070 C   0  0  0  0  0  0  0  0  0  0  0  0
   46.8680   31.9580   45.7240 C   0  0  0  0  0  0  0  0  0  0  0  0
   47.1480   30.9950   46.6750 C   0  0  0  0  0  0  0  0  0  0  0  0
   46.5170   31.1010   47.8980 N   0  0  0  0  0  0  0  0  0  0  0  0
   45.6630   32.1020   48.1580 C   0  0  0  0  0  0  0  0  0  0  0  0
   45.4010   33.0280   47.2270 N   0  0  0  0  0  0  0  0  0  0  0  0
   48.2800   29.6510   46.3730 S   0  0  0  0  0  0  0  0  0  0  0  0
   47.2647   36.3243   41.7427 H   0  0  0  0  0  0  0  0  0  0  0  0
   48.3549   35.4874   42.8796 H   0  0  0  0  0  0  0  0  0  0  0  0
   48.4966   35.0590   40.2199 H   0  0  0  0  0  0  0  0  0  0  0  0
   48.8029   33.7422   41.3385 H   0  0  0  0  0  0  0  0  0  0  0  0
   46.3319   34.3662   39.7059 H   0  0  0  0  0  0  0  0  0  0  0  0
   46.9646   32.7839   40.1437 H   0  0  0  0  0  0  0  0  0  0  0  0
   45.7807   32.7724   42.1176 H   0  0  0  0  0  0  0  0  0  0  0  0
   42.1531   34.8082   39.1946 H   0  0  0  0  0  0  0  0  0  0  0  0
   41.8859   36.2507   41.4526 H   0  0  0  0  0  0  0  0  0  0  0  0
   44.0368   35.6841   42.9513 H   0  0  0  0  0  0  0  0  0  0  0  0
   46.9494   32.8184   43.5515 H   0  0  0  0  0  0  0  0  0  0  0  0
   47.8002   34.2041   44.2736 H   0  0  0  0  0  0  0  0  0  0  0  0
   45.7483   34.9758   45.3638 H   0  0  0  0  0  0  0  0  0  0  0  0
   44.7732   33.7487   44.4699 H   0  0  0  0  0  0  0  0  0  0  0  0
   47.3508   31.9081   44.7369 H   0  0  0  0  0  0  0  0  0  0  0  0
   45.1749   32.1626   49.1419 H   0  0  0  0  0  0  0  0  0  0  0  0
   48.7109   29.1394   47.5686 H   0  0  0  0  0  0  0  0  0  0  0  0
  1 11  1  0
  2  1  1  0
  3  2  1  0
  4  3  1  0
  4  5  1  0
  5  1  1  0
  6  5  1  0
  6 10  1  0
  7  6  1  0
  8  7  2  0
  8  9  1  0
  9 10  2  0
 11 12  1  0
 12 13  1  0
 13 18  1  0
 14 13  2  0
 14 15  1  0
 15 16  2  0
 16 17  1  0
 18 17  2  0
 19 15  1  0
  2 20  1  0
  2 21  1  0
  3 22  1  0
  3 23  1  0
  4 24  1  0
  4 25  1  0
  5 26  1  1
  8 27  1  0
  9 28  1  0
 10 29  1  0
 11 30  1  0
 11 31  1  0
 12 32  1  0
 12 33  1  0
 14 34  1  0
 17 35  1  0
 19 36  1  0
M  ISO  8  20  13  21  13  22  13  23  13  24  13  25  13  26  13  27  14
M  ISO  8  28  14  29  14  30   8  31   8  32   8  33   8  34  14  35  14
M  ISO  1  36  11
M  END
>  <minimizedAffinity>  (1) 
-4.61415148

>  <minimizedRMSD>  (1) 
1.19838858

$$$$
