
     RDKit          3D

 41 43  0  0  1  0  0  0  0  0999 V2000
   46.7230   33.8750   43.7160 N   0  0  0  0  0  0  0  0  0  0  0  0
   48.0450   34.2090   43.1740 C   0  0  0  0  0  0  0  0  0  0  0  0
   48.3470   33.2420   42.0780 C   0  0  0  0  0  0  0  0  0  0  0  0
   46.9860   32.8960   41.5230 C   0  0  0  0  0  0  0  0  0  0  0  0
   46.0540   33.1790   42.6460 C   0  0  2  0  0  0  0  0  0  0  0  0
   44.9320   33.8720   42.1170 N   0  0  0  0  0  0  0  0  0  0  0  0
   44.8630   34.0260   40.7250 C   0  0  0  0  0  0  0  0  0  0  0  0
   43.5600   34.7990   40.5610 C   0  0  0  0  0  0  0  0  0  0  0  0
   43.4200   35.5740   41.8400 C   0  0  0  0  0  0  0  0  0  0  0  0
   44.4680   35.0020   42.7940 C   0  0  0  0  0  0  0  0  0  0  0  0
   46.8640   32.9920   44.8620 C   0  0  0  0  0  0  0  0  0  0  0  0
   45.8890   33.4460   45.9200 C   0  0  0  0  0  0  0  0  0  0  0  0
   45.9880   32.6300   47.1270 C   0  0  0  0  0  0  0  0  0  0  0  0
   47.2890   32.3250   47.5540 C   0  0  0  0  0  0  0  0  0  0  0  0
   47.5030   31.5630   48.6780 C   0  0  0  0  0  0  0  0  0  0  0  0
   46.3810   31.1140   49.3640 N   0  0  0  0  0  0  0  0  0  0  0  0
   45.1370   31.4150   48.9420 C   0  0  0  0  0  0  0  0  0  0  0  0
   44.9440   32.1580   47.8460 N   0  0  0  0  0  0  0  0  0  0  0  0
   49.1250   31.1440   49.2670 S   0  0  0  0  0  0  0  0  0  0  0  0
   48.0381   35.2347   42.7766 H   0  0  0  0  0  0  0  0  0  0  0  0
   48.8099   34.1473   43.9621 H   0  0  0  0  0  0  0  0  0  0  0  0
   48.9786   33.7073   41.3070 H   0  0  0  0  0  0  0  0  0  0  0  0
   48.9022   32.3594   42.4284 H   0  0  0  0  0  0  0  0  0  0  0  0
   46.7488   33.5233   40.6511 H   0  0  0  0  0  0  0  0  0  0  0  0
   46.9242   31.8542   41.1753 H   0  0  0  0  0  0  0  0  0  0  0  0
   45.6939   32.2470   43.1062 H   0  0  0  0  0  0  0  0  0  0  0  0
   45.7200   34.5999   40.3426 H   0  0  0  0  0  0  0  0  0  0  0  0
   44.8906   33.0767   40.1699 H   0  0  0  0  0  0  0  0  0  0  0  0
   43.6172   35.4791   39.6984 H   0  0  0  0  0  0  0  0  0  0  0  0
   42.7010   34.1372   40.3764 H   0  0  0  0  0  0  0  0  0  0  0  0
   43.6078   36.6431   41.6619 H   0  0  0  0  0  0  0  0  0  0  0  0
   42.4053   35.4867   42.2558 H   0  0  0  0  0  0  0  0  0  0  0  0
   44.0154   34.7263   43.7579 H   0  0  0  0  0  0  0  0  0  0  0  0
   45.2670   35.7179   43.0370 H   0  0  0  0  0  0  0  0  0  0  0  0
   46.6391   31.9567   44.5660 H   0  0  0  0  0  0  0  0  0  0  0  0
   47.8931   33.0276   45.2488 H   0  0  0  0  0  0  0  0  0  0  0  0
   46.1044   34.4933   46.1783 H   0  0  0  0  0  0  0  0  0  0  0  0
   44.8707   33.3426   45.5170 H   0  0  0  0  0  0  0  0  0  0  0  0
   48.1498   32.7008   46.9815 H   0  0  0  0  0  0  0  0  0  0  0  0
   44.2684   31.0448   49.5063 H   0  0  0  0  0  0  0  0  0  0  0  0
   49.1273   31.1434   50.6370 H   0  0  0  0  0  0  0  0  0  0  0  0
  1 11  1  0
  2  1  1  0
  3  2  1  0
  4  3  1  0
  4  5  1  0
  5  1  1  0
  6  7  1  0
  6  5  1  0
  6 10  1  0
  8  7  1  0
  8  9  1  0
  9 10  1  0
 11 12  1  0
 12 13  1  0
 13 14  2  0
 13 18  1  0
 14 15  1  0
 15 19  1  0
 15 16  2  0
 17 16  1  0
 18 17  2  0
  2 20  1  0
  2 21  1  0
  3 22  1  0
  3 23  1  0
  4 24  1  0
  4 25  1  0
  5 26  1  1
  7 27  1  0
  7 28  1  0
  8 29  1  0
  8 30  1  0
  9 31  1  0
  9 32  1  0
 10 33  1  0
 10 34  1  0
 11 35  1  0
 11 36  1  0
 12 37  1  0
 12 38  1  0
 14 39  1  0
 17 40  1  0
 19 41  1  0
M  ISO  8  20  13  21  13  22  13  23  13  24  13  25  13  26  13  27  13
M  ISO  8  28  13  29  13  30  13  31  13  32  13  33  13  34  13  35   8
M  ISO  6  36   8  37   8  38   8  39  14  40  14  41  11
M  END
>  <minimizedAffinity>  (1) 
-4.81020594

>  <minimizedRMSD>  (1) 
1.70010436

$$$$
