
     RDKit          3D

 31 32  0  0  1  0  0  0  0  0999 V2000
   46.7370   33.8610   43.4290 C   0  0  0  0  0  0  0  0  0  0  0  0
   46.6630   34.8710   42.3860 N   0  0  0  0  0  0  0  0  0  0  0  0
   47.9960   35.4030   42.0990 C   0  0  0  0  0  0  0  0  0  0  0  0
   48.5610   34.6220   40.9630 C   0  0  0  0  0  0  0  0  0  0  0  0
   47.3360   34.2620   40.1660 C   0  0  0  0  0  0  0  0  0  0  0  0
   46.2240   34.2200   41.1630 C   0  0  1  0  0  0  0  0  0  0  0  0
   45.9290   32.7980   41.3940 N   0  0  0  0  0  0  0  0  0  0  0  0
   45.8460   34.2940   44.5660 C   0  0  0  0  0  0  0  0  0  0  0  0
   45.9080   33.3810   45.7010 C   0  0  0  0  0  0  0  0  0  0  0  0
   46.7520   32.2920   45.5360 C   0  0  0  0  0  0  0  0  0  0  0  0
   46.9230   31.3350   46.5210 C   0  0  0  0  0  0  0  0  0  0  0  0
   46.2100   31.5130   47.6850 N   0  0  0  0  0  0  0  0  0  0  0  0
   45.3880   32.5810   47.8360 C   0  0  0  0  0  0  0  0  0  0  0  0
   45.2320   33.5090   46.8650 N   0  0  0  0  0  0  0  0  0  0  0  0
   47.9820   29.9280   46.3700 S   0  0  0  0  0  0  0  0  0  0  0  0
   47.7741   33.7666   43.7834 H   0  0  0  0  0  0  0  0  0  0  0  0
   46.4095   32.8861   43.0387 H   0  0  0  0  0  0  0  0  0  0  0  0
   47.9239   36.4656   41.8239 H   0  0  0  0  0  0  0  0  0  0  0  0
   48.6433   35.3181   42.9843 H   0  0  0  0  0  0  0  0  0  0  0  0
   49.2555   35.2334   40.3681 H   0  0  0  0  0  0  0  0  0  0  0  0
   49.1456   33.7470   41.2833 H   0  0  0  0  0  0  0  0  0  0  0  0
   47.1374   35.0234   39.3973 H   0  0  0  0  0  0  0  0  0  0  0  0
   47.4536   33.3042   39.6379 H   0  0  0  0  0  0  0  0  0  0  0  0
   45.3230   34.7431   40.8100 H   0  0  0  0  0  0  0  0  0  0  0  0
   45.8911   32.6154   42.4070 H   0  0  0  0  0  0  0  0  0  0  0  0
   45.0212   32.5621   40.9684 H   0  0  0  0  0  0  0  0  0  0  0  0
   46.1603   35.2939   44.8997 H   0  0  0  0  0  0  0  0  0  0  0  0
   44.8100   34.2989   44.1964 H   0  0  0  0  0  0  0  0  0  0  0  0
   47.3038   32.1858   44.5904 H   0  0  0  0  0  0  0  0  0  0  0  0
   44.8309   32.6959   48.7775 H   0  0  0  0  0  0  0  0  0  0  0  0
   48.3220   29.4763   47.6179 H   0  0  0  0  0  0  0  0  0  0  0  0
  1  8  1  0
  2  1  1  0
  3  2  1  0
  4  3  1  0
  5  4  1  0
  5  6  1  0
  6  7  1  0
  6  2  1  0
  8  9  1  0
  9 14  1  0
 10  9  2  0
 10 11  1  0
 11 12  2  0
 12 13  1  0
 14 13  2  0
 15 11  1  0
  1 16  1  0
  1 17  1  0
  3 18  1  0
  3 19  1  0
  4 20  1  0
  4 21  1  0
  5 22  1  0
  5 23  1  0
  6 24  1  6
  7 25  1  0
  7 26  1  0
  8 27  1  0
  8 28  1  0
 10 29  1  0
 13 30  1  0
 15 31  1  0
M  ISO  8  16   8  17   8  18  13  19  13  20  13  21  13  22  13  23  13
M  ISO  8  24  13  25   5  26   5  27   8  28   8  29  14  30  14  31  11
M  END
>  <minimizedAffinity>  (1) 
-3.83100438

>  <minimizedRMSD>  (1) 
0.511964917

$$$$
