
     RDKit          3D

 28 30  0  0  0  0  0  0  0  0999 V2000
   45.5760   34.8670   43.7920 C   0  0  0  0  0  0  0  0  0  0  0  0
   46.7430   34.2340   43.3670 C   0  0  0  0  0  0  0  0  0  0  0  0
   47.3200   33.2970   44.2270 C   0  0  0  0  0  0  0  0  0  0  0  0
   46.7220   33.0550   45.4150 N   0  0  0  0  0  0  0  0  0  0  0  0
   45.5940   33.6790   45.8040 C   0  0  0  0  0  0  0  0  0  0  0  0
   45.0170   34.5860   44.9960 N   0  0  0  0  0  0  0  0  0  0  0  0
   47.3900   34.4920   42.0890 C   0  0  0  0  0  0  0  0  0  0  0  0
   48.3400   35.4720   41.9160 C   0  0  0  0  0  0  0  0  0  0  0  0
   48.7610   35.4890   40.6570 N   0  0  0  0  0  0  0  0  0  0  0  0
   48.1180   34.5420   39.9720 C   0  0  0  0  0  0  0  0  0  0  0  0
   47.2950   33.9530   40.8580 N   0  0  0  0  0  0  0  0  0  0  0  0
   44.7530   36.0810   42.7770 S   0  0  0  0  0  0  0  0  0  0  0  0
   43.4940   35.3450   41.7460 C   0  0  0  0  0  0  0  0  0  0  0  0
   43.9880   34.6030   40.6700 C   0  0  0  0  0  0  0  0  0  0  0  0
   43.1380   33.9810   39.7960 C   0  0  0  0  0  0  0  0  0  0  0  0
   41.7780   34.0640   39.9410 C   0  0  0  0  0  0  0  0  0  0  0  0
   41.2960   34.7980   41.0030 C   0  0  0  0  0  0  0  0  0  0  0  0
   42.1260   35.4350   41.9010 C   0  0  0  0  0  0  0  0  0  0  0  0
   48.2414   32.7672   43.9437 H   0  0  0  0  0  0  0  0  0  0  0  0
   45.1452   33.4472   46.7812 H   0  0  0  0  0  0  0  0  0  0  0  0
   48.6995   36.1455   42.7079 H   0  0  0  0  0  0  0  0  0  0  0  0
   48.2360   34.2948   38.9067 H   0  0  0  0  0  0  0  0  0  0  0  0
   46.6620   33.1757   40.6214 H   0  0  0  0  0  0  0  0  0  0  0  0
   45.0748   34.5176   40.5234 H   0  0  0  0  0  0  0  0  0  0  0  0
   43.5556   33.4020   38.9591 H   0  0  0  0  0  0  0  0  0  0  0  0
   41.0970   33.5639   39.2366 H   0  0  0  0  0  0  0  0  0  0  0  0
   40.2075   34.8788   41.1395 H   0  0  0  0  0  0  0  0  0  0  0  0
   41.7002   36.0113   42.7357 H   0  0  0  0  0  0  0  0  0  0  0  0
  1  6  2  0
  2  1  1  0
  2  3  2  0
  3  4  1  0
  4  5  2  0
  6  5  1  0
  7  2  1  0
  8  7  2  0
  9  8  1  0
 10  9  2  0
 10 11  1  0
 11  7  1  0
 12  1  1  0
 13 18  1  0
 13 12  1  0
 14 13  2  0
 15 16  2  0
 15 14  1  0
 16 17  1  0
 17 18  2  0
  3 19  1  0
  5 20  1  0
  8 21  1  0
 10 22  1  0
 11 23  1  0
 14 24  1  0
 15 25  1  0
 16 26  1  0
 17 27  1  0
 18 28  1  0
M  ISO  8  19  14  20  14  21  14  22  14  23   9  24  14  25  14  26  14
M  ISO  2  27  14  28  14
M  END
>  <minimizedAffinity>  (1) 
-4.8747673

>  <minimizedRMSD>  (1) 
0.21727103

$$$$
