
     RDKit          3D

 18 19  0  0  0  0  0  0  0  0999 V2000
   45.6630   34.7790   43.9320 C   0  0  0  0  0  0  0  0  0  0  0  0
   46.7810   34.1350   43.4160 C   0  0  0  0  0  0  0  0  0  0  0  0
   47.3780   33.1380   44.2050 C   0  0  0  0  0  0  0  0  0  0  0  0
   46.8340   32.8640   45.4110 N   0  0  0  0  0  0  0  0  0  0  0  0
   45.7510   33.5040   45.8860 C   0  0  0  0  0  0  0  0  0  0  0  0
   45.1560   34.4680   45.1480 N   0  0  0  0  0  0  0  0  0  0  0  0
   47.3680   34.4250   42.1230 C   0  0  0  0  0  0  0  0  0  0  0  0
   48.3570   35.3760   41.9350 C   0  0  0  0  0  0  0  0  0  0  0  0
   48.7230   35.4490   40.6640 N   0  0  0  0  0  0  0  0  0  0  0  0
   48.0030   34.5630   39.9710 C   0  0  0  0  0  0  0  0  0  0  0  0
   47.2120   33.9770   40.8740 N   0  0  0  0  0  0  0  0  0  0  0  0
   44.8260   36.0680   43.0060 S   0  0  0  0  0  0  0  0  0  0  0  0
   48.2658   32.5941   43.8501 H   0  0  0  0  0  0  0  0  0  0  0  0
   45.3487   33.2430   46.8760 H   0  0  0  0  0  0  0  0  0  0  0  0
   48.7845   35.9927   42.7393 H   0  0  0  0  0  0  0  0  0  0  0  0
   48.0509   34.3599   38.8910 H   0  0  0  0  0  0  0  0  0  0  0  0
   46.5366   33.2395   40.6274 H   0  0  0  0  0  0  0  0  0  0  0  0
   44.2500   36.9551   43.8767 H   0  0  0  0  0  0  0  0  0  0  0  0
  1  6  2  0
  2  1  1  0
  2  3  2  0
  3  4  1  0
  4  5  2  0
  6  5  1  0
  7  2  1  0
  8  7  2  0
  9  8  1  0
 10  9  2  0
 10 11  1  0
 11  7  1  0
 12  1  1  0
  3 13  1  0
  5 14  1  0
  8 15  1  0
 10 16  1  0
 11 17  1  0
 12 18  1  0
M  ISO  6  13  14  14  14  15  14  16  14  17   9  18  11
M  END
>  <minimizedAffinity>  (1) 
-3.82078528

>  <minimizedRMSD>  (1) 
0.795574188

$$$$
