
     RDKit          3D

 21 22  0  0  0  0  0  0  0  0999 V2000
   45.6670   34.7850   43.9380 C   0  0  0  0  0  0  0  0  0  0  0  0
   46.7760   34.1430   43.4070 C   0  0  0  0  0  0  0  0  0  0  0  0
   47.3580   33.1450   44.1980 C   0  0  0  0  0  0  0  0  0  0  0  0
   46.8170   32.8660   45.4130 N   0  0  0  0  0  0  0  0  0  0  0  0
   45.7390   33.5180   45.8850 C   0  0  0  0  0  0  0  0  0  0  0  0
   45.1470   34.4940   45.1420 N   0  0  0  0  0  0  0  0  0  0  0  0
   47.3580   34.4300   42.1210 C   0  0  0  0  0  0  0  0  0  0  0  0
   48.3650   35.3760   41.9480 C   0  0  0  0  0  0  0  0  0  0  0  0
   48.7200   35.4410   40.6630 N   0  0  0  0  0  0  0  0  0  0  0  0
   47.9880   34.5760   39.9750 C   0  0  0  0  0  0  0  0  0  0  0  0
   47.1760   33.9790   40.8680 N   0  0  0  0  0  0  0  0  0  0  0  0
   44.8340   36.0890   43.0080 S   0  0  0  0  0  0  0  0  0  0  0  0
   43.6300   35.2590   41.9120 C   0  0  0  0  0  0  0  0  0  0  0  0
   48.2408   32.5945   43.8409 H   0  0  0  0  0  0  0  0  0  0  0  0
   45.3340   33.2618   46.8751 H   0  0  0  0  0  0  0  0  0  0  0  0
   48.8044   35.9822   42.7539 H   0  0  0  0  0  0  0  0  0  0  0  0
   48.0345   34.3845   38.8928 H   0  0  0  0  0  0  0  0  0  0  0  0
   46.4886   33.2540   40.6175 H   0  0  0  0  0  0  0  0  0  0  0  0
   42.8763   34.7395   42.5220 H   0  0  0  0  0  0  0  0  0  0  0  0
   43.1347   36.0084   41.2772 H   0  0  0  0  0  0  0  0  0  0  0  0
   44.1542   34.5295   41.2772 H   0  0  0  0  0  0  0  0  0  0  0  0
  1  6  2  0
  2  1  1  0
  2  3  2  0
  3  4  1  0
  4  5  2  0
  6  5  1  0
  7  2  1  0
  8  7  2  0
  9  8  1  0
 10  9  2  0
 10 11  1  0
 11  7  1  0
 12  1  1  0
 13 12  1  0
  3 14  1  0
  5 15  1  0
  8 16  1  0
 10 17  1  0
 11 18  1  0
 13 19  1  0
 13 20  1  0
 13 21  1  0
M  ISO  8  14  14  15  14  16  14  17  14  18   9  19   8  20   8  21   8
M  END
>  <minimizedAffinity>  (1) 
-3.90833402

>  <minimizedRMSD>  (1) 
0.033455506

$$$$
