
     RDKit          3D

 32 35  0  0  0  0  0  0  0  0999 V2000
   45.4190   34.8860   43.8940 C   0  0  0  0  0  0  0  0  0  0  0  0
   46.3340   33.8750   44.1080 C   0  0  0  0  0  0  0  0  0  0  0  0
   46.3860   33.3080   45.3980 C   0  0  0  0  0  0  0  0  0  0  0  0
   45.5400   33.7890   46.3400 N   0  0  0  0  0  0  0  0  0  0  0  0
   44.6590   34.7780   46.0970 C   0  0  0  0  0  0  0  0  0  0  0  0
   44.5940   35.3330   44.8710 N   0  0  0  0  0  0  0  0  0  0  0  0
   47.2420   33.3530   43.1010 C   0  0  0  0  0  0  0  0  0  0  0  0
   48.5050   33.8560   42.9020 C   0  0  0  0  0  0  0  0  0  0  0  0
   49.1210   33.1950   41.9200 N   0  0  0  0  0  0  0  0  0  0  0  0
   48.2930   32.2580   41.4550 C   0  0  0  0  0  0  0  0  0  0  0  0
   47.1680   32.3710   42.1810 N   0  0  0  0  0  0  0  0  0  0  0  0
   45.2690   35.6650   42.2790 S   0  0  0  0  0  0  0  0  0  0  0  0
   43.7930   35.1010   41.4260 C   0  0  0  0  0  0  0  0  0  0  0  0
   42.4470   35.3790   41.5980 C   0  0  0  0  0  0  0  0  0  0  0  0
   41.7430   34.6830   40.6790 N   0  0  0  0  0  0  0  0  0  0  0  0
   42.6020   33.9710   39.9260 C   0  0  0  0  0  0  0  0  0  0  0  0
   42.2650   33.1220   38.8680 C   0  0  0  0  0  0  0  0  0  0  0  0
   43.2980   32.4750   38.2130 C   0  0  0  0  0  0  0  0  0  0  0  0
   44.6140   32.6930   38.6330 C   0  0  0  0  0  0  0  0  0  0  0  0
   44.8890   33.5430   39.6850 C   0  0  0  0  0  0  0  0  0  0  0  0
   43.8870   34.2030   40.3580 C   0  0  0  0  0  0  0  0  0  0  0  0
   47.0931   32.4986   45.6325 H   0  0  0  0  0  0  0  0  0  0  0  0
   43.9935   35.1322   46.8981 H   0  0  0  0  0  0  0  0  0  0  0  0
   48.9464   34.6868   43.4720 H   0  0  0  0  0  0  0  0  0  0  0  0
   48.4905   31.5409   40.6446 H   0  0  0  0  0  0  0  0  0  0  0  0
   46.3400   31.7728   42.0489 H   0  0  0  0  0  0  0  0  0  0  0  0
   42.0225   36.0536   42.3561 H   0  0  0  0  0  0  0  0  0  0  0  0
   40.7186   34.6951   40.5721 H   0  0  0  0  0  0  0  0  0  0  0  0
   41.2174   32.9737   38.5672 H   0  0  0  0  0  0  0  0  0  0  0  0
   43.0867   31.7976   37.3724 H   0  0  0  0  0  0  0  0  0  0  0  0
   45.4403   32.1806   38.1185 H   0  0  0  0  0  0  0  0  0  0  0  0
   45.9339   33.6963   39.9926 H   0  0  0  0  0  0  0  0  0  0  0  0
  1  2  1  0
  1  6  2  0
  2  3  2  0
  3  4  1  0
  5  4  2  0
  6  5  1  0
  7  2  1  0
  8  7  2  0
  9  8  1  0
 10  9  2  0
 10 11  1  0
 11  7  1  0
 12  1  1  0
 13 14  2  0
 13 12  1  0
 15 14  1  0
 16 21  2  0
 16 15  1  0
 17 16  1  0
 18 19  1  0
 18 17  2  0
 19 20  2  0
 20 21  1  0
 21 13  1  0
  3 22  1  0
  5 23  1  0
  8 24  1  0
 10 25  1  0
 11 26  1  0
 14 27  1  0
 15 28  1  0
 17 29  1  0
 18 30  1  0
 19 31  1  0
 20 32  1  0
M  ISO  8  22  14  23  14  24  14  25  14  26   9  27  14  28   9  29  14
M  ISO  3  30  14  31  14  32  14
M  END
>  <minimizedAffinity>  (1) 
-4.58637619

>  <minimizedRMSD>  (1) 
4.8153739

$$$$
