
     RDKit          3D

 31 33  0  0  0  0  0  0  0  0999 V2000
   45.5090   34.7540   43.7260 C   0  0  0  0  0  0  0  0  0  0  0  0
   46.6980   34.1620   43.3000 C   0  0  0  0  0  0  0  0  0  0  0  0
   47.3350   33.3210   44.2110 C   0  0  0  0  0  0  0  0  0  0  0  0
   46.7940   33.1210   45.4270 N   0  0  0  0  0  0  0  0  0  0  0  0
   45.6390   33.7110   45.8060 C   0  0  0  0  0  0  0  0  0  0  0  0
   44.9820   34.5410   44.9500 N   0  0  0  0  0  0  0  0  0  0  0  0
   47.2950   34.3670   42.0000 C   0  0  0  0  0  0  0  0  0  0  0  0
   48.2520   35.3510   41.7670 C   0  0  0  0  0  0  0  0  0  0  0  0
   48.6320   35.3230   40.4900 N   0  0  0  0  0  0  0  0  0  0  0  0
   47.9650   34.3590   39.8690 C   0  0  0  0  0  0  0  0  0  0  0  0
   47.1680   33.7980   40.7980 N   0  0  0  0  0  0  0  0  0  0  0  0
   44.5840   35.8590   42.6420 S   0  0  0  0  0  0  0  0  0  0  0  0
   43.3860   34.7780   41.7740 C   0  0  0  0  0  0  0  0  0  0  0  0
   43.7430   34.5980   40.3290 C   0  0  0  0  0  0  0  0  0  0  0  0
   42.3950   34.1680   39.7550 C   0  0  0  0  0  0  0  0  0  0  0  0
   41.4270   35.1550   40.3980 C   0  0  0  0  0  0  0  0  0  0  0  0
   42.0250   35.4390   41.7590 C   0  0  0  0  0  0  0  0  0  0  0  0
   48.2765   32.8226   43.9370 H   0  0  0  0  0  0  0  0  0  0  0  0
   45.2286   33.5202   46.8086 H   0  0  0  0  0  0  0  0  0  0  0  0
   48.6375   36.0486   42.5251 H   0  0  0  0  0  0  0  0  0  0  0  0
   48.0466   34.0753   38.8093 H   0  0  0  0  0  0  0  0  0  0  0  0
   46.5289   33.0142   40.6028 H   0  0  0  0  0  0  0  0  0  0  0  0
   43.3940   33.8147   42.3051 H   0  0  0  0  0  0  0  0  0  0  0  0
   44.0941   35.5380   39.8782 H   0  0  0  0  0  0  0  0  0  0  0  0
   44.5637   33.8887   40.1467 H   0  0  0  0  0  0  0  0  0  0  0  0
   42.3837   34.2582   38.6588 H   0  0  0  0  0  0  0  0  0  0  0  0
   42.1478   33.1163   39.9619 H   0  0  0  0  0  0  0  0  0  0  0  0
   41.3595   36.0775   39.8026 H   0  0  0  0  0  0  0  0  0  0  0  0
   40.4045   34.7550   40.4652 H   0  0  0  0  0  0  0  0  0  0  0  0
   42.1272   36.5237   41.9108 H   0  0  0  0  0  0  0  0  0  0  0  0
   41.3845   35.0512   42.5648 H   0  0  0  0  0  0  0  0  0  0  0  0
  1  6  2  0
  2  1  1  0
  2  3  2  0
  3  4  1  0
  4  5  2  0
  6  5  1  0
  7  2  1  0
  8  7  2  0
  9  8  1  0
 10  9  2  0
 10 11  1  0
 11  7  1  0
 12  1  1  0
 13 12  1  0
 14 13  1  0
 15 14  1  0
 15 16  1  0
 16 17  1  0
 17 13  1  0
  3 18  1  0
  5 19  1  0
  8 20  1  0
 10 21  1  0
 11 22  1  0
 13 23  1  0
 14 24  1  0
 14 25  1  0
 15 26  1  0
 15 27  1  0
 16 28  1  0
 16 29  1  0
 17 30  1  0
 17 31  1  0
M  ISO  8  18  14  19  14  20  14  21  14  22   9  23  13  24  13  25  13
M  ISO  6  26  13  27  13  28  13  29  13  30  13  31  13
M  END
>  <minimizedAffinity>  (1) 
-4.61668253

>  <minimizedRMSD>  (1) 
0.572626472

$$$$
