
     RDKit          3D

 25 27  0  0  0  0  0  0  0  0999 V2000
   45.5670   35.0560   44.0210 C   0  0  0  0  0  0  0  0  0  0  0  0
   46.5880   34.2740   43.4980 C   0  0  0  0  0  0  0  0  0  0  0  0
   47.0490   33.2140   44.2990 C   0  0  0  0  0  0  0  0  0  0  0  0
   46.4730   33.0310   45.5080 N   0  0  0  0  0  0  0  0  0  0  0  0
   45.4910   33.8030   45.9830 C   0  0  0  0  0  0  0  0  0  0  0  0
   45.0210   34.8370   45.2340 N   0  0  0  0  0  0  0  0  0  0  0  0
   47.2000   34.4760   42.2020 C   0  0  0  0  0  0  0  0  0  0  0  0
   48.3040   35.2870   42.0190 C   0  0  0  0  0  0  0  0  0  0  0  0
   48.6610   35.2930   40.7320 N   0  0  0  0  0  0  0  0  0  0  0  0
   47.8260   34.5090   40.0540 C   0  0  0  0  0  0  0  0  0  0  0  0
   46.9560   34.0280   40.9590 N   0  0  0  0  0  0  0  0  0  0  0  0
   44.8930   36.4370   43.0760 S   0  0  0  0  0  0  0  0  0  0  0  0
   45.1140   37.9710   43.9610 C   0  0  0  0  0  0  0  0  0  0  0  0
   45.4420   39.0930   43.1930 C   0  0  0  0  0  0  0  0  0  0  0  0
   45.5600   40.1500   44.0970 C   0  0  0  0  0  0  0  0  0  0  0  0
   45.3000   39.6130   45.3420 C   0  0  0  0  0  0  0  0  0  0  0  0
   45.0440   38.3310   45.2030 O   0  0  0  0  0  0  0  0  0  0  0  0
   47.8559   32.5522   43.9513 H   0  0  0  0  0  0  0  0  0  0  0  0
   45.0639   33.6030   46.9768 H   0  0  0  0  0  0  0  0  0  0  0  0
   48.8144   35.8461   42.8171 H   0  0  0  0  0  0  0  0  0  0  0  0
   47.8441   34.2979   38.9746 H   0  0  0  0  0  0  0  0  0  0  0  0
   46.1857   33.3855   40.7248 H   0  0  0  0  0  0  0  0  0  0  0  0
   45.5787   39.1340   42.1023 H   0  0  0  0  0  0  0  0  0  0  0  0
   45.8090   41.1960   43.8651 H   0  0  0  0  0  0  0  0  0  0  0  0
   45.3060   40.1662   46.2928 H   0  0  0  0  0  0  0  0  0  0  0  0
  1  6  2  0
  2  1  1  0
  2  3  2  0
  3  4  1  0
  4  5  2  0
  6  5  1  0
  7  2  1  0
  8  7  2  0
  9  8  1  0
 10  9  2  0
 10 11  1  0
 11  7  1  0
 12 13  1  0
 12  1  1  0
 13 17  1  0
 14 13  2  0
 14 15  1  0
 15 16  2  0
 17 16  1  0
  3 18  1  0
  5 19  1  0
  8 20  1  0
 10 21  1  0
 11 22  1  0
 14 23  1  0
 15 24  1  0
 16 25  1  0
M  ISO  8  18  14  19  14  20  14  21  14  22   9  23  14  24  14  25  14
M  END
>  <minimizedAffinity>  (1) 
-3.71800804

>  <minimizedRMSD>  (1) 
0.755806804

$$$$
