
     RDKit          3D

 48 51  0  0  1  0  0  0  0  0999 V2000
   41.9570   33.5930   39.7400 N   0  0  0  0  0  0  0  0  0  0  0  0
   42.9940   32.8340   40.3160 C   0  0  0  0  0  0  0  0  0  0  0  0
   43.6730   33.4840   41.5010 C   0  0  0  0  0  0  0  0  0  0  0  0
   43.5750   34.9830   41.4370 C   0  0  1  0  0  0  0  0  0  0  0  0
   42.0800   35.2390   41.5970 C   0  0  0  0  0  0  0  0  0  0  0  0
   41.3940   34.6820   40.4110 C   0  0  2  0  0  0  0  0  0  0  0  0
   40.0190   34.4060   40.8020 N   0  0  0  0  0  0  0  0  0  0  0  0
   39.7830   33.0560   41.1990 C   0  0  0  0  0  0  0  0  0  0  0  0
   38.4370   32.5420   40.6730 C   0  0  0  0  0  0  0  0  0  0  0  0
   38.5770   32.5050   39.1730 C   0  0  0  0  0  0  0  0  0  0  0  0
   38.7880   33.9210   38.7130 C   0  0  0  0  0  0  0  0  0  0  0  0
   39.0470   34.8830   39.8510 C   0  0  0  0  0  0  0  0  0  0  0  0
   44.5520   35.8070   42.6710 S   0  0  0  0  0  0  0  0  0  0  0  0
   45.4990   34.7480   43.7390 C   0  0  0  0  0  0  0  0  0  0  0  0
   46.7360   34.2110   43.3270 C   0  0  0  0  0  0  0  0  0  0  0  0
   47.4000   33.3860   44.2540 C   0  0  0  0  0  0  0  0  0  0  0  0
   46.8520   33.1490   45.4580 N   0  0  0  0  0  0  0  0  0  0  0  0
   45.6610   33.6840   45.8180 C   0  0  0  0  0  0  0  0  0  0  0  0
   44.9800   34.4820   44.9680 N   0  0  0  0  0  0  0  0  0  0  0  0
   47.3480   34.4540   42.0470 C   0  0  0  0  0  0  0  0  0  0  0  0
   48.3350   35.4360   41.8810 C   0  0  0  0  0  0  0  0  0  0  0  0
   48.7170   35.4410   40.5940 N   0  0  0  0  0  0  0  0  0  0  0  0
   48.0250   34.5140   39.9320 C   0  0  0  0  0  0  0  0  0  0  0  0
   47.2230   33.9530   40.8360 N   0  0  0  0  0  0  0  0  0  0  0  0
   42.3232   33.9575   38.8490 H   0  0  0  0  0  0  0  0  0  0  0  0
   42.5718   31.8740   40.6478 H   0  0  0  0  0  0  0  0  0  0  0  0
   43.7652   32.7238   39.5394 H   0  0  0  0  0  0  0  0  0  0  0  0
   43.1915   33.1333   42.4257 H   0  0  0  0  0  0  0  0  0  0  0  0
   44.7372   33.2063   41.4846 H   0  0  0  0  0  0  0  0  0  0  0  0
   43.9816   35.3898   40.4993 H   0  0  0  0  0  0  0  0  0  0  0  0
   41.7116   34.7450   42.5082 H   0  0  0  0  0  0  0  0  0  0  0  0
   41.8829   36.3178   41.6822 H   0  0  0  0  0  0  0  0  0  0  0  0
   41.4958   35.4577   39.6377 H   0  0  0  0  0  0  0  0  0  0  0  0
   40.5882   32.4207   40.8015 H   0  0  0  0  0  0  0  0  0  0  0  0
   39.7608   33.0186   42.2981 H   0  0  0  0  0  0  0  0  0  0  0  0
   38.2307   31.5350   41.0646 H   0  0  0  0  0  0  0  0  0  0  0  0
   37.6032   33.1862   40.9887 H   0  0  0  0  0  0  0  0  0  0  0  0
   39.4396   31.8839   38.8899 H   0  0  0  0  0  0  0  0  0  0  0  0
   37.6798   32.0717   38.7068 H   0  0  0  0  0  0  0  0  0  0  0  0
   39.6522   33.9429   38.0328 H   0  0  0  0  0  0  0  0  0  0  0  0
   37.8625   34.2449   38.2144 H   0  0  0  0  0  0  0  0  0  0  0  0
   39.4107   35.8312   39.4284 H   0  0  0  0  0  0  0  0  0  0  0  0
   38.0977   35.0026   40.3937 H   0  0  0  0  0  0  0  0  0  0  0  0
   48.3685   32.9347   43.9927 H   0  0  0  0  0  0  0  0  0  0  0  0
   45.2444   33.4663   46.8125 H   0  0  0  0  0  0  0  0  0  0  0  0
   48.7295   36.0914   42.6715 H   0  0  0  0  0  0  0  0  0  0  0  0
   48.1002   34.2644   38.8633 H   0  0  0  0  0  0  0  0  0  0  0  0
   46.5640   33.1950   40.6078 H   0  0  0  0  0  0  0  0  0  0  0  0
  1  2  1  0
  1  6  1  0
  2  3  1  0
  4  3  1  0
  4  5  1  0
  4 13  1  0
  6  7  1  0
  6  5  1  0
  7  8  1  0
  9  8  1  0
 10  9  1  0
 11 10  1  0
 11 12  1  0
 12  7  1  0
 13 14  1  0
 14 19  2  0
 15 14  1  0
 15 16  2  0
 16 17  1  0
 17 18  2  0
 19 18  1  0
 20 15  1  0
 21 20  2  0
 22 21  1  0
 23 22  2  0
 23 24  1  0
 24 20  1  0
  1 25  1  0
  2 26  1  0
  2 27  1  0
  3 28  1  0
  3 29  1  0
  4 30  1  6
  5 31  1  0
  5 32  1  0
  6 33  1  6
  8 34  1  0
  8 35  1  0
  9 36  1  0
  9 37  1  0
 10 38  1  0
 10 39  1  0
 11 40  1  0
 11 41  1  0
 12 42  1  0
 12 43  1  0
 16 44  1  0
 18 45  1  0
 21 46  1  0
 23 47  1  0
 24 48  1  0
M  ISO  8  25   5  26  13  27  13  28  13  29  13  30  13  31  13  32  13
M  ISO  8  33  13  34  13  35  13  36  13  37  13  38  13  39  13  40  13
M  ISO  8  41  13  42  13  43  13  44  14  45  14  46  14  47  14  48   9
M  END
>  <minimizedAffinity>  (1) 
-6.31771421

>  <minimizedRMSD>  (1) 
0.814041972

$$$$
