
     RDKit          3D

 43 46  0  0  1  0  0  0  0  0999 V2000
   42.3450   34.3980   39.3340 N   0  0  0  0  0  0  0  0  0  0  0  0
   43.6420   33.8580   39.4150 C   0  0  0  0  0  0  0  0  0  0  0  0
   44.3750   34.1510   40.7040 C   0  0  0  0  0  0  0  0  0  0  0  0
   43.8630   35.3960   41.3670 C   0  0  1  0  0  0  0  0  0  0  0  0
   42.4350   35.0380   41.7400 C   0  0  0  0  0  0  0  0  0  0  0  0
   41.6750   34.8110   40.5000 C   0  0  2  0  0  0  0  0  0  0  0  0
   40.6230   33.8410   40.7590 N   0  0  0  0  0  0  0  0  0  0  0  0
   40.8500   32.6860   41.4260 C   0  0  0  0  0  0  0  0  0  0  0  0
   39.8780   31.7420   41.6900 C   0  0  0  0  0  0  0  0  0  0  0  0
   38.6150   32.0390   41.2280 C   0  0  0  0  0  0  0  0  0  0  0  0
   37.7100   31.1700   41.4700 O   0  0  0  0  0  0  0  0  0  0  0  0
   38.3370   33.1740   40.5600 N   0  0  0  0  0  0  0  0  0  0  0  0
   39.3490   34.0340   40.3500 C   0  0  0  0  0  0  0  0  0  0  0  0
   39.0690   35.0890   39.7240 O   0  0  0  0  0  0  0  0  0  0  0  0
   44.8380   35.9240   42.7550 S   0  0  0  0  0  0  0  0  0  0  0  0
   45.6970   34.6320   43.6230 C   0  0  0  0  0  0  0  0  0  0  0  0
   46.9270   34.1190   43.1550 C   0  0  0  0  0  0  0  0  0  0  0  0
   47.5100   33.1020   43.9220 C   0  0  0  0  0  0  0  0  0  0  0  0
   46.9100   32.6590   45.0380 N   0  0  0  0  0  0  0  0  0  0  0  0
   45.7280   33.1720   45.4620 C   0  0  0  0  0  0  0  0  0  0  0  0
   45.1150   34.1560   44.7630 N   0  0  0  0  0  0  0  0  0  0  0  0
   47.5950   34.5760   41.9670 C   0  0  0  0  0  0  0  0  0  0  0  0
   48.5280   35.6250   42.0010 C   0  0  0  0  0  0  0  0  0  0  0  0
   48.9830   35.8320   40.7570 N   0  0  0  0  0  0  0  0  0  0  0  0
   48.3900   34.9710   39.9270 C   0  0  0  0  0  0  0  0  0  0  0  0
   47.5720   34.2430   40.6940 N   0  0  0  0  0  0  0  0  0  0  0  0
   42.4052   35.2223   38.7193 H   0  0  0  0  0  0  0  0  0  0  0  0
   43.5647   32.7661   39.3067 H   0  0  0  0  0  0  0  0  0  0  0  0
   44.2251   34.3354   38.6137 H   0  0  0  0  0  0  0  0  0  0  0  0
   44.2414   33.3017   41.3902 H   0  0  0  0  0  0  0  0  0  0  0  0
   45.4378   34.3038   40.4652 H   0  0  0  0  0  0  0  0  0  0  0  0
   43.9202   36.2699   40.7014 H   0  0  0  0  0  0  0  0  0  0  0  0
   42.4287   34.1242   42.3524 H   0  0  0  0  0  0  0  0  0  0  0  0
   41.9791   35.8546   42.3191 H   0  0  0  0  0  0  0  0  0  0  0  0
   41.3353   35.8289   40.2581 H   0  0  0  0  0  0  0  0  0  0  0  0
   41.8723   32.4868   41.7798 H   0  0  0  0  0  0  0  0  0  0  0  0
   40.0982   30.8120   42.2346 H   0  0  0  0  0  0  0  0  0  0  0  0
   37.3851   33.3761   40.2225 H   0  0  0  0  0  0  0  0  0  0  0  0
   48.4679   32.6626   43.6069 H   0  0  0  0  0  0  0  0  0  0  0  0
   45.2638   32.7853   46.3813 H   0  0  0  0  0  0  0  0  0  0  0  0
   48.8342   36.1833   42.8980 H   0  0  0  0  0  0  0  0  0  0  0  0
   48.5422   34.8798   38.8414 H   0  0  0  0  0  0  0  0  0  0  0  0
   46.9771   33.4890   40.3219 H   0  0  0  0  0  0  0  0  0  0  0  0
  1  2  1  0
  1  6  1  0
  2  3  1  0
  3  4  1  0
  4  5  1  0
  4 15  1  0
  6  7  1  0
  6  5  1  0
  7  8  1  0
  8  9  2  0
 10 11  2  0
 10  9  1  0
 12 10  1  0
 13 12  1  0
 13  7  1  0
 14 13  2  0
 15 16  1  0
 16 21  2  0
 17 16  1  0
 17 18  2  0
 18 19  1  0
 19 20  2  0
 21 20  1  0
 22 23  2  0
 22 17  1  0
 24 23  1  0
 25 26  1  0
 25 24  2  0
 26 22  1  0
  1 27  1  0
  2 28  1  0
  2 29  1  0
  3 30  1  0
  3 31  1  0
  4 32  1  6
  5 33  1  0
  5 34  1  0
  6 35  1  6
  8 36  1  0
  9 37  1  0
 12 38  1  0
 18 39  1  0
 20 40  1  0
 23 41  1  0
 25 42  1  0
 26 43  1  0
M  ISO  8  27   5  28  13  29  13  30  13  31  13  32  13  33  13  34  13
M  ISO  8  35  13  36  14  37  14  38   9  39  14  40  14  41  14  42  14
M  ISO  1  43   9
M  END
>  <minimizedAffinity>  (1) 
-6.64844275

>  <minimizedRMSD>  (1) 
1.32128048

$$$$
