
     RDKit          3D

 38 41  0  0  1  0  0  0  0  0999 V2000
   42.5410   33.7070   39.2670 N   0  0  0  0  0  0  0  0  0  0  0  0
   43.5950   33.0040   39.8570 C   0  0  0  0  0  0  0  0  0  0  0  0
   44.1150   33.5690   41.1570 C   0  0  0  0  0  0  0  0  0  0  0  0
   43.8470   35.0420   41.2610 C   0  0  1  0  0  0  0  0  0  0  0  0
   42.3230   35.1210   41.3090 C   0  0  0  0  0  0  0  0  0  0  0  0
   41.8310   34.6860   39.9710 C   0  0  2  0  0  0  0  0  0  0  0  0
   40.3970   34.2990   40.0760 C   0  0  0  0  0  0  0  0  0  0  0  0
   39.2990   34.9250   39.6070 N   0  0  0  0  0  0  0  0  0  0  0  0
   38.2250   34.2600   39.9090 O   0  0  0  0  0  0  0  0  0  0  0  0
   38.5750   33.1820   40.5820 C   0  0  0  0  0  0  0  0  0  0  0  0
   39.9190   33.1920   40.6940 N   0  0  0  0  0  0  0  0  0  0  0  0
   44.6260   35.8150   42.6560 S   0  0  0  0  0  0  0  0  0  0  0  0
   45.5570   34.7330   43.7130 C   0  0  0  0  0  0  0  0  0  0  0  0
   46.8110   34.2190   43.3150 C   0  0  0  0  0  0  0  0  0  0  0  0
   47.4530   33.3750   44.2360 C   0  0  0  0  0  0  0  0  0  0  0  0
   46.8770   33.0950   45.4160 N   0  0  0  0  0  0  0  0  0  0  0  0
   45.6720   33.6090   45.7610 C   0  0  0  0  0  0  0  0  0  0  0  0
   45.0040   34.4280   44.9160 N   0  0  0  0  0  0  0  0  0  0  0  0
   47.4520   34.5060   42.0600 C   0  0  0  0  0  0  0  0  0  0  0  0
   48.3920   35.5400   41.9290 C   0  0  0  0  0  0  0  0  0  0  0  0
   48.8150   35.5720   40.6570 N   0  0  0  0  0  0  0  0  0  0  0  0
   48.1950   34.6140   39.9660 C   0  0  0  0  0  0  0  0  0  0  0  0
   47.3910   34.0030   40.8460 N   0  0  0  0  0  0  0  0  0  0  0  0
   42.9317   34.1728   38.4355 H   0  0  0  0  0  0  0  0  0  0  0  0
   43.2502   31.9772   40.0491 H   0  0  0  0  0  0  0  0  0  0  0  0
   44.4324   33.0691   39.1466 H   0  0  0  0  0  0  0  0  0  0  0  0
   43.6195   33.0553   41.9940 H   0  0  0  0  0  0  0  0  0  0  0  0
   45.2032   33.4122   41.1915 H   0  0  0  0  0  0  0  0  0  0  0  0
   44.2769   35.6001   40.4162 H   0  0  0  0  0  0  0  0  0  0  0  0
   41.9330   34.4540   42.0919 H   0  0  0  0  0  0  0  0  0  0  0  0
   41.9861   36.1418   41.5426 H   0  0  0  0  0  0  0  0  0  0  0  0
   41.9988   35.5780   39.3496 H   0  0  0  0  0  0  0  0  0  0  0  0
   37.8950   32.4143   40.9797 H   0  0  0  0  0  0  0  0  0  0  0  0
   48.4332   32.9410   43.9892 H   0  0  0  0  0  0  0  0  0  0  0  0
   45.2323   33.3581   46.7376 H   0  0  0  0  0  0  0  0  0  0  0  0
   48.7255   36.2111   42.7342 H   0  0  0  0  0  0  0  0  0  0  0  0
   48.3180   34.3761   38.8991 H   0  0  0  0  0  0  0  0  0  0  0  0
   46.7810   33.2119   40.5952 H   0  0  0  0  0  0  0  0  0  0  0  0
  1  2  1  0
  1  6  1  0
  2  3  1  0
  3  4  1  0
  4  5  1  0
  4 12  1  0
  6  7  1  0
  6  5  1  0
  7 11  1  0
  8  9  1  0
  8  7  2  0
  9 10  1  0
 10 11  2  0
 12 13  1  0
 13 18  2  0
 14 13  1  0
 14 15  2  0
 15 16  1  0
 16 17  2  0
 18 17  1  0
 19 14  1  0
 20 19  2  0
 21 20  1  0
 22 21  2  0
 22 23  1  0
 23 19  1  0
  1 24  1  0
  2 25  1  0
  2 26  1  0
  3 27  1  0
  3 28  1  0
  4 29  1  6
  5 30  1  0
  5 31  1  0
  6 32  1  6
 10 33  1  0
 15 34  1  0
 17 35  1  0
 20 36  1  0
 22 37  1  0
 23 38  1  0
M  ISO  8  24   5  25  13  26  13  27  13  28  13  29  13  30  13  31  13
M  ISO  7  32  13  33  14  34  14  35  14  36  14  37  14  38   9
M  END
>  <minimizedAffinity>  (1) 
-5.70043802

>  <minimizedRMSD>  (1) 
0.585839391

$$$$
