
     RDKit          3D

 47 51  0  0  1  0  0  0  0  0999 V2000
   41.7010   35.1880   38.7170 N   0  0  0  0  0  0  0  0  0  0  0  0
   40.6180   34.9290   37.8710 C   0  0  0  0  0  0  0  0  0  0  0  0
   39.9830   33.5680   38.0180 C   0  0  0  0  0  0  0  0  0  0  0  0
   40.9510   32.5720   38.5940 C   0  0  1  0  0  0  0  0  0  0  0  0
   41.2250   33.1130   39.9860 C   0  0  0  0  0  0  0  0  0  0  0  0
   41.9290   34.4020   39.8700 C   0  0  1  0  0  0  0  0  0  0  0  0
   43.3920   34.1510   39.9610 C   0  0  0  0  0  0  0  0  0  0  0  0
   43.9670   33.4500   38.9640 N   0  0  0  0  0  0  0  0  0  0  0  0
   45.2830   33.1780   38.9430 C   0  0  0  0  0  0  0  0  0  0  0  0
   46.0950   33.6110   39.9490 N   0  0  0  0  0  0  0  0  0  0  0  0
   45.5950   34.3160   40.9780 C   0  0  0  0  0  0  0  0  0  0  0  0
   46.3720   34.7740   42.0210 C   0  0  0  0  0  0  0  0  0  0  0  0
   45.7820   35.4880   43.0430 C   0  0  0  0  0  0  0  0  0  0  0  0
   44.4100   35.7660   43.0570 C   0  0  0  0  0  0  0  0  0  0  0  0
   43.6680   35.2870   41.9910 C   0  0  0  0  0  0  0  0  0  0  0  0
   44.2410   34.5740   40.9610 C   0  0  0  0  0  0  0  0  0  0  0  0
   40.3620   30.9060   38.5850 S   0  0  0  0  0  0  0  0  0  0  0  0
   39.9310   30.2540   36.9890 C   0  0  0  0  0  0  0  0  0  0  0  0
   40.9070   29.9510   36.0270 C   0  0  0  0  0  0  0  0  0  0  0  0
   40.4410   29.4410   34.8050 C   0  0  0  0  0  0  0  0  0  0  0  0
   39.1230   29.2670   34.6030 N   0  0  0  0  0  0  0  0  0  0  0  0
   38.2080   29.5700   35.5510 C   0  0  0  0  0  0  0  0  0  0  0  0
   38.5980   30.0630   36.7460 N   0  0  0  0  0  0  0  0  0  0  0  0
   42.3210   30.1250   36.2220 C   0  0  0  0  0  0  0  0  0  0  0  0
   43.1370   29.0900   36.7010 C   0  0  0  0  0  0  0  0  0  0  0  0
   44.3980   29.5380   36.7800 N   0  0  0  0  0  0  0  0  0  0  0  0
   44.4340   30.8100   36.3770 C   0  0  0  0  0  0  0  0  0  0  0  0
   43.1730   31.1150   36.0540 N   0  0  0  0  0  0  0  0  0  0  0  0
   41.5931   36.1595   39.0416 H   0  0  0  0  0  0  0  0  0  0  0  0
   40.9688   35.0278   36.8331 H   0  0  0  0  0  0  0  0  0  0  0  0
   39.8397   35.6545   38.1501 H   0  0  0  0  0  0  0  0  0  0  0  0
   39.1127   33.6491   38.6858 H   0  0  0  0  0  0  0  0  0  0  0  0
   39.6776   33.2182   37.0208 H   0  0  0  0  0  0  0  0  0  0  0  0
   41.8647   32.4849   37.9877 H   0  0  0  0  0  0  0  0  0  0  0  0
   40.2737   33.2590   40.5187 H   0  0  0  0  0  0  0  0  0  0  0  0
   41.8468   32.3992   40.5462 H   0  0  0  0  0  0  0  0  0  0  0  0
   41.5085   34.9971   40.6941 H   0  0  0  0  0  0  0  0  0  0  0  0
   45.7081   32.6018   38.1080 H   0  0  0  0  0  0  0  0  0  0  0  0
   47.4531   34.5717   42.0378 H   0  0  0  0  0  0  0  0  0  0  0  0
   46.4082   35.8498   43.8718 H   0  0  0  0  0  0  0  0  0  0  0  0
   43.9448   36.3366   43.8743 H   0  0  0  0  0  0  0  0  0  0  0  0
   42.5857   35.4821   41.9656 H   0  0  0  0  0  0  0  0  0  0  0  0
   41.1563   29.1829   34.0102 H   0  0  0  0  0  0  0  0  0  0  0  0
   37.1383   29.4138   35.3474 H   0  0  0  0  0  0  0  0  0  0  0  0
   42.7984   28.0780   36.9678 H   0  0  0  0  0  0  0  0  0  0  0  0
   45.3141   31.4676   36.3223 H   0  0  0  0  0  0  0  0  0  0  0  0
   42.8926   32.0425   35.7046 H   0  0  0  0  0  0  0  0  0  0  0  0
  1  6  1  0
  2  3  1  0
  2  1  1  0
  3  4  1  0
  4  5  1  0
  6  7  1  0
  6  5  1  0
  7 16  1  0
  8  7  2  0
  9  8  1  0
  9 10  2  0
 10 11  1  0
 11 12  1  0
 12 13  2  0
 13 14  1  0
 15 14  2  0
 16 11  2  0
 16 15  1  0
 17  4  1  0
 18 17  1  0
 19 24  1  0
 19 18  1  0
 20 19  2  0
 21 20  1  0
 21 22  2  0
 22 23  1  0
 23 18  2  0
 24 25  2  0
 25 26  1  0
 27 26  2  0
 28 24  1  0
 28 27  1  0
  1 29  1  0
  2 30  1  0
  2 31  1  0
  3 32  1  0
  3 33  1  0
  4 34  1  6
  5 35  1  0
  5 36  1  0
  6 37  1  1
  9 38  1  0
 12 39  1  0
 13 40  1  0
 14 41  1  0
 15 42  1  0
 20 43  1  0
 22 44  1  0
 25 45  1  0
 27 46  1  0
 28 47  1  0
M  ISO  8  29   5  30  13  31  13  32  13  33  13  34  13  35  13  36  13
M  ISO  8  37  13  38  14  39  14  40  14  41  14  42  14  43  14  44  14
M  ISO  3  45  14  46  14  47   9
M  END
>  <minimizedAffinity>  (1) 
-5.48480225

>  <minimizedRMSD>  (1) 
7.73965263

$$$$
