
     RDKit          3D

 36 38  0  0  1  0  0  0  0  0999 V2000
   41.9200   33.2790   39.3820 N   0  0  0  0  0  0  0  0  0  0  0  0
   42.5900   32.5540   40.3750 C   0  0  0  0  0  0  0  0  0  0  0  0
   43.2010   33.3880   41.4810 C   0  0  0  0  0  0  0  0  0  0  0  0
   43.4880   34.7910   41.0230 C   0  0  1  0  0  0  0  0  0  0  0  0
   42.0990   35.3560   40.7330 C   0  0  0  0  0  0  0  0  0  0  0  0
   41.5520   34.6190   39.5680 C   0  0  1  0  0  0  0  0  0  0  0  0
   41.9800   35.3940   38.3470 C   0  0  0  0  0  0  0  0  0  0  0  0
   41.2350   36.2860   37.8720 O   0  0  0  0  0  0  0  0  0  0  0  0
   43.1190   35.3580   37.5280 O   0  0  0  0  0  0  0  0  0  0  0  0
   44.4130   35.7550   42.1740 S   0  0  0  0  0  0  0  0  0  0  0  0
   45.3640   34.8300   43.3570 C   0  0  0  0  0  0  0  0  0  0  0  0
   46.6260   34.3030   43.0410 C   0  0  0  0  0  0  0  0  0  0  0  0
   47.2770   33.5920   44.0600 C   0  0  0  0  0  0  0  0  0  0  0  0
   46.6970   33.4430   45.2610 N   0  0  0  0  0  0  0  0  0  0  0  0
   45.4720   33.9660   45.5360 C   0  0  0  0  0  0  0  0  0  0  0  0
   44.8010   34.6590   44.5900 N   0  0  0  0  0  0  0  0  0  0  0  0
   47.2740   34.4500   41.7650 C   0  0  0  0  0  0  0  0  0  0  0  0
   48.3070   35.3790   41.5610 C   0  0  0  0  0  0  0  0  0  0  0  0
   48.7110   35.2910   40.2860 N   0  0  0  0  0  0  0  0  0  0  0  0
   47.9920   34.3570   39.6620 C   0  0  0  0  0  0  0  0  0  0  0  0
   47.1490   33.8850   40.5830 N   0  0  0  0  0  0  0  0  0  0  0  0
   41.0496   32.7645   39.1855 H   0  0  0  0  0  0  0  0  0  0  0  0
   41.8711   31.8577   40.8315 H   0  0  0  0  0  0  0  0  0  0  0  0
   43.4296   32.0519   39.8721 H   0  0  0  0  0  0  0  0  0  0  0  0
   42.5005   33.4255   42.3282 H   0  0  0  0  0  0  0  0  0  0  0  0
   44.1522   32.9219   41.7776 H   0  0  0  0  0  0  0  0  0  0  0  0
   44.1481   34.8100   40.1432 H   0  0  0  0  0  0  0  0  0  0  0  0
   41.4461   35.2147   41.6070 H   0  0  0  0  0  0  0  0  0  0  0  0
   42.1562   36.4332   40.5177 H   0  0  0  0  0  0  0  0  0  0  0  0
   40.4697   34.5539   39.7534 H   0  0  0  0  0  0  0  0  0  0  0  0
   43.1941   35.9746   36.7571 H   0  0  0  0  0  0  0  0  0  0  0  0
   48.2687   33.1540   43.8736 H   0  0  0  0  0  0  0  0  0  0  0  0
   45.0262   33.8244   46.5316 H   0  0  0  0  0  0  0  0  0  0  0  0
   48.7155   36.0632   42.3193 H   0  0  0  0  0  0  0  0  0  0  0  0
   48.0759   34.0424   38.6113 H   0  0  0  0  0  0  0  0  0  0  0  0
   46.4613   33.1439   40.3860 H   0  0  0  0  0  0  0  0  0  0  0  0
  1  6  1  0
  1  2  1  0
  2  3  1  0
  4  3  1  0
  4 10  1  0
  5  4  1  0
  6  5  1  0
  7  6  1  0
  8  7  2  0
  9  7  1  0
 10 11  1  0
 11 16  2  0
 12 11  1  0
 12 13  2  0
 13 14  1  0
 14 15  2  0
 16 15  1  0
 17 12  1  0
 18 17  2  0
 19 18  1  0
 20 19  2  0
 20 21  1  0
 21 17  1  0
  1 22  1  0
  2 23  1  0
  2 24  1  0
  3 25  1  0
  3 26  1  0
  4 27  1  6
  5 28  1  0
  5 29  1  0
  6 30  1  1
  9 31  1  0
 13 32  1  0
 15 33  1  0
 18 34  1  0
 20 35  1  0
 21 36  1  0
M  ISO  8  22   5  23  13  24  13  25  13  26  13  27  13  28  13  29  13
M  ISO  7  30  13  31   3  32  14  33  14  34  14  35  14  36   9
M  END
>  <minimizedAffinity>  (1) 
-5.36510849

>  <minimizedRMSD>  (1) 
0.766698182

$$$$
