
     RDKit          3D

 35 37  0  0  1  0  0  0  0  0999 V2000
   41.5560   33.5730   39.8880 N   0  0  0  0  0  0  0  0  0  0  0  0
   42.5840   32.7940   40.4360 C   0  0  0  0  0  0  0  0  0  0  0  0
   43.4160   33.4790   41.5000 C   0  0  0  0  0  0  0  0  0  0  0  0
   43.3740   34.9760   41.3580 C   0  0  1  0  0  0  0  0  0  0  0  0
   41.9080   35.3080   41.6350 C   0  0  0  0  0  0  0  0  0  0  0  0
   41.1000   34.7240   40.5350 C   0  0  1  0  0  0  0  0  0  0  0  0
   40.9020   35.7950   39.5480 N   0  0  0  0  0  0  0  0  0  0  0  0
   44.5000   35.8310   42.4140 S   0  0  0  0  0  0  0  0  0  0  0  0
   45.4410   34.8120   43.5190 C   0  0  0  0  0  0  0  0  0  0  0  0
   46.6780   34.2560   43.1400 C   0  0  0  0  0  0  0  0  0  0  0  0
   47.3310   33.4680   44.1010 C   0  0  0  0  0  0  0  0  0  0  0  0
   46.7720   33.2770   45.3080 N   0  0  0  0  0  0  0  0  0  0  0  0
   45.5790   33.8250   45.6410 C   0  0  0  0  0  0  0  0  0  0  0  0
   44.9050   34.5950   44.7540 N   0  0  0  0  0  0  0  0  0  0  0  0
   47.2970   34.4500   41.8560 C   0  0  0  0  0  0  0  0  0  0  0  0
   48.3320   35.3790   41.6690 C   0  0  0  0  0  0  0  0  0  0  0  0
   48.7120   35.3420   40.3820 N   0  0  0  0  0  0  0  0  0  0  0  0
   47.9730   34.4370   39.7380 C   0  0  0  0  0  0  0  0  0  0  0  0
   47.1450   33.9320   40.6560 N   0  0  0  0  0  0  0  0  0  0  0  0
   41.8791   33.8699   38.9561 H   0  0  0  0  0  0  0  0  0  0  0  0
   42.1298   31.8979   40.8839 H   0  0  0  0  0  0  0  0  0  0  0  0
   43.2723   32.5709   39.6074 H   0  0  0  0  0  0  0  0  0  0  0  0
   43.0255   33.2034   42.4907 H   0  0  0  0  0  0  0  0  0  0  0  0
   44.4598   33.1518   41.3839 H   0  0  0  0  0  0  0  0  0  0  0  0
   43.7073   35.3096   40.3642 H   0  0  0  0  0  0  0  0  0  0  0  0
   41.6005   34.8737   42.5977 H   0  0  0  0  0  0  0  0  0  0  0  0
   41.7614   36.3970   41.6859 H   0  0  0  0  0  0  0  0  0  0  0  0
   40.1866   34.3541   41.0236 H   0  0  0  0  0  0  0  0  0  0  0  0
   40.7372   36.6864   40.0370 H   0  0  0  0  0  0  0  0  0  0  0  0
   41.7420   35.8774   38.9577 H   0  0  0  0  0  0  0  0  0  0  0  0
   48.3013   33.0064   43.8657 H   0  0  0  0  0  0  0  0  0  0  0  0
   45.1544   33.6433   46.6393 H   0  0  0  0  0  0  0  0  0  0  0  0
   48.7601   36.0286   42.4466 H   0  0  0  0  0  0  0  0  0  0  0  0
   48.0331   34.1641   38.6741 H   0  0  0  0  0  0  0  0  0  0  0  0
   46.4497   33.2024   40.4437 H   0  0  0  0  0  0  0  0  0  0  0  0
  1  2  1  0
  1  6  1  0
  2  3  1  0
  4  3  1  0
  4  5  1  0
  4  8  1  0
  6  5  1  0
  7  6  1  0
  8  9  1  0
  9 14  2  0
 10  9  1  0
 10 11  2  0
 11 12  1  0
 12 13  2  0
 14 13  1  0
 15 10  1  0
 16 15  2  0
 17 16  1  0
 18 17  2  0
 18 19  1  0
 19 15  1  0
  1 20  1  0
  2 21  1  0
  2 22  1  0
  3 23  1  0
  3 24  1  0
  4 25  1  6
  5 26  1  0
  5 27  1  0
  6 28  1  1
  7 29  1  0
  7 30  1  0
 11 31  1  0
 13 32  1  0
 16 33  1  0
 18 34  1  0
 19 35  1  0
M  ISO  8  20   5  21  13  22  13  23  13  24  13  25  13  26  13  27  13
M  ISO  8  28  13  29   5  30   5  31  14  32  14  33  14  34  14  35   9
M  END
>  <minimizedAffinity>  (1) 
-4.8940711

>  <minimizedRMSD>  (1) 
0.520912349

$$$$
