
     RDKit          3D

 40 43  0  0  1  0  0  0  0  0999 V2000
   41.9000   32.3850   39.8830 N   0  0  0  0  0  0  0  0  0  0  0  0
   42.8240   31.7760   40.7420 C   0  0  0  0  0  0  0  0  0  0  0  0
   43.4290   32.6690   41.8010 C   0  0  0  0  0  0  0  0  0  0  0  0
   43.3830   34.1160   41.3930 C   0  0  1  0  0  0  0  0  0  0  0  0
   41.8890   34.4170   41.3330 C   0  0  0  0  0  0  0  0  0  0  0  0
   41.3180   33.6190   40.2310 C   0  0  1  0  0  0  0  0  0  0  0  0
   41.1480   34.5600   39.0450 C   0  0  0  0  0  0  0  0  0  0  0  0
   42.0070   35.4830   38.6310 C   0  0  0  0  0  0  0  0  0  0  0  0
   41.7940   36.2830   37.5760 C   0  0  0  0  0  0  0  0  0  0  0  0
   40.5540   36.0350   36.9550 C   0  0  0  0  0  0  0  0  0  0  0  0
   39.7860   34.6290   37.9760 S   0  0  0  0  0  0  0  0  0  0  0  0
   44.2730   35.2100   42.4720 S   0  0  0  0  0  0  0  0  0  0  0  0
   45.3880   34.4170   43.6040 C   0  0  0  0  0  0  0  0  0  0  0  0
   46.6660   33.9830   43.1900 C   0  0  0  0  0  0  0  0  0  0  0  0
   47.4630   33.3690   44.1710 C   0  0  0  0  0  0  0  0  0  0  0  0
   46.9970   33.2220   45.4240 N   0  0  0  0  0  0  0  0  0  0  0  0
   45.7550   33.6560   45.7830 C   0  0  0  0  0  0  0  0  0  0  0  0
   44.9510   34.2520   44.8800 N   0  0  0  0  0  0  0  0  0  0  0  0
   47.1890   34.1310   41.8590 C   0  0  0  0  0  0  0  0  0  0  0  0
   48.1160   35.1310   41.5360 C   0  0  0  0  0  0  0  0  0  0  0  0
   48.4230   35.0260   40.2320 N   0  0  0  0  0  0  0  0  0  0  0  0
   47.7390   34.0090   39.7070 C   0  0  0  0  0  0  0  0  0  0  0  0
   47.0180   33.5070   40.7140 N   0  0  0  0  0  0  0  0  0  0  0  0
   41.1262   31.7168   39.7577 H   0  0  0  0  0  0  0  0  0  0  0  0
   42.3134   30.9461   41.2524 H   0  0  0  0  0  0  0  0  0  0  0  0
   43.6624   31.4619   40.1029 H   0  0  0  0  0  0  0  0  0  0  0  0
   42.8669   32.5437   42.7382 H   0  0  0  0  0  0  0  0  0  0  0  0
   44.4822   32.3812   41.9350 H   0  0  0  0  0  0  0  0  0  0  0  0
   43.8944   34.2857   40.4340 H   0  0  0  0  0  0  0  0  0  0  0  0
   41.4117   34.1389   42.2842 H   0  0  0  0  0  0  0  0  0  0  0  0
   41.7172   35.4901   41.1627 H   0  0  0  0  0  0  0  0  0  0  0  0
   40.3648   33.2286   40.6169 H   0  0  0  0  0  0  0  0  0  0  0  0
   42.9496   35.5987   39.1861 H   0  0  0  0  0  0  0  0  0  0  0  0
   42.5075   37.0471   37.2339 H   0  0  0  0  0  0  0  0  0  0  0  0
   40.1268   36.5413   36.0769 H   0  0  0  0  0  0  0  0  0  0  0  0
   48.4697   33.0080   43.9137 H   0  0  0  0  0  0  0  0  0  0  0  0
   45.4066   33.5187   46.8173 H   0  0  0  0  0  0  0  0  0  0  0  0
   48.5242   35.8773   42.2334 H   0  0  0  0  0  0  0  0  0  0  0  0
   47.7631   33.6574   38.6650 H   0  0  0  0  0  0  0  0  0  0  0  0
   46.3844   32.7025   40.6032 H   0  0  0  0  0  0  0  0  0  0  0  0
  1  6  1  0
  1  2  1  0
  2  3  1  0
  4  3  1  0
  4 12  1  0
  5  4  1  0
  6  5  1  0
  7  6  1  0
  8  7  2  0
  9  8  1  0
 10  9  2  0
 10 11  1  0
 11  7  1  0
 12 13  1  0
 13 18  2  0
 14 13  1  0
 14 15  2  0
 15 16  1  0
 16 17  2  0
 18 17  1  0
 19 14  1  0
 20 19  2  0
 21 20  1  0
 22 21  2  0
 22 23  1  0
 23 19  1  0
  1 24  1  0
  2 25  1  0
  2 26  1  0
  3 27  1  0
  3 28  1  0
  4 29  1  6
  5 30  1  0
  5 31  1  0
  6 32  1  1
  8 33  1  0
  9 34  1  0
 10 35  1  0
 15 36  1  0
 17 37  1  0
 20 38  1  0
 22 39  1  0
 23 40  1  0
M  ISO  8  24   5  25  13  26  13  27  13  28  13  29  13  30  13  31  13
M  ISO  8  32  13  33  14  34  14  35  14  36  14  37  14  38  14  39  14
M  ISO  1  40   9
M  END
>  <minimizedAffinity>  (1) 
-5.06616306

>  <minimizedRMSD>  (1) 
1.41864085

$$$$
