
     RDKit          3D

 30 32  0  0  0  0  0  0  0  0999 V2000
   46.6830   34.7540   42.0550 C   0  0  0  0  0  0  0  0  0  0  0  0
   47.9690   35.2390   41.9640 C   0  0  0  0  0  0  0  0  0  0  0  0
   48.6520   35.0890   40.7670 C   0  0  0  0  0  0  0  0  0  0  0  0
   48.0920   34.4740   39.6700 C   0  0  0  0  0  0  0  0  0  0  0  0
   46.7990   33.9900   39.7720 C   0  0  0  0  0  0  0  0  0  0  0  0
   46.1140   34.1340   40.9560 C   0  0  0  0  0  0  0  0  0  0  0  0
   45.4670   34.0940   45.4190 C   0  0  0  0  0  0  0  0  0  0  0  0
   44.6360   35.1750   45.7150 C   0  0  0  0  0  0  0  0  0  0  0  0
   44.4950   36.1580   44.7220 C   0  0  0  0  0  0  0  0  0  0  0  0
   45.1670   36.0030   43.5470 N   0  0  0  0  0  0  0  0  0  0  0  0
   45.9670   34.9260   43.3110 C   0  0  0  0  0  0  0  0  0  0  0  0
   46.1120   33.9820   44.2420 N   0  0  0  0  0  0  0  0  0  0  0  0
   44.7540   33.6120   41.0240 C   0  0  0  0  0  0  0  0  0  0  0  0
   44.2880   32.4070   41.5030 C   0  0  0  0  0  0  0  0  0  0  0  0
   42.9420   32.1380   41.4590 C   0  0  0  0  0  0  0  0  0  0  0  0
   42.0290   33.0170   40.9580 C   0  0  0  0  0  0  0  0  0  0  0  0
   42.4820   34.2320   40.4730 C   0  0  0  0  0  0  0  0  0  0  0  0
   43.8470   34.5370   40.5020 C   0  0  0  0  0  0  0  0  0  0  0  0
   48.4441   35.7350   42.8232 H   0  0  0  0  0  0  0  0  0  0  0  0
   49.6790   35.4755   40.6909 H   0  0  0  0  0  0  0  0  0  0  0  0
   48.6593   34.3695   38.7334 H   0  0  0  0  0  0  0  0  0  0  0  0
   46.3232   33.4942   38.9130 H   0  0  0  0  0  0  0  0  0  0  0  0
   45.6001   33.3051   46.1739 H   0  0  0  0  0  0  0  0  0  0  0  0
   44.1156   35.2536   46.6809 H   0  0  0  0  0  0  0  0  0  0  0  0
   43.8543   37.0363   44.8897 H   0  0  0  0  0  0  0  0  0  0  0  0
   44.9883   31.6667   41.9172 H   0  0  0  0  0  0  0  0  0  0  0  0
   42.5855   31.1715   41.8447 H   0  0  0  0  0  0  0  0  0  0  0  0
   40.9579   32.7671   40.9394 H   0  0  0  0  0  0  0  0  0  0  0  0
   41.7662   34.9600   40.0635 H   0  0  0  0  0  0  0  0  0  0  0  0
   44.2049   35.5024   40.1149 H   0  0  0  0  0  0  0  0  0  0  0  0
  1 11  1  0
  2  1  2  0
  3  2  1  0
  4  5  1  0
  4  3  2  0
  5  6  2  0
  6 13  1  0
  6  1  1  0
  7  8  2  0
  9  8  1  0
 10  9  2  0
 11 10  1  0
 11 12  2  0
 12  7  1  0
 13 14  2  0
 15 14  1  0
 16 15  2  0
 17 18  2  0
 17 16  1  0
 18 13  1  0
  2 19  1  0
  3 20  1  0
  4 21  1  0
  5 22  1  0
  7 23  1  0
  8 24  1  0
  9 25  1  0
 14 26  1  0
 15 27  1  0
 16 28  1  0
 17 29  1  0
 18 30  1  0
M  ISO  8  19  14  20  14  21  14  22  14  23  14  24  14  25  14  26  14
M  ISO  4  27  14  28  14  29  14  30  14
M  END
>  <minimizedAffinity>  (1) 
-5.64141941

>  <minimizedRMSD>  (1) 
0.434669077

$$$$
