
     RDKit          3D

 36 39  0  0  0  0  0  0  0  0999 V2000
   46.6130   34.6040   42.1530 C   0  0  0  0  0  0  0  0  0  0  0  0
   47.8020   35.2780   41.9440 C   0  0  0  0  0  0  0  0  0  0  0  0
   48.4510   35.1260   40.7260 C   0  0  0  0  0  0  0  0  0  0  0  0
   47.9520   34.3290   39.7240 C   0  0  0  0  0  0  0  0  0  0  0  0
   46.7620   33.6630   39.9500 C   0  0  0  0  0  0  0  0  0  0  0  0
   46.1070   33.8010   41.1470 C   0  0  0  0  0  0  0  0  0  0  0  0
   44.8530   33.0760   41.3350 C   0  0  0  0  0  0  0  0  0  0  0  0
   44.8780   31.7910   41.8380 C   0  0  0  0  0  0  0  0  0  0  0  0
   43.7420   31.0350   42.0450 C   0  0  0  0  0  0  0  0  0  0  0  0
   42.5070   31.5930   41.7330 C   0  0  0  0  0  0  0  0  0  0  0  0
   42.4740   32.8790   41.2280 C   0  0  0  0  0  0  0  0  0  0  0  0
   41.2310   33.4180   40.9230 C   0  0  0  0  0  0  0  0  0  0  0  0
   41.1690   34.6900   40.4220 C   0  0  0  0  0  0  0  0  0  0  0  0
   42.3300   35.4390   40.2190 C   0  0  0  0  0  0  0  0  0  0  0  0
   43.5770   34.8870   40.5310 C   0  0  0  0  0  0  0  0  0  0  0  0
   43.6230   33.6190   41.0290 C   0  0  0  0  0  0  0  0  0  0  0  0
   45.6050   33.9490   45.6000 C   0  0  0  0  0  0  0  0  0  0  0  0
   44.7150   34.9800   45.9060 C   0  0  0  0  0  0  0  0  0  0  0  0
   44.4690   35.9130   44.8880 C   0  0  0  0  0  0  0  0  0  0  0  0
   45.0900   35.7670   43.6950 N   0  0  0  0  0  0  0  0  0  0  0  0
   45.9410   34.7680   43.4300 C   0  0  0  0  0  0  0  0  0  0  0  0
   46.1970   33.8560   44.3870 N   0  0  0  0  0  0  0  0  0  0  0  0
   48.2259   35.9226   42.7281 H   0  0  0  0  0  0  0  0  0  0  0  0
   49.3968   35.6618   40.5574 H   0  0  0  0  0  0  0  0  0  0  0  0
   48.4852   34.2238   38.7677 H   0  0  0  0  0  0  0  0  0  0  0  0
   46.3381   33.0189   39.1655 H   0  0  0  0  0  0  0  0  0  0  0  0
   45.8531   31.3467   42.0866 H   0  0  0  0  0  0  0  0  0  0  0  0
   43.8119   30.0138   42.4478 H   0  0  0  0  0  0  0  0  0  0  0  0
   41.5779   31.0240   41.8847 H   0  0  0  0  0  0  0  0  0  0  0  0
   40.3129   32.8331   41.0812 H   0  0  0  0  0  0  0  0  0  0  0  0
   40.1908   35.1287   40.1757 H   0  0  0  0  0  0  0  0  0  0  0  0
   42.2642   36.4600   39.8150 H   0  0  0  0  0  0  0  0  0  0  0  0
   44.5009   35.4640   40.3777 H   0  0  0  0  0  0  0  0  0  0  0  0
   45.8310   33.1920   46.3655 H   0  0  0  0  0  0  0  0  0  0  0  0
   44.2329   35.0565   46.8918 H   0  0  0  0  0  0  0  0  0  0  0  0
   43.7795   36.7532   45.0576 H   0  0  0  0  0  0  0  0  0  0  0  0
  1 21  1  0
  2  1  2  0
  3  2  1  0
  4  5  1  0
  4  3  2  0
  5  6  2  0
  6  7  1  0
  6  1  1  0
  7  8  2  0
  8  9  1  0
 10  9  2  0
 11 10  1  0
 12 11  2  0
 13 12  1  0
 14 13  2  0
 14 15  1  0
 15 16  2  0
 16 11  1  0
 16  7  1  0
 17 18  2  0
 19 18  1  0
 20 19  2  0
 21 20  1  0
 21 22  2  0
 22 17  1  0
  2 23  1  0
  3 24  1  0
  4 25  1  0
  5 26  1  0
  8 27  1  0
  9 28  1  0
 10 29  1  0
 12 30  1  0
 13 31  1  0
 14 32  1  0
 15 33  1  0
 17 34  1  0
 18 35  1  0
 19 36  1  0
M  ISO  8  23  14  24  14  25  14  26  14  27  14  28  14  29  14  30  14
M  ISO  6  31  14  32  14  33  14  34  14  35  14  36  14
M  END
>  <minimizedAffinity>  (1) 
-6.39351082

>  <minimizedRMSD>  (1) 
1.17180109

$$$$
