
     RDKit          3D

 30 32  0  0  0  0  0  0  0  0999 V2000
   46.5960   34.6300   42.1440 C   0  0  0  0  0  0  0  0  0  0  0  0
   47.8590   35.2130   41.9920 C   0  0  0  0  0  0  0  0  0  0  0  0
   48.5070   35.0640   40.7690 C   0  0  0  0  0  0  0  0  0  0  0  0
   47.9350   34.3590   39.7120 C   0  0  0  0  0  0  0  0  0  0  0  0
   46.7010   33.8010   39.8920 C   0  0  0  0  0  0  0  0  0  0  0  0
   46.0500   33.9400   41.0920 C   0  0  0  0  0  0  0  0  0  0  0  0
   45.5600   33.9380   45.5690 C   0  0  0  0  0  0  0  0  0  0  0  0
   44.6930   35.0110   45.8860 C   0  0  0  0  0  0  0  0  0  0  0  0
   44.4810   35.9730   44.8860 C   0  0  0  0  0  0  0  0  0  0  0  0
   45.1100   35.8140   43.7000 N   0  0  0  0  0  0  0  0  0  0  0  0
   45.9270   34.7900   43.4220 C   0  0  0  0  0  0  0  0  0  0  0  0
   46.1560   33.8440   44.3600 N   0  0  0  0  0  0  0  0  0  0  0  0
   44.7650   33.3400   41.2290 N   0  0  0  0  0  0  0  0  0  0  0  0
   44.5210   32.0600   41.6320 C   0  0  0  0  0  0  0  0  0  0  0  0
   43.2520   31.5680   41.7350 C   0  0  0  0  0  0  0  0  0  0  0  0
   42.1730   32.3680   41.4270 C   0  0  0  0  0  0  0  0  0  0  0  0
   40.9990   31.8980   41.5270 O   0  0  0  0  0  0  0  0  0  0  0  0
   42.4190   33.6250   41.0310 N   0  0  0  0  0  0  0  0  0  0  0  0
   43.6740   34.0820   40.9390 C   0  0  0  0  0  0  0  0  0  0  0  0
   43.7470   35.2940   40.5500 O   0  0  0  0  0  0  0  0  0  0  0  0
   48.3264   35.7730   42.8154 H   0  0  0  0  0  0  0  0  0  0  0  0
   49.5004   35.5164   40.6330 H   0  0  0  0  0  0  0  0  0  0  0  0
   48.4652   34.2540   38.7539 H   0  0  0  0  0  0  0  0  0  0  0  0
   46.2282   33.2390   39.0731 H   0  0  0  0  0  0  0  0  0  0  0  0
   45.7531   33.1624   46.3247 H   0  0  0  0  0  0  0  0  0  0  0  0
   44.2079   35.0875   46.8703 H   0  0  0  0  0  0  0  0  0  0  0  0
   43.8199   36.8342   45.0629 H   0  0  0  0  0  0  0  0  0  0  0  0
   45.3701   31.4064   41.8808 H   0  0  0  0  0  0  0  0  0  0  0  0
   43.0903   30.5310   42.0645 H   0  0  0  0  0  0  0  0  0  0  0  0
   41.6327   34.2469   40.7946 H   0  0  0  0  0  0  0  0  0  0  0  0
  1 11  1  0
  2  1  2  0
  3  2  1  0
  4  5  1  0
  4  3  2  0
  5  6  2  0
  6 13  1  0
  6  1  1  0
  7  8  2  0
  9  8  1  0
 10  9  2  0
 11 10  1  0
 11 12  2  0
 12  7  1  0
 13 14  1  0
 14 15  2  0
 16 17  2  0
 16 15  1  0
 18 16  1  0
 19 18  1  0
 19 13  1  0
 20 19  2  0
  2 21  1  0
  3 22  1  0
  4 23  1  0
  5 24  1  0
  7 25  1  0
  8 26  1  0
  9 27  1  0
 14 28  1  0
 15 29  1  0
 18 30  1  0
M  ISO  8  21  14  22  14  23  14  24  14  25  14  26  14  27  14  28  14
M  ISO  2  29  14  30   9
M  END
>  <minimizedAffinity>  (1) 
-5.81714678

>  <minimizedRMSD>  (1) 
1.02087605

$$$$
