
     RDKit          3D

 33 36  0  0  0  0  0  0  0  0999 V2000
   46.6630   34.6270   42.1580 C   0  0  0  0  0  0  0  0  0  0  0  0
   47.8570   35.2930   41.9870 C   0  0  0  0  0  0  0  0  0  0  0  0
   48.5010   35.1570   40.7580 C   0  0  0  0  0  0  0  0  0  0  0  0
   47.9910   34.3910   39.7260 C   0  0  0  0  0  0  0  0  0  0  0  0
   46.8070   33.7450   39.9290 C   0  0  0  0  0  0  0  0  0  0  0  0
   46.1510   33.8590   41.1240 C   0  0  0  0  0  0  0  0  0  0  0  0
   45.6010   33.9300   45.5810 C   0  0  0  0  0  0  0  0  0  0  0  0
   44.7200   34.9680   45.8900 C   0  0  0  0  0  0  0  0  0  0  0  0
   44.4870   35.9350   44.8820 C   0  0  0  0  0  0  0  0  0  0  0  0
   45.1280   35.7960   43.6920 N   0  0  0  0  0  0  0  0  0  0  0  0
   45.9780   34.7640   43.4460 C   0  0  0  0  0  0  0  0  0  0  0  0
   46.2130   33.8410   44.3800 N   0  0  0  0  0  0  0  0  0  0  0  0
   44.9070   33.1650   41.3050 N   0  0  0  0  0  0  0  0  0  0  0  0
   44.5850   31.9080   41.7100 C   0  0  0  0  0  0  0  0  0  0  0  0
   43.2430   31.7960   41.6940 N   0  0  0  0  0  0  0  0  0  0  0  0
   42.7230   32.9600   41.2860 C   0  0  0  0  0  0  0  0  0  0  0  0
   41.3660   33.2560   41.1330 C   0  0  0  0  0  0  0  0  0  0  0  0
   41.1050   34.5200   40.7030 N   0  0  0  0  0  0  0  0  0  0  0  0
   42.1330   35.3830   40.4570 C   0  0  0  0  0  0  0  0  0  0  0  0
   43.4360   35.0880   40.6070 N   0  0  0  0  0  0  0  0  0  0  0  0
   43.7450   33.8330   41.0370 C   0  0  0  0  0  0  0  0  0  0  0  0
   40.3510   32.3070   41.4090 N   0  0  0  0  0  0  0  0  0  0  0  0
   48.2863   35.9093   42.7906 H   0  0  0  0  0  0  0  0  0  0  0  0
   49.4554   35.6814   40.6027 H   0  0  0  0  0  0  0  0  0  0  0  0
   48.5251   34.3050   38.7682 H   0  0  0  0  0  0  0  0  0  0  0  0
   46.3767   33.1281   39.1263 H   0  0  0  0  0  0  0  0  0  0  0  0
   45.8033   33.1598   46.3399 H   0  0  0  0  0  0  0  0  0  0  0  0
   44.2289   35.0318   46.8722 H   0  0  0  0  0  0  0  0  0  0  0  0
   43.8034   36.7786   45.0582 H   0  0  0  0  0  0  0  0  0  0  0  0
   45.2960   31.1203   42.0000 H   0  0  0  0  0  0  0  0  0  0  0  0
   41.8766   36.3949   40.1103 H   0  0  0  0  0  0  0  0  0  0  0  0
   39.3607   32.5612   41.2846 H   0  0  0  0  0  0  0  0  0  0  0  0
   40.6034   31.3628   41.7341 H   0  0  0  0  0  0  0  0  0  0  0  0
  1 11  1  0
  2  1  2  0
  3  2  1  0
  4  5  1  0
  4  3  2  0
  5  6  2  0
  6 13  1  0
  6  1  1  0
  7  8  2  0
  9  8  1  0
 10  9  2  0
 11 10  1  0
 11 12  2  0
 12  7  1  0
 13 14  1  0
 15 14  2  0
 16 15  1  0
 17 16  2  0
 17 22  1  0
 18 17  1  0
 19 20  1  0
 19 18  2  0
 20 21  2  0
 21 16  1  0
 21 13  1  0
  2 23  1  0
  3 24  1  0
  4 25  1  0
  5 26  1  0
  7 27  1  0
  8 28  1  0
  9 29  1  0
 14 30  1  0
 19 31  1  0
 22 32  1  0
 22 33  1  0
M  ISO  8  23  14  24  14  25  14  26  14  27  14  28  14  29  14  30  14
M  ISO  1  31  14
M  END
>  <minimizedAffinity>  (1) 
-6.36369276

>  <minimizedRMSD>  (1) 
0.56943202

$$$$
