
     RDKit          3D

 31 34  0  0  0  0  0  0  0  0999 V2000
   46.7390   34.6440   42.1000 C   0  0  0  0  0  0  0  0  0  0  0  0
   47.9300   35.3380   41.9360 C   0  0  0  0  0  0  0  0  0  0  0  0
   48.5990   35.2430   40.7260 C   0  0  0  0  0  0  0  0  0  0  0  0
   48.1190   34.4820   39.6820 C   0  0  0  0  0  0  0  0  0  0  0  0
   46.9460   33.8060   39.8610 C   0  0  0  0  0  0  0  0  0  0  0  0
   46.2750   33.8910   41.0500 C   0  0  0  0  0  0  0  0  0  0  0  0
   45.0550   33.1660   41.1840 N   0  0  0  0  0  0  0  0  0  0  0  0
   44.7610   31.9250   41.5790 C   0  0  0  0  0  0  0  0  0  0  0  0
   43.4440   31.7140   41.5300 N   0  0  0  0  0  0  0  0  0  0  0  0
   42.8310   32.8460   41.0890 C   0  0  0  0  0  0  0  0  0  0  0  0
   41.5060   33.1110   40.8780 C   0  0  0  0  0  0  0  0  0  0  0  0
   41.2400   34.3450   40.4330 N   0  0  0  0  0  0  0  0  0  0  0  0
   42.2200   35.2410   40.2190 C   0  0  0  0  0  0  0  0  0  0  0  0
   43.5130   34.9590   40.4340 N   0  0  0  0  0  0  0  0  0  0  0  0
   43.8790   33.7470   40.8790 C   0  0  0  0  0  0  0  0  0  0  0  0
   44.5430   35.9270   44.7070 C   0  0  0  0  0  0  0  0  0  0  0  0
   44.6960   35.0270   45.7660 C   0  0  0  0  0  0  0  0  0  0  0  0
   45.5790   33.9550   45.5650 C   0  0  0  0  0  0  0  0  0  0  0  0
   46.2100   33.8780   44.3730 N   0  0  0  0  0  0  0  0  0  0  0  0
   46.0490   34.7520   43.3720 C   0  0  0  0  0  0  0  0  0  0  0  0
   45.2130   35.7780   43.5430 N   0  0  0  0  0  0  0  0  0  0  0  0
   48.3359   35.9530   42.7527 H   0  0  0  0  0  0  0  0  0  0  0  0
   49.5429   35.7923   40.5947 H   0  0  0  0  0  0  0  0  0  0  0  0
   48.6663   34.4207   38.7298 H   0  0  0  0  0  0  0  0  0  0  0  0
   46.5389   33.1904   39.0454 H   0  0  0  0  0  0  0  0  0  0  0  0
   45.5025   31.1788   41.9007 H   0  0  0  0  0  0  0  0  0  0  0  0
   40.7178   32.3657   41.0604 H   0  0  0  0  0  0  0  0  0  0  0  0
   41.9505   36.2430   39.8538 H   0  0  0  0  0  0  0  0  0  0  0  0
   43.8583   36.7799   44.8246 H   0  0  0  0  0  0  0  0  0  0  0  0
   44.1498   35.1533   46.7124 H   0  0  0  0  0  0  0  0  0  0  0  0
   45.7512   33.2041   46.3501 H   0  0  0  0  0  0  0  0  0  0  0  0
  1 20  1  0
  2  1  2  0
  3  2  1  0
  4  5  1  0
  4  3  2  0
  5  6  2  0
  6  7  1  0
  6  1  1  0
  7  8  1  0
  9  8  2  0
 10  9  1  0
 11 10  2  0
 12 11  1  0
 13 12  2  0
 13 14  1  0
 14 15  2  0
 15 10  1  0
 15  7  1  0
 16 17  2  0
 18 17  1  0
 19 18  2  0
 20 21  2  0
 20 19  1  0
 21 16  1  0
  2 22  1  0
  3 23  1  0
  4 24  1  0
  5 25  1  0
  8 26  1  0
 11 27  1  0
 13 28  1  0
 16 29  1  0
 17 30  1  0
 18 31  1  0
M  ISO  8  22  14  23  14  24  14  25  14  26  14  27  14  28  14  29  14
M  ISO  2  30  14  31  14
M  END
>  <minimizedAffinity>  (1) 
-6.13639307

>  <minimizedRMSD>  (1) 
2.21543884

$$$$
