
     RDKit          3D

 33 35  0  0  0  0  0  0  0  0999 V2000
   46.7740   34.7880   41.9740 C   0  0  0  0  0  0  0  0  0  0  0  0
   48.0600   35.3060   41.9160 C   0  0  0  0  0  0  0  0  0  0  0  0
   48.7630   35.1580   40.7190 C   0  0  0  0  0  0  0  0  0  0  0  0
   48.2520   34.5340   39.6100 C   0  0  0  0  0  0  0  0  0  0  0  0
   46.9660   34.0280   39.6990 C   0  0  0  0  0  0  0  0  0  0  0  0
   46.2590   34.1640   40.8680 C   0  0  0  0  0  0  0  0  0  0  0  0
   45.5340   34.0660   45.3270 C   0  0  0  0  0  0  0  0  0  0  0  0
   44.6560   35.1430   45.6000 C   0  0  0  0  0  0  0  0  0  0  0  0
   44.5020   36.1280   44.5940 C   0  0  0  0  0  0  0  0  0  0  0  0
   45.1980   35.9810   43.4360 N   0  0  0  0  0  0  0  0  0  0  0  0
   46.0310   34.9350   43.2090 C   0  0  0  0  0  0  0  0  0  0  0  0
   46.1790   34.0060   44.1540 N   0  0  0  0  0  0  0  0  0  0  0  0
   44.9530   33.6050   40.8480 N   0  0  0  0  0  0  0  0  0  0  0  0
   43.9440   33.2880   41.8410 C   0  0  0  0  0  0  0  0  0  0  0  0
   42.6960   34.0600   41.5010 C   0  0  0  0  0  0  0  0  0  0  0  0
   42.4400   34.0860   40.1430 O   0  0  0  0  0  0  0  0  0  0  0  0
   43.0890   33.0580   39.4590 C   0  0  0  0  0  0  0  0  0  0  0  0
   44.5750   33.2880   39.4630 C   0  0  0  0  0  0  0  0  0  0  0  0
   48.5092   35.8147   42.7817 H   0  0  0  0  0  0  0  0  0  0  0  0
   49.7835   35.5645   40.6623 H   0  0  0  0  0  0  0  0  0  0  0  0
   48.8407   34.4391   38.6856 H   0  0  0  0  0  0  0  0  0  0  0  0
   46.5124   33.5188   38.8359 H   0  0  0  0  0  0  0  0  0  0  0  0
   45.6867   33.2777   46.0788 H   0  0  0  0  0  0  0  0  0  0  0  0
   44.1151   35.2118   46.5554 H   0  0  0  0  0  0  0  0  0  0  0  0
   43.8360   36.9901   44.7461 H   0  0  0  0  0  0  0  0  0  0  0  0
   43.7311   32.2089   41.8253 H   0  0  0  0  0  0  0  0  0  0  0  0
   44.2990   33.5598   42.8461 H   0  0  0  0  0  0  0  0  0  0  0  0
   41.8418   33.5912   42.0115 H   0  0  0  0  0  0  0  0  0  0  0  0
   42.8464   35.0984   41.8314 H   0  0  0  0  0  0  0  0  0  0  0  0
   42.7287   33.0289   38.4201 H   0  0  0  0  0  0  0  0  0  0  0  0
   42.8727   32.1022   39.9587 H   0  0  0  0  0  0  0  0  0  0  0  0
   45.0992   32.3817   39.1256 H   0  0  0  0  0  0  0  0  0  0  0  0
   44.8490   34.1073   38.7821 H   0  0  0  0  0  0  0  0  0  0  0  0
  1 11  1  0
  2  1  2  0
  3  2  1  0
  4  5  1  0
  4  3  2  0
  5  6  2  0
  6  1  1  0
  7  8  2  0
  9  8  1  0
 10  9  2  0
 11 10  1  0
 11 12  2  0
 12  7  1  0
 13  6  1  0
 13 14  1  0
 15 14  1  0
 16 15  1  0
 17 18  1  0
 17 16  1  0
 18 13  1  0
  2 19  1  0
  3 20  1  0
  4 21  1  0
  5 22  1  0
  7 23  1  0
  8 24  1  0
  9 25  1  0
 14 26  1  0
 14 27  1  0
 15 28  1  0
 15 29  1  0
 17 30  1  0
 17 31  1  0
 18 32  1  0
 18 33  1  0
M  ISO  8  19  14  20  14  21  14  22  14  23  14  24  14  25  14  26  13
M  ISO  7  27  13  28  13  29  13  30  13  31  13  32  13  33  13
M  END
>  <minimizedAffinity>  (1) 
-5.49684715

>  <minimizedRMSD>  (1) 
0.394142389

$$$$
