
     RDKit          3D

 32 34  0  0  0  0  0  0  0  0999 V2000
   46.8250   34.7920   41.9520 C   0  0  0  0  0  0  0  0  0  0  0  0
   48.0800   35.3940   41.8790 C   0  0  0  0  0  0  0  0  0  0  0  0
   48.8110   35.2850   40.7090 C   0  0  0  0  0  0  0  0  0  0  0  0
   48.3230   34.5900   39.6060 C   0  0  0  0  0  0  0  0  0  0  0  0
   47.0840   34.0020   39.6940 C   0  0  0  0  0  0  0  0  0  0  0  0
   46.3530   34.1080   40.8530 C   0  0  0  0  0  0  0  0  0  0  0  0
   45.5990   34.0440   45.3000 C   0  0  0  0  0  0  0  0  0  0  0  0
   44.6940   35.0740   45.5740 C   0  0  0  0  0  0  0  0  0  0  0  0
   44.5090   36.0520   44.5680 C   0  0  0  0  0  0  0  0  0  0  0  0
   45.2080   35.9320   43.4160 N   0  0  0  0  0  0  0  0  0  0  0  0
   46.0770   34.9190   43.1860 C   0  0  0  0  0  0  0  0  0  0  0  0
   46.2640   33.9880   44.1260 N   0  0  0  0  0  0  0  0  0  0  0  0
   45.0730   33.4830   40.9020 N   0  0  0  0  0  0  0  0  0  0  0  0
   44.8660   32.1090   41.3460 C   0  0  0  0  0  0  0  0  0  0  0  0
   43.5380   32.1780   42.0710 C   0  0  0  0  0  0  0  0  0  0  0  0
   42.7700   33.3080   41.3920 C   0  0  0  0  0  0  0  0  0  0  0  0
   43.7640   34.0400   40.5430 C   0  0  0  0  0  0  0  0  0  0  0  0
   48.4837   35.9480   42.7393 H   0  0  0  0  0  0  0  0  0  0  0  0
   49.8018   35.7591   40.6492 H   0  0  0  0  0  0  0  0  0  0  0  0
   48.9167   34.5131   38.6832 H   0  0  0  0  0  0  0  0  0  0  0  0
   46.6771   33.4462   38.8364 H   0  0  0  0  0  0  0  0  0  0  0  0
   45.7727   33.2638   46.0557 H   0  0  0  0  0  0  0  0  0  0  0  0
   44.1501   35.1220   46.5289 H   0  0  0  0  0  0  0  0  0  0  0  0
   43.8130   36.8903   44.7193 H   0  0  0  0  0  0  0  0  0  0  0  0
   44.8128   31.4211   40.4893 H   0  0  0  0  0  0  0  0  0  0  0  0
   45.6838   31.7310   41.9771 H   0  0  0  0  0  0  0  0  0  0  0  0
   42.9940   31.2272   41.9709 H   0  0  0  0  0  0  0  0  0  0  0  0
   43.6666   32.3577   43.1486 H   0  0  0  0  0  0  0  0  0  0  0  0
   41.9632   32.8983   40.7665 H   0  0  0  0  0  0  0  0  0  0  0  0
   42.3057   33.9771   42.1315 H   0  0  0  0  0  0  0  0  0  0  0  0
   43.7331   35.1183   40.7583 H   0  0  0  0  0  0  0  0  0  0  0  0
   43.5504   33.9207   39.4706 H   0  0  0  0  0  0  0  0  0  0  0  0
  1 11  1  0
  2  1  2  0
  3  2  1  0
  4  5  1  0
  4  3  2  0
  5  6  2  0
  6 13  1  0
  6  1  1  0
  7  8  2  0
  9  8  1  0
 10  9  2  0
 11 10  1  0
 11 12  2  0
 12  7  1  0
 13 14  1  0
 14 15  1  0
 16 15  1  0
 17 13  1  0
 17 16  1  0
  2 18  1  0
  3 19  1  0
  4 20  1  0
  5 21  1  0
  7 22  1  0
  8 23  1  0
  9 24  1  0
 14 25  1  0
 14 26  1  0
 15 27  1  0
 15 28  1  0
 16 29  1  0
 16 30  1  0
 17 31  1  0
 17 32  1  0
M  ISO  8  18  14  19  14  20  14  21  14  22  14  23  14  24  14  25  13
M  ISO  7  26  13  27  13  28  13  29  13  30  13  31  13  32  13
M  END
>  <minimizedAffinity>  (1) 
-5.31423473

>  <minimizedRMSD>  (1) 
0.207790747

$$$$
