
     RDKit          3D

 32 33  0  0  0  0  0  0  0  0999 V2000
   46.7570   34.7940   42.0390 C   0  0  0  0  0  0  0  0  0  0  0  0
   48.0420   35.2850   41.9760 C   0  0  0  0  0  0  0  0  0  0  0  0
   48.7670   35.1660   40.8050 C   0  0  0  0  0  0  0  0  0  0  0  0
   48.2410   34.5670   39.6880 C   0  0  0  0  0  0  0  0  0  0  0  0
   46.9690   34.0840   39.7580 C   0  0  0  0  0  0  0  0  0  0  0  0
   46.2050   34.1830   40.9180 C   0  0  0  0  0  0  0  0  0  0  0  0
   45.5180   34.0760   45.3870 C   0  0  0  0  0  0  0  0  0  0  0  0
   44.6460   35.1340   45.6680 C   0  0  0  0  0  0  0  0  0  0  0  0
   44.4890   36.1260   44.6620 C   0  0  0  0  0  0  0  0  0  0  0  0
   45.1810   35.9860   43.5140 N   0  0  0  0  0  0  0  0  0  0  0  0
   46.0200   34.9410   43.2770 C   0  0  0  0  0  0  0  0  0  0  0  0
   46.1690   34.0110   44.2180 N   0  0  0  0  0  0  0  0  0  0  0  0
   44.8270   33.6350   40.9260 C   0  0  0  0  0  0  0  0  0  0  0  0
   43.8320   34.7980   41.0820 C   0  0  0  0  0  0  0  0  0  0  0  0
   44.5670   32.7110   42.0980 C   0  0  0  0  0  0  0  0  0  0  0  0
   44.4290   32.9800   39.6200 C   0  0  0  0  0  0  0  0  0  0  0  0
   48.4904   35.7707   42.8552 H   0  0  0  0  0  0  0  0  0  0  0  0
   49.7926   35.5619   40.7676 H   0  0  0  0  0  0  0  0  0  0  0  0
   48.8294   34.4793   38.7628 H   0  0  0  0  0  0  0  0  0  0  0  0
   46.5323   33.6012   38.8713 H   0  0  0  0  0  0  0  0  0  0  0  0
   45.6711   33.2861   46.1371 H   0  0  0  0  0  0  0  0  0  0  0  0
   44.1063   35.1952   46.6245 H   0  0  0  0  0  0  0  0  0  0  0  0
   43.8201   36.9855   44.8165 H   0  0  0  0  0  0  0  0  0  0  0  0
   43.6632   34.9953   42.1509 H   0  0  0  0  0  0  0  0  0  0  0  0
   44.2431   35.6990   40.6033 H   0  0  0  0  0  0  0  0  0  0  0  0
   42.8782   34.5313   40.6033 H   0  0  0  0  0  0  0  0  0  0  0  0
   44.7214   33.2597   43.0388 H   0  0  0  0  0  0  0  0  0  0  0  0
   43.5308   32.3445   42.0531 H   0  0  0  0  0  0  0  0  0  0  0  0
   45.2600   31.8579   42.0531 H   0  0  0  0  0  0  0  0  0  0  0  0
   43.8682   32.0570   39.8287 H   0  0  0  0  0  0  0  0  0  0  0  0
   43.7973   33.6700   39.0413 H   0  0  0  0  0  0  0  0  0  0  0  0
   45.3324   32.7372   39.0413 H   0  0  0  0  0  0  0  0  0  0  0  0
  1 11  1  0
  2  1  2  0
  3  2  1  0
  4  5  1  0
  4  3  2  0
  5  6  2  0
  6 13  1  0
  6  1  1  0
  7  8  2  0
  9  8  1  0
 10  9  2  0
 11 10  1  0
 11 12  2  0
 12  7  1  0
 13 14  1  0
 13 15  1  0
 16 13  1  0
  2 17  1  0
  3 18  1  0
  4 19  1  0
  5 20  1  0
  7 21  1  0
  8 22  1  0
  9 23  1  0
 14 24  1  0
 14 25  1  0
 14 26  1  0
 15 27  1  0
 15 28  1  0
 15 29  1  0
 16 30  1  0
 16 31  1  0
 16 32  1  0
M  ISO  8  17  14  18  14  19  14  20  14  21  14  22  14  23  14  24   8
M  ISO  8  25   8  26   8  27   8  28   8  29   8  30   8  31   8  32   8
M  END
>  <minimizedAffinity>  (1) 
-5.28313875

>  <minimizedRMSD>  (1) 
0.308129638

$$$$
