
     RDKit          3D

 22 23  0  0  0  0  0  0  0  0999 V2000
   46.7990   34.7810   42.0970 C   0  0  0  0  0  0  0  0  0  0  0  0
   48.0360   35.3800   41.9930 C   0  0  0  0  0  0  0  0  0  0  0  0
   48.7520   35.2930   40.8130 C   0  0  0  0  0  0  0  0  0  0  0  0
   48.2650   34.6190   39.7170 C   0  0  0  0  0  0  0  0  0  0  0  0
   47.0370   34.0230   39.8170 C   0  0  0  0  0  0  0  0  0  0  0  0
   46.3400   34.1150   40.9880 C   0  0  0  0  0  0  0  0  0  0  0  0
   45.6080   33.9710   45.4370 C   0  0  0  0  0  0  0  0  0  0  0  0
   44.6880   35.0020   45.7340 C   0  0  0  0  0  0  0  0  0  0  0  0
   44.4950   35.9840   44.7440 C   0  0  0  0  0  0  0  0  0  0  0  0
   45.1900   35.8860   43.5810 N   0  0  0  0  0  0  0  0  0  0  0  0
   46.0580   34.8800   43.3440 C   0  0  0  0  0  0  0  0  0  0  0  0
   46.2680   33.9330   44.2580 N   0  0  0  0  0  0  0  0  0  0  0  0
   45.0340   33.4750   41.0770 C   0  0  0  0  0  0  0  0  0  0  0  0
   43.9080   33.8880   40.7460 O   0  0  0  0  0  0  0  0  0  0  0  0
   48.4544   35.9282   42.8500 H   0  0  0  0  0  0  0  0  0  0  0  0
   49.7382   35.7761   40.7490 H   0  0  0  0  0  0  0  0  0  0  0  0
   48.8469   34.5607   38.7854 H   0  0  0  0  0  0  0  0  0  0  0  0
   46.6151   33.4747   38.9618 H   0  0  0  0  0  0  0  0  0  0  0  0
   45.7909   33.1823   46.1816 H   0  0  0  0  0  0  0  0  0  0  0  0
   44.1489   35.0355   46.6923 H   0  0  0  0  0  0  0  0  0  0  0  0
   43.7941   36.8156   44.9092 H   0  0  0  0  0  0  0  0  0  0  0  0
   45.0454   32.4624   41.5065 H   0  0  0  0  0  0  0  0  0  0  0  0
  1 11  1  0
  2  1  2  0
  3  2  1  0
  4  5  1  0
  4  3  2  0
  5  6  2  0
  6 13  1  0
  6  1  1  0
  7  8  2  0
  9  8  1  0
 10  9  2  0
 11 10  1  0
 11 12  2  0
 12  7  1  0
 14 13  2  0
  2 15  1  0
  3 16  1  0
  4 17  1  0
  5 18  1  0
  7 19  1  0
  8 20  1  0
  9 21  1  0
 13 22  1  0
M  ISO  8  15  14  16  14  17  14  18  14  19  14  20  14  21  14  22   6
M  END
>  <minimizedAffinity>  (1) 
-4.88927841

>  <minimizedRMSD>  (1) 
0.254474491

$$$$
