
     RDKit          3D

 24 25  0  0  0  0  0  0  0  0999 V2000
   47.2080   34.5490   41.7700 C   0  0  0  0  0  0  0  0  0  0  0  0
   48.2780   35.4160   41.6500 C   0  0  0  0  0  0  0  0  0  0  0  0
   48.9280   35.5170   40.4190 C   0  0  0  0  0  0  0  0  0  0  0  0
   48.5420   34.7850   39.3200 C   0  0  0  0  0  0  0  0  0  0  0  0
   47.4730   33.9270   39.4620 C   0  0  0  0  0  0  0  0  0  0  0  0
   46.8320   33.8260   40.6720 C   0  0  0  0  0  0  0  0  0  0  0  0
   46.4770   33.4050   45.1510 C   0  0  0  0  0  0  0  0  0  0  0  0
   45.3730   34.1740   45.5380 C   0  0  0  0  0  0  0  0  0  0  0  0
   44.8770   35.1010   44.6100 C   0  0  0  0  0  0  0  0  0  0  0  0
   45.4790   35.2160   43.3870 N   0  0  0  0  0  0  0  0  0  0  0  0
   46.5440   34.4550   43.0540 C   0  0  0  0  0  0  0  0  0  0  0  0
   47.0370   33.5550   43.9360 N   0  0  0  0  0  0  0  0  0  0  0  0
   43.7530   35.9120   44.9500 N   0  0  0  0  0  0  0  0  0  0  0  0
   45.7150   32.9240   40.8090 N   0  0  0  0  0  0  0  0  0  0  0  0
   48.6113   36.0158   42.5097 H   0  0  0  0  0  0  0  0  0  0  0  0
   49.7796   36.2068   40.3241 H   0  0  0  0  0  0  0  0  0  0  0  0
   49.0693   34.8814   38.3595 H   0  0  0  0  0  0  0  0  0  0  0  0
   47.1337   33.3238   38.6070 H   0  0  0  0  0  0  0  0  0  0  0  0
   46.8937   32.6661   45.8512 H   0  0  0  0  0  0  0  0  0  0  0  0
   44.9131   34.0558   46.5302 H   0  0  0  0  0  0  0  0  0  0  0  0
   43.3858   36.5940   44.2711 H   0  0  0  0  0  0  0  0  0  0  0  0
   43.3090   35.8153   45.8743 H   0  0  0  0  0  0  0  0  0  0  0  0
   45.2277   32.8412   41.7127 H   0  0  0  0  0  0  0  0  0  0  0  0
   45.4046   32.3626   40.0032 H   0  0  0  0  0  0  0  0  0  0  0  0
  1 11  1  0
  2  1  2  0
  3  2  1  0
  4  5  1  0
  4  3  2  0
  5  6  2  0
  6 14  1  0
  6  1  1  0
  7  8  2  0
  9 13  1  0
  9  8  1  0
 10  9  2  0
 11 10  1  0
 11 12  2  0
 12  7  1  0
  2 15  1  0
  3 16  1  0
  4 17  1  0
  5 18  1  0
  7 19  1  0
  8 20  1  0
 13 21  1  0
 13 22  1  0
 14 23  1  0
 14 24  1  0
M  ISO  6  15  14  16  14  17  14  18  14  19  14  20  14
M  END
>  <minimizedAffinity>  (1) 
-4.76784182

>  <minimizedRMSD>  (1) 
0.768371761

$$$$
