
     RDKit          3D

 26 27  0  0  0  0  0  0  0  0999 V2000
   48.3360   33.4780   43.0580 C   0  0  0  0  0  0  0  0  0  0  0  0
   49.3880   34.3520   42.8370 C   0  0  0  0  0  0  0  0  0  0  0  0
   50.5880   33.8620   42.3220 C   0  0  0  0  0  0  0  0  0  0  0  0
   50.7620   32.5310   42.0230 C   0  0  0  0  0  0  0  0  0  0  0  0
   49.7110   31.6620   42.2460 C   0  0  0  0  0  0  0  0  0  0  0  0
   48.5320   32.1590   42.7550 C   0  0  0  0  0  0  0  0  0  0  0  0
   45.5940   34.0790   45.3620 C   0  0  0  0  0  0  0  0  0  0  0  0
   44.7630   34.9560   44.6900 C   0  0  0  0  0  0  0  0  0  0  0  0
   45.1620   35.3500   43.4010 C   0  0  0  0  0  0  0  0  0  0  0  0
   46.3260   34.8640   42.8800 N   0  0  0  0  0  0  0  0  0  0  0  0
   47.1040   34.0030   43.5880 C   0  0  0  0  0  0  0  0  0  0  0  0
   46.7300   33.6290   44.8060 N   0  0  0  0  0  0  0  0  0  0  0  0
   44.5030   36.2150   42.5310 O   0  0  0  0  0  0  0  0  0  0  0  0
   43.7290   35.5880   41.5390 C   0  0  0  0  0  0  0  0  0  0  0  0
   42.4710   35.5390   41.5130 O   0  0  0  0  0  0  0  0  0  0  0  0
   44.2800   34.9320   40.4410 O   0  0  0  0  0  0  0  0  0  0  0  0
   47.4440   31.2490   42.9880 N   0  0  0  0  0  0  0  0  0  0  0  0
   49.2779   35.4223   43.0656 H   0  0  0  0  0  0  0  0  0  0  0  0
   51.4198   34.5609   42.1499 H   0  0  0  0  0  0  0  0  0  0  0  0
   51.7164   32.1663   41.6155 H   0  0  0  0  0  0  0  0  0  0  0  0
   49.8145   30.5903   42.0205 H   0  0  0  0  0  0  0  0  0  0  0  0
   45.3188   33.7432   46.3727 H   0  0  0  0  0  0  0  0  0  0  0  0
   43.8324   35.3283   45.1431 H   0  0  0  0  0  0  0  0  0  0  0  0
   43.6887   34.5065   39.7707 H   0  0  0  0  0  0  0  0  0  0  0  0
   46.5528   31.5984   43.3682 H   0  0  0  0  0  0  0  0  0  0  0  0
   47.5556   30.2475   42.7748 H   0  0  0  0  0  0  0  0  0  0  0  0
  1 11  1  0
  2  1  2  0
  3  2  1  0
  4  5  1  0
  4  3  2  0
  5  6  2  0
  6 17  1  0
  6  1  1  0
  8  7  2  0
  9  8  1  0
 10  9  2  0
 10 11  1  0
 11 12  2  0
 12  7  1  0
 13  9  1  0
 14 13  1  0
 15 14  2  0
 16 14  1  0
  2 18  1  0
  3 19  1  0
  4 20  1  0
  5 21  1  0
  7 22  1  0
  8 23  1  0
 16 24  1  0
 17 25  1  0
 17 26  1  0
M  ISO  7  18  14  19  14  20  14  21  14  22  14  23  14  24   3
M  END
>  <minimizedAffinity>  (1) 
-4.90436316

>  <minimizedRMSD>  (1) 
2.75564599

$$$$
