
     RDKit          3D

 39 41  0  0  1  0  0  0  0  0999 V2000
   49.4200   29.4450   41.9000 C   0  0  0  0  0  0  0  0  0  0  0  0
   48.8490   28.9820   43.0830 C   0  0  0  0  0  0  0  0  0  0  0  0
   48.2760   29.9240   43.9580 C   0  0  0  0  0  0  0  0  0  0  0  0
   48.3070   31.2370   43.6130 N   0  0  0  0  0  0  0  0  0  0  0  0
   48.8740   31.6500   42.4490 C   0  0  0  0  0  0  0  0  0  0  0  0
   49.4270   30.7630   41.5950 N   0  0  0  0  0  0  0  0  0  0  0  0
   48.8980   33.0480   42.0830 C   0  0  0  0  0  0  0  0  0  0  0  0
   49.7260   33.8930   42.7630 C   0  0  0  0  0  0  0  0  0  0  0  0
   49.7500   35.2440   42.4100 C   0  0  0  0  0  0  0  0  0  0  0  0
   48.9880   35.7620   41.4190 C   0  0  0  0  0  0  0  0  0  0  0  0
   48.1530   34.9190   40.7320 C   0  0  0  0  0  0  0  0  0  0  0  0
   48.1240   33.5820   41.0760 C   0  0  0  0  0  0  0  0  0  0  0  0
   47.2400   32.6930   40.3510 N   0  0  0  0  0  0  0  0  0  0  0  0
   47.6990   29.5980   45.1110 O   0  0  0  0  0  0  0  0  0  0  0  0
   48.1080   30.0600   46.3560 C   0  0  2  0  0  0  0  0  0  0  0  0
   49.3570   29.1850   46.7270 C   0  0  0  0  0  0  0  0  0  0  0  0
   47.1010   29.7100   47.4120 C   0  0  0  0  0  0  0  0  0  0  0  0
   46.1420   30.8370   47.6390 C   0  0  0  0  0  0  0  0  0  0  0  0
   46.3510   32.1390   47.2300 C   0  0  0  0  0  0  0  0  0  0  0  0
   45.2670   32.9410   47.5960 C   0  0  0  0  0  0  0  0  0  0  0  0
   44.4300   32.0730   48.2250 N   0  0  0  0  0  0  0  0  0  0  0  0
   44.9370   30.8510   48.2510 N   0  0  0  0  0  0  0  0  0  0  0  0
   49.8733   28.7263   41.2014 H   0  0  0  0  0  0  0  0  0  0  0  0
   48.8459   27.9094   43.3269 H   0  0  0  0  0  0  0  0  0  0  0  0
   50.3641   33.5162   43.5759 H   0  0  0  0  0  0  0  0  0  0  0  0
   50.4197   35.9186   42.9635 H   0  0  0  0  0  0  0  0  0  0  0  0
   49.0372   36.8325   41.1708 H   0  0  0  0  0  0  0  0  0  0  0  0
   47.5167   35.3014   39.9202 H   0  0  0  0  0  0  0  0  0  0  0  0
   47.2042   31.6924   40.5928 H   0  0  0  0  0  0  0  0  0  0  0  0
   46.6471   33.0613   39.5935 H   0  0  0  0  0  0  0  0  0  0  0  0
   48.2721   31.1468   46.3133 H   0  0  0  0  0  0  0  0  0  0  0  0
   49.4480   29.1212   47.8214 H   0  0  0  0  0  0  0  0  0  0  0  0
   49.2339   28.1747   46.3098 H   0  0  0  0  0  0  0  0  0  0  0  0
   50.2645   29.6458   46.3098 H   0  0  0  0  0  0  0  0  0  0  0  0
   46.5396   28.8199   47.0917 H   0  0  0  0  0  0  0  0  0  0  0  0
   47.6362   29.5127   48.3525 H   0  0  0  0  0  0  0  0  0  0  0  0
   47.2430   32.4940   46.6930 H   0  0  0  0  0  0  0  0  0  0  0  0
   45.1246   34.0171   47.4180 H   0  0  0  0  0  0  0  0  0  0  0  0
   43.5190   32.3332   48.6290 H   0  0  0  0  0  0  0  0  0  0  0  0
  1  2  2  0
  2  3  1  0
  3 14  1  0
  4  3  2  0
  5  4  1  0
  6  1  1  0
  6  5  2  0
  7  5  1  0
  7  8  2  0
  9  8  1  0
 10  9  2  0
 11 12  2  0
 11 10  1  0
 12  7  1  0
 13 12  1  0
 14 15  1  0
 15 16  1  0
 15 17  1  0
 17 18  1  0
 18 22  2  0
 19 20  2  0
 19 18  1  0
 20 21  1  0
 21 22  1  0
  1 23  1  0
  2 24  1  0
  8 25  1  0
  9 26  1  0
 10 27  1  0
 11 28  1  0
 13 29  1  0
 13 30  1  0
 15 31  1  6
 16 32  1  0
 16 33  1  0
 16 34  1  0
 17 35  1  0
 17 36  1  0
 19 37  1  0
 20 38  1  0
 21 39  1  0
M  ISO  8  23  14  24  14  25  14  26  14  27  14  28  14  31   8  32   8
M  ISO  7  33   8  34   8  35   8  36   8  37  14  38  14  39   9
M  END
>  <minimizedAffinity>  (1) 
-4.9789319

>  <minimizedRMSD>  (1) 
2.88908577

$$$$
