
     RDKit          3D

 37 39  0  0  1  0  0  0  0  0999 V2000
   47.3250   29.6810   42.5810 C   0  0  0  0  0  0  0  0  0  0  0  0
   47.2110   29.3740   43.9390 C   0  0  0  0  0  0  0  0  0  0  0  0
   47.4720   30.3980   44.8730 C   0  0  0  0  0  0  0  0  0  0  0  0
   47.8190   31.6290   44.4140 N   0  0  0  0  0  0  0  0  0  0  0  0
   47.9160   31.8790   43.0840 C   0  0  0  0  0  0  0  0  0  0  0  0
   47.6720   30.9190   42.1700 N   0  0  0  0  0  0  0  0  0  0  0  0
   48.2780   33.1940   42.5970 C   0  0  0  0  0  0  0  0  0  0  0  0
   49.5420   33.6570   42.8210 C   0  0  0  0  0  0  0  0  0  0  0  0
   49.8920   34.9170   42.3560 C   0  0  0  0  0  0  0  0  0  0  0  0
   49.0310   35.7280   41.6770 C   0  0  0  0  0  0  0  0  0  0  0  0
   47.7690   35.2630   41.4550 C   0  0  0  0  0  0  0  0  0  0  0  0
   47.4110   34.0180   41.9110 C   0  0  0  0  0  0  0  0  0  0  0  0
   46.0610   33.5380   41.6680 N   0  0  0  0  0  0  0  0  0  0  0  0
   47.3900   30.2230   46.1860 O   0  0  0  0  0  0  0  0  0  0  0  0
   48.4370   29.8050   47.0000 C   0  0  2  0  0  0  0  0  0  0  0  0
   48.0610   28.3360   47.4150 C   0  0  0  0  0  0  0  0  0  0  0  0
   48.4140   30.5520   48.3040 C   0  0  0  0  0  0  0  0  0  0  0  0
   47.0410   31.1600   48.3950 C   0  0  0  0  0  0  0  0  0  0  0  0
   46.7130   32.4020   47.9880 N   0  0  0  0  0  0  0  0  0  0  0  0
   45.4490   32.6120   48.2080 O   0  0  0  0  0  0  0  0  0  0  0  0
   44.9140   31.5440   48.7550 C   0  0  0  0  0  0  0  0  0  0  0  0
   45.8840   30.6240   48.8820 N   0  0  0  0  0  0  0  0  0  0  0  0
   47.1283   28.8992   41.8326 H   0  0  0  0  0  0  0  0  0  0  0  0
   46.9263   28.3643   44.2698 H   0  0  0  0  0  0  0  0  0  0  0  0
   50.2737   33.0398   43.3629 H   0  0  0  0  0  0  0  0  0  0  0  0
   50.9135   35.2791   42.5443 H   0  0  0  0  0  0  0  0  0  0  0  0
   49.3435   36.7210   41.3215 H   0  0  0  0  0  0  0  0  0  0  0  0
   47.0399   35.8828   40.9125 H   0  0  0  0  0  0  0  0  0  0  0  0
   45.7774   32.6065   42.0037 H   0  0  0  0  0  0  0  0  0  0  0  0
   45.3878   34.1293   41.1600 H   0  0  0  0  0  0  0  0  0  0  0  0
   49.3972   29.9354   46.4794 H   0  0  0  0  0  0  0  0  0  0  0  0
   48.0412   28.2586   48.5121 H   0  0  0  0  0  0  0  0  0  0  0  0
   47.0693   28.0835   47.0116 H   0  0  0  0  0  0  0  0  0  0  0  0
   48.8095   27.6381   47.0116 H   0  0  0  0  0  0  0  0  0  0  0  0
   48.5860   29.8635   49.1445 H   0  0  0  0  0  0  0  0  0  0  0  0
   49.2029   31.3172   48.3498 H   0  0  0  0  0  0  0  0  0  0  0  0
   43.8623   31.4250   49.0546 H   0  0  0  0  0  0  0  0  0  0  0  0
  1  2  2  0
  2  3  1  0
  3 14  1  0
  4  3  2  0
  5  4  1  0
  6  1  1  0
  6  5  2  0
  7  8  2  0
  7  5  1  0
  9  8  1  0
 10  9  2  0
 11 10  1  0
 11 12  2  0
 12  7  1  0
 13 12  1  0
 14 15  1  0
 15 16  1  0
 15 17  1  0
 17 18  1  0
 18 22  1  0
 19 20  1  0
 19 18  2  0
 20 21  1  0
 21 22  2  0
  1 23  1  0
  2 24  1  0
  8 25  1  0
  9 26  1  0
 10 27  1  0
 11 28  1  0
 13 29  1  0
 13 30  1  0
 15 31  1  6
 16 32  1  0
 16 33  1  0
 16 34  1  0
 17 35  1  0
 17 36  1  0
 21 37  1  0
M  ISO  8  23  14  24  14  25  14  26  14  27  14  28  14  31   8  32   8
M  ISO  5  33   8  34   8  35   8  36   8  37  14
M  END
>  <minimizedAffinity>  (1) 
-4.55240393

>  <minimizedRMSD>  (1) 
2.470438

$$$$
