
     RDKit          3D

 39 41  0  0  1  0  0  0  0  0999 V2000
   48.2980   30.3520   44.0940 C   0  0  0  0  0  0  0  0  0  0  0  0
   47.4190   30.5130   45.1500 C   0  0  0  0  0  0  0  0  0  0  0  0
   46.8010   31.7730   45.3110 C   0  0  0  0  0  0  0  0  0  0  0  0
   47.0970   32.7600   44.4280 N   0  0  0  0  0  0  0  0  0  0  0  0
   47.9660   32.5580   43.4020 C   0  0  0  0  0  0  0  0  0  0  0  0
   48.5630   31.3630   43.2360 N   0  0  0  0  0  0  0  0  0  0  0  0
   48.2690   33.6030   42.4600 C   0  0  0  0  0  0  0  0  0  0  0  0
   49.0690   34.6350   42.8550 C   0  0  0  0  0  0  0  0  0  0  0  0
   49.3610   35.6510   41.9400 C   0  0  0  0  0  0  0  0  0  0  0  0
   48.8910   35.6680   40.6790 C   0  0  0  0  0  0  0  0  0  0  0  0
   48.0820   34.6310   40.2670 C   0  0  0  0  0  0  0  0  0  0  0  0
   47.7940   33.6310   41.1660 C   0  0  0  0  0  0  0  0  0  0  0  0
   46.9450   32.5330   40.7280 N   0  0  0  0  0  0  0  0  0  0  0  0
   45.9350   32.0450   46.2870 O   0  0  0  0  0  0  0  0  0  0  0  0
   46.1870   31.7560   47.6230 C   0  0  2  0  0  0  0  0  0  0  0  0
   47.5270   32.3900   47.9850 C   0  0  0  0  0  0  0  0  0  0  0  0
   46.3460   30.2880   47.8460 C   0  0  0  0  0  0  0  0  0  0  0  0
   45.0910   29.5100   48.0400 C   0  0  0  0  0  0  0  0  0  0  0  0
   44.5960   28.8170   46.7280 C   0  0  0  0  0  0  0  0  0  0  0  0
   44.9680   28.0580   47.9490 C   0  0  0  0  0  0  0  0  0  0  0  0
   48.7923   29.3801   43.9491 H   0  0  0  0  0  0  0  0  0  0  0  0
   47.2078   29.6853   45.8430 H   0  0  0  0  0  0  0  0  0  0  0  0
   49.4773   34.6672   43.8759 H   0  0  0  0  0  0  0  0  0  0  0  0
   50.0077   36.4784   42.2674 H   0  0  0  0  0  0  0  0  0  0  0  0
   49.1464   36.4897   39.9937 H   0  0  0  0  0  0  0  0  0  0  0  0
   47.6768   34.6039   39.2447 H   0  0  0  0  0  0  0  0  0  0  0  0
   46.7125   31.7701   41.3798 H   0  0  0  0  0  0  0  0  0  0  0  0
   46.5766   32.5189   39.7662 H   0  0  0  0  0  0  0  0  0  0  0  0
   45.3463   32.1324   48.2244 H   0  0  0  0  0  0  0  0  0  0  0  0
   47.6266   32.4371   49.0795 H   0  0  0  0  0  0  0  0  0  0  0  0
   48.3443   31.7831   47.5682 H   0  0  0  0  0  0  0  0  0  0  0  0
   47.5761   33.4068   47.5682 H   0  0  0  0  0  0  0  0  0  0  0  0
   46.8671   29.8708   46.9717 H   0  0  0  0  0  0  0  0  0  0  0  0
   46.8988   30.1934   48.7923 H   0  0  0  0  0  0  0  0  0  0  0  0
   44.7552   30.2052   48.8235 H   0  0  0  0  0  0  0  0  0  0  0  0
   45.2388   28.7881   45.8358 H   0  0  0  0  0  0  0  0  0  0  0  0
   43.7129   28.8894   46.0761 H   0  0  0  0  0  0  0  0  0  0  0  0
   44.1825   27.5473   48.5254 H   0  0  0  0  0  0  0  0  0  0  0  0
   45.6678   27.2303   48.1365 H   0  0  0  0  0  0  0  0  0  0  0  0
  1  2  2  0
  2  3  1  0
  3 14  1  0
  4  3  2  0
  5  4  1  0
  6  5  2  0
  6  1  1  0
  7  8  2  0
  7  5  1  0
  9  8  1  0
 10  9  2  0
 11 10  1  0
 11 12  2  0
 12  7  1  0
 13 12  1  0
 14 15  1  0
 15 17  1  0
 15 16  1  0
 17 18  1  0
 19 20  1  0
 19 18  1  0
 20 18  1  0
  1 21  1  0
  2 22  1  0
  8 23  1  0
  9 24  1  0
 10 25  1  0
 11 26  1  0
 13 27  1  0
 13 28  1  0
 15 29  1  1
 16 30  1  0
 16 31  1  0
 16 32  1  0
 17 33  1  0
 17 34  1  0
 18 35  1  0
 19 36  1  0
 19 37  1  0
 20 38  1  0
 20 39  1  0
M  ISO  8  21  14  22  14  23  14  24  14  25  14  26  14  29   8  30   8
M  ISO  8  31   8  32   8  33   8  34   8  35  13  36  13  37  13  38  13
M  ISO  1  39  13
M  END
>  <minimizedAffinity>  (1) 
-4.85240316

>  <minimizedRMSD>  (1) 
1.79845345

$$$$
