
     RDKit          3D

 47 51  0  0  1  0  0  0  0  0999 V2000
   44.5560   35.6640   44.8060 C   0  0  0  0  0  0  0  0  0  0  0  0
   45.3100   35.7930   43.6040 C   0  0  0  0  0  0  0  0  0  0  0  0
   46.2800   34.8540   43.3670 C   0  0  0  0  0  0  0  0  0  0  0  0
   46.4710   33.8550   44.2830 N   0  0  0  0  0  0  0  0  0  0  0  0
   45.7380   33.7710   45.3980 C   0  0  0  0  0  0  0  0  0  0  0  0
   44.7940   34.6620   45.6590 N   0  0  0  0  0  0  0  0  0  0  0  0
   45.9860   32.6810   46.3550 N   0  0  0  0  0  0  0  0  0  0  0  0
   45.1970   32.5750   47.5590 C   0  0  0  0  0  0  0  0  0  0  0  0
   46.0080   32.0700   48.7220 C   0  0  0  0  0  0  0  0  0  0  0  0
   47.4680   32.1920   48.4350 C   0  0  0  0  0  0  0  0  0  0  0  0
   47.7570   31.2460   47.2620 C   0  0  0  0  0  0  0  0  0  0  0  0
   47.0470   31.7140   46.0560 C   0  0  1  0  0  0  0  0  0  0  0  0
   46.5540   30.6200   45.1700 C   0  0  0  0  0  0  0  0  0  0  0  0
   46.6260   30.5240   43.8460 N   0  0  0  0  0  0  0  0  0  0  0  0
   46.1010   29.4140   43.4160 O   0  0  0  0  0  0  0  0  0  0  0  0
   45.6720   28.7610   44.4810 C   0  0  0  0  0  0  0  0  0  0  0  0
   45.9320   29.4720   45.5930 N   0  0  0  0  0  0  0  0  0  0  0  0
   44.8740   27.1620   44.3520 S   0  0  0  0  0  0  0  0  0  0  0  0
   43.2470   27.1400   45.0410 C   0  0  0  0  0  0  0  0  0  0  0  0
   42.7930   26.2890   46.0120 C   0  0  0  0  0  0  0  0  0  0  0  0
   41.4770   26.3750   46.4730 C   0  0  0  0  0  0  0  0  0  0  0  0
   40.6420   27.3230   45.9430 C   0  0  0  0  0  0  0  0  0  0  0  0
   41.0680   28.1950   44.9650 C   0  0  0  0  0  0  0  0  0  0  0  0
   40.1920   29.1310   44.4620 C   0  0  0  0  0  0  0  0  0  0  0  0
   40.5850   30.0080   43.4930 C   0  0  0  0  0  0  0  0  0  0  0  0
   41.8810   29.9380   43.0240 C   0  0  0  0  0  0  0  0  0  0  0  0
   42.7510   28.9970   43.5340 C   0  0  0  0  0  0  0  0  0  0  0  0
   42.3830   28.0970   44.5150 C   0  0  0  0  0  0  0  0  0  0  0  0
   43.7688   36.3973   45.0351 H   0  0  0  0  0  0  0  0  0  0  0  0
   45.1214   36.6127   42.8951 H   0  0  0  0  0  0  0  0  0  0  0  0
   46.8946   34.9025   42.4560 H   0  0  0  0  0  0  0  0  0  0  0  0
   44.7967   33.5684   47.8099 H   0  0  0  0  0  0  0  0  0  0  0  0
   44.3866   31.8551   47.3718 H   0  0  0  0  0  0  0  0  0  0  0  0
   45.7645   32.6616   49.6169 H   0  0  0  0  0  0  0  0  0  0  0  0
   45.7663   31.0101   48.8901 H   0  0  0  0  0  0  0  0  0  0  0  0
   47.7167   33.2275   48.1594 H   0  0  0  0  0  0  0  0  0  0  0  0
   48.0719   31.9315   49.3168 H   0  0  0  0  0  0  0  0  0  0  0  0
   48.8391   31.2285   47.0650 H   0  0  0  0  0  0  0  0  0  0  0  0
   47.4104   30.2338   47.5177 H   0  0  0  0  0  0  0  0  0  0  0  0
   47.8206   32.2421   45.4792 H   0  0  0  0  0  0  0  0  0  0  0  0
   43.4699   25.5310   46.4329 H   0  0  0  0  0  0  0  0  0  0  0  0
   41.1152   25.6890   47.2531 H   0  0  0  0  0  0  0  0  0  0  0  0
   39.6062   27.3896   46.3071 H   0  0  0  0  0  0  0  0  0  0  0  0
   39.1621   29.1723   44.8462 H   0  0  0  0  0  0  0  0  0  0  0  0
   39.8832   30.7552   43.0940 H   0  0  0  0  0  0  0  0  0  0  0  0
   42.2206   30.6336   42.2424 H   0  0  0  0  0  0  0  0  0  0  0  0
   43.7789   28.9619   43.1439 H   0  0  0  0  0  0  0  0  0  0  0  0
  1  6  2  0
  2  1  1  0
  3  2  2  0
  3  4  1  0
  4  5  2  0
  5  6  1  0
  5  7  1  0
  7  8  1  0
  8  9  1  0
 10  9  1  0
 11 10  1  0
 12  7  1  0
 12 11  1  0
 13 17  1  0
 13 12  1  0
 14 13  2  0
 15 14  1  0
 15 16  1  0
 16 17  2  0
 18 16  1  0
 18 19  1  0
 19 20  2  0
 20 21  1  0
 22 21  2  0
 23 22  1  0
 24 23  2  0
 25 24  1  0
 26 25  2  0
 26 27  1  0
 27 28  2  0
 28 23  1  0
 28 19  1  0
  1 29  1  0
  2 30  1  0
  3 31  1  0
  8 32  1  0
  8 33  1  0
  9 34  1  0
  9 35  1  0
 10 36  1  0
 10 37  1  0
 11 38  1  0
 11 39  1  0
 12 40  1  6
 20 41  1  0
 21 42  1  0
 22 43  1  0
 24 44  1  0
 25 45  1  0
 26 46  1  0
 27 47  1  0
M  ISO  8  29  14  30  14  31  14  32  13  33  13  34  13  35  13  36  13
M  ISO  8  37  13  38  13  39  13  40  13  41  14  42  14  43  14  44  14
M  ISO  3  45  14  46  14  47  14
M  END
>  <minimizedAffinity>  (1) 
-6.20964193

>  <minimizedRMSD>  (1) 
1.26349425

$$$$
