
     RDKit          3D

 31 34  0  0  0  0  0  0  0  0999 V2000
   44.9120   35.3170   44.5130 C   0  0  0  0  0  0  0  0  0  0  0  0
   45.7050   35.5610   43.3860 C   0  0  0  0  0  0  0  0  0  0  0  0
   46.5460   34.5660   42.9110 C   0  0  0  0  0  0  0  0  0  0  0  0
   46.5660   33.3650   43.5730 N   0  0  0  0  0  0  0  0  0  0  0  0
   45.7910   33.1450   44.6630 C   0  0  0  0  0  0  0  0  0  0  0  0
   44.9780   34.1060   45.1240 N   0  0  0  0  0  0  0  0  0  0  0  0
   45.9420   31.8440   45.2210 N   0  0  0  0  0  0  0  0  0  0  0  0
   46.1760   30.7800   44.4130 C   0  0  0  0  0  0  0  0  0  0  0  0
   46.2890   29.6330   45.1340 N   0  0  0  0  0  0  0  0  0  0  0  0
   46.1250   29.9730   46.4230 C   0  0  0  0  0  0  0  0  0  0  0  0
   46.1190   29.3140   47.6500 C   0  0  0  0  0  0  0  0  0  0  0  0
   46.3080   28.0800   47.6490 O   0  0  0  0  0  0  0  0  0  0  0  0
   45.9110   30.0400   48.7620 N   0  0  0  0  0  0  0  0  0  0  0  0
   45.7050   31.3690   48.7800 C   0  0  0  0  0  0  0  0  0  0  0  0
   45.4920   32.0620   50.0040 N   0  0  0  0  0  0  0  0  0  0  0  0
   45.7060   32.0330   47.6030 N   0  0  0  0  0  0  0  0  0  0  0  0
   45.9110   31.3370   46.4660 C   0  0  0  0  0  0  0  0  0  0  0  0
   47.3800   34.8080   41.7330 C   0  0  0  0  0  0  0  0  0  0  0  0
   47.1640   34.2240   40.5150 C   0  0  0  0  0  0  0  0  0  0  0  0
   48.1480   34.7050   39.6980 N   0  0  0  0  0  0  0  0  0  0  0  0
   48.9050   35.5420   40.4360 C   0  0  0  0  0  0  0  0  0  0  0  0
   48.4460   35.6160   41.6880 N   0  0  0  0  0  0  0  0  0  0  0  0
   44.2417   36.0986   44.9002 H   0  0  0  0  0  0  0  0  0  0  0  0
   45.6614   36.5366   42.8798 H   0  0  0  0  0  0  0  0  0  0  0  0
   46.2629   30.8376   43.3180 H   0  0  0  0  0  0  0  0  0  0  0  0
   45.9093   29.5433   49.6643 H   0  0  0  0  0  0  0  0  0  0  0  0
   45.3358   33.0801   49.9990 H   0  0  0  0  0  0  0  0  0  0  0  0
   45.4940   31.5457   50.8952 H   0  0  0  0  0  0  0  0  0  0  0  0
   46.3656   33.5157   40.2490 H   0  0  0  0  0  0  0  0  0  0  0  0
   49.7812   36.0893   40.0583 H   0  0  0  0  0  0  0  0  0  0  0  0
   48.8325   36.1786   42.4594 H   0  0  0  0  0  0  0  0  0  0  0  0
  1  6  2  0
  2  1  1  0
  3  2  2  0
  3  4  1  0
  4  5  2  0
  5  6  1  0
  5  7  1  0
  7 17  1  0
  8  9  2  0
  8  7  1  0
  9 10  1  0
 10 17  2  0
 10 11  1  0
 11 13  1  0
 12 11  2  0
 13 14  1  0
 14 15  1  0
 16 14  2  0
 17 16  1  0
 18  3  1  0
 19 18  2  0
 20 21  2  0
 20 19  1  0
 21 22  1  0
 22 18  1  0
  1 23  1  0
  2 24  1  0
  8 25  1  0
 13 26  1  0
 15 27  1  0
 15 28  1  0
 19 29  1  0
 21 30  1  0
 22 31  1  0
M  ISO  7  23  14  24  14  25  14  26   9  29  14  30  14  31   9
M  END
>  <minimizedAffinity>  (1) 
-6.15691614

>  <minimizedRMSD>  (1) 
1.835742

$$$$
