
     RDKit          3D

 24 25  0  0  0  0  0  0  0  0999 V2000
   44.5880   35.9610   44.4530 C   0  0  0  0  0  0  0  0  0  0  0  0
   45.3500   35.9370   43.2740 C   0  0  0  0  0  0  0  0  0  0  0  0
   46.2500   34.8980   43.0910 C   0  0  0  0  0  0  0  0  0  0  0  0
   46.3610   33.9370   44.0690 N   0  0  0  0  0  0  0  0  0  0  0  0
   45.6090   33.9980   45.1880 C   0  0  0  0  0  0  0  0  0  0  0  0
   44.7320   34.9930   45.3850 N   0  0  0  0  0  0  0  0  0  0  0  0
   45.7510   32.9770   46.1870 N   0  0  0  0  0  0  0  0  0  0  0  0
   44.9630   33.0320   47.3700 C   0  0  0  0  0  0  0  0  0  0  0  0
   44.5020   34.1630   47.7900 N   0  0  0  0  0  0  0  0  0  0  0  0
   44.6680   31.8520   48.1070 N   0  0  0  0  0  0  0  0  0  0  0  0
   43.9270   34.2250   48.6470 H   0  0  0  0  0  0  0  0  0  0  0  0
   47.0610   34.8400   41.8760 C   0  0  0  0  0  0  0  0  0  0  0  0
   46.6980   34.1420   40.7490 C   0  0  0  0  0  0  0  0  0  0  0  0
   47.7020   34.3370   39.8570 N   0  0  0  0  0  0  0  0  0  0  0  0
   48.6200   35.1250   40.4470 C   0  0  0  0  0  0  0  0  0  0  0  0
   48.2510   35.4510   41.6920 N   0  0  0  0  0  0  0  0  0  0  0  0
   43.8672   36.7751   44.6196 H   0  0  0  0  0  0  0  0  0  0  0  0
   45.2358   36.7236   42.5136 H   0  0  0  0  0  0  0  0  0  0  0  0
   46.4211   32.2073   46.0477 H   0  0  0  0  0  0  0  0  0  0  0  0
   44.0960   31.9081   48.9617 H   0  0  0  0  0  0  0  0  0  0  0  0
   45.0263   30.9412   47.7860 H   0  0  0  0  0  0  0  0  0  0  0  0
   45.7837   33.5486   40.6008 H   0  0  0  0  0  0  0  0  0  0  0  0
   49.5527   35.4580   39.9682 H   0  0  0  0  0  0  0  0  0  0  0  0
   48.7636   36.0400   42.3637 H   0  0  0  0  0  0  0  0  0  0  0  0
  1  6  2  0
  2  1  1  0
  3  2  2  0
  3  4  1  0
  4  5  2  0
  5  6  1  0
  5  7  1  0
  7  8  1  0
  8  9  2  0
  8 10  1  0
  9 11  1  0
 12  3  1  0
 13 12  2  0
 14 15  2  0
 14 13  1  0
 15 16  1  0
 16 12  1  0
  1 17  1  0
  2 18  1  0
  7 19  1  0
 10 20  1  0
 10 21  1  0
 13 22  1  0
 15 23  1  0
 16 24  1  0
M  ISO  5  17  14  18  14  22  14  23  14  24   9
M  END
>  <minimizedAffinity>  (1) 
-6.0385294

>  <minimizedRMSD>  (1) 
0.242596716

$$$$
