
     RDKit          3D

 28 31  0  0  0  0  0  0  0  0999 V2000
   44.5100   35.9840   44.6060 C   0  0  0  0  0  0  0  0  0  0  0  0
   45.2380   35.9200   43.4060 C   0  0  0  0  0  0  0  0  0  0  0  0
   46.1400   34.8840   43.2370 C   0  0  0  0  0  0  0  0  0  0  0  0
   46.2920   33.9580   44.2430 N   0  0  0  0  0  0  0  0  0  0  0  0
   45.5720   34.0520   45.3850 C   0  0  0  0  0  0  0  0  0  0  0  0
   44.6920   35.0530   45.5610 N   0  0  0  0  0  0  0  0  0  0  0  0
   45.7100   33.1120   46.4340 N   0  0  0  0  0  0  0  0  0  0  0  0
   45.1190   33.2210   47.6480 C   0  0  0  0  0  0  0  0  0  0  0  0
   45.4810   32.1360   48.3850 N   0  0  0  0  0  0  0  0  0  0  0  0
   46.2820   31.3610   47.6490 C   0  0  0  0  0  0  0  0  0  0  0  0
   46.9180   30.1580   47.9240 C   0  0  0  0  0  0  0  0  0  0  0  0
   47.6810   29.5930   46.9680 N   0  0  0  0  0  0  0  0  0  0  0  0
   47.8270   30.1950   45.7520 C   0  0  0  0  0  0  0  0  0  0  0  0
   47.1970   31.3720   45.5070 N   0  0  0  0  0  0  0  0  0  0  0  0
   46.4270   31.9730   46.4210 C   0  0  0  0  0  0  0  0  0  0  0  0
   46.9190   34.7870   41.9960 C   0  0  0  0  0  0  0  0  0  0  0  0
   46.4560   34.1070   40.8790 C   0  0  0  0  0  0  0  0  0  0  0  0
   47.4610   34.2500   39.9610 N   0  0  0  0  0  0  0  0  0  0  0  0
   48.4380   34.9690   40.5210 C   0  0  0  0  0  0  0  0  0  0  0  0
   48.1380   35.3200   41.7850 N   0  0  0  0  0  0  0  0  0  0  0  0
   43.7881   36.7985   44.7658 H   0  0  0  0  0  0  0  0  0  0  0  0
   45.0944   36.6754   42.6194 H   0  0  0  0  0  0  0  0  0  0  0  0
   44.4636   34.0402   47.9789 H   0  0  0  0  0  0  0  0  0  0  0  0
   46.8011   29.6746   48.9051 H   0  0  0  0  0  0  0  0  0  0  0  0
   48.4513   29.7293   44.9753 H   0  0  0  0  0  0  0  0  0  0  0  0
   45.5007   33.5751   40.7587 H   0  0  0  0  0  0  0  0  0  0  0  0
   49.3738   35.2410   40.0109 H   0  0  0  0  0  0  0  0  0  0  0  0
   48.7099   35.8705   42.4413 H   0  0  0  0  0  0  0  0  0  0  0  0
  1  6  2  0
  2  1  1  0
  3  2  2  0
  3  4  1  0
  4  5  2  0
  5  6  1  0
  5  7  1  0
  7  8  1  0
  8  9  2  0
 10 11  2  0
 10  9  1  0
 12 11  1  0
 13 12  2  0
 14 13  1  0
 14 15  2  0
 15  7  1  0
 15 10  1  0
 16  3  1  0
 17 16  2  0
 18 19  2  0
 18 17  1  0
 19 20  1  0
 20 16  1  0
  1 21  1  0
  2 22  1  0
  8 23  1  0
 11 24  1  0
 13 25  1  0
 17 26  1  0
 19 27  1  0
 20 28  1  0
M  ISO  8  21  14  22  14  23  14  24  14  25  14  26  14  27  14  28   9
M  END
>  <minimizedAffinity>  (1) 
-6.14013052

>  <minimizedRMSD>  (1) 
0.0526901372

$$$$
