
     RDKit          3D

 27 29  0  0  0  0  0  0  0  0999 V2000
   44.4810   35.8320   44.7190 C   0  0  0  0  0  0  0  0  0  0  0  0
   45.1930   35.7930   43.5110 C   0  0  0  0  0  0  0  0  0  0  0  0
   46.1690   34.8130   43.3430 C   0  0  0  0  0  0  0  0  0  0  0  0
   46.3840   33.9420   44.3580 N   0  0  0  0  0  0  0  0  0  0  0  0
   45.6900   33.9960   45.5120 C   0  0  0  0  0  0  0  0  0  0  0  0
   44.7530   34.9230   45.6940 N   0  0  0  0  0  0  0  0  0  0  0  0
   46.9250   34.7510   42.0920 C   0  0  0  0  0  0  0  0  0  0  0  0
   46.4480   34.1090   40.9580 C   0  0  0  0  0  0  0  0  0  0  0  0
   47.4330   34.2750   40.0220 N   0  0  0  0  0  0  0  0  0  0  0  0
   48.4290   34.9800   40.5970 C   0  0  0  0  0  0  0  0  0  0  0  0
   48.1330   35.2790   41.8640 N   0  0  0  0  0  0  0  0  0  0  0  0
   46.0150   33.0020   46.5300 C   0  0  0  0  0  0  0  0  0  0  0  0
   47.0760   32.1440   46.4720 C   0  0  0  0  0  0  0  0  0  0  0  0
   47.3150   31.2230   47.4900 C   0  0  0  0  0  0  0  0  0  0  0  0
   46.4750   31.1570   48.5910 C   0  0  0  0  0  0  0  0  0  0  0  0
   45.4030   32.0020   48.6800 C   0  0  0  0  0  0  0  0  0  0  0  0
   45.2110   32.8940   47.6470 C   0  0  0  0  0  0  0  0  0  0  0  0
   43.7050   36.5953   44.8775 H   0  0  0  0  0  0  0  0  0  0  0  0
   44.9851   36.5210   42.7130 H   0  0  0  0  0  0  0  0  0  0  0  0
   45.4896   33.5827   40.8377 H   0  0  0  0  0  0  0  0  0  0  0  0
   49.3609   35.2699   40.0896 H   0  0  0  0  0  0  0  0  0  0  0  0
   48.7151   35.8076   42.5293 H   0  0  0  0  0  0  0  0  0  0  0  0
   47.7538   32.1806   45.6064 H   0  0  0  0  0  0  0  0  0  0  0  0
   48.1768   30.5431   47.4195 H   0  0  0  0  0  0  0  0  0  0  0  0
   46.6700   30.4272   49.3906 H   0  0  0  0  0  0  0  0  0  0  0  0
   44.7208   31.9708   49.5423 H   0  0  0  0  0  0  0  0  0  0  0  0
   44.3490   33.5736   47.7182 H   0  0  0  0  0  0  0  0  0  0  0  0
  1  6  2  0
  2  1  1  0
  3  2  2  0
  3  4  1  0
  4  5  2  0
  5  6  1  0
  5 12  1  0
  7  3  1  0
  8  7  2  0
  9 10  2  0
  9  8  1  0
 10 11  1  0
 11  7  1  0
 12 17  1  0
 13 12  2  0
 13 14  1  0
 14 15  2  0
 15 16  1  0
 17 16  2  0
  1 18  1  0
  2 19  1  0
  8 20  1  0
 10 21  1  0
 11 22  1  0
 13 23  1  0
 14 24  1  0
 15 25  1  0
 16 26  1  0
 17 27  1  0
M  ISO  8  18  14  19  14  20  14  21  14  22   9  23  14  24  14  25  14
M  ISO  2  26  14  27  14
M  END
>  <minimizedAffinity>  (1) 
-5.82569504

>  <minimizedRMSD>  (1) 
0.285911649

$$$$
