
     RDKit          3D

 20 21  0  0  0  0  0  0  0  0999 V2000
   44.4860   36.0110   44.6190 C   0  0  0  0  0  0  0  0  0  0  0  0
   45.2140   35.9380   43.4180 C   0  0  0  0  0  0  0  0  0  0  0  0
   46.1150   34.9000   43.2690 C   0  0  0  0  0  0  0  0  0  0  0  0
   46.2610   33.9960   44.2830 N   0  0  0  0  0  0  0  0  0  0  0  0
   45.5480   34.0890   45.4280 C   0  0  0  0  0  0  0  0  0  0  0  0
   44.6660   35.0980   45.5870 N   0  0  0  0  0  0  0  0  0  0  0  0
   46.8960   34.7860   42.0270 C   0  0  0  0  0  0  0  0  0  0  0  0
   46.4380   34.1060   40.9160 C   0  0  0  0  0  0  0  0  0  0  0  0
   47.4340   34.2280   39.9870 N   0  0  0  0  0  0  0  0  0  0  0  0
   48.4180   34.9500   40.5530 C   0  0  0  0  0  0  0  0  0  0  0  0
   48.1080   35.3040   41.8070 N   0  0  0  0  0  0  0  0  0  0  0  0
   45.8530   33.0100   46.4050 C   0  0  0  0  0  0  0  0  0  0  0  0
   47.1390   33.1290   46.8860 F   0  0  0  0  0  0  0  0  0  0  0  0
   44.9740   33.1630   47.4790 F   0  0  0  0  0  0  0  0  0  0  0  0
   45.6940   31.7620   45.8350 F   0  0  0  0  0  0  0  0  0  0  0  0
   43.7611   36.8250   44.7670 H   0  0  0  0  0  0  0  0  0  0  0  0
   45.0710   36.6835   42.6219 H   0  0  0  0  0  0  0  0  0  0  0  0
   45.4788   33.5796   40.8026 H   0  0  0  0  0  0  0  0  0  0  0  0
   49.3589   35.2162   40.0492 H   0  0  0  0  0  0  0  0  0  0  0  0
   48.6806   35.8566   42.4610 H   0  0  0  0  0  0  0  0  0  0  0  0
  1  6  2  0
  2  1  1  0
  3  2  2  0
  3  4  1  0
  4  5  2  0
  5  6  1  0
  5 12  1  0
  7  3  1  0
  8  7  2  0
  9 10  2  0
  9  8  1  0
 10 11  1  0
 11  7  1  0
 12 13  1  0
 12 14  1  0
 15 12  1  0
  1 16  1  0
  2 17  1  0
  8 18  1  0
 10 19  1  0
 11 20  1  0
M  ISO  5  16  14  17  14  18  14  19  14  20   9
M  END
>  <minimizedAffinity>  (1) 
-5.13401079

>  <minimizedRMSD>  (1) 
0.598434269

$$$$
