
     RDKit          3D

 38 41  0  0  1  0  0  0  0  0999 V2000
   44.5330   35.8870   44.8750 C   0  0  0  0  0  0  0  0  0  0  0  0
   45.1330   35.9010   43.5840 C   0  0  0  0  0  0  0  0  0  0  0  0
   45.9600   34.8530   43.2670 C   0  0  0  0  0  0  0  0  0  0  0  0
   46.1570   33.8680   44.2030 N   0  0  0  0  0  0  0  0  0  0  0  0
   45.5740   33.8940   45.4020 C   0  0  0  0  0  0  0  0  0  0  0  0
   44.7700   34.8890   45.7400 N   0  0  0  0  0  0  0  0  0  0  0  0
   45.8310   32.8140   46.3590 N   0  0  0  0  0  0  0  0  0  0  0  0
   45.2010   32.8280   47.6580 C   0  0  0  0  0  0  0  0  0  0  0  0
   46.0920   32.2790   48.7280 C   0  0  0  0  0  0  0  0  0  0  0  0
   47.5070   32.2250   48.2480 C   0  0  0  0  0  0  0  0  0  0  0  0
   47.5410   31.2150   47.0950 C   0  0  0  0  0  0  0  0  0  0  0  0
   46.7370   31.7300   45.9710 C   0  0  1  0  0  0  0  0  0  0  0  0
   46.0120   30.6660   45.2020 C   0  0  0  0  0  0  0  0  0  0  0  0
   46.0570   30.4130   43.8990 N   0  0  0  0  0  0  0  0  0  0  0  0
   45.3060   29.3980   43.5820 O   0  0  0  0  0  0  0  0  0  0  0  0
   44.7560   28.9780   44.7060 C   0  0  0  0  0  0  0  0  0  0  0  0
   45.1620   29.7320   45.7420 N   0  0  0  0  0  0  0  0  0  0  0  0
   43.6370   27.5770   44.7230 S   0  0  0  0  0  0  0  0  0  0  0  0
   41.9720   28.0550   45.1490 C   0  0  0  0  0  0  0  0  0  0  0  0
   41.1750   29.1740   45.0390 C   0  0  0  0  0  0  0  0  0  0  0  0
   39.9370   28.8590   45.5930 C   0  0  0  0  0  0  0  0  0  0  0  0
   40.0110   27.5840   46.0180 N   0  0  0  0  0  0  0  0  0  0  0  0
   41.2290   27.0920   45.7570 N   0  0  0  0  0  0  0  0  0  0  0  0
   43.8633   36.7088   45.1685 H   0  0  0  0  0  0  0  0  0  0  0  0
   44.9418   36.7168   42.8713 H   0  0  0  0  0  0  0  0  0  0  0  0
   46.4539   34.8031   42.2854 H   0  0  0  0  0  0  0  0  0  0  0  0
   44.9398   33.8656   47.9132 H   0  0  0  0  0  0  0  0  0  0  0  0
   44.3067   32.1898   47.6049 H   0  0  0  0  0  0  0  0  0  0  0  0
   46.0344   32.9262   49.6156 H   0  0  0  0  0  0  0  0  0  0  0  0
   45.7612   31.2611   48.9817 H   0  0  0  0  0  0  0  0  0  0  0  0
   47.8255   33.2164   47.8935 H   0  0  0  0  0  0  0  0  0  0  0  0
   48.1890   31.9256   49.0575 H   0  0  0  0  0  0  0  0  0  0  0  0
   48.5803   31.0679   46.7661 H   0  0  0  0  0  0  0  0  0  0  0  0
   47.1262   30.2545   47.4346 H   0  0  0  0  0  0  0  0  0  0  0  0
   47.4818   32.1565   45.2830 H   0  0  0  0  0  0  0  0  0  0  0  0
   41.4637   30.1383   44.5953 H   0  0  0  0  0  0  0  0  0  0  0  0
   39.0649   29.5251   45.6689 H   0  0  0  0  0  0  0  0  0  0  0  0
   39.2470   27.0655   46.4746 H   0  0  0  0  0  0  0  0  0  0  0  0
  1  6  2  0
  2  1  1  0
  3  2  2  0
  3  4  1  0
  4  5  2  0
  5  6  1  0
  5  7  1  0
  7  8  1  0
  8  9  1  0
 10  9  1  0
 11 10  1  0
 12  7  1  0
 12 11  1  0
 13 17  1  0
 13 12  1  0
 14 13  2  0
 15 14  1  0
 15 16  1  0
 16 18  1  0
 16 17  2  0
 18 19  1  0
 19 23  2  0
 20 19  1  0
 20 21  2  0
 21 22  1  0
 23 22  1  0
  1 24  1  0
  2 25  1  0
  3 26  1  0
  8 27  1  0
  8 28  1  0
  9 29  1  0
  9 30  1  0
 10 31  1  0
 10 32  1  0
 11 33  1  0
 11 34  1  0
 12 35  1  6
 20 36  1  0
 21 37  1  0
 22 38  1  0
M  ISO  8  24  14  25  14  26  14  27  13  28  13  29  13  30  13  31  13
M  ISO  7  32  13  33  13  34  13  35  13  36  14  37  14  38   9
M  END
>  <minimizedAffinity>  (1) 
-5.78647423

>  <minimizedRMSD>  (1) 
0.384716988

$$$$
