
     RDKit          3D

 39 42  0  0  0  0  0  0  0  0999 V2000
   44.5290   35.5720   44.6460 C   0  0  0  0  0  0  0  0  0  0  0  0
   45.1940   35.5910   43.3940 C   0  0  0  0  0  0  0  0  0  0  0  0
   46.3000   34.7300   43.2520 C   0  0  0  0  0  0  0  0  0  0  0  0
   46.6690   33.9400   44.3020 N   0  0  0  0  0  0  0  0  0  0  0  0
   45.9950   33.9620   45.4800 C   0  0  0  0  0  0  0  0  0  0  0  0
   44.9420   34.7670   45.6460 N   0  0  0  0  0  0  0  0  0  0  0  0
   47.0230   34.7110   41.9730 C   0  0  0  0  0  0  0  0  0  0  0  0
   46.5400   34.0350   40.8650 C   0  0  0  0  0  0  0  0  0  0  0  0
   47.4980   34.2680   39.9060 N   0  0  0  0  0  0  0  0  0  0  0  0
   48.4630   35.0330   40.4490 C   0  0  0  0  0  0  0  0  0  0  0  0
   48.1930   35.3260   41.7430 N   0  0  0  0  0  0  0  0  0  0  0  0
   46.4070   33.0950   46.6050 C   0  0  0  0  0  0  0  0  0  0  0  0
   45.9080   31.6850   46.4470 C   0  0  0  0  0  0  0  0  0  0  0  0
   47.0790   30.7840   46.2830 C   0  0  0  0  0  0  0  0  0  0  0  0
   47.3750   30.2300   45.0360 C   0  0  0  0  0  0  0  0  0  0  0  0
   48.4420   29.3990   44.7660 C   0  0  0  0  0  0  0  0  0  0  0  0
   49.2680   29.1030   45.8270 C   0  0  0  0  0  0  0  0  0  0  0  0
   49.0150   29.6270   47.0780 C   0  0  0  0  0  0  0  0  0  0  0  0
   49.8680   29.3020   48.1160 C   0  0  0  0  0  0  0  0  0  0  0  0
   49.6890   29.7750   49.4000 C   0  0  0  0  0  0  0  0  0  0  0  0
   48.5950   30.5980   49.5710 C   0  0  0  0  0  0  0  0  0  0  0  0
   47.6880   30.9750   48.5770 C   0  0  0  0  0  0  0  0  0  0  0  0
   47.9230   30.4660   47.3100 C   0  0  0  0  0  0  0  0  0  0  0  0
   43.6593   36.2266   44.8048 H   0  0  0  0  0  0  0  0  0  0  0  0
   44.8628   36.2455   42.5742 H   0  0  0  0  0  0  0  0  0  0  0  0
   45.6121   33.4513   40.7737 H   0  0  0  0  0  0  0  0  0  0  0  0
   49.3580   35.3768   39.9097 H   0  0  0  0  0  0  0  0  0  0  0  0
   48.7544   35.8892   42.3976 H   0  0  0  0  0  0  0  0  0  0  0  0
   47.5057   33.0785   46.6558 H   0  0  0  0  0  0  0  0  0  0  0  0
   45.9702   33.5069   47.5267 H   0  0  0  0  0  0  0  0  0  0  0  0
   45.3367   31.3916   47.3401 H   0  0  0  0  0  0  0  0  0  0  0  0
   45.2527   31.6143   45.5663 H   0  0  0  0  0  0  0  0  0  0  0  0
   46.7025   30.4764   44.2011 H   0  0  0  0  0  0  0  0  0  0  0  0
   48.6231   28.9951   43.7590 H   0  0  0  0  0  0  0  0  0  0  0  0
   50.1358   28.4441   45.6762 H   0  0  0  0  0  0  0  0  0  0  0  0
   50.7227   28.6407   47.9106 H   0  0  0  0  0  0  0  0  0  0  0  0
   50.3679   29.5152   50.2256 H   0  0  0  0  0  0  0  0  0  0  0  0
   48.4207   30.9937   50.5825 H   0  0  0  0  0  0  0  0  0  0  0  0
   46.8361   31.6380   48.7884 H   0  0  0  0  0  0  0  0  0  0  0  0
  1  6  2  0
  2  1  1  0
  3  2  2  0
  3  4  1  0
  4  5  2  0
  5  6  1  0
  5 12  1  0
  7  3  1  0
  8  7  2  0
  9 10  2  0
  9  8  1  0
 10 11  1  0
 11  7  1  0
 13 12  1  0
 14 13  1  0
 14 23  1  0
 15 14  2  0
 16 15  1  0
 16 17  2  0
 17 18  1  0
 18 23  2  0
 18 19  1  0
 19 20  2  0
 20 21  1  0
 22 21  2  0
 23 22  1  0
  1 24  1  0
  2 25  1  0
  8 26  1  0
 10 27  1  0
 11 28  1  0
 12 29  1  0
 12 30  1  0
 13 31  1  0
 13 32  1  0
 15 33  1  0
 16 34  1  0
 17 35  1  0
 19 36  1  0
 20 37  1  0
 21 38  1  0
 22 39  1  0
M  ISO  8  24  14  25  14  26  14  27  14  28   9  29   8  30   8  31   8
M  ISO  8  32   8  33  14  34  14  35  14  36  14  37  14  38  14  39  14
M  END
>  <minimizedAffinity>  (1) 
-5.69121075

>  <minimizedRMSD>  (1) 
2.5330708

$$$$
