
     RDKit          3D

 47 50  0  0  1  0  0  0  0  0999 V2000
   44.6700   35.6430   44.8650 C   0  0  0  0  0  0  0  0  0  0  0  0
   45.2260   35.4810   43.5520 C   0  0  0  0  0  0  0  0  0  0  0  0
   45.9640   34.3420   43.3080 C   0  0  0  0  0  0  0  0  0  0  0  0
   46.1220   33.4390   44.3240 N   0  0  0  0  0  0  0  0  0  0  0  0
   45.5920   33.6270   45.5320 C   0  0  0  0  0  0  0  0  0  0  0  0
   44.8710   34.7150   45.8050 N   0  0  0  0  0  0  0  0  0  0  0  0
   45.8020   32.6330   46.5840 N   0  0  0  0  0  0  0  0  0  0  0  0
   45.2300   32.8220   47.9010 C   0  0  0  0  0  0  0  0  0  0  0  0
   46.1150   32.3050   48.9920 C   0  0  0  0  0  0  0  0  0  0  0  0
   47.5050   32.0880   48.4690 C   0  0  0  0  0  0  0  0  0  0  0  0
   47.4000   30.9720   47.4370 C   0  0  0  0  0  0  0  0  0  0  0  0
   46.5940   31.4520   46.2840 C   0  0  1  0  0  0  0  0  0  0  0  0
   45.7580   30.3800   45.6520 C   0  0  0  0  0  0  0  0  0  0  0  0
   45.7000   30.0160   44.3710 N   0  0  0  0  0  0  0  0  0  0  0  0
   44.8700   29.0330   44.1880 O   0  0  0  0  0  0  0  0  0  0  0  0
   44.3680   28.7360   45.3710 C   0  0  0  0  0  0  0  0  0  0  0  0
   44.8900   29.5530   46.3080 N   0  0  0  0  0  0  0  0  0  0  0  0
   43.1720   27.4210   45.5670 S   0  0  0  0  0  0  0  0  0  0  0  0
   43.9790   26.0540   46.4750 C   0  0  0  0  0  0  0  0  0  0  0  0
   45.4330   26.2790   46.5320 C   0  0  0  0  0  0  0  0  0  0  0  0
   46.1070   26.1380   47.8510 C   0  0  0  0  0  0  0  0  0  0  0  0
   45.3020   25.3450   48.8610 C   0  0  0  0  0  0  0  0  0  0  0  0
   44.0130   26.1470   48.9980 C   0  0  0  0  0  0  0  0  0  0  0  0
   43.2400   25.8650   47.7430 C   0  0  0  0  0  0  0  0  0  0  0  0
   44.0741   36.5375   45.0992 H   0  0  0  0  0  0  0  0  0  0  0  0
   45.0693   36.2376   42.7690 H   0  0  0  0  0  0  0  0  0  0  0  0
   46.4148   34.1636   42.3206 H   0  0  0  0  0  0  0  0  0  0  0  0
   45.0637   33.8974   48.0620 H   0  0  0  0  0  0  0  0  0  0  0  0
   44.2877   32.2558   47.9396 H   0  0  0  0  0  0  0  0  0  0  0  0
   46.1453   33.0362   49.8132 H   0  0  0  0  0  0  0  0  0  0  0  0
   45.7143   31.3480   49.3576 H   0  0  0  0  0  0  0  0  0  0  0  0
   47.8838   33.0077   47.9992 H   0  0  0  0  0  0  0  0  0  0  0  0
   48.2013   31.8224   49.2780 H   0  0  0  0  0  0  0  0  0  0  0  0
   48.4066   30.6928   47.0923 H   0  0  0  0  0  0  0  0  0  0  0  0
   46.9158   30.0934   47.8883 H   0  0  0  0  0  0  0  0  0  0  0  0
   47.3421   31.7528   45.5357 H   0  0  0  0  0  0  0  0  0  0  0  0
   43.9199   25.0781   45.9709 H   0  0  0  0  0  0  0  0  0  0  0  0
   45.9032   25.5599   45.8451 H   0  0  0  0  0  0  0  0  0  0  0  0
   45.5590   27.3397   46.2692 H   0  0  0  0  0  0  0  0  0  0  0  0
   47.0700   25.6292   47.6970 H   0  0  0  0  0  0  0  0  0  0  0  0
   46.2306   27.1514   48.2605 H   0  0  0  0  0  0  0  0  0  0  0  0
   45.0960   24.3302   48.4899 H   0  0  0  0  0  0  0  0  0  0  0  0
   45.8275   25.2122   49.8182 H   0  0  0  0  0  0  0  0  0  0  0  0
   43.4465   25.8190   49.8821 H   0  0  0  0  0  0  0  0  0  0  0  0
   44.2088   27.2216   49.1280 H   0  0  0  0  0  0  0  0  0  0  0  0
   42.3665   26.5334   47.7273 H   0  0  0  0  0  0  0  0  0  0  0  0
   42.9848   24.7958   47.7834 H   0  0  0  0  0  0  0  0  0  0  0  0
  1  6  2  0
  2  1  1  0
  3  2  2  0
  3  4  1  0
  4  5  2  0
  5  6  1  0
  5  7  1  0
  7  8  1  0
  8  9  1  0
 10  9  1  0
 11 10  1  0
 12  7  1  0
 12 11  1  0
 13 12  1  0
 13 17  1  0
 14 13  2  0
 15 14  1  0
 15 16  1  0
 16 18  1  0
 16 17  2  0
 18 19  1  0
 19 20  1  0
 19 24  1  0
 20 21  1  0
 21 22  1  0
 22 23  1  0
 24 23  1  0
  1 25  1  0
  2 26  1  0
  3 27  1  0
  8 28  1  0
  8 29  1  0
  9 30  1  0
  9 31  1  0
 10 32  1  0
 10 33  1  0
 11 34  1  0
 11 35  1  0
 12 36  1  6
 19 37  1  0
 20 38  1  0
 20 39  1  0
 21 40  1  0
 21 41  1  0
 22 42  1  0
 22 43  1  0
 23 44  1  0
 23 45  1  0
 24 46  1  0
 24 47  1  0
M  ISO  8  25  14  26  14  27  14  28  13  29  13  30  13  31  13  32  13
M  ISO  8  33  13  34  13  35  13  36  13  37  13  38  13  39  13  40  13
M  ISO  7  41  13  42  13  43  13  44  13  45  13  46  13  47  13
M  END
>  <minimizedAffinity>  (1) 
-5.72112036

>  <minimizedRMSD>  (1) 
2.08427

$$$$
