
     RDKit          3D

 30 32  0  0  0  0  0  0  0  0999 V2000
   44.4770   36.0530   44.5620 C   0  0  0  0  0  0  0  0  0  0  0  0
   45.1980   35.9850   43.3480 C   0  0  0  0  0  0  0  0  0  0  0  0
   46.1090   34.9160   43.2350 C   0  0  0  0  0  0  0  0  0  0  0  0
   46.2510   34.0280   44.2640 N   0  0  0  0  0  0  0  0  0  0  0  0
   45.5300   34.1480   45.4000 C   0  0  0  0  0  0  0  0  0  0  0  0
   44.6630   35.1360   45.5470 N   0  0  0  0  0  0  0  0  0  0  0  0
   46.8950   34.7890   41.9910 C   0  0  0  0  0  0  0  0  0  0  0  0
   46.4550   34.1110   40.8890 C   0  0  0  0  0  0  0  0  0  0  0  0
   47.4550   34.2270   39.9710 N   0  0  0  0  0  0  0  0  0  0  0  0
   48.4400   34.9540   40.5380 C   0  0  0  0  0  0  0  0  0  0  0  0
   48.1060   35.3050   41.7820 N   0  0  0  0  0  0  0  0  0  0  0  0
   45.6900   33.1860   46.5010 C   0  0  0  0  0  0  0  0  0  0  0  0
   46.3430   31.8940   46.0550 C   0  0  0  0  0  0  0  0  0  0  0  0
   47.3020   31.3980   47.0490 C   0  0  0  0  0  0  0  0  0  0  0  0
   47.5610   32.2080   48.1530 C   0  0  0  0  0  0  0  0  0  0  0  0
   48.4910   31.5260   48.9390 C   0  0  0  0  0  0  0  0  0  0  0  0
   48.7450   30.3440   48.2760 C   0  0  0  0  0  0  0  0  0  0  0  0
   48.0320   30.3010   47.1730 O   0  0  0  0  0  0  0  0  0  0  0  0
   43.7504   36.8651   44.7122 H   0  0  0  0  0  0  0  0  0  0  0  0
   45.0568   36.7204   42.5422 H   0  0  0  0  0  0  0  0  0  0  0  0
   45.4971   33.5837   40.7688 H   0  0  0  0  0  0  0  0  0  0  0  0
   49.3862   35.2203   40.0442 H   0  0  0  0  0  0  0  0  0  0  0  0
   48.6679   35.8598   42.4434 H   0  0  0  0  0  0  0  0  0  0  0  0
   46.3140   33.6449   47.2820 H   0  0  0  0  0  0  0  0  0  0  0  0
   44.6860   32.9396   46.8768 H   0  0  0  0  0  0  0  0  0  0  0  0
   45.5623   31.1341   45.9030 H   0  0  0  0  0  0  0  0  0  0  0  0
   46.8892   32.0911   45.1208 H   0  0  0  0  0  0  0  0  0  0  0  0
   47.1187   33.1928   48.3638 H   0  0  0  0  0  0  0  0  0  0  0  0
   48.9302   31.8617   49.8900 H   0  0  0  0  0  0  0  0  0  0  0  0
   49.4365   29.5595   48.6171 H   0  0  0  0  0  0  0  0  0  0  0  0
  1  6  2  0
  2  1  1  0
  3  2  2  0
  3  4  1  0
  4  5  2  0
  5  6  1  0
  5 12  1  0
  7  3  1  0
  8  7  2  0
  9 10  2  0
  9  8  1  0
 10 11  1  0
 11  7  1  0
 13 12  1  0
 13 14  1  0
 14 18  1  0
 14 15  2  0
 15 16  1  0
 17 16  2  0
 18 17  1  0
  1 19  1  0
  2 20  1  0
  8 21  1  0
 10 22  1  0
 11 23  1  0
 12 24  1  0
 12 25  1  0
 13 26  1  0
 13 27  1  0
 15 28  1  0
 16 29  1  0
 17 30  1  0
M  ISO  8  19  14  20  14  21  14  22  14  23   9  24   8  25   8  26   8
M  ISO  4  27   8  28  14  29  14  30  14
M  END
>  <minimizedAffinity>  (1) 
-5.27406549

>  <minimizedRMSD>  (1) 
1.61927259

$$$$
