
     RDKit          3D

 30 32  0  0  0  0  0  0  0  0999 V2000
   44.4820   36.0300   44.5570 C   0  0  0  0  0  0  0  0  0  0  0  0
   45.2050   35.9600   43.3430 C   0  0  0  0  0  0  0  0  0  0  0  0
   46.1250   34.8970   43.2320 C   0  0  0  0  0  0  0  0  0  0  0  0
   46.2680   34.0290   44.2530 N   0  0  0  0  0  0  0  0  0  0  0  0
   45.5590   34.1290   45.3960 C   0  0  0  0  0  0  0  0  0  0  0  0
   44.6720   35.1260   45.5420 N   0  0  0  0  0  0  0  0  0  0  0  0
   46.9050   34.7810   41.9810 C   0  0  0  0  0  0  0  0  0  0  0  0
   46.4510   34.1040   40.8770 C   0  0  0  0  0  0  0  0  0  0  0  0
   47.4620   34.2400   39.9610 N   0  0  0  0  0  0  0  0  0  0  0  0
   48.4390   34.9610   40.5270 C   0  0  0  0  0  0  0  0  0  0  0  0
   48.1260   35.3150   41.7830 N   0  0  0  0  0  0  0  0  0  0  0  0
   45.7280   33.1680   46.5030 C   0  0  0  0  0  0  0  0  0  0  0  0
   46.4940   31.9320   46.0680 C   0  0  0  0  0  0  0  0  0  0  0  0
   47.3620   31.4050   47.1160 C   0  0  0  0  0  0  0  0  0  0  0  0
   47.7500   31.9850   48.3180 C   0  0  0  0  0  0  0  0  0  0  0  0
   48.5850   31.2700   49.1400 C   0  0  0  0  0  0  0  0  0  0  0  0
   49.0010   30.0150   48.7370 C   0  0  0  0  0  0  0  0  0  0  0  0
   48.1820   29.7840   47.0910 S   0  0  0  0  0  0  0  0  0  0  0  0
   43.7496   36.8379   44.7016 H   0  0  0  0  0  0  0  0  0  0  0  0
   45.0583   36.6909   42.5341 H   0  0  0  0  0  0  0  0  0  0  0  0
   45.4950   33.5737   40.7550 H   0  0  0  0  0  0  0  0  0  0  0  0
   49.3802   35.2293   40.0249 H   0  0  0  0  0  0  0  0  0  0  0  0
   48.6899   35.8681   42.4441 H   0  0  0  0  0  0  0  0  0  0  0  0
   46.2788   33.6588   47.3189 H   0  0  0  0  0  0  0  0  0  0  0  0
   44.7283   32.8503   46.8341 H   0  0  0  0  0  0  0  0  0  0  0  0
   45.7713   31.1523   45.7855 H   0  0  0  0  0  0  0  0  0  0  0  0
   47.1351   32.2211   45.2221 H   0  0  0  0  0  0  0  0  0  0  0  0
   47.3982   32.9877   48.6023 H   0  0  0  0  0  0  0  0  0  0  0  0
   48.9170   31.6881   50.1018 H   0  0  0  0  0  0  0  0  0  0  0  0
   49.6635   29.3165   49.2691 H   0  0  0  0  0  0  0  0  0  0  0  0
  1  6  2  0
  2  1  1  0
  3  2  2  0
  3  4  1  0
  4  5  2  0
  5  6  1  0
  5 12  1  0
  7  3  1  0
  8  7  2  0
  9 10  2  0
  9  8  1  0
 10 11  1  0
 11  7  1  0
 13 12  1  0
 13 14  1  0
 14 15  2  0
 15 16  1  0
 17 16  2  0
 18 14  1  0
 18 17  1  0
  1 19  1  0
  2 20  1  0
  8 21  1  0
 10 22  1  0
 11 23  1  0
 12 24  1  0
 12 25  1  0
 13 26  1  0
 13 27  1  0
 15 28  1  0
 16 29  1  0
 17 30  1  0
M  ISO  8  19  14  20  14  21  14  22  14  23   9  24   8  25   8  26   8
M  ISO  4  27   8  28  14  29  14  30  14
M  END
>  <minimizedAffinity>  (1) 
-5.25238132

>  <minimizedRMSD>  (1) 
1.70166337

$$$$
