
     RDKit          3D

 32 34  0  0  0  0  0  0  0  0999 V2000
   44.7520   35.9810   43.9950 C   0  0  0  0  0  0  0  0  0  0  0  0
   44.1090   35.7850   42.7470 C   0  0  0  0  0  0  0  0  0  0  0  0
   44.1130   34.4870   42.2310 C   0  0  0  0  0  0  0  0  0  0  0  0
   44.7160   33.4780   42.9240 N   0  0  0  0  0  0  0  0  0  0  0  0
   45.3190   33.7250   44.1190 C   0  0  0  0  0  0  0  0  0  0  0  0
   45.3350   34.9510   44.6410 N   0  0  0  0  0  0  0  0  0  0  0  0
   43.4560   34.2300   40.9350 C   0  0  0  0  0  0  0  0  0  0  0  0
   42.1540   33.7530   40.8570 C   0  0  0  0  0  0  0  0  0  0  0  0
   41.9120   33.6480   39.5150 N   0  0  0  0  0  0  0  0  0  0  0  0
   43.0190   34.0460   38.8710 C   0  0  0  0  0  0  0  0  0  0  0  0
   43.9920   34.4130   39.7320 N   0  0  0  0  0  0  0  0  0  0  0  0
   45.9700   32.6240   44.8610 C   0  0  0  0  0  0  0  0  0  0  0  0
   46.4500   33.0600   46.2290 C   0  0  0  0  0  0  0  0  0  0  0  0
   45.9680   32.0500   47.2070 C   0  0  0  0  0  0  0  0  0  0  0  0
   45.6470   30.7570   46.8290 C   0  0  0  0  0  0  0  0  0  0  0  0
   45.1960   29.8220   47.7610 C   0  0  0  0  0  0  0  0  0  0  0  0
   45.0920   30.2610   49.0650 C   0  0  0  0  0  0  0  0  0  0  0  0
   45.4160   31.5650   49.4490 C   0  0  0  0  0  0  0  0  0  0  0  0
   45.8470   32.4300   48.5110 N   0  0  0  0  0  0  0  0  0  0  0  0
   44.7757   36.9858   44.4420 H   0  0  0  0  0  0  0  0  0  0  0  0
   43.6292   36.6164   42.2099 H   0  0  0  0  0  0  0  0  0  0  0  0
   41.4721   33.5139   41.6864 H   0  0  0  0  0  0  0  0  0  0  0  0
   43.1216   34.0704   37.7761 H   0  0  0  0  0  0  0  0  0  0  0  0
   44.9365   34.7571   39.5076 H   0  0  0  0  0  0  0  0  0  0  0  0
   45.2471   31.8041   44.9842 H   0  0  0  0  0  0  0  0  0  0  0  0
   46.8482   32.3008   44.2828 H   0  0  0  0  0  0  0  0  0  0  0  0
   47.5489   33.1061   46.2457 H   0  0  0  0  0  0  0  0  0  0  0  0
   46.0638   34.0595   46.4778 H   0  0  0  0  0  0  0  0  0  0  0  0
   45.7495   30.4617   45.7743 H   0  0  0  0  0  0  0  0  0  0  0  0
   44.9378   28.7924   47.4725 H   0  0  0  0  0  0  0  0  0  0  0  0
   44.7400   29.5564   49.8329 H   0  0  0  0  0  0  0  0  0  0  0  0
   45.3207   31.8794   50.4988 H   0  0  0  0  0  0  0  0  0  0  0  0
  1  6  2  0
  2  1  1  0
  3  2  2  0
  3  4  1  0
  4  5  2  0
  5  6  1  0
  5 12  1  0
  7  3  1  0
  8  7  2  0
  9  8  1  0
 10  9  2  0
 10 11  1  0
 11  7  1  0
 12 13  1  0
 13 14  1  0
 14 19  1  0
 15 14  2  0
 15 16  1  0
 16 17  2  0
 17 18  1  0
 19 18  2  0
  1 20  1  0
  2 21  1  0
  8 22  1  0
 10 23  1  0
 11 24  1  0
 12 25  1  0
 12 26  1  0
 13 27  1  0
 13 28  1  0
 15 29  1  0
 16 30  1  0
 17 31  1  0
 18 32  1  0
M  ISO  8  20  14  21  14  22  14  23  14  24   9  25   8  26   8  27   8
M  ISO  5  28   8  29  14  30  14  31  14  32  14
M  END
>  <minimizedAffinity>  (1) 
-5.13358212

>  <minimizedRMSD>  (1) 
2.98523521

$$$$
