
     RDKit          3D

 25 26  0  0  0  0  0  0  0  0999 V2000
   44.5810   35.6550   44.7350 C   0  0  0  0  0  0  0  0  0  0  0  0
   45.2550   35.7120   43.4940 C   0  0  0  0  0  0  0  0  0  0  0  0
   46.2600   34.7690   43.3010 C   0  0  0  0  0  0  0  0  0  0  0  0
   46.5330   33.8700   44.2850 N   0  0  0  0  0  0  0  0  0  0  0  0
   45.8690   33.8470   45.4530 C   0  0  0  0  0  0  0  0  0  0  0  0
   44.9020   34.7360   45.6680 N   0  0  0  0  0  0  0  0  0  0  0  0
   47.0090   34.7640   42.0280 C   0  0  0  0  0  0  0  0  0  0  0  0
   46.5440   34.1070   40.8960 C   0  0  0  0  0  0  0  0  0  0  0  0
   47.5110   34.3390   39.9500 N   0  0  0  0  0  0  0  0  0  0  0  0
   48.4700   35.0900   40.5210 C   0  0  0  0  0  0  0  0  0  0  0  0
   48.1760   35.3580   41.7940 N   0  0  0  0  0  0  0  0  0  0  0  0
   46.1860   32.8610   46.5100 C   0  0  0  0  0  0  0  0  0  0  0  0
   45.1310   32.8510   47.6030 C   0  0  0  0  0  0  0  0  0  0  0  0
   45.7530   32.8000   48.8990 N   0  0  0  0  0  0  0  0  0  0  0  0
   43.7771   36.3760   44.9443 H   0  0  0  0  0  0  0  0  0  0  0  0
   45.0003   36.4575   42.7263 H   0  0  0  0  0  0  0  0  0  0  0  0
   45.6131   33.5319   40.7834 H   0  0  0  0  0  0  0  0  0  0  0  0
   49.3775   35.4375   40.0056 H   0  0  0  0  0  0  0  0  0  0  0  0
   48.7365   35.9105   42.4584 H   0  0  0  0  0  0  0  0  0  0  0  0
   46.2411   31.8595   46.0584 H   0  0  0  0  0  0  0  0  0  0  0  0
   47.1478   33.1419   46.9640 H   0  0  0  0  0  0  0  0  0  0  0  0
   44.5230   33.7646   47.5284 H   0  0  0  0  0  0  0  0  0  0  0  0
   44.4948   31.9626   47.4771 H   0  0  0  0  0  0  0  0  0  0  0  0
   45.0295   32.8593   49.6297 H   0  0  0  0  0  0  0  0  0  0  0  0
   46.2687   31.9139   48.9977 H   0  0  0  0  0  0  0  0  0  0  0  0
  1  6  2  0
  2  1  1  0
  3  2  2  0
  3  4  1  0
  4  5  2  0
  5  6  1  0
  5 12  1  0
  7  3  1  0
  8  7  2  0
  9 10  2  0
  9  8  1  0
 10 11  1  0
 11  7  1  0
 12 13  1  0
 13 14  1  0
  1 15  1  0
  2 16  1  0
  8 17  1  0
 10 18  1  0
 11 19  1  0
 12 20  1  0
 12 21  1  0
 13 22  1  0
 13 23  1  0
 14 24  1  0
 14 25  1  0
M  ISO  8  15  14  16  14  17  14  18  14  19   9  20   8  21   8  22   8
M  ISO  3  23   8  24   5  25   5
M  END
>  <minimizedAffinity>  (1) 
-4.7904458

>  <minimizedRMSD>  (1) 
0.268311143

$$$$
