
     RDKit          3D

 37 39  0  0  0  0  0  0  0  0999 V2000
   45.5880   33.0030   46.4390 C   0  0  0  0  0  0  0  0  0  0  0  0
   44.5670   36.0330   44.6440 C   0  0  0  0  0  0  0  0  0  0  0  0
   45.2770   35.9700   43.4240 C   0  0  0  0  0  0  0  0  0  0  0  0
   46.1150   34.8510   43.2460 C   0  0  0  0  0  0  0  0  0  0  0  0
   46.1820   33.9290   44.2360 N   0  0  0  0  0  0  0  0  0  0  0  0
   45.4810   34.0300   45.3940 C   0  0  0  0  0  0  0  0  0  0  0  0
   44.6790   35.0840   45.5860 N   0  0  0  0  0  0  0  0  0  0  0  0
   46.8810   34.7240   42.0010 C   0  0  0  0  0  0  0  0  0  0  0  0
   48.1180   35.2860   41.8140 C   0  0  0  0  0  0  0  0  0  0  0  0
   48.4570   34.9280   40.5460 N   0  0  0  0  0  0  0  0  0  0  0  0
   47.4760   34.2040   40.0260 C   0  0  0  0  0  0  0  0  0  0  0  0
   46.4740   34.0540   40.9050 N   0  0  0  0  0  0  0  0  0  0  0  0
   46.9770   32.4210   46.5250 C   0  0  0  0  0  0  0  0  0  0  0  0
   47.5500   32.4420   48.2350 S   0  0  0  0  0  0  0  0  0  0  0  0
   49.7270   28.6190   49.1820 C   0  0  0  0  0  0  0  0  0  0  0  0
   49.8720   29.6750   50.0510 C   0  0  0  0  0  0  0  0  0  0  0  0
   49.2120   30.8560   49.7780 C   0  0  0  0  0  0  0  0  0  0  0  0
   48.4300   30.9560   48.6540 C   0  0  0  0  0  0  0  0  0  0  0  0
   48.3100   29.8600   47.7970 C   0  0  0  0  0  0  0  0  0  0  0  0
   48.9630   28.6770   48.0590 C   0  0  0  0  0  0  0  0  0  0  0  0
   50.5990   27.1600   49.6060 S   0  0  0  0  0  0  0  0  0  0  0  0
   51.0610   27.2550   51.0440 O   0  0  0  0  0  0  0  0  0  0  0  0
   49.6530   26.0030   49.4560 O   0  0  0  0  0  0  0  0  0  0  0  0
   44.8779   32.1935   46.2143 H   0  0  0  0  0  0  0  0  0  0  0  0
   45.3604   33.4783   47.4045 H   0  0  0  0  0  0  0  0  0  0  0  0
   43.9003   36.8884   44.8276 H   0  0  0  0  0  0  0  0  0  0  0  0
   45.1810   36.7512   42.6556 H   0  0  0  0  0  0  0  0  0  0  0  0
   48.7019   35.8880   42.5258 H   0  0  0  0  0  0  0  0  0  0  0  0
   47.4827   33.7827   39.0099 H   0  0  0  0  0  0  0  0  0  0  0  0
   45.5907   33.5412   40.7719 H   0  0  0  0  0  0  0  0  0  0  0  0
   46.9606   31.3838   46.1590 H   0  0  0  0  0  0  0  0  0  0  0  0
   47.6598   33.0236   45.9080 H   0  0  0  0  0  0  0  0  0  0  0  0
   50.5025   29.5801   50.9473 H   0  0  0  0  0  0  0  0  0  0  0  0
   49.3122   31.7143   50.4587 H   0  0  0  0  0  0  0  0  0  0  0  0
   47.6829   29.9435   46.8971 H   0  0  0  0  0  0  0  0  0  0  0  0
   48.8703   27.8120   47.3858 H   0  0  0  0  0  0  0  0  0  0  0  0
   51.6922   26.9934   48.7973 H   0  0  0  0  0  0  0  0  0  0  0  0
  1 13  1  0
  2  7  2  0
  3  2  1  0
  4  3  2  0
  4  5  1  0
  5  6  2  0
  6  7  1  0
  6  1  1  0
  8  4  1  0
  9  8  2  0
 10  9  1  0
 11 10  2  0
 11 12  1  0
 12  8  1  0
 13 14  1  0
 14 18  1  0
 15 21  1  0
 15 16  2  0
 17 16  1  0
 18 17  2  0
 19 20  2  0
 19 18  1  0
 20 15  1  0
 21 22  2  0
 23 21  2  0
  1 24  1  0
  1 25  1  0
  2 26  1  0
  3 27  1  0
  9 28  1  0
 11 29  1  0
 12 30  1  0
 13 31  1  0
 13 32  1  0
 16 33  1  0
 17 34  1  0
 19 35  1  0
 20 36  1  0
 21 37  1  0
M  ISO  8  24   8  25   8  26  14  27  14  28  14  29  14  30   9  31   8
M  ISO  6  32   8  33  14  34  14  35  14  36  14  37  11
M  END
>  <minimizedAffinity>  (1) 
-5.39442062

>  <minimizedRMSD>  (1) 
1.75798011

$$$$
