
     RDKit          3D

 35 38  0  0  0  0  0  0  0  0999 V2000
   45.5760   33.1720   46.4680 C   0  0  0  0  0  0  0  0  0  0  0  0
   44.5110   36.1110   44.5510 C   0  0  0  0  0  0  0  0  0  0  0  0
   45.2380   36.0120   43.3430 C   0  0  0  0  0  0  0  0  0  0  0  0
   46.0940   34.9140   43.2170 C   0  0  0  0  0  0  0  0  0  0  0  0
   46.1790   34.0320   44.2270 N   0  0  0  0  0  0  0  0  0  0  0  0
   45.4640   34.1520   45.3810 C   0  0  0  0  0  0  0  0  0  0  0  0
   44.6360   35.1930   45.5320 N   0  0  0  0  0  0  0  0  0  0  0  0
   46.8770   34.7600   41.9800 C   0  0  0  0  0  0  0  0  0  0  0  0
   48.1240   35.2900   41.8010 C   0  0  0  0  0  0  0  0  0  0  0  0
   48.4740   34.9100   40.5290 N   0  0  0  0  0  0  0  0  0  0  0  0
   47.4660   34.1940   40.0100 C   0  0  0  0  0  0  0  0  0  0  0  0
   46.4520   34.0790   40.8840 N   0  0  0  0  0  0  0  0  0  0  0  0
   46.9130   32.4770   46.4720 C   0  0  0  0  0  0  0  0  0  0  0  0
   47.4840   32.2500   48.1650 S   0  0  0  0  0  0  0  0  0  0  0  0
   50.7700   29.4420   50.4410 N   0  0  0  0  0  0  0  0  0  0  0  0
   50.7700   30.6990   50.9230 C   0  0  0  0  0  0  0  0  0  0  0  0
   49.8350   31.3920   50.2350 N   0  0  0  0  0  0  0  0  0  0  0  0
   49.2780   30.5430   49.3400 C   0  0  0  0  0  0  0  0  0  0  0  0
   48.2880   30.6610   48.3750 C   0  0  0  0  0  0  0  0  0  0  0  0
   47.9220   29.6170   47.6000 N   0  0  0  0  0  0  0  0  0  0  0  0
   48.5430   28.4330   47.7770 C   0  0  0  0  0  0  0  0  0  0  0  0
   49.5120   28.2650   48.7030 N   0  0  0  0  0  0  0  0  0  0  0  0
   49.8650   29.3080   49.4630 C   0  0  0  0  0  0  0  0  0  0  0  0
   44.7848   32.4174   46.3476 H   0  0  0  0  0  0  0  0  0  0  0  0
   45.4729   33.7114   47.4211 H   0  0  0  0  0  0  0  0  0  0  0  0
   43.8252   36.9588   44.6953 H   0  0  0  0  0  0  0  0  0  0  0  0
   45.1355   36.7603   42.5433 H   0  0  0  0  0  0  0  0  0  0  0  0
   48.7132   35.8855   42.5139 H   0  0  0  0  0  0  0  0  0  0  0  0
   47.4689   33.7576   39.0003 H   0  0  0  0  0  0  0  0  0  0  0  0
   45.5567   33.5868   40.7529 H   0  0  0  0  0  0  0  0  0  0  0  0
   46.8146   31.4951   45.9860 H   0  0  0  0  0  0  0  0  0  0  0  0
   47.6418   33.0928   45.9246 H   0  0  0  0  0  0  0  0  0  0  0  0
   51.3828   28.6861   50.7786 H   0  0  0  0  0  0  0  0  0  0  0  0
   51.4113   31.0895   51.7269 H   0  0  0  0  0  0  0  0  0  0  0  0
   48.2517   27.5785   47.1485 H   0  0  0  0  0  0  0  0  0  0  0  0
  1 13  1  0
  2  7  2  0
  3  2  1  0
  4  3  2  0
  4  5  1  0
  5  6  2  0
  6  7  1  0
  6  1  1  0
  8  4  1  0
  9  8  2  0
 10  9  1  0
 11 10  2  0
 11 12  1  0
 12  8  1  0
 13 14  1  0
 14 19  1  0
 15 16  1  0
 17 16  2  0
 18 23  2  0
 18 17  1  0
 19 18  1  0
 20 21  1  0
 20 19  2  0
 21 22  2  0
 22 23  1  0
 23 15  1  0
  1 24  1  0
  1 25  1  0
  2 26  1  0
  3 27  1  0
  9 28  1  0
 11 29  1  0
 12 30  1  0
 13 31  1  0
 13 32  1  0
 15 33  1  0
 16 34  1  0
 21 35  1  0
M  ISO  8  24   8  25   8  26  14  27  14  28  14  29  14  30   9  31   8
M  ISO  4  32   8  33   9  34  14  35  14
M  END
>  <minimizedAffinity>  (1) 
-5.71054316

>  <minimizedRMSD>  (1) 
1.04451299

$$$$
