
     RDKit          3D

 32 34  0  0  0  0  0  0  0  0999 V2000
   44.5330   35.9760   44.5110 C   0  0  0  0  0  0  0  0  0  0  0  0
   45.2490   35.9290   43.2890 C   0  0  0  0  0  0  0  0  0  0  0  0
   46.1750   34.8880   43.1590 C   0  0  0  0  0  0  0  0  0  0  0  0
   46.3300   34.0130   44.1760 N   0  0  0  0  0  0  0  0  0  0  0  0
   45.6240   34.0930   45.3300 C   0  0  0  0  0  0  0  0  0  0  0  0
   44.7290   35.0760   45.4900 N   0  0  0  0  0  0  0  0  0  0  0  0
   46.9580   34.7800   41.9090 C   0  0  0  0  0  0  0  0  0  0  0  0
   48.1840   35.3610   41.7440 C   0  0  0  0  0  0  0  0  0  0  0  0
   48.5460   35.0190   40.4660 N   0  0  0  0  0  0  0  0  0  0  0  0
   47.5770   34.2850   39.9400 C   0  0  0  0  0  0  0  0  0  0  0  0
   46.5570   34.1070   40.8090 N   0  0  0  0  0  0  0  0  0  0  0  0
   45.8150   33.1280   46.4150 C   0  0  0  0  0  0  0  0  0  0  0  0
   46.1440   31.7490   45.9130 C   0  0  0  0  0  0  0  0  0  0  0  0
   45.8260   30.5470   47.2360 S   0  0  0  0  0  0  0  0  0  0  0  0
   47.3650   30.1660   48.0600 C   0  0  0  0  0  0  0  0  0  0  0  0
   47.8600   30.9770   49.0610 C   0  0  0  0  0  0  0  0  0  0  0  0
   49.0630   30.6640   49.6940 C   0  0  0  0  0  0  0  0  0  0  0  0
   49.7060   29.5540   49.2930 N   0  0  0  0  0  0  0  0  0  0  0  0
   49.2200   28.7610   48.3140 C   0  0  0  0  0  0  0  0  0  0  0  0
   48.0740   29.0570   47.7080 N   0  0  0  0  0  0  0  0  0  0  0  0
   43.7926   36.7751   44.6634 H   0  0  0  0  0  0  0  0  0  0  0  0
   45.0865   36.6672   42.4899 H   0  0  0  0  0  0  0  0  0  0  0  0
   48.7501   35.9641   42.4692 H   0  0  0  0  0  0  0  0  0  0  0  0
   47.5995   33.8711   38.9211 H   0  0  0  0  0  0  0  0  0  0  0  0
   45.6820   33.5827   40.6661 H   0  0  0  0  0  0  0  0  0  0  0  0
   46.6396   33.4759   47.0545 H   0  0  0  0  0  0  0  0  0  0  0  0
   44.8687   33.0622   46.9720 H   0  0  0  0  0  0  0  0  0  0  0  0
   45.5148   31.5138   45.0419 H   0  0  0  0  0  0  0  0  0  0  0  0
   47.2023   31.7041   45.6165 H   0  0  0  0  0  0  0  0  0  0  0  0
   47.3022   31.8762   49.3617 H   0  0  0  0  0  0  0  0  0  0  0  0
   49.4704   31.3022   50.4920 H   0  0  0  0  0  0  0  0  0  0  0  0
   49.7776   27.8613   48.0149 H   0  0  0  0  0  0  0  0  0  0  0  0
  1  6  2  0
  2  1  1  0
  3  2  2  0
  3  4  1  0
  4  5  2  0
  5  6  1  0
  5 12  1  0
  7  3  1  0
  8  7  2  0
  9  8  1  0
 10  9  2  0
 10 11  1  0
 11  7  1  0
 13 12  1  0
 13 14  1  0
 14 15  1  0
 15 16  2  0
 16 17  1  0
 18 17  2  0
 19 18  1  0
 20 15  1  0
 20 19  2  0
  1 21  1  0
  2 22  1  0
  8 23  1  0
 10 24  1  0
 11 25  1  0
 12 26  1  0
 12 27  1  0
 13 28  1  0
 13 29  1  0
 16 30  1  0
 17 31  1  0
 19 32  1  0
M  ISO  8  21  14  22  14  23  14  24  14  25   9  26   8  27   8  28   8
M  ISO  4  29   8  30  14  31  14  32  14
M  END
>  <minimizedAffinity>  (1) 
-5.24634838

>  <minimizedRMSD>  (1) 
2.97034526

$$$$
