
     RDKit          3D

 31 33  0  0  0  0  0  0  0  0999 V2000
   44.5050   36.2250   44.4620 C   0  0  0  0  0  0  0  0  0  0  0  0
   45.2350   36.0900   43.2640 C   0  0  0  0  0  0  0  0  0  0  0  0
   46.0900   34.9690   43.1600 C   0  0  0  0  0  0  0  0  0  0  0  0
   46.1390   34.1180   44.2120 N   0  0  0  0  0  0  0  0  0  0  0  0
   45.4270   34.2750   45.3460 C   0  0  0  0  0  0  0  0  0  0  0  0
   44.6220   35.3180   45.4610 N   0  0  0  0  0  0  0  0  0  0  0  0
   46.8750   34.7710   41.9410 C   0  0  0  0  0  0  0  0  0  0  0  0
   48.1490   35.2590   41.7880 C   0  0  0  0  0  0  0  0  0  0  0  0
   48.5130   34.8620   40.5350 N   0  0  0  0  0  0  0  0  0  0  0  0
   47.4930   34.1780   39.9980 C   0  0  0  0  0  0  0  0  0  0  0  0
   46.4640   34.1080   40.8520 N   0  0  0  0  0  0  0  0  0  0  0  0
   45.5150   33.3280   46.4550 C   0  0  0  0  0  0  0  0  0  0  0  0
   46.7340   32.4590   46.3580 C   0  0  0  0  0  0  0  0  0  0  0  0
   47.4630   32.2450   47.9970 S   0  0  0  0  0  0  0  0  0  0  0  0
   46.6190   31.0030   48.9880 C   0  0  0  0  0  0  0  0  0  0  0  0
   45.4490   30.3340   48.3380 C   0  0  0  0  0  0  0  0  0  0  0  0
   45.2400   31.2710   49.4770 C   0  0  0  0  0  0  0  0  0  0  0  0
   43.8279   37.0827   44.5880 H   0  0  0  0  0  0  0  0  0  0  0  0
   45.1438   36.8224   42.4483 H   0  0  0  0  0  0  0  0  0  0  0  0
   48.7414   35.8384   42.5114 H   0  0  0  0  0  0  0  0  0  0  0  0
   47.5002   33.7341   38.9916 H   0  0  0  0  0  0  0  0  0  0  0  0
   45.5556   33.6457   40.7040 H   0  0  0  0  0  0  0  0  0  0  0  0
   45.5542   33.8903   47.3996 H   0  0  0  0  0  0  0  0  0  0  0  0
   44.6297   32.6763   46.4157 H   0  0  0  0  0  0  0  0  0  0  0  0
   46.4509   31.4763   45.9528 H   0  0  0  0  0  0  0  0  0  0  0  0
   47.4687   32.9359   45.6926 H   0  0  0  0  0  0  0  0  0  0  0  0
   47.5497   30.6852   49.4808 H   0  0  0  0  0  0  0  0  0  0  0  0
   45.1427   30.6249   47.3223 H   0  0  0  0  0  0  0  0  0  0  0  0
   45.1669   29.2926   48.1238 H   0  0  0  0  0  0  0  0  0  0  0  0
   44.9193   30.8833   50.4552 H   0  0  0  0  0  0  0  0  0  0  0  0
   44.6355   32.1761   49.6361 H   0  0  0  0  0  0  0  0  0  0  0  0
  1  6  2  0
  2  1  1  0
  3  2  2  0
  3  4  1  0
  4  5  2  0
  5  6  1  0
  5 12  1  0
  7  3  1  0
  8  7  2  0
  9  8  1  0
 10  9  2  0
 10 11  1  0
 11  7  1  0
 13 12  1  0
 13 14  1  0
 14 15  1  0
 15 17  1  0
 16 15  1  0
 16 17  1  0
  1 18  1  0
  2 19  1  0
  8 20  1  0
 10 21  1  0
 11 22  1  0
 12 23  1  0
 12 24  1  0
 13 25  1  0
 13 26  1  0
 15 27  1  0
 16 28  1  0
 16 29  1  0
 17 30  1  0
 17 31  1  0
M  ISO  8  18  14  19  14  20  14  21  14  22   9  23   8  24   8  25   8
M  ISO  6  26   8  27  13  28  13  29  13  30  13  31  13
M  END
>  <minimizedAffinity>  (1) 
-5.18181753

>  <minimizedRMSD>  (1) 
0.172418997

$$$$
