
     RDKit          3D

 29 31  0  0  0  0  0  0  0  0999 V2000
   44.4870   35.9600   44.8070 C   0  0  0  0  0  0  0  0  0  0  0  0
   45.1830   35.8840   43.5730 C   0  0  0  0  0  0  0  0  0  0  0  0
   46.0560   34.8080   43.4050 C   0  0  0  0  0  0  0  0  0  0  0  0
   46.1820   33.9180   44.4090 N   0  0  0  0  0  0  0  0  0  0  0  0
   45.5020   34.0180   45.5780 C   0  0  0  0  0  0  0  0  0  0  0  0
   44.6650   35.0330   45.7640 N   0  0  0  0  0  0  0  0  0  0  0  0
   46.8040   34.6810   42.1440 C   0  0  0  0  0  0  0  0  0  0  0  0
   48.0450   35.2230   41.9520 C   0  0  0  0  0  0  0  0  0  0  0  0
   48.3690   34.8810   40.6770 N   0  0  0  0  0  0  0  0  0  0  0  0
   47.3580   34.1720   40.1550 C   0  0  0  0  0  0  0  0  0  0  0  0
   46.3500   34.0220   41.0450 N   0  0  0  0  0  0  0  0  0  0  0  0
   45.6730   33.0230   46.6430 C   0  0  0  0  0  0  0  0  0  0  0  0
   47.0980   32.5120   46.7280 C   0  0  0  0  0  0  0  0  0  0  0  0
   47.1710   31.1460   47.9090 S   0  0  0  0  0  0  0  0  0  0  0  0
   48.5760   31.3010   49.0000 C   0  0  0  0  0  0  0  0  0  0  0  0
   49.4940   32.2110   49.3460 N   0  0  0  0  0  0  0  0  0  0  0  0
   50.2970   31.7180   50.2350 O   0  0  0  0  0  0  0  0  0  0  0  0
   49.9450   30.4870   50.5020 C   0  0  0  0  0  0  0  0  0  0  0  0
   48.8650   30.2000   49.7390 N   0  0  0  0  0  0  0  0  0  0  0  0
   43.7895   36.7921   44.9837 H   0  0  0  0  0  0  0  0  0  0  0  0
   45.0411   36.6383   42.7850 H   0  0  0  0  0  0  0  0  0  0  0  0
   48.6451   35.8042   42.6676 H   0  0  0  0  0  0  0  0  0  0  0  0
   47.3491   33.7642   39.1334 H   0  0  0  0  0  0  0  0  0  0  0  0
   45.4549   33.5279   40.9201 H   0  0  0  0  0  0  0  0  0  0  0  0
   45.4044   33.4843   47.6048 H   0  0  0  0  0  0  0  0  0  0  0  0
   45.0213   32.1673   46.4126 H   0  0  0  0  0  0  0  0  0  0  0  0
   47.4220   32.1596   45.7376 H   0  0  0  0  0  0  0  0  0  0  0  0
   47.7620   33.3235   47.0605 H   0  0  0  0  0  0  0  0  0  0  0  0
   50.4366   29.8095   51.2157 H   0  0  0  0  0  0  0  0  0  0  0  0
  1  6  2  0
  2  1  1  0
  3  2  2  0
  3  4  1  0
  4  5  2  0
  5  6  1  0
  5 12  1  0
  7  3  1  0
  8  7  2  0
  9  8  1  0
 10  9  2  0
 10 11  1  0
 11  7  1  0
 12 13  1  0
 13 14  1  0
 14 15  1  0
 15 16  2  0
 15 19  1  0
 16 17  1  0
 17 18  1  0
 19 18  2  0
  1 20  1  0
  2 21  1  0
  8 22  1  0
 10 23  1  0
 11 24  1  0
 12 25  1  0
 12 26  1  0
 13 27  1  0
 13 28  1  0
 18 29  1  0
M  ISO  8  20  14  21  14  22  14  23  14  24   9  25   8  26   8  27   8
M  ISO  2  28   8  29  14
M  END
>  <minimizedAffinity>  (1) 
-5.06950092

>  <minimizedRMSD>  (1) 
0.993909538

$$$$
