
     RDKit          3D

 30 32  0  0  0  0  0  0  0  0999 V2000
   44.4910   36.1040   44.5710 C   0  0  0  0  0  0  0  0  0  0  0  0
   45.2180   36.0050   43.3590 C   0  0  0  0  0  0  0  0  0  0  0  0
   46.0920   34.9040   43.2270 C   0  0  0  0  0  0  0  0  0  0  0  0
   46.1730   34.0320   44.2590 N   0  0  0  0  0  0  0  0  0  0  0  0
   45.4680   34.1530   45.4030 C   0  0  0  0  0  0  0  0  0  0  0  0
   44.6340   35.1820   45.5550 N   0  0  0  0  0  0  0  0  0  0  0  0
   46.8670   34.7540   41.9910 C   0  0  0  0  0  0  0  0  0  0  0  0
   48.1100   35.2890   41.8100 C   0  0  0  0  0  0  0  0  0  0  0  0
   48.4540   34.9090   40.5360 N   0  0  0  0  0  0  0  0  0  0  0  0
   47.4540   34.1940   40.0200 C   0  0  0  0  0  0  0  0  0  0  0  0
   46.4510   34.0780   40.8970 N   0  0  0  0  0  0  0  0  0  0  0  0
   45.5950   33.1690   46.4880 C   0  0  0  0  0  0  0  0  0  0  0  0
   47.0330   32.7600   46.7090 C   0  0  0  0  0  0  0  0  0  0  0  0
   47.1860   31.7420   48.1840 S   0  0  0  0  0  0  0  0  0  0  0  0
   46.5010   30.0920   47.9070 C   0  0  0  0  0  0  0  0  0  0  0  0
   45.0650   29.6820   48.0750 C   0  0  0  0  0  0  0  0  0  0  0  0
   45.2170   27.8980   47.6090 S   0  0  0  0  0  0  0  0  0  0  0  0
   47.0880   28.0290   47.2910 C   0  0  0  0  0  0  0  0  0  0  0  0
   47.3940   29.1810   47.5170 N   0  0  0  0  0  0  0  0  0  0  0  0
   43.7971   36.9450   44.7166 H   0  0  0  0  0  0  0  0  0  0  0  0
   45.1067   36.7510   42.5583 H   0  0  0  0  0  0  0  0  0  0  0  0
   48.6998   35.8865   42.5207 H   0  0  0  0  0  0  0  0  0  0  0  0
   47.4539   33.7585   39.0099 H   0  0  0  0  0  0  0  0  0  0  0  0
   45.5575   33.5823   40.7672 H   0  0  0  0  0  0  0  0  0  0  0  0
   45.2036   33.6102   47.4165 H   0  0  0  0  0  0  0  0  0  0  0  0
   45.0240   32.2724   46.2051 H   0  0  0  0  0  0  0  0  0  0  0  0
   47.3835   32.1876   45.8375 H   0  0  0  0  0  0  0  0  0  0  0  0
   47.6419   33.6666   46.8407 H   0  0  0  0  0  0  0  0  0  0  0  0
   44.1862   30.2676   48.3830 H   0  0  0  0  0  0  0  0  0  0  0  0
   47.7594   27.2204   46.9665 H   0  0  0  0  0  0  0  0  0  0  0  0
  1  6  2  0
  2  1  1  0
  3  2  2  0
  3  4  1  0
  4  5  2  0
  5  6  1  0
  5 12  1  0
  7  3  1  0
  8  7  2  0
  9  8  1  0
 10  9  2  0
 10 11  1  0
 11  7  1  0
 12 13  1  0
 13 14  1  0
 15 16  2  0
 15 14  1  0
 17 16  1  0
 18 19  2  0
 18 17  1  0
 19 15  1  0
  1 20  1  0
  2 21  1  0
  8 22  1  0
 10 23  1  0
 11 24  1  0
 12 25  1  0
 12 26  1  0
 13 27  1  0
 13 28  1  0
 16 29  1  0
 18 30  1  0
M  ISO  8  20  14  21  14  22  14  23  14  24   9  25   8  26   8  27   8
M  ISO  3  28   8  29  14  30  14
M  END
>  <minimizedAffinity>  (1) 
-4.90486622

>  <minimizedRMSD>  (1) 
1.07489991

$$$$
