
     RDKit          3D

 39 41  0  0  0  0  0  0  0  0999 V2000
   44.8900   35.8260   43.9870 C   0  0  0  0  0  0  0  0  0  0  0  0
   45.6530   35.9020   42.7990 C   0  0  0  0  0  0  0  0  0  0  0  0
   46.4540   34.7750   42.5000 C   0  0  0  0  0  0  0  0  0  0  0  0
   46.4440   33.7210   43.3410 N   0  0  0  0  0  0  0  0  0  0  0  0
   45.6900   33.6980   44.4730 C   0  0  0  0  0  0  0  0  0  0  0  0
   44.9260   34.7450   44.7820 N   0  0  0  0  0  0  0  0  0  0  0  0
   47.2700   34.7910   41.2750 C   0  0  0  0  0  0  0  0  0  0  0  0
   48.4800   35.4470   41.1940 C   0  0  0  0  0  0  0  0  0  0  0  0
   48.8840   35.2030   39.9010 N   0  0  0  0  0  0  0  0  0  0  0  0
   47.9680   34.4640   39.3030 C   0  0  0  0  0  0  0  0  0  0  0  0
   46.9490   34.1850   40.1240 N   0  0  0  0  0  0  0  0  0  0  0  0
   45.7060   32.5220   45.3680 C   0  0  0  0  0  0  0  0  0  0  0  0
   46.0480   31.2600   44.6260 C   0  0  0  0  0  0  0  0  0  0  0  0
   45.5690   29.8330   45.6070 S   0  0  0  0  0  0  0  0  0  0  0  0
   47.0070   30.7440   49.7120 N   0  0  0  0  0  0  0  0  0  0  0  0
   45.6460   31.1640   49.4360 C   0  0  0  0  0  0  0  0  0  0  0  0
   45.1890   30.7180   48.0890 C   0  0  0  0  0  0  0  0  0  0  0  0
   46.2210   29.9370   47.3060 C   0  0  0  0  0  0  0  0  0  0  0  0
   47.5600   30.5980   47.3460 C   0  0  0  0  0  0  0  0  0  0  0  0
   47.9020   31.2220   48.6820 C   0  0  0  0  0  0  0  0  0  0  0  0
   44.2498   36.6755   44.2672 H   0  0  0  0  0  0  0  0  0  0  0  0
   45.6253   36.7862   42.1452 H   0  0  0  0  0  0  0  0  0  0  0  0
   48.9972   36.0253   41.9738 H   0  0  0  0  0  0  0  0  0  0  0  0
   48.0342   34.1205   38.2601 H   0  0  0  0  0  0  0  0  0  0  0  0
   46.1068   33.6291   39.9175 H   0  0  0  0  0  0  0  0  0  0  0  0
   46.4550   32.6852   46.1569 H   0  0  0  0  0  0  0  0  0  0  0  0
   44.6996   32.4047   45.7962 H   0  0  0  0  0  0  0  0  0  0  0  0
   45.5094   31.2421   43.6671 H   0  0  0  0  0  0  0  0  0  0  0  0
   47.1319   31.2281   44.4411 H   0  0  0  0  0  0  0  0  0  0  0  0
   47.3020   31.1263   50.6218 H   0  0  0  0  0  0  0  0  0  0  0  0
   44.9796   30.7338   50.1981 H   0  0  0  0  0  0  0  0  0  0  0  0
   45.6172   32.2634   49.4591 H   0  0  0  0  0  0  0  0  0  0  0  0
   44.3020   30.0808   48.2202 H   0  0  0  0  0  0  0  0  0  0  0  0
   44.9801   31.6300   47.5105 H   0  0  0  0  0  0  0  0  0  0  0  0
   46.3802   28.9371   47.7359 H   0  0  0  0  0  0  0  0  0  0  0  0
   48.3249   29.8431   47.1115 H   0  0  0  0  0  0  0  0  0  0  0  0
   47.5315   31.4166   46.6118 H   0  0  0  0  0  0  0  0  0  0  0  0
   48.9355   30.9577   48.9502 H   0  0  0  0  0  0  0  0  0  0  0  0
   47.7969   32.3139   48.6002 H   0  0  0  0  0  0  0  0  0  0  0  0
  1  6  2  0
  2  1  1  0
  3  2  2  0
  3  4  1  0
  4  5  2  0
  5  6  1  0
  5 12  1  0
  7  3  1  0
  8  7  2  0
  9  8  1  0
 10  9  2  0
 10 11  1  0
 11  7  1  0
 13 12  1  0
 13 14  1  0
 14 18  1  0
 16 15  1  0
 17 16  1  0
 18 19  1  0
 18 17  1  0
 19 20  1  0
 20 15  1  0
  1 21  1  0
  2 22  1  0
  8 23  1  0
 10 24  1  0
 11 25  1  0
 12 26  1  0
 12 27  1  0
 13 28  1  0
 13 29  1  0
 15 30  1  0
 16 31  1  0
 16 32  1  0
 17 33  1  0
 17 34  1  0
 18 35  1  0
 19 36  1  0
 19 37  1  0
 20 38  1  0
 20 39  1  0
M  ISO  8  21  14  22  14  23  14  24  14  25   9  26   8  27   8  28   8
M  ISO  8  29   8  30   5  31  13  32  13  33  13  34  13  35  13  36  13
M  ISO  3  37  13  38  13  39  13
M  END
>  <minimizedAffinity>  (1) 
-4.81155586

>  <minimizedRMSD>  (1) 
2.76311088

$$$$
