
     RDKit          3D

 38 41  0  0  0  0  0  0  0  0999 V2000
   45.5830   33.2690   46.4430 C   0  0  0  0  0  0  0  0  0  0  0  0
   44.4870   36.1610   44.4840 C   0  0  0  0  0  0  0  0  0  0  0  0
   45.2100   36.0460   43.2790 C   0  0  0  0  0  0  0  0  0  0  0  0
   46.0770   34.9500   43.1660 C   0  0  0  0  0  0  0  0  0  0  0  0
   46.1590   34.0950   44.2010 N   0  0  0  0  0  0  0  0  0  0  0  0
   45.4570   34.2290   45.3450 C   0  0  0  0  0  0  0  0  0  0  0  0
   44.6240   35.2610   45.4810 N   0  0  0  0  0  0  0  0  0  0  0  0
   46.8630   34.7730   41.9250 C   0  0  0  0  0  0  0  0  0  0  0  0
   48.1160   35.2980   41.7660 C   0  0  0  0  0  0  0  0  0  0  0  0
   48.4750   34.9070   40.4960 N   0  0  0  0  0  0  0  0  0  0  0  0
   47.4780   34.2080   39.9830 C   0  0  0  0  0  0  0  0  0  0  0  0
   46.4530   34.1010   40.8410 N   0  0  0  0  0  0  0  0  0  0  0  0
   46.9800   32.7490   46.6140 C   0  0  0  0  0  0  0  0  0  0  0  0
   47.1060   31.8670   48.1940 S   0  0  0  0  0  0  0  0  0  0  0  0
   47.3540   30.1270   47.9690 C   0  0  0  0  0  0  0  0  0  0  0  0
   48.3940   29.2560   48.2050 C   0  0  0  0  0  0  0  0  0  0  0  0
   48.0290   28.0150   47.8380 N   0  0  0  0  0  0  0  0  0  0  0  0
   46.7520   28.0630   47.3610 C   0  0  0  0  0  0  0  0  0  0  0  0
   45.9690   27.0170   46.8710 C   0  0  0  0  0  0  0  0  0  0  0  0
   44.6920   27.2950   46.4360 C   0  0  0  0  0  0  0  0  0  0  0  0
   44.2230   28.5880   46.4940 C   0  0  0  0  0  0  0  0  0  0  0  0
   45.0290   29.5830   46.9840 C   0  0  0  0  0  0  0  0  0  0  0  0
   46.3210   29.3860   47.4390 C   0  0  0  0  0  0  0  0  0  0  0  0
   44.9151   32.4183   46.2424 H   0  0  0  0  0  0  0  0  0  0  0  0
   45.3134   33.7951   47.3707 H   0  0  0  0  0  0  0  0  0  0  0  0
   43.7940   37.0051   44.6151 H   0  0  0  0  0  0  0  0  0  0  0  0
   45.0993   36.7802   42.4674 H   0  0  0  0  0  0  0  0  0  0  0  0
   48.6995   35.8928   42.4841 H   0  0  0  0  0  0  0  0  0  0  0  0
   47.4876   33.7676   38.9751 H   0  0  0  0  0  0  0  0  0  0  0  0
   45.5565   33.6141   40.6992 H   0  0  0  0  0  0  0  0  0  0  0  0
   47.2189   32.0610   45.7897 H   0  0  0  0  0  0  0  0  0  0  0  0
   47.6886   33.5903   46.6056 H   0  0  0  0  0  0  0  0  0  0  0  0
   49.3711   29.5323   48.6279 H   0  0  0  0  0  0  0  0  0  0  0  0
   48.6149   27.1706   47.9057 H   0  0  0  0  0  0  0  0  0  0  0  0
   46.3637   25.9910   46.8329 H   0  0  0  0  0  0  0  0  0  0  0  0
   44.0520   26.4902   46.0453 H   0  0  0  0  0  0  0  0  0  0  0  0
   43.2052   28.8220   46.1485 H   0  0  0  0  0  0  0  0  0  0  0  0
   44.6222   30.6045   47.0177 H   0  0  0  0  0  0  0  0  0  0  0  0
  1 13  1  0
  2  7  2  0
  3  2  1  0
  4  3  2  0
  4  5  1  0
  5  6  2  0
  6  7  1  0
  6  1  1  0
  8  4  1  0
  9  8  2  0
 10  9  1  0
 11 10  2  0
 11 12  1  0
 12  8  1  0
 13 14  1  0
 15 14  1  0
 15 16  2  0
 17 16  1  0
 18 23  2  0
 18 17  1  0
 19 18  1  0
 20 21  1  0
 20 19  2  0
 21 22  2  0
 22 23  1  0
 23 15  1  0
  1 24  1  0
  1 25  1  0
  2 26  1  0
  3 27  1  0
  9 28  1  0
 11 29  1  0
 12 30  1  0
 13 31  1  0
 13 32  1  0
 16 33  1  0
 17 34  1  0
 19 35  1  0
 20 36  1  0
 21 37  1  0
 22 38  1  0
M  ISO  8  24   8  25   8  26  14  27  14  28  14  29  14  30   9  31   8
M  ISO  7  32   8  33  14  34   9  35  14  36  14  37  14  38  14
M  END
>  <minimizedAffinity>  (1) 
-5.61138248

>  <minimizedRMSD>  (1) 
2.53813148

$$$$
