
     RDKit          3D

 39 42  0  0  1  0  0  0  0  0999 V2000
   44.6070   35.7380   44.8910 C   0  0  0  0  0  0  0  0  0  0  0  0
   45.1950   35.6520   43.5980 C   0  0  0  0  0  0  0  0  0  0  0  0
   45.9860   34.5560   43.3310 C   0  0  0  0  0  0  0  0  0  0  0  0
   46.1530   33.6290   44.3190 N   0  0  0  0  0  0  0  0  0  0  0  0
   45.5850   33.7440   45.5200 C   0  0  0  0  0  0  0  0  0  0  0  0
   44.8190   34.7810   45.8130 N   0  0  0  0  0  0  0  0  0  0  0  0
   45.8150   32.7080   46.5400 N   0  0  0  0  0  0  0  0  0  0  0  0
   45.2010   32.8180   47.8350 C   0  0  0  0  0  0  0  0  0  0  0  0
   46.0870   32.2950   48.9300 C   0  0  0  0  0  0  0  0  0  0  0  0
   47.5010   32.1660   48.4360 C   0  0  0  0  0  0  0  0  0  0  0  0
   47.4810   31.0930   47.3450 C   0  0  0  0  0  0  0  0  0  0  0  0
   46.6790   31.5740   46.2050 C   0  0  1  0  0  0  0  0  0  0  0  0
   45.9110   30.5000   45.4920 C   0  0  0  0  0  0  0  0  0  0  0  0
   45.9550   30.1430   44.2200 N   0  0  0  0  0  0  0  0  0  0  0  0
   45.1590   29.1530   43.9620 O   0  0  0  0  0  0  0  0  0  0  0  0
   44.5710   28.8490   45.1030 C   0  0  0  0  0  0  0  0  0  0  0  0
   45.0050   29.6590   46.0920 N   0  0  0  0  0  0  0  0  0  0  0  0
   43.3700   27.5100   45.2190 S   0  0  0  0  0  0  0  0  0  0  0  0
   44.0290   26.3690   46.4540 C   0  0  0  0  0  0  0  0  0  0  0  0
   44.2190   26.7890   47.7750 C   0  0  0  0  0  0  0  0  0  0  0  0
   44.7300   25.8250   48.6290 C   0  0  0  0  0  0  0  0  0  0  0  0
   45.0180   24.5700   48.1960 N   0  0  0  0  0  0  0  0  0  0  0  0
   44.8030   24.2460   46.9050 C   0  0  0  0  0  0  0  0  0  0  0  0
   44.3090   25.1280   46.0120 N   0  0  0  0  0  0  0  0  0  0  0  0
   43.9699   36.5993   45.1405 H   0  0  0  0  0  0  0  0  0  0  0  0
   45.0244   36.4311   42.8404 H   0  0  0  0  0  0  0  0  0  0  0  0
   46.4688   34.4316   42.3505 H   0  0  0  0  0  0  0  0  0  0  0  0
   44.9803   33.8772   48.0335 H   0  0  0  0  0  0  0  0  0  0  0  0
   44.2828   32.2124   47.8257 H   0  0  0  0  0  0  0  0  0  0  0  0
   46.0616   32.9908   49.7816 H   0  0  0  0  0  0  0  0  0  0  0  0
   45.7243   31.3049   49.2434 H   0  0  0  0  0  0  0  0  0  0  0  0
   47.8480   33.1239   48.0213 H   0  0  0  0  0  0  0  0  0  0  0  0
   48.1854   31.8920   49.2525 H   0  0  0  0  0  0  0  0  0  0  0  0
   48.5090   30.8888   47.0112 H   0  0  0  0  0  0  0  0  0  0  0  0
   47.0377   30.1689   47.7443 H   0  0  0  0  0  0  0  0  0  0  0  0
   47.4342   31.9363   45.4920 H   0  0  0  0  0  0  0  0  0  0  0  0
   43.9804   27.8090   48.1107 H   0  0  0  0  0  0  0  0  0  0  0  0
   44.9069   26.0823   49.6838 H   0  0  0  0  0  0  0  0  0  0  0  0
   45.0389   23.2258   46.5679 H   0  0  0  0  0  0  0  0  0  0  0  0
  1  6  2  0
  2  1  1  0
  3  2  2  0
  3  4  1  0
  4  5  2  0
  5  6  1  0
  5  7  1  0
  7  8  1  0
  8  9  1  0
 10  9  1  0
 11 10  1  0
 12  7  1  0
 12 11  1  0
 13 17  1  0
 13 12  1  0
 14 13  2  0
 15 14  1  0
 15 16  1  0
 16 18  1  0
 16 17  2  0
 18 19  1  0
 19 20  2  0
 20 21  1  0
 22 21  2  0
 23 22  1  0
 24 19  1  0
 24 23  2  0
  1 25  1  0
  2 26  1  0
  3 27  1  0
  8 28  1  0
  8 29  1  0
  9 30  1  0
  9 31  1  0
 10 32  1  0
 10 33  1  0
 11 34  1  0
 11 35  1  0
 12 36  1  6
 20 37  1  0
 21 38  1  0
 23 39  1  0
M  ISO  8  25  14  26  14  27  14  28  13  29  13  30  13  31  13  32  13
M  ISO  7  33  13  34  13  35  13  36  13  37  14  38  14  39  14
M  END
>  <minimizedAffinity>  (1) 
-5.46660566

>  <minimizedRMSD>  (1) 
1.16111612

$$$$
