
     RDKit          3D

 39 42  0  0  0  0  0  0  0  0999 V2000
   46.9110   32.7400   46.5330 C   0  0  0  0  0  0  0  0  0  0  0  0
   45.5620   33.3460   46.3980 C   0  0  0  0  0  0  0  0  0  0  0  0
   44.4790   36.2230   44.4140 C   0  0  0  0  0  0  0  0  0  0  0  0
   45.2100   36.0810   43.2110 C   0  0  0  0  0  0  0  0  0  0  0  0
   46.0880   34.9850   43.1180 C   0  0  0  0  0  0  0  0  0  0  0  0
   46.1710   34.1510   44.1790 N   0  0  0  0  0  0  0  0  0  0  0  0
   45.4580   34.3280   45.3010 C   0  0  0  0  0  0  0  0  0  0  0  0
   44.6210   35.3430   45.4310 N   0  0  0  0  0  0  0  0  0  0  0  0
   46.8710   34.7870   41.8870 C   0  0  0  0  0  0  0  0  0  0  0  0
   48.1380   35.3060   41.7420 C   0  0  0  0  0  0  0  0  0  0  0  0
   48.5060   34.9000   40.4840 N   0  0  0  0  0  0  0  0  0  0  0  0
   47.5020   34.1990   39.9630 C   0  0  0  0  0  0  0  0  0  0  0  0
   46.4720   34.1090   40.8080 N   0  0  0  0  0  0  0  0  0  0  0  0
   47.0650   31.9580   48.1620 S   0  0  0  0  0  0  0  0  0  0  0  0
   47.5020   30.2490   48.0540 C   0  0  0  0  0  0  0  0  0  0  0  0
   48.6750   29.5270   48.2720 C   0  0  0  0  0  0  0  0  0  0  0  0
   48.4670   28.2280   47.9850 N   0  0  0  0  0  0  0  0  0  0  0  0
   47.1580   28.1010   47.5810 C   0  0  0  0  0  0  0  0  0  0  0  0
   46.5130   26.9180   47.1850 C   0  0  0  0  0  0  0  0  0  0  0  0
   45.1760   27.0240   46.8140 C   0  0  0  0  0  0  0  0  0  0  0  0
   44.5420   28.2710   46.8550 C   0  0  0  0  0  0  0  0  0  0  0  0
   45.2510   29.3630   47.2580 C   0  0  0  0  0  0  0  0  0  0  0  0
   46.5590   29.3720   47.6290 C   0  0  0  0  0  0  0  0  0  0  0  0
   44.3730   30.3830   47.2220 O   0  0  0  0  0  0  0  0  0  0  0  0
   47.6764   33.5231   46.4288 H   0  0  0  0  0  0  0  0  0  0  0  0
   47.0515   31.9818   45.7486 H   0  0  0  0  0  0  0  0  0  0  0  0
   44.8367   32.5402   46.2122 H   0  0  0  0  0  0  0  0  0  0  0  0
   45.3586   33.8876   47.3336 H   0  0  0  0  0  0  0  0  0  0  0  0
   43.7812   37.0661   44.5243 H   0  0  0  0  0  0  0  0  0  0  0  0
   45.0969   36.7968   42.3835 H   0  0  0  0  0  0  0  0  0  0  0  0
   48.7167   35.9031   42.4622 H   0  0  0  0  0  0  0  0  0  0  0  0
   47.5186   33.7489   38.9594 H   0  0  0  0  0  0  0  0  0  0  0  0
   45.5740   33.6264   40.6610 H   0  0  0  0  0  0  0  0  0  0  0  0
   49.6255   29.9537   48.6247 H   0  0  0  0  0  0  0  0  0  0  0  0
   49.1601   27.4693   48.0550 H   0  0  0  0  0  0  0  0  0  0  0  0
   47.0401   25.9526   47.1689 H   0  0  0  0  0  0  0  0  0  0  0  0
   44.6200   26.1318   46.4900 H   0  0  0  0  0  0  0  0  0  0  0  0
   43.4852   28.3685   46.5657 H   0  0  0  0  0  0  0  0  0  0  0  0
   44.6625   31.2946   47.4775 H   0  0  0  0  0  0  0  0  0  0  0  0
  1 14  1  0
  2  1  1  0
  3  8  2  0
  4  3  1  0
  5  4  2  0
  5  6  1  0
  6  7  2  0
  7  8  1  0
  7  2  1  0
  9  5  1  0
 10  9  2  0
 11 10  1  0
 12 11  2  0
 12 13  1  0
 13  9  1  0
 15 14  1  0
 15 16  2  0
 17 16  1  0
 18 23  2  0
 18 17  1  0
 19 18  1  0
 20 21  1  0
 20 19  2  0
 21 22  2  0
 22 23  1  0
 23 15  1  0
 24 22  1  0
  1 25  1  0
  1 26  1  0
  2 27  1  0
  2 28  1  0
  3 29  1  0
  4 30  1  0
 10 31  1  0
 12 32  1  0
 13 33  1  0
 16 34  1  0
 17 35  1  0
 19 36  1  0
 20 37  1  0
 21 38  1  0
 24 39  1  0
M  ISO  8  25   8  26   8  27   8  28   8  29  14  30  14  31  14  32  14
M  ISO  7  33   9  34  14  35   9  36  14  37  14  38  14  39   3
M  END
>  <minimizedAffinity>  (1) 
-5.89581585

>  <minimizedRMSD>  (1) 
0.312559783

$$$$
