
     RDKit          3D

 47 50  0  0  0  0  0  0  0  0999 V2000
   46.7890   32.9500   46.7180 C   0  0  0  0  0  0  0  0  0  0  0  0
   45.4220   33.3500   46.2800 C   0  0  0  0  0  0  0  0  0  0  0  0
   44.5290   36.3270   44.3560 C   0  0  0  0  0  0  0  0  0  0  0  0
   45.2790   36.1670   43.1630 C   0  0  0  0  0  0  0  0  0  0  0  0
   46.0920   35.0270   43.0660 C   0  0  0  0  0  0  0  0  0  0  0  0
   46.1010   34.1670   44.1110 N   0  0  0  0  0  0  0  0  0  0  0  0
   45.3770   34.3580   45.2170 C   0  0  0  0  0  0  0  0  0  0  0  0
   44.5970   35.4200   45.3530 N   0  0  0  0  0  0  0  0  0  0  0  0
   46.8970   34.8120   41.8480 C   0  0  0  0  0  0  0  0  0  0  0  0
   48.1680   35.3160   41.7140 C   0  0  0  0  0  0  0  0  0  0  0  0
   48.5440   34.8900   40.4630 N   0  0  0  0  0  0  0  0  0  0  0  0
   47.5430   34.1940   39.9380 C   0  0  0  0  0  0  0  0  0  0  0  0
   46.4930   34.1220   40.7750 N   0  0  0  0  0  0  0  0  0  0  0  0
   46.6700   32.1310   48.3360 S   0  0  0  0  0  0  0  0  0  0  0  0
   48.0780   31.1570   48.7100 C   0  0  0  0  0  0  0  0  0  0  0  0
   49.3180   31.3980   49.3260 C   0  0  0  0  0  0  0  0  0  0  0  0
   50.0900   30.2810   49.2690 N   0  0  0  0  0  0  0  0  0  0  0  0
   49.3450   29.3220   48.6150 C   0  0  0  0  0  0  0  0  0  0  0  0
   49.7790   28.0150   48.3320 C   0  0  0  0  0  0  0  0  0  0  0  0
   48.8530   27.2130   47.6580 C   0  0  0  0  0  0  0  0  0  0  0  0
   47.5910   27.7060   47.3170 C   0  0  0  0  0  0  0  0  0  0  0  0
   47.2820   28.9910   47.6500 C   0  0  0  0  0  0  0  0  0  0  0  0
   48.0940   29.8840   48.2820 C   0  0  0  0  0  0  0  0  0  0  0  0
   45.7970   29.0640   47.6310 C   0  0  0  0  0  0  0  0  0  0  0  0
   45.3800   29.7050   46.2280 C   0  0  0  0  0  0  0  0  0  0  0  0
   45.2680   30.0980   48.5870 C   0  0  0  0  0  0  0  0  0  0  0  0
   47.4263   33.8426   46.8016 H   0  0  0  0  0  0  0  0  0  0  0  0
   47.2304   32.2615   45.9824 H   0  0  0  0  0  0  0  0  0  0  0  0
   44.9039   32.4499   45.9175 H   0  0  0  0  0  0  0  0  0  0  0  0
   44.9429   33.8098   47.1570 H   0  0  0  0  0  0  0  0  0  0  0  0
   43.8794   37.2072   44.4709 H   0  0  0  0  0  0  0  0  0  0  0  0
   45.2258   36.9046   42.3487 H   0  0  0  0  0  0  0  0  0  0  0  0
   48.7448   35.9153   42.4338 H   0  0  0  0  0  0  0  0  0  0  0  0
   47.5692   33.7324   38.9399 H   0  0  0  0  0  0  0  0  0  0  0  0
   45.5909   33.6478   40.6255 H   0  0  0  0  0  0  0  0  0  0  0  0
   49.6193   32.3505   49.7865 H   0  0  0  0  0  0  0  0  0  0  0  0
   51.0442   30.1720   49.6412 H   0  0  0  0  0  0  0  0  0  0  0  0
   50.7757   27.6495   48.6202 H   0  0  0  0  0  0  0  0  0  0  0  0
   49.1217   26.1799   47.3926 H   0  0  0  0  0  0  0  0  0  0  0  0
   46.8627   27.0710   46.7913 H   0  0  0  0  0  0  0  0  0  0  0  0
   45.4220   28.0543   47.8542 H   0  0  0  0  0  0  0  0  0  0  0  0
   44.7877   30.6154   46.4024 H   0  0  0  0  0  0  0  0  0  0  0  0
   46.2854   29.9602   45.6579 H   0  0  0  0  0  0  0  0  0  0  0  0
   44.7797   28.9807   45.6579 H   0  0  0  0  0  0  0  0  0  0  0  0
   45.4392   29.7633   49.6207 H   0  0  0  0  0  0  0  0  0  0  0  0
   45.7885   31.0525   48.4197 H   0  0  0  0  0  0  0  0  0  0  0  0
   44.1894   30.2343   48.4197 H   0  0  0  0  0  0  0  0  0  0  0  0
  1 14  1  0
  2  1  1  0
  3  8  2  0
  4  3  1  0
  5  4  2  0
  5  6  1  0
  6  7  2  0
  7  8  1  0
  7  2  1  0
  9  5  1  0
 10  9  2  0
 11 10  1  0
 12 11  2  0
 12 13  1  0
 13  9  1  0
 14 15  1  0
 15 16  2  0
 17 16  1  0
 18 17  1  0
 19 18  2  0
 20 19  1  0
 21 22  1  0
 21 20  2  0
 22 23  2  0
 23 18  1  0
 23 15  1  0
 24 22  1  0
 24 26  1  0
 25 24  1  0
  1 27  1  0
  1 28  1  0
  2 29  1  0
  2 30  1  0
  3 31  1  0
  4 32  1  0
 10 33  1  0
 12 34  1  0
 13 35  1  0
 16 36  1  0
 17 37  1  0
 19 38  1  0
 20 39  1  0
 21 40  1  0
 24 41  1  0
 25 42  1  0
 25 43  1  0
 25 44  1  0
 26 45  1  0
 26 46  1  0
 26 47  1  0
M  ISO  8  27   8  28   8  29   8  30   8  31  14  32  14  33  14  34  14
M  ISO  8  35   9  36  14  37   9  38  14  39  14  40  14  41   8  42   8
M  ISO  5  43   8  44   8  45   8  46   8  47   8
M  END
>  <minimizedAffinity>  (1) 
-5.78464365

>  <minimizedRMSD>  (1) 
1.9947623

$$$$
