
     RDKit          3D

 40 44  0  0  0  0  0  0  0  0999 V2000
   47.5300   34.8420   41.7530 C   0  0  0  0  0  0  0  0  0  0  0  0
   48.6020   35.7200   41.6230 C   0  0  0  0  0  0  0  0  0  0  0  0
   49.0500   35.6840   40.3610 N   0  0  0  0  0  0  0  0  0  0  0  0
   48.2850   34.8020   39.6910 C   0  0  0  0  0  0  0  0  0  0  0  0
   48.3540   34.4100   38.3650 C   0  0  0  0  0  0  0  0  0  0  0  0
   47.4500   33.4800   37.9290 C   0  0  0  0  0  0  0  0  0  0  0  0
   46.4510   32.8830   38.7160 C   0  0  0  0  0  0  0  0  0  0  0  0
   46.4530   33.3310   40.0260 C   0  0  0  0  0  0  0  0  0  0  0  0
   47.3210   34.2530   40.5300 C   0  0  0  0  0  0  0  0  0  0  0  0
   45.4230   32.7340   40.8760 C   0  0  0  0  0  0  0  0  0  0  0  0
   45.5130   31.6730   41.7570 C   0  0  0  0  0  0  0  0  0  0  0  0
   44.4070   31.2800   42.4710 C   0  0  0  0  0  0  0  0  0  0  0  0
   43.1780   31.8940   42.3570 C   0  0  0  0  0  0  0  0  0  0  0  0
   43.0810   32.9500   41.4830 C   0  0  0  0  0  0  0  0  0  0  0  0
   41.8400   33.5430   41.3920 C   0  0  0  0  0  0  0  0  0  0  0  0
   41.6630   34.5960   40.5460 C   0  0  0  0  0  0  0  0  0  0  0  0
   42.7250   35.0450   39.8010 C   0  0  0  0  0  0  0  0  0  0  0  0
   43.9560   34.4430   39.9020 C   0  0  0  0  0  0  0  0  0  0  0  0
   44.1810   33.3670   40.7520 C   0  0  0  0  0  0  0  0  0  0  0  0
   44.9030   35.0420   44.3890 C   0  0  0  0  0  0  0  0  0  0  0  0
   45.6200   35.3180   43.2060 C   0  0  0  0  0  0  0  0  0  0  0  0
   46.7690   34.5790   42.9680 C   0  0  0  0  0  0  0  0  0  0  0  0
   47.1440   33.6250   43.8920 N   0  0  0  0  0  0  0  0  0  0  0  0
   46.4250   33.3990   45.0080 C   0  0  0  0  0  0  0  0  0  0  0  0
   45.3010   34.1030   45.2680 N   0  0  0  0  0  0  0  0  0  0  0  0
   49.0157   36.3444   42.4286 H   0  0  0  0  0  0  0  0  0  0  0  0
   49.8338   36.2296   39.9752 H   0  0  0  0  0  0  0  0  0  0  0  0
   49.1094   34.8316   37.6855 H   0  0  0  0  0  0  0  0  0  0  0  0
   47.5105   33.1742   36.8741 H   0  0  0  0  0  0  0  0  0  0  0  0
   45.7405   32.1366   38.3311 H   0  0  0  0  0  0  0  0  0  0  0  0
   46.4687   31.1440   41.8863 H   0  0  0  0  0  0  0  0  0  0  0  0
   44.5070   30.4344   43.1674 H   0  0  0  0  0  0  0  0  0  0  0  0
   42.3109   31.5528   42.9415 H   0  0  0  0  0  0  0  0  0  0  0  0
   41.0005   33.1695   41.9968 H   0  0  0  0  0  0  0  0  0  0  0  0
   40.6795   35.0813   40.4608 H   0  0  0  0  0  0  0  0  0  0  0  0
   42.5891   35.8952   39.1164 H   0  0  0  0  0  0  0  0  0  0  0  0
   44.7881   34.8242   39.2918 H   0  0  0  0  0  0  0  0  0  0  0  0
   43.9873   35.6135   44.6006 H   0  0  0  0  0  0  0  0  0  0  0  0
   45.2807   36.0898   42.4994 H   0  0  0  0  0  0  0  0  0  0  0  0
   46.7579   32.6290   45.7195 H   0  0  0  0  0  0  0  0  0  0  0  0
  1 22  1  0
  2  1  2  0
  3  2  1  0
  4  3  1  0
  4  9  2  0
  5  4  1  0
  6  5  2  0
  6  7  1  0
  7  8  2  0
  8  9  1  0
  8 10  1  0
  9  1  1  0
 10 11  2  0
 11 12  1  0
 13 12  2  0
 14 13  1  0
 15 14  2  0
 16 15  1  0
 17 18  1  0
 17 16  2  0
 18 19  2  0
 19 10  1  0
 19 14  1  0
 20 25  2  0
 21 20  1  0
 22 21  2  0
 22 23  1  0
 23 24  2  0
 24 25  1  0
  2 26  1  0
  3 27  1  0
  5 28  1  0
  6 29  1  0
  7 30  1  0
 11 31  1  0
 12 32  1  0
 13 33  1  0
 15 34  1  0
 16 35  1  0
 17 36  1  0
 18 37  1  0
 20 38  1  0
 21 39  1  0
 24 40  1  0
M  ISO  8  26  14  27   9  28  14  29  14  30  14  31  14  32  14  33  14
M  ISO  7  34  14  35  14  36  14  37  14  38  14  39  14  40  14
M  END
>  <minimizedAffinity>  (1) 
-6.59860277

>  <minimizedRMSD>  (1) 
1.00964677

$$$$
