
     RDKit          3D

 34 37  0  0  0  0  0  0  0  0999 V2000
   47.3120   34.9720   41.7950 C   0  0  0  0  0  0  0  0  0  0  0  0
   48.5430   35.6300   41.7220 C   0  0  0  0  0  0  0  0  0  0  0  0
   49.0690   35.4490   40.4990 N   0  0  0  0  0  0  0  0  0  0  0  0
   48.2060   34.6930   39.7960 C   0  0  0  0  0  0  0  0  0  0  0  0
   48.2840   34.2370   38.5010 C   0  0  0  0  0  0  0  0  0  0  0  0
   47.2520   33.4820   38.0210 C   0  0  0  0  0  0  0  0  0  0  0  0
   46.1070   33.1270   38.7460 C   0  0  0  0  0  0  0  0  0  0  0  0
   46.1030   33.6210   40.0380 C   0  0  0  0  0  0  0  0  0  0  0  0
   47.1020   34.3810   40.5800 C   0  0  0  0  0  0  0  0  0  0  0  0
   44.5880   35.7980   44.1970 C   0  0  0  0  0  0  0  0  0  0  0  0
   45.4290   35.8660   43.0740 C   0  0  0  0  0  0  0  0  0  0  0  0
   46.4360   34.9250   42.9450 C   0  0  0  0  0  0  0  0  0  0  0  0
   46.5550   33.9720   43.9350 N   0  0  0  0  0  0  0  0  0  0  0  0
   45.7290   33.9410   44.9960 C   0  0  0  0  0  0  0  0  0  0  0  0
   44.7440   34.8510   45.1330 N   0  0  0  0  0  0  0  0  0  0  0  0
   44.9090   33.1970   40.7620 C   0  0  0  0  0  0  0  0  0  0  0  0
   43.7990   34.0080   40.4690 C   0  0  0  0  0  0  0  0  0  0  0  0
   42.5400   33.8120   40.9940 C   0  0  0  0  0  0  0  0  0  0  0  0
   42.3110   32.7740   41.8590 C   0  0  0  0  0  0  0  0  0  0  0  0
   43.3850   31.9670   42.1590 C   0  0  0  0  0  0  0  0  0  0  0  0
   44.6320   32.1720   41.6300 C   0  0  0  0  0  0  0  0  0  0  0  0
   49.0075   36.2049   42.5367 H   0  0  0  0  0  0  0  0  0  0  0  0
   49.9682   35.8209   40.1614 H   0  0  0  0  0  0  0  0  0  0  0  0
   49.1530   34.4736   37.8695 H   0  0  0  0  0  0  0  0  0  0  0  0
   47.3257   33.1245   36.9833 H   0  0  0  0  0  0  0  0  0  0  0  0
   45.2924   32.5163   38.3294 H   0  0  0  0  0  0  0  0  0  0  0  0
   43.7829   36.5388   44.3111 H   0  0  0  0  0  0  0  0  0  0  0  0
   45.2905   36.6493   42.3142 H   0  0  0  0  0  0  0  0  0  0  0  0
   45.8590   33.1626   45.7623 H   0  0  0  0  0  0  0  0  0  0  0  0
   43.9443   34.8513   39.7779 H   0  0  0  0  0  0  0  0  0  0  0  0
   41.7182   34.4893   40.7185 H   0  0  0  0  0  0  0  0  0  0  0  0
   41.3163   32.5943   42.2929 H   0  0  0  0  0  0  0  0  0  0  0  0
   43.2362   31.1246   42.8505 H   0  0  0  0  0  0  0  0  0  0  0  0
   45.4443   31.4864   41.9130 H   0  0  0  0  0  0  0  0  0  0  0  0
  1 12  1  0
  2  1  2  0
  3  2  1  0
  4  3  1  0
  4  9  2  0
  5  4  1  0
  6  5  2  0
  6  7  1  0
  7  8  2  0
  8  9  1  0
  8 16  1  0
  9  1  1  0
 10 15  2  0
 11 10  1  0
 12 11  2  0
 12 13  1  0
 13 14  2  0
 14 15  1  0
 16 21  1  0
 17 16  2  0
 17 18  1  0
 18 19  2  0
 19 20  1  0
 21 20  2  0
  2 22  1  0
  3 23  1  0
  5 24  1  0
  6 25  1  0
  7 26  1  0
 10 27  1  0
 11 28  1  0
 14 29  1  0
 17 30  1  0
 18 31  1  0
 19 32  1  0
 20 33  1  0
 21 34  1  0
M  ISO  8  22  14  23   9  24  14  25  14  26  14  27  14  28  14  29  14
M  ISO  5  30  14  31  14  32  14  33  14  34  14
M  END
>  <minimizedAffinity>  (1) 
-6.06784201

>  <minimizedRMSD>  (1) 
0.285547733

$$$$
