
     RDKit          3D

 38 41  0  0  1  0  0  0  0  0999 V2000
   44.5150   35.9290   44.8710 C   0  0  0  0  0  0  0  0  0  0  0  0
   45.1270   35.9660   43.5850 C   0  0  0  0  0  0  0  0  0  0  0  0
   45.9650   34.9300   43.2650 C   0  0  0  0  0  0  0  0  0  0  0  0
   46.1720   33.9300   44.1740 N   0  0  0  0  0  0  0  0  0  0  0  0
   45.5710   33.9430   45.3740 C   0  0  0  0  0  0  0  0  0  0  0  0
   44.7530   34.9230   45.7250 N   0  0  0  0  0  0  0  0  0  0  0  0
   45.8250   32.8520   46.3290 N   0  0  0  0  0  0  0  0  0  0  0  0
   45.1800   32.8430   47.6130 C   0  0  0  0  0  0  0  0  0  0  0  0
   46.0670   32.2890   48.6920 C   0  0  0  0  0  0  0  0  0  0  0  0
   47.4920   32.2580   48.2260 C   0  0  0  0  0  0  0  0  0  0  0  0
   47.5420   31.2570   47.0650 C   0  0  0  0  0  0  0  0  0  0  0  0
   46.7460   31.7810   45.9400 C   0  0  1  0  0  0  0  0  0  0  0  0
   46.0450   30.7230   45.1400 C   0  0  0  0  0  0  0  0  0  0  0  0
   46.1660   30.4340   43.8540 N   0  0  0  0  0  0  0  0  0  0  0  0
   45.4020   29.4330   43.5170 O   0  0  0  0  0  0  0  0  0  0  0  0
   44.7700   29.0600   44.6070 C   0  0  0  0  0  0  0  0  0  0  0  0
   45.1330   29.8320   45.6480 N   0  0  0  0  0  0  0  0  0  0  0  0
   43.6040   27.6910   44.5780 S   0  0  0  0  0  0  0  0  0  0  0  0
   43.8350   26.7660   46.0810 C   0  0  0  0  0  0  0  0  0  0  0  0
   42.9740   26.2600   47.0060 C   0  0  0  0  0  0  0  0  0  0  0  0
   43.4330   25.5820   48.0780 C   0  0  0  0  0  0  0  0  0  0  0  0
   44.8120   25.4400   48.1670 C   0  0  0  0  0  0  0  0  0  0  0  0
   45.4480   26.3370   46.6200 S   0  0  0  0  0  0  0  0  0  0  0  0
   43.8348   36.7406   45.1688 H   0  0  0  0  0  0  0  0  0  0  0  0
   44.9355   36.7890   42.8807 H   0  0  0  0  0  0  0  0  0  0  0  0
   46.4663   34.9033   42.2862 H   0  0  0  0  0  0  0  0  0  0  0  0
   44.9032   33.8743   47.8772 H   0  0  0  0  0  0  0  0  0  0  0  0
   44.2936   32.1957   47.5402 H   0  0  0  0  0  0  0  0  0  0  0  0
   45.9911   32.9244   49.5867 H   0  0  0  0  0  0  0  0  0  0  0  0
   45.7450   31.2646   48.9305 H   0  0  0  0  0  0  0  0  0  0  0  0
   47.8025   33.2558   47.8826 H   0  0  0  0  0  0  0  0  0  0  0  0
   48.1726   31.9633   49.0384 H   0  0  0  0  0  0  0  0  0  0  0  0
   48.5849   31.1170   46.7443 H   0  0  0  0  0  0  0  0  0  0  0  0
   47.1300   30.2907   47.3915 H   0  0  0  0  0  0  0  0  0  0  0  0
   47.4971   32.2263   45.2709 H   0  0  0  0  0  0  0  0  0  0  0  0
   41.8913   26.4057   46.8778 H   0  0  0  0  0  0  0  0  0  0  0  0
   42.7548   25.1658   48.8375 H   0  0  0  0  0  0  0  0  0  0  0  0
   45.3957   24.9298   48.9474 H   0  0  0  0  0  0  0  0  0  0  0  0
  1  6  2  0
  2  1  1  0
  3  2  2  0
  3  4  1  0
  4  5  2  0
  5  6  1  0
  5  7  1  0
  7  8  1  0
  8  9  1  0
 10  9  1  0
 11 10  1  0
 12  7  1  0
 12 11  1  0
 13 17  1  0
 13 12  1  0
 14 13  2  0
 15 14  1  0
 15 16  1  0
 16 17  2  0
 18 16  1  0
 18 19  1  0
 19 23  1  0
 19 20  2  0
 20 21  1  0
 21 22  2  0
 23 22  1  0
  1 24  1  0
  2 25  1  0
  3 26  1  0
  8 27  1  0
  8 28  1  0
  9 29  1  0
  9 30  1  0
 10 31  1  0
 10 32  1  0
 11 33  1  0
 11 34  1  0
 12 35  1  6
 20 36  1  0
 21 37  1  0
 22 38  1  0
M  ISO  8  24  14  25  14  26  14  27  13  28  13  29  13  30  13  31  13
M  ISO  7  32  13  33  13  34  13  35  13  36  14  37  14  38  14
M  END
>  <minimizedAffinity>  (1) 
-5.43009758

>  <minimizedRMSD>  (1) 
1.25094819

$$$$
