
     RDKit          3D

 31 34  0  0  0  0  0  0  0  0999 V2000
   47.3390   34.9440   41.8060 C   0  0  0  0  0  0  0  0  0  0  0  0
   48.5550   35.6320   41.6960 C   0  0  0  0  0  0  0  0  0  0  0  0
   49.0450   35.4610   40.4630 N   0  0  0  0  0  0  0  0  0  0  0  0
   48.1750   34.6800   39.7790 C   0  0  0  0  0  0  0  0  0  0  0  0
   48.2360   34.2400   38.4740 C   0  0  0  0  0  0  0  0  0  0  0  0
   47.2120   33.4680   38.0160 C   0  0  0  0  0  0  0  0  0  0  0  0
   46.1140   33.0930   38.7720 C   0  0  0  0  0  0  0  0  0  0  0  0
   46.0950   33.5570   40.0790 C   0  0  0  0  0  0  0  0  0  0  0  0
   47.0790   34.3310   40.5970 C   0  0  0  0  0  0  0  0  0  0  0  0
   44.6490   35.7520   44.2520 C   0  0  0  0  0  0  0  0  0  0  0  0
   45.4540   35.8580   43.0930 C   0  0  0  0  0  0  0  0  0  0  0  0
   46.4790   34.8880   42.9820 C   0  0  0  0  0  0  0  0  0  0  0  0
   46.6640   33.9150   43.9520 N   0  0  0  0  0  0  0  0  0  0  0  0
   45.8280   33.9080   45.0290 C   0  0  0  0  0  0  0  0  0  0  0  0
   44.8250   34.8130   45.1910 N   0  0  0  0  0  0  0  0  0  0  0  0
   44.9440   33.1200   40.8620 C   0  0  0  0  0  0  0  0  0  0  0  0
   43.6680   33.6620   40.7300 C   0  0  0  0  0  0  0  0  0  0  0  0
   42.7330   33.1080   41.5620 C   0  0  0  0  0  0  0  0  0  0  0  0
   43.4940   32.1850   42.2280 C   0  0  0  0  0  0  0  0  0  0  0  0
   44.6770   32.2790   41.7680 O   0  0  0  0  0  0  0  0  0  0  0  0
   49.0305   36.2188   42.4957 H   0  0  0  0  0  0  0  0  0  0  0  0
   49.9254   35.8527   40.0992 H   0  0  0  0  0  0  0  0  0  0  0  0
   49.0836   34.5037   37.8243 H   0  0  0  0  0  0  0  0  0  0  0  0
   47.2603   33.1183   36.9742 H   0  0  0  0  0  0  0  0  0  0  0  0
   45.3079   32.4668   38.3619 H   0  0  0  0  0  0  0  0  0  0  0  0
   43.8354   36.4795   44.3892 H   0  0  0  0  0  0  0  0  0  0  0  0
   45.2948   36.6376   42.3335 H   0  0  0  0  0  0  0  0  0  0  0  0
   45.9706   33.1371   45.8006 H   0  0  0  0  0  0  0  0  0  0  0  0
   43.4318   34.4665   40.0180 H   0  0  0  0  0  0  0  0  0  0  0  0
   41.6630   33.3406   41.6669 H   0  0  0  0  0  0  0  0  0  0  0  0
   43.1488   31.4940   43.0112 H   0  0  0  0  0  0  0  0  0  0  0  0
  1 12  1  0
  2  1  2  0
  3  2  1  0
  4  3  1  0
  4  9  2  0
  5  4  1  0
  6  5  2  0
  6  7  1  0
  7  8  2  0
  8  9  1  0
  8 16  1  0
  9  1  1  0
 10 15  2  0
 11 10  1  0
 12 11  2  0
 12 13  1  0
 13 14  2  0
 14 15  1  0
 16 20  1  0
 17 16  2  0
 17 18  1  0
 18 19  2  0
 20 19  1  0
  2 21  1  0
  3 22  1  0
  5 23  1  0
  6 24  1  0
  7 25  1  0
 10 26  1  0
 11 27  1  0
 14 28  1  0
 17 29  1  0
 18 30  1  0
 19 31  1  0
M  ISO  8  21  14  22   9  23  14  24  14  25  14  26  14  27  14  28  14
M  ISO  3  29  14  30  14  31  14
M  END
>  <minimizedAffinity>  (1) 
-6.01272774

>  <minimizedRMSD>  (1) 
0.232071832

$$$$
