
     RDKit          3D

 37 40  0  0  1  0  0  0  0  0999 V2000
   44.5740   35.8250   44.8870 C   0  0  0  0  0  0  0  0  0  0  0  0
   45.1590   35.7510   43.5880 C   0  0  0  0  0  0  0  0  0  0  0  0
   45.9390   34.6600   43.3100 C   0  0  0  0  0  0  0  0  0  0  0  0
   46.1140   33.7110   44.2810 N   0  0  0  0  0  0  0  0  0  0  0  0
   45.5480   33.8180   45.4860 C   0  0  0  0  0  0  0  0  0  0  0  0
   44.7890   34.8590   45.7870 N   0  0  0  0  0  0  0  0  0  0  0  0
   45.7730   32.7710   46.4940 N   0  0  0  0  0  0  0  0  0  0  0  0
   45.1550   32.8740   47.7890 C   0  0  0  0  0  0  0  0  0  0  0  0
   46.0390   32.3390   48.8840 C   0  0  0  0  0  0  0  0  0  0  0  0
   47.4550   32.2130   48.3880 C   0  0  0  0  0  0  0  0  0  0  0  0
   47.4300   31.1510   47.2890 C   0  0  0  0  0  0  0  0  0  0  0  0
   46.6340   31.6370   46.1470 C   0  0  1  0  0  0  0  0  0  0  0  0
   45.8640   30.5700   45.4320 C   0  0  0  0  0  0  0  0  0  0  0  0
   45.7680   30.3510   44.1300 N   0  0  0  0  0  0  0  0  0  0  0  0
   45.0200   29.3200   43.8710 O   0  0  0  0  0  0  0  0  0  0  0  0
   44.6070   28.8400   45.0400 C   0  0  0  0  0  0  0  0  0  0  0  0
   45.1160   29.5970   46.0430 N   0  0  0  0  0  0  0  0  0  0  0  0
   43.5480   27.4080   45.1500 S   0  0  0  0  0  0  0  0  0  0  0  0
   44.0800   26.3370   46.5060 C   0  0  0  0  0  0  0  0  0  0  0  0
   44.7480   25.1590   46.1100 C   0  0  0  0  0  0  0  0  0  0  0  0
   45.1080   24.3820   47.6920 S   0  0  0  0  0  0  0  0  0  0  0  0
   44.2850   25.7950   48.6630 C   0  0  0  0  0  0  0  0  0  0  0  0
   43.9450   26.4780   47.8130 N   0  0  0  0  0  0  0  0  0  0  0  0
   43.9402   36.6844   45.1510 H   0  0  0  0  0  0  0  0  0  0  0  0
   44.9903   36.5390   42.8392 H   0  0  0  0  0  0  0  0  0  0  0  0
   46.4159   34.5484   42.3250 H   0  0  0  0  0  0  0  0  0  0  0  0
   44.9372   33.9324   47.9946 H   0  0  0  0  0  0  0  0  0  0  0  0
   44.2344   32.2721   47.7732 H   0  0  0  0  0  0  0  0  0  0  0  0
   46.0134   33.0273   49.7417 H   0  0  0  0  0  0  0  0  0  0  0  0
   45.6743   31.3474   49.1901 H   0  0  0  0  0  0  0  0  0  0  0  0
   47.8034   33.1739   47.9816 H   0  0  0  0  0  0  0  0  0  0  0  0
   48.1406   31.9319   49.2010 H   0  0  0  0  0  0  0  0  0  0  0  0
   48.4580   30.9443   46.9567 H   0  0  0  0  0  0  0  0  0  0  0  0
   46.9771   30.2293   47.6831 H   0  0  0  0  0  0  0  0  0  0  0  0
   47.3875   31.9969   45.4310 H   0  0  0  0  0  0  0  0  0  0  0  0
   44.9870   24.8067   45.0957 H   0  0  0  0  0  0  0  0  0  0  0  0
   44.1680   25.9206   49.7495 H   0  0  0  0  0  0  0  0  0  0  0  0
  1  6  2  0
  2  1  1  0
  3  2  2  0
  3  4  1  0
  4  5  2  0
  5  6  1  0
  5  7  1  0
  7  8  1  0
  8  9  1  0
 10  9  1  0
 11 10  1  0
 12  7  1  0
 12 11  1  0
 13 17  1  0
 13 12  1  0
 14 13  2  0
 15 14  1  0
 15 16  1  0
 16 18  1  0
 16 17  2  0
 18 19  1  0
 19 23  1  0
 20 19  2  0
 20 21  1  0
 21 22  1  0
 23 22  2  0
  1 24  1  0
  2 25  1  0
  3 26  1  0
  8 27  1  0
  8 28  1  0
  9 29  1  0
  9 30  1  0
 10 31  1  0
 10 32  1  0
 11 33  1  0
 11 34  1  0
 12 35  1  6
 20 36  1  0
 22 37  1  0
M  ISO  8  24  14  25  14  26  14  27  13  28  13  29  13  30  13  31  13
M  ISO  6  32  13  33  13  34  13  35  13  36  14  37  14
M  END
>  <minimizedAffinity>  (1) 
-5.31940317

>  <minimizedRMSD>  (1) 
1.12872767

$$$$
