
     RDKit          3D

 25 27  0  0  0  0  0  0  0  0999 V2000
   47.2410   34.9180   41.9200 C   0  0  0  0  0  0  0  0  0  0  0  0
   48.4810   35.5370   41.7850 C   0  0  0  0  0  0  0  0  0  0  0  0
   48.9520   35.3090   40.5510 N   0  0  0  0  0  0  0  0  0  0  0  0
   48.0490   34.5610   39.8940 C   0  0  0  0  0  0  0  0  0  0  0  0
   48.0670   34.0670   38.6090 C   0  0  0  0  0  0  0  0  0  0  0  0
   46.9980   33.3240   38.1880 C   0  0  0  0  0  0  0  0  0  0  0  0
   45.8780   33.0200   38.9600 C   0  0  0  0  0  0  0  0  0  0  0  0
   45.9250   33.5470   40.2400 C   0  0  0  0  0  0  0  0  0  0  0  0
   46.9580   34.2990   40.7330 C   0  0  0  0  0  0  0  0  0  0  0  0
   44.6190   35.9400   44.3810 C   0  0  0  0  0  0  0  0  0  0  0  0
   45.4410   35.9260   43.2470 C   0  0  0  0  0  0  0  0  0  0  0  0
   46.3940   34.9230   43.1010 C   0  0  0  0  0  0  0  0  0  0  0  0
   46.4910   33.9750   44.0860 N   0  0  0  0  0  0  0  0  0  0  0  0
   45.6740   34.0220   45.1760 C   0  0  0  0  0  0  0  0  0  0  0  0
   44.7410   34.9950   45.3280 N   0  0  0  0  0  0  0  0  0  0  0  0
   44.5670   33.2590   41.3840 S   0  0  0  0  0  0  0  0  0  0  0  0
   48.9920   36.1196   42.5657 H   0  0  0  0  0  0  0  0  0  0  0  0
   49.8483   35.6475   40.1728 H   0  0  0  0  0  0  0  0  0  0  0  0
   48.9172   34.2642   37.9394 H   0  0  0  0  0  0  0  0  0  0  0  0
   47.0246   32.9359   37.1591 H   0  0  0  0  0  0  0  0  0  0  0  0
   45.0359   32.4181   38.5877 H   0  0  0  0  0  0  0  0  0  0  0  0
   43.8657   36.7331   44.4974 H   0  0  0  0  0  0  0  0  0  0  0  0
   45.3337   36.7035   42.4763 H   0  0  0  0  0  0  0  0  0  0  0  0
   45.7739   33.2502   45.9534 H   0  0  0  0  0  0  0  0  0  0  0  0
   45.0258   33.3563   42.6712 H   0  0  0  0  0  0  0  0  0  0  0  0
  1 12  1  0
  2  1  2  0
  3  2  1  0
  4  3  1  0
  4  9  2  0
  5  4  1  0
  6  5  2  0
  6  7  1  0
  7  8  2  0
  8  9  1  0
  8 16  1  0
  9  1  1  0
 10 15  2  0
 11 10  1  0
 12 11  2  0
 12 13  1  0
 13 14  2  0
 14 15  1  0
  2 17  1  0
  3 18  1  0
  5 19  1  0
  6 20  1  0
  7 21  1  0
 10 22  1  0
 11 23  1  0
 14 24  1  0
 16 25  1  0
M  ISO  8  17  14  18   9  19  14  20  14  21  14  22  14  23  14  24  14
M  ISO  1  25  11
M  END
>  <minimizedAffinity>  (1) 
-5.72551823

>  <minimizedRMSD>  (1) 
0.0341135412

$$$$
