
     RDKit          3D

 27 29  0  0  0  0  0  0  0  0999 V2000
   47.2690   34.9390   41.9120 C   0  0  0  0  0  0  0  0  0  0  0  0
   48.5000   35.5420   41.7810 C   0  0  0  0  0  0  0  0  0  0  0  0
   48.9740   35.3110   40.5490 N   0  0  0  0  0  0  0  0  0  0  0  0
   48.0570   34.5640   39.8870 C   0  0  0  0  0  0  0  0  0  0  0  0
   48.0890   34.0750   38.5960 C   0  0  0  0  0  0  0  0  0  0  0  0
   47.0180   33.3400   38.1720 C   0  0  0  0  0  0  0  0  0  0  0  0
   45.8930   33.0440   38.9420 C   0  0  0  0  0  0  0  0  0  0  0  0
   45.9290   33.5620   40.2160 C   0  0  0  0  0  0  0  0  0  0  0  0
   46.9550   34.3040   40.7190 C   0  0  0  0  0  0  0  0  0  0  0  0
   44.6260   35.9490   44.3650 C   0  0  0  0  0  0  0  0  0  0  0  0
   45.4510   35.9650   43.2200 C   0  0  0  0  0  0  0  0  0  0  0  0
   46.4080   34.9420   43.0880 C   0  0  0  0  0  0  0  0  0  0  0  0
   46.4920   33.9830   44.0750 N   0  0  0  0  0  0  0  0  0  0  0  0
   45.6760   34.0200   45.1500 C   0  0  0  0  0  0  0  0  0  0  0  0
   44.7520   34.9850   45.3030 N   0  0  0  0  0  0  0  0  0  0  0  0
   44.7660   33.2920   41.1060 C   0  0  0  0  0  0  0  0  0  0  0  0
   49.0127   36.1211   42.5631 H   0  0  0  0  0  0  0  0  0  0  0  0
   49.8739   35.6418   40.1726 H   0  0  0  0  0  0  0  0  0  0  0  0
   48.9451   34.2700   37.9334 H   0  0  0  0  0  0  0  0  0  0  0  0
   47.0450   32.9514   37.1433 H   0  0  0  0  0  0  0  0  0  0  0  0
   45.0498   32.4478   38.5631 H   0  0  0  0  0  0  0  0  0  0  0  0
   43.8675   36.7348   44.4959 H   0  0  0  0  0  0  0  0  0  0  0  0
   45.3493   36.7505   42.4567 H   0  0  0  0  0  0  0  0  0  0  0  0
   45.7694   33.2406   45.9206 H   0  0  0  0  0  0  0  0  0  0  0  0
   45.0834   33.3657   42.1566 H   0  0  0  0  0  0  0  0  0  0  0  0
   43.9746   34.0303   40.9094 H   0  0  0  0  0  0  0  0  0  0  0  0
   44.3809   32.2806   40.9094 H   0  0  0  0  0  0  0  0  0  0  0  0
  1 12  1  0
  2  1  2  0
  3  2  1  0
  4  3  1  0
  4  9  2  0
  5  4  1  0
  6  5  2  0
  6  7  1  0
  7  8  2  0
  8  9  1  0
  8 16  1  0
  9  1  1  0
 10 15  2  0
 11 10  1  0
 12 11  2  0
 12 13  1  0
 13 14  2  0
 14 15  1  0
  2 17  1  0
  3 18  1  0
  5 19  1  0
  6 20  1  0
  7 21  1  0
 10 22  1  0
 11 23  1  0
 14 24  1  0
 16 25  1  0
 16 26  1  0
 16 27  1  0
M  ISO  8  17  14  18   9  19  14  20  14  21  14  22  14  23  14  24  14
M  ISO  3  25   8  26   8  27   8
M  END
>  <minimizedAffinity>  (1) 
-5.74872828

>  <minimizedRMSD>  (1) 
0.0396692455

$$$$
