
     RDKit          3D

 27 29  0  0  0  0  0  0  0  0999 V2000
   47.2530   34.9220   41.9160 C   0  0  0  0  0  0  0  0  0  0  0  0
   48.5010   35.5420   41.7820 C   0  0  0  0  0  0  0  0  0  0  0  0
   48.9770   35.3180   40.5510 N   0  0  0  0  0  0  0  0  0  0  0  0
   48.0580   34.5660   39.8960 C   0  0  0  0  0  0  0  0  0  0  0  0
   48.0830   34.0840   38.6040 C   0  0  0  0  0  0  0  0  0  0  0  0
   47.0190   33.3500   38.1740 C   0  0  0  0  0  0  0  0  0  0  0  0
   45.9080   33.0480   38.9380 C   0  0  0  0  0  0  0  0  0  0  0  0
   45.9530   33.5640   40.2230 C   0  0  0  0  0  0  0  0  0  0  0  0
   46.9670   34.3030   40.7290 C   0  0  0  0  0  0  0  0  0  0  0  0
   44.6300   35.9680   44.3590 C   0  0  0  0  0  0  0  0  0  0  0  0
   45.4480   35.9900   43.2010 C   0  0  0  0  0  0  0  0  0  0  0  0
   46.3930   34.9400   43.1010 C   0  0  0  0  0  0  0  0  0  0  0  0
   46.4940   33.9720   44.0780 N   0  0  0  0  0  0  0  0  0  0  0  0
   45.6580   34.0410   45.1550 C   0  0  0  0  0  0  0  0  0  0  0  0
   44.7450   35.0150   45.2950 N   0  0  0  0  0  0  0  0  0  0  0  0
   44.7860   33.1720   40.9960 C   0  0  0  0  0  0  0  0  0  0  0  0
   44.4160   32.2790   41.7680 O   0  0  0  0  0  0  0  0  0  0  0  0
   43.5770   33.8250   41.0750 O   0  0  0  0  0  0  0  0  0  0  0  0
   49.0106   36.1222   42.5654 H   0  0  0  0  0  0  0  0  0  0  0  0
   49.8739   35.6541   40.1721 H   0  0  0  0  0  0  0  0  0  0  0  0
   48.9367   34.2863   37.9405 H   0  0  0  0  0  0  0  0  0  0  0  0
   47.0463   32.9696   37.1422 H   0  0  0  0  0  0  0  0  0  0  0  0
   45.0642   32.4519   38.5602 H   0  0  0  0  0  0  0  0  0  0  0  0
   43.8768   36.7583   44.4937 H   0  0  0  0  0  0  0  0  0  0  0  0
   45.3548   36.7706   42.4316 H   0  0  0  0  0  0  0  0  0  0  0  0
   45.7353   33.2706   45.9363 H   0  0  0  0  0  0  0  0  0  0  0  0
   42.8518   33.4574   41.6399 H   0  0  0  0  0  0  0  0  0  0  0  0
  1 12  1  0
  2  1  2  0
  3  2  1  0
  4  3  1  0
  4  9  2  0
  5  4  1  0
  6  5  2  0
  6  7  1  0
  7  8  2  0
  8  9  1  0
  8 16  1  0
  9  1  1  0
 10 15  2  0
 11 10  1  0
 12 11  2  0
 12 13  1  0
 13 14  2  0
 14 15  1  0
 16 18  1  0
 16 17  2  0
  2 19  1  0
  3 20  1  0
  5 21  1  0
  6 22  1  0
  7 23  1  0
 10 24  1  0
 11 25  1  0
 14 26  1  0
 18 27  1  0
M  ISO  8  19  14  20   9  21  14  22  14  23  14  24  14  25  14  26  14
M  ISO  1  27   3
M  END
>  <minimizedAffinity>  (1) 
-5.72867346

>  <minimizedRMSD>  (1) 
0.0510317087

$$$$
