
     RDKit          3D

 46 50  0  0  1  0  0  0  0  0999 V2000
   47.2580   34.9650   41.9090 C   0  0  0  0  0  0  0  0  0  0  0  0
   48.4630   35.6660   41.7760 C   0  0  0  0  0  0  0  0  0  0  0  0
   48.9620   35.4520   40.5450 N   0  0  0  0  0  0  0  0  0  0  0  0
   48.1060   34.6350   39.9000 C   0  0  0  0  0  0  0  0  0  0  0  0
   48.1610   34.1230   38.6190 C   0  0  0  0  0  0  0  0  0  0  0  0
   47.1410   33.3080   38.2060 C   0  0  0  0  0  0  0  0  0  0  0  0
   46.0380   32.9470   38.9780 C   0  0  0  0  0  0  0  0  0  0  0  0
   46.0720   33.5080   40.2510 C   0  0  0  0  0  0  0  0  0  0  0  0
   47.0340   34.3190   40.7360 C   0  0  0  0  0  0  0  0  0  0  0  0
   44.9430   33.0490   41.0060 N   0  0  0  0  0  0  0  0  0  0  0  0
   43.5930   33.5040   41.3560 C   0  0  0  0  0  0  0  0  0  0  0  0
   42.8830   32.2590   41.8180 C   0  0  0  0  0  0  0  0  0  0  0  0
   44.0070   31.6210   42.6130 C   0  0  0  0  0  0  0  0  0  0  0  0
   45.1150   31.7520   41.5850 C   0  0  2  0  0  0  0  0  0  0  0  0
   46.3680   31.2190   41.9930 C   0  0  0  0  0  0  0  0  0  0  0  0
   47.5540   30.8990   41.4010 C   0  0  0  0  0  0  0  0  0  0  0  0
   48.7010   30.3770   41.9510 C   0  0  0  0  0  0  0  0  0  0  0  0
   48.6610   30.1340   43.3050 C   0  0  0  0  0  0  0  0  0  0  0  0
   47.5310   30.4040   44.0450 C   0  0  0  0  0  0  0  0  0  0  0  0
   46.4440   30.9270   43.3770 C   0  0  0  0  0  0  0  0  0  0  0  0
   44.5810   35.8520   44.3350 C   0  0  0  0  0  0  0  0  0  0  0  0
   45.3800   35.8930   43.1990 C   0  0  0  0  0  0  0  0  0  0  0  0
   46.4180   34.9430   43.0740 C   0  0  0  0  0  0  0  0  0  0  0  0
   46.5470   34.0620   44.0900 N   0  0  0  0  0  0  0  0  0  0  0  0
   45.7730   34.0330   45.1780 C   0  0  0  0  0  0  0  0  0  0  0  0
   44.7770   34.9380   45.3030 N   0  0  0  0  0  0  0  0  0  0  0  0
   48.9270   36.2911   42.5531 H   0  0  0  0  0  0  0  0  0  0  0  0
   49.8370   35.8409   40.1655 H   0  0  0  0  0  0  0  0  0  0  0  0
   49.0001   34.3629   37.9494 H   0  0  0  0  0  0  0  0  0  0  0  0
   47.1965   32.9062   37.1835 H   0  0  0  0  0  0  0  0  0  0  0  0
   45.2303   32.2914   38.6206 H   0  0  0  0  0  0  0  0  0  0  0  0
   43.6315   34.2514   42.1622 H   0  0  0  0  0  0  0  0  0  0  0  0
   43.0822   33.9871   40.5100 H   0  0  0  0  0  0  0  0  0  0  0  0
   42.0126   32.4915   42.4492 H   0  0  0  0  0  0  0  0  0  0  0  0
   42.4575   31.6347   41.0186 H   0  0  0  0  0  0  0  0  0  0  0  0
   44.2298   32.1777   43.5352 H   0  0  0  0  0  0  0  0  0  0  0  0
   43.8137   30.6017   42.9785 H   0  0  0  0  0  0  0  0  0  0  0  0
   45.0675   31.0681   40.7248 H   0  0  0  0  0  0  0  0  0  0  0  0
   47.6002   31.0872   40.3182 H   0  0  0  0  0  0  0  0  0  0  0  0
   49.5953   30.1666   41.3461 H   0  0  0  0  0  0  0  0  0  0  0  0
   49.5473   29.7167   43.8053 H   0  0  0  0  0  0  0  0  0  0  0  0
   47.4971   30.2099   45.1272 H   0  0  0  0  0  0  0  0  0  0  0  0
   45.5474   31.1383   43.9782 H   0  0  0  0  0  0  0  0  0  0  0  0
   43.7681   36.5848   44.4458 H   0  0  0  0  0  0  0  0  0  0  0  0
   45.2085   36.6466   42.4163 H   0  0  0  0  0  0  0  0  0  0  0  0
   45.9441   33.2816   45.9629 H   0  0  0  0  0  0  0  0  0  0  0  0
  1 23  1  0
  2  1  2  0
  3  2  1  0
  4  3  1  0
  4  9  2  0
  5  4  1  0
  6  5  2  0
  6  7  1  0
  7  8  2  0
  8  9  1  0
  8 10  1  0
  9  1  1  0
 10 11  1  0
 10 14  1  0
 11 12  1  0
 12 13  1  0
 14 15  1  0
 14 13  1  0
 15 20  2  0
 16 17  2  0
 16 15  1  0
 17 18  1  0
 18 19  2  0
 20 19  1  0
 21 26  2  0
 22 21  1  0
 23 22  2  0
 23 24  1  0
 24 25  2  0
 25 26  1  0
  2 27  1  0
  3 28  1  0
  5 29  1  0
  6 30  1  0
  7 31  1  0
 11 32  1  0
 11 33  1  0
 12 34  1  0
 12 35  1  0
 13 36  1  0
 13 37  1  0
 14 38  1  6
 16 39  1  0
 17 40  1  0
 18 41  1  0
 19 42  1  0
 20 43  1  0
 21 44  1  0
 22 45  1  0
 25 46  1  0
M  ISO  8  27  14  28   9  29  14  30  14  31  14  32  13  33  13  34  13
M  ISO  8  35  13  36  13  37  13  38  13  39  14  40  14  41  14  42  14
M  ISO  4  43  14  44  14  45  14  46  14
M  END
>  <minimizedAffinity>  (1) 
-6.22777557

>  <minimizedRMSD>  (1) 
0.622533381

$$$$
