
     RDKit          3D

 49 54  0  0  1  0  0  0  0  0999 V2000
   44.9780   33.1350   40.8840 N   0  0  0  0  0  0  0  0  0  0  0  0
   43.5700   33.3820   40.9990 C   0  0  0  0  0  0  0  0  0  0  0  0
   43.0080   32.1810   41.7320 C   0  0  0  0  0  0  0  0  0  0  0  0
   44.1270   31.9360   42.7160 C   0  0  0  0  0  0  0  0  0  0  0  0
   45.3340   32.0660   41.8290 C   0  0  1  0  0  0  0  0  0  0  0  0
   47.3430   34.9650   41.8760 C   0  0  0  0  0  0  0  0  0  0  0  0
   48.5500   35.6610   41.7700 C   0  0  0  0  0  0  0  0  0  0  0  0
   49.0450   35.5000   40.5370 N   0  0  0  0  0  0  0  0  0  0  0  0
   48.1830   34.7220   39.8600 C   0  0  0  0  0  0  0  0  0  0  0  0
   48.2430   34.2750   38.5640 C   0  0  0  0  0  0  0  0  0  0  0  0
   47.2180   33.4800   38.1020 C   0  0  0  0  0  0  0  0  0  0  0  0
   46.1080   33.0870   38.8660 C   0  0  0  0  0  0  0  0  0  0  0  0
   46.1320   33.5850   40.1580 C   0  0  0  0  0  0  0  0  0  0  0  0
   47.1020   34.3660   40.6680 C   0  0  0  0  0  0  0  0  0  0  0  0
   44.5990   35.6800   44.2930 C   0  0  0  0  0  0  0  0  0  0  0  0
   45.3940   35.7700   43.1490 C   0  0  0  0  0  0  0  0  0  0  0  0
   46.5010   34.8990   43.0530 C   0  0  0  0  0  0  0  0  0  0  0  0
   46.7010   34.0430   44.0860 N   0  0  0  0  0  0  0  0  0  0  0  0
   45.9300   33.9720   45.1720 C   0  0  0  0  0  0  0  0  0  0  0  0
   44.8700   34.7970   45.2790 N   0  0  0  0  0  0  0  0  0  0  0  0
   45.8230   30.8840   41.2450 N   0  0  0  0  0  0  0  0  0  0  0  0
   45.2700   29.8780   40.5500 C   0  0  0  0  0  0  0  0  0  0  0  0
   46.1540   28.9280   40.1860 N   0  0  0  0  0  0  0  0  0  0  0  0
   47.3530   29.3130   40.6570 C   0  0  0  0  0  0  0  0  0  0  0  0
   48.5820   28.7110   40.5670 C   0  0  0  0  0  0  0  0  0  0  0  0
   49.6360   29.3280   41.1430 N   0  0  0  0  0  0  0  0  0  0  0  0
   49.4640   30.5080   41.7890 C   0  0  0  0  0  0  0  0  0  0  0  0
   48.2470   31.0710   41.8580 N   0  0  0  0  0  0  0  0  0  0  0  0
   47.1380   30.5040   41.3000 C   0  0  0  0  0  0  0  0  0  0  0  0
   48.7680   27.4740   39.8910 N   0  0  0  0  0  0  0  0  0  0  0  0
   43.3866   34.3028   41.5721 H   0  0  0  0  0  0  0  0  0  0  0  0
   43.0974   33.5180   40.0151 H   0  0  0  0  0  0  0  0  0  0  0  0
   42.0611   32.4174   42.2394 H   0  0  0  0  0  0  0  0  0  0  0  0
   42.7530   31.3226   41.0932 H   0  0  0  0  0  0  0  0  0  0  0  0
   44.1321   32.6910   43.5160 H   0  0  0  0  0  0  0  0  0  0  0  0
   44.0587   30.9740   43.2451 H   0  0  0  0  0  0  0  0  0  0  0  0
   46.2224   32.3210   42.4254 H   0  0  0  0  0  0  0  0  0  0  0  0
   49.0192   36.2484   42.5730 H   0  0  0  0  0  0  0  0  0  0  0  0
   49.9230   35.8981   40.1744 H   0  0  0  0  0  0  0  0  0  0  0  0
   49.0869   34.5444   37.9119 H   0  0  0  0  0  0  0  0  0  0  0  0
   47.2729   33.1282   37.0612 H   0  0  0  0  0  0  0  0  0  0  0  0
   45.3009   32.4483   38.4779 H   0  0  0  0  0  0  0  0  0  0  0  0
   43.7290   36.3455   44.3943 H   0  0  0  0  0  0  0  0  0  0  0  0
   45.1663   36.4929   42.3518 H   0  0  0  0  0  0  0  0  0  0  0  0
   46.1565   33.2494   45.9699 H   0  0  0  0  0  0  0  0  0  0  0  0
   44.1994   29.8331   40.3016 H   0  0  0  0  0  0  0  0  0  0  0  0
   50.3252   31.0060   42.2584 H   0  0  0  0  0  0  0  0  0  0  0  0
   49.7052   27.0495   39.8424 H   0  0  0  0  0  0  0  0  0  0  0  0
   47.9655   27.0024   39.4499 H   0  0  0  0  0  0  0  0  0  0  0  0
  1  2  1  0
  1  5  1  0
  2  3  1  0
  3  4  1  0
  5  4  1  0
  6 17  1  0
  7  6  2  0
  8  7  1  0
  9  8  1  0
  9 14  2  0
 10  9  1  0
 11 10  2  0
 11 12  1  0
 12 13  2  0
 13 14  1  0
 13  1  1  0
 14  6  1  0
 15 20  2  0
 16 15  1  0
 17 16  2  0
 17 18  1  0
 18 19  2  0
 19 20  1  0
 21 29  1  0
 21  5  1  0
 22 21  1  0
 23 22  2  0
 23 24  1  0
 24 29  2  0
 25 24  1  0
 25 26  2  0
 26 27  1  0
 27 28  2  0
 29 28  1  0
 30 25  1  0
  2 31  1  0
  2 32  1  0
  3 33  1  0
  3 34  1  0
  4 35  1  0
  4 36  1  0
  5 37  1  1
  7 38  1  0
  8 39  1  0
 10 40  1  0
 11 41  1  0
 12 42  1  0
 15 43  1  0
 16 44  1  0
 19 45  1  0
 22 46  1  0
 27 47  1  0
 30 48  1  0
 30 49  1  0
M  ISO  8  31  13  32  13  33  13  34  13  35  13  36  13  37  13  38  14
M  ISO  8  39   9  40  14  41  14  42  14  43  14  44  14  45  14  46  14
M  ISO  1  47  14
M  END
>  <minimizedAffinity>  (1) 
-6.06494141

>  <minimizedRMSD>  (1) 
1.93612206

$$$$
