
     RDKit          3D

 39 42  0  0  1  0  0  0  0  0999 V2000
   47.3050   34.9130   41.8740 C   0  0  0  0  0  0  0  0  0  0  0  0
   48.5330   35.5680   41.7720 C   0  0  0  0  0  0  0  0  0  0  0  0
   49.0190   35.3800   40.5310 N   0  0  0  0  0  0  0  0  0  0  0  0
   48.1300   34.6270   39.8570 C   0  0  0  0  0  0  0  0  0  0  0  0
   48.1650   34.1650   38.5620 C   0  0  0  0  0  0  0  0  0  0  0  0
   47.1270   33.4170   38.1160 C   0  0  0  0  0  0  0  0  0  0  0  0
   46.0040   33.0650   38.8740 C   0  0  0  0  0  0  0  0  0  0  0  0
   46.0460   33.5690   40.1690 C   0  0  0  0  0  0  0  0  0  0  0  0
   47.0420   34.3180   40.6740 C   0  0  0  0  0  0  0  0  0  0  0  0
   44.8750   33.1660   40.8930 N   0  0  0  0  0  0  0  0  0  0  0  0
   43.5110   33.5440   41.1350 C   0  0  0  0  0  0  0  0  0  0  0  0
   42.8510   32.3060   41.7110 C   0  0  0  0  0  0  0  0  0  0  0  0
   43.9710   31.8270   42.6150 C   0  0  0  0  0  0  0  0  0  0  0  0
   45.1370   31.9290   41.6650 C   0  0  1  0  0  0  0  0  0  0  0  0
   45.2930   30.7400   40.7880 C   0  0  0  0  0  0  0  0  0  0  0  0
   44.6250   35.7840   44.3220 C   0  0  0  0  0  0  0  0  0  0  0  0
   45.4270   35.8330   43.1860 C   0  0  0  0  0  0  0  0  0  0  0  0
   46.4600   34.8780   43.0540 C   0  0  0  0  0  0  0  0  0  0  0  0
   46.6050   33.9670   44.0530 N   0  0  0  0  0  0  0  0  0  0  0  0
   45.8090   33.9490   45.1410 C   0  0  0  0  0  0  0  0  0  0  0  0
   44.8210   34.8530   45.2790 N   0  0  0  0  0  0  0  0  0  0  0  0
   49.0223   36.1423   42.5725 H   0  0  0  0  0  0  0  0  0  0  0  0
   49.9092   35.7458   40.1639 H   0  0  0  0  0  0  0  0  0  0  0  0
   49.0154   34.3972   37.9041 H   0  0  0  0  0  0  0  0  0  0  0  0
   47.1701   33.0583   37.0770 H   0  0  0  0  0  0  0  0  0  0  0  0
   45.1757   32.4540   38.4859 H   0  0  0  0  0  0  0  0  0  0  0  0
   43.4630   34.3761   41.8529 H   0  0  0  0  0  0  0  0  0  0  0  0
   43.0107   33.8872   40.2174 H   0  0  0  0  0  0  0  0  0  0  0  0
   41.9414   32.5517   42.2787 H   0  0  0  0  0  0  0  0  0  0  0  0
   42.5001   31.5730   40.9696 H   0  0  0  0  0  0  0  0  0  0  0  0
   44.0984   32.4823   43.4893 H   0  0  0  0  0  0  0  0  0  0  0  0
   43.8174   30.8302   43.0541 H   0  0  0  0  0  0  0  0  0  0  0  0
   46.0924   31.9663   42.2089 H   0  0  0  0  0  0  0  0  0  0  0  0
   45.4111   29.8396   41.4087 H   0  0  0  0  0  0  0  0  0  0  0  0
   44.4012   30.6332   40.1530 H   0  0  0  0  0  0  0  0  0  0  0  0
   46.1822   30.8669   40.1530 H   0  0  0  0  0  0  0  0  0  0  0  0
   43.8152   36.5187   44.4423 H   0  0  0  0  0  0  0  0  0  0  0  0
   45.2611   36.5955   42.4107 H   0  0  0  0  0  0  0  0  0  0  0  0
   45.9679   33.1903   45.9215 H   0  0  0  0  0  0  0  0  0  0  0  0
  1 18  1  0
  2  1  2  0
  3  2  1  0
  4  3  1  0
  4  9  2  0
  5  4  1  0
  6  5  2  0
  6  7  1  0
  7  8  2  0
  8  9  1  0
  8 10  1  0
  9  1  1  0
 10 11  1  0
 10 14  1  0
 11 12  1  0
 12 13  1  0
 14 13  1  0
 15 14  1  0
 16 21  2  0
 17 16  1  0
 18 17  2  0
 18 19  1  0
 19 20  2  0
 20 21  1  0
  2 22  1  0
  3 23  1  0
  5 24  1  0
  6 25  1  0
  7 26  1  0
 11 27  1  0
 11 28  1  0
 12 29  1  0
 12 30  1  0
 13 31  1  0
 13 32  1  0
 14 33  1  1
 15 34  1  0
 15 35  1  0
 15 36  1  0
 16 37  1  0
 17 38  1  0
 20 39  1  0
M  ISO  8  22  14  23   9  24  14  25  14  26  14  27  13  28  13  29  13
M  ISO  8  30  13  31  13  32  13  33  13  34   8  35   8  36   8  37  14
M  ISO  2  38  14  39  14
M  END
>  <minimizedAffinity>  (1) 
-6.05734491

>  <minimizedRMSD>  (1) 
0.0951708853

$$$$
