
     RDKit          3D

 37 39  0  0  1  0  0  0  0  0999 V2000
   44.5850   35.7690   44.9000 C   0  0  0  0  0  0  0  0  0  0  0  0
   45.1810   35.6870   43.5970 C   0  0  0  0  0  0  0  0  0  0  0  0
   45.9680   34.5860   43.3250 C   0  0  0  0  0  0  0  0  0  0  0  0
   46.1340   33.6470   44.3060 N   0  0  0  0  0  0  0  0  0  0  0  0
   45.5680   33.7630   45.5060 C   0  0  0  0  0  0  0  0  0  0  0  0
   44.8050   34.8140   45.8070 N   0  0  0  0  0  0  0  0  0  0  0  0
   45.7880   32.7340   46.5200 N   0  0  0  0  0  0  0  0  0  0  0  0
   45.1760   32.8420   47.8280 C   0  0  0  0  0  0  0  0  0  0  0  0
   46.0500   32.3120   48.9220 C   0  0  0  0  0  0  0  0  0  0  0  0
   47.4610   32.1710   48.4270 C   0  0  0  0  0  0  0  0  0  0  0  0
   47.4250   31.0980   47.3450 C   0  0  0  0  0  0  0  0  0  0  0  0
   46.6310   31.5960   46.1910 C   0  0  1  0  0  0  0  0  0  0  0  0
   45.8540   30.5220   45.4940 C   0  0  0  0  0  0  0  0  0  0  0  0
   45.7810   30.2590   44.1890 N   0  0  0  0  0  0  0  0  0  0  0  0
   45.0150   29.2370   43.9460 O   0  0  0  0  0  0  0  0  0  0  0  0
   44.5550   28.8230   45.1120 C   0  0  0  0  0  0  0  0  0  0  0  0
   45.0660   29.5860   46.0990 N   0  0  0  0  0  0  0  0  0  0  0  0
   43.4710   27.4050   45.2330 S   0  0  0  0  0  0  0  0  0  0  0  0
   43.8110   26.6350   46.8520 C   0  0  0  0  0  0  0  0  0  0  0  0
   42.7010   25.7160   47.2810 C   0  0  0  0  0  0  0  0  0  0  0  0
   43.9422   36.6249   45.1534 H   0  0  0  0  0  0  0  0  0  0  0  0
   45.0169   36.4716   42.8437 H   0  0  0  0  0  0  0  0  0  0  0  0
   46.4499   34.4666   42.3434 H   0  0  0  0  0  0  0  0  0  0  0  0
   44.9633   33.9021   48.0303 H   0  0  0  0  0  0  0  0  0  0  0  0
   44.2573   32.2372   47.8152 H   0  0  0  0  0  0  0  0  0  0  0  0
   46.0302   33.0077   49.7738 H   0  0  0  0  0  0  0  0  0  0  0  0
   45.6771   31.3265   49.2377 H   0  0  0  0  0  0  0  0  0  0  0  0
   47.8153   33.1242   48.0076 H   0  0  0  0  0  0  0  0  0  0  0  0
   48.1469   31.8966   49.2420 H   0  0  0  0  0  0  0  0  0  0  0  0
   48.4501   30.8719   47.0164 H   0  0  0  0  0  0  0  0  0  0  0  0
   46.9626   30.1838   47.7455 H   0  0  0  0  0  0  0  0  0  0  0  0
   47.3842   31.9554   45.4744 H   0  0  0  0  0  0  0  0  0  0  0  0
   44.7441   26.0567   46.7816 H   0  0  0  0  0  0  0  0  0  0  0  0
   43.8967   27.4375   47.5994 H   0  0  0  0  0  0  0  0  0  0  0  0
   42.6582   25.6806   48.3796 H   0  0  0  0  0  0  0  0  0  0  0  0
   41.7436   26.0893   46.8886 H   0  0  0  0  0  0  0  0  0  0  0  0
   42.8891   24.7057   46.8886 H   0  0  0  0  0  0  0  0  0  0  0  0
  1  6  2  0
  2  1  1  0
  3  2  2  0
  3  4  1  0
  4  5  2  0
  5  6  1  0
  5  7  1  0
  7  8  1  0
  8  9  1  0
 10  9  1  0
 11 10  1  0
 12  7  1  0
 12 11  1  0
 13 17  1  0
 13 12  1  0
 14 13  2  0
 15 14  1  0
 15 16  1  0
 16 18  1  0
 16 17  2  0
 18 19  1  0
 19 20  1  0
  1 21  1  0
  2 22  1  0
  3 23  1  0
  8 24  1  0
  8 25  1  0
  9 26  1  0
  9 27  1  0
 10 28  1  0
 10 29  1  0
 11 30  1  0
 11 31  1  0
 12 32  1  6
 19 33  1  0
 19 34  1  0
 20 35  1  0
 20 36  1  0
 20 37  1  0
M  ISO  8  21  14  22  14  23  14  24  13  25  13  26  13  27  13  28  13
M  ISO  8  29  13  30  13  31  13  32  13  33   8  34   8  35   8  36   8
M  ISO  1  37   8
M  END
>  <minimizedAffinity>  (1) 
-5.09828186

>  <minimizedRMSD>  (1) 
0.718240142

$$$$
