
     RDKit          3D

 49 53  0  0  1  0  0  0  0  0999 V2000
   47.3220   34.9250   41.8700 C   0  0  0  0  0  0  0  0  0  0  0  0
   48.5470   35.5870   41.7610 C   0  0  0  0  0  0  0  0  0  0  0  0
   49.0360   35.4110   40.5270 N   0  0  0  0  0  0  0  0  0  0  0  0
   48.1560   34.6590   39.8520 C   0  0  0  0  0  0  0  0  0  0  0  0
   48.1990   34.2040   38.5510 C   0  0  0  0  0  0  0  0  0  0  0  0
   47.1570   33.4390   38.0970 C   0  0  0  0  0  0  0  0  0  0  0  0
   46.0380   33.0790   38.8590 C   0  0  0  0  0  0  0  0  0  0  0  0
   46.0750   33.5740   40.1480 C   0  0  0  0  0  0  0  0  0  0  0  0
   47.0760   34.3410   40.6680 C   0  0  0  0  0  0  0  0  0  0  0  0
   44.9150   33.1490   40.8760 N   0  0  0  0  0  0  0  0  0  0  0  0
   43.5090   33.4710   40.9930 C   0  0  0  0  0  0  0  0  0  0  0  0
   42.8950   32.2760   41.6920 C   0  0  0  0  0  0  0  0  0  0  0  0
   44.0060   31.9570   42.6600 C   0  0  0  0  0  0  0  0  0  0  0  0
   45.2170   32.0450   41.7960 C   0  0  1  0  0  0  0  0  0  0  0  0
   45.7470   30.8770   41.2280 N   0  0  0  0  0  0  0  0  0  0  0  0
   45.1940   29.9730   40.4120 C   0  0  0  0  0  0  0  0  0  0  0  0
   45.7600   28.8370   39.8820 C   0  0  0  0  0  0  0  0  0  0  0  0
   45.0120   27.9220   38.9810 C   0  0  0  0  0  0  0  0  0  0  0  0
   47.0700   28.5670   40.2190 C   0  0  0  0  0  0  0  0  0  0  0  0
   47.6350   27.5430   39.7640 O   0  0  0  0  0  0  0  0  0  0  0  0
   47.6790   29.4420   41.0380 N   0  0  0  0  0  0  0  0  0  0  0  0
   47.0450   30.5290   41.5080 C   0  0  0  0  0  0  0  0  0  0  0  0
   47.8110   31.2030   42.2590 O   0  0  0  0  0  0  0  0  0  0  0  0
   44.5970   35.7180   44.2830 C   0  0  0  0  0  0  0  0  0  0  0  0
   45.3990   35.7870   43.1380 C   0  0  0  0  0  0  0  0  0  0  0  0
   46.4780   34.8820   43.0430 C   0  0  0  0  0  0  0  0  0  0  0  0
   46.6450   34.0210   44.0760 N   0  0  0  0  0  0  0  0  0  0  0  0
   45.8740   33.9660   45.1610 C   0  0  0  0  0  0  0  0  0  0  0  0
   44.8410   34.8200   45.2680 N   0  0  0  0  0  0  0  0  0  0  0  0
   49.0334   36.1623   42.5626 H   0  0  0  0  0  0  0  0  0  0  0  0
   49.9244   35.7846   40.1637 H   0  0  0  0  0  0  0  0  0  0  0  0
   49.0474   34.4488   37.8951 H   0  0  0  0  0  0  0  0  0  0  0  0
   47.2024   33.0812   37.0578 H   0  0  0  0  0  0  0  0  0  0  0  0
   45.2130   32.4641   38.4700 H   0  0  0  0  0  0  0  0  0  0  0  0
   43.3690   34.3837   41.5909 H   0  0  0  0  0  0  0  0  0  0  0  0
   43.0444   33.6635   40.0147 H   0  0  0  0  0  0  0  0  0  0  0  0
   41.9614   32.5390   42.2109 H   0  0  0  0  0  0  0  0  0  0  0  0
   42.5975   31.4485   41.0311 H   0  0  0  0  0  0  0  0  0  0  0  0
   44.0456   32.6925   43.4770 H   0  0  0  0  0  0  0  0  0  0  0  0
   43.8901   30.9826   43.1570 H   0  0  0  0  0  0  0  0  0  0  0  0
   46.1020   32.2383   42.4201 H   0  0  0  0  0  0  0  0  0  0  0  0
   44.1487   30.1631   40.1272 H   0  0  0  0  0  0  0  0  0  0  0  0
   44.4295   27.2094   39.5834 H   0  0  0  0  0  0  0  0  0  0  0  0
   44.3311   28.5081   38.3463 H   0  0  0  0  0  0  0  0  0  0  0  0
   45.7218   27.3712   38.3463 H   0  0  0  0  0  0  0  0  0  0  0  0
   48.6576   29.2745   41.3124 H   0  0  0  0  0  0  0  0  0  0  0  0
   43.7479   36.4097   44.3858 H   0  0  0  0  0  0  0  0  0  0  0  0
   45.1961   36.5188   42.3422 H   0  0  0  0  0  0  0  0  0  0  0  0
   46.0791   33.2341   45.9561 H   0  0  0  0  0  0  0  0  0  0  0  0
  1 26  1  0
  2  1  2  0
  3  2  1  0
  4  3  1  0
  4  9  2  0
  5  4  1  0
  6  5  2  0
  6  7  1  0
  7  8  2  0
  8  9  1  0
  8 10  1  0
  9  1  1  0
 10 11  1  0
 10 14  1  0
 11 12  1  0
 12 13  1  0
 14 13  1  0
 15 22  1  0
 15 14  1  0
 16 15  1  0
 17 19  1  0
 17 16  2  0
 18 17  1  0
 19 21  1  0
 20 19  2  0
 21 22  1  0
 22 23  2  0
 24 29  2  0
 25 24  1  0
 26 25  2  0
 26 27  1  0
 27 28  2  0
 28 29  1  0
  2 30  1  0
  3 31  1  0
  5 32  1  0
  6 33  1  0
  7 34  1  0
 11 35  1  0
 11 36  1  0
 12 37  1  0
 12 38  1  0
 13 39  1  0
 13 40  1  0
 14 41  1  1
 16 42  1  0
 18 43  1  0
 18 44  1  0
 18 45  1  0
 21 46  1  0
 24 47  1  0
 25 48  1  0
 28 49  1  0
M  ISO  8  30  14  31   9  32  14  33  14  34  14  35  13  36  13  37  13
M  ISO  8  38  13  39  13  40  13  41  13  42  14  43   8  44   8  45   8
M  ISO  4  46   9  47  14  48  14  49  14
M  END
>  <minimizedAffinity>  (1) 
-5.97052956

>  <minimizedRMSD>  (1) 
0.933930039

$$$$
