
     RDKit          3D

 34 36  0  0  1  0  0  0  0  0999 V2000
   44.6030   35.7870   44.8980 C   0  0  0  0  0  0  0  0  0  0  0  0
   45.1940   35.7120   43.6040 C   0  0  0  0  0  0  0  0  0  0  0  0
   45.9730   34.6200   43.3300 C   0  0  0  0  0  0  0  0  0  0  0  0
   46.1350   33.6730   44.3080 N   0  0  0  0  0  0  0  0  0  0  0  0
   45.5640   33.7770   45.5120 C   0  0  0  0  0  0  0  0  0  0  0  0
   44.8050   34.8180   45.8100 N   0  0  0  0  0  0  0  0  0  0  0  0
   45.7820   32.7320   46.5150 N   0  0  0  0  0  0  0  0  0  0  0  0
   45.1700   32.8270   47.8130 C   0  0  0  0  0  0  0  0  0  0  0  0
   46.0560   32.2930   48.9010 C   0  0  0  0  0  0  0  0  0  0  0  0
   47.4660   32.1570   48.4090 C   0  0  0  0  0  0  0  0  0  0  0  0
   47.4340   31.0910   47.3070 C   0  0  0  0  0  0  0  0  0  0  0  0
   46.6380   31.5950   46.1720 C   0  0  1  0  0  0  0  0  0  0  0  0
   45.8680   30.5310   45.4470 C   0  0  0  0  0  0  0  0  0  0  0  0
   45.8980   30.2070   44.1640 N   0  0  0  0  0  0  0  0  0  0  0  0
   45.1030   29.2160   43.8990 O   0  0  0  0  0  0  0  0  0  0  0  0
   44.5360   28.8780   45.0330 C   0  0  0  0  0  0  0  0  0  0  0  0
   44.9760   29.6670   46.0340 N   0  0  0  0  0  0  0  0  0  0  0  0
   43.3510   27.5320   45.1350 S   0  0  0  0  0  0  0  0  0  0  0  0
   41.6520   28.0880   45.2080 C   0  0  0  0  0  0  0  0  0  0  0  0
   43.9718   36.6502   45.1558 H   0  0  0  0  0  0  0  0  0  0  0  0
   45.0309   36.5004   42.8545 H   0  0  0  0  0  0  0  0  0  0  0  0
   46.4572   34.5052   42.3490 H   0  0  0  0  0  0  0  0  0  0  0  0
   44.9491   33.8838   48.0235 H   0  0  0  0  0  0  0  0  0  0  0  0
   44.2526   32.2202   47.7978 H   0  0  0  0  0  0  0  0  0  0  0  0
   46.0359   32.9843   49.7564 H   0  0  0  0  0  0  0  0  0  0  0  0
   45.6880   31.3023   49.2061 H   0  0  0  0  0  0  0  0  0  0  0  0
   47.8220   33.1151   48.0024 H   0  0  0  0  0  0  0  0  0  0  0  0
   48.1486   31.8715   49.2229 H   0  0  0  0  0  0  0  0  0  0  0  0
   48.4595   30.8768   46.9716 H   0  0  0  0  0  0  0  0  0  0  0  0
   46.9807   30.1678   47.6970 H   0  0  0  0  0  0  0  0  0  0  0  0
   47.3952   31.9669   45.4661 H   0  0  0  0  0  0  0  0  0  0  0  0
   41.3440   28.1888   46.2592 H   0  0  0  0  0  0  0  0  0  0  0  0
   41.5630   29.0621   44.7048 H   0  0  0  0  0  0  0  0  0  0  0  0
   41.0044   27.3549   44.7048 H   0  0  0  0  0  0  0  0  0  0  0  0
  1  6  2  0
  2  1  1  0
  3  2  2  0
  3  4  1  0
  4  5  2  0
  5  6  1  0
  5  7  1  0
  7  8  1  0
  8  9  1  0
 10  9  1  0
 11 10  1  0
 12  7  1  0
 12 11  1  0
 13 17  1  0
 13 12  1  0
 14 13  2  0
 15 14  1  0
 15 16  1  0
 16 18  1  0
 16 17  2  0
 18 19  1  0
  1 20  1  0
  2 21  1  0
  3 22  1  0
  8 23  1  0
  8 24  1  0
  9 25  1  0
  9 26  1  0
 10 27  1  0
 10 28  1  0
 11 29  1  0
 11 30  1  0
 12 31  1  6
 19 32  1  0
 19 33  1  0
 19 34  1  0
M  ISO  8  20  14  21  14  22  14  23  13  24  13  25  13  26  13  27  13
M  ISO  7  28  13  29  13  30  13  31  13  32   8  33   8  34   8
M  END
>  <minimizedAffinity>  (1) 
-4.99473476

>  <minimizedRMSD>  (1) 
0.096133396

$$$$
