
     RDKit          3D

 43 47  0  0  1  0  0  0  0  0999 V2000
   47.2920   34.9170   41.8730 C   0  0  0  0  0  0  0  0  0  0  0  0
   48.5300   35.5550   41.7780 C   0  0  0  0  0  0  0  0  0  0  0  0
   49.0220   35.3580   40.5430 N   0  0  0  0  0  0  0  0  0  0  0  0
   48.1250   34.6170   39.8650 C   0  0  0  0  0  0  0  0  0  0  0  0
   48.1690   34.1610   38.5670 C   0  0  0  0  0  0  0  0  0  0  0  0
   47.1240   33.4280   38.1130 C   0  0  0  0  0  0  0  0  0  0  0  0
   45.9840   33.0900   38.8650 C   0  0  0  0  0  0  0  0  0  0  0  0
   46.0220   33.5880   40.1570 C   0  0  0  0  0  0  0  0  0  0  0  0
   47.0300   34.3240   40.6680 C   0  0  0  0  0  0  0  0  0  0  0  0
   44.8460   33.1930   40.8770 N   0  0  0  0  0  0  0  0  0  0  0  0
   43.4780   33.5790   41.0790 C   0  0  0  0  0  0  0  0  0  0  0  0
   42.8080   32.3760   41.6980 C   0  0  0  0  0  0  0  0  0  0  0  0
   43.9200   31.9020   42.6140 C   0  0  0  0  0  0  0  0  0  0  0  0
   45.1050   31.9940   41.6850 C   0  0  1  0  0  0  0  0  0  0  0  0
   45.3910   30.8210   40.9530 N   0  0  0  0  0  0  0  0  0  0  0  0
   44.4260   30.1960   40.2080 C   0  0  0  0  0  0  0  0  0  0  0  0
   44.9500   29.0960   39.6000 C   0  0  0  0  0  0  0  0  0  0  0  0
   46.2490   29.0040   39.9440 N   0  0  0  0  0  0  0  0  0  0  0  0
   46.4560   30.0580   40.7520 C   0  0  0  0  0  0  0  0  0  0  0  0
   44.5980   35.8100   44.2940 C   0  0  0  0  0  0  0  0  0  0  0  0
   45.4040   35.8520   43.1600 C   0  0  0  0  0  0  0  0  0  0  0  0
   46.4370   34.8970   43.0440 C   0  0  0  0  0  0  0  0  0  0  0  0
   46.5680   34.0030   44.0560 N   0  0  0  0  0  0  0  0  0  0  0  0
   45.7770   33.9830   45.1410 C   0  0  0  0  0  0  0  0  0  0  0  0
   44.7890   34.8890   45.2630 N   0  0  0  0  0  0  0  0  0  0  0  0
   49.0213   36.1244   42.5807 H   0  0  0  0  0  0  0  0  0  0  0  0
   49.9202   35.7093   40.1815 H   0  0  0  0  0  0  0  0  0  0  0  0
   49.0277   34.3852   37.9172 H   0  0  0  0  0  0  0  0  0  0  0  0
   47.1705   33.0687   37.0744 H   0  0  0  0  0  0  0  0  0  0  0  0
   45.1497   32.4927   38.4684 H   0  0  0  0  0  0  0  0  0  0  0  0
   43.4183   34.4436   41.7565 H   0  0  0  0  0  0  0  0  0  0  0  0
   42.9941   33.8766   40.1371 H   0  0  0  0  0  0  0  0  0  0  0  0
   41.9055   32.6555   42.2614 H   0  0  0  0  0  0  0  0  0  0  0  0
   42.4456   31.6254   40.9802 H   0  0  0  0  0  0  0  0  0  0  0  0
   44.0362   32.5624   43.4860 H   0  0  0  0  0  0  0  0  0  0  0  0
   43.7584   30.9055   43.0510 H   0  0  0  0  0  0  0  0  0  0  0  0
   46.0464   32.0876   42.2463 H   0  0  0  0  0  0  0  0  0  0  0  0
   43.3830   30.5327   40.1148 H   0  0  0  0  0  0  0  0  0  0  0  0
   44.4064   28.4024   38.9417 H   0  0  0  0  0  0  0  0  0  0  0  0
   47.4329   30.2707   41.2106 H   0  0  0  0  0  0  0  0  0  0  0  0
   43.7863   36.5443   44.4035 H   0  0  0  0  0  0  0  0  0  0  0  0
   45.2408   36.6073   42.3771 H   0  0  0  0  0  0  0  0  0  0  0  0
   45.9358   33.2296   45.9266 H   0  0  0  0  0  0  0  0  0  0  0  0
  1 22  1  0
  2  1  2  0
  3  2  1  0
  4  3  1  0
  4  9  2  0
  5  4  1  0
  6  5  2  0
  6  7  1  0
  7  8  2  0
  8  9  1  0
  8 10  1  0
  9  1  1  0
 10 11  1  0
 10 14  1  0
 11 12  1  0
 12 13  1  0
 14 13  1  0
 15 14  1  0
 16 15  1  0
 17 18  1  0
 17 16  2  0
 18 19  2  0
 19 15  1  0
 20 25  2  0
 21 20  1  0
 22 21  2  0
 22 23  1  0
 23 24  2  0
 24 25  1  0
  2 26  1  0
  3 27  1  0
  5 28  1  0
  6 29  1  0
  7 30  1  0
 11 31  1  0
 11 32  1  0
 12 33  1  0
 12 34  1  0
 13 35  1  0
 13 36  1  0
 14 37  1  1
 16 38  1  0
 17 39  1  0
 19 40  1  0
 20 41  1  0
 21 42  1  0
 24 43  1  0
M  ISO  8  26  14  27   9  28  14  29  14  30  14  31  13  32  13  33  13
M  ISO  8  34  13  35  13  36  13  37  13  38  14  39  14  40  14  41  14
M  ISO  2  42  14  43  14
M  END
>  <minimizedAffinity>  (1) 
-5.85777426

>  <minimizedRMSD>  (1) 
0.212043926

$$$$
