
     RDKit          3D

 49 53  0  0  1  0  0  0  0  0999 V2000
   47.2890   34.9200   41.8800 C   0  0  0  0  0  0  0  0  0  0  0  0
   48.5260   35.5660   41.7780 C   0  0  0  0  0  0  0  0  0  0  0  0
   49.0180   35.3730   40.5400 N   0  0  0  0  0  0  0  0  0  0  0  0
   48.1290   34.6270   39.8620 C   0  0  0  0  0  0  0  0  0  0  0  0
   48.1730   34.1700   38.5700 C   0  0  0  0  0  0  0  0  0  0  0  0
   47.1280   33.4230   38.1120 C   0  0  0  0  0  0  0  0  0  0  0  0
   45.9960   33.0820   38.8750 C   0  0  0  0  0  0  0  0  0  0  0  0
   46.0330   33.5810   40.1600 C   0  0  0  0  0  0  0  0  0  0  0  0
   47.0330   34.3250   40.6720 C   0  0  0  0  0  0  0  0  0  0  0  0
   44.8600   33.1790   40.8800 N   0  0  0  0  0  0  0  0  0  0  0  0
   43.5050   33.5880   41.1180 C   0  0  0  0  0  0  0  0  0  0  0  0
   42.8130   32.3820   41.7070 C   0  0  0  0  0  0  0  0  0  0  0  0
   43.9240   31.8470   42.5890 C   0  0  0  0  0  0  0  0  0  0  0  0
   45.0800   31.9490   41.6260 C   0  0  1  0  0  0  0  0  0  0  0  0
   45.3860   30.8050   40.9000 N   0  0  0  0  0  0  0  0  0  0  0  0
   44.4020   29.9570   40.3750 C   0  0  0  0  0  0  0  0  0  0  0  0
   45.1390   29.0790   39.3470 C   0  0  0  0  0  0  0  0  0  0  0  0
   45.8990   28.1650   40.0400 O   0  0  0  0  0  0  0  0  0  0  0  0
   46.2680   28.5540   41.3050 C   0  0  0  0  0  0  0  0  0  0  0  0
   46.4820   30.0600   41.4130 C   0  0  0  0  0  0  0  0  0  0  0  0
   44.6040   35.8390   44.3020 C   0  0  0  0  0  0  0  0  0  0  0  0
   45.4220   35.8650   43.1770 C   0  0  0  0  0  0  0  0  0  0  0  0
   46.4420   34.8980   43.0450 C   0  0  0  0  0  0  0  0  0  0  0  0
   46.5560   33.9910   44.0460 N   0  0  0  0  0  0  0  0  0  0  0  0
   45.7610   33.9740   45.1270 C   0  0  0  0  0  0  0  0  0  0  0  0
   44.7790   34.9020   45.2590 N   0  0  0  0  0  0  0  0  0  0  0  0
   49.0165   36.1384   42.5791 H   0  0  0  0  0  0  0  0  0  0  0  0
   49.9131   35.7318   40.1781 H   0  0  0  0  0  0  0  0  0  0  0  0
   49.0296   34.4001   37.9194 H   0  0  0  0  0  0  0  0  0  0  0  0
   47.1732   33.0619   37.0739 H   0  0  0  0  0  0  0  0  0  0  0  0
   45.1640   32.4773   38.4851 H   0  0  0  0  0  0  0  0  0  0  0  0
   43.4769   34.4300   41.8252 H   0  0  0  0  0  0  0  0  0  0  0  0
   43.0144   33.9271   40.1937 H   0  0  0  0  0  0  0  0  0  0  0  0
   41.9267   32.6656   42.2935 H   0  0  0  0  0  0  0  0  0  0  0  0
   42.4210   31.6662   40.9695 H   0  0  0  0  0  0  0  0  0  0  0  0
   44.0768   32.4726   43.4808 H   0  0  0  0  0  0  0  0  0  0  0  0
   43.7489   30.8437   43.0045 H   0  0  0  0  0  0  0  0  0  0  0  0
   46.0346   32.0120   42.1689 H   0  0  0  0  0  0  0  0  0  0  0  0
   43.9629   29.3359   41.1696 H   0  0  0  0  0  0  0  0  0  0  0  0
   43.5730   30.5186   39.9196 H   0  0  0  0  0  0  0  0  0  0  0  0
   45.7888   29.7052   38.7180 H   0  0  0  0  0  0  0  0  0  0  0  0
   44.4177   28.5631   38.6962 H   0  0  0  0  0  0  0  0  0  0  0  0
   45.4769   28.2585   42.0099 H   0  0  0  0  0  0  0  0  0  0  0  0
   47.2235   28.0626   41.5407 H   0  0  0  0  0  0  0  0  0  0  0  0
   47.3865   30.3289   40.8476 H   0  0  0  0  0  0  0  0  0  0  0  0
   46.5828   30.3069   42.4802 H   0  0  0  0  0  0  0  0  0  0  0  0
   43.8069   36.5888   44.4132 H   0  0  0  0  0  0  0  0  0  0  0  0
   45.2758   36.6297   42.3999 H   0  0  0  0  0  0  0  0  0  0  0  0
   45.9048   33.2095   45.9047 H   0  0  0  0  0  0  0  0  0  0  0  0
  1 23  1  0
  2  1  2  0
  3  2  1  0
  4  3  1  0
  4  9  2  0
  5  4  1  0
  6  5  2  0
  6  7  1  0
  7  8  2  0
  8  9  1  0
  8 10  1  0
  9  1  1  0
 10 11  1  0
 10 14  1  0
 11 12  1  0
 12 13  1  0
 14 13  1  0
 15 20  1  0
 15 14  1  0
 16 15  1  0
 17 18  1  0
 17 16  1  0
 18 19  1  0
 19 20  1  0
 21 26  2  0
 22 21  1  0
 23 22  2  0
 23 24  1  0
 24 25  2  0
 25 26  1  0
  2 27  1  0
  3 28  1  0
  5 29  1  0
  6 30  1  0
  7 31  1  0
 11 32  1  0
 11 33  1  0
 12 34  1  0
 12 35  1  0
 13 36  1  0
 13 37  1  0
 14 38  1  1
 16 39  1  0
 16 40  1  0
 17 41  1  0
 17 42  1  0
 19 43  1  0
 19 44  1  0
 20 45  1  0
 20 46  1  0
 21 47  1  0
 22 48  1  0
 25 49  1  0
M  ISO  8  27  14  28   9  29  14  30  14  31  14  32  13  33  13  34  13
M  ISO  8  35  13  36  13  37  13  38  13  39  13  40  13  41  13  42  13
M  ISO  7  43  13  44  13  45  13  46  13  47  14  48  14  49  14
M  END
>  <minimizedAffinity>  (1) 
-5.8557806

>  <minimizedRMSD>  (1) 
0.900625765

$$$$
