
     RDKit          3D

 49 53  0  0  1  0  0  0  0  0999 V2000
   47.3000   34.9140   41.8820 C   0  0  0  0  0  0  0  0  0  0  0  0
   48.5300   35.5680   41.7770 C   0  0  0  0  0  0  0  0  0  0  0  0
   49.0170   35.3790   40.5430 N   0  0  0  0  0  0  0  0  0  0  0  0
   48.1260   34.6230   39.8670 C   0  0  0  0  0  0  0  0  0  0  0  0
   48.1650   34.1630   38.5660 C   0  0  0  0  0  0  0  0  0  0  0  0
   47.1240   33.4150   38.1220 C   0  0  0  0  0  0  0  0  0  0  0  0
   46.0040   33.0700   38.8850 C   0  0  0  0  0  0  0  0  0  0  0  0
   46.0370   33.5650   40.1720 C   0  0  0  0  0  0  0  0  0  0  0  0
   47.0410   34.3170   40.6820 C   0  0  0  0  0  0  0  0  0  0  0  0
   44.8760   33.1480   40.9070 N   0  0  0  0  0  0  0  0  0  0  0  0
   43.5050   33.5320   41.1150 C   0  0  0  0  0  0  0  0  0  0  0  0
   42.8490   32.3110   41.7240 C   0  0  0  0  0  0  0  0  0  0  0  0
   43.9650   31.8530   42.6310 C   0  0  0  0  0  0  0  0  0  0  0  0
   45.1520   31.9470   41.7060 C   0  0  1  0  0  0  0  0  0  0  0  0
   45.4750   30.7370   40.9630 C   0  0  0  0  0  0  0  0  0  0  0  0
   46.9340   30.3190   41.2350 C   0  0  0  0  0  0  0  0  0  0  0  0
   46.9760   29.1650   40.2200 C   0  0  0  0  0  0  0  0  0  0  0  0
   45.5780   28.5370   40.3310 C   0  0  0  0  0  0  0  0  0  0  0  0
   44.8370   29.4410   41.3400 C   0  0  0  0  0  0  0  0  0  0  0  0
   44.6080   35.8060   44.3050 C   0  0  0  0  0  0  0  0  0  0  0  0
   45.4170   35.8370   43.1800 C   0  0  0  0  0  0  0  0  0  0  0  0
   46.4540   34.8890   43.0560 C   0  0  0  0  0  0  0  0  0  0  0  0
   46.5920   33.9930   44.0650 N   0  0  0  0  0  0  0  0  0  0  0  0
   45.7960   33.9810   45.1470 C   0  0  0  0  0  0  0  0  0  0  0  0
   44.7980   34.8900   45.2730 N   0  0  0  0  0  0  0  0  0  0  0  0
   49.0188   36.1440   42.5766 H   0  0  0  0  0  0  0  0  0  0  0  0
   49.9081   35.7438   40.1772 H   0  0  0  0  0  0  0  0  0  0  0  0
   49.0155   34.3962   37.9085 H   0  0  0  0  0  0  0  0  0  0  0  0
   47.1639   33.0527   37.0841 H   0  0  0  0  0  0  0  0  0  0  0  0
   45.1748   32.4612   38.4955 H   0  0  0  0  0  0  0  0  0  0  0  0
   43.4426   34.3886   41.8022 H   0  0  0  0  0  0  0  0  0  0  0  0
   43.0151   33.8439   40.1808 H   0  0  0  0  0  0  0  0  0  0  0  0
   41.9420   32.5717   42.2892 H   0  0  0  0  0  0  0  0  0  0  0  0
   42.4959   31.5605   41.0014 H   0  0  0  0  0  0  0  0  0  0  0  0
   44.0772   32.5185   43.4996 H   0  0  0  0  0  0  0  0  0  0  0  0
   43.8110   30.8552   43.0676 H   0  0  0  0  0  0  0  0  0  0  0  0
   46.0979   32.0418   42.2594 H   0  0  0  0  0  0  0  0  0  0  0  0
   45.1584   31.0655   39.9621 H   0  0  0  0  0  0  0  0  0  0  0  0
   47.6536   31.1167   40.9986 H   0  0  0  0  0  0  0  0  0  0  0  0
   47.1959   30.0760   42.2754 H   0  0  0  0  0  0  0  0  0  0  0  0
   47.7563   28.4365   40.4853 H   0  0  0  0  0  0  0  0  0  0  0  0
   47.2146   29.5007   39.2000 H   0  0  0  0  0  0  0  0  0  0  0  0
   45.0693   28.5419   39.3557 H   0  0  0  0  0  0  0  0  0  0  0  0
   45.6122   27.4856   40.6526 H   0  0  0  0  0  0  0  0  0  0  0  0
   45.0466   29.1609   42.3829 H   0  0  0  0  0  0  0  0  0  0  0  0
   43.7382   29.4129   41.2978 H   0  0  0  0  0  0  0  0  0  0  0  0
   43.7972   36.5421   44.4086 H   0  0  0  0  0  0  0  0  0  0  0  0
   45.2527   36.5901   42.3952 H   0  0  0  0  0  0  0  0  0  0  0  0
   45.9547   33.2299   45.9348 H   0  0  0  0  0  0  0  0  0  0  0  0
  1 22  1  0
  2  1  2  0
  3  2  1  0
  4  3  1  0
  4  9  2  0
  5  4  1  0
  6  5  2  0
  6  7  1  0
  7  8  2  0
  8  9  1  0
  8 10  1  0
  9  1  1  0
 10 11  1  0
 10 14  1  0
 11 12  1  0
 12 13  1  0
 14 13  1  0
 15 16  1  0
 15 19  1  0
 15 14  1  0
 17 18  1  0
 17 16  1  0
 18 19  1  0
 20 25  2  0
 21 20  1  0
 22 21  2  0
 22 23  1  0
 23 24  2  0
 24 25  1  0
  2 26  1  0
  3 27  1  0
  5 28  1  0
  6 29  1  0
  7 30  1  0
 11 31  1  0
 11 32  1  0
 12 33  1  0
 12 34  1  0
 13 35  1  0
 13 36  1  0
 14 37  1  1
 15 38  1  0
 16 39  1  0
 16 40  1  0
 17 41  1  0
 17 42  1  0
 18 43  1  0
 18 44  1  0
 19 45  1  0
 19 46  1  0
 20 47  1  0
 21 48  1  0
 24 49  1  0
M  ISO  8  26  14  27   9  28  14  29  14  30  14  31  13  32  13  33  13
M  ISO  8  34  13  35  13  36  13  37  13  38  13  39  13  40  13  41  13
M  ISO  8  42  13  43  13  44  13  45  13  46  13  47  14  48  14  49  14
M  END
>  <minimizedAffinity>  (1) 
-5.84506178

>  <minimizedRMSD>  (1) 
0.299286336

$$$$
