
     RDKit          3D

 38 41  0  0  1  0  0  0  0  0999 V2000
   47.3050   34.9140   41.8780 C   0  0  0  0  0  0  0  0  0  0  0  0
   48.5340   35.5730   41.7680 C   0  0  0  0  0  0  0  0  0  0  0  0
   49.0210   35.3900   40.5330 N   0  0  0  0  0  0  0  0  0  0  0  0
   48.1370   34.6330   39.8570 C   0  0  0  0  0  0  0  0  0  0  0  0
   48.1710   34.1730   38.5590 C   0  0  0  0  0  0  0  0  0  0  0  0
   47.1290   33.4160   38.1100 C   0  0  0  0  0  0  0  0  0  0  0  0
   46.0150   33.0670   38.8800 C   0  0  0  0  0  0  0  0  0  0  0  0
   46.0550   33.5650   40.1690 C   0  0  0  0  0  0  0  0  0  0  0  0
   47.0510   34.3180   40.6730 C   0  0  0  0  0  0  0  0  0  0  0  0
   44.8920   33.1470   40.8980 N   0  0  0  0  0  0  0  0  0  0  0  0
   43.5150   33.5310   41.1210 C   0  0  0  0  0  0  0  0  0  0  0  0
   42.8550   32.3020   41.6970 C   0  0  0  0  0  0  0  0  0  0  0  0
   43.9650   31.8470   42.6250 C   0  0  0  0  0  0  0  0  0  0  0  0
   45.1480   31.9350   41.6780 C   0  0  1  0  0  0  0  0  0  0  0  0
   45.3100   30.7210   40.8940 C   0  0  0  0  0  0  0  0  0  0  0  0
   44.5000   30.1890   40.1210 O   0  0  0  0  0  0  0  0  0  0  0  0
   44.6260   35.7730   44.3210 C   0  0  0  0  0  0  0  0  0  0  0  0
   45.4250   35.8270   43.1820 C   0  0  0  0  0  0  0  0  0  0  0  0
   46.4630   34.8800   43.0490 C   0  0  0  0  0  0  0  0  0  0  0  0
   46.6130   33.9690   44.0590 N   0  0  0  0  0  0  0  0  0  0  0  0
   45.8230   33.9450   45.1450 C   0  0  0  0  0  0  0  0  0  0  0  0
   44.8300   34.8420   45.2810 N   0  0  0  0  0  0  0  0  0  0  0  0
   49.0226   36.1493   42.5675 H   0  0  0  0  0  0  0  0  0  0  0  0
   49.9097   35.7610   40.1677 H   0  0  0  0  0  0  0  0  0  0  0  0
   49.0189   34.4107   37.8998 H   0  0  0  0  0  0  0  0  0  0  0  0
   47.1675   33.0555   37.0715 H   0  0  0  0  0  0  0  0  0  0  0  0
   45.1857   32.4544   38.4965 H   0  0  0  0  0  0  0  0  0  0  0  0
   43.4575   34.3693   41.8309 H   0  0  0  0  0  0  0  0  0  0  0  0
   43.0250   33.8678   40.1956 H   0  0  0  0  0  0  0  0  0  0  0  0
   41.9339   32.5477   42.2457 H   0  0  0  0  0  0  0  0  0  0  0  0
   42.5199   31.5568   40.9605 H   0  0  0  0  0  0  0  0  0  0  0  0
   44.0799   32.5214   43.4864 H   0  0  0  0  0  0  0  0  0  0  0  0
   43.8106   30.8599   43.0851 H   0  0  0  0  0  0  0  0  0  0  0  0
   46.1170   32.0096   42.1932 H   0  0  0  0  0  0  0  0  0  0  0  0
   46.2772   30.2080   41.0008 H   0  0  0  0  0  0  0  0  0  0  0  0
   43.8119   36.5026   44.4428 H   0  0  0  0  0  0  0  0  0  0  0  0
   45.2518   36.5876   42.4064 H   0  0  0  0  0  0  0  0  0  0  0  0
   45.9888   33.1887   45.9264 H   0  0  0  0  0  0  0  0  0  0  0  0
  1 19  1  0
  2  1  2  0
  3  2  1  0
  4  3  1  0
  4  9  2  0
  5  4  1  0
  6  5  2  0
  6  7  1  0
  7  8  2  0
  8  9  1  0
  8 10  1  0
  9  1  1  0
 10 11  1  0
 10 14  1  0
 11 12  1  0
 12 13  1  0
 14 13  1  0
 15 14  1  0
 16 15  2  0
 17 22  2  0
 18 17  1  0
 19 18  2  0
 19 20  1  0
 20 21  2  0
 21 22  1  0
  2 23  1  0
  3 24  1  0
  5 25  1  0
  6 26  1  0
  7 27  1  0
 11 28  1  0
 11 29  1  0
 12 30  1  0
 12 31  1  0
 13 32  1  0
 13 33  1  0
 14 34  1  1
 15 35  1  0
 17 36  1  0
 18 37  1  0
 21 38  1  0
M  ISO  8  23  14  24   9  25  14  26  14  27  14  28  13  29  13  30  13
M  ISO  8  31  13  32  13  33  13  34  13  35   6  36  14  37  14  38  14
M  END
>  <minimizedAffinity>  (1) 
-5.79392433

>  <minimizedRMSD>  (1) 
0.261046886

$$$$
