
     RDKit          3D

 44 48  0  0  1  0  0  0  0  0999 V2000
   47.2710   34.9350   41.8880 C   0  0  0  0  0  0  0  0  0  0  0  0
   48.5050   35.5760   41.7900 C   0  0  0  0  0  0  0  0  0  0  0  0
   49.0070   35.3760   40.5620 N   0  0  0  0  0  0  0  0  0  0  0  0
   48.1270   34.6250   39.8790 C   0  0  0  0  0  0  0  0  0  0  0  0
   48.1760   34.1530   38.5860 C   0  0  0  0  0  0  0  0  0  0  0  0
   47.1340   33.4050   38.1330 C   0  0  0  0  0  0  0  0  0  0  0  0
   46.0130   33.0790   38.8860 C   0  0  0  0  0  0  0  0  0  0  0  0
   46.0340   33.5900   40.1730 C   0  0  0  0  0  0  0  0  0  0  0  0
   47.0250   34.3310   40.6820 C   0  0  0  0  0  0  0  0  0  0  0  0
   44.5810   35.8650   44.2960 C   0  0  0  0  0  0  0  0  0  0  0  0
   45.4000   35.8990   43.1630 C   0  0  0  0  0  0  0  0  0  0  0  0
   46.4200   34.9210   43.0400 C   0  0  0  0  0  0  0  0  0  0  0  0
   46.5040   34.0280   44.0550 N   0  0  0  0  0  0  0  0  0  0  0  0
   45.7160   34.0110   45.1260 C   0  0  0  0  0  0  0  0  0  0  0  0
   44.7530   34.9260   45.2530 N   0  0  0  0  0  0  0  0  0  0  0  0
   46.0470   32.9530   46.0210 N   0  0  0  0  0  0  0  0  0  0  0  0
   46.8690   31.8950   45.8120 C   0  0  0  0  0  0  0  0  0  0  0  0
   46.9130   31.1150   46.9190 N   0  0  0  0  0  0  0  0  0  0  0  0
   46.1030   31.7090   47.8230 C   0  0  0  0  0  0  0  0  0  0  0  0
   45.5860   32.8250   47.2540 N   0  0  0  0  0  0  0  0  0  0  0  0
   44.8410   33.1970   40.8860 N   0  0  0  0  0  0  0  0  0  0  0  0
   43.4800   33.6040   41.0920 C   0  0  0  0  0  0  0  0  0  0  0  0
   42.7830   32.3890   41.6560 C   0  0  0  0  0  0  0  0  0  0  0  0
   43.8810   31.8910   42.5930 C   0  0  0  0  0  0  0  0  0  0  0  0
   45.0670   31.9690   41.6680 C   0  0  1  0  0  0  0  0  0  0  0  0
   45.1970   30.7660   40.8470 C   0  0  0  0  0  0  0  0  0  0  0  0
   44.3580   30.2430   40.1100 O   0  0  0  0  0  0  0  0  0  0  0  0
   48.9896   36.1533   42.5912 H   0  0  0  0  0  0  0  0  0  0  0  0
   49.9052   35.7338   40.2069 H   0  0  0  0  0  0  0  0  0  0  0  0
   49.0355   34.3752   37.9365 H   0  0  0  0  0  0  0  0  0  0  0  0
   47.1824   33.0326   37.0991 H   0  0  0  0  0  0  0  0  0  0  0  0
   45.1841   32.4704   38.4955 H   0  0  0  0  0  0  0  0  0  0  0  0
   43.7840   36.6145   44.4103 H   0  0  0  0  0  0  0  0  0  0  0  0
   45.2568   36.6650   42.3866 H   0  0  0  0  0  0  0  0  0  0  0  0
   47.4195   31.6987   44.8801 H   0  0  0  0  0  0  0  0  0  0  0  0
   45.8990   31.3495   48.8424 H   0  0  0  0  0  0  0  0  0  0  0  0
   43.4315   34.4413   41.8038 H   0  0  0  0  0  0  0  0  0  0  0  0
   43.0098   33.9514   40.1602 H   0  0  0  0  0  0  0  0  0  0  0  0
   41.8662   32.6567   42.2017 H   0  0  0  0  0  0  0  0  0  0  0  0
   42.4319   31.6592   40.9116 H   0  0  0  0  0  0  0  0  0  0  0  0
   44.0009   32.5477   43.4673 H   0  0  0  0  0  0  0  0  0  0  0  0
   43.7006   30.8993   43.0335 H   0  0  0  0  0  0  0  0  0  0  0  0
   46.0254   32.0151   42.2058 H   0  0  0  0  0  0  0  0  0  0  0  0
   46.1728   30.2604   40.8929 H   0  0  0  0  0  0  0  0  0  0  0  0
  1 12  1  0
  2  1  2  0
  3  2  1  0
  4  3  1  0
  4  9  2  0
  5  4  1  0
  6  5  2  0
  6  7  1  0
  7  8  2  0
  8  9  1  0
  8 21  1  0
  9  1  1  0
 10 15  2  0
 11 10  1  0
 12 11  2  0
 12 13  1  0
 13 14  2  0
 14 15  1  0
 14 16  1  0
 16 20  1  0
 17 16  1  0
 17 18  2  0
 18 19  1  0
 20 19  2  0
 21 22  1  0
 21 25  1  0
 22 23  1  0
 23 24  1  0
 25 24  1  0
 26 25  1  0
 27 26  2  0
  2 28  1  0
  3 29  1  0
  5 30  1  0
  6 31  1  0
  7 32  1  0
 10 33  1  0
 11 34  1  0
 17 35  1  0
 19 36  1  0
 22 37  1  0
 22 38  1  0
 23 39  1  0
 23 40  1  0
 24 41  1  0
 24 42  1  0
 25 43  1  1
 26 44  1  0
M  ISO  8  28  14  29   9  30  14  31  14  32  14  33  14  34  14  35  14
M  ISO  8  36  14  37  13  38  13  39  13  40  13  41  13  42  13  43  13
M  ISO  1  44   6
M  END
>  <minimizedAffinity>  (1) 
-6.98441696

>  <minimizedRMSD>  (1) 
0.117946491

$$$$
