
     RDKit          3D

 45 49  0  0  1  0  0  0  0  0999 V2000
   47.2850   34.9310   41.8970 C   0  0  0  0  0  0  0  0  0  0  0  0
   48.5040   35.5880   41.7890 C   0  0  0  0  0  0  0  0  0  0  0  0
   49.0020   35.3990   40.5580 N   0  0  0  0  0  0  0  0  0  0  0  0
   48.1220   34.6350   39.8850 C   0  0  0  0  0  0  0  0  0  0  0  0
   48.1650   34.1630   38.5920 C   0  0  0  0  0  0  0  0  0  0  0  0
   47.1330   33.4000   38.1470 C   0  0  0  0  0  0  0  0  0  0  0  0
   46.0250   33.0580   38.9120 C   0  0  0  0  0  0  0  0  0  0  0  0
   46.0540   33.5650   40.1860 C   0  0  0  0  0  0  0  0  0  0  0  0
   47.0370   34.3260   40.6950 C   0  0  0  0  0  0  0  0  0  0  0  0
   44.8730   33.1580   40.9150 N   0  0  0  0  0  0  0  0  0  0  0  0
   43.5010   33.5600   41.1350 C   0  0  0  0  0  0  0  0  0  0  0  0
   42.8210   32.3400   41.6970 C   0  0  0  0  0  0  0  0  0  0  0  0
   43.9290   31.8490   42.6250 C   0  0  0  0  0  0  0  0  0  0  0  0
   45.1140   31.9350   41.7000 C   0  0  1  0  0  0  0  0  0  0  0  0
   45.2430   30.7350   40.8730 C   0  0  0  0  0  0  0  0  0  0  0  0
   44.4020   30.2040   40.1420 O   0  0  0  0  0  0  0  0  0  0  0  0
   44.6110   35.8370   44.3300 C   0  0  0  0  0  0  0  0  0  0  0  0
   45.4200   35.8760   43.2010 C   0  0  0  0  0  0  0  0  0  0  0  0
   46.4440   34.9010   43.0600 C   0  0  0  0  0  0  0  0  0  0  0  0
   46.5340   34.0050   44.0700 N   0  0  0  0  0  0  0  0  0  0  0  0
   45.7520   33.9780   45.1460 C   0  0  0  0  0  0  0  0  0  0  0  0
   44.7890   34.8910   45.2820 N   0  0  0  0  0  0  0  0  0  0  0  0
   46.0690   32.8940   46.0880 C   0  0  0  0  0  0  0  0  0  0  0  0
   46.9590   31.8620   45.8460 C   0  0  0  0  0  0  0  0  0  0  0  0
   47.1730   30.9120   46.7960 C   0  0  0  0  0  0  0  0  0  0  0  0
   46.4800   30.9830   48.0380 C   0  0  0  0  0  0  0  0  0  0  0  0
   45.4470   32.5300   47.8200 S   0  0  0  0  0  0  0  0  0  0  0  0
   48.9854   36.1716   42.5876 H   0  0  0  0  0  0  0  0  0  0  0  0
   49.8920   35.7695   40.1954 H   0  0  0  0  0  0  0  0  0  0  0  0
   49.0152   34.3984   37.9349 H   0  0  0  0  0  0  0  0  0  0  0  0
   47.1776   33.0284   37.1126 H   0  0  0  0  0  0  0  0  0  0  0  0
   45.2003   32.4377   38.5310 H   0  0  0  0  0  0  0  0  0  0  0  0
   43.4528   34.3935   41.8512 H   0  0  0  0  0  0  0  0  0  0  0  0
   43.0205   33.9106   40.2097 H   0  0  0  0  0  0  0  0  0  0  0  0
   41.9051   32.5970   42.2494 H   0  0  0  0  0  0  0  0  0  0  0  0
   42.4722   31.6097   40.9520 H   0  0  0  0  0  0  0  0  0  0  0  0
   44.0474   32.5051   43.4999 H   0  0  0  0  0  0  0  0  0  0  0  0
   43.7568   30.8537   43.0607 H   0  0  0  0  0  0  0  0  0  0  0  0
   46.0723   31.9873   42.2376 H   0  0  0  0  0  0  0  0  0  0  0  0
   46.2237   30.2380   40.9074 H   0  0  0  0  0  0  0  0  0  0  0  0
   43.8143   36.5856   44.4521 H   0  0  0  0  0  0  0  0  0  0  0  0
   45.2706   36.6471   42.4309 H   0  0  0  0  0  0  0  0  0  0  0  0
   47.4931   31.8100   44.8858 H   0  0  0  0  0  0  0  0  0  0  0  0
   47.8797   30.0909   46.6052 H   0  0  0  0  0  0  0  0  0  0  0  0
   46.5367   30.3046   48.9021 H   0  0  0  0  0  0  0  0  0  0  0  0
  1 19  1  0
  2  1  2  0
  3  2  1  0
  4  3  1  0
  4  9  2  0
  5  4  1  0
  6  5  2  0
  6  7  1  0
  7  8  2  0
  8  9  1  0
  8 10  1  0
  9  1  1  0
 10 11  1  0
 10 14  1  0
 11 12  1  0
 12 13  1  0
 14 13  1  0
 15 14  1  0
 16 15  2  0
 17 22  2  0
 18 17  1  0
 19 18  2  0
 19 20  1  0
 20 21  2  0
 21 22  1  0
 21 23  1  0
 23 27  1  0
 24 23  2  0
 24 25  1  0
 25 26  2  0
 27 26  1  0
  2 28  1  0
  3 29  1  0
  5 30  1  0
  6 31  1  0
  7 32  1  0
 11 33  1  0
 11 34  1  0
 12 35  1  0
 12 36  1  0
 13 37  1  0
 13 38  1  0
 14 39  1  1
 15 40  1  0
 17 41  1  0
 18 42  1  0
 24 43  1  0
 25 44  1  0
 26 45  1  0
M  ISO  8  28  14  29   9  30  14  31  14  32  14  33  13  34  13  35  13
M  ISO  8  36  13  37  13  38  13  39  13  40   6  41  14  42  14  43  14
M  ISO  2  44  14  45  14
M  END
>  <minimizedAffinity>  (1) 
-6.74217463

>  <minimizedRMSD>  (1) 
0.24712047

$$$$
