
     RDKit          3D

 43 47  0  0  1  0  0  0  0  0999 V2000
   47.2790   34.9410   41.8890 C   0  0  0  0  0  0  0  0  0  0  0  0
   48.5090   35.5920   41.7790 C   0  0  0  0  0  0  0  0  0  0  0  0
   49.0050   35.3920   40.5500 N   0  0  0  0  0  0  0  0  0  0  0  0
   48.1270   34.6320   39.8760 C   0  0  0  0  0  0  0  0  0  0  0  0
   48.1710   34.1530   38.5840 C   0  0  0  0  0  0  0  0  0  0  0  0
   47.1370   33.3950   38.1400 C   0  0  0  0  0  0  0  0  0  0  0  0
   46.0220   33.0610   38.8990 C   0  0  0  0  0  0  0  0  0  0  0  0
   46.0450   33.5770   40.1860 C   0  0  0  0  0  0  0  0  0  0  0  0
   47.0320   34.3310   40.6910 C   0  0  0  0  0  0  0  0  0  0  0  0
   44.8580   33.1750   40.9070 N   0  0  0  0  0  0  0  0  0  0  0  0
   43.4920   33.5690   41.1030 C   0  0  0  0  0  0  0  0  0  0  0  0
   42.8150   32.3470   41.6840 C   0  0  0  0  0  0  0  0  0  0  0  0
   43.9170   31.8880   42.6320 C   0  0  0  0  0  0  0  0  0  0  0  0
   45.1040   31.9700   41.7080 C   0  0  1  0  0  0  0  0  0  0  0  0
   45.2530   30.7490   40.9100 C   0  0  0  0  0  0  0  0  0  0  0  0
   44.4330   30.2150   40.1590 O   0  0  0  0  0  0  0  0  0  0  0  0
   44.5790   35.8330   44.2890 C   0  0  0  0  0  0  0  0  0  0  0  0
   45.3880   35.8720   43.1550 C   0  0  0  0  0  0  0  0  0  0  0  0
   46.4360   34.9210   43.0470 C   0  0  0  0  0  0  0  0  0  0  0  0
   46.5480   34.0530   44.0800 N   0  0  0  0  0  0  0  0  0  0  0  0
   45.7680   34.0280   45.1570 C   0  0  0  0  0  0  0  0  0  0  0  0
   44.7790   34.9200   45.2650 N   0  0  0  0  0  0  0  0  0  0  0  0
   46.1380   32.9770   46.0940 C   0  0  0  0  0  0  0  0  0  0  0  0
   45.4810   32.8350   47.2540 N   0  0  0  0  0  0  0  0  0  0  0  0
   45.9820   31.8520   47.9040 O   0  0  0  0  0  0  0  0  0  0  0  0
   46.9650   31.3000   47.2440 C   0  0  0  0  0  0  0  0  0  0  0  0
   47.0850   32.0020   46.0820 N   0  0  0  0  0  0  0  0  0  0  0  0
   48.9941   36.1764   42.5747 H   0  0  0  0  0  0  0  0  0  0  0  0
   49.8982   35.7556   40.1881 H   0  0  0  0  0  0  0  0  0  0  0  0
   49.0246   34.3801   37.9283 H   0  0  0  0  0  0  0  0  0  0  0  0
   47.1847   33.0187   37.1075 H   0  0  0  0  0  0  0  0  0  0  0  0
   45.1967   32.4439   38.5142 H   0  0  0  0  0  0  0  0  0  0  0  0
   43.4298   34.4155   41.8027 H   0  0  0  0  0  0  0  0  0  0  0  0
   43.0178   33.9001   40.1673 H   0  0  0  0  0  0  0  0  0  0  0  0
   41.8903   32.6047   42.2212 H   0  0  0  0  0  0  0  0  0  0  0  0
   42.4818   31.5984   40.9501 H   0  0  0  0  0  0  0  0  0  0  0  0
   44.0224   32.5635   43.4937 H   0  0  0  0  0  0  0  0  0  0  0  0
   43.7534   30.9020   43.0915 H   0  0  0  0  0  0  0  0  0  0  0  0
   46.0623   32.0443   42.2429 H   0  0  0  0  0  0  0  0  0  0  0  0
   46.2255   30.2416   40.9920 H   0  0  0  0  0  0  0  0  0  0  0  0
   43.7605   36.5606   44.3918 H   0  0  0  0  0  0  0  0  0  0  0  0
   45.2190   36.6191   42.3655 H   0  0  0  0  0  0  0  0  0  0  0  0
   47.5738   30.4409   47.5623 H   0  0  0  0  0  0  0  0  0  0  0  0
  1 19  1  0
  2  1  2  0
  3  2  1  0
  4  3  1  0
  4  9  2  0
  5  4  1  0
  6  5  2  0
  6  7  1  0
  7  8  2  0
  8  9  1  0
  8 10  1  0
  9  1  1  0
 10 11  1  0
 10 14  1  0
 11 12  1  0
 12 13  1  0
 14 13  1  0
 15 14  1  0
 16 15  2  0
 17 22  2  0
 18 17  1  0
 19 18  2  0
 19 20  1  0
 20 21  2  0
 21 22  1  0
 21 23  1  0
 23 24  2  0
 24 25  1  0
 26 25  1  0
 27 23  1  0
 27 26  2  0
  2 28  1  0
  3 29  1  0
  5 30  1  0
  6 31  1  0
  7 32  1  0
 11 33  1  0
 11 34  1  0
 12 35  1  0
 12 36  1  0
 13 37  1  0
 13 38  1  0
 14 39  1  1
 15 40  1  0
 17 41  1  0
 18 42  1  0
 26 43  1  0
M  ISO  8  28  14  29   9  30  14  31  14  32  14  33  13  34  13  35  13
M  ISO  8  36  13  37  13  38  13  39  13  40   6  41  14  42  14  43  14
M  END
>  <minimizedAffinity>  (1) 
-6.68544531

>  <minimizedRMSD>  (1) 
0.171644986

$$$$
