
     RDKit          3D

 41 44  0  0  1  0  0  0  0  0999 V2000
   47.3380   34.9020   41.8340 C   0  0  0  0  0  0  0  0  0  0  0  0
   48.5440   35.5890   41.7100 C   0  0  0  0  0  0  0  0  0  0  0  0
   49.0050   35.4140   40.4630 N   0  0  0  0  0  0  0  0  0  0  0  0
   48.1230   34.6360   39.8010 C   0  0  0  0  0  0  0  0  0  0  0  0
   48.1380   34.1740   38.5040 C   0  0  0  0  0  0  0  0  0  0  0  0
   47.1120   33.3970   38.0830 C   0  0  0  0  0  0  0  0  0  0  0  0
   46.0280   33.0280   38.8760 C   0  0  0  0  0  0  0  0  0  0  0  0
   46.0810   33.5300   40.1690 C   0  0  0  0  0  0  0  0  0  0  0  0
   47.0660   34.3010   40.6420 C   0  0  0  0  0  0  0  0  0  0  0  0
   44.9270   33.0880   40.9200 N   0  0  0  0  0  0  0  0  0  0  0  0
   43.5480   33.4180   41.1340 C   0  0  0  0  0  0  0  0  0  0  0  0
   42.9410   32.1880   41.7630 C   0  0  0  0  0  0  0  0  0  0  0  0
   44.0870   31.7990   42.6950 C   0  0  0  0  0  0  0  0  0  0  0  0
   45.2500   31.9110   41.7460 C   0  0  1  0  0  0  0  0  0  0  0  0
   45.4430   30.6900   40.9680 C   0  0  0  0  0  0  0  0  0  0  0  0
   44.6480   30.1160   40.2190 O   0  0  0  0  0  0  0  0  0  0  0  0
   44.6520   35.6630   44.3160 C   0  0  0  0  0  0  0  0  0  0  0  0
   45.4210   35.7350   43.1570 C   0  0  0  0  0  0  0  0  0  0  0  0
   46.5250   34.8500   43.0300 C   0  0  0  0  0  0  0  0  0  0  0  0
   46.7260   34.0070   44.0710 N   0  0  0  0  0  0  0  0  0  0  0  0
   45.9790   33.9560   45.1700 C   0  0  0  0  0  0  0  0  0  0  0  0
   44.9390   34.7830   45.2970 N   0  0  0  0  0  0  0  0  0  0  0  0
   46.2940   33.0060   46.2220 C   0  0  0  0  0  0  0  0  0  0  0  0
   45.8110   31.8440   46.2250 O   0  0  0  0  0  0  0  0  0  0  0  0
   47.1370   33.3300   47.2700 O   0  0  0  0  0  0  0  0  0  0  0  0
   49.0346   36.1754   42.5009 H   0  0  0  0  0  0  0  0  0  0  0  0
   49.8774   35.8041   40.0786 H   0  0  0  0  0  0  0  0  0  0  0  0
   48.9647   34.4303   37.8252 H   0  0  0  0  0  0  0  0  0  0  0  0
   47.1362   33.0329   37.0453 H   0  0  0  0  0  0  0  0  0  0  0  0
   45.2049   32.3963   38.5108 H   0  0  0  0  0  0  0  0  0  0  0  0
   43.4581   34.2813   41.8097 H   0  0  0  0  0  0  0  0  0  0  0  0
   43.0409   33.6944   40.1978 H   0  0  0  0  0  0  0  0  0  0  0  0
   42.0203   32.4212   42.3179 H   0  0  0  0  0  0  0  0  0  0  0  0
   42.6219   31.4068   41.0574 H   0  0  0  0  0  0  0  0  0  0  0  0
   44.1810   32.4979   43.5392 H   0  0  0  0  0  0  0  0  0  0  0  0
   43.9771   30.8164   43.1771 H   0  0  0  0  0  0  0  0  0  0  0  0
   46.2123   32.0361   42.2639 H   0  0  0  0  0  0  0  0  0  0  0  0
   46.4319   30.2178   41.0627 H   0  0  0  0  0  0  0  0  0  0  0  0
   43.7919   36.3385   44.4339 H   0  0  0  0  0  0  0  0  0  0  0  0
   45.1803   36.4567   42.3625 H   0  0  0  0  0  0  0  0  0  0  0  0
   47.3330   32.6608   47.9727 H   0  0  0  0  0  0  0  0  0  0  0  0
  1 19  1  0
  2  1  2  0
  3  2  1  0
  4  3  1  0
  4  9  2  0
  5  4  1  0
  6  5  2  0
  6  7  1  0
  7  8  2  0
  8  9  1  0
  8 10  1  0
  9  1  1  0
 10 11  1  0
 10 14  1  0
 11 12  1  0
 12 13  1  0
 14 13  1  0
 15 14  1  0
 16 15  2  0
 17 22  2  0
 18 17  1  0
 19 18  2  0
 19 20  1  0
 20 21  2  0
 21 22  1  0
 21 23  1  0
 23 24  2  0
 23 25  1  0
  2 26  1  0
  3 27  1  0
  5 28  1  0
  6 29  1  0
  7 30  1  0
 11 31  1  0
 11 32  1  0
 12 33  1  0
 12 34  1  0
 13 35  1  0
 13 36  1  0
 14 37  1  1
 15 38  1  0
 17 39  1  0
 18 40  1  0
 25 41  1  0
M  ISO  8  26  14  27   9  28  14  29  14  30  14  31  13  32  13  33  13
M  ISO  8  34  13  35  13  36  13  37  13  38   6  39  14  40  14  41   3
M  END
>  <minimizedAffinity>  (1) 
-6.66495085

>  <minimizedRMSD>  (1) 
0.222145781

$$$$
