
     RDKit          3D

 41 44  0  0  1  0  0  0  0  0999 V2000
   47.2830   34.9400   41.8810 C   0  0  0  0  0  0  0  0  0  0  0  0
   48.5120   35.5910   41.7700 C   0  0  0  0  0  0  0  0  0  0  0  0
   49.0070   35.3930   40.5420 N   0  0  0  0  0  0  0  0  0  0  0  0
   48.1290   34.6330   39.8700 C   0  0  0  0  0  0  0  0  0  0  0  0
   48.1740   34.1580   38.5810 C   0  0  0  0  0  0  0  0  0  0  0  0
   47.1450   33.4000   38.1250 C   0  0  0  0  0  0  0  0  0  0  0  0
   46.0240   33.0640   38.8910 C   0  0  0  0  0  0  0  0  0  0  0  0
   46.0470   33.5770   40.1790 C   0  0  0  0  0  0  0  0  0  0  0  0
   47.0340   34.3290   40.6780 C   0  0  0  0  0  0  0  0  0  0  0  0
   44.8660   33.1720   40.9000 N   0  0  0  0  0  0  0  0  0  0  0  0
   43.4940   33.5550   41.1000 C   0  0  0  0  0  0  0  0  0  0  0  0
   42.8310   32.3360   41.6850 C   0  0  0  0  0  0  0  0  0  0  0  0
   43.9390   31.8810   42.6320 C   0  0  0  0  0  0  0  0  0  0  0  0
   45.1200   31.9680   41.7000 C   0  0  1  0  0  0  0  0  0  0  0  0
   45.2770   30.7470   40.9100 C   0  0  0  0  0  0  0  0  0  0  0  0
   44.4650   30.2180   40.1460 O   0  0  0  0  0  0  0  0  0  0  0  0
   44.5840   35.8310   44.2900 C   0  0  0  0  0  0  0  0  0  0  0  0
   45.3910   35.8700   43.1560 C   0  0  0  0  0  0  0  0  0  0  0  0
   46.4400   34.9220   43.0390 C   0  0  0  0  0  0  0  0  0  0  0  0
   46.5580   34.0500   44.0670 N   0  0  0  0  0  0  0  0  0  0  0  0
   45.7800   34.0230   45.1450 C   0  0  0  0  0  0  0  0  0  0  0  0
   44.7880   34.9130   45.2620 N   0  0  0  0  0  0  0  0  0  0  0  0
   46.0860   32.9710   46.1640 C   0  0  0  0  0  0  0  0  0  0  0  0
   48.9976   36.1748   42.5659 H   0  0  0  0  0  0  0  0  0  0  0  0
   49.8993   35.7577   40.1792 H   0  0  0  0  0  0  0  0  0  0  0  0
   49.0300   34.3885   37.9298 H   0  0  0  0  0  0  0  0  0  0  0  0
   47.1955   33.0276   37.0912 H   0  0  0  0  0  0  0  0  0  0  0  0
   45.1980   32.4479   38.5061 H   0  0  0  0  0  0  0  0  0  0  0  0
   43.4270   34.4036   41.7968 H   0  0  0  0  0  0  0  0  0  0  0  0
   43.0142   33.8776   40.1642 H   0  0  0  0  0  0  0  0  0  0  0  0
   41.9072   32.5901   42.2254 H   0  0  0  0  0  0  0  0  0  0  0  0
   42.5008   31.5842   40.9530 H   0  0  0  0  0  0  0  0  0  0  0  0
   44.0457   32.5576   43.4927 H   0  0  0  0  0  0  0  0  0  0  0  0
   43.7816   30.8957   43.0950 H   0  0  0  0  0  0  0  0  0  0  0  0
   46.0814   32.0496   42.2282 H   0  0  0  0  0  0  0  0  0  0  0  0
   46.2447   30.2336   41.0099 H   0  0  0  0  0  0  0  0  0  0  0  0
   43.7666   36.5593   44.3971 H   0  0  0  0  0  0  0  0  0  0  0  0
   45.2191   36.6188   42.3688 H   0  0  0  0  0  0  0  0  0  0  0  0
   45.9637   33.3914   47.1731 H   0  0  0  0  0  0  0  0  0  0  0  0
   45.3972   32.1232   46.0340 H   0  0  0  0  0  0  0  0  0  0  0  0
   47.1220   32.6249   46.0340 H   0  0  0  0  0  0  0  0  0  0  0  0
  1 19  1  0
  2  1  2  0
  3  2  1  0
  4  3  1  0
  4  9  2  0
  5  4  1  0
  6  5  2  0
  6  7  1  0
  7  8  2  0
  8  9  1  0
  8 10  1  0
  9  1  1  0
 10 11  1  0
 10 14  1  0
 11 12  1  0
 12 13  1  0
 14 13  1  0
 15 14  1  0
 16 15  2  0
 17 22  2  0
 18 17  1  0
 19 18  2  0
 19 20  1  0
 20 21  2  0
 21 22  1  0
 21 23  1  0
  2 24  1  0
  3 25  1  0
  5 26  1  0
  6 27  1  0
  7 28  1  0
 11 29  1  0
 11 30  1  0
 12 31  1  0
 12 32  1  0
 13 33  1  0
 13 34  1  0
 14 35  1  1
 15 36  1  0
 17 37  1  0
 18 38  1  0
 23 39  1  0
 23 40  1  0
 23 41  1  0
M  ISO  8  24  14  25   9  26  14  27  14  28  14  29  13  30  13  31  13
M  ISO  8  32  13  33  13  34  13  35  13  36   6  37  14  38  14  39   8
M  ISO  2  40   8  41   8
M  END
>  <minimizedAffinity>  (1) 
-6.11854553

>  <minimizedRMSD>  (1) 
0.0522281751

$$$$
