
     RDKit          3D

 30 32  0  0  1  0  0  0  0  0999 V2000
   46.3140   35.2210   42.2590 C   0  0  1  0  0  0  0  0  0  0  0  0
   45.5390   34.5180   41.2590 N   0  0  0  0  0  0  0  0  0  0  0  0
   45.9840   33.5480   40.4230 C   0  0  0  0  0  0  0  0  0  0  0  0
   45.0120   33.0950   39.6070 N   0  0  0  0  0  0  0  0  0  0  0  0
   43.9190   33.8030   39.9430 C   0  0  0  0  0  0  0  0  0  0  0  0
   42.6090   33.7840   39.4530 C   0  0  0  0  0  0  0  0  0  0  0  0
   42.2430   33.0210   38.5380 O   0  0  0  0  0  0  0  0  0  0  0  0
   41.6790   34.6260   39.9850 N   0  0  0  0  0  0  0  0  0  0  0  0
   42.0020   35.4880   40.9870 C   0  0  0  0  0  0  0  0  0  0  0  0
   40.9730   36.3510   41.5040 N   0  0  0  0  0  0  0  0  0  0  0  0
   43.2730   35.5010   41.4560 N   0  0  0  0  0  0  0  0  0  0  0  0
   44.2210   34.6860   40.9590 C   0  0  0  0  0  0  0  0  0  0  0  0
   45.2140   35.0110   44.4420 C   0  0  0  0  0  0  0  0  0  0  0  0
   46.2000   34.5590   43.5580 C   0  0  0  0  0  0  0  0  0  0  0  0
   47.0150   33.4950   43.9800 C   0  0  0  0  0  0  0  0  0  0  0  0
   46.7900   32.9790   45.2140 N   0  0  0  0  0  0  0  0  0  0  0  0
   45.8380   33.4410   46.0260 C   0  0  0  0  0  0  0  0  0  0  0  0
   45.0540   34.4450   45.6520 N   0  0  0  0  0  0  0  0  0  0  0  0
   47.7670   35.1770   41.8430 C   0  0  0  0  0  0  0  0  0  0  0  0
   45.9432   36.2533   42.3420 H   0  0  0  0  0  0  0  0  0  0  0  0
   47.0185   33.1741   40.4120 H   0  0  0  0  0  0  0  0  0  0  0  0
   40.7151   34.6096   39.6224 H   0  0  0  0  0  0  0  0  0  0  0  0
   41.1894   37.0134   42.2625 H   0  0  0  0  0  0  0  0  0  0  0  0
   40.0201   36.3063   41.1155 H   0  0  0  0  0  0  0  0  0  0  0  0
   44.5591   35.8426   44.1428 H   0  0  0  0  0  0  0  0  0  0  0  0
   47.8083   33.0943   43.3318 H   0  0  0  0  0  0  0  0  0  0  0  0
   45.7008   32.9847   47.0174 H   0  0  0  0  0  0  0  0  0  0  0  0
   48.4046   35.1577   42.7392 H   0  0  0  0  0  0  0  0  0  0  0  0
   47.9496   34.2729   41.2436 H   0  0  0  0  0  0  0  0  0  0  0  0
   48.0039   36.0684   41.2436 H   0  0  0  0  0  0  0  0  0  0  0  0
  1 14  1  0
  2  1  1  0
  3  2  1  0
  4  5  1  0
  4  3  2  0
  5 12  2  0
  6  5  1  0
  6  8  1  0
  7  6  2  0
  8  9  1  0
  9 11  2  0
  9 10  1  0
 12  2  1  0
 12 11  1  0
 13 18  2  0
 14 15  2  0
 14 13  1  0
 15 16  1  0
 16 17  2  0
 18 17  1  0
 19  1  1  0
  1 20  1  1
  3 21  1  0
  8 22  1  0
 10 23  1  0
 10 24  1  0
 13 25  1  0
 15 26  1  0
 17 27  1  0
 19 28  1  0
 19 29  1  0
 19 30  1  0
M  ISO  8  20   8  21  14  22   9  25  14  26  14  27  14  28   8  29   8
M  ISO  1  30   8
M  END
>  <minimizedAffinity>  (1) 
-5.439188

>  <minimizedRMSD>  (1) 
1.40917504

$$$$
