
     RDKit          3D

 50 53  0  0  1  0  0  0  0  0999 V2000
   47.3010   34.8280   41.9770 C   0  0  0  0  0  0  0  0  0  0  0  0
   48.5440   35.4580   41.8970 C   0  0  0  0  0  0  0  0  0  0  0  0
   49.0210   35.3020   40.6530 N   0  0  0  0  0  0  0  0  0  0  0  0
   48.1200   34.5970   39.9550 C   0  0  0  0  0  0  0  0  0  0  0  0
   48.1320   34.1750   38.6440 C   0  0  0  0  0  0  0  0  0  0  0  0
   47.0810   33.4650   38.1670 C   0  0  0  0  0  0  0  0  0  0  0  0
   45.9630   33.1230   38.9310 C   0  0  0  0  0  0  0  0  0  0  0  0
   46.0160   33.5740   40.2280 C   0  0  0  0  0  0  0  0  0  0  0  0
   47.0270   34.2820   40.7570 C   0  0  0  0  0  0  0  0  0  0  0  0
   44.8300   33.1700   40.9460 N   0  0  0  0  0  0  0  0  0  0  0  0
   43.4790   33.5870   41.2140 C   0  0  0  0  0  0  0  0  0  0  0  0
   42.7680   32.3640   41.7160 C   0  0  0  0  0  0  0  0  0  0  0  0
   43.8740   31.7950   42.5970 C   0  0  0  0  0  0  0  0  0  0  0  0
   45.0440   31.8970   41.6550 C   0  0  1  0  0  0  0  0  0  0  0  0
   45.1330   30.7350   40.7720 C   0  0  0  0  0  0  0  0  0  0  0  0
   44.2660   30.2640   40.0310 O   0  0  0  0  0  0  0  0  0  0  0  0
   44.6560   35.6850   44.4720 C   0  0  0  0  0  0  0  0  0  0  0  0
   45.4530   35.7480   43.3430 C   0  0  0  0  0  0  0  0  0  0  0  0
   46.4650   34.7740   43.1500 C   0  0  0  0  0  0  0  0  0  0  0  0
   46.5590   33.8400   44.1270 N   0  0  0  0  0  0  0  0  0  0  0  0
   45.7920   33.7790   45.2130 C   0  0  0  0  0  0  0  0  0  0  0  0
   44.8410   34.7000   45.3890 N   0  0  0  0  0  0  0  0  0  0  0  0
   46.0030   32.6830   46.2270 C   0  0  0  0  0  0  0  0  0  0  0  0
   47.4010   32.8250   46.7640 C   0  0  0  0  0  0  0  0  0  0  0  0
   45.0280   32.9500   47.3610 C   0  0  0  0  0  0  0  0  0  0  0  0
   45.7540   31.3150   45.6340 C   0  0  0  0  0  0  0  0  0  0  0  0
   49.0476   35.9924   42.7161 H   0  0  0  0  0  0  0  0  0  0  0  0
   49.9191   35.6600   40.2978 H   0  0  0  0  0  0  0  0  0  0  0  0
   48.9853   34.4117   37.9914 H   0  0  0  0  0  0  0  0  0  0  0  0
   47.1101   33.1390   37.1168 H   0  0  0  0  0  0  0  0  0  0  0  0
   45.1169   32.5451   38.5309 H   0  0  0  0  0  0  0  0  0  0  0  0
   43.4664   34.3785   41.9778 H   0  0  0  0  0  0  0  0  0  0  0  0
   42.9952   33.9976   40.3155 H   0  0  0  0  0  0  0  0  0  0  0  0
   41.8680   32.6179   42.2952 H   0  0  0  0  0  0  0  0  0  0  0  0
   42.3838   31.6862   40.9395 H   0  0  0  0  0  0  0  0  0  0  0  0
   44.0259   32.4009   43.5024 H   0  0  0  0  0  0  0  0  0  0  0  0
   43.6807   30.7840   42.9849 H   0  0  0  0  0  0  0  0  0  0  0  0
   46.0145   31.8949   42.1728 H   0  0  0  0  0  0  0  0  0  0  0  0
   46.1005   30.2116   40.7677 H   0  0  0  0  0  0  0  0  0  0  0  0
   43.8682   36.4366   44.6280 H   0  0  0  0  0  0  0  0  0  0  0  0
   45.3029   36.5467   42.6016 H   0  0  0  0  0  0  0  0  0  0  0  0
   47.3734   32.8222   47.8637 H   0  0  0  0  0  0  0  0  0  0  0  0
   48.0167   31.9848   46.4105 H   0  0  0  0  0  0  0  0  0  0  0  0
   47.8352   33.7719   46.4105 H   0  0  0  0  0  0  0  0  0  0  0  0
   45.5393   32.8100   48.3248 H   0  0  0  0  0  0  0  0  0  0  0  0
   44.6566   33.9829   47.2896 H   0  0  0  0  0  0  0  0  0  0  0  0
   44.1821   32.2504   47.2896 H   0  0  0  0  0  0  0  0  0  0  0  0
   45.6207   30.5829   46.4441 H   0  0  0  0  0  0  0  0  0  0  0  0
   44.8464   31.3441   45.0132 H   0  0  0  0  0  0  0  0  0  0  0  0
   46.6137   31.0225   45.0132 H   0  0  0  0  0  0  0  0  0  0  0  0
  1 19  1  0
  2  1  2  0
  3  2  1  0
  4  3  1  0
  4  9  2  0
  5  4  1  0
  6  5  2  0
  6  7  1  0
  7  8  2  0
  8  9  1  0
  8 10  1  0
  9  1  1  0
 10 11  1  0
 10 14  1  0
 11 12  1  0
 12 13  1  0
 14 13  1  0
 15 14  1  0
 16 15  2  0
 17 22  2  0
 18 17  1  0
 19 18  2  0
 19 20  1  0
 20 21  2  0
 21 22  1  0
 21 23  1  0
 23 24  1  0
 23 25  1  0
 26 23  1  0
  2 27  1  0
  3 28  1  0
  5 29  1  0
  6 30  1  0
  7 31  1  0
 11 32  1  0
 11 33  1  0
 12 34  1  0
 12 35  1  0
 13 36  1  0
 13 37  1  0
 14 38  1  1
 15 39  1  0
 17 40  1  0
 18 41  1  0
 24 42  1  0
 24 43  1  0
 24 44  1  0
 25 45  1  0
 25 46  1  0
 25 47  1  0
 26 48  1  0
 26 49  1  0
 26 50  1  0
M  ISO  8  27  14  28   9  29  14  30  14  31  14  32  13  33  13  34  13
M  ISO  8  35  13  36  13  37  13  38  13  39   6  40  14  41  14  42   8
M  ISO  8  43   8  44   8  45   8  46   8  47   8  48   8  49   8  50   8
M  END
>  <minimizedAffinity>  (1) 
-5.76252747

>  <minimizedRMSD>  (1) 
0.212845162

$$$$
