
     RDKit          3D

 38 40  0  0  1  0  0  0  0  0999 V2000
   46.3290   32.7300   44.5710 C   0  0  1  0  0  0  0  0  0  0  0  0
   44.8630   33.6270   42.8270 C   0  0  0  0  0  0  0  0  0  0  0  0
   45.4370   33.8020   44.0950 C   0  0  0  0  0  0  0  0  0  0  0  0
   45.1220   34.9470   44.7930 C   0  0  0  0  0  0  0  0  0  0  0  0
   44.2800   35.8300   44.2160 N   0  0  0  0  0  0  0  0  0  0  0  0
   43.7360   35.6540   43.0020 C   0  0  0  0  0  0  0  0  0  0  0  0
   44.0310   34.5520   42.3140 N   0  0  0  0  0  0  0  0  0  0  0  0
   47.5830   32.7770   43.7790 C   0  0  0  0  0  0  0  0  0  0  0  0
   48.3210   31.7830   43.1510 C   0  0  0  0  0  0  0  0  0  0  0  0
   49.4100   32.3460   42.5620 N   0  0  0  0  0  0  0  0  0  0  0  0
   49.3800   33.6640   42.8020 C   0  0  0  0  0  0  0  0  0  0  0  0
   48.2780   33.9220   43.5360 N   0  0  0  0  0  0  0  0  0  0  0  0
   46.6410   33.0000   46.0200 C   0  0  0  0  0  0  0  0  0  0  0  0
   45.6780   32.3290   46.9190 N   0  0  0  0  0  0  0  0  0  0  0  0
   45.7630   30.9410   46.5160 C   0  0  0  0  0  0  0  0  0  0  0  0
   45.0710   29.9750   47.4250 C   0  0  0  0  0  0  0  0  0  0  0  0
   45.3450   30.2210   48.8840 C   0  0  0  0  0  0  0  0  0  0  0  0
   45.4900   31.6740   49.2170 C   0  0  0  0  0  0  0  0  0  0  0  0
   46.2840   32.4740   48.2430 C   0  0  0  0  0  0  0  0  0  0  0  0
   45.8585   31.7419   44.4604 H   0  0  0  0  0  0  0  0  0  0  0  0
   45.0957   32.7230   42.2451 H   0  0  0  0  0  0  0  0  0  0  0  0
   45.5442   35.1361   45.7910 H   0  0  0  0  0  0  0  0  0  0  0  0
   43.0560   36.4091   42.5808 H   0  0  0  0  0  0  0  0  0  0  0  0
   48.0662   30.7131   43.1327 H   0  0  0  0  0  0  0  0  0  0  0  0
   50.1207   34.4026   42.4617 H   0  0  0  0  0  0  0  0  0  0  0  0
   48.0005   34.8570   43.8671 H   0  0  0  0  0  0  0  0  0  0  0  0
   47.6532   32.6308   46.2419 H   0  0  0  0  0  0  0  0  0  0  0  0
   46.5719   34.0846   46.1902 H   0  0  0  0  0  0  0  0  0  0  0  0
   45.3157   30.8482   45.5153 H   0  0  0  0  0  0  0  0  0  0  0  0
   46.8307   30.6779   46.5433 H   0  0  0  0  0  0  0  0  0  0  0  0
   43.9869   30.0539   47.2563 H   0  0  0  0  0  0  0  0  0  0  0  0
   45.4587   28.9733   47.1877 H   0  0  0  0  0  0  0  0  0  0  0  0
   44.5113   29.8086   49.4713 H   0  0  0  0  0  0  0  0  0  0  0  0
   46.3002   29.7319   49.1257 H   0  0  0  0  0  0  0  0  0  0  0  0
   44.4825   32.1116   49.2749 H   0  0  0  0  0  0  0  0  0  0  0  0
   46.0433   31.7147   50.1668 H   0  0  0  0  0  0  0  0  0  0  0  0
   47.3205   32.1065   48.2188 H   0  0  0  0  0  0  0  0  0  0  0  0
   46.2893   33.5329   48.5409 H   0  0  0  0  0  0  0  0  0  0  0  0
  1 13  1  0
  2  3  2  0
  3  1  1  0
  3  4  1  0
  5  4  2  0
  6  5  1  0
  7  2  1  0
  7  6  2  0
  8  1  1  0
  9  8  2  0
 10 11  2  0
 10  9  1  0
 11 12  1  0
 12  8  1  0
 13 14  1  0
 14 19  1  0
 15 14  1  0
 15 16  1  0
 16 17  1  0
 17 18  1  0
 19 18  1  0
  1 20  1  1
  2 21  1  0
  4 22  1  0
  6 23  1  0
  9 24  1  0
 11 25  1  0
 12 26  1  0
 13 27  1  0
 13 28  1  0
 15 29  1  0
 15 30  1  0
 16 31  1  0
 16 32  1  0
 17 33  1  0
 17 34  1  0
 18 35  1  0
 18 36  1  0
 19 37  1  0
 19 38  1  0
M  ISO  8  20   8  21  14  22  14  23  14  24  14  25  14  26   9  27   8
M  ISO  8  28   8  29  13  30  13  31  13  32  13  33  13  34  13  35  13
M  ISO  3  36  13  37  13  38  13
M  END
>  <minimizedAffinity>  (1) 
-4.86777353

>  <minimizedRMSD>  (1) 
3.6058681

$$$$
