
     RDKit          3D

 29 31  0  0  1  0  0  0  0  0999 V2000
   45.2440   34.8440   42.1200 C   0  0  1  0  0  0  0  0  0  0  0  0
   43.3190   35.4230   40.7390 C   0  0  0  0  0  0  0  0  0  0  0  0
   43.9720   34.4370   41.4950 C   0  0  0  0  0  0  0  0  0  0  0  0
   43.3900   33.1900   41.5920 C   0  0  0  0  0  0  0  0  0  0  0  0
   42.2220   33.0150   40.9410 N   0  0  0  0  0  0  0  0  0  0  0  0
   41.5940   33.9440   40.2210 C   0  0  0  0  0  0  0  0  0  0  0  0
   42.1440   35.1530   40.1180 N   0  0  0  0  0  0  0  0  0  0  0  0
   45.0760   34.8780   43.5730 C   0  0  0  0  0  0  0  0  0  0  0  0
   44.4650   35.7950   44.4220 C   0  0  0  0  0  0  0  0  0  0  0  0
   44.6050   35.3510   45.7160 N   0  0  0  0  0  0  0  0  0  0  0  0
   45.2800   34.1920   45.6940 C   0  0  0  0  0  0  0  0  0  0  0  0
   45.5590   33.9160   44.4030 N   0  0  0  0  0  0  0  0  0  0  0  0
   46.2920   33.8310   41.7220 C   0  0  0  0  0  0  0  0  0  0  0  0
   47.6420   34.3720   41.9480 N   0  0  0  0  0  0  0  0  0  0  0  0
   48.2260   35.3400   41.1920 C   0  0  0  0  0  0  0  0  0  0  0  0
   49.4590   35.5920   41.6790 N   0  0  0  0  0  0  0  0  0  0  0  0
   49.6270   34.7760   42.7340 C   0  0  0  0  0  0  0  0  0  0  0  0
   48.5180   34.0280   42.9010 N   0  0  0  0  0  0  0  0  0  0  0  0
   45.5522   35.8464   41.7879 H   0  0  0  0  0  0  0  0  0  0  0  0
   43.7647   36.4246   40.6493 H   0  0  0  0  0  0  0  0  0  0  0  0
   43.8554   32.3790   42.1714 H   0  0  0  0  0  0  0  0  0  0  0  0
   40.6405   33.7171   39.7217 H   0  0  0  0  0  0  0  0  0  0  0  0
   43.9559   36.7191   44.1109 H   0  0  0  0  0  0  0  0  0  0  0  0
   45.5549   33.5805   46.5660 H   0  0  0  0  0  0  0  0  0  0  0  0
   46.0732   33.0816   44.0864 H   0  0  0  0  0  0  0  0  0  0  0  0
   46.1734   33.5868   40.6560 H   0  0  0  0  0  0  0  0  0  0  0  0
   46.1636   32.9262   42.3342 H   0  0  0  0  0  0  0  0  0  0  0  0
   47.7676   35.8369   40.3243 H   0  0  0  0  0  0  0  0  0  0  0  0
   50.5283   34.7264   43.3626 H   0  0  0  0  0  0  0  0  0  0  0  0
  1  8  1  0
  2  3  2  0
  3  4  1  0
  3  1  1  0
  5  4  2  0
  6  5  1  0
  7  6  2  0
  7  2  1  0
  8 12  1  0
  8  9  2  0
  9 10  1  0
 11 10  2  0
 12 11  1  0
 13 14  1  0
 13  1  1  0
 14 18  1  0
 15 16  2  0
 15 14  1  0
 16 17  1  0
 17 18  2  0
  1 19  1  6
  2 20  1  0
  4 21  1  0
  6 22  1  0
  9 23  1  0
 11 24  1  0
 12 25  1  0
 13 26  1  0
 13 27  1  0
 15 28  1  0
 17 29  1  0
M  ISO  8  19   8  20  14  21  14  22  14  23  14  24  14  25   9  26   8
M  ISO  3  27   8  28  14  29  14
M  END
>  <minimizedAffinity>  (1) 
-4.78453445

>  <minimizedRMSD>  (1) 
5.7855258

$$$$
