
     RDKit          3D

 32 34  0  0  1  0  0  0  0  0999 V2000
   46.3040   32.9620   44.3330 C   0  0  1  0  0  0  0  0  0  0  0  0
   44.7390   33.3430   42.4860 C   0  0  0  0  0  0  0  0  0  0  0  0
   45.3320   33.8440   43.6640 C   0  0  0  0  0  0  0  0  0  0  0  0
   44.9590   35.1000   44.0850 C   0  0  0  0  0  0  0  0  0  0  0  0
   44.0590   35.7670   43.3530 N   0  0  0  0  0  0  0  0  0  0  0  0
   43.4960   35.2910   42.2360 C   0  0  0  0  0  0  0  0  0  0  0  0
   43.8370   34.0810   41.8080 N   0  0  0  0  0  0  0  0  0  0  0  0
   47.5790   33.0250   43.6110 C   0  0  0  0  0  0  0  0  0  0  0  0
   48.3650   32.0670   42.9860 C   0  0  0  0  0  0  0  0  0  0  0  0
   49.4780   32.6800   42.4710 N   0  0  0  0  0  0  0  0  0  0  0  0
   49.4220   33.9840   42.7470 C   0  0  0  0  0  0  0  0  0  0  0  0
   48.2830   34.1770   43.4280 N   0  0  0  0  0  0  0  0  0  0  0  0
   46.4720   33.4540   45.7480 C   0  0  0  0  0  0  0  0  0  0  0  0
   46.5950   32.2750   46.6870 C   0  0  0  0  0  0  0  0  0  0  0  0
   47.3540   32.4490   47.8020 C   0  0  0  0  0  0  0  0  0  0  0  0
   47.4810   31.3860   48.6750 C   0  0  0  0  0  0  0  0  0  0  0  0
   46.8150   30.2290   48.3270 C   0  0  0  0  0  0  0  0  0  0  0  0
   46.0470   30.0590   47.1930 C   0  0  0  0  0  0  0  0  0  0  0  0
   45.9470   31.1280   46.3620 N   0  0  0  0  0  0  0  0  0  0  0  0
   45.9578   31.9179   44.3414 H   0  0  0  0  0  0  0  0  0  0  0  0
   45.0144   32.3436   42.1182 H   0  0  0  0  0  0  0  0  0  0  0  0
   45.3879   35.5425   44.9962 H   0  0  0  0  0  0  0  0  0  0  0  0
   42.7617   35.8931   41.6807 H   0  0  0  0  0  0  0  0  0  0  0  0
   48.1334   30.9940   42.9155 H   0  0  0  0  0  0  0  0  0  0  0  0
   50.1628   34.7488   42.4709 H   0  0  0  0  0  0  0  0  0  0  0  0
   47.9740   35.0962   43.7750 H   0  0  0  0  0  0  0  0  0  0  0  0
   47.3802   34.0710   45.8151 H   0  0  0  0  0  0  0  0  0  0  0  0
   45.5951   34.0548   46.0310 H   0  0  0  0  0  0  0  0  0  0  0  0
   47.8525   33.4087   48.0029 H   0  0  0  0  0  0  0  0  0  0  0  0
   48.0792   31.4580   49.5953 H   0  0  0  0  0  0  0  0  0  0  0  0
   46.9034   29.3711   49.0098 H   0  0  0  0  0  0  0  0  0  0  0  0
   45.5420   29.1067   46.9738 H   0  0  0  0  0  0  0  0  0  0  0  0
  1 13  1  0
  2  3  2  0
  3  4  1  0
  3  1  1  0
  5  4  2  0
  6  5  1  0
  7  6  2  0
  7  2  1  0
  8  1  1  0
  9  8  2  0
 10 11  2  0
 10  9  1  0
 11 12  1  0
 12  8  1  0
 13 14  1  0
 14 15  2  0
 15 16  1  0
 17 16  2  0
 18 17  1  0
 19 14  1  0
 19 18  2  0
  1 20  1  1
  2 21  1  0
  4 22  1  0
  6 23  1  0
  9 24  1  0
 11 25  1  0
 12 26  1  0
 13 27  1  0
 13 28  1  0
 15 29  1  0
 16 30  1  0
 17 31  1  0
 18 32  1  0
M  ISO  8  20   8  21  14  22  14  23  14  24  14  25  14  26   9  27   8
M  ISO  5  28   8  29  14  30  14  31  14  32  14
M  END
>  <minimizedAffinity>  (1) 
-4.62965679

>  <minimizedRMSD>  (1) 
4.22290707

$$$$
