
     RDKit          3D

 25 26  0  0  1  0  0  0  0  0999 V2000
   45.4380   33.6600   44.9550 C   0  0  1  0  0  0  0  0  0  0  0  0
   47.5140   33.0710   43.8320 C   0  0  0  0  0  0  0  0  0  0  0  0
   46.4340   33.9550   43.9100 C   0  0  0  0  0  0  0  0  0  0  0  0
   46.3760   35.0130   43.0230 C   0  0  0  0  0  0  0  0  0  0  0  0
   47.3830   35.1200   42.1270 N   0  0  0  0  0  0  0  0  0  0  0  0
   48.4180   34.2750   42.0500 C   0  0  0  0  0  0  0  0  0  0  0  0
   48.4850   33.2480   42.9040 N   0  0  0  0  0  0  0  0  0  0  0  0
   46.0660   32.8640   46.0120 C   0  0  0  0  0  0  0  0  0  0  0  0
   45.9920   31.5290   46.3540 C   0  0  0  0  0  0  0  0  0  0  0  0
   46.7880   31.3240   47.4560 N   0  0  0  0  0  0  0  0  0  0  0  0
   47.3480   32.4830   47.8050 C   0  0  0  0  0  0  0  0  0  0  0  0
   46.9090   33.4040   46.9310 N   0  0  0  0  0  0  0  0  0  0  0  0
   44.9250   34.9720   45.4880 C   0  0  0  0  0  0  0  0  0  0  0  0
   44.2620   34.6370   46.7590 N   0  0  0  0  0  0  0  0  0  0  0  0
   44.5961   33.0784   44.5514 H   0  0  0  0  0  0  0  0  0  0  0  0
   47.5761   32.2237   44.5307 H   0  0  0  0  0  0  0  0  0  0  0  0
   45.5474   35.7361   43.0449 H   0  0  0  0  0  0  0  0  0  0  0  0
   49.2033   34.4233   41.2942 H   0  0  0  0  0  0  0  0  0  0  0  0
   45.3988   30.7618   45.8348 H   0  0  0  0  0  0  0  0  0  0  0  0
   48.0364   32.6522   48.6461 H   0  0  0  0  0  0  0  0  0  0  0  0
   47.1784   34.3979   46.9546 H   0  0  0  0  0  0  0  0  0  0  0  0
   45.7569   35.6711   45.6590 H   0  0  0  0  0  0  0  0  0  0  0  0
   44.2390   35.4634   44.7824 H   0  0  0  0  0  0  0  0  0  0  0  0
   44.8557   34.9370   47.5454 H   0  0  0  0  0  0  0  0  0  0  0  0
   43.3540   35.1204   46.8104 H   0  0  0  0  0  0  0  0  0  0  0  0
  1 13  1  0
  1  8  1  0
  2  3  2  0
  3  1  1  0
  4  3  1  0
  5  4  2  0
  6  5  1  0
  6  7  2  0
  7  2  1  0
  8  9  2  0
  8 12  1  0
  9 10  1  0
 10 11  2  0
 12 11  1  0
 13 14  1  0
  1 15  1  6
  2 16  1  0
  4 17  1  0
  6 18  1  0
  9 19  1  0
 11 20  1  0
 12 21  1  0
 13 22  1  0
 13 23  1  0
 14 24  1  0
 14 25  1  0
M  ISO  8  15   8  16  14  17  14  18  14  19  14  20  14  21   9  22   8
M  ISO  3  23   8  24   5  25   5
M  END
>  <minimizedAffinity>  (1) 
-4.70518064

>  <minimizedRMSD>  (1) 
0.204887003

$$$$
