
     RDKit          3D

 31 33  0  0  1  0  0  0  0  0999 V2000
   46.0140   32.7960   43.6960 C   0  0  1  0  0  0  0  0  0  0  0  0
   44.9540   34.6680   44.8290 C   0  0  0  0  0  0  0  0  0  0  0  0
   45.6580   34.2400   43.6980 C   0  0  0  0  0  0  0  0  0  0  0  0
   45.9540   35.1340   42.7010 C   0  0  0  0  0  0  0  0  0  0  0  0
   45.5320   36.3940   42.8960 N   0  0  0  0  0  0  0  0  0  0  0  0
   44.8550   36.8300   43.9760 C   0  0  0  0  0  0  0  0  0  0  0  0
   44.5710   35.9570   44.9360 N   0  0  0  0  0  0  0  0  0  0  0  0
   46.1510   32.3370   42.3310 C   0  0  0  0  0  0  0  0  0  0  0  0
   45.2250   31.9910   41.3570 C   0  0  0  0  0  0  0  0  0  0  0  0
   45.9120   31.6040   40.2340 N   0  0  0  0  0  0  0  0  0  0  0  0
   47.2060   31.6960   40.4750 C   0  0  0  0  0  0  0  0  0  0  0  0
   47.3610   32.1350   41.7300 N   0  0  0  0  0  0  0  0  0  0  0  0
   47.2630   32.6440   44.4960 C   0  0  0  0  0  0  0  0  0  0  0  0
   47.0250   31.7090   45.6440 C   0  0  0  0  0  0  0  0  0  0  0  0
   47.6080   30.5610   45.9970 N   0  0  0  0  0  0  0  0  0  0  0  0
   47.0710   30.0920   47.0790 O   0  0  0  0  0  0  0  0  0  0  0  0
   46.1110   30.9120   47.4850 C   0  0  0  0  0  0  0  0  0  0  0  0
   46.0710   31.9370   46.5860 N   0  0  0  0  0  0  0  0  0  0  0  0
   45.2780   30.6900   48.6960 C   0  0  0  0  0  0  0  0  0  0  0  0
   46.0790   30.9120   49.8060 F   0  0  0  0  0  0  0  0  0  0  0  0
   44.2350   31.5740   48.7240 F   0  0  0  0  0  0  0  0  0  0  0  0
   44.8310   29.3870   48.7270 F   0  0  0  0  0  0  0  0  0  0  0  0
   45.2316   32.1731   44.1540 H   0  0  0  0  0  0  0  0  0  0  0  0
   44.7131   33.9539   45.6302 H   0  0  0  0  0  0  0  0  0  0  0  0
   46.5040   34.8369   41.7959 H   0  0  0  0  0  0  0  0  0  0  0  0
   44.5453   37.8821   44.0607 H   0  0  0  0  0  0  0  0  0  0  0  0
   44.1309   32.0216   41.4662 H   0  0  0  0  0  0  0  0  0  0  0  0
   48.0145   31.4546   39.7693 H   0  0  0  0  0  0  0  0  0  0  0  0
   48.2717   32.2988   42.1825 H   0  0  0  0  0  0  0  0  0  0  0  0
   48.0594   32.2385   43.8547 H   0  0  0  0  0  0  0  0  0  0  0  0
   47.5638   33.6272   44.8869 H   0  0  0  0  0  0  0  0  0  0  0  0
  1  3  1  0
  1 13  1  0
  2  7  2  0
  3  2  1  0
  4  5  1  0
  4  3  2  0
  5  6  2  0
  6  7  1  0
  8  1  1  0
  9  8  2  0
 10 11  2  0
 10  9  1  0
 11 12  1  0
 12  8  1  0
 13 14  1  0
 14 15  2  0
 14 18  1  0
 15 16  1  0
 16 17  1  0
 17 19  1  0
 18 17  2  0
 19 21  1  0
 19 22  1  0
 19 20  1  0
  1 23  1  1
  2 24  1  0
  4 25  1  0
  6 26  1  0
  9 27  1  0
 11 28  1  0
 12 29  1  0
 13 30  1  0
 13 31  1  0
M  ISO  8  23   8  24  14  25  14  26  14  27  14  28  14  29   9  30   8
M  ISO  1  31   8
M  END
>  <minimizedAffinity>  (1) 
-4.56851196

>  <minimizedRMSD>  (1) 
2.06541395

$$$$
