
     RDKit          3D

 35 38  0  0  1  0  0  0  0  0999 V2000
   46.4910   33.1970   42.9810 C   0  0  1  0  0  0  0  0  0  0  0  0
   45.3460   34.1900   44.8850 C   0  0  0  0  0  0  0  0  0  0  0  0
   45.8070   34.3750   43.5780 C   0  0  0  0  0  0  0  0  0  0  0  0
   45.5910   35.5730   42.9540 C   0  0  0  0  0  0  0  0  0  0  0  0
   44.9380   36.5090   43.6590 N   0  0  0  0  0  0  0  0  0  0  0  0
   44.4870   36.3500   44.9190 C   0  0  0  0  0  0  0  0  0  0  0  0
   44.6980   35.1700   45.5350 N   0  0  0  0  0  0  0  0  0  0  0  0
   46.8640   33.5010   41.6170 C   0  0  0  0  0  0  0  0  0  0  0  0
   46.2640   33.2620   40.3900 C   0  0  0  0  0  0  0  0  0  0  0  0
   47.0810   33.7570   39.4060 N   0  0  0  0  0  0  0  0  0  0  0  0
   48.1540   34.2880   39.9700 C   0  0  0  0  0  0  0  0  0  0  0  0
   48.0380   34.1410   41.3030 N   0  0  0  0  0  0  0  0  0  0  0  0
   47.6500   32.8600   43.8500 C   0  0  0  0  0  0  0  0  0  0  0  0
   47.5260   31.4340   44.3160 C   0  0  0  0  0  0  0  0  0  0  0  0
   48.3190   30.3710   44.0900 N   0  0  0  0  0  0  0  0  0  0  0  0
   47.8230   29.3240   44.6960 O   0  0  0  0  0  0  0  0  0  0  0  0
   46.7160   29.6530   45.3210 C   0  0  0  0  0  0  0  0  0  0  0  0
   46.5170   30.9820   45.0910 N   0  0  0  0  0  0  0  0  0  0  0  0
   45.8720   28.8060   46.0970 N   0  0  0  0  0  0  0  0  0  0  0  0
   44.8270   28.1490   45.6340 N   0  0  0  0  0  0  0  0  0  0  0  0
   44.2450   27.4400   46.6270 C   0  0  0  0  0  0  0  0  0  0  0  0
   45.0060   27.6990   47.7700 C   0  0  0  0  0  0  0  0  0  0  0  0
   46.0230   28.5610   47.4120 C   0  0  0  0  0  0  0  0  0  0  0  0
   45.8349   32.3154   42.9325 H   0  0  0  0  0  0  0  0  0  0  0  0
   45.5168   33.2270   45.3884 H   0  0  0  0  0  0  0  0  0  0  0  0
   45.9354   35.7594   41.9261 H   0  0  0  0  0  0  0  0  0  0  0  0
   43.9581   37.1658   45.4336 H   0  0  0  0  0  0  0  0  0  0  0  0
   45.2975   32.7608   40.2327 H   0  0  0  0  0  0  0  0  0  0  0  0
   48.9929   34.7654   39.4424 H   0  0  0  0  0  0  0  0  0  0  0  0
   48.7328   34.4635   41.9916 H   0  0  0  0  0  0  0  0  0  0  0  0
   48.5833   32.9803   43.2804 H   0  0  0  0  0  0  0  0  0  0  0  0
   47.6645   33.5318   44.7209 H   0  0  0  0  0  0  0  0  0  0  0  0
   43.3578   26.7942   46.5511 H   0  0  0  0  0  0  0  0  0  0  0  0
   44.8267   27.2894   48.7750 H   0  0  0  0  0  0  0  0  0  0  0  0
   46.8035   28.9678   48.0717 H   0  0  0  0  0  0  0  0  0  0  0  0
  1  3  1  0
  1 13  1  0
  2  7  2  0
  3  2  1  0
  4  3  2  0
  4  5  1  0
  5  6  2  0
  6  7  1  0
  8  1  1  0
  9  8  2  0
 10 11  2  0
 10  9  1  0
 11 12  1  0
 12  8  1  0
 13 14  1  0
 14 18  1  0
 15 14  2  0
 15 16  1  0
 16 17  1  0
 17 19  1  0
 18 17  2  0
 19 23  1  0
 20 19  1  0
 20 21  2  0
 21 22  1  0
 23 22  2  0
  1 24  1  6
  2 25  1  0
  4 26  1  0
  6 27  1  0
  9 28  1  0
 11 29  1  0
 12 30  1  0
 13 31  1  0
 13 32  1  0
 21 33  1  0
 22 34  1  0
 23 35  1  0
M  ISO  8  24   8  25  14  26  14  27  14  28  14  29  14  30   9  31   8
M  ISO  4  32   8  33  14  34  14  35  14
M  END
>  <minimizedAffinity>  (1) 
-4.49910259

>  <minimizedRMSD>  (1) 
3.94661379

$$$$
