
     RDKit          3D

 27 29  0  0  0  0  0  0  0  0999 V2000
   44.6370   35.5260   45.2910 C   0  0  0  0  0  0  0  0  0  0  0  0
   44.2660   35.6860   43.9270 C   0  0  0  0  0  0  0  0  0  0  0  0
   44.6430   34.6720   43.0420 C   0  0  0  0  0  0  0  0  0  0  0  0
   45.3280   33.6140   43.5220 N   0  0  0  0  0  0  0  0  0  0  0  0
   45.6700   33.4850   44.8300 C   0  0  0  0  0  0  0  0  0  0  0  0
   45.3120   34.4520   45.6870 N   0  0  0  0  0  0  0  0  0  0  0  0
   46.3940   32.3490   45.2890 N   0  0  0  0  0  0  0  0  0  0  0  0
   47.2690   31.5920   44.6050 C   0  0  0  0  0  0  0  0  0  0  0  0
   47.7290   30.6130   45.4070 N   0  0  0  0  0  0  0  0  0  0  0  0
   47.1570   30.7260   46.6140 C   0  0  0  0  0  0  0  0  0  0  0  0
   47.3210   29.9490   47.7570 C   0  0  0  0  0  0  0  0  0  0  0  0
   48.1000   28.9870   47.7270 O   0  0  0  0  0  0  0  0  0  0  0  0
   46.5900   30.3310   48.8260 N   0  0  0  0  0  0  0  0  0  0  0  0
   45.7480   31.4030   48.7940 C   0  0  0  0  0  0  0  0  0  0  0  0
   45.0200   31.7270   49.9700 N   0  0  0  0  0  0  0  0  0  0  0  0
   45.6390   32.1080   47.6580 N   0  0  0  0  0  0  0  0  0  0  0  0
   46.3110   31.8320   46.5250 C   0  0  0  0  0  0  0  0  0  0  0  0
   44.2770   34.7970   41.6010 C   0  0  0  0  0  0  0  0  0  0  0  0
   45.4590   34.6740   40.9040 F   0  0  0  0  0  0  0  0  0  0  0  0
   43.4150   33.7940   41.2020 F   0  0  0  0  0  0  0  0  0  0  0  0
   43.6930   36.0260   41.3290 F   0  0  0  0  0  0  0  0  0  0  0  0
   44.3626   36.2984   46.0246 H   0  0  0  0  0  0  0  0  0  0  0  0
   43.7069   36.5690   43.5839 H   0  0  0  0  0  0  0  0  0  0  0  0
   47.5627   31.7475   43.5564 H   0  0  0  0  0  0  0  0  0  0  0  0
   46.6716   29.7916   49.6997 H   0  0  0  0  0  0  0  0  0  0  0  0
   44.3773   32.5318   49.9725 H   0  0  0  0  0  0  0  0  0  0  0  0
   45.1349   31.1571   50.8202 H   0  0  0  0  0  0  0  0  0  0  0  0
  1  6  2  0
  2  1  1  0
  3  4  1  0
  3  2  2  0
  4  5  2  0
  5  7  1  0
  5  6  1  0
  7 17  1  0
  8  7  1  0
  8  9  2  0
  9 10  1  0
 10 11  1  0
 11 13  1  0
 12 11  2  0
 14 13  1  0
 14 15  1  0
 16 14  2  0
 17 10  2  0
 17 16  1  0
 18  3  1  0
 19 18  1  0
 20 18  1  0
 21 18  1  0
  1 22  1  0
  2 23  1  0
  8 24  1  0
 13 25  1  0
 15 26  1  0
 15 27  1  0
M  ISO  4  22  14  23  14  24  14  25   9
M  END
>  <minimizedAffinity>  (1) 
-6.42046547

>  <minimizedRMSD>  (1) 
2.71656823

$$$$
