
     RDKit          3D

 28 29  0  0  0  0  0  0  0  0999 V2000
   44.5820   35.7590   44.7250 C   0  0  0  0  0  0  0  0  0  0  0  0
   45.2700   35.7550   43.4790 C   0  0  0  0  0  0  0  0  0  0  0  0
   46.2080   34.7360   43.2540 C   0  0  0  0  0  0  0  0  0  0  0  0
   46.4040   33.8120   44.2360 N   0  0  0  0  0  0  0  0  0  0  0  0
   45.7330   33.8430   45.4130 C   0  0  0  0  0  0  0  0  0  0  0  0
   44.8330   34.8210   45.6300 N   0  0  0  0  0  0  0  0  0  0  0  0
   45.9860   32.8470   46.4030 N   0  0  0  0  0  0  0  0  0  0  0  0
   45.2270   32.9650   47.6100 C   0  0  0  0  0  0  0  0  0  0  0  0
   45.7150   32.1470   48.7570 C   0  0  0  0  0  0  0  0  0  0  0  0
   47.1940   31.9370   48.6200 C   0  0  0  0  0  0  0  0  0  0  0  0
   47.4180   31.1080   47.3780 C   0  0  0  0  0  0  0  0  0  0  0  0
   46.9590   31.8140   46.1300 C   0  0  0  0  0  0  0  0  0  0  0  0
   46.9380   34.7130   41.9570 C   0  0  0  0  0  0  0  0  0  0  0  0
   47.7470   35.8410   41.9770 F   0  0  0  0  0  0  0  0  0  0  0  0
   47.7730   33.6120   41.8720 F   0  0  0  0  0  0  0  0  0  0  0  0
   46.0900   34.7470   40.8830 F   0  0  0  0  0  0  0  0  0  0  0  0
   43.8397   36.5421   44.9387 H   0  0  0  0  0  0  0  0  0  0  0  0
   45.0730   36.5247   42.7182 H   0  0  0  0  0  0  0  0  0  0  0  0
   45.2403   34.0212   47.9169 H   0  0  0  0  0  0  0  0  0  0  0  0
   44.2222   32.5849   47.3736 H   0  0  0  0  0  0  0  0  0  0  0  0
   45.5040   32.6728   49.6999 H   0  0  0  0  0  0  0  0  0  0  0  0
   45.2026   31.1736   48.7608 H   0  0  0  0  0  0  0  0  0  0  0  0
   47.7042   32.9066   48.5222 H   0  0  0  0  0  0  0  0  0  0  0  0
   47.5980   31.4263   49.5065 H   0  0  0  0  0  0  0  0  0  0  0  0
   48.4924   30.8906   47.2867 H   0  0  0  0  0  0  0  0  0  0  0  0
   46.8287   30.1846   47.4786 H   0  0  0  0  0  0  0  0  0  0  0  0
   46.5073   31.0744   45.4525 H   0  0  0  0  0  0  0  0  0  0  0  0
   47.8381   32.2952   45.6764 H   0  0  0  0  0  0  0  0  0  0  0  0
  1  6  2  0
  2  1  1  0
  3  2  2  0
  3  4  1  0
  4  5  2  0
  5  6  1  0
  5  7  1  0
  7  8  1  0
  8  9  1  0
 10  9  1  0
 11 10  1  0
 12  7  1  0
 12 11  1  0
 13 14  1  0
 13  3  1  0
 15 13  1  0
 16 13  1  0
  1 17  1  0
  2 18  1  0
  8 19  1  0
  8 20  1  0
  9 21  1  0
  9 22  1  0
 10 23  1  0
 10 24  1  0
 11 25  1  0
 11 26  1  0
 12 27  1  0
 12 28  1  0
M  ISO  8  17  14  18  14  19  13  20  13  21  13  22  13  23  13  24  13
M  ISO  4  25  13  26  13  27  13  28  13
M  END
>  <minimizedAffinity>  (1) 
-5.69092751

>  <minimizedRMSD>  (1) 
0.36641115

$$$$
