
     RDKit          3D

 43 47  0  0  1  0  0  0  0  0999 V2000
   44.6180   35.6390   44.8500 C   0  0  0  0  0  0  0  0  0  0  0  0
   45.3140   35.6380   43.5820 C   0  0  0  0  0  0  0  0  0  0  0  0
   46.1950   34.6120   43.3560 C   0  0  0  0  0  0  0  0  0  0  0  0
   46.3670   33.6600   44.3250 N   0  0  0  0  0  0  0  0  0  0  0  0
   45.6940   33.7060   45.4940 C   0  0  0  0  0  0  0  0  0  0  0  0
   44.8430   34.6760   45.7400 N   0  0  0  0  0  0  0  0  0  0  0  0
   45.9320   32.6520   46.4880 N   0  0  0  0  0  0  0  0  0  0  0  0
   45.2010   32.6840   47.7320 C   0  0  0  0  0  0  0  0  0  0  0  0
   46.0420   32.1950   48.8860 C   0  0  0  0  0  0  0  0  0  0  0  0
   47.4900   32.1900   48.4980 C   0  0  0  0  0  0  0  0  0  0  0  0
   47.6320   31.1420   47.3880 C   0  0  0  0  0  0  0  0  0  0  0  0
   46.9100   31.5890   46.1930 C   0  0  1  0  0  0  0  0  0  0  0  0
   46.2790   30.4850   45.4140 C   0  0  0  0  0  0  0  0  0  0  0  0
   45.2650   30.5490   44.5650 N   0  0  0  0  0  0  0  0  0  0  0  0
   44.9830   29.3700   44.0590 O   0  0  0  0  0  0  0  0  0  0  0  0
   45.8370   28.5180   44.5970 C   0  0  0  0  0  0  0  0  0  0  0  0
   46.6710   29.1640   45.4520 N   0  0  0  0  0  0  0  0  0  0  0  0
   45.7870   26.7880   44.1630 S   0  0  0  0  0  0  0  0  0  0  0  0
   44.9240   25.9640   45.5110 C   0  0  0  0  0  0  0  0  0  0  0  0
   45.0480   25.1040   46.5480 N   0  0  0  0  0  0  0  0  0  0  0  0
   43.9040   24.9620   47.1360 O   0  0  0  0  0  0  0  0  0  0  0  0
   42.9860   25.6920   46.5480 C   0  0  0  0  0  0  0  0  0  0  0  0
   43.6130   26.3200   45.5310 N   0  0  0  0  0  0  0  0  0  0  0  0
   41.5350   25.7830   46.9520 C   0  0  0  0  0  0  0  0  0  0  0  0
   40.5870   26.5840   46.1470 C   0  0  0  0  0  0  0  0  0  0  0  0
   40.5920   25.1150   45.9490 C   0  0  0  0  0  0  0  0  0  0  0  0
   43.8994   36.4396   45.0795 H   0  0  0  0  0  0  0  0  0  0  0  0
   45.1441   36.4251   42.8326 H   0  0  0  0  0  0  0  0  0  0  0  0
   46.7549   34.5546   42.4109 H   0  0  0  0  0  0  0  0  0  0  0  0
   44.8857   33.7183   47.9338 H   0  0  0  0  0  0  0  0  0  0  0  0
   44.3305   32.0184   47.6356 H   0  0  0  0  0  0  0  0  0  0  0  0
   45.8984   32.8611   49.7496 H   0  0  0  0  0  0  0  0  0  0  0  0
   45.7348   31.1721   49.1492 H   0  0  0  0  0  0  0  0  0  0  0  0
   47.7887   33.1815   48.1268 H   0  0  0  0  0  0  0  0  0  0  0  0
   48.1344   31.9532   49.3575 H   0  0  0  0  0  0  0  0  0  0  0  0
   48.6964   31.0092   47.1441 H   0  0  0  0  0  0  0  0  0  0  0  0
   47.2107   30.1861   47.7326 H   0  0  0  0  0  0  0  0  0  0  0  0
   47.6905   32.0150   45.5454 H   0  0  0  0  0  0  0  0  0  0  0  0
   41.7521   25.7502   48.0299 H   0  0  0  0  0  0  0  0  0  0  0  0
   39.7272   27.0636   46.6376 H   0  0  0  0  0  0  0  0  0  0  0  0
   40.6951   27.4466   45.4731 H   0  0  0  0  0  0  0  0  0  0  0  0
   39.7477   24.5059   46.3043 H   0  0  0  0  0  0  0  0  0  0  0  0
   40.7116   24.4394   45.0892 H   0  0  0  0  0  0  0  0  0  0  0  0
  1  6  2  0
  2  1  1  0
  3  2  2  0
  3  4  1  0
  4  5  2  0
  5  6  1  0
  5  7  1  0
  7  8  1  0
  8  9  1  0
 10  9  1  0
 11 10  1  0
 12  7  1  0
 12 11  1  0
 13 17  1  0
 13 12  1  0
 14 13  2  0
 15 14  1  0
 15 16  1  0
 16 17  2  0
 18 16  1  0
 18 19  1  0
 19 23  1  0
 19 20  2  0
 20 21  1  0
 22 24  1  0
 22 21  1  0
 23 22  2  0
 25 24  1  0
 26 25  1  0
 26 24  1  0
  1 27  1  0
  2 28  1  0
  3 29  1  0
  8 30  1  0
  8 31  1  0
  9 32  1  0
  9 33  1  0
 10 34  1  0
 10 35  1  0
 11 36  1  0
 11 37  1  0
 12 38  1  6
 24 39  1  0
 25 40  1  0
 25 41  1  0
 26 42  1  0
 26 43  1  0
M  ISO  8  27  14  28  14  29  14  30  13  31  13  32  13  33  13  34  13
M  ISO  8  35  13  36  13  37  13  38  13  39  13  40  13  41  13  42  13
M  ISO  1  43  13
M  END
>  <minimizedAffinity>  (1) 
-5.61656523

>  <minimizedRMSD>  (1) 
1.25451636

$$$$
