
     RDKit          3D

 26 27  0  0  0  0  0  0  0  0999 V2000
   45.5500   34.1180   41.4470 C   0  0  0  0  0  0  0  0  0  0  0  0
   46.7180   34.8280   41.0520 C   0  0  0  0  0  0  0  0  0  0  0  0
   47.7830   34.8640   41.9730 C   0  0  0  0  0  0  0  0  0  0  0  0
   47.6370   34.2260   43.1720 N   0  0  0  0  0  0  0  0  0  0  0  0
   46.5000   33.5640   43.4970 C   0  0  0  0  0  0  0  0  0  0  0  0
   45.4850   33.5210   42.6380 N   0  0  0  0  0  0  0  0  0  0  0  0
   46.2890   31.6570   47.2560 C   0  0  0  0  0  0  0  0  0  0  0  0
   45.6870   32.8850   47.0580 C   0  0  0  0  0  0  0  0  0  0  0  0
   45.7430   33.5320   45.8320 C   0  0  0  0  0  0  0  0  0  0  0  0
   46.4250   32.9070   44.8020 C   0  0  0  0  0  0  0  0  0  0  0  0
   47.0330   31.6790   44.9800 C   0  0  0  0  0  0  0  0  0  0  0  0
   46.9770   31.0290   46.2150 C   0  0  0  0  0  0  0  0  0  0  0  0
   46.1230   30.9870   48.8590 S   0  0  0  0  0  0  0  0  0  0  0  0
   45.1240   29.8650   48.8470 O   0  0  0  0  0  0  0  0  0  0  0  0
   45.5730   32.0360   49.7880 O   0  0  0  0  0  0  0  0  0  0  0  0
   49.0280   35.5940   41.6090 C   0  0  0  0  0  0  0  0  0  0  0  0
   48.9480   36.8010   42.2820 F   0  0  0  0  0  0  0  0  0  0  0  0
   50.1570   34.9450   42.0350 F   0  0  0  0  0  0  0  0  0  0  0  0
   49.0960   35.8280   40.2540 F   0  0  0  0  0  0  0  0  0  0  0  0
   44.6909   34.0608   40.7624 H   0  0  0  0  0  0  0  0  0  0  0  0
   46.7861   35.3254   40.0733 H   0  0  0  0  0  0  0  0  0  0  0  0
   45.1507   33.3608   47.8922 H   0  0  0  0  0  0  0  0  0  0  0  0
   45.2613   34.5096   45.6832 H   0  0  0  0  0  0  0  0  0  0  0  0
   47.5664   31.2087   44.1408 H   0  0  0  0  0  0  0  0  0  0  0  0
   47.4601   30.0520   46.3634 H   0  0  0  0  0  0  0  0  0  0  0  0
   47.3549   30.5472   49.2664 H   0  0  0  0  0  0  0  0  0  0  0  0
  1  6  2  0
  2  1  1  0
  2  3  2  0
  3  4  1  0
  4  5  2  0
  5 10  1  0
  6  5  1  0
  7 13  1  0
  8  7  2  0
  9  8  1  0
 10 11  1  0
 10  9  2  0
 11 12  2  0
 12  7  1  0
 13 15  2  0
 14 13  2  0
 16  3  1  0
 16 18  1  0
 16 17  1  0
 19 16  1  0
  1 20  1  0
  2 21  1  0
  8 22  1  0
  9 23  1  0
 11 24  1  0
 12 25  1  0
 13 26  1  0
M  ISO  7  20  14  21  14  22  14  23  14  24  14  25  14  26  11
M  END
>  <minimizedAffinity>  (1) 
-5.32533073

>  <minimizedRMSD>  (1) 
2.15936875

$$$$
