
     RDKit          3D

 20 21  0  0  0  0  0  0  0  0999 V2000
   44.5980   35.8870   44.4620 C   0  0  0  0  0  0  0  0  0  0  0  0
   45.3580   35.8250   43.2550 C   0  0  0  0  0  0  0  0  0  0  0  0
   46.2940   34.7960   43.1370 C   0  0  0  0  0  0  0  0  0  0  0  0
   46.4320   33.9150   44.1680 N   0  0  0  0  0  0  0  0  0  0  0  0
   45.7000   33.9980   45.2980 C   0  0  0  0  0  0  0  0  0  0  0  0
   44.7930   34.9810   45.4330 N   0  0  0  0  0  0  0  0  0  0  0  0
   45.8960   33.0170   46.3740 C   0  0  0  0  0  0  0  0  0  0  0  0
   45.2050   33.0310   47.5970 C   0  0  0  0  0  0  0  0  0  0  0  0
   45.5090   32.0380   48.4950 C   0  0  0  0  0  0  0  0  0  0  0  0
   46.5020   31.0920   48.0840 C   0  0  0  0  0  0  0  0  0  0  0  0
   46.9910   31.5940   46.4750 S   0  0  0  0  0  0  0  0  0  0  0  0
   47.1010   34.6980   41.9000 C   0  0  0  0  0  0  0  0  0  0  0  0
   47.9240   35.8150   41.9040 F   0  0  0  0  0  0  0  0  0  0  0  0
   47.9150   33.5740   41.8910 F   0  0  0  0  0  0  0  0  0  0  0  0
   46.3210   34.6750   40.7670 F   0  0  0  0  0  0  0  0  0  0  0  0
   43.8489   36.6812   44.5969 H   0  0  0  0  0  0  0  0  0  0  0  0
   45.2117   36.5595   42.4493 H   0  0  0  0  0  0  0  0  0  0  0  0
   44.4546   33.8024   47.8248 H   0  0  0  0  0  0  0  0  0  0  0  0
   45.0166   31.9728   49.4765 H   0  0  0  0  0  0  0  0  0  0  0  0
   46.8791   30.2316   48.6563 H   0  0  0  0  0  0  0  0  0  0  0  0
  1  6  2  0
  2  1  1  0
  3  2  2  0
  3  4  1  0
  4  5  2  0
  5  6  1  0
  5  7  1  0
  7 11  1  0
  7  8  2  0
  8  9  1  0
 10  9  2  0
 11 10  1  0
 12 13  1  0
 12  3  1  0
 14 12  1  0
 15 12  1  0
  1 16  1  0
  2 17  1  0
  8 18  1  0
  9 19  1  0
 10 20  1  0
M  ISO  5  16  14  17  14  18  14  19  14  20  14
M  END
>  <minimizedAffinity>  (1) 
-5.12501478

>  <minimizedRMSD>  (1) 
0.407747269

$$$$
