
     RDKit          3D

 19 20  0  0  0  0  0  0  0  0999 V2000
   44.5850   35.9030   44.4070 C   0  0  0  0  0  0  0  0  0  0  0  0
   45.3520   35.8210   43.2240 C   0  0  0  0  0  0  0  0  0  0  0  0
   46.2990   34.8060   43.1160 C   0  0  0  0  0  0  0  0  0  0  0  0
   46.4260   33.9560   44.1610 N   0  0  0  0  0  0  0  0  0  0  0  0
   45.6830   34.0480   45.2870 C   0  0  0  0  0  0  0  0  0  0  0  0
   44.7720   35.0290   45.3860 N   0  0  0  0  0  0  0  0  0  0  0  0
   45.9460   33.0380   46.3380 C   0  0  0  0  0  0  0  0  0  0  0  0
   46.9480   32.1320   46.1950 C   0  0  0  0  0  0  0  0  0  0  0  0
   46.7980   31.1530   47.7850 S   0  0  0  0  0  0  0  0  0  0  0  0
   45.3390   32.2440   48.3160 C   0  0  0  0  0  0  0  0  0  0  0  0
   45.2420   32.9540   47.4540 N   0  0  0  0  0  0  0  0  0  0  0  0
   47.1240   34.6950   41.8780 C   0  0  0  0  0  0  0  0  0  0  0  0
   47.9250   35.8080   41.8650 F   0  0  0  0  0  0  0  0  0  0  0  0
   47.9150   33.5680   41.8910 F   0  0  0  0  0  0  0  0  0  0  0  0
   46.3240   34.6790   40.7480 F   0  0  0  0  0  0  0  0  0  0  0  0
   43.8296   36.6951   44.5165 H   0  0  0  0  0  0  0  0  0  0  0  0
   45.2047   36.5424   42.4067 H   0  0  0  0  0  0  0  0  0  0  0  0
   47.6592   32.0065   45.3652 H   0  0  0  0  0  0  0  0  0  0  0  0
   44.7398   32.1927   49.2370 H   0  0  0  0  0  0  0  0  0  0  0  0
  1  6  2  0
  2  1  1  0
  3  2  2  0
  3  4  1  0
  4  5  2  0
  5  6  1  0
  5  7  1  0
  7 11  1  0
  8  7  2  0
  8  9  1  0
  9 10  1  0
 11 10  2  0
 12 14  1  0
 12  3  1  0
 13 12  1  0
 15 12  1  0
  1 16  1  0
  2 17  1  0
  8 18  1  0
 10 19  1  0
M  ISO  4  16  14  17  14  18  14  19  14
M  END
>  <minimizedAffinity>  (1) 
-5.05977297

>  <minimizedRMSD>  (1) 
0.31678462

$$$$
