
     RDKit          3D

 49 53  0  0  1  0  0  0  0  0999 V2000
   44.5870   35.6570   44.8340 C   0  0  0  0  0  0  0  0  0  0  0  0
   45.3080   35.7260   43.5860 C   0  0  0  0  0  0  0  0  0  0  0  0
   46.2430   34.7530   43.3510 C   0  0  0  0  0  0  0  0  0  0  0  0
   46.4450   33.7780   44.2990 N   0  0  0  0  0  0  0  0  0  0  0  0
   45.7420   33.7610   45.4500 C   0  0  0  0  0  0  0  0  0  0  0  0
   44.8370   34.6800   45.7060 N   0  0  0  0  0  0  0  0  0  0  0  0
   46.0090   32.6910   46.4210 N   0  0  0  0  0  0  0  0  0  0  0  0
   45.2470   32.6540   47.6520 C   0  0  0  0  0  0  0  0  0  0  0  0
   46.0930   32.1710   48.8050 C   0  0  0  0  0  0  0  0  0  0  0  0
   47.5450   32.2450   48.4520 C   0  0  0  0  0  0  0  0  0  0  0  0
   47.7640   31.2390   47.3150 C   0  0  0  0  0  0  0  0  0  0  0  0
   47.0440   31.6860   46.1180 C   0  0  1  0  0  0  0  0  0  0  0  0
   46.4830   30.5760   45.2950 C   0  0  0  0  0  0  0  0  0  0  0  0
   47.1280   29.7200   44.5130 N   0  0  0  0  0  0  0  0  0  0  0  0
   46.3060   28.8700   43.9420 O   0  0  0  0  0  0  0  0  0  0  0  0
   45.0930   29.1820   44.3670 C   0  0  0  0  0  0  0  0  0  0  0  0
   45.1540   30.2390   45.2120 N   0  0  0  0  0  0  0  0  0  0  0  0
   43.6720   28.2500   43.8150 S   0  0  0  0  0  0  0  0  0  0  0  0
   43.2480   27.1500   45.1770 C   0  0  0  0  0  0  0  0  0  0  0  0
   43.4280   26.8860   46.4890 N   0  0  0  0  0  0  0  0  0  0  0  0
   42.7470   25.8370   46.8220 O   0  0  0  0  0  0  0  0  0  0  0  0
   42.0960   25.3580   45.7860 C   0  0  0  0  0  0  0  0  0  0  0  0
   42.4040   26.1730   44.7570 N   0  0  0  0  0  0  0  0  0  0  0  0
   41.1990   24.1460   45.7900 C   0  0  0  0  0  0  0  0  0  0  0  0
   39.7320   24.5500   45.6750 C   0  0  0  0  0  0  0  0  0  0  0  0
   39.1230   23.1600   45.4510 C   0  0  0  0  0  0  0  0  0  0  0  0
   40.0930   22.5110   44.4690 C   0  0  0  0  0  0  0  0  0  0  0  0
   41.3720   23.3320   44.5320 C   0  0  0  0  0  0  0  0  0  0  0  0
   43.8257   36.4159   45.0676 H   0  0  0  0  0  0  0  0  0  0  0  0
   45.1152   36.5252   42.8552 H   0  0  0  0  0  0  0  0  0  0  0  0
   46.8240   34.7517   42.4170 H   0  0  0  0  0  0  0  0  0  0  0  0
   44.8791   33.6661   47.8765 H   0  0  0  0  0  0  0  0  0  0  0  0
   44.4074   31.9557   47.5203 H   0  0  0  0  0  0  0  0  0  0  0  0
   45.9011   32.8024   49.6851 H   0  0  0  0  0  0  0  0  0  0  0  0
   45.8320   31.1256   49.0263 H   0  0  0  0  0  0  0  0  0  0  0  0
   47.8042   33.2603   48.1173 H   0  0  0  0  0  0  0  0  0  0  0  0
   48.1796   32.0117   49.3197 H   0  0  0  0  0  0  0  0  0  0  0  0
   48.8386   31.1679   47.0908 H   0  0  0  0  0  0  0  0  0  0  0  0
   47.3862   30.2525   47.6218 H   0  0  0  0  0  0  0  0  0  0  0  0
   47.8159   32.1687   45.5006 H   0  0  0  0  0  0  0  0  0  0  0  0
   41.4545   23.6093   46.7156 H   0  0  0  0  0  0  0  0  0  0  0  0
   39.3595   25.0209   46.5967 H   0  0  0  0  0  0  0  0  0  0  0  0
   39.5046   25.2986   44.9018 H   0  0  0  0  0  0  0  0  0  0  0  0
   39.0761   22.5931   46.3925 H   0  0  0  0  0  0  0  0  0  0  0  0
   38.0891   23.1962   45.0771 H   0  0  0  0  0  0  0  0  0  0  0  0
   39.6762   22.5316   43.4512 H   0  0  0  0  0  0  0  0  0  0  0  0
   40.2793   21.4578   44.7259 H   0  0  0  0  0  0  0  0  0  0  0  0
   42.2556   22.6806   44.6024 H   0  0  0  0  0  0  0  0  0  0  0  0
   41.5312   23.9510   43.6367 H   0  0  0  0  0  0  0  0  0  0  0  0
  1  6  2  0
  2  1  1  0
  3  2  2  0
  3  4  1  0
  4  5  2  0
  5  6  1  0
  5  7  1  0
  7  8  1  0
  8  9  1  0
 10  9  1  0
 11 10  1  0
 12  7  1  0
 12 11  1  0
 13 12  1  0
 14 13  2  0
 15 16  1  0
 15 14  1  0
 16 17  2  0
 17 13  1  0
 18 16  1  0
 18 19  1  0
 19 20  2  0
 20 21  1  0
 22 24  1  0
 22 21  1  0
 23 19  1  0
 23 22  2  0
 25 24  1  0
 26 25  1  0
 27 28  1  0
 27 26  1  0
 28 24  1  0
  1 29  1  0
  2 30  1  0
  3 31  1  0
  8 32  1  0
  8 33  1  0
  9 34  1  0
  9 35  1  0
 10 36  1  0
 10 37  1  0
 11 38  1  0
 11 39  1  0
 12 40  1  6
 24 41  1  0
 25 42  1  0
 25 43  1  0
 26 44  1  0
 26 45  1  0
 27 46  1  0
 27 47  1  0
 28 48  1  0
 28 49  1  0
M  ISO  8  29  14  30  14  31  14  32  13  33  13  34  13  35  13  36  13
M  ISO  8  37  13  38  13  39  13  40  13  41  13  42  13  43  13  44  13
M  ISO  5  45  13  46  13  47  13  48  13  49  13
M  END
>  <minimizedAffinity>  (1) 
-5.52071333

>  <minimizedRMSD>  (1) 
1.73664975

$$$$
