
     RDKit          3D

 31 33  0  0  1  0  0  0  0  0999 V2000
   46.8360   32.4420   45.7900 C   0  0  1  0  0  0  0  0  0  0  0  0
   47.1390   32.7880   47.2120 C   0  0  0  0  0  0  0  0  0  0  0  0
   45.8080   32.1950   46.8530 C   0  0  2  0  0  0  0  0  0  0  0  0
   45.5640   30.8210   47.2570 N   0  0  0  0  0  0  0  0  0  0  0  0
   45.7740   29.8630   46.3410 C   0  0  0  0  0  0  0  0  0  0  0  0
   45.5370   28.5660   46.7470 C   0  0  0  0  0  0  0  0  0  0  0  0
   45.1100   28.3690   48.0430 C   0  0  0  0  0  0  0  0  0  0  0  0
   44.8640   27.0350   48.4640 N   0  0  0  0  0  0  0  0  0  0  0  0
   44.9180   29.3930   48.9230 N   0  0  0  0  0  0  0  0  0  0  0  0
   45.1510   30.6770   48.5250 C   0  0  0  0  0  0  0  0  0  0  0  0
   44.9870   31.6480   49.3000 O   0  0  0  0  0  0  0  0  0  0  0  0
   45.0450   35.2000   44.0790 C   0  0  0  0  0  0  0  0  0  0  0  0
   45.8820   35.4190   42.9480 C   0  0  0  0  0  0  0  0  0  0  0  0
   47.0390   34.6230   42.8050 C   0  0  0  0  0  0  0  0  0  0  0  0
   47.2890   33.6860   43.7630 N   0  0  0  0  0  0  0  0  0  0  0  0
   46.4800   33.5000   44.8220 C   0  0  0  0  0  0  0  0  0  0  0  0
   45.3750   34.2520   44.9710 N   0  0  0  0  0  0  0  0  0  0  0  0
   47.9280   34.8510   41.6360 C   0  0  0  0  0  0  0  0  0  0  0  0
   48.4200   36.1410   41.8180 F   0  0  0  0  0  0  0  0  0  0  0  0
   49.0070   33.9930   41.6420 F   0  0  0  0  0  0  0  0  0  0  0  0
   47.2460   34.7860   40.4520 F   0  0  0  0  0  0  0  0  0  0  0  0
   47.3794   31.8544   45.0354 H   0  0  0  0  0  0  0  0  0  0  0  0
   47.8709   32.1936   47.7785 H   0  0  0  0  0  0  0  0  0  0  0  0
   47.4691   33.6961   47.7377 H   0  0  0  0  0  0  0  0  0  0  0  0
   44.7564   32.4839   46.9965 H   0  0  0  0  0  0  0  0  0  0  0  0
   46.1162   30.0989   45.3226 H   0  0  0  0  0  0  0  0  0  0  0  0
   45.6836   27.7188   46.0608 H   0  0  0  0  0  0  0  0  0  0  0  0
   44.5439   26.8490   49.4252 H   0  0  0  0  0  0  0  0  0  0  0  0
   45.0057   26.2536   47.8081 H   0  0  0  0  0  0  0  0  0  0  0  0
   44.1356   35.8024   44.2208 H   0  0  0  0  0  0  0  0  0  0  0  0
   45.6330   36.1898   42.2038 H   0  0  0  0  0  0  0  0  0  0  0  0
  1  3  1  0
  1  2  1  0
  3  2  1  0
  3  4  1  0
  4 10  1  0
  5  6  2  0
  5  4  1  0
  6  7  1  0
  7  8  1  0
  7  9  2  0
 10  9  1  0
 10 11  2  0
 12 17  2  0
 13 12  1  0
 14 13  2  0
 14 15  1  0
 15 16  2  0
 16 17  1  0
 16  1  1  0
 18 20  1  0
 18 19  1  0
 18 14  1  0
 21 18  1  0
  1 22  1  6
  2 23  1  0
  2 24  1  0
  3 25  1  6
  5 26  1  0
  6 27  1  0
  8 28  1  0
  8 29  1  0
 12 30  1  0
 13 31  1  0
M  ISO  8  22  13  23  13  24  13  25  13  26  14  27  14  30  14  31  14
M  END
>  <minimizedAffinity>  (1) 
-5.75665712

>  <minimizedRMSD>  (1) 
1.47842598

$$$$
