
     RDKit          3D

 38 41  0  0  1  0  0  0  0  0999 V2000
   44.5890   35.6550   44.8340 C   0  0  0  0  0  0  0  0  0  0  0  0
   45.3080   35.7210   43.5850 C   0  0  0  0  0  0  0  0  0  0  0  0
   46.2470   34.7390   43.3520 C   0  0  0  0  0  0  0  0  0  0  0  0
   46.4410   33.7770   44.3020 N   0  0  0  0  0  0  0  0  0  0  0  0
   45.7450   33.7590   45.4530 C   0  0  0  0  0  0  0  0  0  0  0  0
   44.8420   34.6800   45.7070 N   0  0  0  0  0  0  0  0  0  0  0  0
   46.0140   32.6910   46.4280 N   0  0  0  0  0  0  0  0  0  0  0  0
   45.2520   32.6590   47.6570 C   0  0  0  0  0  0  0  0  0  0  0  0
   46.0980   32.1770   48.8110 C   0  0  0  0  0  0  0  0  0  0  0  0
   47.5450   32.2510   48.4670 C   0  0  0  0  0  0  0  0  0  0  0  0
   47.7670   31.2430   47.3230 C   0  0  0  0  0  0  0  0  0  0  0  0
   47.0500   31.6870   46.1230 C   0  0  1  0  0  0  0  0  0  0  0  0
   46.4840   30.5740   45.3070 C   0  0  0  0  0  0  0  0  0  0  0  0
   47.1290   29.6430   44.6200 N   0  0  0  0  0  0  0  0  0  0  0  0
   46.3020   28.8190   44.0240 O   0  0  0  0  0  0  0  0  0  0  0  0
   45.0840   29.2290   44.3370 C   0  0  0  0  0  0  0  0  0  0  0  0
   45.1410   30.3120   45.1280 N   0  0  0  0  0  0  0  0  0  0  0  0
   43.6350   28.3580   43.7140 S   0  0  0  0  0  0  0  0  0  0  0  0
   43.0160   27.3930   45.1020 C   0  0  0  0  0  0  0  0  0  0  0  0
   43.3220   26.8140   46.2760 N   0  0  0  0  0  0  0  0  0  0  0  0
   42.2690   26.2370   46.7660 O   0  0  0  0  0  0  0  0  0  0  0  0
   41.2310   26.4030   45.9540 C   0  0  0  0  0  0  0  0  0  0  0  0
   41.6990   27.1330   44.9000 N   0  0  0  0  0  0  0  0  0  0  0  0
   40.0000   25.8310   46.3420 N   0  0  0  0  0  0  0  0  0  0  0  0
   43.8275   36.4138   45.0673 H   0  0  0  0  0  0  0  0  0  0  0  0
   45.1157   36.5184   42.8521 H   0  0  0  0  0  0  0  0  0  0  0  0
   46.8290   34.7303   42.4186 H   0  0  0  0  0  0  0  0  0  0  0  0
   44.8861   33.6724   47.8789 H   0  0  0  0  0  0  0  0  0  0  0  0
   44.4103   31.9628   47.5272 H   0  0  0  0  0  0  0  0  0  0  0  0
   45.9028   32.8080   49.6906 H   0  0  0  0  0  0  0  0  0  0  0  0
   45.8382   31.1304   49.0282 H   0  0  0  0  0  0  0  0  0  0  0  0
   47.8068   33.2669   48.1363 H   0  0  0  0  0  0  0  0  0  0  0  0
   48.1763   32.0158   49.3366 H   0  0  0  0  0  0  0  0  0  0  0  0
   48.8421   31.1735   47.1011 H   0  0  0  0  0  0  0  0  0  0  0  0
   47.3870   30.2571   47.6290 H   0  0  0  0  0  0  0  0  0  0  0  0
   47.8213   32.1655   45.5016 H   0  0  0  0  0  0  0  0  0  0  0  0
   39.1706   25.9367   45.7404 H   0  0  0  0  0  0  0  0  0  0  0  0
   39.9313   25.3079   47.2266 H   0  0  0  0  0  0  0  0  0  0  0  0
  1  6  2  0
  2  1  1  0
  3  2  2  0
  3  4  1  0
  4  5  2  0
  5  6  1  0
  5  7  1  0
  7  8  1  0
  8  9  1  0
 10  9  1  0
 11 10  1  0
 12  7  1  0
 12 11  1  0
 13 12  1  0
 14 13  2  0
 15 16  1  0
 15 14  1  0
 16 17  2  0
 17 13  1  0
 18 16  1  0
 18 19  1  0
 19 20  2  0
 20 21  1  0
 22 24  1  0
 22 21  1  0
 23 19  1  0
 23 22  2  0
  1 25  1  0
  2 26  1  0
  3 27  1  0
  8 28  1  0
  8 29  1  0
  9 30  1  0
  9 31  1  0
 10 32  1  0
 10 33  1  0
 11 34  1  0
 11 35  1  0
 12 36  1  6
 24 37  1  0
 24 38  1  0
M  ISO  8  25  14  26  14  27  14  28  13  29  13  30  13  31  13  32  13
M  ISO  4  33  13  34  13  35  13  36  13
M  END
>  <minimizedAffinity>  (1) 
-5.40397453

>  <minimizedRMSD>  (1) 
1.20404232

$$$$
