
     RDKit          3D

 23 24  0  0  1  0  0  0  0  0999 V2000
   44.6250   35.4430   45.1590 C   0  0  0  0  0  0  0  0  0  0  0  0
   45.1560   35.5320   43.8460 C   0  0  0  0  0  0  0  0  0  0  0  0
   46.0590   34.5580   43.4260 C   0  0  0  0  0  0  0  0  0  0  0  0
   46.3930   33.5610   44.2930 N   0  0  0  0  0  0  0  0  0  0  0  0
   45.8770   33.4960   45.5350 C   0  0  0  0  0  0  0  0  0  0  0  0
   45.0050   34.4260   45.9580 N   0  0  0  0  0  0  0  0  0  0  0  0
   46.2760   32.3710   46.4030 C   0  0  1  0  0  0  0  0  0  0  0  0
   47.1850   32.5920   47.5680 C   0  0  0  0  0  0  0  0  0  0  0  0
   45.7140   32.4170   47.7930 C   0  0  2  0  0  0  0  0  0  0  0  0
   45.3130   31.1520   48.4880 C   0  0  0  0  0  0  0  0  0  0  0  0
   44.7720   31.4890   49.7160 F   0  0  0  0  0  0  0  0  0  0  0  0
   44.4510   30.3800   47.7410 F   0  0  0  0  0  0  0  0  0  0  0  0
   46.4180   30.3690   48.7540 F   0  0  0  0  0  0  0  0  0  0  0  0
   46.6360   34.6490   42.0480 C   0  0  0  0  0  0  0  0  0  0  0  0
   47.4820   35.7570   42.1020 F   0  0  0  0  0  0  0  0  0  0  0  0
   47.4040   33.5490   41.7360 F   0  0  0  0  0  0  0  0  0  0  0  0
   45.6640   34.8640   41.1060 F   0  0  0  0  0  0  0  0  0  0  0  0
   43.9102   36.1966   45.5212 H   0  0  0  0  0  0  0  0  0  0  0  0
   44.8611   36.3520   43.1747 H   0  0  0  0  0  0  0  0  0  0  0  0
   46.3036   31.6631   45.5615 H   0  0  0  0  0  0  0  0  0  0  0  0
   47.8858   31.8020   47.8758 H   0  0  0  0  0  0  0  0  0  0  0  0
   47.9269   33.3572   47.8403 H   0  0  0  0  0  0  0  0  0  0  0  0
   44.8946   32.9878   48.2543 H   0  0  0  0  0  0  0  0  0  0  0  0
  1  6  2  0
  2  1  1  0
  3  2  2  0
  3  4  1  0
  4  5  2  0
  5  6  1  0
  5  7  1  0
  7  8  1  0
  7  9  1  0
  8  9  1  0
  9 10  1  0
 10 13  1  0
 10 11  1  0
 12 10  1  0
 14 15  1  0
 14  3  1  0
 16 14  1  0
 17 14  1  0
  1 18  1  0
  2 19  1  0
  7 20  1  6
  8 21  1  0
  8 22  1  0
  9 23  1  6
M  ISO  6  18  14  19  14  20  13  21  13  22  13  23  13
M  END
>  <minimizedAffinity>  (1) 
-5.5516448

>  <minimizedRMSD>  (1) 
0.599556327

$$$$
