
     RDKit          3D

 32 34  0  0  1  0  0  0  0  0999 V2000
   45.9580   32.2560   44.7710 C   0  0  1  0  0  0  0  0  0  0  0  0
   47.2070   31.5480   45.1880 C   0  0  0  0  0  0  0  0  0  0  0  0
   46.4550   32.3620   46.1830 C   0  0  2  0  0  0  0  0  0  0  0  0
   45.1590   35.5960   43.3840 C   0  0  0  0  0  0  0  0  0  0  0  0
   46.2590   35.8110   42.5140 C   0  0  0  0  0  0  0  0  0  0  0  0
   47.2400   34.8190   42.4270 C   0  0  0  0  0  0  0  0  0  0  0  0
   47.0960   33.6940   43.1830 N   0  0  0  0  0  0  0  0  0  0  0  0
   46.0350   33.5180   44.0060 C   0  0  0  0  0  0  0  0  0  0  0  0
   45.0860   34.4640   44.0970 N   0  0  0  0  0  0  0  0  0  0  0  0
   48.4120   35.0300   41.5240 C   0  0  0  0  0  0  0  0  0  0  0  0
   48.8740   36.3030   41.8530 F   0  0  0  0  0  0  0  0  0  0  0  0
   49.4330   34.1390   41.7830 F   0  0  0  0  0  0  0  0  0  0  0  0
   48.0540   35.0040   40.2030 F   0  0  0  0  0  0  0  0  0  0  0  0
   45.6410   31.7580   47.2080 N   0  0  0  0  0  0  0  0  0  0  0  0
   45.5750   32.4730   48.4390 C   0  0  0  0  0  0  0  0  0  0  0  0
   45.3300   31.3660   49.4700 C   0  0  0  0  0  0  0  0  0  0  0  0
   45.3740   30.0590   48.7120 C   0  0  0  0  0  0  0  0  0  0  0  0
   46.1870   30.4510   47.4820 C   0  0  0  0  0  0  0  0  0  0  0  0
   45.0504   31.9201   44.2481 H   0  0  0  0  0  0  0  0  0  0  0  0
   47.2150   30.4511   45.2697 H   0  0  0  0  0  0  0  0  0  0  0  0
   48.2459   31.5301   44.8268 H   0  0  0  0  0  0  0  0  0  0  0  0
   46.7566   33.1614   46.8758 H   0  0  0  0  0  0  0  0  0  0  0  0
   44.3688   36.3561   43.4728 H   0  0  0  0  0  0  0  0  0  0  0  0
   46.3379   36.7352   41.9227 H   0  0  0  0  0  0  0  0  0  0  0  0
   46.5195   32.9993   48.6413 H   0  0  0  0  0  0  0  0  0  0  0  0
   44.7975   33.2511   48.4464 H   0  0  0  0  0  0  0  0  0  0  0  0
   46.1137   31.3847   50.2417 H   0  0  0  0  0  0  0  0  0  0  0  0
   44.3631   31.5004   49.9770 H   0  0  0  0  0  0  0  0  0  0  0  0
   45.8782   29.2733   49.2938 H   0  0  0  0  0  0  0  0  0  0  0  0
   44.3836   29.6397   48.4812 H   0  0  0  0  0  0  0  0  0  0  0  0
   46.0173   29.7570   46.6456 H   0  0  0  0  0  0  0  0  0  0  0  0
   47.2769   30.4325   47.6294 H   0  0  0  0  0  0  0  0  0  0  0  0
  1  2  1  0
  1  3  1  0
  2  3  1  0
  3 14  1  0
  4  9  2  0
  5  4  1  0
  6  5  2  0
  6  7  1  0
  7  8  2  0
  8  9  1  0
  8  1  1  0
 10 12  1  0
 10 11  1  0
 10  6  1  0
 13 10  1  0
 14 18  1  0
 14 15  1  0
 15 16  1  0
 17 16  1  0
 18 17  1  0
  1 19  1  1
  2 20  1  0
  2 21  1  0
  3 22  1  1
  4 23  1  0
  5 24  1  0
 15 25  1  0
 15 26  1  0
 16 27  1  0
 16 28  1  0
 17 29  1  0
 17 30  1  0
 18 31  1  0
 18 32  1  0
M  ISO  8  19  13  20  13  21  13  22  13  23  14  24  14  25  13  26  13
M  ISO  6  27  13  28  13  29  13  30  13  31  13  32  13
M  END
>  <minimizedAffinity>  (1) 
-5.28069735

>  <minimizedRMSD>  (1) 
1.78687978

$$$$
