
     RDKit          3D

 39 42  0  0  1  0  0  0  0  0999 V2000
   44.5760   35.6470   44.8130 C   0  0  0  0  0  0  0  0  0  0  0  0
   45.3180   35.7370   43.5760 C   0  0  0  0  0  0  0  0  0  0  0  0
   46.2810   34.7790   43.3460 C   0  0  0  0  0  0  0  0  0  0  0  0
   46.4740   33.8040   44.3000 N   0  0  0  0  0  0  0  0  0  0  0  0
   45.7580   33.7710   45.4290 C   0  0  0  0  0  0  0  0  0  0  0  0
   44.8310   34.6690   45.6790 N   0  0  0  0  0  0  0  0  0  0  0  0
   46.0260   32.6950   46.4060 N   0  0  0  0  0  0  0  0  0  0  0  0
   45.2380   32.6360   47.6190 C   0  0  0  0  0  0  0  0  0  0  0  0
   46.0700   32.1640   48.7870 C   0  0  0  0  0  0  0  0  0  0  0  0
   47.5240   32.2710   48.4710 C   0  0  0  0  0  0  0  0  0  0  0  0
   47.7880   31.2730   47.3250 C   0  0  0  0  0  0  0  0  0  0  0  0
   47.0870   31.7150   46.1160 C   0  0  1  0  0  0  0  0  0  0  0  0
   46.5620   30.6010   45.2760 C   0  0  0  0  0  0  0  0  0  0  0  0
   47.2300   29.7900   44.4660 N   0  0  0  0  0  0  0  0  0  0  0  0
   46.4320   28.9240   43.8940 O   0  0  0  0  0  0  0  0  0  0  0  0
   45.2130   29.1730   44.3390 C   0  0  0  0  0  0  0  0  0  0  0  0
   45.2430   30.2120   45.2060 N   0  0  0  0  0  0  0  0  0  0  0  0
   43.8150   28.1930   43.7880 S   0  0  0  0  0  0  0  0  0  0  0  0
   43.2600   27.2760   45.2350 C   0  0  0  0  0  0  0  0  0  0  0  0
   43.6170   26.7800   46.4420 N   0  0  0  0  0  0  0  0  0  0  0  0
   42.6080   26.1760   46.9780 O   0  0  0  0  0  0  0  0  0  0  0  0
   41.5590   26.2310   46.1900 C   0  0  0  0  0  0  0  0  0  0  0  0
   41.9650   26.9280   45.0800 N   0  0  0  0  0  0  0  0  0  0  0  0
   40.2730   25.6030   46.5930 C   0  0  0  0  0  0  0  0  0  0  0  0
   43.7972   36.3900   45.0397 H   0  0  0  0  0  0  0  0  0  0  0  0
   45.1218   36.5378   42.8478 H   0  0  0  0  0  0  0  0  0  0  0  0
   46.8807   34.7922   42.4239 H   0  0  0  0  0  0  0  0  0  0  0  0
   44.8445   33.6390   47.8406 H   0  0  0  0  0  0  0  0  0  0  0  0
   44.4152   31.9222   47.4659 H   0  0  0  0  0  0  0  0  0  0  0  0
   45.8442   32.7850   49.6664 H   0  0  0  0  0  0  0  0  0  0  0  0
   45.8277   31.1110   48.9934 H   0  0  0  0  0  0  0  0  0  0  0  0
   47.7706   33.2940   48.1506 H   0  0  0  0  0  0  0  0  0  0  0  0
   48.1439   32.0450   49.3511 H   0  0  0  0  0  0  0  0  0  0  0  0
   48.8684   31.2237   47.1242 H   0  0  0  0  0  0  0  0  0  0  0  0
   47.4215   30.2776   47.6161 H   0  0  0  0  0  0  0  0  0  0  0  0
   47.8626   32.2157   45.5179 H   0  0  0  0  0  0  0  0  0  0  0  0
   40.2085   25.5715   47.6907 H   0  0  0  0  0  0  0  0  0  0  0  0
   39.4354   26.1935   46.1933 H   0  0  0  0  0  0  0  0  0  0  0  0
   40.2237   24.5794   46.1933 H   0  0  0  0  0  0  0  0  0  0  0  0
  1  6  2  0
  2  1  1  0
  3  2  2  0
  3  4  1  0
  4  5  2  0
  5  6  1  0
  5  7  1  0
  7  8  1  0
  8  9  1  0
 10  9  1  0
 11 10  1  0
 12  7  1  0
 12 11  1  0
 13 12  1  0
 14 13  2  0
 15 16  1  0
 15 14  1  0
 16 17  2  0
 17 13  1  0
 18 16  1  0
 18 19  1  0
 19 20  2  0
 20 21  1  0
 22 24  1  0
 22 21  1  0
 23 19  1  0
 23 22  2  0
  1 25  1  0
  2 26  1  0
  3 27  1  0
  8 28  1  0
  8 29  1  0
  9 30  1  0
  9 31  1  0
 10 32  1  0
 10 33  1  0
 11 34  1  0
 11 35  1  0
 12 36  1  6
 24 37  1  0
 24 38  1  0
 24 39  1  0
M  ISO  8  25  14  26  14  27  14  28  13  29  13  30  13  31  13  32  13
M  ISO  7  33  13  34  13  35  13  36  13  37   8  38   8  39   8
M  END
>  <minimizedAffinity>  (1) 
-5.27520609

>  <minimizedRMSD>  (1) 
1.03272176

$$$$
