
     RDKit          3D

 22 23  0  0  1  0  0  0  0  0999 V2000
   44.6410   35.6350   44.8930 C   0  0  0  0  0  0  0  0  0  0  0  0
   45.2720   35.6640   43.6230 C   0  0  0  0  0  0  0  0  0  0  0  0
   46.1380   34.6190   43.2840 C   0  0  0  0  0  0  0  0  0  0  0  0
   46.3340   33.6190   44.1960 N   0  0  0  0  0  0  0  0  0  0  0  0
   45.7230   33.6160   45.3930 C   0  0  0  0  0  0  0  0  0  0  0  0
   44.8970   34.6040   45.7280 N   0  0  0  0  0  0  0  0  0  0  0  0
   45.9770   32.4830   46.3030 C   0  0  1  0  0  0  0  0  0  0  0  0
   46.9810   32.6040   47.4060 C   0  0  0  0  0  0  0  0  0  0  0  0
   45.5170   32.6860   47.7170 C   0  0  2  0  0  0  0  0  0  0  0  0
   44.9380   31.4790   48.4020 C   0  0  0  0  0  0  0  0  0  0  0  0
   45.2300   31.5680   49.6040 O   0  0  0  0  0  0  0  0  0  0  0  0
   46.8230   34.6350   41.9560 C   0  0  0  0  0  0  0  0  0  0  0  0
   47.6300   35.7720   42.0050 F   0  0  0  0  0  0  0  0  0  0  0  0
   47.6520   33.5500   41.7860 F   0  0  0  0  0  0  0  0  0  0  0  0
   45.9310   34.7550   40.9250 F   0  0  0  0  0  0  0  0  0  0  0  0
   43.9537   36.4396   45.1935 H   0  0  0  0  0  0  0  0  0  0  0  0
   45.0846   36.4895   42.9206 H   0  0  0  0  0  0  0  0  0  0  0  0
   45.8323   31.7420   45.5030 H   0  0  0  0  0  0  0  0  0  0  0  0
   47.5612   31.7238   47.7201 H   0  0  0  0  0  0  0  0  0  0  0  0
   47.8529   33.2472   47.5959 H   0  0  0  0  0  0  0  0  0  0  0  0
   44.8618   33.4101   48.2234 H   0  0  0  0  0  0  0  0  0  0  0  0
   44.3639   30.6700   47.9267 H   0  0  0  0  0  0  0  0  0  0  0  0
  1  6  2  0
  2  1  1  0
  3  2  2  0
  3  4  1  0
  4  5  2  0
  5  6  1  0
  5  7  1  0
  7  8  1  0
  7  9  1  0
  8  9  1  0
  9 10  1  0
 10 11  2  0
 12 13  1  0
 12  3  1  0
 14 12  1  0
 15 12  1  0
  1 16  1  0
  2 17  1  0
  7 18  1  6
  8 19  1  0
  8 20  1  0
  9 21  1  6
 10 22  1  0
M  ISO  7  16  14  17  14  18  13  19  13  20  13  21  13  22   6
M  END
>  <minimizedAffinity>  (1) 
-4.96260214

>  <minimizedRMSD>  (1) 
0.622102797

$$$$
