
     RDKit          3D

 21 22  0  0  1  0  0  0  0  0999 V2000
   44.6410   35.6370   44.8690 C   0  0  0  0  0  0  0  0  0  0  0  0
   45.2800   35.6390   43.6060 C   0  0  0  0  0  0  0  0  0  0  0  0
   46.1420   34.5960   43.2820 C   0  0  0  0  0  0  0  0  0  0  0  0
   46.3350   33.6050   44.2050 N   0  0  0  0  0  0  0  0  0  0  0  0
   45.7150   33.6250   45.4030 C   0  0  0  0  0  0  0  0  0  0  0  0
   44.8900   34.6180   45.7220 N   0  0  0  0  0  0  0  0  0  0  0  0
   45.9580   32.5160   46.3370 C   0  0  1  0  0  0  0  0  0  0  0  0
   46.9190   32.6590   47.4720 C   0  0  0  0  0  0  0  0  0  0  0  0
   45.4540   32.7380   47.7310 C   0  0  2  0  0  0  0  0  0  0  0  0
   44.8400   31.7400   48.4510 O   0  0  0  0  0  0  0  0  0  0  0  0
   46.8300   34.5960   41.9550 C   0  0  0  0  0  0  0  0  0  0  0  0
   47.6640   35.7100   42.0060 F   0  0  0  0  0  0  0  0  0  0  0  0
   47.6200   33.4820   41.7860 F   0  0  0  0  0  0  0  0  0  0  0  0
   45.9410   34.7400   40.9250 F   0  0  0  0  0  0  0  0  0  0  0  0
   43.9548   36.4491   45.1512 H   0  0  0  0  0  0  0  0  0  0  0  0
   45.0976   36.4541   42.8903 H   0  0  0  0  0  0  0  0  0  0  0  0
   45.8512   31.7633   45.5419 H   0  0  0  0  0  0  0  0  0  0  0  0
   47.4919   31.7867   47.8197 H   0  0  0  0  0  0  0  0  0  0  0  0
   47.7804   33.3100   47.6821 H   0  0  0  0  0  0  0  0  0  0  0  0
   44.7676   33.4665   48.1872 H   0  0  0  0  0  0  0  0  0  0  0  0
   44.9487   31.9167   49.4190 H   0  0  0  0  0  0  0  0  0  0  0  0
  1  6  2  0
  2  1  1  0
  3  2  2  0
  3  4  1  0
  4  5  2  0
  5  6  1  0
  5  7  1  0
  7  8  1  0
  7  9  1  0
  8  9  1  0
  9 10  1  0
 11 12  1  0
 11  3  1  0
 13 11  1  0
 14 11  1  0
  1 15  1  0
  2 16  1  0
  7 17  1  6
  8 18  1  0
  8 19  1  0
  9 20  1  6
 10 21  1  0
M  ISO  7  15  14  16  14  17  13  18  13  19  13  20  13  21   3
M  END
>  <minimizedAffinity>  (1) 
-4.7560339

>  <minimizedRMSD>  (1) 
0.0535392314

$$$$
