
     RDKit          3D

 31 32  0  0  1  0  0  0  0  0999 V2000
   45.3790   35.2930   43.4110 C   0  0  0  0  0  0  0  0  0  0  0  0
   46.4580   35.6900   42.5640 C   0  0  0  0  0  0  0  0  0  0  0  0
   47.4530   34.7500   42.2900 C   0  0  0  0  0  0  0  0  0  0  0  0
   47.3620   33.4950   42.8340 N   0  0  0  0  0  0  0  0  0  0  0  0
   46.3300   33.1570   43.6290 C   0  0  0  0  0  0  0  0  0  0  0  0
   45.3510   34.0490   43.9110 N   0  0  0  0  0  0  0  0  0  0  0  0
   46.2760   31.7870   44.1650 C   0  0  1  0  0  0  0  0  0  0  0  0
   47.5450   31.1050   44.6060 C   0  0  0  0  0  0  0  0  0  0  0  0
   46.5410   31.6240   45.6020 C   0  0  1  0  0  0  0  0  0  0  0  0
   47.0640   32.7170   46.3910 N   0  0  0  0  0  0  0  0  0  0  0  0
   46.7740   32.6350   47.7730 C   0  0  0  0  0  0  0  0  0  0  0  0
   45.3680   32.2690   48.1100 C   0  0  0  0  0  0  0  0  0  0  0  0
   47.7310   31.6900   48.5070 C   0  0  0  0  0  0  0  0  0  0  0  0
   48.6040   35.1430   41.4160 C   0  0  0  0  0  0  0  0  0  0  0  0
   48.9000   36.4500   41.8380 F   0  0  0  0  0  0  0  0  0  0  0  0
   49.7380   34.3930   41.6740 F   0  0  0  0  0  0  0  0  0  0  0  0
   48.2840   35.1570   40.1000 F   0  0  0  0  0  0  0  0  0  0  0  0
   44.5750   36.0039   43.6521 H   0  0  0  0  0  0  0  0  0  0  0  0
   46.5037   36.7043   42.1409 H   0  0  0  0  0  0  0  0  0  0  0  0
   45.4676   31.5068   43.4736 H   0  0  0  0  0  0  0  0  0  0  0  0
   47.6720   30.0222   44.4598 H   0  0  0  0  0  0  0  0  0  0  0  0
   48.6202   31.2495   44.4242 H   0  0  0  0  0  0  0  0  0  0  0  0
   45.9102   31.2354   46.4151 H   0  0  0  0  0  0  0  0  0  0  0  0
   48.0876   32.7344   46.2777 H   0  0  0  0  0  0  0  0  0  0  0  0
   46.9193   33.6679   48.1224 H   0  0  0  0  0  0  0  0  0  0  0  0
   45.2491   32.2381   49.2031 H   0  0  0  0  0  0  0  0  0  0  0  0
   44.6827   33.0187   47.6877 H   0  0  0  0  0  0  0  0  0  0  0  0
   45.1352   31.2803   47.6877 H   0  0  0  0  0  0  0  0  0  0  0  0
   47.6065   31.8129   49.5930 H   0  0  0  0  0  0  0  0  0  0  0  0
   47.5057   30.6502   48.2275 H   0  0  0  0  0  0  0  0  0  0  0  0
   48.7678   31.9284   48.2275 H   0  0  0  0  0  0  0  0  0  0  0  0
  1  6  2  0
  2  1  1  0
  3  2  2  0
  3  4  1  0
  4  5  2  0
  5  6  1  0
  5  7  1  0
  7  8  1  0
  7  9  1  0
  8  9  1  0
  9 10  1  0
 10 11  1  0
 11 12  1  0
 11 13  1  0
 14 16  1  0
 14 15  1  0
 14  3  1  0
 17 14  1  0
  1 18  1  0
  2 19  1  0
  7 20  1  6
  8 21  1  0
  8 22  1  0
  9 23  1  1
 10 24  1  0
 11 25  1  0
 12 26  1  0
 12 27  1  0
 12 28  1  0
 13 29  1  0
 13 30  1  0
 13 31  1  0
M  ISO  8  18  14  19  14  20  13  21  13  22  13  23  13  24   5  25   8
M  ISO  6  26   8  27   8  28   8  29   8  30   8  31   8
M  END
>  <minimizedAffinity>  (1) 
-4.70723867

>  <minimizedRMSD>  (1) 
2.08490014

$$$$
