
     RDKit          3D

 40 43  0  0  1  0  0  0  0  0999 V2000
   44.5750   33.1990   41.6690 C   0  0  1  0  0  0  0  0  0  0  0  0
   44.1340   33.9710   40.4700 C   0  0  0  0  0  0  0  0  0  0  0  0
   45.5750   33.5910   40.6470 C   0  0  1  0  0  0  0  0  0  0  0  0
   44.4780   35.7820   44.3210 C   0  0  0  0  0  0  0  0  0  0  0  0
   44.9650   35.0480   45.4300 C   0  0  0  0  0  0  0  0  0  0  0  0
   45.3140   33.7130   45.2520 C   0  0  0  0  0  0  0  0  0  0  0  0
   45.1720   33.1670   44.0220 N   0  0  0  0  0  0  0  0  0  0  0  0
   44.7080   33.8750   42.9820 C   0  0  0  0  0  0  0  0  0  0  0  0
   44.3670   35.1720   43.1390 N   0  0  0  0  0  0  0  0  0  0  0  0
   45.8370   32.9180   46.4150 C   0  0  0  0  0  0  0  0  0  0  0  0
   44.9920   33.2840   47.4640 F   0  0  0  0  0  0  0  0  0  0  0  0
   45.7060   31.5610   46.2290 F   0  0  0  0  0  0  0  0  0  0  0  0
   47.1220   33.2580   46.7390 F   0  0  0  0  0  0  0  0  0  0  0  0
   46.4440   34.7140   40.8300 N   0  0  0  0  0  0  0  0  0  0  0  0
   47.8200   34.3950   40.5440 C   0  0  2  0  0  0  0  0  0  0  0  0
   48.1810   34.3950   39.0770 C   0  0  0  0  0  0  0  0  0  0  0  0
   48.1290   33.1180   39.9190 C   0  0  1  0  0  0  0  0  0  0  0  0
   49.4320   32.5720   40.3280 N   0  0  0  0  0  0  0  0  0  0  0  0
   49.9420   32.9550   41.5090 C   0  0  0  0  0  0  0  0  0  0  0  0
   51.1660   32.4280   41.8580 C   0  0  0  0  0  0  0  0  0  0  0  0
   51.7330   31.5620   40.9560 C   0  0  0  0  0  0  0  0  0  0  0  0
   52.9910   30.9860   41.2550 N   0  0  0  0  0  0  0  0  0  0  0  0
   51.1520   31.2180   39.7670 N   0  0  0  0  0  0  0  0  0  0  0  0
   49.9540   31.7350   39.4240 C   0  0  0  0  0  0  0  0  0  0  0  0
   49.4190   31.4310   38.3530 O   0  0  0  0  0  0  0  0  0  0  0  0
   44.2208   32.2640   42.1277 H   0  0  0  0  0  0  0  0  0  0  0  0
   43.8236   35.0212   40.5735 H   0  0  0  0  0  0  0  0  0  0  0  0
   43.3792   33.8281   39.6827 H   0  0  0  0  0  0  0  0  0  0  0  0
   46.3473   33.0100   40.1216 H   0  0  0  0  0  0  0  0  0  0  0  0
   44.1954   36.8393   44.4321 H   0  0  0  0  0  0  0  0  0  0  0  0
   45.0657   35.5255   46.4158 H   0  0  0  0  0  0  0  0  0  0  0  0
   46.1423   35.4719   40.2011 H   0  0  0  0  0  0  0  0  0  0  0  0
   48.1995   34.8898   41.4502 H   0  0  0  0  0  0  0  0  0  0  0  0
   49.1458   34.8020   38.7401 H   0  0  0  0  0  0  0  0  0  0  0  0
   47.7176   34.7512   38.1451 H   0  0  0  0  0  0  0  0  0  0  0  0
   47.6184   32.1503   39.8053 H   0  0  0  0  0  0  0  0  0  0  0  0
   49.4080   33.6564   42.1669 H   0  0  0  0  0  0  0  0  0  0  0  0
   51.6611   32.6864   42.8057 H   0  0  0  0  0  0  0  0  0  0  0  0
   53.4304   30.3344   40.5892 H   0  0  0  0  0  0  0  0  0  0  0  0
   53.4670   31.2185   42.1383 H   0  0  0  0  0  0  0  0  0  0  0  0
  1  8  1  0
  2  3  1  0
  2  1  1  0
  3 14  1  0
  3  1  1  0
  4  5  2  0
  6  5  1  0
  6 10  1  0
  7  6  2  0
  8  9  2  0
  8  7  1  0
  9  4  1  0
 10 13  1  0
 10 11  1  0
 12 10  1  0
 15 14  1  0
 16 17  1  0
 16 15  1  0
 17 18  1  0
 17 15  1  0
 18 19  1  0
 19 20  2  0
 21 22  1  0
 21 20  1  0
 23 21  2  0
 24 23  1  0
 24 18  1  0
 25 24  2  0
  1 26  1  1
  2 27  1  0
  2 28  1  0
  3 29  1  6
  4 30  1  0
  5 31  1  0
 14 32  1  0
 15 33  1  1
 16 34  1  0
 16 35  1  0
 17 36  1  6
 19 37  1  0
 20 38  1  0
 22 39  1  0
 22 40  1  0
M  ISO  8  26  13  27  13  28  13  29  13  30  14  31  14  32   5  33  13
M  ISO  5  34  13  35  13  36  13  37  14  38  14
M  END
>  <minimizedAffinity>  (1) 
-5.62479877

>  <minimizedRMSD>  (1) 
8.61808395

$$$$
