
     RDKit          3D

 35 38  0  0  1  0  0  0  0  0999 V2000
   44.4100   32.0560   41.4990 C   0  0  1  0  0  0  0  0  0  0  0  0
   43.4500   31.4730   42.4850 C   0  0  0  0  0  0  0  0  0  0  0  0
   42.9680   32.3850   41.3980 C   0  0  1  0  0  0  0  0  0  0  0  0
   45.8580   34.8780   43.4170 C   0  0  0  0  0  0  0  0  0  0  0  0
   46.9670   35.2270   42.6010 C   0  0  0  0  0  0  0  0  0  0  0  0
   47.1830   34.5020   41.4380 C   0  0  0  0  0  0  0  0  0  0  0  0
   46.3340   33.4870   41.1150 N   0  0  0  0  0  0  0  0  0  0  0  0
   45.2930   33.1790   41.9060 C   0  0  0  0  0  0  0  0  0  0  0  0
   45.0610   33.8720   43.0470 N   0  0  0  0  0  0  0  0  0  0  0  0
   48.3470   34.8530   40.5560 C   0  0  0  0  0  0  0  0  0  0  0  0
   49.2800   33.8540   40.8390 F   0  0  0  0  0  0  0  0  0  0  0  0
   48.0380   34.7690   39.2170 F   0  0  0  0  0  0  0  0  0  0  0  0
   48.8860   36.0680   40.8690 F   0  0  0  0  0  0  0  0  0  0  0  0
   42.4360   33.6260   41.8800 N   0  0  0  0  0  0  0  0  0  0  0  0
   41.2860   34.0580   41.1250 C   0  0  2  0  0  0  0  0  0  0  0  0
   39.9590   33.7620   41.7690 C   0  0  0  0  0  0  0  0  0  0  0  0
   40.4280   33.0670   40.4970 C   0  0  1  0  0  0  0  0  0  0  0  0
   39.8360   33.5380   39.2370 N   0  0  0  0  0  0  0  0  0  0  0  0
   40.3060   34.4940   38.4330 C   0  0  0  0  0  0  0  0  0  0  0  0
   39.4450   34.6030   37.3810 N   0  0  0  0  0  0  0  0  0  0  0  0
   38.4510   33.7100   37.5510 C   0  0  0  0  0  0  0  0  0  0  0  0
   38.7170   33.0600   38.7100 N   0  0  0  0  0  0  0  0  0  0  0  0
   45.1781   31.6136   40.8476 H   0  0  0  0  0  0  0  0  0  0  0  0
   43.2091   30.4002   42.4524 H   0  0  0  0  0  0  0  0  0  0  0  0
   43.3712   31.4548   43.5820 H   0  0  0  0  0  0  0  0  0  0  0  0
   42.2721   32.3585   40.5465 H   0  0  0  0  0  0  0  0  0  0  0  0
   45.6572   35.4317   44.3460 H   0  0  0  0  0  0  0  0  0  0  0  0
   47.6378   36.0515   42.8841 H   0  0  0  0  0  0  0  0  0  0  0  0
   42.1601   33.5078   42.8653 H   0  0  0  0  0  0  0  0  0  0  0  0
   41.7966   34.9495   40.7318 H   0  0  0  0  0  0  0  0  0  0  0  0
   39.9117   33.2110   42.7199 H   0  0  0  0  0  0  0  0  0  0  0  0
   39.0783   34.3458   42.0750 H   0  0  0  0  0  0  0  0  0  0  0  0
   40.5151   32.0113   40.2005 H   0  0  0  0  0  0  0  0  0  0  0  0
   41.2201   35.0855   38.5900 H   0  0  0  0  0  0  0  0  0  0  0  0
   37.5940   33.5418   36.8822 H   0  0  0  0  0  0  0  0  0  0  0  0
  1  8  1  0
  1  2  1  0
  3  1  1  0
  3 14  1  0
  3  2  1  0
  5  4  2  0
  6  5  1  0
  7  6  2  0
  7  8  1  0
  8  9  2  0
  9  4  1  0
 10 11  1  0
 10 13  1  0
 10  6  1  0
 12 10  1  0
 15 16  1  0
 15 14  1  0
 17 15  1  0
 17 16  1  0
 18 17  1  0
 19 18  1  0
 20 21  1  0
 20 19  2  0
 21 22  2  0
 22 18  1  0
  1 23  1  6
  2 24  1  0
  2 25  1  0
  3 26  1  6
  4 27  1  0
  5 28  1  0
 14 29  1  0
 15 30  1  6
 16 31  1  0
 16 32  1  0
 17 33  1  1
 19 34  1  0
 21 35  1  0
M  ISO  8  23  13  24  13  25  13  26  13  27  14  28  14  29   5  30  13
M  ISO  5  31  13  32  13  33  13  34  14  35  14
M  END
>  <minimizedAffinity>  (1) 
-5.25555277

>  <minimizedRMSD>  (1) 
2.44366789

$$$$
