
     RDKit          3D

 42 45  0  0  1  0  0  0  0  0999 V2000
   45.9010   31.4480   42.6940 C   0  0  1  0  0  0  0  0  0  0  0  0
   45.2750   30.7810   43.8740 C   0  0  0  0  0  0  0  0  0  0  0  0
   44.4760   31.0310   42.6230 C   0  0  1  0  0  0  0  0  0  0  0  0
   45.5230   35.0580   43.4100 C   0  0  0  0  0  0  0  0  0  0  0  0
   46.6350   35.5990   42.7020 C   0  0  0  0  0  0  0  0  0  0  0  0
   47.4620   34.7300   42.0120 C   0  0  0  0  0  0  0  0  0  0  0  0
   47.1900   33.3930   42.0290 N   0  0  0  0  0  0  0  0  0  0  0  0
   46.1390   32.9100   42.7020 C   0  0  0  0  0  0  0  0  0  0  0  0
   45.3170   33.7400   43.3850 N   0  0  0  0  0  0  0  0  0  0  0  0
   48.6390   35.2760   41.2540 C   0  0  0  0  0  0  0  0  0  0  0  0
   49.6520   34.3550   41.5210 F   0  0  0  0  0  0  0  0  0  0  0  0
   48.4300   35.2890   39.8950 F   0  0  0  0  0  0  0  0  0  0  0  0
   49.0200   36.5050   41.7120 F   0  0  0  0  0  0  0  0  0  0  0  0
   43.4070   31.9670   42.7960 N   0  0  0  0  0  0  0  0  0  0  0  0
   42.5470   32.0360   41.6390 C   0  0  2  0  0  0  0  0  0  0  0  0
   43.1060   31.3680   40.4170 C   0  0  0  0  0  0  0  0  0  0  0  0
   42.9460   32.8780   40.5110 C   0  0  1  0  0  0  0  0  0  0  0  0
   41.8770   33.3360   39.6120 N   0  0  0  0  0  0  0  0  0  0  0  0
   40.7140   33.7890   40.2500 C   0  0  0  0  0  0  0  0  0  0  0  0
   40.0320   34.9770   39.6540 C   0  0  0  0  0  0  0  0  0  0  0  0
   40.4780   35.3170   38.3910 O   0  0  0  0  0  0  0  0  0  0  0  0
   41.8590   35.4760   38.4590 C   0  0  0  0  0  0  0  0  0  0  0  0
   42.4480   34.1040   38.5700 C   0  0  0  0  0  0  0  0  0  0  0  0
   46.8231   31.2513   42.1274 H   0  0  0  0  0  0  0  0  0  0  0  0
   45.5661   29.7559   44.1469 H   0  0  0  0  0  0  0  0  0  0  0  0
   45.1562   31.0285   44.9392 H   0  0  0  0  0  0  0  0  0  0  0  0
   43.9178   30.4534   41.8715 H   0  0  0  0  0  0  0  0  0  0  0  0
   44.8437   35.7180   43.9695 H   0  0  0  0  0  0  0  0  0  0  0  0
   46.8314   36.6813   42.7039 H   0  0  0  0  0  0  0  0  0  0  0  0
   42.8447   31.6809   43.6101 H   0  0  0  0  0  0  0  0  0  0  0  0
   41.6184   31.9742   42.2254 H   0  0  0  0  0  0  0  0  0  0  0  0
   42.4517   30.7799   39.7567 H   0  0  0  0  0  0  0  0  0  0  0  0
   43.9316   30.6729   40.2046 H   0  0  0  0  0  0  0  0  0  0  0  0
   43.5828   33.7722   40.4415 H   0  0  0  0  0  0  0  0  0  0  0  0
   39.9923   32.9589   40.2527 H   0  0  0  0  0  0  0  0  0  0  0  0
   41.0448   34.1194   41.2457 H   0  0  0  0  0  0  0  0  0  0  0  0
   38.9553   34.7605   39.5920 H   0  0  0  0  0  0  0  0  0  0  0  0
   40.2605   35.8313   40.3082 H   0  0  0  0  0  0  0  0  0  0  0  0
   42.2280   35.9740   37.5502 H   0  0  0  0  0  0  0  0  0  0  0  0
   42.1425   36.0979   39.3209 H   0  0  0  0  0  0  0  0  0  0  0  0
   42.2875   33.5764   37.6182 H   0  0  0  0  0  0  0  0  0  0  0  0
   43.5169   34.2243   38.8000 H   0  0  0  0  0  0  0  0  0  0  0  0
  1  8  1  0
  1  2  1  0
  3  1  1  0
  3 14  1  0
  3  2  1  0
  5  4  2  0
  6  7  2  0
  6  5  1  0
  7  8  1  0
  8  9  2  0
  9  4  1  0
 10 11  1  0
 10 13  1  0
 10  6  1  0
 12 10  1  0
 15 14  1  0
 16 17  1  0
 16 15  1  0
 17 15  1  0
 18 19  1  0
 18 17  1  0
 20 19  1  0
 21 22  1  0
 21 20  1  0
 22 23  1  0
 23 18  1  0
  1 24  1  6
  2 25  1  0
  2 26  1  0
  3 27  1  6
  4 28  1  0
  5 29  1  0
 14 30  1  0
 15 31  1  1
 16 32  1  0
 16 33  1  0
 17 34  1  1
 19 35  1  0
 19 36  1  0
 20 37  1  0
 20 38  1  0
 22 39  1  0
 22 40  1  0
 23 41  1  0
 23 42  1  0
M  ISO  8  24  13  25  13  26  13  27  13  28  14  29  14  30   5  31  13
M  ISO  8  32  13  33  13  34  13  35  13  36  13  37  13  38  13  39  13
M  ISO  3  40  13  41  13  42  13
M  END
>  <minimizedAffinity>  (1) 
-5.13998604

>  <minimizedRMSD>  (1) 
3.05142021

$$$$
