
     RDKit          3D

 36 39  0  0  1  0  0  0  0  0999 V2000
   45.5160   33.3810   42.3050 C   0  0  1  0  0  0  0  0  0  0  0  0
   44.8750   33.9850   43.5130 C   0  0  0  0  0  0  0  0  0  0  0  0
   44.2000   34.0590   42.1760 C   0  0  1  0  0  0  0  0  0  0  0  0
   48.4800   35.5300   41.7630 C   0  0  0  0  0  0  0  0  0  0  0  0
   48.7450   35.2890   40.3880 C   0  0  0  0  0  0  0  0  0  0  0  0
   47.9230   34.4210   39.6950 C   0  0  0  0  0  0  0  0  0  0  0  0
   46.8850   33.8240   40.3500 N   0  0  0  0  0  0  0  0  0  0  0  0
   46.6540   34.0660   41.6450 C   0  0  0  0  0  0  0  0  0  0  0  0
   47.4500   34.9150   42.3460 N   0  0  0  0  0  0  0  0  0  0  0  0
   48.1790   34.1530   38.2390 C   0  0  0  0  0  0  0  0  0  0  0  0
   48.9960   33.0230   38.2580 F   0  0  0  0  0  0  0  0  0  0  0  0
   47.0350   33.8350   37.5490 F   0  0  0  0  0  0  0  0  0  0  0  0
   48.8580   35.1790   37.6430 F   0  0  0  0  0  0  0  0  0  0  0  0
   44.0780   35.3860   41.6570 N   0  0  0  0  0  0  0  0  0  0  0  0
   42.8100   35.6020   40.9980 C   0  0  2  0  0  0  0  0  0  0  0  0
   41.6020   35.3000   41.8400 C   0  0  0  0  0  0  0  0  0  0  0  0
   41.9880   34.4530   40.6400 C   0  0  1  0  0  0  0  0  0  0  0  0
   41.2190   34.6760   39.3630 C   0  0  0  0  0  0  0  0  0  0  0  0
   41.5490   35.5870   38.3540 C   0  0  0  0  0  0  0  0  0  0  0  0
   40.6170   35.4950   37.3690 N   0  0  0  0  0  0  0  0  0  0  0  0
   39.7370   34.5530   37.7580 C   0  0  0  0  0  0  0  0  0  0  0  0
   40.0880   34.0610   38.9440 N   0  0  0  0  0  0  0  0  0  0  0  0
   45.9290   32.3830   42.0965 H   0  0  0  0  0  0  0  0  0  0  0  0
   44.4658   33.3371   44.3022 H   0  0  0  0  0  0  0  0  0  0  0  0
   45.1802   34.7172   44.2751 H   0  0  0  0  0  0  0  0  0  0  0  0
   43.2555   33.7400   41.7111 H   0  0  0  0  0  0  0  0  0  0  0  0
   49.1172   36.2161   42.3402 H   0  0  0  0  0  0  0  0  0  0  0  0
   49.5886   35.7841   39.8847 H   0  0  0  0  0  0  0  0  0  0  0  0
   44.1654   36.0554   42.4349 H   0  0  0  0  0  0  0  0  0  0  0  0
   43.1795   36.4601   40.4174 H   0  0  0  0  0  0  0  0  0  0  0  0
   41.7194   34.9057   42.8602 H   0  0  0  0  0  0  0  0  0  0  0  0
   40.7066   35.8500   42.1652 H   0  0  0  0  0  0  0  0  0  0  0  0
   42.1331   33.3712   40.5035 H   0  0  0  0  0  0  0  0  0  0  0  0
   42.4163   36.2636   38.3572 H   0  0  0  0  0  0  0  0  0  0  0  0
   38.8564   34.2362   37.1799 H   0  0  0  0  0  0  0  0  0  0  0  0
   39.5800   33.3290   39.4607 H   0  0  0  0  0  0  0  0  0  0  0  0
  1  2  1  0
  3  1  1  0
  3  2  1  0
  4  9  2  0
  5  4  1  0
  6  7  1  0
  6  5  2  0
  7  8  2  0
  8  1  1  0
  8  9  1  0
 10 11  1  0
 10  6  1  0
 12 10  1  0
 13 10  1  0
 14  3  1  0
 15 14  1  0
 15 16  1  0
 17 15  1  0
 17 16  1  0
 18 17  1  0
 19 18  2  0
 20 21  2  0
 20 19  1  0
 21 22  1  0
 22 18  1  0
  1 23  1  1
  2 24  1  0
  2 25  1  0
  3 26  1  1
  4 27  1  0
  5 28  1  0
 14 29  1  0
 15 30  1  6
 16 31  1  0
 16 32  1  0
 17 33  1  1
 19 34  1  0
 21 35  1  0
 22 36  1  0
M  ISO  8  23  13  24  13  25  13  26  13  27  14  28  14  29   5  30  13
M  ISO  6  31  13  32  13  33  13  34  14  35  14  36   9
M  END
>  <minimizedAffinity>  (1) 
-5.30741787

>  <minimizedRMSD>  (1) 
2.95675635

$$$$
