
     RDKit          3D

 41 44  0  0  1  0  0  0  0  0999 V2000
   46.3890   31.8240   39.3830 C   0  0  1  0  0  0  0  0  0  0  0  0
   46.0300   30.3750   39.3450 C   0  0  0  0  0  0  0  0  0  0  0  0
   45.2680   31.3260   40.2200 C   0  0  1  0  0  0  0  0  0  0  0  0
   49.6620   31.8070   41.1150 C   0  0  0  0  0  0  0  0  0  0  0  0
   49.7810   33.1710   41.4880 C   0  0  0  0  0  0  0  0  0  0  0  0
   48.7640   34.0430   41.1500 C   0  0  0  0  0  0  0  0  0  0  0  0
   47.6810   33.5690   40.4710 N   0  0  0  0  0  0  0  0  0  0  0  0
   47.5880   32.2780   40.1290 C   0  0  0  0  0  0  0  0  0  0  0  0
   48.5750   31.4060   40.4510 N   0  0  0  0  0  0  0  0  0  0  0  0
   48.8670   35.4910   41.5370 C   0  0  0  0  0  0  0  0  0  0  0  0
   49.9430   35.5170   42.4240 F   0  0  0  0  0  0  0  0  0  0  0  0
   49.1840   36.3020   40.4700 F   0  0  0  0  0  0  0  0  0  0  0  0
   47.7440   35.9340   42.1770 F   0  0  0  0  0  0  0  0  0  0  0  0
   45.4140   31.0830   41.6200 N   0  0  0  0  0  0  0  0  0  0  0  0
   44.6050   31.9720   42.4200 C   0  0  2  0  0  0  0  0  0  0  0  0
   43.4460   32.5840   41.7090 C   0  0  0  0  0  0  0  0  0  0  0  0
   44.6630   33.4060   42.1650 C   0  0  1  0  0  0  0  0  0  0  0  0
   44.4960   34.2420   43.3310 N   0  0  0  0  0  0  0  0  0  0  0  0
   45.3180   33.8770   44.4460 C   0  0  0  0  0  0  0  0  0  0  0  0
   44.8820   34.9690   45.4330 C   0  0  0  0  0  0  0  0  0  0  0  0
   44.6020   36.1800   44.5350 C   0  0  0  0  0  0  0  0  0  0  0  0
   44.6750   35.6420   43.1170 C   0  0  0  0  0  0  0  0  0  0  0  0
   46.5303   32.5795   38.5961 H   0  0  0  0  0  0  0  0  0  0  0  0
   45.5546   29.9480   38.4497 H   0  0  0  0  0  0  0  0  0  0  0  0
   46.5728   29.4316   39.5042 H   0  0  0  0  0  0  0  0  0  0  0  0
   44.2345   31.6808   40.3463 H   0  0  0  0  0  0  0  0  0  0  0  0
   50.4554   31.0889   41.3697 H   0  0  0  0  0  0  0  0  0  0  0  0
   50.6659   33.5272   42.0357 H   0  0  0  0  0  0  0  0  0  0  0  0
   45.1335   30.1120   41.8183 H   0  0  0  0  0  0  0  0  0  0  0  0
   44.7398   31.3799   43.3372 H   0  0  0  0  0  0  0  0  0  0  0  0
   42.4768   32.6954   42.2172 H   0  0  0  0  0  0  0  0  0  0  0  0
   42.9177   32.4108   40.7598 H   0  0  0  0  0  0  0  0  0  0  0  0
   45.3574   34.0951   41.6621 H   0  0  0  0  0  0  0  0  0  0  0  0
   45.0850   32.8682   44.8175 H   0  0  0  0  0  0  0  0  0  0  0  0
   46.3977   33.8275   44.2417 H   0  0  0  0  0  0  0  0  0  0  0  0
   43.9753   34.6664   45.9774 H   0  0  0  0  0  0  0  0  0  0  0  0
   45.6403   35.1753   46.2027 H   0  0  0  0  0  0  0  0  0  0  0  0
   43.6031   36.5918   44.7414 H   0  0  0  0  0  0  0  0  0  0  0  0
   45.3200   36.9958   44.7052 H   0  0  0  0  0  0  0  0  0  0  0  0
   45.6507   35.8560   42.6563 H   0  0  0  0  0  0  0  0  0  0  0  0
   43.9392   36.0873   42.4312 H   0  0  0  0  0  0  0  0  0  0  0  0
  1  8  1  0
  1  3  1  0
  2  1  1  0
  2  3  1  0
  3 14  1  0
  4  5  2  0
  6  5  1  0
  6 10  1  0
  7  6  2  0
  8  9  2  0
  8  7  1  0
  9  4  1  0
 10 13  1  0
 10 11  1  0
 12 10  1  0
 14 15  1  0
 16 17  1  0
 16 15  1  0
 17 15  1  0
 17 18  1  0
 18 19  1  0
 19 20  1  0
 21 20  1  0
 22 18  1  0
 22 21  1  0
  1 23  1  6
  2 24  1  0
  2 25  1  0
  3 26  1  6
  4 27  1  0
  5 28  1  0
 14 29  1  0
 15 30  1  1
 16 31  1  0
 16 32  1  0
 17 33  1  6
 19 34  1  0
 19 35  1  0
 20 36  1  0
 20 37  1  0
 21 38  1  0
 21 39  1  0
 22 40  1  0
 22 41  1  0
M  ISO  8  23  13  24  13  25  13  26  13  27  14  28  14  29   5  30  13
M  ISO  8  31  13  32  13  33  13  34  13  35  13  36  13  37  13  38  13
M  ISO  3  39  13  40  13  41  13
M  END
>  <minimizedAffinity>  (1) 
-4.81424379

>  <minimizedRMSD>  (1) 
4.83175373

$$$$
