
     RDKit          3D

 31 33  0  0  1  0  0  0  0  0999 V2000
   43.9210   32.5410   41.1490 C   0  0  1  0  0  0  0  0  0  0  0  0
   42.8590   32.0300   42.0660 C   0  0  0  0  0  0  0  0  0  0  0  0
   42.5510   33.1110   41.0730 C   0  0  1  0  0  0  0  0  0  0  0  0
   45.7740   34.8720   43.3490 C   0  0  0  0  0  0  0  0  0  0  0  0
   46.9350   35.1360   42.5620 C   0  0  0  0  0  0  0  0  0  0  0  0
   47.0420   34.5210   41.3260 C   0  0  0  0  0  0  0  0  0  0  0  0
   46.0470   33.6910   40.9010 N   0  0  0  0  0  0  0  0  0  0  0  0
   44.9660   33.4590   41.6570 C   0  0  0  0  0  0  0  0  0  0  0  0
   44.8350   34.0480   42.8740 N   0  0  0  0  0  0  0  0  0  0  0  0
   48.2520   34.7840   40.4750 C   0  0  0  0  0  0  0  0  0  0  0  0
   49.1180   33.7430   40.8090 F   0  0  0  0  0  0  0  0  0  0  0  0
   47.9800   34.6950   39.1310 F   0  0  0  0  0  0  0  0  0  0  0  0
   48.8460   35.9740   40.7850 F   0  0  0  0  0  0  0  0  0  0  0  0
   42.2230   34.3710   41.6630 N   0  0  0  0  0  0  0  0  0  0  0  0
   41.8970   35.3730   40.6740 C   0  0  2  0  0  0  0  0  0  0  0  0
   40.5160   35.9680   40.8260 C   0  0  0  0  0  0  0  0  0  0  0  0
   40.9080   35.0710   39.6510 C   0  0  1  0  0  0  0  0  0  0  0  0
   41.1570   35.7810   38.3460 C   0  0  0  0  0  0  0  0  0  0  0  0
   40.5810   35.5670   37.2870 O   0  0  0  0  0  0  0  0  0  0  0  0
   44.6220   32.0412   40.4643 H   0  0  0  0  0  0  0  0  0  0  0  0
   42.4488   31.0191   41.9254 H   0  0  0  0  0  0  0  0  0  0  0  0
   42.7558   31.9183   43.1554 H   0  0  0  0  0  0  0  0  0  0  0  0
   41.8732   33.2793   40.2231 H   0  0  0  0  0  0  0  0  0  0  0  0
   45.6533   35.3418   44.3363 H   0  0  0  0  0  0  0  0  0  0  0  0
   47.7237   35.8100   42.9275 H   0  0  0  0  0  0  0  0  0  0  0  0
   41.4121   34.2440   42.2853 H   0  0  0  0  0  0  0  0  0  0  0  0
   42.9268   35.7549   40.6125 H   0  0  0  0  0  0  0  0  0  0  0  0
   39.8326   35.5995   41.6052 H   0  0  0  0  0  0  0  0  0  0  0  0
   40.0951   36.9768   40.9491 H   0  0  0  0  0  0  0  0  0  0  0  0
   40.4822   34.1560   39.2134 H   0  0  0  0  0  0  0  0  0  0  0  0
   41.9285   36.5651   38.3443 H   0  0  0  0  0  0  0  0  0  0  0  0
  1  8  1  0
  1  2  1  0
  3  1  1  0
  3 14  1  0
  3  2  1  0
  5  4  2  0
  6  5  1  0
  7  6  2  0
  7  8  1  0
  8  9  2  0
  9  4  1  0
 10 13  1  0
 10 11  1  0
 10  6  1  0
 12 10  1  0
 15 16  1  0
 15 14  1  0
 17 15  1  0
 17 16  1  0
 18 17  1  0
 19 18  2  0
  1 20  1  6
  2 21  1  0
  2 22  1  0
  3 23  1  6
  4 24  1  0
  5 25  1  0
 14 26  1  0
 15 27  1  6
 16 28  1  0
 16 29  1  0
 17 30  1  6
 18 31  1  0
M  ISO  8  20  13  21  13  22  13  23  13  24  14  25  14  26   5  27  13
M  ISO  4  28  13  29  13  30  13  31   6
M  END
>  <minimizedAffinity>  (1) 
-5.06379938

>  <minimizedRMSD>  (1) 
1.10864294

$$$$
