
     RDKit          3D

 36 39  0  0  1  0  0  0  0  0999 V2000
   45.0970   32.4400   41.6470 C   0  0  1  0  0  0  0  0  0  0  0  0
   44.5580   32.4160   43.0410 C   0  0  0  0  0  0  0  0  0  0  0  0
   43.8000   33.1000   41.9420 C   0  0  1  0  0  0  0  0  0  0  0  0
   47.7780   34.9770   41.9520 C   0  0  0  0  0  0  0  0  0  0  0  0
   48.2870   35.0140   40.6210 C   0  0  0  0  0  0  0  0  0  0  0  0
   47.7000   34.1840   39.6780 C   0  0  0  0  0  0  0  0  0  0  0  0
   46.6700   33.3700   40.0480 N   0  0  0  0  0  0  0  0  0  0  0  0
   46.2150   33.3570   41.3060 C   0  0  0  0  0  0  0  0  0  0  0  0
   46.7680   34.1570   42.2530 N   0  0  0  0  0  0  0  0  0  0  0  0
   48.2120   34.2040   38.2670 C   0  0  0  0  0  0  0  0  0  0  0  0
   49.0980   33.1260   38.2260 F   0  0  0  0  0  0  0  0  0  0  0  0
   47.2190   33.9630   37.3440 F   0  0  0  0  0  0  0  0  0  0  0  0
   48.8870   35.3550   37.9810 F   0  0  0  0  0  0  0  0  0  0  0  0
   43.6890   34.5170   42.1090 N   0  0  0  0  0  0  0  0  0  0  0  0
   42.6810   35.0980   41.2560 C   0  0  2  0  0  0  0  0  0  0  0  0
   41.3680   35.3610   41.9270 C   0  0  0  0  0  0  0  0  0  0  0  0
   41.5440   34.2870   40.8500 C   0  0  1  0  0  0  0  0  0  0  0  0
   41.0390   34.6220   39.5140 N   0  0  0  0  0  0  0  0  0  0  0  0
   39.9080   34.1020   39.0000 C   0  0  0  0  0  0  0  0  0  0  0  0
   39.7820   34.6550   37.7440 C   0  0  0  0  0  0  0  0  0  0  0  0
   40.8310   35.4980   37.5150 N   0  0  0  0  0  0  0  0  0  0  0  0
   41.6050   35.4600   38.6370 C   0  0  0  0  0  0  0  0  0  0  0  0
   45.4592   31.6534   40.9687 H   0  0  0  0  0  0  0  0  0  0  0  0
   44.1797   31.4764   43.4699 H   0  0  0  0  0  0  0  0  0  0  0  0
   44.9370   32.7124   44.0302 H   0  0  0  0  0  0  0  0  0  0  0  0
   42.8180   33.0323   41.4510 H   0  0  0  0  0  0  0  0  0  0  0  0
   48.2157   35.6217   42.7284 H   0  0  0  0  0  0  0  0  0  0  0  0
   49.1195   35.6802   40.3504 H   0  0  0  0  0  0  0  0  0  0  0  0
   43.4458   34.7157   43.0900 H   0  0  0  0  0  0  0  0  0  0  0  0
   43.4069   35.6916   40.6810 H   0  0  0  0  0  0  0  0  0  0  0  0
   41.2124   35.0759   42.9780 H   0  0  0  0  0  0  0  0  0  0  0  0
   40.7152   36.2335   42.0775 H   0  0  0  0  0  0  0  0  0  0  0  0
   41.3111   33.2132   40.7981 H   0  0  0  0  0  0  0  0  0  0  0  0
   39.2269   33.3853   39.4821 H   0  0  0  0  0  0  0  0  0  0  0  0
   38.9646   34.4494   37.0371 H   0  0  0  0  0  0  0  0  0  0  0  0
   42.5369   36.0228   38.7947 H   0  0  0  0  0  0  0  0  0  0  0  0
  1  3  1  0
  1  2  1  0
  3 14  1  0
  3  2  1  0
  4  9  2  0
  5  4  1  0
  6  7  1  0
  6  5  2  0
  7  8  2  0
  8  1  1  0
  8  9  1  0
 10  6  1  0
 11 10  1  0
 12 10  1  0
 13 10  1  0
 15 16  1  0
 15 14  1  0
 17 15  1  0
 17 16  1  0
 18 17  1  0
 19 18  1  0
 20 19  2  0
 21 20  1  0
 21 22  2  0
 22 18  1  0
  1 23  1  6
  2 24  1  0
  2 25  1  0
  3 26  1  6
  4 27  1  0
  5 28  1  0
 14 29  1  0
 15 30  1  6
 16 31  1  0
 16 32  1  0
 17 33  1  1
 19 34  1  0
 20 35  1  0
 22 36  1  0
M  ISO  8  23  13  24  13  25  13  26  13  27  14  28  14  29   5  30  13
M  ISO  6  31  13  32  13  33  13  34  14  35  14  36  14
M  END
>  <minimizedAffinity>  (1) 
-5.10375404

>  <minimizedRMSD>  (1) 
2.70705938

$$$$
