
     RDKit          3D

 32 34  0  0  1  0  0  0  0  0999 V2000
   44.6310   33.4570   40.2590 C   0  0  1  0  0  0  0  0  0  0  0  0
   43.5830   32.4370   40.5580 C   0  0  0  0  0  0  0  0  0  0  0  0
   43.2500   33.9000   40.5780 C   0  0  1  0  0  0  0  0  0  0  0  0
   46.4480   33.6620   43.4780 C   0  0  0  0  0  0  0  0  0  0  0  0
   47.5900   34.4170   43.0980 C   0  0  0  0  0  0  0  0  0  0  0  0
   47.7100   34.8300   41.7850 C   0  0  0  0  0  0  0  0  0  0  0  0
   46.7290   34.5020   40.8910 N   0  0  0  0  0  0  0  0  0  0  0  0
   45.6600   33.7890   41.2750 C   0  0  0  0  0  0  0  0  0  0  0  0
   45.5230   33.3730   42.5590 N   0  0  0  0  0  0  0  0  0  0  0  0
   48.9070   35.6320   41.3590 C   0  0  0  0  0  0  0  0  0  0  0  0
   49.9830   34.8180   41.7090 F   0  0  0  0  0  0  0  0  0  0  0  0
   48.9510   35.8360   40.0020 F   0  0  0  0  0  0  0  0  0  0  0  0
   48.9990   36.8110   42.0450 F   0  0  0  0  0  0  0  0  0  0  0  0
   42.8930   34.3970   41.8720 N   0  0  0  0  0  0  0  0  0  0  0  0
   41.6600   35.1490   41.8470 C   0  0  2  0  0  0  0  0  0  0  0  0
   40.4190   34.3070   41.6400 C   0  0  0  0  0  0  0  0  0  0  0  0
   40.9330   35.2830   40.5900 C   0  0  1  0  0  0  0  0  0  0  0  0
   40.0860   36.5600   40.5030 C   0  0  0  0  0  0  0  0  0  0  0  0
   45.3406   33.5789   39.4274 H   0  0  0  0  0  0  0  0  0  0  0  0
   43.1943   31.7939   39.7547 H   0  0  0  0  0  0  0  0  0  0  0  0
   43.4846   31.6040   41.2697 H   0  0  0  0  0  0  0  0  0  0  0  0
   42.5696   34.5982   40.0685 H   0  0  0  0  0  0  0  0  0  0  0  0
   46.3272   33.3197   44.5164 H   0  0  0  0  0  0  0  0  0  0  0  0
   48.3654   34.6684   43.8366 H   0  0  0  0  0  0  0  0  0  0  0  0
   42.7822   33.5996   42.5145 H   0  0  0  0  0  0  0  0  0  0  0  0
   42.0087   35.8880   42.5834 H   0  0  0  0  0  0  0  0  0  0  0  0
   40.5023   33.2219   41.4801 H   0  0  0  0  0  0  0  0  0  0  0  0
   39.4722   34.1453   42.1761 H   0  0  0  0  0  0  0  0  0  0  0  0
   41.2107   35.2125   39.5280 H   0  0  0  0  0  0  0  0  0  0  0  0
   39.8512   36.9141   41.5176 H   0  0  0  0  0  0  0  0  0  0  0  0
   40.6484   37.3370   39.9645 H   0  0  0  0  0  0  0  0  0  0  0  0
   39.1514   36.3441   39.9645 H   0  0  0  0  0  0  0  0  0  0  0  0
  1  2  1  0
  1  3  1  0
  1  8  1  0
  2  3  1  0
  3 14  1  0
  5  4  2  0
  6  5  1  0
  7  8  1  0
  7  6  2  0
  8  9  2  0
  9  4  1  0
 10 11  1  0
 10  6  1  0
 10 13  1  0
 12 10  1  0
 15 14  1  0
 16 15  1  0
 17 16  1  0
 17 15  1  0
 18 17  1  0
  1 19  1  6
  2 20  1  0
  2 21  1  0
  3 22  1  6
  4 23  1  0
  5 24  1  0
 14 25  1  0
 15 26  1  1
 16 27  1  0
 16 28  1  0
 17 29  1  6
 18 30  1  0
 18 31  1  0
 18 32  1  0
M  ISO  8  19  13  20  13  21  13  22  13  23  14  24  14  25   5  26  13
M  ISO  6  27  13  28  13  29  13  30   8  31   8  32   8
M  END
>  <minimizedAffinity>  (1) 
-5.02238989

>  <minimizedRMSD>  (1) 
0.998006821

$$$$
