
     RDKit          3D

 22 23  0  0  0  0  0  0  0  0999 V2000
   46.8420   32.8320   45.0810 C   0  0  0  0  0  0  0  0  0  0  0  0
   47.2490   31.8850   44.3800 O   0  0  0  0  0  0  0  0  0  0  0  0
   44.5270   35.6490   44.8320 C   0  0  0  0  0  0  0  0  0  0  0  0
   44.8080   36.1720   43.5640 C   0  0  0  0  0  0  0  0  0  0  0  0
   45.7930   35.5520   42.8030 C   0  0  0  0  0  0  0  0  0  0  0  0
   46.4310   34.4690   43.3330 N   0  0  0  0  0  0  0  0  0  0  0  0
   46.1380   33.9910   44.5520 C   0  0  0  0  0  0  0  0  0  0  0  0
   45.2000   34.5750   45.2850 N   0  0  0  0  0  0  0  0  0  0  0  0
   47.1010   32.7270   46.4530 O   0  0  0  0  0  0  0  0  0  0  0  0
   46.3930   31.8900   47.2870 C   0  0  0  0  0  0  0  0  0  0  0  0
   46.1400   32.2800   48.6030 C   0  0  0  0  0  0  0  0  0  0  0  0
   45.4300   31.4440   49.4410 C   0  0  0  0  0  0  0  0  0  0  0  0
   44.9610   30.2210   49.0090 C   0  0  0  0  0  0  0  0  0  0  0  0
   45.2290   29.8540   47.6840 C   0  0  0  0  0  0  0  0  0  0  0  0
   45.9240   30.6920   46.8890 N   0  0  0  0  0  0  0  0  0  0  0  0
   43.7543   36.1170   45.4596 H   0  0  0  0  0  0  0  0  0  0  0  0
   44.2650   37.0485   43.1806 H   0  0  0  0  0  0  0  0  0  0  0  0
   46.0507   35.9248   41.8007 H   0  0  0  0  0  0  0  0  0  0  0  0
   46.5051   33.2502   48.9711 H   0  0  0  0  0  0  0  0  0  0  0  0
   45.2339   31.7601   50.4762 H   0  0  0  0  0  0  0  0  0  0  0  0
   44.3967   29.5576   49.6809 H   0  0  0  0  0  0  0  0  0  0  0  0
   44.8746   28.8882   47.2947 H   0  0  0  0  0  0  0  0  0  0  0  0
  1  9  1  0
  2  1  2  0
  3  8  2  0
  4  3  1  0
  5  6  1  0
  5  4  2  0
  6  7  2  0
  7  1  1  0
  7  8  1  0
  9 10  1  0
 10 11  2  0
 11 12  1  0
 13 12  2  0
 14 13  1  0
 15 10  1  0
 15 14  2  0
  3 16  1  0
  4 17  1  0
  5 18  1  0
 11 19  1  0
 12 20  1  0
 13 21  1  0
 14 22  1  0
M  ISO  7  16  14  17  14  18  14  19  14  20  14  21  14  22  14
M  END
>  <minimizedAffinity>  (1) 
-4.74455643

>  <minimizedRMSD>  (1) 
2.24128962

$$$$
