
     RDKit          3D

 16 16  0  0  0  0  0  0  0  0999 V2000
   47.0190   34.6090   42.6730 C   0  0  0  0  0  0  0  0  0  0  0  0
   45.8540   35.4110   42.8390 C   0  0  0  0  0  0  0  0  0  0  0  0
   45.0910   35.2080   43.9960 C   0  0  0  0  0  0  0  0  0  0  0  0
   45.4970   34.2680   44.8890 N   0  0  0  0  0  0  0  0  0  0  0  0
   46.6170   33.5210   44.6910 C   0  0  0  0  0  0  0  0  0  0  0  0
   47.3590   33.7020   43.5920 N   0  0  0  0  0  0  0  0  0  0  0  0
   47.7000   34.9590   41.3990 C   0  0  0  0  0  0  0  0  0  0  0  0
   48.9610   35.7590   41.6620 C   0  0  0  0  0  0  0  0  0  0  0  0
   45.5646   36.1607   42.0879 H   0  0  0  0  0  0  0  0  0  0  0  0
   44.1808   35.7982   44.1781 H   0  0  0  0  0  0  0  0  0  0  0  0
   46.9130   32.7672   45.4354 H   0  0  0  0  0  0  0  0  0  0  0  0
   47.0169   35.5571   40.7779 H   0  0  0  0  0  0  0  0  0  0  0  0
   47.9755   34.0288   40.8805 H   0  0  0  0  0  0  0  0  0  0  0  0
   49.1140   35.8561   42.7470 H   0  0  0  0  0  0  0  0  0  0  0  0
   49.8230   35.2422   41.2149 H   0  0  0  0  0  0  0  0  0  0  0  0
   48.8607   36.7590   41.2149 H   0  0  0  0  0  0  0  0  0  0  0  0
  1  2  2  0
  1  6  1  0
  2  3  1  0
  3  4  2  0
  5  4  1  0
  6  5  2  0
  7  8  1  0
  7  1  1  0
  2  9  1  0
  3 10  1  0
  5 11  1  0
  7 12  1  0
  7 13  1  0
  8 14  1  0
  8 15  1  0
  8 16  1  0
M  ISO  8   9  14  10  14  11  14  12   8  13   8  14   8  15   8  16   8
M  END
>  <minimizedAffinity>  (1) 
-3.23861027

>  <minimizedRMSD>  (1) 
3.78908849

$$$$
