
     RDKit          3D

 20 21  0  0  0  0  0  0  0  0999 V2000
   44.4760   36.1450   44.1820 C   0  0  0  0  0  0  0  0  0  0  0  0
   45.1380   36.1760   42.9510 C   0  0  0  0  0  0  0  0  0  0  0  0
   46.1400   35.2170   42.7050 C   0  0  0  0  0  0  0  0  0  0  0  0
   46.4110   34.3070   43.6870 N   0  0  0  0  0  0  0  0  0  0  0  0
   45.7450   34.3130   44.8650 C   0  0  0  0  0  0  0  0  0  0  0  0
   44.8000   35.2160   45.0990 N   0  0  0  0  0  0  0  0  0  0  0  0
   46.0640   33.3280   45.8830 C   0  0  0  0  0  0  0  0  0  0  0  0
   46.9850   32.4900   45.7970 O   0  0  0  0  0  0  0  0  0  0  0  0
   45.3160   33.2630   47.0730 O   0  0  0  0  0  0  0  0  0  0  0  0
   45.2980   32.0830   47.8180 C   0  0  0  0  0  0  0  0  0  0  0  0
   45.7210   31.9730   49.1470 C   0  0  0  0  0  0  0  0  0  0  0  0
   45.5750   30.6970   49.5760 N   0  0  0  0  0  0  0  0  0  0  0  0
   45.0660   30.0080   48.5320 C   0  0  0  0  0  0  0  0  0  0  0  0
   44.9050   30.8390   47.4940 N   0  0  0  0  0  0  0  0  0  0  0  0
   43.6889   36.8816   44.4009 H   0  0  0  0  0  0  0  0  0  0  0  0
   44.8826   36.9310   42.1929 H   0  0  0  0  0  0  0  0  0  0  0  0
   46.6876   35.2014   41.7511 H   0  0  0  0  0  0  0  0  0  0  0  0
   46.1144   32.8015   49.7543 H   0  0  0  0  0  0  0  0  0  0  0  0
   44.8225   28.9353   48.5338 H   0  0  0  0  0  0  0  0  0  0  0  0
   44.5317   30.5630   46.5746 H   0  0  0  0  0  0  0  0  0  0  0  0
  1  6  2  0
  2  1  1  0
  3  2  2  0
  3  4  1  0
  4  5  2  0
  5  6  1  0
  5  7  1  0
  7  9  1  0
  8  7  2  0
  9 10  1  0
 10 11  2  0
 11 12  1  0
 13 12  2  0
 14 10  1  0
 14 13  1  0
  1 15  1  0
  2 16  1  0
  3 17  1  0
 11 18  1  0
 13 19  1  0
 14 20  1  0
M  ISO  6  15  14  16  14  17  14  18  14  19  14  20   9
M  END
>  <minimizedAffinity>  (1) 
-4.58513546

>  <minimizedRMSD>  (1) 
1.23974454

$$$$
