
     RDKit          3D

 19 19  0  0  0  0  0  0  0  0999 V2000
   44.4830   35.8770   44.7550 C   0  0  0  0  0  0  0  0  0  0  0  0
   45.0750   35.8870   43.4890 C   0  0  0  0  0  0  0  0  0  0  0  0
   46.0170   34.9150   43.1710 C   0  0  0  0  0  0  0  0  0  0  0  0
   46.3210   33.9830   44.1210 N   0  0  0  0  0  0  0  0  0  0  0  0
   45.7320   33.9970   45.3400 C   0  0  0  0  0  0  0  0  0  0  0  0
   44.8270   34.9310   45.6460 N   0  0  0  0  0  0  0  0  0  0  0  0
   46.0590   33.0050   46.3460 C   0  0  0  0  0  0  0  0  0  0  0  0
   47.0440   32.2180   46.2210 O   0  0  0  0  0  0  0  0  0  0  0  0
   45.3070   32.8590   47.5070 O   0  0  0  0  0  0  0  0  0  0  0  0
   45.8300   32.4220   48.7360 C   0  0  0  0  0  0  0  0  0  0  0  0
   45.1500   31.2340   49.3270 C   0  0  0  0  0  0  0  0  0  0  0  0
   43.7378   36.6409   45.0215 H   0  0  0  0  0  0  0  0  0  0  0  0
   44.7987   36.6555   42.7521 H   0  0  0  0  0  0  0  0  0  0  0  0
   46.5025   34.8976   42.1841 H   0  0  0  0  0  0  0  0  0  0  0  0
   46.8894   32.1676   48.5842 H   0  0  0  0  0  0  0  0  0  0  0  0
   45.6747   33.2480   49.4457 H   0  0  0  0  0  0  0  0  0  0  0  0
   45.1870   31.2986   50.4245 H   0  0  0  0  0  0  0  0  0  0  0  0
   44.1012   31.2096   48.9963 H   0  0  0  0  0  0  0  0  0  0  0  0
   45.6601   30.3173   48.9963 H   0  0  0  0  0  0  0  0  0  0  0  0
  1  6  2  0
  2  1  1  0
  3  2  2  0
  3  4  1  0
  4  5  2  0
  5  6  1  0
  5  7  1  0
  7  9  1  0
  8  7  2  0
  9 10  1  0
 10 11  1  0
  1 12  1  0
  2 13  1  0
  3 14  1  0
 10 15  1  0
 10 16  1  0
 11 17  1  0
 11 18  1  0
 11 19  1  0
M  ISO  8  12  14  13  14  14  14  15   8  16   8  17   8  18   8  19   8
M  END
>  <minimizedAffinity>  (1) 
-4.00547409

>  <minimizedRMSD>  (1) 
0.759237289

$$$$
