
     RDKit          3D

 16 16  0  0  0  0  0  0  0  0999 V2000
   44.5200   35.6040   44.9210 C   0  0  0  0  0  0  0  0  0  0  0  0
   45.1210   35.5850   43.6600 C   0  0  0  0  0  0  0  0  0  0  0  0
   46.0990   34.6350   43.3910 C   0  0  0  0  0  0  0  0  0  0  0  0
   46.4350   33.7440   44.3950 N   0  0  0  0  0  0  0  0  0  0  0  0
   45.8200   33.8120   45.5880 C   0  0  0  0  0  0  0  0  0  0  0  0
   44.8810   34.7140   45.8670 N   0  0  0  0  0  0  0  0  0  0  0  0
   46.1900   32.8570   46.6400 C   0  0  0  0  0  0  0  0  0  0  0  0
   47.1710   32.0920   46.5940 O   0  0  0  0  0  0  0  0  0  0  0  0
   45.4440   32.7350   47.8040 O   0  0  0  0  0  0  0  0  0  0  0  0
   45.3260   31.4740   48.4550 C   0  0  0  0  0  0  0  0  0  0  0  0
   44.4080   31.4960   49.4590 F   0  0  0  0  0  0  0  0  0  0  0  0
   44.8440   30.5540   47.5150 F   0  0  0  0  0  0  0  0  0  0  0  0
   46.5380   31.0450   48.9620 F   0  0  0  0  0  0  0  0  0  0  0  0
   43.7450   36.3521   45.1441 H   0  0  0  0  0  0  0  0  0  0  0  0
   44.8240   36.3124   42.8902 H   0  0  0  0  0  0  0  0  0  0  0  0
   46.5917   34.5926   42.4084 H   0  0  0  0  0  0  0  0  0  0  0  0
  1  6  2  0
  2  1  1  0
  3  2  2  0
  3  4  1  0
  4  5  2  0
  5  6  1  0
  5  7  1  0
  7  9  1  0
  8  7  2  0
  9 10  1  0
 10 13  1  0
 10 11  1  0
 12 10  1  0
  1 14  1  0
  2 15  1  0
  3 16  1  0
M  ISO  3  14  14  15  14  16  14
M  END
>  <minimizedAffinity>  (1) 
-4.31495476

>  <minimizedRMSD>  (1) 
1.0616473

$$$$
