
     RDKit          3D

 25 25  0  0  0  0  0  0  0  0999 V2000
   44.5680   35.3860   45.2410 C   0  0  0  0  0  0  0  0  0  0  0  0
   44.8260   35.8140   43.9350 C   0  0  0  0  0  0  0  0  0  0  0  0
   45.8020   35.1520   43.1970 C   0  0  0  0  0  0  0  0  0  0  0  0
   46.4530   34.1110   43.8090 N   0  0  0  0  0  0  0  0  0  0  0  0
   46.1790   33.7270   45.0650 C   0  0  0  0  0  0  0  0  0  0  0  0
   45.2370   34.3570   45.7950 N   0  0  0  0  0  0  0  0  0  0  0  0
   46.8820   32.6210   45.6900 C   0  0  0  0  0  0  0  0  0  0  0  0
   47.3170   31.6450   45.0440 O   0  0  0  0  0  0  0  0  0  0  0  0
   47.1220   32.5650   47.0560 O   0  0  0  0  0  0  0  0  0  0  0  0
   46.5620   31.5880   47.9150 C   0  0  0  0  0  0  0  0  0  0  0  0
   45.5580   30.8380   47.0360 C   0  0  0  0  0  0  0  0  0  0  0  0
   45.7810   32.2090   49.0480 C   0  0  0  0  0  0  0  0  0  0  0  0
   47.5750   30.6020   48.3970 C   0  0  0  0  0  0  0  0  0  0  0  0
   43.7979   35.9038   45.8316 H   0  0  0  0  0  0  0  0  0  0  0  0
   44.2687   36.6568   43.5001 H   0  0  0  0  0  0  0  0  0  0  0  0
   46.0417   35.4508   42.1658 H   0  0  0  0  0  0  0  0  0  0  0  0
   44.8404   30.3019   47.6745 H   0  0  0  0  0  0  0  0  0  0  0  0
   45.0185   31.5561   46.4009 H   0  0  0  0  0  0  0  0  0  0  0  0
   46.0936   30.1170   46.4009 H   0  0  0  0  0  0  0  0  0  0  0  0
   46.2005   31.8754   50.0086 H   0  0  0  0  0  0  0  0  0  0  0  0
   45.8457   33.3050   48.9805 H   0  0  0  0  0  0  0  0  0  0  0  0
   44.7277   31.8990   48.9805 H   0  0  0  0  0  0  0  0  0  0  0  0
   47.5839   30.5934   49.4969 H   0  0  0  0  0  0  0  0  0  0  0  0
   47.3172   29.5996   48.0245 H   0  0  0  0  0  0  0  0  0  0  0  0
   48.5701   30.8868   48.0245 H   0  0  0  0  0  0  0  0  0  0  0  0
  1  6  2  0
  2  1  1  0
  3  4  1  0
  3  2  2  0
  4  5  2  0
  5  7  1  0
  5  6  1  0
  7  9  1  0
  8  7  2  0
  9 10  1  0
 10 13  1  0
 10 12  1  0
 11 10  1  0
  1 14  1  0
  2 15  1  0
  3 16  1  0
 11 17  1  0
 11 18  1  0
 11 19  1  0
 12 20  1  0
 12 21  1  0
 12 22  1  0
 13 23  1  0
 13 24  1  0
 13 25  1  0
M  ISO  8  14  14  15  14  16  14  17   8  18   8  19   8  20   8  21   8
M  ISO  4  22   8  23   8  24   8  25   8
M  END
>  <minimizedAffinity>  (1) 
-3.9810791

>  <minimizedRMSD>  (1) 
1.95089912

$$$$
