
     RDKit          3D

 21 22  0  0  0  0  0  0  0  0999 V2000
   45.4590   34.1000   45.7550 C   0  0  0  0  0  0  0  0  0  0  0  0
   44.5910   34.9640   45.9830 O   0  0  0  0  0  0  0  0  0  0  0  0
   47.3970   31.4490   47.3550 C   0  0  0  0  0  0  0  0  0  0  0  0
   46.6620   31.1640   48.5060 C   0  0  0  0  0  0  0  0  0  0  0  0
   45.4970   31.8900   48.7270 C   0  0  0  0  0  0  0  0  0  0  0  0
   45.1160   32.8520   47.8110 N   0  0  0  0  0  0  0  0  0  0  0  0
   45.8750   33.0830   46.7090 C   0  0  0  0  0  0  0  0  0  0  0  0
   47.0020   32.3960   46.4740 N   0  0  0  0  0  0  0  0  0  0  0  0
   46.0460   34.1520   44.4770 O   0  0  0  0  0  0  0  0  0  0  0  0
   45.1910   34.3340   43.3720 C   0  0  0  0  0  0  0  0  0  0  0  0
   44.8590   35.4780   42.6810 C   0  0  0  0  0  0  0  0  0  0  0  0
   43.9850   35.3520   41.6270 C   0  0  0  0  0  0  0  0  0  0  0  0
   43.4680   34.1600   41.2830 N   0  0  0  0  0  0  0  0  0  0  0  0
   43.8030   33.0390   41.9740 C   0  0  0  0  0  0  0  0  0  0  0  0
   44.6690   33.1210   43.0270 N   0  0  0  0  0  0  0  0  0  0  0  0
   48.3228   30.8883   47.1587 H   0  0  0  0  0  0  0  0  0  0  0  0
   46.9931   30.3908   49.2149 H   0  0  0  0  0  0  0  0  0  0  0  0
   44.8852   31.7007   49.6213 H   0  0  0  0  0  0  0  0  0  0  0  0
   45.2773   36.4559   42.9617 H   0  0  0  0  0  0  0  0  0  0  0  0
   43.7027   36.2466   41.0526 H   0  0  0  0  0  0  0  0  0  0  0  0
   43.3772   32.0666   41.6857 H   0  0  0  0  0  0  0  0  0  0  0  0
  1  2  2  0
  1  7  1  0
  3  4  2  0
  4  5  1  0
  6  5  2  0
  7  6  1  0
  8  7  2  0
  8  3  1  0
  9  1  1  0
 10  9  1  0
 11 10  2  0
 12 11  1  0
 13 12  2  0
 13 14  1  0
 14 15  2  0
 15 10  1  0
  3 16  1  0
  4 17  1  0
  5 18  1  0
 11 19  1  0
 12 20  1  0
 14 21  1  0
M  ISO  6  16  14  17  14  18  14  19  14  20  14  21  14
M  END
>  <minimizedAffinity>  (1) 
-4.2379837

>  <minimizedRMSD>  (1) 
6.24423885

$$$$
