
     RDKit          3D

 16 16  0  0  0  0  0  0  0  0999 V2000
   44.4970   35.8580   44.7120 C   0  0  0  0  0  0  0  0  0  0  0  0
   45.1090   35.8460   43.4570 C   0  0  0  0  0  0  0  0  0  0  0  0
   46.0570   34.8670   43.1850 C   0  0  0  0  0  0  0  0  0  0  0  0
   46.3490   33.9520   44.1660 N   0  0  0  0  0  0  0  0  0  0  0  0
   45.7290   34.0050   45.3650 C   0  0  0  0  0  0  0  0  0  0  0  0
   44.8100   34.9430   45.6460 N   0  0  0  0  0  0  0  0  0  0  0  0
   46.0560   33.0190   46.3960 C   0  0  0  0  0  0  0  0  0  0  0  0
   47.0410   32.2560   46.3310 O   0  0  0  0  0  0  0  0  0  0  0  0
   45.2600   32.8860   47.5280 O   0  0  0  0  0  0  0  0  0  0  0  0
   45.7060   32.3010   48.7370 C   0  0  0  0  0  0  0  0  0  0  0  0
   43.7463   36.6289   44.9403 H   0  0  0  0  0  0  0  0  0  0  0  0
   44.8457   36.5973   42.6979 H   0  0  0  0  0  0  0  0  0  0  0  0
   46.5609   34.8262   42.2080 H   0  0  0  0  0  0  0  0  0  0  0  0
   45.2844   32.8540   49.5893 H   0  0  0  0  0  0  0  0  0  0  0  0
   45.3759   31.2526   48.7807 H   0  0  0  0  0  0  0  0  0  0  0  0
   46.8044   32.3417   48.7807 H   0  0  0  0  0  0  0  0  0  0  0  0
  1  6  2  0
  2  1  1  0
  3  2  2  0
  3  4  1  0
  4  5  2  0
  5  6  1  0
  5  7  1  0
  7  9  1  0
  8  7  2  0
  9 10  1  0
  1 11  1  0
  2 12  1  0
  3 13  1  0
 10 14  1  0
 10 15  1  0
 10 16  1  0
M  ISO  6  11  14  12  14  13  14  14   8  15   8  16   8
M  END
>  <minimizedAffinity>  (1) 
-3.64212847

>  <minimizedRMSD>  (1) 
0.638823032

$$$$
