
     RDKit          3D

 30 32  0  0  0  0  0  0  0  0999 V2000
   44.2060   34.8470   41.0420 C   0  0  0  0  0  0  0  0  0  0  0  0
   45.4790   34.6940   41.6790 N   0  0  0  0  0  0  0  0  0  0  0  0
   45.6110   34.8980   43.0160 C   0  0  0  0  0  0  0  0  0  0  0  0
   46.9220   34.6790   43.3150 N   0  0  0  0  0  0  0  0  0  0  0  0
   47.5630   34.3530   42.1890 C   0  0  0  0  0  0  0  0  0  0  0  0
   48.8790   34.0370   41.9310 C   0  0  0  0  0  0  0  0  0  0  0  0
   49.7700   34.0050   42.8160 O   0  0  0  0  0  0  0  0  0  0  0  0
   49.1710   33.7520   40.6370 N   0  0  0  0  0  0  0  0  0  0  0  0
   48.3250   33.7470   39.6000 C   0  0  0  0  0  0  0  0  0  0  0  0
   48.8370   33.4190   38.3060 N   0  0  0  0  0  0  0  0  0  0  0  0
   47.0440   34.0620   39.8880 N   0  0  0  0  0  0  0  0  0  0  0  0
   46.6580   34.3560   41.1270 C   0  0  0  0  0  0  0  0  0  0  0  0
   43.2040   33.8020   41.4680 C   0  0  0  0  0  0  0  0  0  0  0  0
   41.8470   34.1380   41.0030 C   0  0  0  0  0  0  0  0  0  0  0  0
   41.8320   35.2720   40.1630 C   0  0  0  0  0  0  0  0  0  0  0  0
   40.6300   35.7330   39.6340 C   0  0  0  0  0  0  0  0  0  0  0  0
   39.5060   35.0470   39.9620 N   0  0  0  0  0  0  0  0  0  0  0  0
   39.5540   33.9560   40.7740 C   0  0  0  0  0  0  0  0  0  0  0  0
   40.7020   33.5190   41.2790 N   0  0  0  0  0  0  0  0  0  0  0  0
   44.3476   34.7737   39.9536 H   0  0  0  0  0  0  0  0  0  0  0  0
   43.8052   35.8274   41.3389 H   0  0  0  0  0  0  0  0  0  0  0  0
   44.8150   35.1840   43.7193 H   0  0  0  0  0  0  0  0  0  0  0  0
   50.1514   33.5133   40.4301 H   0  0  0  0  0  0  0  0  0  0  0  0
   49.8349   33.1921   38.1893 H   0  0  0  0  0  0  0  0  0  0  0  0
   48.2080   33.4096   37.4905 H   0  0  0  0  0  0  0  0  0  0  0  0
   43.4975   32.8305   41.0436 H   0  0  0  0  0  0  0  0  0  0  0  0
   43.1931   33.7602   42.5672 H   0  0  0  0  0  0  0  0  0  0  0  0
   42.7717   35.7923   39.9260 H   0  0  0  0  0  0  0  0  0  0  0  0
   40.5927   36.6154   38.9783 H   0  0  0  0  0  0  0  0  0  0  0  0
   38.6220   33.4247   41.0173 H   0  0  0  0  0  0  0  0  0  0  0  0
  1 13  1  0
  1  2  1  0
  2  3  1  0
  3  4  2  0
  5  4  1  0
  6  5  1  0
  6  7  2  0
  8  6  1  0
  9 11  2  0
  9  8  1  0
 10  9  1  0
 11 12  1  0
 12  2  1  0
 12  5  2  0
 14 19  1  0
 14 13  1  0
 15 14  2  0
 16 17  2  0
 16 15  1  0
 17 18  1  0
 18 19  2  0
  1 20  1  0
  1 21  1  0
  3 22  1  0
  8 23  1  0
 10 24  1  0
 10 25  1  0
 13 26  1  0
 13 27  1  0
 15 28  1  0
 16 29  1  0
 18 30  1  0
M  ISO  8  20   8  21   8  22  14  23   9  26   8  27   8  28  14  29  14
M  ISO  1  30  14
M  END
>  <minimizedAffinity>  (1) 
-5.0125351

>  <minimizedRMSD>  (1) 
5.98435736

$$$$
