
     RDKit          3D

 40 42  0  0  0  0  0  0  0  0999 V2000
   44.9590   35.9340   42.5520 O   0  0  0  0  0  0  0  0  0  0  0  0
   43.9640   35.3020   41.7620 C   0  0  0  0  0  0  0  0  0  0  0  0
   42.5900   35.3520   41.9390 C   0  0  0  0  0  0  0  0  0  0  0  0
   41.8450   34.6580   41.0410 C   0  0  0  0  0  0  0  0  0  0  0  0
   42.3840   33.9630   40.0400 N   0  0  0  0  0  0  0  0  0  0  0  0
   43.7380   33.9210   39.8750 C   0  0  0  0  0  0  0  0  0  0  0  0
   44.5390   34.6050   40.7570 N   0  0  0  0  0  0  0  0  0  0  0  0
   44.3640   33.1680   38.7510 C   0  0  0  0  0  0  0  0  0  0  0  0
   45.7670   32.7380   39.0550 C   0  0  0  0  0  0  0  0  0  0  0  0
   43.5570   31.9610   38.3470 C   0  0  0  0  0  0  0  0  0  0  0  0
   45.0780   35.4990   43.8840 C   0  0  0  0  0  0  0  0  0  0  0  0
   44.4700   36.1990   44.7320 O   0  0  0  0  0  0  0  0  0  0  0  0
   47.5740   32.8350   43.6910 C   0  0  0  0  0  0  0  0  0  0  0  0
   47.3160   32.0780   44.8200 C   0  0  0  0  0  0  0  0  0  0  0  0
   46.2850   32.4750   45.6520 C   0  0  0  0  0  0  0  0  0  0  0  0
   45.5660   33.6040   45.3170 N   0  0  0  0  0  0  0  0  0  0  0  0
   45.8600   34.3180   44.1900 C   0  0  0  0  0  0  0  0  0  0  0  0
   46.8490   33.9410   43.3890 N   0  0  0  0  0  0  0  0  0  0  0  0
   45.8870   31.7900   46.8730 C   0  0  0  0  0  0  0  0  0  0  0  0
   45.5710   30.4520   46.7880 C   0  0  0  0  0  0  0  0  0  0  0  0
   45.1880   29.7920   47.9610 C   0  0  0  0  0  0  0  0  0  0  0  0
   45.1120   30.4110   49.1920 C   0  0  0  0  0  0  0  0  0  0  0  0
   45.4420   31.7500   49.2110 C   0  0  0  0  0  0  0  0  0  0  0  0
   45.8230   32.4390   48.0860 C   0  0  0  0  0  0  0  0  0  0  0  0
   42.1298   35.9213   42.7600 H   0  0  0  0  0  0  0  0  0  0  0  0
   40.7499   34.6699   41.1441 H   0  0  0  0  0  0  0  0  0  0  0  0
   44.3874   33.8783   37.9114 H   0  0  0  0  0  0  0  0  0  0  0  0
   45.9091   32.6944   40.1449 H   0  0  0  0  0  0  0  0  0  0  0  0
   45.9477   31.7432   38.6216 H   0  0  0  0  0  0  0  0  0  0  0  0
   46.4740   33.4607   38.6216 H   0  0  0  0  0  0  0  0  0  0  0  0
   43.2061   31.4362   39.2478 H   0  0  0  0  0  0  0  0  0  0  0  0
   42.6913   32.2821   37.7491 H   0  0  0  0  0  0  0  0  0  0  0  0
   44.1846   31.2837   37.7491 H   0  0  0  0  0  0  0  0  0  0  0  0
   48.3903   32.5313   43.0191 H   0  0  0  0  0  0  0  0  0  0  0  0
   47.9148   31.1843   45.0497 H   0  0  0  0  0  0  0  0  0  0  0  0
   45.6183   29.9185   45.8272 H   0  0  0  0  0  0  0  0  0  0  0  0
   44.9342   28.7235   47.8985 H   0  0  0  0  0  0  0  0  0  0  0  0
   44.8075   29.8707   50.1005 H   0  0  0  0  0  0  0  0  0  0  0  0
   45.3981   32.2893   50.1687 H   0  0  0  0  0  0  0  0  0  0  0  0
   46.0766   33.5072   48.1535 H   0  0  0  0  0  0  0  0  0  0  0  0
  1 11  1  0
  2  3  2  0
  2  1  1  0
  4  3  1  0
  5  4  2  0
  6  5  1  0
  6  7  2  0
  7  2  1  0
  8  9  1  0
  8  6  1  0
 10  8  1  0
 11 17  1  0
 11 12  2  0
 13 14  2  0
 14 15  1  0
 15 19  1  0
 16 15  2  0
 17 16  1  0
 18 13  1  0
 18 17  2  0
 19 24  1  0
 20 19  2  0
 20 21  1  0
 21 22  2  0
 22 23  1  0
 24 23  2  0
  3 25  1  0
  4 26  1  0
  8 27  1  0
  9 28  1  0
  9 29  1  0
  9 30  1  0
 10 31  1  0
 10 32  1  0
 10 33  1  0
 13 34  1  0
 14 35  1  0
 20 36  1  0
 21 37  1  0
 22 38  1  0
 23 39  1  0
 24 40  1  0
M  ISO  8  25  14  26  14  27   8  28   8  29   8  30   8  31   8  32   8
M  ISO  8  33   8  34  14  35  14  36  14  37  14  38  14  39  14  40  14
M  END
>  <minimizedAffinity>  (1) 
-5.75553179

>  <minimizedRMSD>  (1) 
3.0320847

$$$$
