
     RDKit          3D

 32 33  0  0  0  0  0  0  0  0999 V2000
   44.9690   34.6010   43.1980 C   0  0  0  0  0  0  0  0  0  0  0  0
   44.5970   35.7300   42.5080 C   0  0  0  0  0  0  0  0  0  0  0  0
   43.6820   35.5780   41.5190 C   0  0  0  0  0  0  0  0  0  0  0  0
   43.1530   34.3790   41.2140 N   0  0  0  0  0  0  0  0  0  0  0  0
   43.5300   33.2730   41.9030 C   0  0  0  0  0  0  0  0  0  0  0  0
   44.4570   33.3840   42.9160 N   0  0  0  0  0  0  0  0  0  0  0  0
   42.9730   31.9220   41.5710 C   0  0  0  0  0  0  0  0  0  0  0  0
   43.4810   30.8540   42.4910 C   0  0  0  0  0  0  0  0  0  0  0  0
   41.4640   31.9110   41.5560 C   0  0  0  0  0  0  0  0  0  0  0  0
   45.9010   34.5070   44.2640 O   0  0  0  0  0  0  0  0  0  0  0  0
   45.3830   34.3030   45.5520 C   0  0  0  0  0  0  0  0  0  0  0  0
   44.5600   35.1490   45.9280 O   0  0  0  0  0  0  0  0  0  0  0  0
   47.2360   31.3350   46.6360 C   0  0  0  0  0  0  0  0  0  0  0  0
   46.6480   31.0040   47.8450 C   0  0  0  0  0  0  0  0  0  0  0  0
   45.6030   31.8130   48.2860 C   0  0  0  0  0  0  0  0  0  0  0  0
   45.2000   32.8910   47.5210 N   0  0  0  0  0  0  0  0  0  0  0  0
   45.8140   33.1680   46.3450 C   0  0  0  0  0  0  0  0  0  0  0  0
   46.8200   32.3970   45.9090 N   0  0  0  0  0  0  0  0  0  0  0  0
   44.8900   31.6190   49.4990 N   0  0  0  0  0  0  0  0  0  0  0  0
   45.0235   36.7151   42.7480 H   0  0  0  0  0  0  0  0  0  0  0  0
   43.3622   36.4623   40.9483 H   0  0  0  0  0  0  0  0  0  0  0  0
   43.3291   31.6986   40.5545 H   0  0  0  0  0  0  0  0  0  0  0  0
   43.3318   31.1677   43.5347 H   0  0  0  0  0  0  0  0  0  0  0  0
   42.9310   29.9193   42.3068 H   0  0  0  0  0  0  0  0  0  0  0  0
   44.5531   30.6909   42.3068 H   0  0  0  0  0  0  0  0  0  0  0  0
   41.0871   31.9083   42.5894 H   0  0  0  0  0  0  0  0  0  0  0  0
   41.0960   32.8065   41.0338 H   0  0  0  0  0  0  0  0  0  0  0  0
   41.1091   31.0102   41.0338 H   0  0  0  0  0  0  0  0  0  0  0  0
   48.0637   30.7177   46.2566 H   0  0  0  0  0  0  0  0  0  0  0  0
   46.9912   30.1394   48.4321 H   0  0  0  0  0  0  0  0  0  0  0  0
   44.1275   32.2618   49.7566 H   0  0  0  0  0  0  0  0  0  0  0  0
   45.1354   30.8356   50.1210 H   0  0  0  0  0  0  0  0  0  0  0  0
  1 10  1  0
  2  1  2  0
  3  2  1  0
  4  3  2  0
  4  5  1  0
  5  6  2  0
  6  1  1  0
  7  5  1  0
  7  8  1  0
  9  7  1  0
 10 11  1  0
 11 12  2  0
 11 17  1  0
 13 14  2  0
 14 15  1  0
 15 19  1  0
 16 15  2  0
 17 16  1  0
 18 17  2  0
 18 13  1  0
  2 20  1  0
  3 21  1  0
  7 22  1  0
  8 23  1  0
  8 24  1  0
  8 25  1  0
  9 26  1  0
  9 27  1  0
  9 28  1  0
 13 29  1  0
 14 30  1  0
 19 31  1  0
 19 32  1  0
M  ISO  8  20  14  21  14  22   8  23   8  24   8  25   8  26   8  27   8
M  ISO  3  28   8  29  14  30  14
M  END
>  <minimizedAffinity>  (1) 
-4.93202972

>  <minimizedRMSD>  (1) 
0.252130657

$$$$
