
     RDKit          3D

 37 39  0  0  0  0  0  0  0  0999 V2000
   45.9700   34.6970   43.8530 O   0  0  0  0  0  0  0  0  0  0  0  0
   44.9040   34.7150   42.9170 C   0  0  0  0  0  0  0  0  0  0  0  0
   44.3800   35.8110   42.2730 C   0  0  0  0  0  0  0  0  0  0  0  0
   43.3540   35.5910   41.4130 C   0  0  0  0  0  0  0  0  0  0  0  0
   42.8630   34.3590   41.1920 N   0  0  0  0  0  0  0  0  0  0  0  0
   43.3900   33.2870   41.8350 C   0  0  0  0  0  0  0  0  0  0  0  0
   44.4300   33.4640   42.7160 N   0  0  0  0  0  0  0  0  0  0  0  0
   42.8730   31.9030   41.5890 C   0  0  0  0  0  0  0  0  0  0  0  0
   43.4950   30.8910   42.5010 C   0  0  0  0  0  0  0  0  0  0  0  0
   41.3730   31.8220   41.6700 C   0  0  0  0  0  0  0  0  0  0  0  0
   45.8810   33.7880   44.9180 C   0  0  0  0  0  0  0  0  0  0  0  0
   45.2290   34.2000   45.8970 O   0  0  0  0  0  0  0  0  0  0  0  0
   48.1290   31.0950   43.9130 C   0  0  0  0  0  0  0  0  0  0  0  0
   47.7190   30.0260   44.6880 C   0  0  0  0  0  0  0  0  0  0  0  0
   46.6470   30.2210   45.5770 C   0  0  0  0  0  0  0  0  0  0  0  0
   46.0670   31.4780   45.6200 N   0  0  0  0  0  0  0  0  0  0  0  0
   46.5120   32.4880   44.8370 C   0  0  0  0  0  0  0  0  0  0  0  0
   47.5340   32.2940   43.9900 N   0  0  0  0  0  0  0  0  0  0  0  0
   46.1660   29.1700   46.4100 N   0  0  0  0  0  0  0  0  0  0  0  0
   44.9480   29.1530   46.9270 N   0  0  0  0  0  0  0  0  0  0  0  0
   44.8040   28.0240   47.6670 C   0  0  0  0  0  0  0  0  0  0  0  0
   46.0230   27.3580   47.5610 C   0  0  0  0  0  0  0  0  0  0  0  0
   46.8950   28.0930   46.7560 C   0  0  0  0  0  0  0  0  0  0  0  0
   44.7756   36.8225   42.4475 H   0  0  0  0  0  0  0  0  0  0  0  0
   42.9108   36.4457   40.8809 H   0  0  0  0  0  0  0  0  0  0  0  0
   43.1681   31.6605   40.5574 H   0  0  0  0  0  0  0  0  0  0  0  0
   43.3166   31.1813   43.5469 H   0  0  0  0  0  0  0  0  0  0  0  0
   43.0475   29.9039   42.3130 H   0  0  0  0  0  0  0  0  0  0  0  0
   44.5778   30.8445   42.3130 H   0  0  0  0  0  0  0  0  0  0  0  0
   41.0632   31.8053   42.7253 H   0  0  0  0  0  0  0  0  0  0  0  0
   40.9311   32.6976   41.1719 H   0  0  0  0  0  0  0  0  0  0  0  0
   41.0279   30.9039   41.1719 H   0  0  0  0  0  0  0  0  0  0  0  0
   48.9669   30.9580   43.2136 H   0  0  0  0  0  0  0  0  0  0  0  0
   48.2181   29.0488   44.6112 H   0  0  0  0  0  0  0  0  0  0  0  0
   43.9149   27.7036   48.2299 H   0  0  0  0  0  0  0  0  0  0  0  0
   46.2625   26.3971   48.0398 H   0  0  0  0  0  0  0  0  0  0  0  0
   47.9297   27.8501   46.4725 H   0  0  0  0  0  0  0  0  0  0  0  0
  1 11  1  0
  2  1  1  0
  3  2  2  0
  4  3  1  0
  5  4  2  0
  5  6  1  0
  6  7  2  0
  7  2  1  0
  8 10  1  0
  8  6  1  0
  8  9  1  0
 11 12  2  0
 13 18  2  0
 13 14  1  0
 14 15  2  0
 15 16  1  0
 15 19  1  0
 17 11  1  0
 17 16  2  0
 18 17  1  0
 19 23  1  0
 19 20  1  0
 20 21  2  0
 22 21  1  0
 23 22  2  0
  3 24  1  0
  4 25  1  0
  8 26  1  0
  9 27  1  0
  9 28  1  0
  9 29  1  0
 10 30  1  0
 10 31  1  0
 10 32  1  0
 13 33  1  0
 14 34  1  0
 21 35  1  0
 22 36  1  0
 23 37  1  0
M  ISO  8  24  14  25  14  26   8  27   8  28   8  29   8  30   8  31   8
M  ISO  6  32   8  33  14  34  14  35  14  36  14  37  14
M  END
>  <minimizedAffinity>  (1) 
-4.36950493

>  <minimizedRMSD>  (1) 
2.91632581

$$$$
