
     RDKit          3D

 47 50  0  0  0  0  0  0  0  0999 V2000
   48.0810   31.6790   43.6800 C   0  0  0  0  0  0  0  0  0  0  0  0
   47.4900   30.6620   44.3950 C   0  0  0  0  0  0  0  0  0  0  0  0
   46.2280   30.8640   44.9540 C   0  0  0  0  0  0  0  0  0  0  0  0
   45.6460   32.1050   44.7410 N   0  0  0  0  0  0  0  0  0  0  0  0
   46.2620   33.0770   44.0320 C   0  0  0  0  0  0  0  0  0  0  0  0
   47.4670   32.8630   43.5080 N   0  0  0  0  0  0  0  0  0  0  0  0
   45.5620   29.8710   45.7030 N   0  0  0  0  0  0  0  0  0  0  0  0
   44.5150   29.1900   45.2600 N   0  0  0  0  0  0  0  0  0  0  0  0
   44.1040   28.3120   46.1950 C   0  0  0  0  0  0  0  0  0  0  0  0
   44.9800   28.5020   47.2590 C   0  0  0  0  0  0  0  0  0  0  0  0
   45.8960   29.4900   46.9350 C   0  0  0  0  0  0  0  0  0  0  0  0
   46.8910   29.8740   47.8660 N   0  0  0  0  0  0  0  0  0  0  0  0
   48.1370   29.3120   47.8460 C   0  0  0  0  0  0  0  0  0  0  0  0
   49.1950   29.5840   48.6640 C   0  0  0  0  0  0  0  0  0  0  0  0
   48.9820   30.5430   49.6320 C   0  0  0  0  0  0  0  0  0  0  0  0
   49.9040   30.8480   50.4220 O   0  0  0  0  0  0  0  0  0  0  0  0
   47.7640   31.1140   49.6770 N   0  0  0  0  0  0  0  0  0  0  0  0
   46.7490   30.8120   48.8450 C   0  0  0  0  0  0  0  0  0  0  0  0
   45.6210   31.3670   48.9160 O   0  0  0  0  0  0  0  0  0  0  0  0
   45.6020   34.3560   43.8430 C   0  0  0  0  0  0  0  0  0  0  0  0
   45.1360   35.0570   44.7550 O   0  0  0  0  0  0  0  0  0  0  0  0
   45.4390   34.9070   42.5720 O   0  0  0  0  0  0  0  0  0  0  0  0
   44.1810   34.7420   41.9380 C   0  0  0  0  0  0  0  0  0  0  0  0
   43.4480   35.7130   41.3020 C   0  0  0  0  0  0  0  0  0  0  0  0
   42.2630   35.3420   40.7580 C   0  0  0  0  0  0  0  0  0  0  0  0
   41.8200   34.0800   40.8320 N   0  0  0  0  0  0  0  0  0  0  0  0
   42.5470   33.1190   41.4610 C   0  0  0  0  0  0  0  0  0  0  0  0
   43.7580   33.4570   42.0290 N   0  0  0  0  0  0  0  0  0  0  0  0
   42.0870   31.6930   41.5440 C   0  0  0  0  0  0  0  0  0  0  0  0
   42.9740   30.8620   42.3990 C   0  0  0  0  0  0  0  0  0  0  0  0
   40.6470   31.6090   42.0310 C   0  0  0  0  0  0  0  0  0  0  0  0
   49.0765   31.5199   43.2400 H   0  0  0  0  0  0  0  0  0  0  0  0
   48.0075   29.7000   44.5242 H   0  0  0  0  0  0  0  0  0  0  0  0
   43.2645   27.6040   46.1316 H   0  0  0  0  0  0  0  0  0  0  0  0
   44.9501   27.9523   48.2113 H   0  0  0  0  0  0  0  0  0  0  0  0
   48.3080   28.5459   47.0754 H   0  0  0  0  0  0  0  0  0  0  0  0
   50.1609   29.0686   48.5575 H   0  0  0  0  0  0  0  0  0  0  0  0
   47.5967   31.8311   50.3972 H   0  0  0  0  0  0  0  0  0  0  0  0
   43.8078   36.7504   41.2364 H   0  0  0  0  0  0  0  0  0  0  0  0
   41.6499   36.0962   40.2429 H   0  0  0  0  0  0  0  0  0  0  0  0
   42.1385   31.2850   40.5238 H   0  0  0  0  0  0  0  0  0  0  0  0
   42.7574   31.0649   43.4582 H   0  0  0  0  0  0  0  0  0  0  0  0
   42.7965   29.7975   42.1858 H   0  0  0  0  0  0  0  0  0  0  0  0
   44.0246   31.1084   42.1858 H   0  0  0  0  0  0  0  0  0  0  0  0
   40.6314   31.6081   43.1309 H   0  0  0  0  0  0  0  0  0  0  0  0
   40.0823   32.4757   41.6570 H   0  0  0  0  0  0  0  0  0  0  0  0
   40.1869   30.6825   41.6570 H   0  0  0  0  0  0  0  0  0  0  0  0
  1  2  2  0
  2  3  1  0
  3  7  1  0
  4  3  2  0
  5  4  1  0
  6  1  1  0
  6  5  2  0
  7 11  1  0
  8  7  1  0
  8  9  2  0
  9 10  1  0
 11 10  2  0
 11 12  1  0
 12 18  1  0
 13 12  1  0
 13 14  2  0
 14 15  1  0
 15 17  1  0
 15 16  2  0
 18 19  2  0
 18 17  1  0
 20  5  1  0
 20 21  2  0
 22 20  1  0
 23 28  1  0
 23 22  1  0
 24 23  2  0
 25 26  2  0
 25 24  1  0
 26 27  1  0
 27 29  1  0
 27 28  2  0
 29 31  1  0
 29 30  1  0
  1 32  1  0
  2 33  1  0
  9 34  1  0
 10 35  1  0
 13 36  1  0
 14 37  1  0
 17 38  1  0
 24 39  1  0
 25 40  1  0
 29 41  1  0
 30 42  1  0
 30 43  1  0
 30 44  1  0
 31 45  1  0
 31 46  1  0
 31 47  1  0
M  ISO  8  32  14  33  14  34  14  35  14  36  14  37  14  38   9  39  14
M  ISO  8  40  14  41   8  42   8  43   8  44   8  45   8  46   8  47   8
M  END
>  <minimizedAffinity>  (1) 
-5.9446106

>  <minimizedRMSD>  (1) 
2.66153765

$$$$
