
     RDKit          3D

 40 42  0  0  0  0  0  0  0  0999 V2000
   45.1930   35.1090   43.9500 C   0  0  0  0  0  0  0  0  0  0  0  0
   44.6560   35.7910   44.8440 O   0  0  0  0  0  0  0  0  0  0  0  0
   47.8980   32.6500   43.7950 C   0  0  0  0  0  0  0  0  0  0  0  0
   47.4500   31.6360   44.6170 C   0  0  0  0  0  0  0  0  0  0  0  0
   46.2110   31.7760   45.2440 C   0  0  0  0  0  0  0  0  0  0  0  0
   45.4960   32.9480   44.9940 N   0  0  0  0  0  0  0  0  0  0  0  0
   45.9770   33.9130   44.1810 C   0  0  0  0  0  0  0  0  0  0  0  0
   47.1720   33.7620   43.5860 N   0  0  0  0  0  0  0  0  0  0  0  0
   45.6790   30.7870   46.0980 N   0  0  0  0  0  0  0  0  0  0  0  0
   45.2420   29.6180   45.7050 N   0  0  0  0  0  0  0  0  0  0  0  0
   44.8080   28.8980   46.7580 C   0  0  0  0  0  0  0  0  0  0  0  0
   45.0050   29.7020   47.8460 C   0  0  0  0  0  0  0  0  0  0  0  0
   45.5520   30.8880   47.4130 C   0  0  0  0  0  0  0  0  0  0  0  0
   45.8440   31.9180   48.3570 C   0  0  0  0  0  0  0  0  0  0  0  0
   47.0060   32.3950   48.5940 O   0  0  0  0  0  0  0  0  0  0  0  0
   45.9000   32.8860   49.2850 O   0  0  0  0  0  0  0  0  0  0  0  0
   44.9800   35.5950   42.6600 O   0  0  0  0  0  0  0  0  0  0  0  0
   43.8840   35.0630   41.9250 C   0  0  0  0  0  0  0  0  0  0  0  0
   43.0070   35.7620   41.1350 C   0  0  0  0  0  0  0  0  0  0  0  0
   42.0340   35.0550   40.5210 C   0  0  0  0  0  0  0  0  0  0  0  0
   41.9180   33.7240   40.6690 N   0  0  0  0  0  0  0  0  0  0  0  0
   42.7900   33.0400   41.4530 C   0  0  0  0  0  0  0  0  0  0  0  0
   43.7940   33.7200   42.0950 N   0  0  0  0  0  0  0  0  0  0  0  0
   42.7020   31.5530   41.6220 C   0  0  0  0  0  0  0  0  0  0  0  0
   43.8130   31.0120   42.4580 C   0  0  0  0  0  0  0  0  0  0  0  0
   41.3560   31.1380   42.2000 C   0  0  0  0  0  0  0  0  0  0  0  0
   48.8739   32.5457   43.2982 H   0  0  0  0  0  0  0  0  0  0  0  0
   48.0586   30.7335   44.7752 H   0  0  0  0  0  0  0  0  0  0  0  0
   44.3861   27.8822   46.7450 H   0  0  0  0  0  0  0  0  0  0  0  0
   44.7670   29.4449   48.8887 H   0  0  0  0  0  0  0  0  0  0  0  0
   46.7696   33.2964   49.5203 H   0  0  0  0  0  0  0  0  0  0  0  0
   43.0926   36.8512   41.0072 H   0  0  0  0  0  0  0  0  0  0  0  0
   41.3140   35.5847   39.8799 H   0  0  0  0  0  0  0  0  0  0  0  0
   42.8001   31.1192   40.6159 H   0  0  0  0  0  0  0  0  0  0  0  0
   43.5636   31.1335   43.5224 H   0  0  0  0  0  0  0  0  0  0  0  0
   43.9541   29.9443   42.2340 H   0  0  0  0  0  0  0  0  0  0  0  0
   44.7405   31.5593   42.2340 H   0  0  0  0  0  0  0  0  0  0  0  0
   41.4081   31.1541   43.2986 H   0  0  0  0  0  0  0  0  0  0  0  0
   40.5791   31.8383   41.8595 H   0  0  0  0  0  0  0  0  0  0  0  0
   41.1083   30.1218   41.8595 H   0  0  0  0  0  0  0  0  0  0  0  0
  1  7  1  0
  1  2  2  0
  3  4  2  0
  4  5  1  0
  5  9  1  0
  6  5  2  0
  7  6  1  0
  8  3  1  0
  8  7  2  0
  9 13  1  0
 10  9  1  0
 10 11  2  0
 11 12  1  0
 13 12  2  0
 13 14  1  0
 14 15  2  0
 14 16  1  0
 17  1  1  0
 18 23  1  0
 18 17  1  0
 19 18  2  0
 20 21  2  0
 20 19  1  0
 21 22  1  0
 22 24  1  0
 22 23  2  0
 24 26  1  0
 24 25  1  0
  3 27  1  0
  4 28  1  0
 11 29  1  0
 12 30  1  0
 16 31  1  0
 19 32  1  0
 20 33  1  0
 24 34  1  0
 25 35  1  0
 25 36  1  0
 25 37  1  0
 26 38  1  0
 26 39  1  0
 26 40  1  0
M  ISO  8  27  14  28  14  29  14  30  14  31   3  32  14  33  14  34   8
M  ISO  6  35   8  36   8  37   8  38   8  39   8  40   8
M  END
>  <minimizedAffinity>  (1) 
-5.35904169

>  <minimizedRMSD>  (1) 
2.58479357

$$$$
