
     RDKit          3D

 49 52  0  0  0  0  0  0  0  0999 V2000
   45.1450   34.9510   44.1770 C   0  0  0  0  0  0  0  0  0  0  0  0
   44.5440   35.4770   45.1280 O   0  0  0  0  0  0  0  0  0  0  0  0
   47.8770   32.5970   43.6350 C   0  0  0  0  0  0  0  0  0  0  0  0
   47.5610   31.5480   44.4720 C   0  0  0  0  0  0  0  0  0  0  0  0
   46.4050   31.6190   45.2440 C   0  0  0  0  0  0  0  0  0  0  0  0
   45.6380   32.7670   45.1110 N   0  0  0  0  0  0  0  0  0  0  0  0
   45.9790   33.7730   44.2820 C   0  0  0  0  0  0  0  0  0  0  0  0
   47.0950   33.6890   43.5460 N   0  0  0  0  0  0  0  0  0  0  0  0
   46.0150   30.5880   46.1250 N   0  0  0  0  0  0  0  0  0  0  0  0
   44.8890   29.9030   46.0010 N   0  0  0  0  0  0  0  0  0  0  0  0
   44.8050   28.9950   47.0080 C   0  0  0  0  0  0  0  0  0  0  0  0
   45.9590   29.1700   47.7590 C   0  0  0  0  0  0  0  0  0  0  0  0
   46.7130   30.1820   47.1860 C   0  0  0  0  0  0  0  0  0  0  0  0
   47.9480   30.5270   47.7750 N   0  0  0  0  0  0  0  0  0  0  0  0
   49.2330   29.8370   47.5580 C   0  0  0  0  0  0  0  0  0  0  0  0
   49.5680   29.4930   49.0180 C   0  0  0  0  0  0  0  0  0  0  0  0
   49.0310   30.6920   49.8020 C   0  0  0  0  0  0  0  0  0  0  0  0
   48.3960   31.5550   48.7070 C   0  0  0  0  0  0  0  0  0  0  0  0
   44.9440   35.6040   42.9660 O   0  0  0  0  0  0  0  0  0  0  0  0
   43.9580   35.0880   42.0890 C   0  0  0  0  0  0  0  0  0  0  0  0
   43.2170   35.8000   41.1730 C   0  0  0  0  0  0  0  0  0  0  0  0
   42.3240   35.1100   40.4310 C   0  0  0  0  0  0  0  0  0  0  0  0
   42.1560   33.7780   40.5700 N   0  0  0  0  0  0  0  0  0  0  0  0
   42.8900   33.0960   41.4730 C   0  0  0  0  0  0  0  0  0  0  0  0
   43.8150   33.7630   42.2530 N   0  0  0  0  0  0  0  0  0  0  0  0
   42.7460   31.6050   41.6480 C   0  0  0  0  0  0  0  0  0  0  0  0
   43.7720   31.0290   42.5510 C   0  0  0  0  0  0  0  0  0  0  0  0
   41.3450   31.2330   42.1130 C   0  0  0  0  0  0  0  0  0  0  0  0
   48.7906   32.5402   43.0250 H   0  0  0  0  0  0  0  0  0  0  0  0
   48.2148   30.6652   44.5290 H   0  0  0  0  0  0  0  0  0  0  0  0
   43.9943   28.2740   47.1896 H   0  0  0  0  0  0  0  0  0  0  0  0
   46.2303   28.5999   48.6598 H   0  0  0  0  0  0  0  0  0  0  0  0
   49.1182   28.9360   46.9375 H   0  0  0  0  0  0  0  0  0  0  0  0
   49.9975   30.4170   47.0203 H   0  0  0  0  0  0  0  0  0  0  0  0
   49.0662   28.5644   49.3279 H   0  0  0  0  0  0  0  0  0  0  0  0
   50.6423   29.3218   49.1813 H   0  0  0  0  0  0  0  0  0  0  0  0
   48.2817   30.3775   50.5433 H   0  0  0  0  0  0  0  0  0  0  0  0
   49.8061   31.2189   50.3778 H   0  0  0  0  0  0  0  0  0  0  0  0
   49.1325   32.2282   48.2439 H   0  0  0  0  0  0  0  0  0  0  0  0
   47.6004   32.2272   49.0607 H   0  0  0  0  0  0  0  0  0  0  0  0
   43.3468   36.8854   41.0505 H   0  0  0  0  0  0  0  0  0  0  0  0
   41.7151   35.6500   39.6909 H   0  0  0  0  0  0  0  0  0  0  0  0
   42.9116   31.1621   40.6548 H   0  0  0  0  0  0  0  0  0  0  0  0
   43.4751   31.1957   43.5970 H   0  0  0  0  0  0  0  0  0  0  0  0
   43.8613   29.9489   42.3629 H   0  0  0  0  0  0  0  0  0  0  0  0
   44.7406   31.5152   42.3629 H   0  0  0  0  0  0  0  0  0  0  0  0
   41.3137   31.2247   43.2125 H   0  0  0  0  0  0  0  0  0  0  0  0
   40.6240   31.9708   41.7312 H   0  0  0  0  0  0  0  0  0  0  0  0
   41.0850   30.2347   41.7312 H   0  0  0  0  0  0  0  0  0  0  0  0
  1  7  1  0
  1  2  2  0
  3  4  2  0
  4  5  1  0
  5  9  1  0
  6  5  2  0
  7  6  1  0
  8  3  1  0
  8  7  2  0
  9 13  1  0
 10  9  1  0
 10 11  2  0
 11 12  1  0
 13 12  2  0
 13 14  1  0
 14 18  1  0
 15 14  1  0
 15 16  1  0
 16 17  1  0
 18 17  1  0
 19  1  1  0
 20 25  1  0
 20 19  1  0
 21 20  2  0
 22 23  2  0
 22 21  1  0
 23 24  1  0
 24 26  1  0
 24 25  2  0
 26 28  1  0
 26 27  1  0
  3 29  1  0
  4 30  1  0
 11 31  1  0
 12 32  1  0
 15 33  1  0
 15 34  1  0
 16 35  1  0
 16 36  1  0
 17 37  1  0
 17 38  1  0
 18 39  1  0
 18 40  1  0
 21 41  1  0
 22 42  1  0
 26 43  1  0
 27 44  1  0
 27 45  1  0
 27 46  1  0
 28 47  1  0
 28 48  1  0
 28 49  1  0
M  ISO  8  29  14  30  14  31  14  32  14  33  13  34  13  35  13  36  13
M  ISO  8  37  13  38  13  39  13  40  13  41  14  42  14  43   8  44   8
M  ISO  5  45   8  46   8  47   8  48   8  49   8
M  END
>  <minimizedAffinity>  (1) 
-5.21245289

>  <minimizedRMSD>  (1) 
2.35731339

$$$$
