
     RDKit          3D

 38 40  0  0  0  0  0  0  0  0999 V2000
   45.8230   34.7850   43.7380 O   0  0  0  0  0  0  0  0  0  0  0  0
   44.7640   34.7300   42.7910 C   0  0  0  0  0  0  0  0  0  0  0  0
   44.2360   35.7910   42.0950 C   0  0  0  0  0  0  0  0  0  0  0  0
   43.2250   35.5190   41.2340 C   0  0  0  0  0  0  0  0  0  0  0  0
   42.7560   34.2690   41.0640 N   0  0  0  0  0  0  0  0  0  0  0  0
   43.2840   33.2360   41.7540 C   0  0  0  0  0  0  0  0  0  0  0  0
   44.3130   33.4650   42.6410 N   0  0  0  0  0  0  0  0  0  0  0  0
   42.7980   31.8230   41.5710 C   0  0  0  0  0  0  0  0  0  0  0  0
   43.4630   30.8670   42.4890 C   0  0  0  0  0  0  0  0  0  0  0  0
   41.2830   31.7400   41.7060 C   0  0  0  0  0  0  0  0  0  0  0  0
   45.7490   33.9440   44.8460 C   0  0  0  0  0  0  0  0  0  0  0  0
   45.1570   34.4530   45.8050 O   0  0  0  0  0  0  0  0  0  0  0  0
   47.9750   31.1490   44.1140 C   0  0  0  0  0  0  0  0  0  0  0  0
   47.4240   30.1030   44.8220 C   0  0  0  0  0  0  0  0  0  0  0  0
   46.2680   30.3380   45.5690 C   0  0  0  0  0  0  0  0  0  0  0  0
   45.7460   31.6260   45.5480 N   0  0  0  0  0  0  0  0  0  0  0  0
   46.3160   32.6180   44.8430 C   0  0  0  0  0  0  0  0  0  0  0  0
   47.4350   32.3800   44.1220 N   0  0  0  0  0  0  0  0  0  0  0  0
   45.6400   29.3150   46.3280 N   0  0  0  0  0  0  0  0  0  0  0  0
   44.8170   28.4140   45.7910 N   0  0  0  0  0  0  0  0  0  0  0  0
   44.3850   27.5790   46.7770 C   0  0  0  0  0  0  0  0  0  0  0  0
   44.9970   28.0360   47.9290 C   0  0  0  0  0  0  0  0  0  0  0  0
   45.7920   29.1350   47.6420 C   0  0  0  0  0  0  0  0  0  0  0  0
   46.5310   29.8130   48.5850 O   0  0  0  0  0  0  0  0  0  0  0  0
   44.6165   36.8142   42.2305 H   0  0  0  0  0  0  0  0  0  0  0  0
   42.7758   36.3420   40.6588 H   0  0  0  0  0  0  0  0  0  0  0  0
   43.0735   31.5276   40.5478 H   0  0  0  0  0  0  0  0  0  0  0  0
   43.2608   31.1577   43.5305 H   0  0  0  0  0  0  0  0  0  0  0  0
   43.0734   29.8542   42.3088 H   0  0  0  0  0  0  0  0  0  0  0  0
   44.5481   30.8800   42.3088 H   0  0  0  0  0  0  0  0  0  0  0  0
   41.0101   31.7250   42.7715 H   0  0  0  0  0  0  0  0  0  0  0  0
   40.8233   32.6143   41.2220 H   0  0  0  0  0  0  0  0  0  0  0  0
   40.9216   30.8207   41.2220 H   0  0  0  0  0  0  0  0  0  0  0  0
   48.8858   30.9709   43.5234 H   0  0  0  0  0  0  0  0  0  0  0  0
   47.8849   29.1045   44.7991 H   0  0  0  0  0  0  0  0  0  0  0  0
   43.6979   26.7258   46.6778 H   0  0  0  0  0  0  0  0  0  0  0  0
   44.8716   27.5925   48.9278 H   0  0  0  0  0  0  0  0  0  0  0  0
   46.5138   29.5212   49.5309 H   0  0  0  0  0  0  0  0  0  0  0  0
  1 11  1  0
  2  1  1  0
  3  2  2  0
  4  3  1  0
  5  4  2  0
  5  6  1  0
  6  7  2  0
  7  2  1  0
  8 10  1  0
  8  6  1  0
  8  9  1  0
 11 12  2  0
 13 18  2  0
 13 14  1  0
 14 15  2  0
 15 19  1  0
 16 15  1  0
 17 11  1  0
 17 16  2  0
 18 17  1  0
 19 23  1  0
 20 19  1  0
 20 21  2  0
 21 22  1  0
 23 22  2  0
 23 24  1  0
  3 25  1  0
  4 26  1  0
  8 27  1  0
  9 28  1  0
  9 29  1  0
  9 30  1  0
 10 31  1  0
 10 32  1  0
 10 33  1  0
 13 34  1  0
 14 35  1  0
 21 36  1  0
 22 37  1  0
 24 38  1  0
M  ISO  8  25  14  26  14  27   8  28   8  29   8  30   8  31   8  32   8
M  ISO  6  33   8  34  14  35  14  36  14  37  14  38   3
M  END
>  <minimizedAffinity>  (1) 
-4.52355337

>  <minimizedRMSD>  (1) 
0.929517508

$$$$
