
     RDKit          3D

 26 27  0  0  0  0  0  0  0  0999 V2000
   46.4630   33.8600   44.3160 C   0  0  0  0  0  0  0  0  0  0  0  0
   45.5910   34.8190   43.8720 C   0  0  0  0  0  0  0  0  0  0  0  0
   46.0560   35.3130   42.6670 C   0  0  0  0  0  0  0  0  0  0  0  0
   47.2120   34.6070   42.4450 N   0  0  0  0  0  0  0  0  0  0  0  0
   47.4490   33.7580   43.4130 N   0  0  0  0  0  0  0  0  0  0  0  0
   45.4190   32.6900   47.6960 C   0  0  0  0  0  0  0  0  0  0  0  0
   45.4780   33.4820   46.5330 C   0  0  0  0  0  0  0  0  0  0  0  0
   46.3500   33.1000   45.5290 C   0  0  0  0  0  0  0  0  0  0  0  0
   47.1090   31.9790   45.7060 N   0  0  0  0  0  0  0  0  0  0  0  0
   47.0270   31.2340   46.8450 C   0  0  0  0  0  0  0  0  0  0  0  0
   46.1840   31.5900   47.8360 N   0  0  0  0  0  0  0  0  0  0  0  0
   48.1180   34.7300   41.3030 C   0  0  0  0  0  0  0  0  0  0  0  0
   49.0220   33.4960   41.2360 C   0  0  0  0  0  0  0  0  0  0  0  0
   49.0410   35.8870   41.6260 C   0  0  0  0  0  0  0  0  0  0  0  0
   44.6746   35.1419   44.3877 H   0  0  0  0  0  0  0  0  0  0  0  0
   45.6045   36.0908   42.0337 H   0  0  0  0  0  0  0  0  0  0  0  0
   44.7336   32.9757   48.5075 H   0  0  0  0  0  0  0  0  0  0  0  0
   44.8492   34.3782   46.4259 H   0  0  0  0  0  0  0  0  0  0  0  0
   47.6528   30.3362   46.9565 H   0  0  0  0  0  0  0  0  0  0  0  0
   47.5482   34.8539   40.3703 H   0  0  0  0  0  0  0  0  0  0  0  0
   49.2653   33.1639   42.2561 H   0  0  0  0  0  0  0  0  0  0  0  0
   48.5005   32.6880   40.7019 H   0  0  0  0  0  0  0  0  0  0  0  0
   49.9496   33.7496   40.7019 H   0  0  0  0  0  0  0  0  0  0  0  0
   49.1265   35.9942   42.7174 H   0  0  0  0  0  0  0  0  0  0  0  0
   50.0355   35.6934   41.1976 H   0  0  0  0  0  0  0  0  0  0  0  0
   48.6313   36.8136   41.1976 H   0  0  0  0  0  0  0  0  0  0  0  0
  1  8  1  0
  2  1  1  0
  3  2  2  0
  4  3  1  0
  4  5  1  0
  5  1  2  0
  6 11  2  0
  7  6  1  0
  8  9  1  0
  8  7  2  0
  9 10  2  0
 10 11  1  0
 12 14  1  0
 12  4  1  0
 13 12  1  0
  2 15  1  0
  3 16  1  0
  6 17  1  0
  7 18  1  0
 10 19  1  0
 12 20  1  0
 13 21  1  0
 13 22  1  0
 13 23  1  0
 14 24  1  0
 14 25  1  0
 14 26  1  0
M  ISO  8  15  14  16  14  17  14  18  14  19  14  20   8  21   8  22   8
M  ISO  4  23   8  24   8  25   8  26   8
M  END
>  <minimizedAffinity>  (1) 
-4.28181076

>  <minimizedRMSD>  (1) 
3.30525994

$$$$
