
     RDKit          3D

 34 36  0  0  0  0  0  0  0  0999 V2000
   44.3980   35.2290   46.1750 C   0  0  0  0  0  0  0  0  0  0  0  0
   44.8000   35.3410   44.8240 C   0  0  0  0  0  0  0  0  0  0  0  0
   45.5900   34.3250   44.3210 C   0  0  0  0  0  0  0  0  0  0  0  0
   45.9430   33.2740   45.1320 N   0  0  0  0  0  0  0  0  0  0  0  0
   45.5320   33.2160   46.4180 C   0  0  0  0  0  0  0  0  0  0  0  0
   44.7730   34.1690   46.9400 N   0  0  0  0  0  0  0  0  0  0  0  0
   45.9280   32.1030   47.2120 N   0  0  0  0  0  0  0  0  0  0  0  0
   44.9920   31.4010   48.0700 C   0  0  0  0  0  0  0  0  0  0  0  0
   45.5630   31.3680   49.4910 C   0  0  0  0  0  0  0  0  0  0  0  0
   46.9270   30.9480   49.4610 N   0  0  0  0  0  0  0  0  0  0  0  0
   47.7860   31.7510   48.6300 C   0  0  0  0  0  0  0  0  0  0  0  0
   47.3050   31.6380   47.1800 C   0  0  0  0  0  0  0  0  0  0  0  0
   46.0430   34.3610   42.9540 C   0  0  0  0  0  0  0  0  0  0  0  0
   45.2950   34.0730   41.8370 C   0  0  0  0  0  0  0  0  0  0  0  0
   46.1210   34.2320   40.7310 C   0  0  0  0  0  0  0  0  0  0  0  0
   47.3140   34.6060   41.2360 N   0  0  0  0  0  0  0  0  0  0  0  0
   47.2870   34.6880   42.5550 N   0  0  0  0  0  0  0  0  0  0  0  0
   48.5230   34.8960   40.4530 C   0  0  0  0  0  0  0  0  0  0  0  0
   49.0080   36.1220   40.8090 F   0  0  0  0  0  0  0  0  0  0  0  0
   48.2580   34.8580   39.0990 F   0  0  0  0  0  0  0  0  0  0  0  0
   49.4930   33.9180   40.6980 F   0  0  0  0  0  0  0  0  0  0  0  0
   43.7687   36.0158   46.6165 H   0  0  0  0  0  0  0  0  0  0  0  0
   44.4980   36.1969   44.2025 H   0  0  0  0  0  0  0  0  0  0  0  0
   44.0251   31.9254   48.0711 H   0  0  0  0  0  0  0  0  0  0  0  0
   44.8404   30.3756   47.7017 H   0  0  0  0  0  0  0  0  0  0  0  0
   45.5015   32.3741   49.9314 H   0  0  0  0  0  0  0  0  0  0  0  0
   44.9806   30.6584   50.0971 H   0  0  0  0  0  0  0  0  0  0  0  0
   47.2929   30.9773   50.4234 H   0  0  0  0  0  0  0  0  0  0  0  0
   47.7407   32.8009   48.9550 H   0  0  0  0  0  0  0  0  0  0  0  0
   48.8248   31.3984   48.7107 H   0  0  0  0  0  0  0  0  0  0  0  0
   47.3544   30.5947   46.8349 H   0  0  0  0  0  0  0  0  0  0  0  0
   47.9269   32.2245   46.4878 H   0  0  0  0  0  0  0  0  0  0  0  0
   44.2371   33.7720   41.8217 H   0  0  0  0  0  0  0  0  0  0  0  0
   45.8586   34.0847   39.6730 H   0  0  0  0  0  0  0  0  0  0  0  0
  1  6  2  0
  2  1  1  0
  3  2  2  0
  3  4  1  0
  4  5  2  0
  5  6  1  0
  5  7  1  0
  7  8  1  0
  8  9  1  0
 10  9  1  0
 11 10  1  0
 12  7  1  0
 12 11  1  0
 13  3  1  0
 14 13  1  0
 15 16  1  0
 15 14  2  0
 16 17  1  0
 17 13  2  0
 18 21  1  0
 18 19  1  0
 18 16  1  0
 20 18  1  0
  1 22  1  0
  2 23  1  0
  8 24  1  0
  8 25  1  0
  9 26  1  0
  9 27  1  0
 10 28  1  0
 11 29  1  0
 11 30  1  0
 12 31  1  0
 12 32  1  0
 14 33  1  0
 15 34  1  0
M  ISO  8  22  14  23  14  24  13  25  13  26  13  27  13  28   5  29  13
M  ISO  5  30  13  31  13  32  13  33  14  34  14
M  END
>  <minimizedAffinity>  (1) 
-6.48478413

>  <minimizedRMSD>  (1) 
1.31111836

$$$$
