
     RDKit          3D

 31 34  0  0  0  0  0  0  0  0999 V2000
   44.8700   33.7940   47.1140 C   0  0  0  0  0  0  0  0  0  0  0  0
   45.1460   34.3140   45.8290 C   0  0  0  0  0  0  0  0  0  0  0  0
   46.0950   33.6770   45.0690 C   0  0  0  0  0  0  0  0  0  0  0  0
   46.7150   32.5890   45.5840 N   0  0  0  0  0  0  0  0  0  0  0  0
   46.4370   32.1000   46.8260 C   0  0  0  0  0  0  0  0  0  0  0  0
   45.5230   32.6990   47.5800 N   0  0  0  0  0  0  0  0  0  0  0  0
   47.2150   30.9430   47.1610 N   0  0  0  0  0  0  0  0  0  0  0  0
   47.0500   29.7600   46.5120 C   0  0  0  0  0  0  0  0  0  0  0  0
   47.9280   28.8920   47.0660 N   0  0  0  0  0  0  0  0  0  0  0  0
   48.6250   29.5150   48.0370 C   0  0  0  0  0  0  0  0  0  0  0  0
   49.6150   29.0950   48.8880 C   0  0  0  0  0  0  0  0  0  0  0  0
   50.0870   29.9960   49.7400 N   0  0  0  0  0  0  0  0  0  0  0  0
   49.6540   31.2670   49.8080 C   0  0  0  0  0  0  0  0  0  0  0  0
   48.6760   31.7210   48.9830 N   0  0  0  0  0  0  0  0  0  0  0  0
   48.1640   30.8320   48.0960 C   0  0  0  0  0  0  0  0  0  0  0  0
   46.4360   34.1440   43.7480 C   0  0  0  0  0  0  0  0  0  0  0  0
   45.5450   34.3610   42.7130 C   0  0  0  0  0  0  0  0  0  0  0  0
   46.2940   34.8060   41.6280 C   0  0  0  0  0  0  0  0  0  0  0  0
   47.5680   34.8320   42.0610 N   0  0  0  0  0  0  0  0  0  0  0  0
   47.6670   34.4410   43.3190 N   0  0  0  0  0  0  0  0  0  0  0  0
   48.7320   35.2340   41.2730 C   0  0  0  0  0  0  0  0  0  0  0  0
   49.1520   36.4760   41.6890 F   0  0  0  0  0  0  0  0  0  0  0  0
   48.4430   35.2700   39.9350 F   0  0  0  0  0  0  0  0  0  0  0  0
   49.7630   34.2950   41.4340 F   0  0  0  0  0  0  0  0  0  0  0  0
   44.1147   34.2840   47.7459 H   0  0  0  0  0  0  0  0  0  0  0  0
   44.6171   35.2010   45.4501 H   0  0  0  0  0  0  0  0  0  0  0  0
   46.3420   29.5497   45.6968 H   0  0  0  0  0  0  0  0  0  0  0  0
   49.9981   28.0641   48.8654 H   0  0  0  0  0  0  0  0  0  0  0  0
   50.1000   31.9511   50.5450 H   0  0  0  0  0  0  0  0  0  0  0  0
   44.4557   34.2110   42.7418 H   0  0  0  0  0  0  0  0  0  0  0  0
   45.9235   35.0786   40.6288 H   0  0  0  0  0  0  0  0  0  0  0  0
  1  6  2  0
  2  1  1  0
  3  4  1  0
  3  2  2  0
  4  5  2  0
  5  7  1  0
  5  6  1  0
  7 15  1  0
  8  9  2  0
  8  7  1  0
  9 10  1  0
 10 15  2  0
 10 11  1  0
 11 12  2  0
 12 13  1  0
 14 13  2  0
 15 14  1  0
 16  3  1  0
 17 16  1  0
 18 19  1  0
 18 17  2  0
 19 20  1  0
 20 16  2  0
 21 24  1  0
 21 22  1  0
 21 19  1  0
 23 21  1  0
  1 25  1  0
  2 26  1  0
  8 27  1  0
 11 28  1  0
 13 29  1  0
 17 30  1  0
 18 31  1  0
M  ISO  7  25  14  26  14  27  14  28  14  29  14  30  14  31  14
M  END
>  <minimizedAffinity>  (1) 
-6.52895308

>  <minimizedRMSD>  (1) 
2.58731675

$$$$
