
     RDKit          3D

 33 35  0  0  0  0  0  0  0  0999 V2000
   44.4210   35.5050   45.7310 C   0  0  0  0  0  0  0  0  0  0  0  0
   44.7570   35.4760   44.3590 C   0  0  0  0  0  0  0  0  0  0  0  0
   45.4800   34.3720   43.9190 C   0  0  0  0  0  0  0  0  0  0  0  0
   45.8210   33.3930   44.8130 N   0  0  0  0  0  0  0  0  0  0  0  0
   45.4720   33.4720   46.1180 C   0  0  0  0  0  0  0  0  0  0  0  0
   44.7840   34.5050   46.5800 N   0  0  0  0  0  0  0  0  0  0  0  0
   45.8550   32.4250   46.9940 N   0  0  0  0  0  0  0  0  0  0  0  0
   44.9480   31.8410   47.9630 C   0  0  0  0  0  0  0  0  0  0  0  0
   45.6880   31.7440   49.2910 C   0  0  0  0  0  0  0  0  0  0  0  0
   46.9650   31.2460   49.1740 O   0  0  0  0  0  0  0  0  0  0  0  0
   47.7500   32.0740   48.3730 C   0  0  0  0  0  0  0  0  0  0  0  0
   47.2010   31.8860   46.9530 C   0  0  0  0  0  0  0  0  0  0  0  0
   45.8690   34.2510   42.5420 C   0  0  0  0  0  0  0  0  0  0  0  0
   45.0590   33.8110   41.5060 C   0  0  0  0  0  0  0  0  0  0  0  0
   45.8220   33.8490   40.3490 C   0  0  0  0  0  0  0  0  0  0  0  0
   47.0400   34.3050   40.7450 N   0  0  0  0  0  0  0  0  0  0  0  0
   47.0790   34.5460   42.0400 N   0  0  0  0  0  0  0  0  0  0  0  0
   48.1980   34.5180   39.8680 C   0  0  0  0  0  0  0  0  0  0  0  0
   48.7800   35.7160   40.1690 F   0  0  0  0  0  0  0  0  0  0  0  0
   47.8290   34.4820   38.5410 F   0  0  0  0  0  0  0  0  0  0  0  0
   49.1260   33.4770   40.0640 F   0  0  0  0  0  0  0  0  0  0  0  0
   43.8503   36.3593   46.1239 H   0  0  0  0  0  0  0  0  0  0  0  0
   44.4621   36.2847   43.6741 H   0  0  0  0  0  0  0  0  0  0  0  0
   44.0587   32.4786   48.0754 H   0  0  0  0  0  0  0  0  0  0  0  0
   44.6196   30.8449   47.6315 H   0  0  0  0  0  0  0  0  0  0  0  0
   45.7460   32.7504   49.7312 H   0  0  0  0  0  0  0  0  0  0  0  0
   45.1247   31.0427   49.9241 H   0  0  0  0  0  0  0  0  0  0  0  0
   47.6535   33.1231   48.6894 H   0  0  0  0  0  0  0  0  0  0  0  0
   48.8188   31.8227   48.4402 H   0  0  0  0  0  0  0  0  0  0  0  0
   47.1819   30.8195   46.6844 H   0  0  0  0  0  0  0  0  0  0  0  0
   47.8243   32.3904   46.1999 H   0  0  0  0  0  0  0  0  0  0  0  0
   44.0094   33.4921   41.5869 H   0  0  0  0  0  0  0  0  0  0  0  0
   45.5097   33.5707   39.3317 H   0  0  0  0  0  0  0  0  0  0  0  0
  1  6  2  0
  2  1  1  0
  3  2  2  0
  3  4  1  0
  4  5  2  0
  5  6  1  0
  5  7  1  0
  7  8  1  0
  8  9  1  0
 10  9  1  0
 11 10  1  0
 12  7  1  0
 12 11  1  0
 13  3  1  0
 14 13  1  0
 15 16  1  0
 15 14  2  0
 16 17  1  0
 17 13  2  0
 18 21  1  0
 18 19  1  0
 18 16  1  0
 20 18  1  0
  1 22  1  0
  2 23  1  0
  8 24  1  0
  8 25  1  0
  9 26  1  0
  9 27  1  0
 11 28  1  0
 11 29  1  0
 12 30  1  0
 12 31  1  0
 14 32  1  0
 15 33  1  0
M  ISO  8  22  14  23  14  24  13  25  13  26  13  27  13  28  13  29  13
M  ISO  4  30  13  31  13  32  14  33  14
M  END
>  <minimizedAffinity>  (1) 
-6.1371398

>  <minimizedRMSD>  (1) 
0.783995926

$$$$
