
     RDKit          3D

 26 28  0  0  0  0  0  0  0  0999 V2000
   44.3670   35.9850   44.8460 C   0  0  0  0  0  0  0  0  0  0  0  0
   44.7210   35.7370   43.4860 C   0  0  0  0  0  0  0  0  0  0  0  0
   45.4460   34.5830   43.2540 C   0  0  0  0  0  0  0  0  0  0  0  0
   45.7850   33.7530   44.2910 N   0  0  0  0  0  0  0  0  0  0  0  0
   45.4160   34.0450   45.5740 C   0  0  0  0  0  0  0  0  0  0  0  0
   44.7200   35.1390   45.8500 N   0  0  0  0  0  0  0  0  0  0  0  0
   45.8110   33.1290   46.5880 N   0  0  0  0  0  0  0  0  0  0  0  0
   46.9560   32.4230   46.5910 C   0  0  0  0  0  0  0  0  0  0  0  0
   46.9920   31.6530   47.7160 N   0  0  0  0  0  0  0  0  0  0  0  0
   45.8480   31.8990   48.4030 C   0  0  0  0  0  0  0  0  0  0  0  0
   45.1270   32.8140   47.6920 N   0  0  0  0  0  0  0  0  0  0  0  0
   45.8540   34.2380   41.9220 C   0  0  0  0  0  0  0  0  0  0  0  0
   45.1400   33.4780   41.0150 C   0  0  0  0  0  0  0  0  0  0  0  0
   45.8880   33.3880   39.8590 C   0  0  0  0  0  0  0  0  0  0  0  0
   47.0220   34.0960   40.1190 N   0  0  0  0  0  0  0  0  0  0  0  0
   46.9920   34.5880   41.3250 N   0  0  0  0  0  0  0  0  0  0  0  0
   48.1260   34.2860   39.1810 C   0  0  0  0  0  0  0  0  0  0  0  0
   48.7790   35.4510   39.5020 F   0  0  0  0  0  0  0  0  0  0  0  0
   47.6750   34.3510   37.8780 F   0  0  0  0  0  0  0  0  0  0  0  0
   49.0060   33.2040   39.2540 F   0  0  0  0  0  0  0  0  0  0  0  0
   43.7902   36.8894   45.0897 H   0  0  0  0  0  0  0  0  0  0  0  0
   44.4350   36.4210   42.6734 H   0  0  0  0  0  0  0  0  0  0  0  0
   47.7344   32.4605   45.8146 H   0  0  0  0  0  0  0  0  0  0  0  0
   45.5547   31.4432   49.3602 H   0  0  0  0  0  0  0  0  0  0  0  0
   44.1518   33.0256   41.1844 H   0  0  0  0  0  0  0  0  0  0  0  0
   45.6257   32.8599   38.9304 H   0  0  0  0  0  0  0  0  0  0  0  0
  1  6  2  0
  2  1  1  0
  3  2  2  0
  3  4  1  0
  4  5  2  0
  5  6  1  0
  5  7  1  0
  7  8  1  0
  7 11  1  0
  8  9  2  0
  9 10  1  0
 11 10  2  0
 12  3  1  0
 13 12  1  0
 14 15  1  0
 14 13  2  0
 15 16  1  0
 16 12  2  0
 17 20  1  0
 17 18  1  0
 17 15  1  0
 19 17  1  0
  1 21  1  0
  2 22  1  0
  8 23  1  0
 10 24  1  0
 13 25  1  0
 14 26  1  0
M  ISO  6  21  14  22  14  23  14  24  14  25  14  26  14
M  END
>  <minimizedAffinity>  (1) 
-5.95827246

>  <minimizedRMSD>  (1) 
0.123886086

$$$$
