
     RDKit          3D

 28 30  0  0  0  0  0  0  0  0999 V2000
   44.3970   35.8690   44.9200 C   0  0  0  0  0  0  0  0  0  0  0  0
   44.7450   35.6390   43.5640 C   0  0  0  0  0  0  0  0  0  0  0  0
   45.4790   34.5150   43.2740 C   0  0  0  0  0  0  0  0  0  0  0  0
   45.8300   33.6840   44.2980 N   0  0  0  0  0  0  0  0  0  0  0  0
   45.4840   33.9240   45.5870 C   0  0  0  0  0  0  0  0  0  0  0  0
   44.7710   35.0140   45.8920 N   0  0  0  0  0  0  0  0  0  0  0  0
   45.8700   34.2100   41.9340 C   0  0  0  0  0  0  0  0  0  0  0  0
   45.1240   33.5020   41.0060 C   0  0  0  0  0  0  0  0  0  0  0  0
   45.8730   33.4390   39.8430 C   0  0  0  0  0  0  0  0  0  0  0  0
   47.0120   34.1000   40.1210 N   0  0  0  0  0  0  0  0  0  0  0  0
   47.0150   34.5540   41.3450 N   0  0  0  0  0  0  0  0  0  0  0  0
   48.1250   34.3000   39.1850 C   0  0  0  0  0  0  0  0  0  0  0  0
   48.7800   35.4640   39.5130 F   0  0  0  0  0  0  0  0  0  0  0  0
   47.6910   34.3850   37.8780 F   0  0  0  0  0  0  0  0  0  0  0  0
   49.0130   33.2270   39.2660 F   0  0  0  0  0  0  0  0  0  0  0  0
   45.8900   32.9980   46.6380 C   0  0  0  0  0  0  0  0  0  0  0  0
   47.0230   32.2240   46.5010 C   0  0  0  0  0  0  0  0  0  0  0  0
   47.3140   31.3850   47.5520 C   0  0  0  0  0  0  0  0  0  0  0  0
   46.5800   31.2750   48.6800 N   0  0  0  0  0  0  0  0  0  0  0  0
   45.4720   32.0580   48.7730 C   0  0  0  0  0  0  0  0  0  0  0  0
   45.1600   32.8880   47.7630 N   0  0  0  0  0  0  0  0  0  0  0  0
   43.8109   36.7620   45.1828 H   0  0  0  0  0  0  0  0  0  0  0  0
   44.4373   36.3373   42.7717 H   0  0  0  0  0  0  0  0  0  0  0  0
   44.1243   33.0708   41.1634 H   0  0  0  0  0  0  0  0  0  0  0  0
   45.5965   32.9532   38.8956 H   0  0  0  0  0  0  0  0  0  0  0  0
   47.6573   32.2744   45.6037 H   0  0  0  0  0  0  0  0  0  0  0  0
   48.2126   30.7563   47.4669 H   0  0  0  0  0  0  0  0  0  0  0  0
   44.8354   32.0123   49.6689 H   0  0  0  0  0  0  0  0  0  0  0  0
  1  6  2  0
  2  1  1  0
  3  2  2  0
  3  4  1  0
  4  5  2  0
  5  6  1  0
  5 16  1  0
  7  3  1  0
  8  7  1  0
  9 10  1  0
  9  8  2  0
 10 11  1  0
 11  7  2  0
 12 15  1  0
 12 13  1  0
 12 10  1  0
 14 12  1  0
 16 21  1  0
 17 16  2  0
 17 18  1  0
 18 19  2  0
 19 20  1  0
 21 20  2  0
  1 22  1  0
  2 23  1  0
  8 24  1  0
  9 25  1  0
 17 26  1  0
 18 27  1  0
 20 28  1  0
M  ISO  7  22  14  23  14  24  14  25  14  26  14  27  14  28  14
M  END
>  <minimizedAffinity>  (1) 
-5.98893547

>  <minimizedRMSD>  (1) 
0.433164775

$$$$
