
     RDKit          3D

 35 38  0  0  0  0  0  0  0  0999 V2000
   45.2870   36.1320   43.1770 C   0  0  0  0  0  0  0  0  0  0  0  0
   44.0020   36.1390   42.5880 C   0  0  0  0  0  0  0  0  0  0  0  0
   43.7650   35.3210   41.4980 C   0  0  0  0  0  0  0  0  0  0  0  0
   44.7900   34.5460   41.0430 N   0  0  0  0  0  0  0  0  0  0  0  0
   46.0110   34.5660   41.6340 C   0  0  0  0  0  0  0  0  0  0  0  0
   46.2730   35.3370   42.6800 N   0  0  0  0  0  0  0  0  0  0  0  0
   42.4930   35.2860   40.8650 C   0  0  0  0  0  0  0  0  0  0  0  0
   41.2910   35.5880   41.4500 C   0  0  0  0  0  0  0  0  0  0  0  0
   40.2930   35.4330   40.4980 C   0  0  0  0  0  0  0  0  0  0  0  0
   40.9490   35.0440   39.3920 N   0  0  0  0  0  0  0  0  0  0  0  0
   42.2500   34.9520   39.5900 N   0  0  0  0  0  0  0  0  0  0  0  0
   40.3340   34.7420   38.0820 C   0  0  0  0  0  0  0  0  0  0  0  0
   40.7460   33.5150   37.6610 F   0  0  0  0  0  0  0  0  0  0  0  0
   40.6530   35.7100   37.1480 F   0  0  0  0  0  0  0  0  0  0  0  0
   38.9430   34.7600   38.2020 F   0  0  0  0  0  0  0  0  0  0  0  0
   47.0530   33.7050   41.0840 C   0  0  0  0  0  0  0  0  0  0  0  0
   47.7770   33.9100   39.9170 C   0  0  0  0  0  0  0  0  0  0  0  0
   48.6440   32.9120   39.7330 N   0  0  0  0  0  0  0  0  0  0  0  0
   48.4900   32.0570   40.7730 C   0  0  0  0  0  0  0  0  0  0  0  0
   47.5320   32.5540   41.5670 N   0  0  0  0  0  0  0  0  0  0  0  0
   47.0640   31.9570   42.7730 C   0  0  0  0  0  0  0  0  0  0  0  0
   46.0340   31.0460   42.6460 C   0  0  0  0  0  0  0  0  0  0  0  0
   45.5430   30.4360   43.8030 C   0  0  0  0  0  0  0  0  0  0  0  0
   46.0420   30.7100   45.0430 N   0  0  0  0  0  0  0  0  0  0  0  0
   47.0490   31.6100   45.1040 C   0  0  0  0  0  0  0  0  0  0  0  0
   47.5580   32.2270   44.0090 N   0  0  0  0  0  0  0  0  0  0  0  0
   45.4917   36.7754   44.0454 H   0  0  0  0  0  0  0  0  0  0  0  0
   43.2054   36.7829   42.9890 H   0  0  0  0  0  0  0  0  0  0  0  0
   41.1427   35.8997   42.4945 H   0  0  0  0  0  0  0  0  0  0  0  0
   39.2116   35.5923   40.6210 H   0  0  0  0  0  0  0  0  0  0  0  0
   47.6539   34.7699   39.2422 H   0  0  0  0  0  0  0  0  0  0  0  0
   49.0499   31.1242   40.9358 H   0  0  0  0  0  0  0  0  0  0  0  0
   45.6110   30.8068   41.6592 H   0  0  0  0  0  0  0  0  0  0  0  0
   44.7237   29.7078   43.7109 H   0  0  0  0  0  0  0  0  0  0  0  0
   47.4756   31.8532   46.0883 H   0  0  0  0  0  0  0  0  0  0  0  0
  2  1  2  0
  3  2  1  0
  4  3  2  0
  4  5  1  0
  5  6  2  0
  6  1  1  0
  7  8  1  0
  7  3  1  0
  9  8  2  0
 10 11  1  0
 10  9  1  0
 11  7  2  0
 12 15  1  0
 12 10  1  0
 13 12  1  0
 14 12  1  0
 16 20  1  0
 16  5  1  0
 17 16  2  0
 18 17  1  0
 18 19  2  0
 19 20  1  0
 20 21  1  0
 21 26  1  0
 22 21  2  0
 22 23  1  0
 23 24  2  0
 24 25  1  0
 26 25  2  0
  1 27  1  0
  2 28  1  0
  8 29  1  0
  9 30  1  0
 17 31  1  0
 19 32  1  0
 22 33  1  0
 23 34  1  0
 25 35  1  0
M  ISO  8  27  14  28  14  29  14  30  14  31  14  32  14  33  14  34  14
M  ISO  1  35  14
M  END
>  <minimizedAffinity>  (1) 
-5.90514612

>  <minimizedRMSD>  (1) 
6.27465248

$$$$
