
     RDKit          3D

 30 32  0  0  0  0  0  0  0  0999 V2000
   44.7940   34.6350   46.1170 C   0  0  0  0  0  0  0  0  0  0  0  0
   44.9950   34.8080   44.7260 C   0  0  0  0  0  0  0  0  0  0  0  0
   45.7580   33.9010   44.0430 C   0  0  0  0  0  0  0  0  0  0  0  0
   46.2960   32.8630   44.7420 N   0  0  0  0  0  0  0  0  0  0  0  0
   46.0960   32.7100   46.0680 C   0  0  0  0  0  0  0  0  0  0  0  0
   45.3570   33.5770   46.7570 N   0  0  0  0  0  0  0  0  0  0  0  0
   45.9940   34.0270   42.6430 C   0  0  0  0  0  0  0  0  0  0  0  0
   45.0350   34.0210   41.6500 C   0  0  0  0  0  0  0  0  0  0  0  0
   45.6900   34.1670   40.4370 C   0  0  0  0  0  0  0  0  0  0  0  0
   46.9880   34.2500   40.7550 N   0  0  0  0  0  0  0  0  0  0  0  0
   47.1850   34.1690   42.0500 N   0  0  0  0  0  0  0  0  0  0  0  0
   48.0840   34.4130   39.7860 C   0  0  0  0  0  0  0  0  0  0  0  0
   48.6990   35.6210   40.0160 F   0  0  0  0  0  0  0  0  0  0  0  0
   47.6270   34.3570   38.4870 F   0  0  0  0  0  0  0  0  0  0  0  0
   49.0080   33.3750   39.9300 F   0  0  0  0  0  0  0  0  0  0  0  0
   46.6980   31.5790   46.7530 C   0  0  0  0  0  0  0  0  0  0  0  0
   47.6900   30.7440   46.2600 C   0  0  0  0  0  0  0  0  0  0  0  0
   48.0080   29.8100   47.1520 N   0  0  0  0  0  0  0  0  0  0  0  0
   47.2260   30.0280   48.2340 C   0  0  0  0  0  0  0  0  0  0  0  0
   46.4520   31.0940   47.9690 N   0  0  0  0  0  0  0  0  0  0  0  0
   45.4590   31.6500   48.9030 C   0  0  0  0  0  0  0  0  0  0  0  0
   44.2300   31.7420   48.2900 F   0  0  0  0  0  0  0  0  0  0  0  0
   45.3070   30.8370   50.0080 F   0  0  0  0  0  0  0  0  0  0  0  0
   45.7960   32.9600   49.2480 F   0  0  0  0  0  0  0  0  0  0  0  0
   44.1826   35.3565   46.6788 H   0  0  0  0  0  0  0  0  0  0  0  0
   44.5427   35.6621   44.2006 H   0  0  0  0  0  0  0  0  0  0  0  0
   43.9494   33.9190   41.7948 H   0  0  0  0  0  0  0  0  0  0  0  0
   45.2417   34.2061   39.4333 H   0  0  0  0  0  0  0  0  0  0  0  0
   48.1511   30.8411   45.2661 H   0  0  0  0  0  0  0  0  0  0  0  0
   47.2240   29.4390   49.1630 H   0  0  0  0  0  0  0  0  0  0  0  0
  1  6  2  0
  2  1  1  0
  3  2  2  0
  3  4  1  0
  4  5  2  0
  5 16  1  0
  5  6  1  0
  7  3  1  0
  8  7  1  0
  9 10  1  0
  9  8  2  0
 10 11  1  0
 11  7  2  0
 12 15  1  0
 12 13  1  0
 12 10  1  0
 14 12  1  0
 16 20  1  0
 17 16  2  0
 17 18  1  0
 18 19  2  0
 20 19  1  0
 20 21  1  0
 21 24  1  0
 21 23  1  0
 22 21  1  0
  1 25  1  0
  2 26  1  0
  8 27  1  0
  9 28  1  0
 17 29  1  0
 19 30  1  0
M  ISO  6  25  14  26  14  27  14  28  14  29  14  30  14
M  END
>  <minimizedAffinity>  (1) 
-5.92069769

>  <minimizedRMSD>  (1) 
1.89829171

$$$$
