
     RDKit          3D

 29 30  0  0  0  0  0  0  0  0999 V2000
   46.3230   35.1890   42.5990 C   0  0  0  0  0  0  0  0  0  0  0  0
   45.1570   34.8670   41.7470 C   0  0  0  0  0  0  0  0  0  0  0  0
   43.9890   35.5530   42.1940 C   0  0  0  0  0  0  0  0  0  0  0  0
   42.8160   35.3360   41.4800 C   0  0  0  0  0  0  0  0  0  0  0  0
   42.8180   34.5060   40.4130 N   0  0  0  0  0  0  0  0  0  0  0  0
   43.9620   33.8700   40.0200 C   0  0  0  0  0  0  0  0  0  0  0  0
   45.0940   34.0670   40.6940 N   0  0  0  0  0  0  0  0  0  0  0  0
   46.6650   34.0280   43.5060 C   0  0  0  0  0  0  0  0  0  0  0  0
   48.0720   33.7520   43.5070 N   0  0  0  0  0  0  0  0  0  0  0  0
   48.8420   34.6210   42.6320 C   0  0  0  0  0  0  0  0  0  0  0  0
   50.1120   33.8300   42.2990 C   0  0  0  0  0  0  0  0  0  0  0  0
   49.8310   32.8820   41.3160 O   0  0  0  0  0  0  0  0  0  0  0  0
   48.5290   32.4030   41.5620 C   0  0  0  0  0  0  0  0  0  0  0  0
   48.2030   32.3640   43.0350 C   0  0  0  0  0  0  0  0  0  0  0  0
   46.0872   36.0697   43.2145 H   0  0  0  0  0  0  0  0  0  0  0  0
   47.1869   35.3945   41.9498 H   0  0  0  0  0  0  0  0  0  0  0  0
   44.0152   36.2241   43.0652 H   0  0  0  0  0  0  0  0  0  0  0  0
   41.8863   35.8397   41.7833 H   0  0  0  0  0  0  0  0  0  0  0  0
   43.9481   33.1974   39.1497 H   0  0  0  0  0  0  0  0  0  0  0  0
   46.3488   34.2714   44.5311 H   0  0  0  0  0  0  0  0  0  0  0  0
   46.1409   33.1357   43.1330 H   0  0  0  0  0  0  0  0  0  0  0  0
   48.2760   34.8460   41.7160 H   0  0  0  0  0  0  0  0  0  0  0  0
   49.0708   35.5861   43.1077 H   0  0  0  0  0  0  0  0  0  0  0  0
   50.8863   34.5194   41.9314 H   0  0  0  0  0  0  0  0  0  0  0  0
   50.4715   33.3199   43.2049 H   0  0  0  0  0  0  0  0  0  0  0  0
   47.8079   33.0627   41.0573 H   0  0  0  0  0  0  0  0  0  0  0  0
   48.4699   31.3745   41.1764 H   0  0  0  0  0  0  0  0  0  0  0  0
   47.2578   31.8244   43.1943 H   0  0  0  0  0  0  0  0  0  0  0  0
   48.9984   31.8445   43.5895 H   0  0  0  0  0  0  0  0  0  0  0  0
  1  8  1  0
  2  3  2  0
  2  1  1  0
  4  3  1  0
  5  4  2  0
  6  5  1  0
  6  7  2  0
  7  2  1  0
  8  9  1  0
 10  9  1  0
 11 10  1  0
 12 13  1  0
 12 11  1  0
 13 14  1  0
 14  9  1  0
  1 15  1  0
  1 16  1  0
  3 17  1  0
  4 18  1  0
  6 19  1  0
  8 20  1  0
  8 21  1  0
 10 22  1  0
 10 23  1  0
 11 24  1  0
 11 25  1  0
 13 26  1  0
 13 27  1  0
 14 28  1  0
 14 29  1  0
M  ISO  8  15   8  16   8  17  14  18  14  19  14  20   8  21   8  22  13
M  ISO  7  23  13  24  13  25  13  26  13  27  13  28  13  29  13
M  END
>  <minimizedAffinity>  (1) 
-3.54273272

>  <minimizedRMSD>  (1) 
4.08984756

$$$$
