
     RDKit          3D

 18 18  0  0  0  0  0  0  0  0999 V2000
   47.0670   34.6110   42.6860 C   0  0  0  0  0  0  0  0  0  0  0  0
   45.9030   35.4200   42.7950 C   0  0  0  0  0  0  0  0  0  0  0  0
   45.0420   35.2450   43.8740 C   0  0  0  0  0  0  0  0  0  0  0  0
   45.3670   34.2950   44.7760 N   0  0  0  0  0  0  0  0  0  0  0  0
   46.4830   33.5350   44.6510 C   0  0  0  0  0  0  0  0  0  0  0  0
   47.3050   33.7040   43.6200 N   0  0  0  0  0  0  0  0  0  0  0  0
   47.8610   34.9310   41.4910 C   0  0  0  0  0  0  0  0  0  0  0  0
   49.0770   35.7640   41.8440 C   0  0  0  0  0  0  0  0  0  0  0  0
   49.8560   34.9300   42.7720 N   0  0  0  0  0  0  0  0  0  0  0  0
   45.6842   36.1801   42.0305 H   0  0  0  0  0  0  0  0  0  0  0  0
   44.1341   35.8556   43.9872 H   0  0  0  0  0  0  0  0  0  0  0  0
   46.7102   32.7716   45.4097 H   0  0  0  0  0  0  0  0  0  0  0  0
   47.2338   35.4943   40.7844 H   0  0  0  0  0  0  0  0  0  0  0  0
   48.2051   33.9884   41.0404 H   0  0  0  0  0  0  0  0  0  0  0  0
   49.6648   35.9909   40.9423 H   0  0  0  0  0  0  0  0  0  0  0  0
   48.7994   36.7298   42.2914 H   0  0  0  0  0  0  0  0  0  0  0  0
   49.6196   35.1831   43.7420 H   0  0  0  0  0  0  0  0  0  0  0  0
   49.6323   33.9374   42.6119 H   0  0  0  0  0  0  0  0  0  0  0  0
  1  2  2  0
  1  6  1  0
  2  3  1  0
  3  4  2  0
  5  4  1  0
  6  5  2  0
  7  8  1  0
  7  1  1  0
  8  9  1  0
  2 10  1  0
  3 11  1  0
  5 12  1  0
  7 13  1  0
  7 14  1  0
  8 15  1  0
  8 16  1  0
  9 17  1  0
  9 18  1  0
M  ISO  8  10  14  11  14  12  14  13   8  14   8  15   8  16   8  17   5
M  ISO  1  18   5
M  END
>  <minimizedAffinity>  (1) 
-3.50236654

>  <minimizedRMSD>  (1) 
0.15630877

$$$$
