
     RDKit          3D

 37 40  0  0  0  0  0  0  0  0999 V2000
   45.3160   32.8460   47.2530 C   0  0  0  0  0  0  0  0  0  0  0  0
   45.5080   33.6310   46.0900 C   0  0  0  0  0  0  0  0  0  0  0  0
   46.4930   33.2790   45.1930 C   0  0  0  0  0  0  0  0  0  0  0  0
   47.2460   32.1790   45.4710 N   0  0  0  0  0  0  0  0  0  0  0  0
   47.0490   31.4440   46.5850 C   0  0  0  0  0  0  0  0  0  0  0  0
   46.1010   31.7610   47.4730 N   0  0  0  0  0  0  0  0  0  0  0  0
   46.7290   34.0340   44.0080 C   0  0  0  0  0  0  0  0  0  0  0  0
   45.8040   34.7460   43.2910 C   0  0  0  0  0  0  0  0  0  0  0  0
   46.4670   35.3260   42.2160 C   0  0  0  0  0  0  0  0  0  0  0  0
   47.7340   34.9380   42.3400 N   0  0  0  0  0  0  0  0  0  0  0  0
   47.9110   34.1760   43.3900 N   0  0  0  0  0  0  0  0  0  0  0  0
   48.8340   35.3060   41.4210 C   0  0  0  0  0  0  0  0  0  0  0  0
   49.2320   36.5990   41.7200 F   0  0  0  0  0  0  0  0  0  0  0  0
   48.4280   35.2400   40.1110 F   0  0  0  0  0  0  0  0  0  0  0  0
   49.9040   34.4300   41.5770 F   0  0  0  0  0  0  0  0  0  0  0  0
   47.8890   30.2750   46.8350 C   0  0  0  0  0  0  0  0  0  0  0  0
   48.1330   29.2540   45.9430 C   0  0  0  0  0  0  0  0  0  0  0  0
   48.9440   28.3510   46.4840 N   0  0  0  0  0  0  0  0  0  0  0  0
   49.2360   28.7810   47.7430 C   0  0  0  0  0  0  0  0  0  0  0  0
   48.5870   29.9330   47.9140 N   0  0  0  0  0  0  0  0  0  0  0  0
   48.6340   30.7200   49.1530 C   0  0  0  0  0  0  0  0  0  0  0  0
   47.3670   30.8020   49.7190 F   0  0  0  0  0  0  0  0  0  0  0  0
   49.4400   30.1580   50.1040 F   0  0  0  0  0  0  0  0  0  0  0  0
   48.9620   32.0580   48.8750 F   0  0  0  0  0  0  0  0  0  0  0  0
   50.1280   27.9460   48.5460 C   0  0  0  0  0  0  0  0  0  0  0  0
   50.5430   26.5920   48.0830 C   0  0  0  0  0  0  0  0  0  0  0  0
   49.5320   26.7230   49.1640 C   0  0  0  0  0  0  0  0  0  0  0  0
   44.5323   33.1151   47.9765 H   0  0  0  0  0  0  0  0  0  0  0  0
   44.8772   34.5129   45.9046 H   0  0  0  0  0  0  0  0  0  0  0  0
   44.7331   34.8412   43.5234 H   0  0  0  0  0  0  0  0  0  0  0  0
   46.0374   35.9671   41.4322 H   0  0  0  0  0  0  0  0  0  0  0  0
   47.7157   29.1946   44.9270 H   0  0  0  0  0  0  0  0  0  0  0  0
   50.6865   28.8300   48.8873 H   0  0  0  0  0  0  0  0  0  0  0  0
   50.2397   26.2350   47.0877 H   0  0  0  0  0  0  0  0  0  0  0  0
   51.5047   26.0682   47.9790 H   0  0  0  0  0  0  0  0  0  0  0  0
   49.7917   26.4461   50.1964 H   0  0  0  0  0  0  0  0  0  0  0  0
   48.5090   26.3508   49.3215 H   0  0  0  0  0  0  0  0  0  0  0  0
  1  6  2  0
  2  1  1  0
  3  4  1  0
  3  2  2  0
  4  5  2  0
  5 16  1  0
  5  6  1  0
  7  3  1  0
  8  7  1  0
  9 10  1  0
  9  8  2  0
 10 11  1  0
 11  7  2  0
 12 15  1  0
 12 13  1  0
 12 10  1  0
 14 12  1  0
 16 20  1  0
 17 18  1  0
 17 16  2  0
 18 19  2  0
 19 20  1  0
 19 25  1  0
 20 21  1  0
 21 22  1  0
 21 23  1  0
 24 21  1  0
 25 27  1  0
 26 25  1  0
 26 27  1  0
  1 28  1  0
  2 29  1  0
  8 30  1  0
  9 31  1  0
 17 32  1  0
 25 33  1  0
 26 34  1  0
 26 35  1  0
 27 36  1  0
 27 37  1  0
M  ISO  8  28  14  29  14  30  14  31  14  32  14  33  13  34  13  35  13
M  ISO  2  36  13  37  13
M  END
>  <minimizedAffinity>  (1) 
-6.10676765

>  <minimizedRMSD>  (1) 
2.40980554

$$$$
