
     RDKit          3D

 26 28  0  0  0  0  0  0  0  0999 V2000
   44.4670   35.9300   44.6590 C   0  0  0  0  0  0  0  0  0  0  0  0
   45.2110   35.9690   43.4630 C   0  0  0  0  0  0  0  0  0  0  0  0
   46.1830   34.9720   43.2910 C   0  0  0  0  0  0  0  0  0  0  0  0
   46.3430   34.0480   44.2760 N   0  0  0  0  0  0  0  0  0  0  0  0
   45.6050   34.0520   45.4090 C   0  0  0  0  0  0  0  0  0  0  0  0
   44.6770   34.9880   45.5910 N   0  0  0  0  0  0  0  0  0  0  0  0
   47.0130   34.8890   42.1210 N   0  0  0  0  0  0  0  0  0  0  0  0
   48.2410   35.4180   41.9660 C   0  0  0  0  0  0  0  0  0  0  0  0
   48.7430   35.1640   40.7670 N   0  0  0  0  0  0  0  0  0  0  0  0
   47.8180   34.4340   40.0780 C   0  0  0  0  0  0  0  0  0  0  0  0
   47.7090   33.8570   38.8110 C   0  0  0  0  0  0  0  0  0  0  0  0
   46.6180   33.1820   38.4550 N   0  0  0  0  0  0  0  0  0  0  0  0
   45.5750   33.0340   39.3130 C   0  0  0  0  0  0  0  0  0  0  0  0
   45.6680   33.5850   40.5370 N   0  0  0  0  0  0  0  0  0  0  0  0
   46.7480   34.2780   40.9530 C   0  0  0  0  0  0  0  0  0  0  0  0
   48.8330   34.0510   37.9670 N   0  0  0  0  0  0  0  0  0  0  0  0
   45.9490   32.9510   46.3460 C   0  0  0  0  0  0  0  0  0  0  0  0
   47.2120   33.0660   46.8730 F   0  0  0  0  0  0  0  0  0  0  0  0
   45.7540   31.7450   45.6820 F   0  0  0  0  0  0  0  0  0  0  0  0
   45.0440   32.9800   47.3880 F   0  0  0  0  0  0  0  0  0  0  0  0
   43.6933   36.6923   44.8332 H   0  0  0  0  0  0  0  0  0  0  0  0
   45.0381   36.7435   42.7012 H   0  0  0  0  0  0  0  0  0  0  0  0
   48.7655   35.9932   42.7432 H   0  0  0  0  0  0  0  0  0  0  0  0
   44.6752   32.4765   39.0139 H   0  0  0  0  0  0  0  0  0  0  0  0
   48.8359   33.6583   37.0148 H   0  0  0  0  0  0  0  0  0  0  0  0
   49.6460   34.5845   38.3066 H   0  0  0  0  0  0  0  0  0  0  0  0
  1  6  2  0
  2  1  1  0
  3  2  2  0
  3  4  1  0
  4  5  2  0
  5  6  1  0
  5 17  1  0
  7  3  1  0
  8  7  1  0
  9  8  2  0
 10  9  1  0
 10 15  2  0
 11 10  1  0
 12 11  2  0
 12 13  1  0
 13 14  2  0
 14 15  1  0
 15  7  1  0
 16 11  1  0
 17 18  1  0
 17 20  1  0
 19 17  1  0
  1 21  1  0
  2 22  1  0
  8 23  1  0
 13 24  1  0
 16 25  1  0
 16 26  1  0
M  ISO  4  21  14  22  14  23  14  24  14
M  END
>  <minimizedAffinity>  (1) 
-6.17723656

>  <minimizedRMSD>  (1) 
0.617755711

$$$$
