
     RDKit          3D

 27 29  0  0  0  0  0  0  0  0999 V2000
   45.6710   34.2490   42.8070 N   0  0  0  0  0  0  0  0  0  0  0  0
   44.8990   34.0760   41.7150 C   0  0  0  0  0  0  0  0  0  0  0  0
   45.6490   34.1320   40.5980 N   0  0  0  0  0  0  0  0  0  0  0  0
   46.9110   34.3410   40.9700 C   0  0  0  0  0  0  0  0  0  0  0  0
   48.0840   34.4810   40.2520 C   0  0  0  0  0  0  0  0  0  0  0  0
   48.0800   34.4160   39.0060 O   0  0  0  0  0  0  0  0  0  0  0  0
   49.2680   34.6920   40.8950 N   0  0  0  0  0  0  0  0  0  0  0  0
   49.2180   34.7540   42.2370 C   0  0  0  0  0  0  0  0  0  0  0  0
   50.4750   34.9750   42.8650 N   0  0  0  0  0  0  0  0  0  0  0  0
   48.1010   34.6230   42.9680 N   0  0  0  0  0  0  0  0  0  0  0  0
   46.9210   34.4150   42.3520 C   0  0  0  0  0  0  0  0  0  0  0  0
   44.3480   35.3720   46.0660 C   0  0  0  0  0  0  0  0  0  0  0  0
   44.6410   35.3800   44.6920 C   0  0  0  0  0  0  0  0  0  0  0  0
   45.3560   34.2740   44.1940 C   0  0  0  0  0  0  0  0  0  0  0  0
   45.7050   33.2970   45.0600 N   0  0  0  0  0  0  0  0  0  0  0  0
   45.4060   33.3270   46.3630 C   0  0  0  0  0  0  0  0  0  0  0  0
   44.7270   34.3620   46.8780 N   0  0  0  0  0  0  0  0  0  0  0  0
   45.8880   32.1510   47.1140 C   0  0  0  0  0  0  0  0  0  0  0  0
   47.0690   32.3480   47.7750 F   0  0  0  0  0  0  0  0  0  0  0  0
   45.9210   31.0660   46.2480 F   0  0  0  0  0  0  0  0  0  0  0  0
   44.9390   31.8310   48.0810 F   0  0  0  0  0  0  0  0  0  0  0  0
   43.8114   33.9124   41.7340 H   0  0  0  0  0  0  0  0  0  0  0  0
   50.1535   34.7982   40.3798 H   0  0  0  0  0  0  0  0  0  0  0  0
   50.5341   35.0370   43.8914 H   0  0  0  0  0  0  0  0  0  0  0  0
   51.3262   35.0730   42.2933 H   0  0  0  0  0  0  0  0  0  0  0  0
   43.7906   36.2177   46.4951 H   0  0  0  0  0  0  0  0  0  0  0  0
   44.3279   36.2078   44.0388 H   0  0  0  0  0  0  0  0  0  0  0  0
  1 14  1  0
  2  1  1  0
  3  4  1  0
  3  2  2  0
  4 11  2  0
  5  7  1  0
  5  4  1  0
  6  5  2  0
  7  8  1  0
  8  9  1  0
  8 10  2  0
 11  1  1  0
 11 10  1  0
 12 17  2  0
 13 12  1  0
 14 13  2  0
 14 15  1  0
 15 16  2  0
 16 17  1  0
 16 18  1  0
 18 19  1  0
 18 21  1  0
 20 18  1  0
  2 22  1  0
  7 23  1  0
  9 24  1  0
  9 25  1  0
 12 26  1  0
 13 27  1  0
M  ISO  4  22  14  23   9  26  14  27  14
M  END
>  <minimizedAffinity>  (1) 
-6.26508188

>  <minimizedRMSD>  (1) 
1.86199844

$$$$
