
     RDKit          3D

 24 25  0  0  0  0  0  0  0  0999 V2000
   44.4790   35.9400   44.8010 C   0  0  0  0  0  0  0  0  0  0  0  0
   45.1320   35.8500   43.5450 C   0  0  0  0  0  0  0  0  0  0  0  0
   46.0030   34.7770   43.3720 C   0  0  0  0  0  0  0  0  0  0  0  0
   46.1830   33.8950   44.3800 N   0  0  0  0  0  0  0  0  0  0  0  0
   45.5380   34.0200   45.5640 C   0  0  0  0  0  0  0  0  0  0  0  0
   44.6930   35.0340   45.7750 N   0  0  0  0  0  0  0  0  0  0  0  0
   46.6740   34.6560   42.1230 N   0  0  0  0  0  0  0  0  0  0  0  0
   47.8680   35.3150   42.0790 C   0  0  0  0  0  0  0  0  0  0  0  0
   48.6000   35.2570   40.8960 C   0  0  0  0  0  0  0  0  0  0  0  0
   48.0630   34.5330   39.8430 C   0  0  0  0  0  0  0  0  0  0  0  0
   48.7500   34.4250   38.5990 N   0  0  0  0  0  0  0  0  0  0  0  0
   46.8680   33.8780   39.8980 N   0  0  0  0  0  0  0  0  0  0  0  0
   46.1870   33.9650   41.0780 C   0  0  0  0  0  0  0  0  0  0  0  0
   45.0780   33.3810   41.1920 O   0  0  0  0  0  0  0  0  0  0  0  0
   45.8820   32.9430   46.5290 C   0  0  0  0  0  0  0  0  0  0  0  0
   47.1460   33.0610   47.0610 F   0  0  0  0  0  0  0  0  0  0  0  0
   45.6710   31.7250   45.9230 F   0  0  0  0  0  0  0  0  0  0  0  0
   44.9990   33.0250   47.5940 F   0  0  0  0  0  0  0  0  0  0  0  0
   43.7807   36.7699   44.9843 H   0  0  0  0  0  0  0  0  0  0  0  0
   44.9595   36.5893   42.7489 H   0  0  0  0  0  0  0  0  0  0  0  0
   48.2403   35.8741   42.9501 H   0  0  0  0  0  0  0  0  0  0  0  0
   49.5697   35.7674   40.8005 H   0  0  0  0  0  0  0  0  0  0  0  0
   49.6603   34.8897   38.4714 H   0  0  0  0  0  0  0  0  0  0  0  0
   48.3362   33.8823   37.8276 H   0  0  0  0  0  0  0  0  0  0  0  0
  1  6  2  0
  2  1  1  0
  3  2  2  0
  3  4  1  0
  4  5  2  0
  5  6  1  0
  5 15  1  0
  7  3  1  0
  8  7  1  0
  9  8  2  0
 10 12  2  0
 10  9  1  0
 11 10  1  0
 12 13  1  0
 13 14  2  0
 13  7  1  0
 15 16  1  0
 15 18  1  0
 17 15  1  0
  1 19  1  0
  2 20  1  0
  8 21  1  0
  9 22  1  0
 11 23  1  0
 11 24  1  0
M  ISO  4  19  14  20  14  21  14  22  14
M  END
>  <minimizedAffinity>  (1) 
-6.1373415

>  <minimizedRMSD>  (1) 
1.01738822

$$$$
