
     RDKit          3D

 26 27  0  0  0  0  0  0  0  0999 V2000
   44.4580   36.0320   44.7740 C   0  0  0  0  0  0  0  0  0  0  0  0
   45.0240   35.9130   43.4890 C   0  0  0  0  0  0  0  0  0  0  0  0
   45.8480   34.8150   43.2730 C   0  0  0  0  0  0  0  0  0  0  0  0
   46.0620   33.9360   44.2780 N   0  0  0  0  0  0  0  0  0  0  0  0
   45.4950   34.0910   45.5020 C   0  0  0  0  0  0  0  0  0  0  0  0
   44.6990   35.1380   45.7350 N   0  0  0  0  0  0  0  0  0  0  0  0
   47.6350   33.9860   39.5160 C   0  0  0  0  0  0  0  0  0  0  0  0
   46.3610   33.4930   39.8180 C   0  0  0  0  0  0  0  0  0  0  0  0
   45.8290   33.8010   41.0720 C   0  0  0  0  0  0  0  0  0  0  0  0
   46.5010   34.5590   42.0020 C   0  0  0  0  0  0  0  0  0  0  0  0
   47.7510   35.0220   41.6630 C   0  0  0  0  0  0  0  0  0  0  0  0
   48.3100   34.7450   40.4510 C   0  0  0  0  0  0  0  0  0  0  0  0
   48.4250   33.6790   37.9850 S   0  0  0  0  0  0  0  0  0  0  0  0
   48.2740   34.8550   37.0830 O   0  0  0  0  0  0  0  0  0  0  0  0
   47.6920   32.5280   37.3260 O   0  0  0  0  0  0  0  0  0  0  0  0
   45.8460   33.0300   46.4690 C   0  0  0  0  0  0  0  0  0  0  0  0
   47.1210   33.1260   46.9680 F   0  0  0  0  0  0  0  0  0  0  0  0
   45.6490   31.7970   45.8410 F   0  0  0  0  0  0  0  0  0  0  0  0
   44.9600   33.0910   47.5220 F   0  0  0  0  0  0  0  0  0  0  0  0
   43.7991   36.8857   44.9910 H   0  0  0  0  0  0  0  0  0  0  0  0
   44.8240   36.6508   42.6981 H   0  0  0  0  0  0  0  0  0  0  0  0
   45.7988   32.8849   39.0941 H   0  0  0  0  0  0  0  0  0  0  0  0
   44.8288   33.4207   41.3269 H   0  0  0  0  0  0  0  0  0  0  0  0
   48.3129   35.6302   42.3871 H   0  0  0  0  0  0  0  0  0  0  0  0
   49.3124   35.1314   40.2148 H   0  0  0  0  0  0  0  0  0  0  0  0
   49.7527   33.4160   38.1969 H   0  0  0  0  0  0  0  0  0  0  0  0
  1  6  2  0
  2  1  1  0
  3  2  2  0
  3  4  1  0
  4  5  2  0
  5  6  1  0
  5 16  1  0
  7  8  2  0
  7 12  1  0
  8  9  1  0
  9 10  2  0
 10  3  1  0
 11 10  1  0
 12 11  2  0
 13  7  1  0
 14 13  2  0
 15 13  2  0
 16 17  1  0
 16 19  1  0
 18 16  1  0
  1 20  1  0
  2 21  1  0
  8 22  1  0
  9 23  1  0
 11 24  1  0
 12 25  1  0
 13 26  1  0
M  ISO  7  20  14  21  14  22  14  23  14  24  14  25  14  26  11
M  END
>  <minimizedAffinity>  (1) 
-6.02524853

>  <minimizedRMSD>  (1) 
1.05573261

$$$$
