
     RDKit          3D

 29 31  0  0  0  0  0  0  0  0999 V2000
   44.4130   36.0130   44.8850 C   0  0  0  0  0  0  0  0  0  0  0  0
   45.0040   36.0000   43.6130 C   0  0  0  0  0  0  0  0  0  0  0  0
   45.8810   34.9670   43.3120 C   0  0  0  0  0  0  0  0  0  0  0  0
   46.0940   34.0470   44.2930 N   0  0  0  0  0  0  0  0  0  0  0  0
   45.5290   34.0660   45.4990 C   0  0  0  0  0  0  0  0  0  0  0  0
   44.6920   35.0590   45.7700 N   0  0  0  0  0  0  0  0  0  0  0  0
   46.6470   34.8140   42.0950 C   0  0  0  0  0  0  0  0  0  0  0  0
   47.9130   35.4210   42.1150 C   0  0  0  0  0  0  0  0  0  0  0  0
   48.8040   35.3870   41.0680 C   0  0  0  0  0  0  0  0  0  0  0  0
   48.4820   34.7270   39.9040 C   0  0  0  0  0  0  0  0  0  0  0  0
   47.2560   34.1110   39.8330 C   0  0  0  0  0  0  0  0  0  0  0  0
   46.8670   33.3970   38.7200 C   0  0  0  0  0  0  0  0  0  0  0  0
   45.6450   32.7260   38.6230 C   0  0  0  0  0  0  0  0  0  0  0  0
   44.8090   32.8120   39.7390 C   0  0  0  0  0  0  0  0  0  0  0  0
   45.2120   33.5240   40.8320 C   0  0  0  0  0  0  0  0  0  0  0  0
   46.4120   34.1800   40.9090 C   0  0  0  0  0  0  0  0  0  0  0  0
   45.9170   32.9570   46.3900 C   0  0  0  0  0  0  0  0  0  0  0  0
   47.1930   33.0540   46.8780 F   0  0  0  0  0  0  0  0  0  0  0  0
   45.7520   31.7630   45.6790 F   0  0  0  0  0  0  0  0  0  0  0  0
   45.0390   32.9200   47.4480 F   0  0  0  0  0  0  0  0  0  0  0  0
   43.7132   36.8182   45.1532 H   0  0  0  0  0  0  0  0  0  0  0  0
   44.7792   36.7850   42.8760 H   0  0  0  0  0  0  0  0  0  0  0  0
   48.2114   35.9585   43.0272 H   0  0  0  0  0  0  0  0  0  0  0  0
   49.7781   35.8894   41.1613 H   0  0  0  0  0  0  0  0  0  0  0  0
   49.1838   34.6938   39.0576 H   0  0  0  0  0  0  0  0  0  0  0  0
   47.5549   33.3530   37.8627 H   0  0  0  0  0  0  0  0  0  0  0  0
   45.3585   32.1638   37.7220 H   0  0  0  0  0  0  0  0  0  0  0  0
   43.8310   32.3086   39.7371 H   0  0  0  0  0  0  0  0  0  0  0  0
   44.5359   33.5736   41.6983 H   0  0  0  0  0  0  0  0  0  0  0  0
  1  6  2  0
  2  1  1  0
  3  2  2  0
  3  4  1  0
  4  5  2  0
  5  6  1  0
  5 17  1  0
  7  8  2  0
  7  3  1  0
  9  8  1  0
 10  9  2  0
 11 10  1  0
 11 16  2  0
 12 11  1  0
 13 12  2  0
 13 14  1  0
 14 15  2  0
 15 16  1  0
 16  7  1  0
 17 18  1  0
 17 20  1  0
 19 17  1  0
  1 21  1  0
  2 22  1  0
  8 23  1  0
  9 24  1  0
 10 25  1  0
 12 26  1  0
 13 27  1  0
 14 28  1  0
 15 29  1  0
M  ISO  8  21  14  22  14  23  14  24  14  25  14  26  14  27  14  28  14
M  ISO  1  29  14
M  END
>  <minimizedAffinity>  (1) 
-6.57291508

>  <minimizedRMSD>  (1) 
0.559141338

$$$$
