
     RDKit          3D

 28 29  0  0  0  0  0  0  0  0999 V2000
   44.4560   35.9110   44.8710 C   0  0  0  0  0  0  0  0  0  0  0  0
   45.1280   35.8540   43.6380 C   0  0  0  0  0  0  0  0  0  0  0  0
   46.0390   34.8000   43.4490 C   0  0  0  0  0  0  0  0  0  0  0  0
   46.2110   33.9080   44.4660 N   0  0  0  0  0  0  0  0  0  0  0  0
   45.5400   34.0070   45.6350 C   0  0  0  0  0  0  0  0  0  0  0  0
   44.6750   35.0010   45.8220 N   0  0  0  0  0  0  0  0  0  0  0  0
   46.7900   34.6260   42.2370 N   0  0  0  0  0  0  0  0  0  0  0  0
   48.2210   34.7160   42.1930 C   0  0  0  0  0  0  0  0  0  0  0  0
   48.5990   35.3900   40.8910 C   0  0  0  0  0  0  0  0  0  0  0  0
   48.2360   34.4530   39.7630 C   0  0  0  0  0  0  0  0  0  0  0  0
   46.9130   33.7760   39.9330 C   0  0  0  0  0  0  0  0  0  0  0  0
   46.0490   34.3490   41.0230 C   0  0  0  0  0  0  0  0  0  0  0  0
   45.8720   32.9410   46.6020 C   0  0  0  0  0  0  0  0  0  0  0  0
   47.1370   33.0350   47.1270 F   0  0  0  0  0  0  0  0  0  0  0  0
   45.6690   31.7080   45.9780 F   0  0  0  0  0  0  0  0  0  0  0  0
   44.9710   33.0000   47.6500 F   0  0  0  0  0  0  0  0  0  0  0  0
   43.7356   36.7215   45.0557 H   0  0  0  0  0  0  0  0  0  0  0  0
   44.9485   36.6034   42.8530 H   0  0  0  0  0  0  0  0  0  0  0  0
   48.5854   35.3116   43.0430 H   0  0  0  0  0  0  0  0  0  0  0  0
   48.6725   33.7148   42.2543 H   0  0  0  0  0  0  0  0  0  0  0  0
   48.0463   36.3351   40.7848 H   0  0  0  0  0  0  0  0  0  0  0  0
   49.6758   35.6138   40.8729 H   0  0  0  0  0  0  0  0  0  0  0  0
   49.0140   33.6784   39.6935 H   0  0  0  0  0  0  0  0  0  0  0  0
   48.1639   35.0659   38.8524 H   0  0  0  0  0  0  0  0  0  0  0  0
   46.3635   33.8544   38.9833 H   0  0  0  0  0  0  0  0  0  0  0  0
   47.1305   32.7374   40.2227 H   0  0  0  0  0  0  0  0  0  0  0  0
   45.6025   35.2871   40.6615 H   0  0  0  0  0  0  0  0  0  0  0  0
   45.2810   33.6000   41.2663 H   0  0  0  0  0  0  0  0  0  0  0  0
  1  6  2  0
  2  1  1  0
  3  2  2  0
  3  4  1  0
  4  5  2  0
  5  6  1  0
  5 13  1  0
  7  3  1  0
  8  7  1  0
  9  8  1  0
 10 11  1  0
 10  9  1  0
 11 12  1  0
 12  7  1  0
 13 14  1  0
 13 16  1  0
 15 13  1  0
  1 17  1  0
  2 18  1  0
  8 19  1  0
  8 20  1  0
  9 21  1  0
  9 22  1  0
 10 23  1  0
 10 24  1  0
 11 25  1  0
 11 26  1  0
 12 27  1  0
 12 28  1  0
M  ISO  8  17  14  18  14  19  13  20  13  21  13  22  13  23  13  24  13
M  ISO  4  25  13  26  13  27  13  28  13
M  END
>  <minimizedAffinity>  (1) 
-5.69827652

>  <minimizedRMSD>  (1) 
0.326160222

$$$$
