
     RDKit          3D

 20 21  0  0  0  0  0  0  0  0999 V2000
   44.4770   35.9370   44.7020 C   0  0  0  0  0  0  0  0  0  0  0  0
   45.2170   35.9230   43.4920 C   0  0  0  0  0  0  0  0  0  0  0  0
   46.1490   34.9040   43.3550 C   0  0  0  0  0  0  0  0  0  0  0  0
   46.3080   33.9990   44.3430 N   0  0  0  0  0  0  0  0  0  0  0  0
   45.5790   34.0470   45.4890 C   0  0  0  0  0  0  0  0  0  0  0  0
   44.6720   35.0200   45.6480 N   0  0  0  0  0  0  0  0  0  0  0  0
   46.9190   34.8300   42.1770 C   0  0  0  0  0  0  0  0  0  0  0  0
   48.1240   35.3580   41.7540 C   0  0  0  0  0  0  0  0  0  0  0  0
   48.6230   35.1010   40.5300 C   0  0  0  0  0  0  0  0  0  0  0  0
   47.8150   34.2460   39.7080 C   0  0  0  0  0  0  0  0  0  0  0  0
   46.3570   33.8630   40.7830 S   0  0  0  0  0  0  0  0  0  0  0  0
   45.8940   32.9750   46.4580 C   0  0  0  0  0  0  0  0  0  0  0  0
   47.1690   33.0680   46.9730 F   0  0  0  0  0  0  0  0  0  0  0  0
   45.6820   31.7620   45.8420 F   0  0  0  0  0  0  0  0  0  0  0  0
   45.0050   33.0670   47.5050 F   0  0  0  0  0  0  0  0  0  0  0  0
   43.7248   36.7233   44.8628 H   0  0  0  0  0  0  0  0  0  0  0  0
   45.0609   36.6772   42.7066 H   0  0  0  0  0  0  0  0  0  0  0  0
   48.6919   36.0069   42.4369 H   0  0  0  0  0  0  0  0  0  0  0  0
   49.5812   35.5166   40.1849 H   0  0  0  0  0  0  0  0  0  0  0  0
   48.0145   33.9004   38.6829 H   0  0  0  0  0  0  0  0  0  0  0  0
  1  6  2  0
  2  1  1  0
  3  2  2  0
  3  4  1  0
  4  5  2  0
  5  6  1  0
  5 12  1  0
  7  3  1  0
  8  7  2  0
  9  8  1  0
 10  9  2  0
 10 11  1  0
 11  7  1  0
 12 13  1  0
 12 15  1  0
 14 12  1  0
  1 16  1  0
  2 17  1  0
  8 18  1  0
  9 19  1  0
 10 20  1  0
M  ISO  5  16  14  17  14  18  14  19  14  20  14
M  END
>  <minimizedAffinity>  (1) 
-5.44665575

>  <minimizedRMSD>  (1) 
0.772746503

$$$$
