
     RDKit          3D

 18 19  0  0  0  0  0  0  0  0999 V2000
   44.5100   35.9960   44.5850 C   0  0  0  0  0  0  0  0  0  0  0  0
   45.1950   35.9130   43.3630 C   0  0  0  0  0  0  0  0  0  0  0  0
   46.0830   34.8520   43.2290 C   0  0  0  0  0  0  0  0  0  0  0  0
   46.2440   33.9760   44.2450 N   0  0  0  0  0  0  0  0  0  0  0  0
   45.5620   34.0930   45.4110 C   0  0  0  0  0  0  0  0  0  0  0  0
   44.7070   35.1030   45.5560 N   0  0  0  0  0  0  0  0  0  0  0  0
   46.8020   34.7520   41.9650 C   0  0  0  0  0  0  0  0  0  0  0  0
   46.6930   34.2550   40.7350 N   0  0  0  0  0  0  0  0  0  0  0  0
   47.7550   34.5430   40.0740 O   0  0  0  0  0  0  0  0  0  0  0  0
   48.6120   35.2250   40.7920 C   0  0  0  0  0  0  0  0  0  0  0  0
   47.9970   35.3560   42.0020 N   0  0  0  0  0  0  0  0  0  0  0  0
   45.8800   33.0370   46.3890 C   0  0  0  0  0  0  0  0  0  0  0  0
   47.1350   33.1390   46.9380 F   0  0  0  0  0  0  0  0  0  0  0  0
   45.6500   31.8080   45.7910 F   0  0  0  0  0  0  0  0  0  0  0  0
   44.9750   33.1480   47.4410 F   0  0  0  0  0  0  0  0  0  0  0  0
   43.7945   36.8159   44.7457 H   0  0  0  0  0  0  0  0  0  0  0  0
   45.0382   36.6455   42.5575 H   0  0  0  0  0  0  0  0  0  0  0  0
   49.5991   35.6043   40.4892 H   0  0  0  0  0  0  0  0  0  0  0  0
  1  6  2  0
  2  1  1  0
  3  2  2  0
  3  4  1  0
  4  5  2  0
  5  6  1  0
  5 12  1  0
  7 11  1  0
  7  3  1  0
  8  7  2  0
  9  8  1  0
  9 10  1  0
 10 11  2  0
 12 13  1  0
 12 15  1  0
 14 12  1  0
  1 16  1  0
  2 17  1  0
 10 18  1  0
M  ISO  3  16  14  17  14  18  14
M  END
>  <minimizedAffinity>  (1) 
-5.16182899

>  <minimizedRMSD>  (1) 
0.153228357

$$$$
