
     RDKit          3D

 16 16  0  0  0  0  0  0  0  0999 V2000
   44.4870   36.0760   44.5610 C   0  0  0  0  0  0  0  0  0  0  0  0
   45.1460   36.0010   43.3060 C   0  0  0  0  0  0  0  0  0  0  0  0
   46.0190   34.9320   43.1270 C   0  0  0  0  0  0  0  0  0  0  0  0
   46.1910   34.0430   44.1260 N   0  0  0  0  0  0  0  0  0  0  0  0
   45.5480   34.1430   45.3060 C   0  0  0  0  0  0  0  0  0  0  0  0
   44.7040   35.1540   45.5170 N   0  0  0  0  0  0  0  0  0  0  0  0
   45.8770   33.0700   46.2590 C   0  0  0  0  0  0  0  0  0  0  0  0
   47.1380   33.1640   46.8030 F   0  0  0  0  0  0  0  0  0  0  0  0
   45.6830   31.8470   45.6360 F   0  0  0  0  0  0  0  0  0  0  0  0
   44.9790   33.1260   47.3140 F   0  0  0  0  0  0  0  0  0  0  0  0
   46.7270   34.7990   41.8630 C   0  0  0  0  0  0  0  0  0  0  0  0
   47.9560   34.9720   41.8130 O   0  0  0  0  0  0  0  0  0  0  0  0
   45.9910   34.4740   40.7190 O   0  0  0  0  0  0  0  0  0  0  0  0
   43.7869   36.9019   44.7555 H   0  0  0  0  0  0  0  0  0  0  0  0
   44.9757   36.7481   42.5168 H   0  0  0  0  0  0  0  0  0  0  0  0
   46.4489   34.3776   39.8466 H   0  0  0  0  0  0  0  0  0  0  0  0
  1  6  2  0
  2  1  1  0
  3  2  2  0
  3  4  1  0
  4  5  2  0
  5  6  1  0
  5  7  1  0
  7  8  1  0
  7 10  1  0
  9  7  1  0
 11  3  1  0
 12 11  2  0
 13 11  1  0
  1 14  1  0
  2 15  1  0
 13 16  1  0
M  ISO  3  14  14  15  14  16   3
M  END
>  <minimizedAffinity>  (1) 
-4.49575901

>  <minimizedRMSD>  (1) 
0.450683087

$$$$
