
     RDKit          3D

 19 20  0  0  0  0  0  0  0  0999 V2000
   44.4670   35.9790   44.7300 C   0  0  0  0  0  0  0  0  0  0  0  0
   45.1320   35.9540   43.4920 C   0  0  0  0  0  0  0  0  0  0  0  0
   46.0470   34.9040   43.2920 C   0  0  0  0  0  0  0  0  0  0  0  0
   46.2340   33.9930   44.2830 N   0  0  0  0  0  0  0  0  0  0  0  0
   45.5610   34.0710   45.4600 C   0  0  0  0  0  0  0  0  0  0  0  0
   44.6900   35.0530   45.6750 N   0  0  0  0  0  0  0  0  0  0  0  0
   46.7960   34.7550   42.0730 N   0  0  0  0  0  0  0  0  0  0  0  0
   48.0360   35.2930   41.9310 C   0  0  0  0  0  0  0  0  0  0  0  0
   48.5040   35.0010   40.6910 N   0  0  0  0  0  0  0  0  0  0  0  0
   47.5420   34.2840   40.0810 C   0  0  0  0  0  0  0  0  0  0  0  0
   46.5380   34.1550   40.9350 N   0  0  0  0  0  0  0  0  0  0  0  0
   45.9100   32.9780   46.4080 C   0  0  0  0  0  0  0  0  0  0  0  0
   47.1780   33.0950   46.9300 F   0  0  0  0  0  0  0  0  0  0  0  0
   45.7160   31.7700   45.7520 F   0  0  0  0  0  0  0  0  0  0  0  0
   45.0130   33.0260   47.4530 F   0  0  0  0  0  0  0  0  0  0  0  0
   43.7420   36.7817   44.9301 H   0  0  0  0  0  0  0  0  0  0  0  0
   44.9468   36.7154   42.7200 H   0  0  0  0  0  0  0  0  0  0  0  0
   48.5732   35.8714   42.6970 H   0  0  0  0  0  0  0  0  0  0  0  0
   47.5824   33.8789   39.0591 H   0  0  0  0  0  0  0  0  0  0  0  0
  1  6  2  0
  2  1  1  0
  3  2  2  0
  3  4  1  0
  4  5  2  0
  5  6  1  0
  5 12  1  0
  7  3  1  0
  8  7  1  0
  9  8  2  0
 10  9  1  0
 10 11  2  0
 11  7  1  0
 12 13  1  0
 12 15  1  0
 14 12  1  0
  1 16  1  0
  2 17  1  0
  8 18  1  0
 10 19  1  0
M  ISO  4  16  14  17  14  18  14  19  14
M  END
>  <minimizedAffinity>  (1) 
-5.08922863

>  <minimizedRMSD>  (1) 
0.53889513

$$$$
