
     RDKit          3D

 19 19  0  0  0  0  0  0  0  0999 V2000
   44.5400   36.0520   44.4810 C   0  0  0  0  0  0  0  0  0  0  0  0
   45.2260   35.9540   43.2400 C   0  0  0  0  0  0  0  0  0  0  0  0
   46.1120   34.8680   43.0950 C   0  0  0  0  0  0  0  0  0  0  0  0
   46.2470   34.0030   44.1320 N   0  0  0  0  0  0  0  0  0  0  0  0
   45.5770   34.1380   45.2830 C   0  0  0  0  0  0  0  0  0  0  0  0
   44.7260   35.1590   45.4580 N   0  0  0  0  0  0  0  0  0  0  0  0
   45.8810   33.0820   46.2650 C   0  0  0  0  0  0  0  0  0  0  0  0
   47.1310   33.1740   46.8280 F   0  0  0  0  0  0  0  0  0  0  0  0
   45.6650   31.8480   45.6730 F   0  0  0  0  0  0  0  0  0  0  0  0
   44.9710   33.1710   47.3070 F   0  0  0  0  0  0  0  0  0  0  0  0
   46.8770   34.6800   41.8320 C   0  0  0  0  0  0  0  0  0  0  0  0
   48.2020   35.3380   41.8390 C   0  0  0  0  0  0  0  0  0  0  0  0
   43.8383   36.8838   44.6414 H   0  0  0  0  0  0  0  0  0  0  0  0
   45.0732   36.6877   42.4348 H   0  0  0  0  0  0  0  0  0  0  0  0
   46.2864   35.0960   41.0024 H   0  0  0  0  0  0  0  0  0  0  0  0
   47.0535   33.6001   41.7193 H   0  0  0  0  0  0  0  0  0  0  0  0
   48.5260   35.4989   42.8778 H   0  0  0  0  0  0  0  0  0  0  0  0
   48.9321   34.6978   41.3222 H   0  0  0  0  0  0  0  0  0  0  0  0
   48.1331   36.3066   41.3222 H   0  0  0  0  0  0  0  0  0  0  0  0
  1  6  2  0
  2  1  1  0
  3  2  2  0
  3  4  1  0
  4  5  2  0
  5  6  1  0
  5  7  1  0
  7  8  1  0
  7 10  1  0
  9  7  1  0
 11 12  1  0
 11  3  1  0
  1 13  1  0
  2 14  1  0
 11 15  1  0
 11 16  1  0
 12 17  1  0
 12 18  1  0
 12 19  1  0
M  ISO  7  13  14  14  14  15   8  16   8  17   8  18   8  19   8
M  END
>  <minimizedAffinity>  (1) 
-4.48126841

>  <minimizedRMSD>  (1) 
0.225141644

$$$$
