
     RDKit          3D

 15 15  0  0  0  0  0  0  0  0999 V2000
   44.5200   35.9880   44.5570 C   0  0  0  0  0  0  0  0  0  0  0  0
   45.2250   35.8960   43.3440 C   0  0  0  0  0  0  0  0  0  0  0  0
   46.1250   34.8400   43.2270 C   0  0  0  0  0  0  0  0  0  0  0  0
   46.2700   33.9770   44.2620 N   0  0  0  0  0  0  0  0  0  0  0  0
   45.5790   34.0970   45.4030 C   0  0  0  0  0  0  0  0  0  0  0  0
   44.7020   35.1050   45.5510 N   0  0  0  0  0  0  0  0  0  0  0  0
   45.8840   33.0550   46.4010 C   0  0  0  0  0  0  0  0  0  0  0  0
   47.1270   33.1370   46.9440 F   0  0  0  0  0  0  0  0  0  0  0  0
   45.6400   31.8150   45.8080 F   0  0  0  0  0  0  0  0  0  0  0  0
   44.9560   33.1510   47.4340 F   0  0  0  0  0  0  0  0  0  0  0  0
   46.8670   34.7040   42.0110 N   0  0  0  0  0  0  0  0  0  0  0  0
   43.7988   36.8070   44.6951 H   0  0  0  0  0  0  0  0  0  0  0  0
   45.0735   36.6203   42.5301 H   0  0  0  0  0  0  0  0  0  0  0  0
   47.5386   33.9308   41.9012 H   0  0  0  0  0  0  0  0  0  0  0  0
   46.7295   35.3793   41.2455 H   0  0  0  0  0  0  0  0  0  0  0  0
  1  6  2  0
  2  1  1  0
  3  2  2  0
  3  4  1  0
  4  5  2  0
  5  6  1  0
  5  7  1  0
  7  8  1  0
  7 10  1  0
  9  7  1  0
 11  3  1  0
  1 12  1  0
  2 13  1  0
 11 14  1  0
 11 15  1  0
M  ISO  2  12  14  13  14
M  END
>  <minimizedAffinity>  (1) 
-4.1266408

>  <minimizedRMSD>  (1) 
0.0460085869

$$$$
