
     RDKit          3D

 34 37  0  0  0  0  0  0  0  0999 V2000
   46.7110   34.7040   42.0880 N   0  0  0  0  0  0  0  0  0  0  0  0
   47.9160   35.2800   41.8940 C   0  0  0  0  0  0  0  0  0  0  0  0
   48.2810   34.9270   40.6360 C   0  0  0  0  0  0  0  0  0  0  0  0
   47.3170   34.1690   40.1160 N   0  0  0  0  0  0  0  0  0  0  0  0
   46.3250   34.0210   41.0190 C   0  0  0  0  0  0  0  0  0  0  0  0
   45.1100   33.2530   40.7920 C   0  0  0  0  0  0  0  0  0  0  0  0
   44.8820   31.8940   40.7640 C   0  0  0  0  0  0  0  0  0  0  0  0
   43.5910   31.6110   40.5210 N   0  0  0  0  0  0  0  0  0  0  0  0
   42.9160   32.7650   40.3810 C   0  0  0  0  0  0  0  0  0  0  0  0
   41.5940   33.0830   40.1260 C   0  0  0  0  0  0  0  0  0  0  0  0
   41.1810   34.3960   40.0330 C   0  0  0  0  0  0  0  0  0  0  0  0
   42.0820   35.4430   40.1920 C   0  0  0  0  0  0  0  0  0  0  0  0
   43.3720   35.0700   40.4420 C   0  0  0  0  0  0  0  0  0  0  0  0
   43.8510   33.7660   40.5470 C   0  0  0  0  0  0  0  0  0  0  0  0
   44.4730   35.9830   44.7870 C   0  0  0  0  0  0  0  0  0  0  0  0
   45.1230   35.9310   43.5200 C   0  0  0  0  0  0  0  0  0  0  0  0
   46.0010   34.8600   43.3150 C   0  0  0  0  0  0  0  0  0  0  0  0
   46.1750   33.9630   44.3160 N   0  0  0  0  0  0  0  0  0  0  0  0
   45.5460   34.0440   45.4940 C   0  0  0  0  0  0  0  0  0  0  0  0
   44.6890   35.0590   45.7350 N   0  0  0  0  0  0  0  0  0  0  0  0
   45.8870   32.9520   46.4420 C   0  0  0  0  0  0  0  0  0  0  0  0
   47.1580   33.0680   46.9530 F   0  0  0  0  0  0  0  0  0  0  0  0
   45.6980   31.7500   45.8100 F   0  0  0  0  0  0  0  0  0  0  0  0
   45.0160   33.0200   47.5030 F   0  0  0  0  0  0  0  0  0  0  0  0
   48.4810   35.9022   42.6037 H   0  0  0  0  0  0  0  0  0  0  0  0
   49.2142   35.2173   40.1313 H   0  0  0  0  0  0  0  0  0  0  0  0
   45.6615   31.1340   40.9213 H   0  0  0  0  0  0  0  0  0  0  0  0
   43.1859   30.6665   40.4533 H   0  0  0  0  0  0  0  0  0  0  0  0
   40.8593   32.2748   39.9951 H   0  0  0  0  0  0  0  0  0  0  0  0
   40.1229   34.6180   39.8300 H   0  0  0  0  0  0  0  0  0  0  0  0
   41.7773   36.4976   40.1214 H   0  0  0  0  0  0  0  0  0  0  0  0
   44.1053   35.8794   40.5734 H   0  0  0  0  0  0  0  0  0  0  0  0
   43.7729   36.8058   44.9939 H   0  0  0  0  0  0  0  0  0  0  0  0
   44.9446   36.6911   42.7451 H   0  0  0  0  0  0  0  0  0  0  0  0
  1 17  1  0
  2  1  1  0
  3  2  2  0
  4  3  1  0
  4  5  2  0
  5  1  1  0
  6  5  1  0
  7  6  2  0
  8  7  1  0
  9  8  1  0
  9 14  2  0
 10  9  1  0
 11 10  2  0
 11 12  1  0
 12 13  2  0
 13 14  1  0
 14  6  1  0
 15 20  2  0
 16 15  1  0
 17 16  2  0
 17 18  1  0
 18 19  2  0
 19 20  1  0
 19 21  1  0
 21 22  1  0
 21 24  1  0
 23 21  1  0
  2 25  1  0
  3 26  1  0
  7 27  1  0
  8 28  1  0
 10 29  1  0
 11 30  1  0
 12 31  1  0
 13 32  1  0
 15 33  1  0
 16 34  1  0
M  ISO  8  25  14  26  14  27  14  28   9  29  14  30  14  31  14  32  14
M  ISO  2  33  14  34  14
M  END
>  <minimizedAffinity>  (1) 
-6.45127726

>  <minimizedRMSD>  (1) 
1.19664752

$$$$
