
     RDKit          3D

 35 37  0  0  0  0  0  0  0  0999 V2000
   46.8460   34.7780   42.0820 N   0  0  0  0  0  0  0  0  0  0  0  0
   48.1410   35.0710   42.0250 C   0  0  0  0  0  0  0  0  0  0  0  0
   48.5080   34.8040   40.7310 C   0  0  0  0  0  0  0  0  0  0  0  0
   47.4290   34.3690   40.0740 N   0  0  0  0  0  0  0  0  0  0  0  0
   46.3830   34.3460   40.9010 C   0  0  0  0  0  0  0  0  0  0  0  0
   45.0950   33.9410   40.5310 N   0  0  0  0  0  0  0  0  0  0  0  0
   44.8510   32.7370   39.7370 C   0  0  0  0  0  0  0  0  0  0  0  0
   43.9890   33.1630   38.5430 C   0  0  0  0  0  0  0  0  0  0  0  0
   42.5860   33.2760   39.1220 C   0  0  0  0  0  0  0  0  0  0  0  0
   42.6750   33.7190   40.5470 C   0  0  0  0  0  0  0  0  0  0  0  0
   43.8570   34.6070   40.8550 C   0  0  0  0  0  0  0  0  0  0  0  0
   44.4940   36.0290   44.6950 C   0  0  0  0  0  0  0  0  0  0  0  0
   45.1970   35.9870   43.4590 C   0  0  0  0  0  0  0  0  0  0  0  0
   46.0870   34.9250   43.2820 C   0  0  0  0  0  0  0  0  0  0  0  0
   46.2240   34.0140   44.2850 N   0  0  0  0  0  0  0  0  0  0  0  0
   45.5430   34.0910   45.4340 C   0  0  0  0  0  0  0  0  0  0  0  0
   44.6720   35.1060   45.6400 N   0  0  0  0  0  0  0  0  0  0  0  0
   45.8470   32.9920   46.3880 C   0  0  0  0  0  0  0  0  0  0  0  0
   47.1030   33.0920   46.9380 F   0  0  0  0  0  0  0  0  0  0  0  0
   45.6430   31.7990   45.7430 F   0  0  0  0  0  0  0  0  0  0  0  0
   44.9420   33.0660   47.4170 F   0  0  0  0  0  0  0  0  0  0  0  0
   48.7794   35.4460   42.8385 H   0  0  0  0  0  0  0  0  0  0  0  0
   49.5158   34.9267   40.3074 H   0  0  0  0  0  0  0  0  0  0  0  0
   45.8042   32.3155   39.3851 H   0  0  0  0  0  0  0  0  0  0  0  0
   44.3445   31.9650   40.3349 H   0  0  0  0  0  0  0  0  0  0  0  0
   44.0231   32.4053   37.7463 H   0  0  0  0  0  0  0  0  0  0  0  0
   44.3346   34.1017   38.0854 H   0  0  0  0  0  0  0  0  0  0  0  0
   42.0078   34.0117   38.5437 H   0  0  0  0  0  0  0  0  0  0  0  0
   42.0856   32.2978   39.0703 H   0  0  0  0  0  0  0  0  0  0  0  0
   41.7566   34.2723   40.7926 H   0  0  0  0  0  0  0  0  0  0  0  0
   42.8031   32.8080   41.1500 H   0  0  0  0  0  0  0  0  0  0  0  0
   43.8512   34.8567   41.9263 H   0  0  0  0  0  0  0  0  0  0  0  0
   43.7789   35.5215   40.2488 H   0  0  0  0  0  0  0  0  0  0  0  0
   43.7821   36.8478   44.8763 H   0  0  0  0  0  0  0  0  0  0  0  0
   45.0474   36.7516   42.6825 H   0  0  0  0  0  0  0  0  0  0  0  0
  1 14  1  0
  2  1  1  0
  3  2  2  0
  4  3  1  0
  4  5  2  0
  5  1  1  0
  6 11  1  0
  6  5  1  0
  7  6  1  0
  8  9  1  0
  8  7  1  0
  9 10  1  0
 10 11  1  0
 12 17  2  0
 13 12  1  0
 14 13  2  0
 14 15  1  0
 15 16  2  0
 16 17  1  0
 16 18  1  0
 18 19  1  0
 18 21  1  0
 20 18  1  0
  2 22  1  0
  3 23  1  0
  7 24  1  0
  7 25  1  0
  8 26  1  0
  8 27  1  0
  9 28  1  0
  9 29  1  0
 10 30  1  0
 10 31  1  0
 11 32  1  0
 11 33  1  0
 12 34  1  0
 13 35  1  0
M  ISO  8  22  14  23  14  24  13  25  13  26  13  27  13  28  13  29  13
M  ISO  6  30  13  31  13  32  13  33  13  34  14  35  14
M  END
>  <minimizedAffinity>  (1) 
-6.17504215

>  <minimizedRMSD>  (1) 
0.385487407

$$$$
