
     RDKit          3D

 33 35  0  0  0  0  0  0  0  0999 V2000
   46.3270   34.5790   42.1340 N   0  0  0  0  0  0  0  0  0  0  0  0
   47.6400   34.6880   41.9110 C   0  0  0  0  0  0  0  0  0  0  0  0
   47.8020   34.4100   40.5900 C   0  0  0  0  0  0  0  0  0  0  0  0
   46.5880   34.1420   40.0560 N   0  0  0  0  0  0  0  0  0  0  0  0
   45.6730   34.2480   41.0170 C   0  0  0  0  0  0  0  0  0  0  0  0
   44.4360   36.0150   45.0140 C   0  0  0  0  0  0  0  0  0  0  0  0
   44.9580   35.9070   43.6920 C   0  0  0  0  0  0  0  0  0  0  0  0
   45.7450   34.8010   43.4220 C   0  0  0  0  0  0  0  0  0  0  0  0
   45.9670   33.9020   44.4200 N   0  0  0  0  0  0  0  0  0  0  0  0
   45.4650   34.0290   45.6490 C   0  0  0  0  0  0  0  0  0  0  0  0
   44.6960   35.0930   45.9440 N   0  0  0  0  0  0  0  0  0  0  0  0
   45.8280   32.9410   46.5830 C   0  0  0  0  0  0  0  0  0  0  0  0
   47.0950   33.0570   47.0860 F   0  0  0  0  0  0  0  0  0  0  0  0
   45.6430   31.7390   45.9220 F   0  0  0  0  0  0  0  0  0  0  0  0
   44.9370   32.9670   47.6360 F   0  0  0  0  0  0  0  0  0  0  0  0
   41.4780   33.8380   40.3860 C   0  0  0  0  0  0  0  0  0  0  0  0
   42.1560   35.0150   40.1580 C   0  0  0  0  0  0  0  0  0  0  0  0
   43.5130   35.1120   40.3730 C   0  0  0  0  0  0  0  0  0  0  0  0
   44.2430   34.0320   40.8240 C   0  0  0  0  0  0  0  0  0  0  0  0
   43.5600   32.8430   41.0560 C   0  0  0  0  0  0  0  0  0  0  0  0
   42.1980   32.7650   40.8350 C   0  0  0  0  0  0  0  0  0  0  0  0
   39.7390   33.6740   40.1230 S   0  0  0  0  0  0  0  0  0  0  0  0
   39.0540   33.0250   41.2840 O   0  0  0  0  0  0  0  0  0  0  0  0
   39.1390   35.0160   39.9010 O   0  0  0  0  0  0  0  0  0  0  0  0
   48.4221   34.9471   42.6399 H   0  0  0  0  0  0  0  0  0  0  0  0
   48.7586   34.4040   40.0470 H   0  0  0  0  0  0  0  0  0  0  0  0
   43.8047   36.8775   45.2739 H   0  0  0  0  0  0  0  0  0  0  0  0
   44.7457   36.6655   42.9241 H   0  0  0  0  0  0  0  0  0  0  0  0
   41.6029   35.8947   39.7972 H   0  0  0  0  0  0  0  0  0  0  0  0
   44.0235   36.0674   40.1817 H   0  0  0  0  0  0  0  0  0  0  0  0
   44.1069   31.9597   41.4174 H   0  0  0  0  0  0  0  0  0  0  0  0
   41.6787   31.8141   41.0253 H   0  0  0  0  0  0  0  0  0  0  0  0
   39.5644   32.8769   39.0225 H   0  0  0  0  0  0  0  0  0  0  0  0
  1  8  1  0
  2  1  1  0
  3  2  2  0
  4  3  1  0
  4  5  2  0
  5  1  1  0
  6 11  2  0
  7  6  1  0
  8  7  2  0
  8  9  1  0
  9 10  2  0
 10 11  1  0
 10 12  1  0
 12 13  1  0
 12 15  1  0
 14 12  1  0
 16 21  2  0
 17 18  2  0
 17 16  1  0
 18 19  1  0
 19  5  1  0
 19 20  2  0
 21 20  1  0
 22 16  1  0
 22 23  2  0
 24 22  2  0
  2 25  1  0
  3 26  1  0
  6 27  1  0
  7 28  1  0
 17 29  1  0
 18 30  1  0
 20 31  1  0
 21 32  1  0
 22 33  1  0
M  ISO  8  25  14  26  14  27  14  28  14  29  14  30  14  31  14  32  14
M  ISO  1  33  11
M  END
>  <minimizedAffinity>  (1) 
-6.36580372

>  <minimizedRMSD>  (1) 
1.5477562

$$$$
