
     RDKit          3D

 26 28  0  0  0  0  0  0  0  0999 V2000
   44.4520   35.9830   44.8710 C   0  0  0  0  0  0  0  0  0  0  0  0
   45.0960   35.9230   43.6000 C   0  0  0  0  0  0  0  0  0  0  0  0
   45.9690   34.8500   43.4010 C   0  0  0  0  0  0  0  0  0  0  0  0
   46.1510   33.9480   44.3990 N   0  0  0  0  0  0  0  0  0  0  0  0
   45.5280   34.0400   45.5770 C   0  0  0  0  0  0  0  0  0  0  0  0
   44.6750   35.0560   45.8220 N   0  0  0  0  0  0  0  0  0  0  0  0
   46.6740   34.6880   42.1570 N   0  0  0  0  0  0  0  0  0  0  0  0
   47.9710   34.9790   42.0450 C   0  0  0  0  0  0  0  0  0  0  0  0
   48.2860   34.7060   40.7430 C   0  0  0  0  0  0  0  0  0  0  0  0
   47.1700   34.2630   40.1240 N   0  0  0  0  0  0  0  0  0  0  0  0
   46.1710   34.2540   41.0050 C   0  0  0  0  0  0  0  0  0  0  0  0
   44.8110   33.8700   40.8300 N   0  0  0  0  0  0  0  0  0  0  0  0
   44.2270   33.1300   41.8060 C   0  0  0  0  0  0  0  0  0  0  0  0
   42.9610   32.8660   41.4720 N   0  0  0  0  0  0  0  0  0  0  0  0
   42.7400   33.4450   40.2730 C   0  0  0  0  0  0  0  0  0  0  0  0
   43.8990   34.0540   39.9070 N   0  0  0  0  0  0  0  0  0  0  0  0
   45.8680   32.9500   46.5320 C   0  0  0  0  0  0  0  0  0  0  0  0
   47.1380   33.0610   47.0350 F   0  0  0  0  0  0  0  0  0  0  0  0
   45.6620   31.7470   45.8960 F   0  0  0  0  0  0  0  0  0  0  0  0
   44.9880   33.0030   47.5770 F   0  0  0  0  0  0  0  0  0  0  0  0
   43.7550   36.8079   45.0800 H   0  0  0  0  0  0  0  0  0  0  0  0
   44.9159   36.6782   42.8207 H   0  0  0  0  0  0  0  0  0  0  0  0
   48.6420   35.3569   42.8305 H   0  0  0  0  0  0  0  0  0  0  0  0
   49.2764   34.8262   40.2798 H   0  0  0  0  0  0  0  0  0  0  0  0
   44.7209   32.7981   42.7312 H   0  0  0  0  0  0  0  0  0  0  0  0
   41.8007   33.4275   39.7008 H   0  0  0  0  0  0  0  0  0  0  0  0
  1  6  2  0
  2  1  1  0
  3  2  2  0
  3  4  1  0
  4  5  2  0
  5  6  1  0
  5 17  1  0
  7  3  1  0
  8  7  1  0
  9  8  2  0
 10  9  1  0
 10 11  2  0
 11  7  1  0
 12 11  1  0
 12 13  1  0
 14 13  2  0
 15 14  1  0
 16 15  2  0
 16 12  1  0
 17 18  1  0
 17 20  1  0
 19 17  1  0
  1 21  1  0
  2 22  1  0
  8 23  1  0
  9 24  1  0
 13 25  1  0
 15 26  1  0
M  ISO  6  21  14  22  14  23  14  24  14  25  14  26  14
M  END
>  <minimizedAffinity>  (1) 
-5.96041965

>  <minimizedRMSD>  (1) 
0.332706183

$$$$
