
     RDKit          3D

 32 34  0  0  0  0  0  0  0  0999 V2000
   46.7140   34.7420   42.1200 N   0  0  0  0  0  0  0  0  0  0  0  0
   47.9950   35.1050   41.9920 C   0  0  0  0  0  0  0  0  0  0  0  0
   48.3270   34.8200   40.7020 C   0  0  0  0  0  0  0  0  0  0  0  0
   47.2370   34.2950   40.0940 N   0  0  0  0  0  0  0  0  0  0  0  0
   46.2430   34.2500   40.9800 C   0  0  0  0  0  0  0  0  0  0  0  0
   44.9480   33.7500   40.6710 N   0  0  0  0  0  0  0  0  0  0  0  0
   44.1740   33.4460   39.4570 C   0  0  0  0  0  0  0  0  0  0  0  0
   42.9970   34.4050   39.6770 C   0  0  0  0  0  0  0  0  0  0  0  0
   42.6420   34.0640   41.1100 C   0  0  0  0  0  0  0  0  0  0  0  0
   43.8930   33.3500   41.6180 C   0  0  0  0  0  0  0  0  0  0  0  0
   44.4610   36.0070   44.8220 C   0  0  0  0  0  0  0  0  0  0  0  0
   45.1190   35.9580   43.5560 C   0  0  0  0  0  0  0  0  0  0  0  0
   46.0010   34.8890   43.3450 C   0  0  0  0  0  0  0  0  0  0  0  0
   46.1580   34.0000   44.3430 N   0  0  0  0  0  0  0  0  0  0  0  0
   45.5290   34.0670   45.5220 C   0  0  0  0  0  0  0  0  0  0  0  0
   44.6790   35.0770   45.7530 N   0  0  0  0  0  0  0  0  0  0  0  0
   45.8700   32.9610   46.4650 C   0  0  0  0  0  0  0  0  0  0  0  0
   47.1340   33.0690   46.9830 F   0  0  0  0  0  0  0  0  0  0  0  0
   45.6590   31.7640   45.8130 F   0  0  0  0  0  0  0  0  0  0  0  0
   44.9890   33.0250   47.5200 F   0  0  0  0  0  0  0  0  0  0  0  0
   48.6438   35.5417   42.7656 H   0  0  0  0  0  0  0  0  0  0  0  0
   49.3091   34.9872   40.2357 H   0  0  0  0  0  0  0  0  0  0  0  0
   43.8499   32.3953   39.4267 H   0  0  0  0  0  0  0  0  0  0  0  0
   44.7149   33.5706   38.5073 H   0  0  0  0  0  0  0  0  0  0  0  0
   43.3023   35.4565   39.5715 H   0  0  0  0  0  0  0  0  0  0  0  0
   42.1718   34.2973   38.9577 H   0  0  0  0  0  0  0  0  0  0  0  0
   42.4424   34.9743   41.6944 H   0  0  0  0  0  0  0  0  0  0  0  0
   41.7314   33.4529   41.1955 H   0  0  0  0  0  0  0  0  0  0  0  0
   43.7514   32.2592   41.6061 H   0  0  0  0  0  0  0  0  0  0  0  0
   44.1370   33.6161   42.6571 H   0  0  0  0  0  0  0  0  0  0  0  0
   43.7603   36.8280   45.0339 H   0  0  0  0  0  0  0  0  0  0  0  0
   44.9426   36.7215   42.7841 H   0  0  0  0  0  0  0  0  0  0  0  0
  1 13  1  0
  2  1  1  0
  3  2  2  0
  4  3  1  0
  4  5  2  0
  5  1  1  0
  6  5  1  0
  6 10  1  0
  7  8  1  0
  7  6  1  0
  8  9  1  0
  9 10  1  0
 11 16  2  0
 12 11  1  0
 13 12  2  0
 13 14  1  0
 14 15  2  0
 15 16  1  0
 15 17  1  0
 17 18  1  0
 17 20  1  0
 19 17  1  0
  2 21  1  0
  3 22  1  0
  7 23  1  0
  7 24  1  0
  8 25  1  0
  8 26  1  0
  9 27  1  0
  9 28  1  0
 10 29  1  0
 10 30  1  0
 11 31  1  0
 12 32  1  0
M  ISO  8  21  14  22  14  23  13  24  13  25  13  26  13  27  13  28  13
M  ISO  4  29  13  30  13  31  14  32  14
M  END
>  <minimizedAffinity>  (1) 
-6.12642431

>  <minimizedRMSD>  (1) 
0.196291581

$$$$
