
     RDKit          3D

 30 32  0  0  0  0  0  0  0  0999 V2000
   46.6220   34.7070   42.1590 N   0  0  0  0  0  0  0  0  0  0  0  0
   47.9290   35.0030   42.0220 C   0  0  0  0  0  0  0  0  0  0  0  0
   48.2210   34.7200   40.7180 C   0  0  0  0  0  0  0  0  0  0  0  0
   47.0960   34.2680   40.1160 N   0  0  0  0  0  0  0  0  0  0  0  0
   46.1110   34.2620   41.0120 C   0  0  0  0  0  0  0  0  0  0  0  0
   44.4560   35.9960   44.9020 C   0  0  0  0  0  0  0  0  0  0  0  0
   45.0810   35.9360   43.6310 C   0  0  0  0  0  0  0  0  0  0  0  0
   45.9350   34.8730   43.4000 C   0  0  0  0  0  0  0  0  0  0  0  0
   46.1220   33.9600   44.3920 N   0  0  0  0  0  0  0  0  0  0  0  0
   45.5170   34.0420   45.5850 C   0  0  0  0  0  0  0  0  0  0  0  0
   44.6820   35.0580   45.8460 N   0  0  0  0  0  0  0  0  0  0  0  0
   45.8660   32.9370   46.5170 C   0  0  0  0  0  0  0  0  0  0  0  0
   47.1210   33.0370   47.0370 F   0  0  0  0  0  0  0  0  0  0  0  0
   45.6690   31.7450   45.8550 F   0  0  0  0  0  0  0  0  0  0  0  0
   44.9680   32.9640   47.5620 F   0  0  0  0  0  0  0  0  0  0  0  0
   44.7430   33.8380   40.7350 C   0  0  0  0  0  0  0  0  0  0  0  0
   44.3080   32.5220   40.7670 C   0  0  0  0  0  0  0  0  0  0  0  0
   43.0010   32.1730   40.4980 C   0  0  0  0  0  0  0  0  0  0  0  0
   42.0570   33.1480   40.1780 C   0  0  0  0  0  0  0  0  0  0  0  0
   42.5050   34.4400   40.1520 C   0  0  0  0  0  0  0  0  0  0  0  0
   43.8040   34.8220   40.4160 C   0  0  0  0  0  0  0  0  0  0  0  0
   48.6125   35.3888   42.7927 H   0  0  0  0  0  0  0  0  0  0  0  0
   49.2037   34.8392   40.2384 H   0  0  0  0  0  0  0  0  0  0  0  0
   43.7704   36.8270   45.1243 H   0  0  0  0  0  0  0  0  0  0  0  0
   44.8950   36.7009   42.8627 H   0  0  0  0  0  0  0  0  0  0  0  0
   45.0294   31.7296   41.0153 H   0  0  0  0  0  0  0  0  0  0  0  0
   42.7005   31.1155   40.5363 H   0  0  0  0  0  0  0  0  0  0  0  0
   41.0099   32.8922   39.9586 H   0  0  0  0  0  0  0  0  0  0  0  0
   41.7796   35.2287   39.9035 H   0  0  0  0  0  0  0  0  0  0  0  0
   44.0951   35.8820   40.3761 H   0  0  0  0  0  0  0  0  0  0  0  0
  1  8  1  0
  2  1  1  0
  3  2  2  0
  4  3  1  0
  4  5  2  0
  5  1  1  0
  6 11  2  0
  7  6  1  0
  8  7  2  0
  8  9  1  0
  9 10  2  0
 10 11  1  0
 10 12  1  0
 12 13  1  0
 12 15  1  0
 14 12  1  0
 16 17  2  0
 16  5  1  0
 18 17  1  0
 19 18  2  0
 20 19  1  0
 20 21  2  0
 21 16  1  0
  2 22  1  0
  3 23  1  0
  6 24  1  0
  7 25  1  0
 17 26  1  0
 18 27  1  0
 19 28  1  0
 20 29  1  0
 21 30  1  0
M  ISO  8  22  14  23  14  24  14  25  14  26  14  27  14  28  14  29  14
M  ISO  1  30  14
M  END
>  <minimizedAffinity>  (1) 
-5.86380816

>  <minimizedRMSD>  (1) 
0.750821471

$$$$
