
     RDKit          3D

 27 29  0  0  0  0  0  0  0  0999 V2000
   46.6410   34.7200   42.1320 N   0  0  0  0  0  0  0  0  0  0  0  0
   47.9290   35.0590   42.0070 C   0  0  0  0  0  0  0  0  0  0  0  0
   48.2370   34.7770   40.7090 C   0  0  0  0  0  0  0  0  0  0  0  0
   47.1490   34.2880   40.1080 N   0  0  0  0  0  0  0  0  0  0  0  0
   46.1400   34.2480   40.9900 C   0  0  0  0  0  0  0  0  0  0  0  0
   44.4560   35.9990   44.8750 C   0  0  0  0  0  0  0  0  0  0  0  0
   45.0850   35.9520   43.6000 C   0  0  0  0  0  0  0  0  0  0  0  0
   45.9470   34.8770   43.3830 C   0  0  0  0  0  0  0  0  0  0  0  0
   46.1340   33.9650   44.3640 N   0  0  0  0  0  0  0  0  0  0  0  0
   45.5230   34.0440   45.5550 C   0  0  0  0  0  0  0  0  0  0  0  0
   44.6820   35.0650   45.8090 N   0  0  0  0  0  0  0  0  0  0  0  0
   45.8640   32.9440   46.4920 C   0  0  0  0  0  0  0  0  0  0  0  0
   47.1340   33.0650   47.0010 F   0  0  0  0  0  0  0  0  0  0  0  0
   45.6640   31.7480   45.8380 F   0  0  0  0  0  0  0  0  0  0  0  0
   44.9920   32.9940   47.5540 F   0  0  0  0  0  0  0  0  0  0  0  0
   44.7700   33.7900   40.7830 C   0  0  0  0  0  0  0  0  0  0  0  0
   43.7310   34.6410   40.3870 C   0  0  0  0  0  0  0  0  0  0  0  0
   42.5640   33.8790   40.2850 C   0  0  0  0  0  0  0  0  0  0  0  0
   42.9540   32.6210   40.6210 N   0  0  0  0  0  0  0  0  0  0  0  0
   44.2220   32.5680   40.9080 N   0  0  0  0  0  0  0  0  0  0  0  0
   48.5927   35.4735   42.7801 H   0  0  0  0  0  0  0  0  0  0  0  0
   49.2184   34.9273   40.2355 H   0  0  0  0  0  0  0  0  0  0  0  0
   43.7651   36.8247   45.1005 H   0  0  0  0  0  0  0  0  0  0  0  0
   44.9026   36.7174   42.8313 H   0  0  0  0  0  0  0  0  0  0  0  0
   43.8180   35.7198   40.1907 H   0  0  0  0  0  0  0  0  0  0  0  0
   41.5583   34.2198   39.9980 H   0  0  0  0  0  0  0  0  0  0  0  0
   42.3221   31.8079   40.6455 H   0  0  0  0  0  0  0  0  0  0  0  0
  1  8  1  0
  2  1  1  0
  3  2  2  0
  4  3  1  0
  4  5  2  0
  5  1  1  0
  6 11  2  0
  7  6  1  0
  8  7  2  0
  8  9  1  0
  9 10  2  0
 10 11  1  0
 10 12  1  0
 12 13  1  0
 12 15  1  0
 14 12  1  0
 16 20  2  0
 16  5  1  0
 17 16  1  0
 18 17  2  0
 18 19  1  0
 19 20  1  0
  2 21  1  0
  3 22  1  0
  6 23  1  0
  7 24  1  0
 17 25  1  0
 18 26  1  0
 19 27  1  0
M  ISO  7  21  14  22  14  23  14  24  14  25  14  26  14  27   9
M  END
>  <minimizedAffinity>  (1) 
-5.67560005

>  <minimizedRMSD>  (1) 
0.700252891

$$$$
