
     RDKit          3D

 21 22  0  0  0  0  0  0  0  0999 V2000
   44.4600   35.9940   44.7520 C   0  0  0  0  0  0  0  0  0  0  0  0
   45.1370   35.9550   43.4990 C   0  0  0  0  0  0  0  0  0  0  0  0
   46.0370   34.9050   43.3080 C   0  0  0  0  0  0  0  0  0  0  0  0
   46.2140   33.9990   44.3080 N   0  0  0  0  0  0  0  0  0  0  0  0
   45.5620   34.0620   45.4770 C   0  0  0  0  0  0  0  0  0  0  0  0
   44.6780   35.0730   45.6950 N   0  0  0  0  0  0  0  0  0  0  0  0
   46.7720   34.7640   42.0940 N   0  0  0  0  0  0  0  0  0  0  0  0
   48.0490   35.1570   41.9910 C   0  0  0  0  0  0  0  0  0  0  0  0
   48.4140   34.8670   40.7010 C   0  0  0  0  0  0  0  0  0  0  0  0
   47.3520   34.3180   40.0860 N   0  0  0  0  0  0  0  0  0  0  0  0
   46.3390   34.2530   40.9450 C   0  0  0  0  0  0  0  0  0  0  0  0
   45.1040   33.7440   40.6410 O   0  0  0  0  0  0  0  0  0  0  0  0
   45.9050   32.9770   46.4210 C   0  0  0  0  0  0  0  0  0  0  0  0
   47.1570   33.0870   46.9390 F   0  0  0  0  0  0  0  0  0  0  0  0
   45.6910   31.7780   45.7820 F   0  0  0  0  0  0  0  0  0  0  0  0
   45.0110   33.0440   47.4740 F   0  0  0  0  0  0  0  0  0  0  0  0
   43.7401   36.8023   44.9478 H   0  0  0  0  0  0  0  0  0  0  0  0
   44.9597   36.7132   42.7220 H   0  0  0  0  0  0  0  0  0  0  0  0
   48.6717   35.6145   42.7739 H   0  0  0  0  0  0  0  0  0  0  0  0
   49.4002   35.0509   40.2499 H   0  0  0  0  0  0  0  0  0  0  0  0
   44.3930   33.7256   41.3296 H   0  0  0  0  0  0  0  0  0  0  0  0
  1  6  2  0
  2  1  1  0
  3  2  2  0
  3  4  1  0
  4  5  2  0
  5  6  1  0
  5 13  1  0
  7  3  1  0
  8  7  1  0
  9  8  2  0
 10  9  1  0
 10 11  2  0
 11  7  1  0
 12 11  1  0
 13 14  1  0
 13 16  1  0
 15 13  1  0
  1 17  1  0
  2 18  1  0
  8 19  1  0
  9 20  1  0
 12 21  1  0
M  ISO  5  17  14  18  14  19  14  20  14  21   3
M  END
>  <minimizedAffinity>  (1) 
-5.27109623

>  <minimizedRMSD>  (1) 
0.0692747906

$$$$
