
     RDKit          3D

 33 35  0  0  0  0  0  0  0  0999 V2000
   46.7100   34.7820   42.0760 N   0  0  0  0  0  0  0  0  0  0  0  0
   47.9790   35.2150   41.9310 C   0  0  0  0  0  0  0  0  0  0  0  0
   48.3150   34.8840   40.6490 C   0  0  0  0  0  0  0  0  0  0  0  0
   47.2740   34.2790   40.0730 N   0  0  0  0  0  0  0  0  0  0  0  0
   46.2620   34.2100   40.9560 C   0  0  0  0  0  0  0  0  0  0  0  0
   44.9800   33.6430   40.7100 N   0  0  0  0  0  0  0  0  0  0  0  0
   44.4900   33.0510   39.4640 C   0  0  0  0  0  0  0  0  0  0  0  0
   43.2770   33.8060   39.0360 C   0  0  0  0  0  0  0  0  0  0  0  0
   43.0090   34.8670   39.8860 O   0  0  0  0  0  0  0  0  0  0  0  0
   42.8230   34.5120   41.2050 C   0  0  0  0  0  0  0  0  0  0  0  0
   43.9230   33.5880   41.7260 C   0  0  0  0  0  0  0  0  0  0  0  0
   44.4770   36.0440   44.7710 C   0  0  0  0  0  0  0  0  0  0  0  0
   45.1320   36.0020   43.5120 C   0  0  0  0  0  0  0  0  0  0  0  0
   45.9900   34.9410   43.3100 C   0  0  0  0  0  0  0  0  0  0  0  0
   46.1590   34.0190   44.3020 N   0  0  0  0  0  0  0  0  0  0  0  0
   45.5300   34.0890   45.4700 C   0  0  0  0  0  0  0  0  0  0  0  0
   44.6750   35.1140   45.7140 N   0  0  0  0  0  0  0  0  0  0  0  0
   45.8390   32.9980   46.4180 C   0  0  0  0  0  0  0  0  0  0  0  0
   47.1070   33.0770   46.9360 F   0  0  0  0  0  0  0  0  0  0  0  0
   45.6440   31.7980   45.7590 F   0  0  0  0  0  0  0  0  0  0  0  0
   44.9610   33.0470   47.4640 F   0  0  0  0  0  0  0  0  0  0  0  0
   48.6051   35.7225   42.6796 H   0  0  0  0  0  0  0  0  0  0  0  0
   49.2848   35.0834   40.1698 H   0  0  0  0  0  0  0  0  0  0  0  0
   45.2660   33.1216   38.6876 H   0  0  0  0  0  0  0  0  0  0  0  0
   44.2431   31.9902   39.6182 H   0  0  0  0  0  0  0  0  0  0  0  0
   43.4390   34.1950   38.0199 H   0  0  0  0  0  0  0  0  0  0  0  0
   42.4180   33.1194   39.0621 H   0  0  0  0  0  0  0  0  0  0  0  0
   42.8111   35.4257   41.8174 H   0  0  0  0  0  0  0  0  0  0  0  0
   41.8703   33.9662   41.2718 H   0  0  0  0  0  0  0  0  0  0  0  0
   43.5451   32.5607   41.8352 H   0  0  0  0  0  0  0  0  0  0  0  0
   44.2867   33.8975   42.7169 H   0  0  0  0  0  0  0  0  0  0  0  0
   43.7816   36.8705   44.9794 H   0  0  0  0  0  0  0  0  0  0  0  0
   44.9650   36.7704   42.7428 H   0  0  0  0  0  0  0  0  0  0  0  0
  1 14  1  0
  2  1  1  0
  3  2  2  0
  4  3  1  0
  4  5  2  0
  5  1  1  0
  6  5  1  0
  6 11  1  0
  7  6  1  0
  8  7  1  0
  8  9  1  0
  9 10  1  0
 10 11  1  0
 12 17  2  0
 13 12  1  0
 14 13  2  0
 14 15  1  0
 15 16  2  0
 16 17  1  0
 16 18  1  0
 18 19  1  0
 18 21  1  0
 20 18  1  0
  2 22  1  0
  3 23  1  0
  7 24  1  0
  7 25  1  0
  8 26  1  0
  8 27  1  0
 10 28  1  0
 10 29  1  0
 11 30  1  0
 11 31  1  0
 12 32  1  0
 13 33  1  0
M  ISO  8  22  14  23  14  24  13  25  13  26  13  27  13  28  13  29  13
M  ISO  4  30  13  31  13  32  14  33  14
M  END
>  <minimizedAffinity>  (1) 
-6.30311871

>  <minimizedRMSD>  (1) 
0.127557069

$$$$
