
     RDKit          3D

 36 38  0  0  0  0  0  0  0  0999 V2000
   46.7140   34.7000   42.2470 N   0  0  0  0  0  0  0  0  0  0  0  0
   47.9540   35.1950   42.0820 C   0  0  0  0  0  0  0  0  0  0  0  0
   48.2760   34.9330   40.7850 C   0  0  0  0  0  0  0  0  0  0  0  0
   47.2520   34.3040   40.2150 N   0  0  0  0  0  0  0  0  0  0  0  0
   46.2630   34.1480   41.1120 C   0  0  0  0  0  0  0  0  0  0  0  0
   44.9900   33.5310   40.9030 N   0  0  0  0  0  0  0  0  0  0  0  0
   44.5600   33.0190   39.5810 C   0  0  0  0  0  0  0  0  0  0  0  0
   43.2640   33.7000   39.2490 C   0  0  0  0  0  0  0  0  0  0  0  0
   42.9650   34.7030   40.1600 O   0  0  0  0  0  0  0  0  0  0  0  0
   42.8300   34.2470   41.4630 C   0  0  0  0  0  0  0  0  0  0  0  0
   43.9760   33.3350   41.8980 C   0  0  0  0  0  0  0  0  0  0  0  0
   44.5170   35.7550   45.0400 C   0  0  0  0  0  0  0  0  0  0  0  0
   45.1400   35.8110   43.7780 C   0  0  0  0  0  0  0  0  0  0  0  0
   46.0250   34.7840   43.5010 C   0  0  0  0  0  0  0  0  0  0  0  0
   46.2500   33.7950   44.4360 N   0  0  0  0  0  0  0  0  0  0  0  0
   45.6370   33.7910   45.6090 C   0  0  0  0  0  0  0  0  0  0  0  0
   44.7560   34.7820   45.9250 N   0  0  0  0  0  0  0  0  0  0  0  0
   45.9900   32.6640   46.4900 C   0  0  0  0  0  0  0  0  0  0  0  0
   47.2770   32.7220   46.9470 F   0  0  0  0  0  0  0  0  0  0  0  0
   45.7660   31.4840   45.7860 F   0  0  0  0  0  0  0  0  0  0  0  0
   45.1700   32.6470   47.5770 F   0  0  0  0  0  0  0  0  0  0  0  0
   44.9790   36.8380   42.7340 C   0  0  0  0  0  0  0  0  0  0  0  0
   48.5753   35.7030   42.8343 H   0  0  0  0  0  0  0  0  0  0  0  0
   49.2232   35.1970   40.2919 H   0  0  0  0  0  0  0  0  0  0  0  0
   45.3175   33.2557   38.8193 H   0  0  0  0  0  0  0  0  0  0  0  0
   44.4355   31.9263   39.6039 H   0  0  0  0  0  0  0  0  0  0  0  0
   43.3401   34.1415   38.2444 H   0  0  0  0  0  0  0  0  0  0  0  0
   42.4612   32.9491   39.2888 H   0  0  0  0  0  0  0  0  0  0  0  0
   42.7983   35.1158   42.1369 H   0  0  0  0  0  0  0  0  0  0  0  0
   41.9032   33.6564   41.5106 H   0  0  0  0  0  0  0  0  0  0  0  0
   43.6501   32.2846   41.9191 H   0  0  0  0  0  0  0  0  0  0  0  0
   44.3344   33.5688   42.9114 H   0  0  0  0  0  0  0  0  0  0  0  0
   43.8024   36.5467   45.3092 H   0  0  0  0  0  0  0  0  0  0  0  0
   44.8251   37.8196   43.2059 H   0  0  0  0  0  0  0  0  0  0  0  0
   45.8831   36.8697   42.1083 H   0  0  0  0  0  0  0  0  0  0  0  0
   44.1085   36.5915   42.1083 H   0  0  0  0  0  0  0  0  0  0  0  0
  1 14  1  0
  2  1  1  0
  3  2  2  0
  4  3  1  0
  4  5  2  0
  5  1  1  0
  6  5  1  0
  6 11  1  0
  7  6  1  0
  8  7  1  0
  8  9  1  0
  9 10  1  0
 10 11  1  0
 12 17  2  0
 13 12  1  0
 14 13  2  0
 14 15  1  0
 15 16  2  0
 16 17  1  0
 16 18  1  0
 18 19  1  0
 18 21  1  0
 20 18  1  0
 22 13  1  0
  2 23  1  0
  3 24  1  0
  7 25  1  0
  7 26  1  0
  8 27  1  0
  8 28  1  0
 10 29  1  0
 10 30  1  0
 11 31  1  0
 11 32  1  0
 12 33  1  0
 22 34  1  0
 22 35  1  0
 22 36  1  0
M  ISO  8  23  14  24  14  25  13  26  13  27  13  28  13  29  13  30  13
M  ISO  6  31  13  32  13  33  14  34   8  35   8  36   8
M  END
>  <minimizedAffinity>  (1) 
-6.06664562

>  <minimizedRMSD>  (1) 
0.303723752

$$$$
