
     RDKit          3D

 26 27  0  0  0  0  0  0  0  0999 V2000
   46.9800   32.1270   46.1380 C   0  0  0  0  0  0  0  0  0  0  0  0
   46.1360   31.0090   46.4640 N   0  0  0  0  0  0  0  0  0  0  0  0
   45.6680   29.9900   45.7520 N   0  0  0  0  0  0  0  0  0  0  0  0
   44.9040   29.1990   46.4890 C   0  0  0  0  0  0  0  0  0  0  0  0
   44.8650   29.7190   47.7490 C   0  0  0  0  0  0  0  0  0  0  0  0
   45.6370   30.8520   47.7270 C   0  0  0  0  0  0  0  0  0  0  0  0
   45.8900   31.7650   48.9040 C   0  0  0  0  0  0  0  0  0  0  0  0
   47.2240   31.8740   49.2110 F   0  0  0  0  0  0  0  0  0  0  0  0
   45.4960   33.0410   48.5550 F   0  0  0  0  0  0  0  0  0  0  0  0
   45.1940   31.3790   50.0230 F   0  0  0  0  0  0  0  0  0  0  0  0
   46.8460   32.6150   44.7150 C   0  0  0  0  0  0  0  0  0  0  0  0
   46.0540   33.8250   44.6200 C   0  0  0  0  0  0  0  0  0  0  0  0
   46.1630   34.4920   43.4040 C   0  0  0  0  0  0  0  0  0  0  0  0
   45.4580   35.6730   43.1480 C   0  0  0  0  0  0  0  0  0  0  0  0
   44.6620   36.1290   44.1560 N   0  0  0  0  0  0  0  0  0  0  0  0
   44.5710   35.4680   45.3260 C   0  0  0  0  0  0  0  0  0  0  0  0
   45.2580   34.3470   45.5300 N   0  0  0  0  0  0  0  0  0  0  0  0
   46.7259   32.9582   46.8122 H   0  0  0  0  0  0  0  0  0  0  0  0
   48.0179   31.7820   46.2554 H   0  0  0  0  0  0  0  0  0  0  0  0
   44.3929   28.2870   46.1468 H   0  0  0  0  0  0  0  0  0  0  0  0
   44.3211   29.3099   48.6132 H   0  0  0  0  0  0  0  0  0  0  0  0
   47.8503   32.8174   44.3145 H   0  0  0  0  0  0  0  0  0  0  0  0
   46.3333   31.8314   44.1378 H   0  0  0  0  0  0  0  0  0  0  0  0
   46.8203   34.0803   42.6239 H   0  0  0  0  0  0  0  0  0  0  0  0
   45.5414   36.2033   42.1879 H   0  0  0  0  0  0  0  0  0  0  0  0
   43.9210   35.8596   46.1223 H   0  0  0  0  0  0  0  0  0  0  0  0
  1  2  1  0
  2  6  1  0
  3  2  1  0
  3  4  2  0
  4  5  1  0
  6  5  2  0
  6  7  1  0
  7  8  1  0
  7 10  1  0
  9  7  1  0
 11  1  1  0
 12 11  1  0
 12 17  1  0
 13 12  2  0
 14 13  1  0
 14 15  2  0
 15 16  1  0
 16 17  2  0
  1 18  1  0
  1 19  1  0
  4 20  1  0
  5 21  1  0
 11 22  1  0
 11 23  1  0
 13 24  1  0
 14 25  1  0
 16 26  1  0
M  ISO  8  18   8  19   8  20  14  21  14  22   8  23   8  24  14  25  14
M  ISO  1  26  14
M  END
>  <minimizedAffinity>  (1) 
-5.03200626

>  <minimizedRMSD>  (1) 
1.61653328

$$$$
