
     RDKit          3D

 32 35  0  0  0  0  0  0  0  0999 V2000
   44.1890   35.6970   44.4610 C   0  0  0  0  0  0  0  0  0  0  0  0
   44.4770   35.0220   43.2690 C   0  0  0  0  0  0  0  0  0  0  0  0
   45.2510   33.8620   43.3200 C   0  0  0  0  0  0  0  0  0  0  0  0
   45.7020   33.4220   44.5250 N   0  0  0  0  0  0  0  0  0  0  0  0
   45.4040   34.0990   45.6540 C   0  0  0  0  0  0  0  0  0  0  0  0
   44.6570   35.2250   45.6290 N   0  0  0  0  0  0  0  0  0  0  0  0
   45.5000   33.2340   42.0660 N   0  0  0  0  0  0  0  0  0  0  0  0
   44.9040   32.1750   41.4400 C   0  0  0  0  0  0  0  0  0  0  0  0
   45.4910   31.9570   40.2700 N   0  0  0  0  0  0  0  0  0  0  0  0
   46.4710   32.8610   40.1100 C   0  0  0  0  0  0  0  0  0  0  0  0
   47.3900   33.0890   39.0830 C   0  0  0  0  0  0  0  0  0  0  0  0
   47.3640   32.3460   38.0670 O   0  0  0  0  0  0  0  0  0  0  0  0
   48.2480   34.1010   39.2560 N   0  0  0  0  0  0  0  0  0  0  0  0
   48.2700   34.8930   40.3470 C   0  0  0  0  0  0  0  0  0  0  0  0
   49.2240   35.9680   40.4640 N   0  0  0  0  0  0  0  0  0  0  0  0
   47.3860   34.6760   41.3370 N   0  0  0  0  0  0  0  0  0  0  0  0
   46.4770   33.6670   41.2440 C   0  0  0  0  0  0  0  0  0  0  0  0
   43.8530   35.6490   41.6960 S   0  0  0  0  0  0  0  0  0  0  0  0
   40.5030   33.7730   41.0430 N   0  0  0  0  0  0  0  0  0  0  0  0
   41.7940   33.7690   41.3050 N   0  0  0  0  0  0  0  0  0  0  0  0
   42.2250   35.0700   41.3730 C   0  0  0  0  0  0  0  0  0  0  0  0
   41.1310   35.8280   41.1410 C   0  0  0  0  0  0  0  0  0  0  0  0
   40.0190   35.0320   40.9270 C   0  0  0  0  0  0  0  0  0  0  0  0
   43.5802   36.6129   44.4417 H   0  0  0  0  0  0  0  0  0  0  0  0
   45.7784   33.7250   46.6183 H   0  0  0  0  0  0  0  0  0  0  0  0
   44.0642   31.5914   41.8451 H   0  0  0  0  0  0  0  0  0  0  0  0
   48.9337   34.2864   38.5101 H   0  0  0  0  0  0  0  0  0  0  0  0
   49.2278   36.5641   41.3040 H   0  0  0  0  0  0  0  0  0  0  0  0
   49.9017   36.1398   39.7076 H   0  0  0  0  0  0  0  0  0  0  0  0
   39.9317   32.9223   40.9391 H   0  0  0  0  0  0  0  0  0  0  0  0
   41.1248   36.9279   41.1244 H   0  0  0  0  0  0  0  0  0  0  0  0
   38.9871   35.3475   40.7134 H   0  0  0  0  0  0  0  0  0  0  0  0
  1  6  2  0
  2  3  2  0
  2  1  1  0
  3  4  1  0
  4  5  2  0
  6  5  1  0
  7  3  1  0
  8  7  1  0
  9  8  2  0
 10  9  1  0
 10 17  2  0
 11 13  1  0
 11 10  1  0
 12 11  2  0
 13 14  1  0
 14 15  1  0
 14 16  2  0
 17 16  1  0
 17  7  1  0
 18  2  1  0
 19 20  1  0
 20 21  2  0
 21 18  1  0
 22 21  1  0
 23 19  1  0
 23 22  2  0
  1 24  1  0
  5 25  1  0
  8 26  1  0
 13 27  1  0
 15 28  1  0
 15 29  1  0
 19 30  1  0
 22 31  1  0
 23 32  1  0
M  ISO  7  24  14  25  14  26  14  27   9  30   9  31  14  32  14
M  END
>  <minimizedAffinity>  (1) 
-5.72625017

>  <minimizedRMSD>  (1) 
0.512369514

$$$$
