
     RDKit          3D

 31 34  0  0  0  0  0  0  0  0999 V2000
   45.2300   34.0680   44.9460 C   0  0  0  0  0  0  0  0  0  0  0  0
   45.7680   34.5610   43.7380 C   0  0  0  0  0  0  0  0  0  0  0  0
   46.9930   34.0510   43.3280 C   0  0  0  0  0  0  0  0  0  0  0  0
   47.6440   33.1090   44.0720 N   0  0  0  0  0  0  0  0  0  0  0  0
   47.0660   32.6750   45.2320 C   0  0  0  0  0  0  0  0  0  0  0  0
   45.8920   33.1420   45.6570 N   0  0  0  0  0  0  0  0  0  0  0  0
   47.6070   34.4900   42.1280 N   0  0  0  0  0  0  0  0  0  0  0  0
   48.4740   35.4890   41.9450 C   0  0  0  0  0  0  0  0  0  0  0  0
   48.8230   35.5830   40.6360 N   0  0  0  0  0  0  0  0  0  0  0  0
   48.1610   34.6260   39.9890 C   0  0  0  0  0  0  0  0  0  0  0  0
   48.0570   34.1760   38.6880 C   0  0  0  0  0  0  0  0  0  0  0  0
   47.2770   33.1540   38.3500 N   0  0  0  0  0  0  0  0  0  0  0  0
   46.5340   32.4920   39.2860 C   0  0  0  0  0  0  0  0  0  0  0  0
   46.5880   32.8770   40.5670 N   0  0  0  0  0  0  0  0  0  0  0  0
   47.3830   33.9200   40.9150 C   0  0  0  0  0  0  0  0  0  0  0  0
   48.8380   34.8780   37.7300 N   0  0  0  0  0  0  0  0  0  0  0  0
   44.9370   35.7920   42.7480 S   0  0  0  0  0  0  0  0  0  0  0  0
   42.2490   33.6550   40.9170 N   0  0  0  0  0  0  0  0  0  0  0  0
   43.3130   33.7730   41.6790 N   0  0  0  0  0  0  0  0  0  0  0  0
   43.6080   35.0860   41.8250 C   0  0  0  0  0  0  0  0  0  0  0  0
   42.6640   35.7470   41.1110 C   0  0  0  0  0  0  0  0  0  0  0  0
   41.7850   34.8630   40.5210 C   0  0  0  0  0  0  0  0  0  0  0  0
   44.2618   34.4451   45.3071 H   0  0  0  0  0  0  0  0  0  0  0  0
   47.5864   31.9158   45.8344 H   0  0  0  0  0  0  0  0  0  0  0  0
   48.8527   36.1443   42.7432 H   0  0  0  0  0  0  0  0  0  0  0  0
   45.8950   31.6474   38.9887 H   0  0  0  0  0  0  0  0  0  0  0  0
   48.8112   34.5984   36.7391 H   0  0  0  0  0  0  0  0  0  0  0  0
   49.4308   35.6663   38.0268 H   0  0  0  0  0  0  0  0  0  0  0  0
   41.8216   32.7555   40.6540 H   0  0  0  0  0  0  0  0  0  0  0  0
   42.6068   36.8413   41.0151 H   0  0  0  0  0  0  0  0  0  0  0  0
   40.9170   35.0859   39.8831 H   0  0  0  0  0  0  0  0  0  0  0  0
  1  6  2  0
  2  1  1  0
  3  2  2  0
  3  4  1  0
  4  5  2  0
  5  6  1  0
  7  3  1  0
  8  7  1  0
  9  8  2  0
 10  9  1  0
 10 15  2  0
 11 10  1  0
 12 11  2  0
 12 13  1  0
 13 14  2  0
 14 15  1  0
 15  7  1  0
 16 11  1  0
 17  2  1  0
 18 19  1  0
 19 20  2  0
 20 17  1  0
 21 20  1  0
 22 18  1  0
 22 21  2  0
  1 23  1  0
  5 24  1  0
  8 25  1  0
 13 26  1  0
 16 27  1  0
 16 28  1  0
 18 29  1  0
 21 30  1  0
 22 31  1  0
M  ISO  7  23  14  24  14  25  14  26  14  29   9  30  14  31  14
M  END
>  <minimizedAffinity>  (1) 
-5.58151388

>  <minimizedRMSD>  (1) 
3.34747338

$$$$
