
     RDKit          3D

 28 30  0  0  0  0  0  0  0  0999 V2000
   44.9540   34.6010   45.2680 C   0  0  0  0  0  0  0  0  0  0  0  0
   45.4280   34.8040   43.9590 C   0  0  0  0  0  0  0  0  0  0  0  0
   46.5580   34.0960   43.5770 C   0  0  0  0  0  0  0  0  0  0  0  0
   47.1660   33.2430   44.4550 N   0  0  0  0  0  0  0  0  0  0  0  0
   46.6630   33.0910   45.6990 C   0  0  0  0  0  0  0  0  0  0  0  0
   45.5730   33.7600   46.1000 N   0  0  0  0  0  0  0  0  0  0  0  0
   47.1090   34.2540   42.2350 C   0  0  0  0  0  0  0  0  0  0  0  0
   48.1190   35.2000   42.1000 C   0  0  0  0  0  0  0  0  0  0  0  0
   48.7140   35.4310   40.8610 C   0  0  0  0  0  0  0  0  0  0  0  0
   48.3150   34.7210   39.7270 C   0  0  0  0  0  0  0  0  0  0  0  0
   47.3150   33.7910   39.8840 C   0  0  0  0  0  0  0  0  0  0  0  0
   46.7190   33.5540   41.0990 C   0  0  0  0  0  0  0  0  0  0  0  0
   44.6080   35.9290   42.8300 S   0  0  0  0  0  0  0  0  0  0  0  0
   42.1870   33.5340   40.9400 N   0  0  0  0  0  0  0  0  0  0  0  0
   43.2420   33.7490   41.7180 N   0  0  0  0  0  0  0  0  0  0  0  0
   43.3740   35.0930   41.8870 C   0  0  0  0  0  0  0  0  0  0  0  0
   42.3550   35.6600   41.1760 C   0  0  0  0  0  0  0  0  0  0  0  0
   41.5830   34.6880   40.5620 C   0  0  0  0  0  0  0  0  0  0  0  0
   44.0604   35.1431   45.6110 H   0  0  0  0  0  0  0  0  0  0  0  0
   47.1590   32.4026   46.3990 H   0  0  0  0  0  0  0  0  0  0  0  0
   48.4515   35.7714   42.9792 H   0  0  0  0  0  0  0  0  0  0  0  0
   49.5106   36.1847   40.7752 H   0  0  0  0  0  0  0  0  0  0  0  0
   48.7822   34.8987   38.7471 H   0  0  0  0  0  0  0  0  0  0  0  0
   46.9806   33.2171   39.0072 H   0  0  0  0  0  0  0  0  0  0  0  0
   45.9219   32.7997   41.1740 H   0  0  0  0  0  0  0  0  0  0  0  0
   41.8645   32.5978   40.6562 H   0  0  0  0  0  0  0  0  0  0  0  0
   42.1723   36.7421   41.1012 H   0  0  0  0  0  0  0  0  0  0  0  0
   40.6968   34.8197   39.9239 H   0  0  0  0  0  0  0  0  0  0  0  0
  1  6  2  0
  2  1  1  0
  3  2  2  0
  3  4  1  0
  4  5  2  0
  5  6  1  0
  7  3  1  0
  8  7  2  0
  9  8  1  0
 10 11  1  0
 10  9  2  0
 11 12  2  0
 12  7  1  0
 13  2  1  0
 14 15  1  0
 15 16  2  0
 16 13  1  0
 17 16  1  0
 18 14  1  0
 18 17  2  0
  1 19  1  0
  5 20  1  0
  8 21  1  0
  9 22  1  0
 10 23  1  0
 11 24  1  0
 12 25  1  0
 14 26  1  0
 17 27  1  0
 18 28  1  0
M  ISO  8  19  14  20  14  21  14  22  14  23  14  24  14  25  14  26   9
M  ISO  2  27  14  28  14
M  END
>  <minimizedAffinity>  (1) 
-5.24423933

>  <minimizedRMSD>  (1) 
2.33086634

$$$$
