
     RDKit          3D

 31 33  0  0  0  0  0  0  0  0999 V2000
   45.0090   34.5980   44.5650 C   0  0  0  0  0  0  0  0  0  0  0  0
   45.3900   34.6730   43.2030 C   0  0  0  0  0  0  0  0  0  0  0  0
   46.5250   33.9600   42.7750 C   0  0  0  0  0  0  0  0  0  0  0  0
   47.2210   33.2170   43.6980 N   0  0  0  0  0  0  0  0  0  0  0  0
   46.8020   33.1910   44.9810 C   0  0  0  0  0  0  0  0  0  0  0  0
   45.7320   33.8550   45.4180 N   0  0  0  0  0  0  0  0  0  0  0  0
   46.9510   34.0000   41.4160 N   0  0  0  0  0  0  0  0  0  0  0  0
   46.4610   33.3070   40.3720 C   0  0  0  0  0  0  0  0  0  0  0  0
   46.9970   33.4690   39.1140 C   0  0  0  0  0  0  0  0  0  0  0  0
   46.4360   32.6910   37.9850 C   0  0  0  0  0  0  0  0  0  0  0  0
   48.0540   34.3480   38.8810 C   0  0  0  0  0  0  0  0  0  0  0  0
   48.5340   34.4830   37.7090 O   0  0  0  0  0  0  0  0  0  0  0  0
   48.5180   35.0280   39.9610 N   0  0  0  0  0  0  0  0  0  0  0  0
   47.9830   34.8570   41.1780 C   0  0  0  0  0  0  0  0  0  0  0  0
   48.5220   35.5630   42.0990 O   0  0  0  0  0  0  0  0  0  0  0  0
   44.4510   35.6550   42.0210 S   0  0  0  0  0  0  0  0  0  0  0  0
   41.4240   33.3710   41.1060 N   0  0  0  0  0  0  0  0  0  0  0  0
   42.7100   33.5550   41.3430 N   0  0  0  0  0  0  0  0  0  0  0  0
   42.9190   34.8780   41.6320 C   0  0  0  0  0  0  0  0  0  0  0  0
   41.7020   35.4570   41.5520 C   0  0  0  0  0  0  0  0  0  0  0  0
   40.7240   34.5360   41.2220 C   0  0  0  0  0  0  0  0  0  0  0  0
   44.1247   35.1460   44.9223 H   0  0  0  0  0  0  0  0  0  0  0  0
   47.3736   32.5903   45.7038 H   0  0  0  0  0  0  0  0  0  0  0  0
   45.6268   32.6064   40.5244 H   0  0  0  0  0  0  0  0  0  0  0  0
   45.8349   31.8574   38.3770 H   0  0  0  0  0  0  0  0  0  0  0  0
   45.7998   33.3443   37.3698 H   0  0  0  0  0  0  0  0  0  0  0  0
   47.2568   32.2937   37.3698 H   0  0  0  0  0  0  0  0  0  0  0  0
   49.2983   35.6898   39.8423 H   0  0  0  0  0  0  0  0  0  0  0  0
   41.0028   32.4627   40.8641 H   0  0  0  0  0  0  0  0  0  0  0  0
   41.5121   36.5262   41.7271 H   0  0  0  0  0  0  0  0  0  0  0  0
   39.6452   34.7025   41.0863 H   0  0  0  0  0  0  0  0  0  0  0  0
  1  6  2  0
  2  1  1  0
  3  2  2  0
  3  4  1  0
  4  5  2  0
  5  6  1  0
  7  3  1  0
  8  7  1  0
  9  8  2  0
 10  9  1  0
 11  9  1  0
 11 13  1  0
 12 11  2  0
 13 14  1  0
 14  7  1  0
 14 15  2  0
 16  2  1  0
 17 21  1  0
 17 18  1  0
 18 19  2  0
 19 16  1  0
 20 19  1  0
 21 20  2  0
  1 22  1  0
  5 23  1  0
  8 24  1  0
 10 25  1  0
 10 26  1  0
 10 27  1  0
 13 28  1  0
 17 29  1  0
 20 30  1  0
 21 31  1  0
M  ISO  8  22  14  23  14  24  14  25   8  26   8  27   8  28   9  29   9
M  ISO  2  30  14  31  14
M  END
>  <minimizedAffinity>  (1) 
-5.35951853

>  <minimizedRMSD>  (1) 
2.53060985

$$$$
