
     RDKit          3D

 21 23  0  0  0  0  0  0  0  0999 V2000
   47.1760   34.8990   41.9480 N   0  0  0  0  0  0  0  0  0  0  0  0
   48.3650   35.5360   41.8360 C   0  0  0  0  0  0  0  0  0  0  0  0
   48.8880   35.3370   40.5920 N   0  0  0  0  0  0  0  0  0  0  0  0
   47.9920   34.5610   39.9390 C   0  0  0  0  0  0  0  0  0  0  0  0
   48.0090   34.0540   38.6500 C   0  0  0  0  0  0  0  0  0  0  0  0
   46.9560   33.2930   38.2560 N   0  0  0  0  0  0  0  0  0  0  0  0
   45.9240   33.0390   39.0990 C   0  0  0  0  0  0  0  0  0  0  0  0
   45.8720   33.5180   40.3670 N   0  0  0  0  0  0  0  0  0  0  0  0
   46.9130   34.2810   40.7830 C   0  0  0  0  0  0  0  0  0  0  0  0
   44.5720   35.9010   44.3660 C   0  0  0  0  0  0  0  0  0  0  0  0
   45.3850   35.8950   43.2140 C   0  0  0  0  0  0  0  0  0  0  0  0
   46.3580   34.8980   43.1130 C   0  0  0  0  0  0  0  0  0  0  0  0
   46.4760   33.9840   44.1240 N   0  0  0  0  0  0  0  0  0  0  0  0
   45.6810   34.0220   45.2080 C   0  0  0  0  0  0  0  0  0  0  0  0
   44.7310   34.9730   45.3390 N   0  0  0  0  0  0  0  0  0  0  0  0
   48.8403   36.1279   42.6321 H   0  0  0  0  0  0  0  0  0  0  0  0
   48.8474   34.2610   37.9686 H   0  0  0  0  0  0  0  0  0  0  0  0
   45.0919   32.4166   38.7381 H   0  0  0  0  0  0  0  0  0  0  0  0
   43.7956   36.6725   44.4761 H   0  0  0  0  0  0  0  0  0  0  0  0
   45.2575   36.6487   42.4230 H   0  0  0  0  0  0  0  0  0  0  0  0
   45.8062   33.2680   45.9990 H   0  0  0  0  0  0  0  0  0  0  0  0
  1 12  1  0
  2  1  1  0
  3  2  2  0
  4  3  1  0
  4  9  2  0
  5  4  1  0
  6  5  2  0
  6  7  1  0
  7  8  2  0
  8  9  1  0
  9  1  1  0
 10 15  2  0
 11 10  1  0
 12 11  2  0
 12 13  1  0
 13 14  2  0
 14 15  1  0
  2 16  1  0
  5 17  1  0
  7 18  1  0
 10 19  1  0
 11 20  1  0
 14 21  1  0
M  ISO  6  16  14  17  14  18  14  19  14  20  14  21  14
M  END
>  <minimizedAffinity>  (1) 
-4.80579281

>  <minimizedRMSD>  (1) 
1.40534985

$$$$
