
     RDKit          3D

 24 26  0  0  0  0  0  0  0  0999 V2000
   45.0240   34.5190   45.3130 C   0  0  0  0  0  0  0  0  0  0  0  0
   45.5490   34.7370   44.0340 C   0  0  0  0  0  0  0  0  0  0  0  0
   46.6920   34.0150   43.6790 C   0  0  0  0  0  0  0  0  0  0  0  0
   47.2420   33.1430   44.5690 N   0  0  0  0  0  0  0  0  0  0  0  0
   46.6880   32.9770   45.7870 C   0  0  0  0  0  0  0  0  0  0  0  0
   45.5990   33.6470   46.1620 N   0  0  0  0  0  0  0  0  0  0  0  0
   47.2870   34.2100   42.3370 C   0  0  0  0  0  0  0  0  0  0  0  0
   46.9370   33.3840   41.2350 C   0  0  0  0  0  0  0  0  0  0  0  0
   47.9540   34.0780   39.8930 S   0  0  0  0  0  0  0  0  0  0  0  0
   48.6950   35.3950   41.0750 C   0  0  0  0  0  0  0  0  0  0  0  0
   48.1830   35.1670   42.0740 N   0  0  0  0  0  0  0  0  0  0  0  0
   44.7900   35.8960   42.8950 S   0  0  0  0  0  0  0  0  0  0  0  0
   42.3590   33.5670   40.9180 N   0  0  0  0  0  0  0  0  0  0  0  0
   43.3560   33.7560   41.7460 N   0  0  0  0  0  0  0  0  0  0  0  0
   43.5740   35.0890   41.8980 C   0  0  0  0  0  0  0  0  0  0  0  0
   42.6470   35.6910   41.1100 C   0  0  0  0  0  0  0  0  0  0  0  0
   41.8590   34.7510   40.4730 C   0  0  0  0  0  0  0  0  0  0  0  0
   44.1261   35.0698   45.6298 H   0  0  0  0  0  0  0  0  0  0  0  0
   47.1482   32.2682   46.4912 H   0  0  0  0  0  0  0  0  0  0  0  0
   46.2317   32.5406   41.2011 H   0  0  0  0  0  0  0  0  0  0  0  0
   49.4326   36.1789   40.8484 H   0  0  0  0  0  0  0  0  0  0  0  0
   42.0003   32.6423   40.6401 H   0  0  0  0  0  0  0  0  0  0  0  0
   42.5378   36.7794   40.9941 H   0  0  0  0  0  0  0  0  0  0  0  0
   41.0269   34.9200   39.7737 H   0  0  0  0  0  0  0  0  0  0  0  0
  1  6  2  0
  2  1  1  0
  3  2  2  0
  3  4  1  0
  4  5  2  0
  5  6  1  0
  7  3  1  0
  8  7  2  0
  9 10  1  0
  9  8  1  0
 10 11  2  0
 11  7  1  0
 12  2  1  0
 13 14  1  0
 14 15  2  0
 15 12  1  0
 16 15  1  0
 17 13  1  0
 17 16  2  0
  1 18  1  0
  5 19  1  0
  8 20  1  0
 10 21  1  0
 13 22  1  0
 16 23  1  0
 17 24  1  0
M  ISO  7  18  14  19  14  20  14  21  14  22   9  23  14  24  14
M  END
>  <minimizedAffinity>  (1) 
-4.48240948

>  <minimizedRMSD>  (1) 
2.38048148

$$$$
