
     RDKit          3D

 31 33  0  0  0  0  0  0  0  0999 V2000
   44.9460   34.6180   45.2540 C   0  0  0  0  0  0  0  0  0  0  0  0
   45.4280   34.7590   43.9390 C   0  0  0  0  0  0  0  0  0  0  0  0
   46.5510   34.0340   43.5530 C   0  0  0  0  0  0  0  0  0  0  0  0
   47.1530   33.2050   44.4690 N   0  0  0  0  0  0  0  0  0  0  0  0
   46.6520   33.1060   45.7210 C   0  0  0  0  0  0  0  0  0  0  0  0
   45.5750   33.7930   46.1080 N   0  0  0  0  0  0  0  0  0  0  0  0
   47.1030   34.1170   42.2430 N   0  0  0  0  0  0  0  0  0  0  0  0
   46.8220   33.3400   41.0720 C   0  0  0  0  0  0  0  0  0  0  0  0
   47.9930   33.4730   40.1200 C   0  0  0  0  0  0  0  0  0  0  0  0
   48.1560   34.8320   39.8620 O   0  0  0  0  0  0  0  0  0  0  0  0
   48.8150   35.3670   40.9680 C   0  0  0  0  0  0  0  0  0  0  0  0
   48.0840   35.2010   42.2540 C   0  0  0  0  0  0  0  0  0  0  0  0
   44.6350   35.8460   42.7440 S   0  0  0  0  0  0  0  0  0  0  0  0
   42.1510   33.4340   40.9700 N   0  0  0  0  0  0  0  0  0  0  0  0
   43.2360   33.6890   41.6710 N   0  0  0  0  0  0  0  0  0  0  0  0
   43.3530   35.0280   41.8680 C   0  0  0  0  0  0  0  0  0  0  0  0
   42.2820   35.5840   41.2500 C   0  0  0  0  0  0  0  0  0  0  0  0
   41.4990   34.6010   40.6690 C   0  0  0  0  0  0  0  0  0  0  0  0
   44.0589   35.1803   45.5809 H   0  0  0  0  0  0  0  0  0  0  0  0
   47.1469   32.4392   46.4424 H   0  0  0  0  0  0  0  0  0  0  0  0
   46.6867   32.2843   41.3498 H   0  0  0  0  0  0  0  0  0  0  0  0
   45.9002   33.6993   40.5912 H   0  0  0  0  0  0  0  0  0  0  0  0
   48.9038   33.0643   40.5821 H   0  0  0  0  0  0  0  0  0  0  0  0
   47.8075   32.9164   39.1895 H   0  0  0  0  0  0  0  0  0  0  0  0
   49.7923   34.8707   41.0604 H   0  0  0  0  0  0  0  0  0  0  0  0
   48.9011   36.4493   40.7912 H   0  0  0  0  0  0  0  0  0  0  0  0
   47.5585   36.1412   42.4774 H   0  0  0  0  0  0  0  0  0  0  0  0
   48.8342   34.9445   43.0165 H   0  0  0  0  0  0  0  0  0  0  0  0
   41.8378   32.4939   40.6888 H   0  0  0  0  0  0  0  0  0  0  0  0
   42.0660   36.6620   41.2152 H   0  0  0  0  0  0  0  0  0  0  0  0
   40.5678   34.7277   40.0973 H   0  0  0  0  0  0  0  0  0  0  0  0
  1  6  2  0
  2  1  1  0
  3  2  2  0
  3  4  1  0
  4  5  2  0
  5  6  1  0
  7 12  1  0
  7  3  1  0
  8  7  1  0
  9  8  1  0
 10  9  1  0
 10 11  1  0
 11 12  1  0
 13  2  1  0
 14 15  1  0
 15 16  2  0
 16 13  1  0
 17 16  1  0
 18 14  1  0
 18 17  2  0
  1 19  1  0
  5 20  1  0
  8 21  1  0
  8 22  1  0
  9 23  1  0
  9 24  1  0
 11 25  1  0
 11 26  1  0
 12 27  1  0
 12 28  1  0
 14 29  1  0
 17 30  1  0
 18 31  1  0
M  ISO  8  19  14  20  14  21  13  22  13  23  13  24  13  25  13  26  13
M  ISO  5  27  13  28  13  29   9  30  14  31  14
M  END
>  <minimizedAffinity>  (1) 
-4.55147791

>  <minimizedRMSD>  (1) 
2.43681455

$$$$
