
     RDKit          3D

 25 27  0  0  0  0  0  0  0  0999 V2000
   44.9790   34.6110   45.1810 C   0  0  0  0  0  0  0  0  0  0  0  0
   45.5530   34.8610   43.9260 C   0  0  0  0  0  0  0  0  0  0  0  0
   46.6880   34.1480   43.5630 C   0  0  0  0  0  0  0  0  0  0  0  0
   47.2010   33.2400   44.4270 N   0  0  0  0  0  0  0  0  0  0  0  0
   46.6190   33.0260   45.6280 C   0  0  0  0  0  0  0  0  0  0  0  0
   45.5150   33.7030   46.0110 N   0  0  0  0  0  0  0  0  0  0  0  0
   47.3090   34.3600   42.3090 N   0  0  0  0  0  0  0  0  0  0  0  0
   47.1130   33.6510   41.2100 N   0  0  0  0  0  0  0  0  0  0  0  0
   47.8600   34.1190   40.1950 C   0  0  0  0  0  0  0  0  0  0  0  0
   48.5740   35.1960   40.6920 C   0  0  0  0  0  0  0  0  0  0  0  0
   48.2000   35.3150   42.0220 C   0  0  0  0  0  0  0  0  0  0  0  0
   44.8310   36.0780   42.8200 S   0  0  0  0  0  0  0  0  0  0  0  0
   42.9080   34.2500   39.9820 N   0  0  0  0  0  0  0  0  0  0  0  0
   44.0280   34.6280   40.5540 N   0  0  0  0  0  0  0  0  0  0  0  0
   43.7180   35.3400   41.6810 C   0  0  0  0  0  0  0  0  0  0  0  0
   42.3690   35.3550   41.7360 C   0  0  0  0  0  0  0  0  0  0  0  0
   41.8110   34.6710   40.6710 C   0  0  0  0  0  0  0  0  0  0  0  0
   44.0798   35.1652   45.4882 H   0  0  0  0  0  0  0  0  0  0  0  0
   47.0555   32.2819   46.3105 H   0  0  0  0  0  0  0  0  0  0  0  0
   47.8968   33.7233   39.1693 H   0  0  0  0  0  0  0  0  0  0  0  0
   49.2900   35.8269   40.1449 H   0  0  0  0  0  0  0  0  0  0  0  0
   48.5752   36.0719   42.7264 H   0  0  0  0  0  0  0  0  0  0  0  0
   42.8641   33.6989   39.1129 H   0  0  0  0  0  0  0  0  0  0  0  0
   41.7870   35.8490   42.5280 H   0  0  0  0  0  0  0  0  0  0  0  0
   40.7482   34.5080   40.4388 H   0  0  0  0  0  0  0  0  0  0  0  0
  1  6  2  0
  2  1  1  0
  3  2  2  0
  3  4  1  0
  4  5  2  0
  5  6  1  0
  7  3  1  0
  8  7  1  0
  9 10  1  0
  9  8  2  0
 10 11  2  0
 11  7  1  0
 12  2  1  0
 13 14  1  0
 13 17  1  0
 14 15  2  0
 15 16  1  0
 15 12  1  0
 17 16  2  0
  1 18  1  0
  5 19  1  0
  9 20  1  0
 10 21  1  0
 11 22  1  0
 13 23  1  0
 16 24  1  0
 17 25  1  0
M  ISO  8  18  14  19  14  20  14  21  14  22  14  23   9  24  14  25  14
M  END
>  <minimizedAffinity>  (1) 
-4.69804668

>  <minimizedRMSD>  (1) 
2.45470595

$$$$
