
     RDKit          3D

 26 28  0  0  0  0  0  0  0  0999 V2000
   45.0630   34.4220   45.3410 C   0  0  0  0  0  0  0  0  0  0  0  0
   45.5850   34.6790   44.0680 C   0  0  0  0  0  0  0  0  0  0  0  0
   46.7450   33.9950   43.6720 C   0  0  0  0  0  0  0  0  0  0  0  0
   47.3100   33.1140   44.5400 N   0  0  0  0  0  0  0  0  0  0  0  0
   46.7640   32.9050   45.7560 C   0  0  0  0  0  0  0  0  0  0  0  0
   45.6620   33.5380   46.1660 N   0  0  0  0  0  0  0  0  0  0  0  0
   47.2990   34.2540   42.3480 C   0  0  0  0  0  0  0  0  0  0  0  0
   46.8820   33.4030   41.3250 C   0  0  0  0  0  0  0  0  0  0  0  0
   47.3420   33.5500   40.0160 C   0  0  0  0  0  0  0  0  0  0  0  0
   48.2220   34.5590   39.7550 N   0  0  0  0  0  0  0  0  0  0  0  0
   48.6100   35.3700   40.7650 C   0  0  0  0  0  0  0  0  0  0  0  0
   48.1790   35.2420   42.0210 N   0  0  0  0  0  0  0  0  0  0  0  0
   44.7840   35.8590   42.9700 S   0  0  0  0  0  0  0  0  0  0  0  0
   42.3870   33.5780   40.9450 N   0  0  0  0  0  0  0  0  0  0  0  0
   43.3680   33.7510   41.7970 N   0  0  0  0  0  0  0  0  0  0  0  0
   43.5900   35.0810   41.9490 C   0  0  0  0  0  0  0  0  0  0  0  0
   42.6950   35.6940   41.1500 C   0  0  0  0  0  0  0  0  0  0  0  0
   41.9040   34.7760   40.4860 C   0  0  0  0  0  0  0  0  0  0  0  0
   44.1546   34.9463   45.6725 H   0  0  0  0  0  0  0  0  0  0  0  0
   47.2449   32.1859   46.4354 H   0  0  0  0  0  0  0  0  0  0  0  0
   46.1722   32.5951   41.5560 H   0  0  0  0  0  0  0  0  0  0  0  0
   47.0049   32.8721   39.2179 H   0  0  0  0  0  0  0  0  0  0  0  0
   49.3197   36.1794   40.5387 H   0  0  0  0  0  0  0  0  0  0  0  0
   42.0247   32.6579   40.6567 H   0  0  0  0  0  0  0  0  0  0  0  0
   42.6055   36.7849   41.0404 H   0  0  0  0  0  0  0  0  0  0  0  0
   41.0906   34.9603   39.7688 H   0  0  0  0  0  0  0  0  0  0  0  0
  1  6  2  0
  2  1  1  0
  3  2  2  0
  3  4  1  0
  4  5  2  0
  5  6  1  0
  7  3  1  0
  8  7  2  0
  9  8  1  0
 10  9  2  0
 10 11  1  0
 11 12  2  0
 12  7  1  0
 13  2  1  0
 14 15  1  0
 15 16  2  0
 16 13  1  0
 17 16  1  0
 18 14  1  0
 18 17  2  0
  1 19  1  0
  5 20  1  0
  8 21  1  0
  9 22  1  0
 11 23  1  0
 14 24  1  0
 17 25  1  0
 18 26  1  0
M  ISO  8  19  14  20  14  21  14  22  14  23  14  24   9  25  14  26  14
M  END
>  <minimizedAffinity>  (1) 
-4.63506174

>  <minimizedRMSD>  (1) 
2.48807955

$$$$
