
     RDKit          3D

 27 28  0  0  0  0  0  0  0  0999 V2000
   43.6070   35.2990   42.2340 C   0  0  0  0  0  0  0  0  0  0  0  0
   44.2360   34.6350   41.1590 C   0  0  0  0  0  0  0  0  0  0  0  0
   45.6190   34.4090   41.2120 C   0  0  0  0  0  0  0  0  0  0  0  0
   46.3190   34.8340   42.2970 N   0  0  0  0  0  0  0  0  0  0  0  0
   45.6630   35.4740   43.3120 C   0  0  0  0  0  0  0  0  0  0  0  0
   44.3320   35.6990   43.2760 N   0  0  0  0  0  0  0  0  0  0  0  0
   46.3340   33.7170   40.1140 C   0  0  0  0  0  0  0  0  0  0  0  0
   47.7260   34.3440   40.0120 C   0  0  0  0  0  0  0  0  0  0  0  0
   46.5470   32.2580   40.5130 C   0  0  0  0  0  0  0  0  0  0  0  0
   43.2930   34.0770   39.7310 S   0  0  0  0  0  0  0  0  0  0  0  0
   39.5350   33.9380   40.7110 N   0  0  0  0  0  0  0  0  0  0  0  0
   40.7790   33.4990   40.7880 N   0  0  0  0  0  0  0  0  0  0  0  0
   41.5750   34.2470   39.9860 C   0  0  0  0  0  0  0  0  0  0  0  0
   40.7510   35.1540   39.4240 C   0  0  0  0  0  0  0  0  0  0  0  0
   39.4440   34.9990   39.8540 C   0  0  0  0  0  0  0  0  0  0  0  0
   42.5231   35.4849   42.2107 H   0  0  0  0  0  0  0  0  0  0  0  0
   46.2377   35.8163   44.1853 H   0  0  0  0  0  0  0  0  0  0  0  0
   45.7656   33.7956   39.1755 H   0  0  0  0  0  0  0  0  0  0  0  0
   48.1226   34.5226   41.0223 H   0  0  0  0  0  0  0  0  0  0  0  0
   48.3969   33.6612   39.4702 H   0  0  0  0  0  0  0  0  0  0  0  0
   47.6592   35.2990   39.4702 H   0  0  0  0  0  0  0  0  0  0  0  0
   46.5590   32.1758   41.6099 H   0  0  0  0  0  0  0  0  0  0  0  0
   45.7290   31.6440   40.1082 H   0  0  0  0  0  0  0  0  0  0  0  0
   47.5064   31.9035   40.1082 H   0  0  0  0  0  0  0  0  0  0  0  0
   38.7404   33.5347   41.2276 H   0  0  0  0  0  0  0  0  0  0  0  0
   41.0776   35.9243   38.7099 H   0  0  0  0  0  0  0  0  0  0  0  0
   38.5547   35.5835   39.5756 H   0  0  0  0  0  0  0  0  0  0  0  0
  1  6  2  0
  2  3  2  0
  2  1  1  0
  3  4  1  0
  4  5  2  0
  6  5  1  0
  7  9  1  0
  7  3  1  0
  8  7  1  0
 10 13  1  0
 10  2  1  0
 11 12  1  0
 13 12  2  0
 14 15  2  0
 14 13  1  0
 15 11  1  0
  1 16  1  0
  5 17  1  0
  7 18  1  0
  8 19  1  0
  8 20  1  0
  8 21  1  0
  9 22  1  0
  9 23  1  0
  9 24  1  0
 11 25  1  0
 14 26  1  0
 15 27  1  0
M  ISO  8  16  14  17  14  18   8  19   8  20   8  21   8  22   8  23   8
M  ISO  4  24   8  25   9  26  14  27  14
M  END
>  <minimizedAffinity>  (1) 
-4.02854156

>  <minimizedRMSD>  (1) 
2.42820954

$$$$
