
     RDKit          3D

 19 20  0  0  0  0  0  0  0  0999 V2000
   44.3090   35.7410   44.4380 C   0  0  0  0  0  0  0  0  0  0  0  0
   44.4590   34.9900   43.2640 C   0  0  0  0  0  0  0  0  0  0  0  0
   45.0780   33.7510   43.3480 C   0  0  0  0  0  0  0  0  0  0  0  0
   45.5240   33.2960   44.5660 N   0  0  0  0  0  0  0  0  0  0  0  0
   45.3520   34.0610   45.6640 C   0  0  0  0  0  0  0  0  0  0  0  0
   44.7530   35.2740   45.6200 N   0  0  0  0  0  0  0  0  0  0  0  0
   45.2740   32.9340   42.2450 O   0  0  0  0  0  0  0  0  0  0  0  0
   43.8800   35.5810   41.6750 S   0  0  0  0  0  0  0  0  0  0  0  0
   40.5260   33.7400   40.9840 N   0  0  0  0  0  0  0  0  0  0  0  0
   41.8260   33.7390   41.2600 N   0  0  0  0  0  0  0  0  0  0  0  0
   42.2480   35.0260   41.3350 C   0  0  0  0  0  0  0  0  0  0  0  0
   41.1480   35.7760   41.0930 C   0  0  0  0  0  0  0  0  0  0  0  0
   40.0330   35.0060   40.8650 C   0  0  0  0  0  0  0  0  0  0  0  0
   43.8215   36.7260   44.3929 H   0  0  0  0  0  0  0  0  0  0  0  0
   45.7126   33.6843   46.6325 H   0  0  0  0  0  0  0  0  0  0  0  0
   45.7208   32.0570   42.3517 H   0  0  0  0  0  0  0  0  0  0  0  0
   39.9590   32.8873   40.8733 H   0  0  0  0  0  0  0  0  0  0  0  0
   41.1466   36.8759   41.0803 H   0  0  0  0  0  0  0  0  0  0  0  0
   39.0050   35.3285   40.6431 H   0  0  0  0  0  0  0  0  0  0  0  0
  1  6  2  0
  2  3  2  0
  2  1  1  0
  3  4  1  0
  4  5  2  0
  6  5  1  0
  7  3  1  0
  8  2  1  0
  9 10  1  0
 10 11  2  0
 11  8  1  0
 12 11  1  0
 13  9  1  0
 13 12  2  0
  1 14  1  0
  5 15  1  0
  7 16  1  0
  9 17  1  0
 12 18  1  0
 13 19  1  0
M  ISO  6  14  14  15  14  16   3  17   9  18  14  19  14
M  END
>  <minimizedAffinity>  (1) 
-3.86139917

>  <minimizedRMSD>  (1) 
0.0271086171

$$$$
