
     RDKit          3D

 38 41  0  0  0  0  0  0  0  0999 V2000
   44.9480   34.6080   45.2120 C   0  0  0  0  0  0  0  0  0  0  0  0
   45.5590   34.8410   43.9620 C   0  0  0  0  0  0  0  0  0  0  0  0
   46.7030   34.1160   43.6210 C   0  0  0  0  0  0  0  0  0  0  0  0
   47.1900   33.2060   44.5080 N   0  0  0  0  0  0  0  0  0  0  0  0
   46.5830   33.0060   45.6960 C   0  0  0  0  0  0  0  0  0  0  0  0
   45.4820   33.6910   46.0450 N   0  0  0  0  0  0  0  0  0  0  0  0
   47.3350   34.3540   42.3330 C   0  0  0  0  0  0  0  0  0  0  0  0
   48.2160   35.4250   42.3070 C   0  0  0  0  0  0  0  0  0  0  0  0
   48.9010   35.7940   41.1780 C   0  0  0  0  0  0  0  0  0  0  0  0
   48.7310   35.0910   39.9940 C   0  0  0  0  0  0  0  0  0  0  0  0
   47.8560   34.0300   40.0260 C   0  0  0  0  0  0  0  0  0  0  0  0
   47.1620   33.6480   41.1520 C   0  0  0  0  0  0  0  0  0  0  0  0
   44.8470   36.0610   42.8530 S   0  0  0  0  0  0  0  0  0  0  0  0
   43.2520   34.1370   39.8880 N   0  0  0  0  0  0  0  0  0  0  0  0
   44.2970   34.4920   40.5980 N   0  0  0  0  0  0  0  0  0  0  0  0
   43.8700   35.3030   41.6100 C   0  0  0  0  0  0  0  0  0  0  0  0
   42.5210   35.3930   41.4410 C   0  0  0  0  0  0  0  0  0  0  0  0
   42.0920   34.6660   40.3600 C   0  0  0  0  0  0  0  0  0  0  0  0
   40.7950   34.4400   39.7700 C   0  0  0  0  0  0  0  0  0  0  0  0
   40.6700   34.5900   38.4060 C   0  0  0  0  0  0  0  0  0  0  0  0
   39.4510   34.3860   37.7860 C   0  0  0  0  0  0  0  0  0  0  0  0
   38.3700   34.0270   38.5700 C   0  0  0  0  0  0  0  0  0  0  0  0
   38.4770   33.8710   39.9510 C   0  0  0  0  0  0  0  0  0  0  0  0
   39.7140   34.0830   40.5500 C   0  0  0  0  0  0  0  0  0  0  0  0
   44.0469   35.1673   45.5040 H   0  0  0  0  0  0  0  0  0  0  0  0
   46.9993   32.2652   46.3945 H   0  0  0  0  0  0  0  0  0  0  0  0
   48.3716   36.0022   43.2304 H   0  0  0  0  0  0  0  0  0  0  0  0
   49.5888   36.6518   41.2111 H   0  0  0  0  0  0  0  0  0  0  0  0
   49.2691   35.3682   39.0755 H   0  0  0  0  0  0  0  0  0  0  0  0
   47.7023   33.4551   39.1009 H   0  0  0  0  0  0  0  0  0  0  0  0
   46.4755   32.7893   41.1152 H   0  0  0  0  0  0  0  0  0  0  0  0
   43.3049   33.5237   39.0622 H   0  0  0  0  0  0  0  0  0  0  0  0
   41.8560   35.9783   42.0931 H   0  0  0  0  0  0  0  0  0  0  0  0
   41.5468   34.8743   37.8056 H   0  0  0  0  0  0  0  0  0  0  0  0
   39.3440   34.5061   36.6978 H   0  0  0  0  0  0  0  0  0  0  0  0
   37.3952   33.8593   38.0888 H   0  0  0  0  0  0  0  0  0  0  0  0
   37.6020   33.5864   40.5539 H   0  0  0  0  0  0  0  0  0  0  0  0
   39.8300   33.9670   41.6377 H   0  0  0  0  0  0  0  0  0  0  0  0
  1  6  2  0
  2  1  1  0
  3  2  2  0
  3  4  1  0
  4  5  2  0
  5  6  1  0
  7  3  1  0
  8  7  2  0
  9  8  1  0
 10 11  1  0
 10  9  2  0
 11 12  2  0
 12  7  1  0
 13  2  1  0
 14 18  1  0
 14 15  1  0
 15 16  2  0
 16 13  1  0
 17 16  1  0
 18 17  2  0
 19 18  1  0
 19 24  1  0
 20 19  2  0
 21 20  1  0
 21 22  2  0
 22 23  1  0
 23 24  2  0
  1 25  1  0
  5 26  1  0
  8 27  1  0
  9 28  1  0
 10 29  1  0
 11 30  1  0
 12 31  1  0
 14 32  1  0
 17 33  1  0
 20 34  1  0
 21 35  1  0
 22 36  1  0
 23 37  1  0
 24 38  1  0
M  ISO  8  25  14  26  14  27  14  28  14  29  14  30  14  31  14  32   9
M  ISO  6  33  14  34  14  35  14  36  14  37  14  38  14
M  END
>  <minimizedAffinity>  (1) 
-7.25999975

>  <minimizedRMSD>  (1) 
0.831952453

$$$$
