
     RDKit          3D

 40 43  0  0  0  0  0  0  0  0999 V2000
   45.0950   34.3860   45.3620 C   0  0  0  0  0  0  0  0  0  0  0  0
   45.5990   34.6470   44.0600 C   0  0  0  0  0  0  0  0  0  0  0  0
   46.7540   33.9820   43.6390 C   0  0  0  0  0  0  0  0  0  0  0  0
   47.3520   33.1030   44.5080 N   0  0  0  0  0  0  0  0  0  0  0  0
   46.8440   32.8810   45.7350 C   0  0  0  0  0  0  0  0  0  0  0  0
   45.7350   33.5090   46.1610 N   0  0  0  0  0  0  0  0  0  0  0  0
   47.2820   34.2390   42.3080 C   0  0  0  0  0  0  0  0  0  0  0  0
   48.2510   35.2150   42.2640 C   0  0  0  0  0  0  0  0  0  0  0  0
   48.8680   35.5950   41.0950 C   0  0  0  0  0  0  0  0  0  0  0  0
   48.5090   34.9770   39.8950 C   0  0  0  0  0  0  0  0  0  0  0  0
   47.5400   34.0070   39.9600 C   0  0  0  0  0  0  0  0  0  0  0  0
   46.9240   33.6280   41.1300 C   0  0  0  0  0  0  0  0  0  0  0  0
   44.7510   35.8100   42.9990 S   0  0  0  0  0  0  0  0  0  0  0  0
   42.4170   33.4660   40.9480 N   0  0  0  0  0  0  0  0  0  0  0  0
   43.4350   33.6690   41.7600 N   0  0  0  0  0  0  0  0  0  0  0  0
   43.5540   35.0100   41.9870 C   0  0  0  0  0  0  0  0  0  0  0  0
   42.5530   35.5810   41.2660 C   0  0  0  0  0  0  0  0  0  0  0  0
   41.8210   34.6290   40.6010 C   0  0  0  0  0  0  0  0  0  0  0  0
   40.6960   34.7210   39.7350 N   0  0  0  0  0  0  0  0  0  0  0  0
   39.3750   34.2570   40.1090 C   0  0  0  0  0  0  0  0  0  0  0  0
   38.5710   34.2460   38.8100 C   0  0  0  0  0  0  0  0  0  0  0  0
   39.6650   34.2890   37.7360 C   0  0  0  0  0  0  0  0  0  0  0  0
   40.6490   35.2600   38.3900 C   0  0  0  0  0  0  0  0  0  0  0  0
   44.1875   34.8967   45.7164 H   0  0  0  0  0  0  0  0  0  0  0  0
   47.3486   32.1688   46.4044 H   0  0  0  0  0  0  0  0  0  0  0  0
   48.5438   35.7111   43.2011 H   0  0  0  0  0  0  0  0  0  0  0  0
   49.6386   36.3799   41.1051 H   0  0  0  0  0  0  0  0  0  0  0  0
   48.9813   35.2550   38.9412 H   0  0  0  0  0  0  0  0  0  0  0  0
   47.2403   33.5065   39.0274 H   0  0  0  0  0  0  0  0  0  0  0  0
   46.1526   32.8438   41.1230 H   0  0  0  0  0  0  0  0  0  0  0  0
   42.1136   32.5383   40.6191 H   0  0  0  0  0  0  0  0  0  0  0  0
   42.3558   36.6623   41.2214 H   0  0  0  0  0  0  0  0  0  0  0  0
   39.4287   33.2455   40.5379 H   0  0  0  0  0  0  0  0  0  0  0  0
   38.9140   34.9013   40.8721 H   0  0  0  0  0  0  0  0  0  0  0  0
   37.9674   33.3304   38.7249 H   0  0  0  0  0  0  0  0  0  0  0  0
   37.8523   35.0753   38.7344 H   0  0  0  0  0  0  0  0  0  0  0  0
   39.2829   34.6781   36.7807 H   0  0  0  0  0  0  0  0  0  0  0  0
   40.0904   33.3097   37.4715 H   0  0  0  0  0  0  0  0  0  0  0  0
   41.6355   35.2272   37.9045 H   0  0  0  0  0  0  0  0  0  0  0  0
   40.3570   36.3188   38.3300 H   0  0  0  0  0  0  0  0  0  0  0  0
  1  6  2  0
  2  1  1  0
  3  2  2  0
  3  4  1  0
  4  5  2  0
  5  6  1  0
  7  3  1  0
  8  7  2  0
  9  8  1  0
 10 11  1  0
 10  9  2  0
 11 12  2  0
 12  7  1  0
 13  2  1  0
 14 15  1  0
 15 16  2  0
 16 13  1  0
 17 16  1  0
 18 14  1  0
 18 17  2  0
 19 20  1  0
 19 18  1  0
 21 20  1  0
 22 23  1  0
 22 21  1  0
 23 19  1  0
  1 24  1  0
  5 25  1  0
  8 26  1  0
  9 27  1  0
 10 28  1  0
 11 29  1  0
 12 30  1  0
 14 31  1  0
 17 32  1  0
 20 33  1  0
 20 34  1  0
 21 35  1  0
 21 36  1  0
 22 37  1  0
 22 38  1  0
 23 39  1  0
 23 40  1  0
M  ISO  8  24  14  25  14  26  14  27  14  28  14  29  14  30  14  31   9
M  ISO  8  32  14  33  13  34  13  35  13  36  13  37  13  38  13  39  13
M  ISO  1  40  13
M  END
>  <minimizedAffinity>  (1) 
-6.58775616

>  <minimizedRMSD>  (1) 
0.248313382

$$$$
