
     RDKit          3D

 41 45  0  0  0  0  0  0  0  0999 V2000
   44.6100   35.6800   42.8160 S   0  0  0  0  0  0  0  0  0  0  0  0
   45.0330   34.4750   45.2930 C   0  0  0  0  0  0  0  0  0  0  0  0
   45.5230   34.6580   43.9770 C   0  0  0  0  0  0  0  0  0  0  0  0
   46.7100   34.0320   43.6110 C   0  0  0  0  0  0  0  0  0  0  0  0
   47.3700   33.2630   44.5290 N   0  0  0  0  0  0  0  0  0  0  0  0
   46.8660   33.1150   45.7800 C   0  0  0  0  0  0  0  0  0  0  0  0
   45.7330   33.7040   46.1460 N   0  0  0  0  0  0  0  0  0  0  0  0
   47.2300   34.2110   42.2530 C   0  0  0  0  0  0  0  0  0  0  0  0
   48.1640   35.2120   42.1300 C   0  0  0  0  0  0  0  0  0  0  0  0
   48.7620   35.5200   40.9240 C   0  0  0  0  0  0  0  0  0  0  0  0
   48.4240   34.8110   39.7860 C   0  0  0  0  0  0  0  0  0  0  0  0
   47.4910   33.8140   39.9230 C   0  0  0  0  0  0  0  0  0  0  0  0
   46.8870   33.4930   41.1130 C   0  0  0  0  0  0  0  0  0  0  0  0
   42.4940   33.0250   40.9360 N   0  0  0  0  0  0  0  0  0  0  0  0
   43.4090   33.3440   41.8210 N   0  0  0  0  0  0  0  0  0  0  0  0
   43.5340   34.7040   41.8280 C   0  0  0  0  0  0  0  0  0  0  0  0
   42.6470   35.1620   40.9040 C   0  0  0  0  0  0  0  0  0  0  0  0
   41.9590   34.1070   40.3080 C   0  0  0  0  0  0  0  0  0  0  0  0
   40.9530   34.1040   39.3050 N   0  0  0  0  0  0  0  0  0  0  0  0
   40.7550   35.1490   38.4800 C   0  0  0  0  0  0  0  0  0  0  0  0
   39.7490   34.8720   37.6420 N   0  0  0  0  0  0  0  0  0  0  0  0
   39.3190   33.6400   37.9520 C   0  0  0  0  0  0  0  0  0  0  0  0
   38.3390   32.7870   37.4850 C   0  0  0  0  0  0  0  0  0  0  0  0
   38.1160   31.5500   38.0050 N   0  0  0  0  0  0  0  0  0  0  0  0
   38.8850   31.1040   39.0410 C   0  0  0  0  0  0  0  0  0  0  0  0
   39.8480   31.9130   39.5180 N   0  0  0  0  0  0  0  0  0  0  0  0
   40.0590   33.1290   38.9970 C   0  0  0  0  0  0  0  0  0  0  0  0
   37.5170   33.2140   36.4080 N   0  0  0  0  0  0  0  0  0  0  0  0
   44.0962   34.9548   45.6128 H   0  0  0  0  0  0  0  0  0  0  0  0
   47.4079   32.4931   46.5077 H   0  0  0  0  0  0  0  0  0  0  0  0
   48.4450   35.7881   43.0239 H   0  0  0  0  0  0  0  0  0  0  0  0
   49.5062   36.3282   40.8687 H   0  0  0  0  0  0  0  0  0  0  0  0
   48.8834   35.0365   38.8123 H   0  0  0  0  0  0  0  0  0  0  0  0
   47.2112   33.2392   39.0279 H   0  0  0  0  0  0  0  0  0  0  0  0
   46.1451   32.6824   41.1638 H   0  0  0  0  0  0  0  0  0  0  0  0
   42.2100   32.0551   40.7372 H   0  0  0  0  0  0  0  0  0  0  0  0
   42.4934   36.2235   40.6599 H   0  0  0  0  0  0  0  0  0  0  0  0
   41.3311   36.0860   38.4926 H   0  0  0  0  0  0  0  0  0  0  0  0
   38.7210   30.1068   39.4754 H   0  0  0  0  0  0  0  0  0  0  0  0
   36.7801   32.5927   36.0448 H   0  0  0  0  0  0  0  0  0  0  0  0
   37.6579   34.1449   35.9903 H   0  0  0  0  0  0  0  0  0  0  0  0
  1  3  1  0
  2  7  2  0
  3  2  1  0
  4  3  2  0
  4  5  1  0
  5  6  2  0
  6  7  1  0
  8  4  1  0
  9  8  2  0
 10  9  1  0
 11 12  1  0
 11 10  2  0
 12 13  2  0
 13  8  1  0
 14 15  1  0
 15 16  2  0
 16  1  1  0
 17 16  1  0
 18 17  2  0
 18 14  1  0
 19 18  1  0
 20 19  1  0
 21 22  1  0
 21 20  2  0
 22 27  2  0
 23 22  1  0
 23 24  2  0
 24 25  1  0
 25 26  2  0
 27 19  1  0
 27 26  1  0
 28 23  1  0
  2 29  1  0
  6 30  1  0
  9 31  1  0
 10 32  1  0
 11 33  1  0
 12 34  1  0
 13 35  1  0
 14 36  1  0
 17 37  1  0
 20 38  1  0
 25 39  1  0
 28 40  1  0
 28 41  1  0
M  ISO  8  29  14  30  14  31  14  32  14  33  14  34  14  35  14  36   9
M  ISO  3  37  14  38  14  39  14
M  END
>  <minimizedAffinity>  (1) 
-6.67528963

>  <minimizedRMSD>  (1) 
1.48635387

$$$$
