
     RDKit          3D

 31 33  0  0  0  0  0  0  0  0999 V2000
   44.9550   34.6050   45.2920 C   0  0  0  0  0  0  0  0  0  0  0  0
   45.4640   34.7910   43.9920 C   0  0  0  0  0  0  0  0  0  0  0  0
   46.5850   34.0580   43.5980 C   0  0  0  0  0  0  0  0  0  0  0  0
   47.1470   33.1910   44.4840 N   0  0  0  0  0  0  0  0  0  0  0  0
   46.6280   33.0390   45.7310 C   0  0  0  0  0  0  0  0  0  0  0  0
   45.5610   33.7260   46.1280 N   0  0  0  0  0  0  0  0  0  0  0  0
   47.1180   34.2420   42.2580 C   0  0  0  0  0  0  0  0  0  0  0  0
   48.1660   35.1500   42.1830 C   0  0  0  0  0  0  0  0  0  0  0  0
   48.7890   35.4470   40.9900 C   0  0  0  0  0  0  0  0  0  0  0  0
   48.3860   34.8410   39.8130 C   0  0  0  0  0  0  0  0  0  0  0  0
   47.3490   33.9470   39.9080 C   0  0  0  0  0  0  0  0  0  0  0  0
   46.7240   33.6460   41.0890 C   0  0  0  0  0  0  0  0  0  0  0  0
   44.6680   35.9520   42.8810 S   0  0  0  0  0  0  0  0  0  0  0  0
   42.0740   33.7210   41.0330 N   0  0  0  0  0  0  0  0  0  0  0  0
   43.2050   33.8740   41.6820 N   0  0  0  0  0  0  0  0  0  0  0  0
   43.3430   35.1990   42.0110 C   0  0  0  0  0  0  0  0  0  0  0  0
   42.2370   35.8060   41.5210 C   0  0  0  0  0  0  0  0  0  0  0  0
   41.4050   34.8970   40.8910 C   0  0  0  0  0  0  0  0  0  0  0  0
   40.1220   35.2300   40.2520 C   0  0  0  0  0  0  0  0  0  0  0  0
   39.7290   36.4940   40.6510 F   0  0  0  0  0  0  0  0  0  0  0  0
   39.1160   34.3340   40.5930 F   0  0  0  0  0  0  0  0  0  0  0  0
   40.2430   35.2200   38.8790 F   0  0  0  0  0  0  0  0  0  0  0  0
   44.0719   35.1689   45.6269 H   0  0  0  0  0  0  0  0  0  0  0  0
   47.1015   32.3315   46.4276 H   0  0  0  0  0  0  0  0  0  0  0  0
   48.5089   35.6467   43.1026 H   0  0  0  0  0  0  0  0  0  0  0  0
   49.6150   36.1732   40.9733 H   0  0  0  0  0  0  0  0  0  0  0  0
   48.8714   35.0642   38.8515 H   0  0  0  0  0  0  0  0  0  0  0  0
   47.0029   33.4478   38.9909 H   0  0  0  0  0  0  0  0  0  0  0  0
   45.8983   32.9192   41.0990 H   0  0  0  0  0  0  0  0  0  0  0  0
   41.7336   32.8176   40.6739 H   0  0  0  0  0  0  0  0  0  0  0  0
   42.0267   36.8819   41.6117 H   0  0  0  0  0  0  0  0  0  0  0  0
  1  6  2  0
  2  1  1  0
  3  2  2  0
  3  4  1  0
  4  5  2  0
  5  6  1  0
  7  3  1  0
  8  7  2  0
  9  8  1  0
 10 11  1  0
 10  9  2  0
 11 12  2  0
 12  7  1  0
 13  2  1  0
 14 15  1  0
 15 16  2  0
 16 13  1  0
 17 16  1  0
 18 14  1  0
 18 17  2  0
 19 21  1  0
 19 20  1  0
 19 18  1  0
 22 19  1  0
  1 23  1  0
  5 24  1  0
  8 25  1  0
  9 26  1  0
 10 27  1  0
 11 28  1  0
 12 29  1  0
 14 30  1  0
 17 31  1  0
M  ISO  8  23  14  24  14  25  14  26  14  27  14  28  14  29  14  30   9
M  ISO  1  31  14
M  END
>  <minimizedAffinity>  (1) 
-6.44802141

>  <minimizedRMSD>  (1) 
0.484763145

$$$$
