
     RDKit          3D

 35 38  0  0  0  0  0  0  0  0999 V2000
   45.1980   34.2360   45.5330 C   0  0  0  0  0  0  0  0  0  0  0  0
   45.6700   34.5560   44.2480 C   0  0  0  0  0  0  0  0  0  0  0  0
   46.8080   33.8940   43.7620 C   0  0  0  0  0  0  0  0  0  0  0  0
   47.4090   32.9630   44.5660 N   0  0  0  0  0  0  0  0  0  0  0  0
   46.9280   32.6880   45.7850 C   0  0  0  0  0  0  0  0  0  0  0  0
   45.8510   33.3040   46.2620 N   0  0  0  0  0  0  0  0  0  0  0  0
   47.3120   34.2110   42.4320 C   0  0  0  0  0  0  0  0  0  0  0  0
   48.3010   35.1710   42.4120 C   0  0  0  0  0  0  0  0  0  0  0  0
   48.8970   35.5990   41.2490 C   0  0  0  0  0  0  0  0  0  0  0  0
   48.5030   35.0560   40.0320 C   0  0  0  0  0  0  0  0  0  0  0  0
   47.5170   34.1020   40.0650 C   0  0  0  0  0  0  0  0  0  0  0  0
   46.9210   33.6730   41.2250 C   0  0  0  0  0  0  0  0  0  0  0  0
   44.8310   35.7820   43.2580 S   0  0  0  0  0  0  0  0  0  0  0  0
   42.5550   33.5800   41.0090 N   0  0  0  0  0  0  0  0  0  0  0  0
   43.3910   33.7140   42.0130 N   0  0  0  0  0  0  0  0  0  0  0  0
   43.7330   35.0350   42.0910 C   0  0  0  0  0  0  0  0  0  0  0  0
   43.0560   35.6580   41.0840 C   0  0  0  0  0  0  0  0  0  0  0  0
   42.3010   34.7500   40.3860 C   0  0  0  0  0  0  0  0  0  0  0  0
   41.4690   34.9160   39.3100 C   0  0  0  0  0  0  0  0  0  0  0  0
   41.2940   35.6730   38.1890 C   0  0  0  0  0  0  0  0  0  0  0  0
   40.2780   35.5090   37.3240 C   0  0  0  0  0  0  0  0  0  0  0  0
   39.3410   34.4640   37.6350 C   0  0  0  0  0  0  0  0  0  0  0  0
   39.9780   33.7490   39.1890 S   0  0  0  0  0  0  0  0  0  0  0  0
   44.3080   34.7381   45.9401 H   0  0  0  0  0  0  0  0  0  0  0  0
   47.4357   31.9351   46.4058 H   0  0  0  0  0  0  0  0  0  0  0  0
   48.6268   35.6127   43.3653 H   0  0  0  0  0  0  0  0  0  0  0  0
   49.6826   36.3682   41.2819 H   0  0  0  0  0  0  0  0  0  0  0  0
   48.9610   35.3765   39.0846 H   0  0  0  0  0  0  0  0  0  0  0  0
   47.1875   33.6586   39.1138 H   0  0  0  0  0  0  0  0  0  0  0  0
   46.1354   32.9038   41.1912 H   0  0  0  0  0  0  0  0  0  0  0  0
   42.1389   32.6807   40.7279 H   0  0  0  0  0  0  0  0  0  0  0  0
   43.1080   36.7344   40.8632 H   0  0  0  0  0  0  0  0  0  0  0  0
   42.0281   36.4651   37.9802 H   0  0  0  0  0  0  0  0  0  0  0  0
   40.1697   36.1389   36.4287 H   0  0  0  0  0  0  0  0  0  0  0  0
   38.4473   34.1646   37.0679 H   0  0  0  0  0  0  0  0  0  0  0  0
  1  6  2  0
  2  1  1  0
  3  2  2  0
  3  4  1  0
  4  5  2  0
  5  6  1  0
  7  3  1  0
  8  7  2  0
  9  8  1  0
 10 11  1  0
 10  9  2  0
 11 12  2  0
 12  7  1  0
 13  2  1  0
 14 15  1  0
 15 16  2  0
 16 13  1  0
 17 16  1  0
 18 14  1  0
 18 17  2  0
 19 18  1  0
 20 19  2  0
 21 22  2  0
 21 20  1  0
 22 23  1  0
 23 19  1  0
  1 24  1  0
  5 25  1  0
  8 26  1  0
  9 27  1  0
 10 28  1  0
 11 29  1  0
 12 30  1  0
 14 31  1  0
 17 32  1  0
 20 33  1  0
 21 34  1  0
 22 35  1  0
M  ISO  8  24  14  25  14  26  14  27  14  28  14  29  14  30  14  31   9
M  ISO  4  32  14  33  14  34  14  35  14
M  END
>  <minimizedAffinity>  (1) 
-6.39095879

>  <minimizedRMSD>  (1) 
0.911183953

$$$$
