
     RDKit          3D

 35 38  0  0  0  0  0  0  0  0999 V2000
   45.0070   34.5510   45.3230 C   0  0  0  0  0  0  0  0  0  0  0  0
   45.5120   34.7590   44.0230 C   0  0  0  0  0  0  0  0  0  0  0  0
   46.6550   34.0530   43.6330 C   0  0  0  0  0  0  0  0  0  0  0  0
   47.2340   33.1960   44.5200 N   0  0  0  0  0  0  0  0  0  0  0  0
   46.7190   33.0270   45.7530 C   0  0  0  0  0  0  0  0  0  0  0  0
   45.6320   33.6870   46.1500 N   0  0  0  0  0  0  0  0  0  0  0  0
   47.1940   34.2560   42.2850 C   0  0  0  0  0  0  0  0  0  0  0  0
   48.1910   35.2000   42.2040 C   0  0  0  0  0  0  0  0  0  0  0  0
   48.8110   35.5210   41.0200 C   0  0  0  0  0  0  0  0  0  0  0  0
   48.4360   34.8820   39.8440 C   0  0  0  0  0  0  0  0  0  0  0  0
   47.4390   33.9430   39.9420 C   0  0  0  0  0  0  0  0  0  0  0  0
   46.8230   33.6230   41.1120 C   0  0  0  0  0  0  0  0  0  0  0  0
   44.6880   35.9090   42.9100 S   0  0  0  0  0  0  0  0  0  0  0  0
   42.3530   33.5000   40.9290 N   0  0  0  0  0  0  0  0  0  0  0  0
   43.2990   33.7220   41.8200 N   0  0  0  0  0  0  0  0  0  0  0  0
   43.5290   35.0700   41.8860 C   0  0  0  0  0  0  0  0  0  0  0  0
   42.6720   35.6360   40.9900 C   0  0  0  0  0  0  0  0  0  0  0  0
   41.9150   34.6720   40.3680 C   0  0  0  0  0  0  0  0  0  0  0  0
   40.9060   34.6290   39.3970 N   0  0  0  0  0  0  0  0  0  0  0  0
   39.6610   34.1130   39.4100 C   0  0  0  0  0  0  0  0  0  0  0  0
   39.1570   34.3810   38.1650 C   0  0  0  0  0  0  0  0  0  0  0  0
   40.0660   35.0370   37.4190 N   0  0  0  0  0  0  0  0  0  0  0  0
   41.1810   35.2010   38.1900 C   0  0  0  0  0  0  0  0  0  0  0  0
   44.1093   35.0896   45.6609 H   0  0  0  0  0  0  0  0  0  0  0  0
   47.2071   32.3280   46.4481 H   0  0  0  0  0  0  0  0  0  0  0  0
   48.5043   35.7182   43.1223 H   0  0  0  0  0  0  0  0  0  0  0  0
   49.6038   36.2834   41.0032 H   0  0  0  0  0  0  0  0  0  0  0  0
   48.9145   35.1171   38.8818 H   0  0  0  0  0  0  0  0  0  0  0  0
   47.1217   33.4222   39.0265 H   0  0  0  0  0  0  0  0  0  0  0  0
   46.0299   32.8609   41.1254 H   0  0  0  0  0  0  0  0  0  0  0  0
   41.9900   32.5672   40.6859 H   0  0  0  0  0  0  0  0  0  0  0  0
   42.5966   36.7154   40.7920 H   0  0  0  0  0  0  0  0  0  0  0  0
   39.1597   33.5912   40.2385 H   0  0  0  0  0  0  0  0  0  0  0  0
   38.1503   34.0997   37.8224 H   0  0  0  0  0  0  0  0  0  0  0  0
   42.1174   35.6972   37.8953 H   0  0  0  0  0  0  0  0  0  0  0  0
  1  6  2  0
  2  1  1  0
  3  2  2  0
  3  4  1  0
  4  5  2  0
  5  6  1  0
  7  3  1  0
  8  7  2  0
  9  8  1  0
 10 11  1  0
 10  9  2  0
 11 12  2  0
 12  7  1  0
 13  2  1  0
 14 15  1  0
 15 16  2  0
 16 13  1  0
 17 16  1  0
 18 14  1  0
 18 17  2  0
 19 20  1  0
 19 18  1  0
 21 20  2  0
 22 21  1  0
 22 23  2  0
 23 19  1  0
  1 24  1  0
  5 25  1  0
  8 26  1  0
  9 27  1  0
 10 28  1  0
 11 29  1  0
 12 30  1  0
 14 31  1  0
 17 32  1  0
 20 33  1  0
 21 34  1  0
 23 35  1  0
M  ISO  8  24  14  25  14  26  14  27  14  28  14  29  14  30  14  31   9
M  ISO  4  32  14  33  14  34  14  35  14
M  END
>  <minimizedAffinity>  (1) 
-6.35691786

>  <minimizedRMSD>  (1) 
0.212702662

$$$$
