
     RDKit          3D

 30 31  0  0  0  0  0  0  0  0999 V2000
   46.9630   32.1790   45.8710 C   0  0  0  0  0  0  0  0  0  0  0  0
   46.7380   30.7690   45.9840 N   0  0  0  0  0  0  0  0  0  0  0  0
   45.9350   29.9480   45.3210 N   0  0  0  0  0  0  0  0  0  0  0  0
   46.0480   28.6870   45.7700 C   0  0  0  0  0  0  0  0  0  0  0  0
   46.9800   28.7230   46.7760 C   0  0  0  0  0  0  0  0  0  0  0  0
   47.4080   30.0170   46.9080 C   0  0  0  0  0  0  0  0  0  0  0  0
   48.3870   30.4530   47.8580 N   0  0  0  0  0  0  0  0  0  0  0  0
   48.0970   30.6430   49.2340 C   0  0  0  0  0  0  0  0  0  0  0  0
   46.9120   31.1090   49.5100 N   0  0  0  0  0  0  0  0  0  0  0  0
   49.0980   30.3210   50.2240 N   0  0  0  0  0  0  0  0  0  0  0  0
   46.7120   31.2440   50.5250 H   0  0  0  0  0  0  0  0  0  0  0  0
   46.7980   32.7360   44.4770 C   0  0  0  0  0  0  0  0  0  0  0  0
   46.0070   33.9470   44.4460 C   0  0  0  0  0  0  0  0  0  0  0  0
   46.0790   34.6840   43.2730 C   0  0  0  0  0  0  0  0  0  0  0  0
   45.3710   35.8750   43.0900 C   0  0  0  0  0  0  0  0  0  0  0  0
   44.6030   36.2710   44.1360 N   0  0  0  0  0  0  0  0  0  0  0  0
   44.5380   35.5490   45.2780 C   0  0  0  0  0  0  0  0  0  0  0  0
   45.2350   34.4150   45.4030 N   0  0  0  0  0  0  0  0  0  0  0  0
   46.2499   32.6935   46.5319 H   0  0  0  0  0  0  0  0  0  0  0  0
   48.0133   32.3488   46.1504 H   0  0  0  0  0  0  0  0  0  0  0  0
   45.5032   27.8039   45.4048 H   0  0  0  0  0  0  0  0  0  0  0  0
   47.3229   27.8640   47.3715 H   0  0  0  0  0  0  0  0  0  0  0  0
   49.3450   30.6370   47.5275 H   0  0  0  0  0  0  0  0  0  0  0  0
   48.8949   30.4562   51.2247 H   0  0  0  0  0  0  0  0  0  0  0  0
   50.0150   29.9561   49.9294 H   0  0  0  0  0  0  0  0  0  0  0  0
   47.7945   32.9567   44.0667 H   0  0  0  0  0  0  0  0  0  0  0  0
   46.2683   31.9796   43.8792 H   0  0  0  0  0  0  0  0  0  0  0  0
   46.7175   34.3171   42.4559 H   0  0  0  0  0  0  0  0  0  0  0  0
   45.4325   36.4546   42.1571 H   0  0  0  0  0  0  0  0  0  0  0  0
   43.9075   35.8972   46.1094 H   0  0  0  0  0  0  0  0  0  0  0  0
  1  2  1  0
  2  6  1  0
  3  4  2  0
  3  2  1  0
  4  5  1  0
  5  6  2  0
  6  7  1  0
  7  8  1  0
  8  9  2  0
  8 10  1  0
  9 11  1  0
 12  1  1  0
 13 12  1  0
 13 18  1  0
 14 13  2  0
 15 14  1  0
 15 16  2  0
 16 17  1  0
 17 18  2  0
  1 19  1  0
  1 20  1  0
  4 21  1  0
  5 22  1  0
  7 23  1  0
 10 24  1  0
 10 25  1  0
 12 26  1  0
 12 27  1  0
 14 28  1  0
 15 29  1  0
 17 30  1  0
M  ISO  8  19   8  20   8  21  14  22  14  26   8  27   8  28  14  29  14
M  ISO  1  30  14
M  END
>  <minimizedAffinity>  (1) 
-4.63860369

>  <minimizedRMSD>  (1) 
3.05383468

$$$$
