
     RDKit          3D

 40 42  0  0  0  0  0  0  0  0999 V2000
   45.1910   34.2820   45.3910 C   0  0  0  0  0  0  0  0  0  0  0  0
   45.6720   34.5890   44.1030 C   0  0  0  0  0  0  0  0  0  0  0  0
   46.8070   33.9110   43.6320 C   0  0  0  0  0  0  0  0  0  0  0  0
   47.3940   32.9830   44.4450 N   0  0  0  0  0  0  0  0  0  0  0  0
   46.8980   32.7200   45.6720 C   0  0  0  0  0  0  0  0  0  0  0  0
   45.8270   33.3490   46.1350 N   0  0  0  0  0  0  0  0  0  0  0  0
   47.3210   34.2130   42.3080 C   0  0  0  0  0  0  0  0  0  0  0  0
   48.3040   35.1850   42.2830 C   0  0  0  0  0  0  0  0  0  0  0  0
   48.9060   35.6010   41.1250 C   0  0  0  0  0  0  0  0  0  0  0  0
   48.5280   35.0340   39.9080 C   0  0  0  0  0  0  0  0  0  0  0  0
   47.5520   34.0710   39.9460 C   0  0  0  0  0  0  0  0  0  0  0  0
   46.9510   33.6570   41.1050 C   0  0  0  0  0  0  0  0  0  0  0  0
   44.8390   35.8180   43.1130 S   0  0  0  0  0  0  0  0  0  0  0  0
   42.4200   33.6330   40.9800 N   0  0  0  0  0  0  0  0  0  0  0  0
   43.4850   33.7700   41.7310 N   0  0  0  0  0  0  0  0  0  0  0  0
   43.5980   35.0810   42.1050 C   0  0  0  0  0  0  0  0  0  0  0  0
   42.5370   35.7120   41.5320 C   0  0  0  0  0  0  0  0  0  0  0  0
   41.7630   34.8220   40.8060 C   0  0  0  0  0  0  0  0  0  0  0  0
   40.5330   35.1100   40.0390 C   0  0  0  0  0  0  0  0  0  0  0  0
   40.7500   35.1290   38.5430 C   0  0  0  0  0  0  0  0  0  0  0  0
   39.5000   34.0330   40.3510 C   0  0  0  0  0  0  0  0  0  0  0  0
   39.9960   36.4400   40.4760 C   0  0  0  0  0  0  0  0  0  0  0  0
   44.3044   34.7976   45.7887 H   0  0  0  0  0  0  0  0  0  0  0  0
   47.3935   31.9668   46.3022 H   0  0  0  0  0  0  0  0  0  0  0  0
   48.6158   35.6436   43.2330 H   0  0  0  0  0  0  0  0  0  0  0  0
   49.6837   36.3784   41.1547 H   0  0  0  0  0  0  0  0  0  0  0  0
   48.9918   35.3451   38.9603 H   0  0  0  0  0  0  0  0  0  0  0  0
   47.2365   33.6085   38.9991 H   0  0  0  0  0  0  0  0  0  0  0  0
   46.1727   32.8802   41.0741 H   0  0  0  0  0  0  0  0  0  0  0  0
   42.1139   32.7390   40.5700 H   0  0  0  0  0  0  0  0  0  0  0  0
   42.3226   36.7862   41.6322 H   0  0  0  0  0  0  0  0  0  0  0  0
   41.8250   35.2231   38.3296 H   0  0  0  0  0  0  0  0  0  0  0  0
   40.3698   34.1941   38.1054 H   0  0  0  0  0  0  0  0  0  0  0  0
   40.2131   35.9836   38.1054 H   0  0  0  0  0  0  0  0  0  0  0  0
   39.3985   33.9272   41.4412 H   0  0  0  0  0  0  0  0  0  0  0  0
   38.5299   34.3191   39.9185 H   0  0  0  0  0  0  0  0  0  0  0  0
   39.8263   33.0757   39.9185 H   0  0  0  0  0  0  0  0  0  0  0  0
   39.9778   36.4850   41.5749 H   0  0  0  0  0  0  0  0  0  0  0  0
   40.6409   37.2416   40.0868 H   0  0  0  0  0  0  0  0  0  0  0  0
   38.9753   36.5691   40.0868 H   0  0  0  0  0  0  0  0  0  0  0  0
  1  6  2  0
  2  1  1  0
  3  2  2  0
  3  4  1  0
  4  5  2  0
  5  6  1  0
  7  3  1  0
  8  7  2  0
  9  8  1  0
 10 11  1  0
 10  9  2  0
 11 12  2  0
 12  7  1  0
 13  2  1  0
 14 15  1  0
 15 16  2  0
 16 13  1  0
 17 16  1  0
 18 14  1  0
 18 17  2  0
 19 21  1  0
 19 22  1  0
 19 18  1  0
 20 19  1  0
  1 23  1  0
  5 24  1  0
  8 25  1  0
  9 26  1  0
 10 27  1  0
 11 28  1  0
 12 29  1  0
 14 30  1  0
 17 31  1  0
 20 32  1  0
 20 33  1  0
 20 34  1  0
 21 35  1  0
 21 36  1  0
 21 37  1  0
 22 38  1  0
 22 39  1  0
 22 40  1  0
M  ISO  8  23  14  24  14  25  14  26  14  27  14  28  14  29  14  30   9
M  ISO  8  31  14  32   8  33   8  34   8  35   8  36   8  37   8  38   8
M  ISO  2  39   8  40   8
M  END
>  <minimizedAffinity>  (1) 
-6.47854853

>  <minimizedRMSD>  (1) 
0.408682048

$$$$
