
     RDKit          3D

 32 33  0  0  0  0  0  0  0  0999 V2000
   47.0850   31.9510   45.5080 C   0  0  0  0  0  0  0  0  0  0  0  0
   46.1970   30.9090   45.9200 N   0  0  0  0  0  0  0  0  0  0  0  0
   45.5220   29.9570   45.2920 N   0  0  0  0  0  0  0  0  0  0  0  0
   44.8100   29.2240   46.1370 C   0  0  0  0  0  0  0  0  0  0  0  0
   45.0170   29.7110   47.4020 C   0  0  0  0  0  0  0  0  0  0  0  0
   45.8820   30.7600   47.2480 C   0  0  0  0  0  0  0  0  0  0  0  0
   46.3080   31.5120   48.4860 C   0  0  0  0  0  0  0  0  0  0  0  0
   47.6180   30.9830   49.0180 C   0  0  0  0  0  0  0  0  0  0  0  0
   45.2560   31.3980   49.5650 C   0  0  0  0  0  0  0  0  0  0  0  0
   46.7120   32.5960   44.1960 C   0  0  0  0  0  0  0  0  0  0  0  0
   45.9610   33.8200   44.3750 C   0  0  0  0  0  0  0  0  0  0  0  0
   45.9570   34.6680   43.2730 C   0  0  0  0  0  0  0  0  0  0  0  0
   45.2720   35.8890   43.2780 C   0  0  0  0  0  0  0  0  0  0  0  0
   44.6130   36.1910   44.4280 N   0  0  0  0  0  0  0  0  0  0  0  0
   44.6250   35.3590   45.4920 C   0  0  0  0  0  0  0  0  0  0  0  0
   45.2920   34.2060   45.4380 N   0  0  0  0  0  0  0  0  0  0  0  0
   47.0896   32.7285   46.2861 H   0  0  0  0  0  0  0  0  0  0  0  0
   48.0722   31.4877   45.3641 H   0  0  0  0  0  0  0  0  0  0  0  0
   44.1656   28.3735   45.8698 H   0  0  0  0  0  0  0  0  0  0  0  0
   44.5808   29.3380   48.3404 H   0  0  0  0  0  0  0  0  0  0  0  0
   46.4343   32.5678   48.2044 H   0  0  0  0  0  0  0  0  0  0  0  0
   47.5973   30.9914   50.1178 H   0  0  0  0  0  0  0  0  0  0  0  0
   47.7693   29.9533   48.6619 H   0  0  0  0  0  0  0  0  0  0  0  0
   48.4419   31.6189   48.6619 H   0  0  0  0  0  0  0  0  0  0  0  0
   45.7369   31.4501   50.5529 H   0  0  0  0  0  0  0  0  0  0  0  0
   44.5359   32.2234   49.4637 H   0  0  0  0  0  0  0  0  0  0  0  0
   44.7295   30.4375   49.4637 H   0  0  0  0  0  0  0  0  0  0  0  0
   46.1010   31.8886   43.6161 H   0  0  0  0  0  0  0  0  0  0  0  0
   47.6446   32.8494   43.6706 H   0  0  0  0  0  0  0  0  0  0  0  0
   46.5091   34.3703   42.3694 H   0  0  0  0  0  0  0  0  0  0  0  0
   45.2673   36.5610   42.4071 H   0  0  0  0  0  0  0  0  0  0  0  0
   44.0815   35.6343   46.4079 H   0  0  0  0  0  0  0  0  0  0  0  0
  1  2  1  0
  2  6  1  0
  3  2  1  0
  3  4  2  0
  4  5  1  0
  6  5  2  0
  6  7  1  0
  7  8  1  0
  7  9  1  0
 10 11  1  0
 10  1  1  0
 11 16  2  0
 12 13  2  0
 12 11  1  0
 13 14  1  0
 14 15  2  0
 16 15  1  0
  1 17  1  0
  1 18  1  0
  4 19  1  0
  5 20  1  0
  7 21  1  0
  8 22  1  0
  8 23  1  0
  8 24  1  0
  9 25  1  0
  9 26  1  0
  9 27  1  0
 10 28  1  0
 10 29  1  0
 12 30  1  0
 13 31  1  0
 15 32  1  0
M  ISO  8  17   8  18   8  19  14  20  14  21   8  22   8  23   8  24   8
M  ISO  8  25   8  26   8  27   8  28   8  29   8  30  14  31  14  32  14
M  END
>  <minimizedAffinity>  (1) 
-4.58824348

>  <minimizedRMSD>  (1) 
1.86401165

$$$$
