
     RDKit          3D

 30 32  0  0  0  0  0  0  0  0999 V2000
   44.9670   34.5800   45.2970 C   0  0  0  0  0  0  0  0  0  0  0  0
   45.4750   34.7800   44.0020 C   0  0  0  0  0  0  0  0  0  0  0  0
   46.6200   34.0600   43.6110 C   0  0  0  0  0  0  0  0  0  0  0  0
   47.1850   33.1970   44.5160 N   0  0  0  0  0  0  0  0  0  0  0  0
   46.6540   33.0440   45.7490 C   0  0  0  0  0  0  0  0  0  0  0  0
   45.5770   33.7130   46.1340 N   0  0  0  0  0  0  0  0  0  0  0  0
   47.1610   34.2530   42.2760 C   0  0  0  0  0  0  0  0  0  0  0  0
   48.1700   35.1860   42.2060 C   0  0  0  0  0  0  0  0  0  0  0  0
   48.7990   35.4950   41.0150 C   0  0  0  0  0  0  0  0  0  0  0  0
   48.4200   34.8590   39.8380 C   0  0  0  0  0  0  0  0  0  0  0  0
   47.4140   33.9350   39.9320 C   0  0  0  0  0  0  0  0  0  0  0  0
   46.7810   33.6180   41.1110 C   0  0  0  0  0  0  0  0  0  0  0  0
   44.6730   35.9310   42.8810 S   0  0  0  0  0  0  0  0  0  0  0  0
   42.2620   33.5900   40.9410 N   0  0  0  0  0  0  0  0  0  0  0  0
   43.2800   33.7800   41.7520 N   0  0  0  0  0  0  0  0  0  0  0  0
   43.4540   35.1250   41.9050 C   0  0  0  0  0  0  0  0  0  0  0  0
   42.5010   35.7100   41.1550 C   0  0  0  0  0  0  0  0  0  0  0  0
   41.7100   34.7640   40.5170 C   0  0  0  0  0  0  0  0  0  0  0  0
   40.5650   34.8860   39.6090 C   0  0  0  0  0  0  0  0  0  0  0  0
   39.5550   35.4450   40.1130 O   0  0  0  0  0  0  0  0  0  0  0  0
   44.0734   35.1291   45.6287 H   0  0  0  0  0  0  0  0  0  0  0  0
   47.1290   32.3446   46.4527 H   0  0  0  0  0  0  0  0  0  0  0  0
   48.4853   35.7012   43.1254 H   0  0  0  0  0  0  0  0  0  0  0  0
   49.6021   36.2465   40.9980 H   0  0  0  0  0  0  0  0  0  0  0  0
   48.9051   35.0873   38.8775 H   0  0  0  0  0  0  0  0  0  0  0  0
   47.0948   33.4183   39.0149 H   0  0  0  0  0  0  0  0  0  0  0  0
   45.9791   32.8652   41.1254 H   0  0  0  0  0  0  0  0  0  0  0  0
   41.9201   32.6605   40.6580 H   0  0  0  0  0  0  0  0  0  0  0  0
   42.3664   36.7976   41.0600 H   0  0  0  0  0  0  0  0  0  0  0  0
   40.5864   34.5192   38.5722 H   0  0  0  0  0  0  0  0  0  0  0  0
  1  6  2  0
  2  1  1  0
  3  2  2  0
  3  4  1  0
  4  5  2  0
  5  6  1  0
  7  3  1  0
  8  7  2  0
  9  8  1  0
 10 11  1  0
 10  9  2  0
 11 12  2  0
 12  7  1  0
 13  2  1  0
 14 15  1  0
 15 16  2  0
 16 13  1  0
 17 16  1  0
 18 14  1  0
 18 17  2  0
 19 20  2  0
 19 18  1  0
  1 21  1  0
  5 22  1  0
  8 23  1  0
  9 24  1  0
 10 25  1  0
 11 26  1  0
 12 27  1  0
 14 28  1  0
 17 29  1  0
 19 30  1  0
M  ISO  8  21  14  22  14  23  14  24  14  25  14  26  14  27  14  28   9
M  ISO  2  29  14  30   6
M  END
>  <minimizedAffinity>  (1) 
-5.60316229

>  <minimizedRMSD>  (1) 
0.0380177498

$$$$
