
     RDKit          3D

 29 31  0  0  0  0  0  0  0  0999 V2000
   45.0870   34.3930   45.3590 C   0  0  0  0  0  0  0  0  0  0  0  0
   45.5930   34.6730   44.0660 C   0  0  0  0  0  0  0  0  0  0  0  0
   46.7450   33.9950   43.6290 C   0  0  0  0  0  0  0  0  0  0  0  0
   47.3320   33.0890   44.4740 N   0  0  0  0  0  0  0  0  0  0  0  0
   46.8100   32.8530   45.7080 C   0  0  0  0  0  0  0  0  0  0  0  0
   45.7170   33.4870   46.1400 N   0  0  0  0  0  0  0  0  0  0  0  0
   47.2760   34.2700   42.3110 C   0  0  0  0  0  0  0  0  0  0  0  0
   48.2800   35.2190   42.2820 C   0  0  0  0  0  0  0  0  0  0  0  0
   48.8980   35.6030   41.1150 C   0  0  0  0  0  0  0  0  0  0  0  0
   48.5220   35.0370   39.9120 C   0  0  0  0  0  0  0  0  0  0  0  0
   47.5210   34.0940   39.9490 C   0  0  0  0  0  0  0  0  0  0  0  0
   46.9100   33.7130   41.1070 C   0  0  0  0  0  0  0  0  0  0  0  0
   44.7640   35.8750   43.0200 S   0  0  0  0  0  0  0  0  0  0  0  0
   42.4080   33.5910   40.9350 N   0  0  0  0  0  0  0  0  0  0  0  0
   43.3730   33.7500   41.8110 N   0  0  0  0  0  0  0  0  0  0  0  0
   43.5870   35.0950   41.9680 C   0  0  0  0  0  0  0  0  0  0  0  0
   42.7010   35.7090   41.1420 C   0  0  0  0  0  0  0  0  0  0  0  0
   41.9320   34.7730   40.4680 C   0  0  0  0  0  0  0  0  0  0  0  0
   40.9260   35.0010   39.5430 O   0  0  0  0  0  0  0  0  0  0  0  0
   44.1874   34.9093   45.7253 H   0  0  0  0  0  0  0  0  0  0  0  0
   47.3008   32.1213   46.3666 H   0  0  0  0  0  0  0  0  0  0  0  0
   48.5965   35.6844   43.2271 H   0  0  0  0  0  0  0  0  0  0  0  0
   49.6934   36.3624   41.1394 H   0  0  0  0  0  0  0  0  0  0  0  0
   49.0021   35.3277   38.9659 H   0  0  0  0  0  0  0  0  0  0  0  0
   47.2003   33.6281   39.0055 H   0  0  0  0  0  0  0  0  0  0  0  0
   46.1160   32.9522   41.0784 H   0  0  0  0  0  0  0  0  0  0  0  0
   42.0520   32.6720   40.6357 H   0  0  0  0  0  0  0  0  0  0  0  0
   42.6066   36.7986   41.0241 H   0  0  0  0  0  0  0  0  0  0  0  0
   40.6823   35.9280   39.2951 H   0  0  0  0  0  0  0  0  0  0  0  0
  1  6  2  0
  2  1  1  0
  3  2  2  0
  3  4  1  0
  4  5  2  0
  5  6  1  0
  7  3  1  0
  8  7  2  0
  9  8  1  0
 10 11  1  0
 10  9  2  0
 11 12  2  0
 12  7  1  0
 13  2  1  0
 14 15  1  0
 15 16  2  0
 16 13  1  0
 17 16  1  0
 18 14  1  0
 18 17  2  0
 19 18  1  0
  1 20  1  0
  5 21  1  0
  8 22  1  0
  9 23  1  0
 10 24  1  0
 11 25  1  0
 12 26  1  0
 14 27  1  0
 17 28  1  0
 19 29  1  0
M  ISO  8  20  14  21  14  22  14  23  14  24  14  25  14  26  14  27   9
M  ISO  2  28  14  29   3
M  END
>  <minimizedAffinity>  (1) 
-5.51898861

>  <minimizedRMSD>  (1) 
0.177173987

$$$$
