
     RDKit          3D

 27 30  0  0  0  0  0  0  0  0999 V2000
   46.1160   34.0840   44.1250 C   0  0  0  0  0  0  0  0  0  0  0  0
   46.0600   35.0410   43.0920 C   0  0  0  0  0  0  0  0  0  0  0  0
   45.2350   36.1720   43.2760 C   0  0  0  0  0  0  0  0  0  0  0  0
   44.5310   36.2900   44.4360 N   0  0  0  0  0  0  0  0  0  0  0  0
   44.6160   35.3390   45.4090 C   0  0  0  0  0  0  0  0  0  0  0  0
   45.4070   34.2450   45.2450 N   0  0  0  0  0  0  0  0  0  0  0  0
   46.8330   32.8650   44.1840 N   0  0  0  0  0  0  0  0  0  0  0  0
   47.5300   32.3810   43.1140 C   0  0  0  0  0  0  0  0  0  0  0  0
   48.0840   31.1940   43.4930 N   0  0  0  0  0  0  0  0  0  0  0  0
   47.7300   30.9550   44.7810 C   0  0  0  0  0  0  0  0  0  0  0  0
   47.9580   29.9620   45.7120 C   0  0  0  0  0  0  0  0  0  0  0  0
   47.4530   30.0040   46.9600 N   0  0  0  0  0  0  0  0  0  0  0  0
   46.6880   31.0410   47.3600 C   0  0  0  0  0  0  0  0  0  0  0  0
   46.4230   32.0570   46.4890 N   0  0  0  0  0  0  0  0  0  0  0  0
   46.9310   32.0070   45.2450 C   0  0  0  0  0  0  0  0  0  0  0  0
   46.8390   34.8160   41.9400 N   0  0  0  0  0  0  0  0  0  0  0  0
   48.1230   35.1640   41.6730 C   0  0  0  0  0  0  0  0  0  0  0  0
   48.4540   34.7430   40.4310 N   0  0  0  0  0  0  0  0  0  0  0  0
   47.3450   34.1200   39.9230 C   0  0  0  0  0  0  0  0  0  0  0  0
   46.3540   34.1750   40.8670 N   0  0  0  0  0  0  0  0  0  0  0  0
   45.1621   36.9443   42.4961 H   0  0  0  0  0  0  0  0  0  0  0  0
   44.0382   35.4579   46.3374 H   0  0  0  0  0  0  0  0  0  0  0  0
   47.6267   32.8601   42.1285 H   0  0  0  0  0  0  0  0  0  0  0  0
   48.5779   29.1005   45.4228 H   0  0  0  0  0  0  0  0  0  0  0  0
   46.2808   31.0670   48.3815 H   0  0  0  0  0  0  0  0  0  0  0  0
   48.7909   35.7045   42.3599 H   0  0  0  0  0  0  0  0  0  0  0  0
   47.2642   33.6558   38.9290 H   0  0  0  0  0  0  0  0  0  0  0  0
  1  7  1  0
  1  6  2  0
  2  3  2  0
  2  1  1  0
  3  4  1  0
  4  5  2  0
  6  5  1  0
  7 15  1  0
  8  9  2  0
  8  7  1  0
  9 10  1  0
 10 15  2  0
 10 11  1  0
 11 12  2  0
 12 13  1  0
 14 13  2  0
 15 14  1  0
 16  2  1  0
 17 16  1  0
 18 17  2  0
 19 18  1  0
 19 20  2  0
 20 16  1  0
  3 21  1  0
  5 22  1  0
  8 23  1  0
 11 24  1  0
 13 25  1  0
 17 26  1  0
 19 27  1  0
M  ISO  7  21  14  22  14  23  14  24  14  25  14  26  14  27  14
M  END
>  <minimizedAffinity>  (1) 
-5.47302818

>  <minimizedRMSD>  (1) 
5.94047451

$$$$
