
     RDKit          3D

 25 26  0  0  0  0  0  0  0  0999 V2000
   46.8140   32.6150   46.5940 C   0  0  0  0  0  0  0  0  0  0  0  0
   46.1250   31.5040   47.1900 N   0  0  0  0  0  0  0  0  0  0  0  0
   45.7630   30.2970   46.7860 N   0  0  0  0  0  0  0  0  0  0  0  0
   45.1200   29.6330   47.7370 C   0  0  0  0  0  0  0  0  0  0  0  0
   45.0470   30.4400   48.8410 C   0  0  0  0  0  0  0  0  0  0  0  0
   45.6770   31.5980   48.4840 C   0  0  0  0  0  0  0  0  0  0  0  0
   45.8090   32.7130   49.3930 N   0  0  0  0  0  0  0  0  0  0  0  0
   46.6270   32.6920   45.0930 C   0  0  0  0  0  0  0  0  0  0  0  0
   45.9720   33.9170   44.6660 C   0  0  0  0  0  0  0  0  0  0  0  0
   46.3470   34.3700   43.4040 C   0  0  0  0  0  0  0  0  0  0  0  0
   45.7870   35.5340   42.8710 C   0  0  0  0  0  0  0  0  0  0  0  0
   44.8680   36.1910   43.6410 N   0  0  0  0  0  0  0  0  0  0  0  0
   44.5260   35.7280   44.8600 C   0  0  0  0  0  0  0  0  0  0  0  0
   45.0810   34.6120   45.3390 N   0  0  0  0  0  0  0  0  0  0  0  0
   46.4338   33.5446   47.0426 H   0  0  0  0  0  0  0  0  0  0  0  0
   47.8884   32.4761   46.7847 H   0  0  0  0  0  0  0  0  0  0  0  0
   44.7162   28.6132   47.6537 H   0  0  0  0  0  0  0  0  0  0  0  0
   44.5803   30.2055   49.8091 H   0  0  0  0  0  0  0  0  0  0  0  0
   45.4226   32.6493   50.3457 H   0  0  0  0  0  0  0  0  0  0  0  0
   46.2895   33.5716   49.0885 H   0  0  0  0  0  0  0  0  0  0  0  0
   47.6152   32.6369   44.6131 H   0  0  0  0  0  0  0  0  0  0  0  0
   45.9807   31.8523   44.7977 H   0  0  0  0  0  0  0  0  0  0  0  0
   47.0907   33.8066   42.8214 H   0  0  0  0  0  0  0  0  0  0  0  0
   46.0730   35.9053   41.8758 H   0  0  0  0  0  0  0  0  0  0  0  0
   43.7853   36.2728   45.4637 H   0  0  0  0  0  0  0  0  0  0  0  0
  1  2  1  0
  2  6  1  0
  3  2  1  0
  3  4  2  0
  4  5  1  0
  6  5  2  0
  6  7  1  0
  8  1  1  0
  9  8  1  0
  9 14  1  0
 10  9  2  0
 11 10  1  0
 11 12  2  0
 12 13  1  0
 13 14  2  0
  1 15  1  0
  1 16  1  0
  4 17  1  0
  5 18  1  0
  7 19  1  0
  7 20  1  0
  8 21  1  0
  8 22  1  0
 10 23  1  0
 11 24  1  0
 13 25  1  0
M  ISO  8  15   8  16   8  17  14  18  14  21   8  22   8  23  14  24  14
M  ISO  1  25  14
M  END
>  <minimizedAffinity>  (1) 
-4.58512497

>  <minimizedRMSD>  (1) 
0.604305983

$$$$
