
     RDKit          3D

 19 20  0  0  0  0  0  0  0  0999 V2000
   45.6620   34.6650   43.9930 C   0  0  0  0  0  0  0  0  0  0  0  0
   46.7820   33.9880   43.5160 C   0  0  0  0  0  0  0  0  0  0  0  0
   47.3910   32.9920   44.3250 C   0  0  0  0  0  0  0  0  0  0  0  0
   46.8440   32.7410   45.5490 N   0  0  0  0  0  0  0  0  0  0  0  0
   45.7650   33.4080   45.9820 C   0  0  0  0  0  0  0  0  0  0  0  0
   45.2060   34.3420   45.2100 N   0  0  0  0  0  0  0  0  0  0  0  0
   47.3000   34.3170   42.2440 N   0  0  0  0  0  0  0  0  0  0  0  0
   46.9740   33.8090   41.0440 C   0  0  0  0  0  0  0  0  0  0  0  0
   47.6970   34.3880   40.0730 N   0  0  0  0  0  0  0  0  0  0  0  0
   48.5100   35.2980   40.7020 C   0  0  0  0  0  0  0  0  0  0  0  0
   48.2550   35.2420   42.0350 N   0  0  0  0  0  0  0  0  0  0  0  0
   44.8440   35.6960   43.3140 C   0  0  0  0  0  0  0  0  0  0  0  0
   45.4430   36.9370   43.2510 F   0  0  0  0  0  0  0  0  0  0  0  0
   43.7240   36.0120   44.1740 F   0  0  0  0  0  0  0  0  0  0  0  0
   44.2000   35.2730   42.1840 F   0  0  0  0  0  0  0  0  0  0  0  0
   48.2761   32.4403   43.9754 H   0  0  0  0  0  0  0  0  0  0  0  0
   45.3409   33.1858   46.9723 H   0  0  0  0  0  0  0  0  0  0  0  0
   46.2186   33.0264   40.8799 H   0  0  0  0  0  0  0  0  0  0  0  0
   49.2409   35.9578   40.2117 H   0  0  0  0  0  0  0  0  0  0  0  0
  1  6  2  0
  2  1  1  0
  2  3  2  0
  3  4  1  0
  4  5  2  0
  6  5  1  0
  7  2  1  0
  8  7  1  0
  9 10  1  0
  9  8  2  0
 10 11  2  0
 11  7  1  0
 12  1  1  0
 12 14  1  0
 13 12  1  0
 15 12  1  0
  3 16  1  0
  5 17  1  0
  8 18  1  0
 10 19  1  0
M  ISO  4  16  14  17  14  18  14  19  14
M  END
>  <minimizedAffinity>  (1) 
-4.51847792

>  <minimizedRMSD>  (1) 
2.91029644

$$$$
