
     RDKit          3D

 23 25  0  0  0  0  0  0  0  0999 V2000
   46.4760   34.4290   42.4750 C   0  0  0  0  0  0  0  0  0  0  0  0
   46.0250   34.2870   41.1850 C   0  0  0  0  0  0  0  0  0  0  0  0
   46.9490   34.0340   40.1170 C   0  0  0  0  0  0  0  0  0  0  0  0
   48.2720   33.9290   40.4170 N   0  0  0  0  0  0  0  0  0  0  0  0
   48.6880   34.0640   41.7120 C   0  0  0  0  0  0  0  0  0  0  0  0
   47.8000   34.3070   42.7060 N   0  0  0  0  0  0  0  0  0  0  0  0
   44.6160   34.2470   40.9580 N   0  0  0  0  0  0  0  0  0  0  0  0
   43.8130   33.1550   40.6580 C   0  0  0  0  0  0  0  0  0  0  0  0
   42.5420   33.5840   40.4820 N   0  0  0  0  0  0  0  0  0  0  0  0
   42.5730   34.9540   40.6740 C   0  0  0  0  0  0  0  0  0  0  0  0
   43.8670   35.3740   40.9710 N   0  0  0  0  0  0  0  0  0  0  0  0
   45.8260   34.8210   43.6920 C   0  0  0  0  0  0  0  0  0  0  0  0
   45.5770   34.2130   44.8940 C   0  0  0  0  0  0  0  0  0  0  0  0
   44.7700   34.8810   45.7230 N   0  0  0  0  0  0  0  0  0  0  0  0
   44.4500   35.9980   45.0550 C   0  0  0  0  0  0  0  0  0  0  0  0
   45.0810   35.9160   43.8920 N   0  0  0  0  0  0  0  0  0  0  0  0
   46.5963   33.9275   39.0805 H   0  0  0  0  0  0  0  0  0  0  0  0
   49.7581   33.9741   41.9503 H   0  0  0  0  0  0  0  0  0  0  0  0
   44.1540   32.1124   40.5767 H   0  0  0  0  0  0  0  0  0  0  0  0
   41.6987   35.6177   40.6021 H   0  0  0  0  0  0  0  0  0  0  0  0
   46.0130   33.2385   45.1593 H   0  0  0  0  0  0  0  0  0  0  0  0
   43.7984   36.8142   45.4004 H   0  0  0  0  0  0  0  0  0  0  0  0
   45.0025   36.6556   43.1795 H   0  0  0  0  0  0  0  0  0  0  0  0
  1  6  1  0
  1 12  1  0
  2  1  2  0
  3  4  2  0
  3  2  1  0
  4  5  1  0
  5  6  2  0
  7 11  1  0
  7  2  1  0
  8  7  1  0
  9  8  2  0
  9 10  1  0
 10 11  2  0
 12 16  1  0
 12 13  2  0
 13 14  1  0
 15 14  2  0
 16 15  1  0
  3 17  1  0
  5 18  1  0
  8 19  1  0
 10 20  1  0
 13 21  1  0
 15 22  1  0
 16 23  1  0
M  ISO  7  17  14  18  14  19  14  20  14  21  14  22  14  23   9
M  END
>  <minimizedAffinity>  (1) 
-4.35055733

>  <minimizedRMSD>  (1) 
3.34134483

$$$$
