
     RDKit          3D

 30 33  0  0  0  0  0  0  0  0999 V2000
   45.7700   31.8490   46.1090 C   0  0  0  0  0  0  0  0  0  0  0  0
   45.7740   30.4940   46.4760 C   0  0  0  0  0  0  0  0  0  0  0  0
   46.0340   30.1720   47.8250 C   0  0  0  0  0  0  0  0  0  0  0  0
   46.2680   31.1760   48.7100 N   0  0  0  0  0  0  0  0  0  0  0  0
   46.2540   32.4790   48.3090 C   0  0  0  0  0  0  0  0  0  0  0  0
   46.0060   32.8050   47.0140 N   0  0  0  0  0  0  0  0  0  0  0  0
   45.5660   32.4390   44.8390 N   0  0  0  0  0  0  0  0  0  0  0  0
   45.6910   31.8180   43.6250 C   0  0  0  0  0  0  0  0  0  0  0  0
   45.3880   32.7420   42.6710 N   0  0  0  0  0  0  0  0  0  0  0  0
   45.0890   33.8970   43.3010 C   0  0  0  0  0  0  0  0  0  0  0  0
   44.7160   35.1540   42.8750 C   0  0  0  0  0  0  0  0  0  0  0  0
   44.6110   35.3380   41.6180 O   0  0  0  0  0  0  0  0  0  0  0  0
   44.4580   36.1910   43.7120 N   0  0  0  0  0  0  0  0  0  0  0  0
   44.5770   35.9730   45.0540 C   0  0  0  0  0  0  0  0  0  0  0  0
   44.3080   37.0580   45.9400 N   0  0  0  0  0  0  0  0  0  0  0  0
   44.9400   34.7540   45.5070 N   0  0  0  0  0  0  0  0  0  0  0  0
   45.1900   33.7430   44.6670 C   0  0  0  0  0  0  0  0  0  0  0  0
   45.5100   29.5360   45.4770 N   0  0  0  0  0  0  0  0  0  0  0  0
   44.3280   28.9910   45.0810 C   0  0  0  0  0  0  0  0  0  0  0  0
   44.5570   28.1060   44.0850 N   0  0  0  0  0  0  0  0  0  0  0  0
   45.9100   28.1050   43.8630 C   0  0  0  0  0  0  0  0  0  0  0  0
   46.4850   28.9940   44.7320 N   0  0  0  0  0  0  0  0  0  0  0  0
   46.0471   29.1229   48.1555 H   0  0  0  0  0  0  0  0  0  0  0  0
   46.4458   33.2756   49.0429 H   0  0  0  0  0  0  0  0  0  0  0  0
   45.9812   30.7710   43.4527 H   0  0  0  0  0  0  0  0  0  0  0  0
   44.1812   37.1131   43.3460 H   0  0  0  0  0  0  0  0  0  0  0  0
   44.3894   36.9239   46.9580 H   0  0  0  0  0  0  0  0  0  0  0  0
   44.0323   37.9755   45.5618 H   0  0  0  0  0  0  0  0  0  0  0  0
   43.3418   29.2323   45.5043 H   0  0  0  0  0  0  0  0  0  0  0  0
   46.4413   27.4961   43.1167 H   0  0  0  0  0  0  0  0  0  0  0  0
  1  2  1  0
  1  6  2  0
  2  3  2  0
  3  4  1  0
  5  4  2  0
  6  5  1  0
  7  1  1  0
  8  7  1  0
  9 10  1  0
  9  8  2  0
 10 17  2  0
 11 10  1  0
 11 13  1  0
 12 11  2  0
 13 14  1  0
 14 16  2  0
 14 15  1  0
 17  7  1  0
 17 16  1  0
 18  2  1  0
 19 18  1  0
 20 19  2  0
 21 20  1  0
 21 22  2  0
 22 18  1  0
  3 23  1  0
  5 24  1  0
  8 25  1  0
 13 26  1  0
 15 27  1  0
 15 28  1  0
 19 29  1  0
 21 30  1  0
M  ISO  6  23  14  24  14  25  14  26   9  29  14  30  14
M  END
>  <minimizedAffinity>  (1) 
-4.39480877

>  <minimizedRMSD>  (1) 
5.32233286

$$$$
