
     RDKit          3D

 28 30  0  0  0  0  0  0  0  0999 V2000
   46.1350   33.9300   44.7680 C   0  0  0  0  0  0  0  0  0  0  0  0
   46.4290   34.4330   43.4970 C   0  0  0  0  0  0  0  0  0  0  0  0
   45.7040   35.5460   43.0250 C   0  0  0  0  0  0  0  0  0  0  0  0
   44.7500   36.0710   43.8450 N   0  0  0  0  0  0  0  0  0  0  0  0
   44.4910   35.5550   45.0780 C   0  0  0  0  0  0  0  0  0  0  0  0
   45.1950   34.4810   45.5230 N   0  0  0  0  0  0  0  0  0  0  0  0
   46.6890   32.8110   45.4410 N   0  0  0  0  0  0  0  0  0  0  0  0
   46.9730   32.5420   46.8560 C   0  0  0  0  0  0  0  0  0  0  0  0
   46.9840   31.0600   47.0120 C   0  0  0  0  0  0  0  0  0  0  0  0
   47.4370   30.5540   45.6840 C   0  0  0  0  0  0  0  0  0  0  0  0
   47.1190   31.6230   44.6820 C   0  0  0  0  0  0  0  0  0  0  0  0
   47.4550   33.8130   42.7530 N   0  0  0  0  0  0  0  0  0  0  0  0
   48.8130   33.9670   42.8530 C   0  0  0  0  0  0  0  0  0  0  0  0
   49.4150   33.1780   41.9310 N   0  0  0  0  0  0  0  0  0  0  0  0
   48.4140   32.5300   41.2570 C   0  0  0  0  0  0  0  0  0  0  0  0
   47.2090   32.9310   41.7730 N   0  0  0  0  0  0  0  0  0  0  0  0
   45.9009   35.9751   42.0315 H   0  0  0  0  0  0  0  0  0  0  0  0
   43.7139   36.0062   45.7124 H   0  0  0  0  0  0  0  0  0  0  0  0
   47.9518   32.9604   47.1332 H   0  0  0  0  0  0  0  0  0  0  0  0
   46.2174   33.0046   47.5079 H   0  0  0  0  0  0  0  0  0  0  0  0
   47.6841   30.7566   47.8043 H   0  0  0  0  0  0  0  0  0  0  0  0
   46.0010   30.6602   47.3015 H   0  0  0  0  0  0  0  0  0  0  0  0
   48.5198   30.3613   45.7014 H   0  0  0  0  0  0  0  0  0  0  0  0
   46.9328   29.6104   45.4281 H   0  0  0  0  0  0  0  0  0  0  0  0
   46.3107   31.2876   44.0155 H   0  0  0  0  0  0  0  0  0  0  0  0
   47.9968   31.8513   44.0597 H   0  0  0  0  0  0  0  0  0  0  0  0
   49.3306   34.6249   43.5666 H   0  0  0  0  0  0  0  0  0  0  0  0
   48.5537   31.8085   40.4385 H   0  0  0  0  0  0  0  0  0  0  0  0
  1  7  1  0
  1  6  2  0
  2  1  1  0
  3  2  2  0
  3  4  1  0
  4  5  2  0
  5  6  1  0
  7  8  1  0
  8  9  1  0
 10  9  1  0
 11  7  1  0
 11 10  1  0
 12 13  1  0
 12  2  1  0
 14 13  2  0
 15 16  2  0
 15 14  1  0
 16 12  1  0
  3 17  1  0
  5 18  1  0
  8 19  1  0
  8 20  1  0
  9 21  1  0
  9 22  1  0
 10 23  1  0
 10 24  1  0
 11 25  1  0
 11 26  1  0
 13 27  1  0
 15 28  1  0
M  ISO  8  17  14  18  14  19  13  20  13  21  13  22  13  23  13  24  13
M  ISO  4  25  13  26  13  27  14  28  14
M  END
>  <minimizedAffinity>  (1) 
-4.48798227

>  <minimizedRMSD>  (1) 
5.28306103

$$$$
