
     RDKit          3D

 18 19  0  0  0  0  0  0  0  0999 V2000
   44.6820   34.6740   44.0980 C   0  0  0  0  0  0  0  0  0  0  0  0
   44.7500   33.8390   42.9570 C   0  0  0  0  0  0  0  0  0  0  0  0
   45.6930   32.7920   42.9590 C   0  0  0  0  0  0  0  0  0  0  0  0
   46.4800   32.6440   44.0560 N   0  0  0  0  0  0  0  0  0  0  0  0
   46.3980   33.4480   45.1270 C   0  0  0  0  0  0  0  0  0  0  0  0
   45.4980   34.4590   45.1400 N   0  0  0  0  0  0  0  0  0  0  0  0
   43.8170   35.7640   44.2780 N   0  0  0  0  0  0  0  0  0  0  0  0
   43.8670   34.1130   41.8920 N   0  0  0  0  0  0  0  0  0  0  0  0
   42.8690   33.3660   41.3670 C   0  0  0  0  0  0  0  0  0  0  0  0
   42.2960   34.0540   40.3460 N   0  0  0  0  0  0  0  0  0  0  0  0
   42.9540   35.2370   40.2480 C   0  0  0  0  0  0  0  0  0  0  0  0
   43.9230   35.2610   41.2090 N   0  0  0  0  0  0  0  0  0  0  0  0
   45.7889   32.1146   42.0976 H   0  0  0  0  0  0  0  0  0  0  0  0
   47.0594   33.2863   45.9909 H   0  0  0  0  0  0  0  0  0  0  0  0
   43.1472   36.0177   43.5378 H   0  0  0  0  0  0  0  0  0  0  0  0
   43.8518   36.3105   45.1504 H   0  0  0  0  0  0  0  0  0  0  0  0
   42.5703   32.3647   41.7109 H   0  0  0  0  0  0  0  0  0  0  0  0
   42.7434   36.0359   39.5218 H   0  0  0  0  0  0  0  0  0  0  0  0
  1  7  1  0
  1  6  2  0
  2  3  2  0
  2  1  1  0
  3  4  1  0
  4  5  2  0
  5  6  1  0
  8  2  1  0
  9  8  1  0
 10  9  2  0
 11 10  1  0
 11 12  2  0
 12  8  1  0
  3 13  1  0
  5 14  1  0
  7 15  1  0
  7 16  1  0
  9 17  1  0
 11 18  1  0
M  ISO  4  13  14  14  14  17  14  18  14
M  END
>  <minimizedAffinity>  (1) 
-3.51564455

>  <minimizedRMSD>  (1) 
1.20969248

$$$$
