
     RDKit          3D

 32 34  0  0  0  0  0  0  0  0999 V2000
   44.1500   33.4400   40.0220 C   0  0  0  0  0  0  0  0  0  0  0  0
   42.8420   33.4610   39.4920 C   0  0  0  0  0  0  0  0  0  0  0  0
   42.5620   32.8100   38.2630 C   0  0  0  0  0  0  0  0  0  0  0  0
   43.5920   32.1840   37.6450 N   0  0  0  0  0  0  0  0  0  0  0  0
   44.8420   32.1830   38.1870 C   0  0  0  0  0  0  0  0  0  0  0  0
   45.1120   32.8070   39.3630 N   0  0  0  0  0  0  0  0  0  0  0  0
   41.8380   34.1330   40.2390 N   0  0  0  0  0  0  0  0  0  0  0  0
   41.4540   35.4300   40.1760 C   0  0  0  0  0  0  0  0  0  0  0  0
   40.4680   35.6460   41.0710 N   0  0  0  0  0  0  0  0  0  0  0  0
   40.2390   34.4500   41.7020 C   0  0  0  0  0  0  0  0  0  0  0  0
   41.0970   33.5170   41.1770 N   0  0  0  0  0  0  0  0  0  0  0  0
   44.7100   34.0410   41.2480 C   0  0  0  0  0  0  0  0  0  0  0  0
   44.5510   33.1990   42.4840 C   0  0  0  0  0  0  0  0  0  0  0  0
   44.8700   34.0980   43.6540 C   0  0  0  0  0  0  0  0  0  0  0  0
   46.2660   34.6660   43.5720 C   0  0  0  0  0  0  0  0  0  0  0  0
   46.6630   35.1390   42.2100 C   0  0  0  0  0  0  0  0  0  0  0  0
   46.2430   34.2240   41.1130 C   0  0  0  0  0  0  0  0  0  0  0  0
   41.5508   32.8135   37.8301 H   0  0  0  0  0  0  0  0  0  0  0  0
   45.6543   31.6630   37.6581 H   0  0  0  0  0  0  0  0  0  0  0  0
   41.8790   36.1879   39.5015 H   0  0  0  0  0  0  0  0  0  0  0  0
   39.4957   34.2699   42.4926 H   0  0  0  0  0  0  0  0  0  0  0  0
   44.1511   34.9825   41.3545 H   0  0  0  0  0  0  0  0  0  0  0  0
   43.5189   32.8262   42.5606 H   0  0  0  0  0  0  0  0  0  0  0  0
   45.2169   32.3238   42.4595 H   0  0  0  0  0  0  0  0  0  0  0  0
   44.1496   34.9291   43.6690 H   0  0  0  0  0  0  0  0  0  0  0  0
   44.8040   33.4948   44.5715 H   0  0  0  0  0  0  0  0  0  0  0  0
   46.3316   35.5181   44.2645 H   0  0  0  0  0  0  0  0  0  0  0  0
   46.9531   33.8473   43.8319 H   0  0  0  0  0  0  0  0  0  0  0  0
   46.2034   36.1232   42.0365 H   0  0  0  0  0  0  0  0  0  0  0  0
   47.7621   35.1801   42.1915 H   0  0  0  0  0  0  0  0  0  0  0  0
   46.7509   33.2535   41.2135 H   0  0  0  0  0  0  0  0  0  0  0  0
   46.5068   34.6389   40.1290 H   0  0  0  0  0  0  0  0  0  0  0  0
  1 12  1  0
  2  1  1  0
  2  7  1  0
  3  2  2  0
  4  5  2  0
  4  3  1  0
  5  6  1  0
  6  1  2  0
  7 11  1  0
  8  7  1  0
  8  9  2  0
  9 10  1  0
 11 10  2  0
 12 13  1  0
 13 14  1  0
 15 14  1  0
 16 15  1  0
 17 12  1  0
 17 16  1  0
  3 18  1  0
  5 19  1  0
  8 20  1  0
 10 21  1  0
 12 22  1  0
 13 23  1  0
 13 24  1  0
 14 25  1  0
 14 26  1  0
 15 27  1  0
 15 28  1  0
 16 29  1  0
 16 30  1  0
 17 31  1  0
 17 32  1  0
M  ISO  8  18  14  19  14  20  14  21  14  22  13  23  13  24  13  25  13
M  ISO  7  26  13  27  13  28  13  29  13  30  13  31  13  32  13
M  END
>  <minimizedAffinity>  (1) 
-3.97118402

>  <minimizedRMSD>  (1) 
4.8655405

$$$$
