
     RDKit          3D

 22 24  0  0  0  0  0  0  0  0999 V2000
   46.6370   33.5020   42.4180 C   0  0  0  0  0  0  0  0  0  0  0  0
   46.4480   32.1200   42.6100 C   0  0  0  0  0  0  0  0  0  0  0  0
   45.1310   31.6130   42.6930 C   0  0  0  0  0  0  0  0  0  0  0  0
   44.1010   32.5000   42.5790 N   0  0  0  0  0  0  0  0  0  0  0  0
   44.3300   33.8310   42.3910 C   0  0  0  0  0  0  0  0  0  0  0  0
   45.5970   34.3140   42.3140 N   0  0  0  0  0  0  0  0  0  0  0  0
   47.8490   34.2300   42.3310 N   0  0  0  0  0  0  0  0  0  0  0  0
   47.9890   35.3340   41.5340 C   0  0  0  0  0  0  0  0  0  0  0  0
   49.2270   35.8500   41.6400 N   0  0  0  0  0  0  0  0  0  0  0  0
   49.8700   35.0570   42.5160 C   0  0  0  0  0  0  0  0  0  0  0  0
   49.0350   34.0640   42.9430 N   0  0  0  0  0  0  0  0  0  0  0  0
   47.5930   31.3000   42.7030 N   0  0  0  0  0  0  0  0  0  0  0  0
   48.3480   30.7460   41.7130 C   0  0  0  0  0  0  0  0  0  0  0  0
   49.3540   30.0250   42.2620 N   0  0  0  0  0  0  0  0  0  0  0  0
   49.2120   30.1390   43.6190 C   0  0  0  0  0  0  0  0  0  0  0  0
   48.1260   30.9270   43.8750 N   0  0  0  0  0  0  0  0  0  0  0  0
   44.9432   30.5398   42.8444 H   0  0  0  0  0  0  0  0  0  0  0  0
   43.4786   34.5216   42.3006 H   0  0  0  0  0  0  0  0  0  0  0  0
   47.1953   35.7445   40.8925 H   0  0  0  0  0  0  0  0  0  0  0  0
   50.9129   35.1887   42.8401 H   0  0  0  0  0  0  0  0  0  0  0  0
   48.1680   30.8660   40.6345 H   0  0  0  0  0  0  0  0  0  0  0  0
   49.8623   29.6747   44.3750 H   0  0  0  0  0  0  0  0  0  0  0  0
  1  2  1  0
  2  3  2  0
  2 12  1  0
  4  3  1  0
  5  4  2  0
  6  5  1  0
  6  1  2  0
  7  1  1  0
  7 11  1  0
  8  9  2  0
  8  7  1  0
  9 10  1  0
 10 11  2  0
 12 16  1  0
 13 14  2  0
 13 12  1  0
 14 15  1  0
 15 16  2  0
  3 17  1  0
  5 18  1  0
  8 19  1  0
 10 20  1  0
 13 21  1  0
 15 22  1  0
M  ISO  6  17  14  18  14  19  14  20  14  21  14  22  14
M  END
>  <minimizedAffinity>  (1) 
-3.33270955

>  <minimizedRMSD>  (1) 
5.46175528

$$$$
