
     RDKit          3D

 26 28  0  0  0  0  0  0  0  0999 V2000
   45.6100   33.0860   41.9350 C   0  0  0  0  0  0  0  0  0  0  0  0
   46.9970   33.3380   41.9020 C   0  0  0  0  0  0  0  0  0  0  0  0
   47.6890   33.4870   43.1250 C   0  0  0  0  0  0  0  0  0  0  0  0
   46.9780   33.3760   44.2860 N   0  0  0  0  0  0  0  0  0  0  0  0
   45.6370   33.1280   44.2760 C   0  0  0  0  0  0  0  0  0  0  0  0
   44.9630   32.9860   43.1040 N   0  0  0  0  0  0  0  0  0  0  0  0
   44.7000   32.9260   40.8750 N   0  0  0  0  0  0  0  0  0  0  0  0
   45.1530   33.1560   39.6040 C   0  0  0  0  0  0  0  0  0  0  0  0
   44.2170   33.0050   38.5950 C   0  0  0  0  0  0  0  0  0  0  0  0
   42.9400   32.6480   38.9190 C   0  0  0  0  0  0  0  0  0  0  0  0
   42.1310   32.5230   37.9770 O   0  0  0  0  0  0  0  0  0  0  0  0
   42.5300   32.4300   40.1720 N   0  0  0  0  0  0  0  0  0  0  0  0
   43.4160   32.5670   41.1900 C   0  0  0  0  0  0  0  0  0  0  0  0
   43.1220   32.3830   42.3980 O   0  0  0  0  0  0  0  0  0  0  0  0
   47.6200   33.4250   40.6400 N   0  0  0  0  0  0  0  0  0  0  0  0
   48.1570   32.4510   39.8550 C   0  0  0  0  0  0  0  0  0  0  0  0
   48.6490   33.0020   38.7300 N   0  0  0  0  0  0  0  0  0  0  0  0
   48.4170   34.3500   38.8140 C   0  0  0  0  0  0  0  0  0  0  0  0
   47.7800   34.5950   40.0020 N   0  0  0  0  0  0  0  0  0  0  0  0
   48.7706   33.6869   43.1416 H   0  0  0  0  0  0  0  0  0  0  0  0
   45.0937   33.0418   45.2286 H   0  0  0  0  0  0  0  0  0  0  0  0
   46.1947   33.4426   39.3973 H   0  0  0  0  0  0  0  0  0  0  0  0
   44.4991   33.1708   37.5448 H   0  0  0  0  0  0  0  0  0  0  0  0
   41.5540   32.1615   40.3623 H   0  0  0  0  0  0  0  0  0  0  0  0
   48.1845   31.3794   40.1020 H   0  0  0  0  0  0  0  0  0  0  0  0
   48.6934   35.1024   38.0607 H   0  0  0  0  0  0  0  0  0  0  0  0
  1  6  2  0
  2  1  1  0
  2  3  2  0
  3  4  1  0
  5  4  2  0
  6  5  1  0
  7 13  1  0
  7  1  1  0
  8  7  1  0
  9 10  1  0
  9  8  2  0
 10 12  1  0
 11 10  2  0
 12 13  1  0
 13 14  2  0
 15  2  1  0
 16 15  1  0
 17 18  1  0
 17 16  2  0
 18 19  2  0
 19 15  1  0
  3 20  1  0
  5 21  1  0
  8 22  1  0
  9 23  1  0
 12 24  1  0
 16 25  1  0
 18 26  1  0
M  ISO  7  20  14  21  14  22  14  23  14  24   9  25  14  26  14
M  END
>  <minimizedAffinity>  (1) 
-3.51174116

>  <minimizedRMSD>  (1) 
5.39507437

$$$$
