
     RDKit          3D

 36 38  0  0  0  0  0  0  0  0999 V2000
   48.5930   35.1190   41.2150 C   0  0  0  0  0  0  0  0  0  0  0  0
   47.2530   34.5920   40.9050 C   0  0  0  0  0  0  0  0  0  0  0  0
   46.8560   33.8380   39.7960 C   0  0  0  0  0  0  0  0  0  0  0  0
   45.5040   33.4230   39.6800 C   0  0  0  0  0  0  0  0  0  0  0  0
   44.6570   33.7870   40.6690 N   0  0  0  0  0  0  0  0  0  0  0  0
   45.0610   34.5120   41.7250 C   0  0  0  0  0  0  0  0  0  0  0  0
   46.3370   34.8900   41.8090 N   0  0  0  0  0  0  0  0  0  0  0  0
   47.8100   33.5030   38.8110 N   0  0  0  0  0  0  0  0  0  0  0  0
   48.0960   34.1580   37.6760 C   0  0  0  0  0  0  0  0  0  0  0  0
   49.0740   33.5170   36.9980 N   0  0  0  0  0  0  0  0  0  0  0  0
   49.4040   32.4210   37.7460 C   0  0  0  0  0  0  0  0  0  0  0  0
   48.6120   32.4330   38.8590 N   0  0  0  0  0  0  0  0  0  0  0  0
   49.0810   34.5790   42.5800 C   0  0  0  0  0  0  0  0  0  0  0  0
   48.7710   32.8130   42.6550 S   0  0  0  0  0  0  0  0  0  0  0  0
   46.3140   31.1770   46.1480 C   0  0  0  0  0  0  0  0  0  0  0  0
   47.1300   30.3990   45.3530 C   0  0  0  0  0  0  0  0  0  0  0  0
   47.8600   30.9390   44.3000 C   0  0  0  0  0  0  0  0  0  0  0  0
   47.7840   32.2930   44.0210 C   0  0  0  0  0  0  0  0  0  0  0  0
   46.9870   33.0800   44.7910 C   0  0  0  0  0  0  0  0  0  0  0  0
   46.2640   32.5100   45.8430 C   0  0  0  0  0  0  0  0  0  0  0  0
   45.4030   30.4750   47.4690 S   0  0  0  0  0  0  0  0  0  0  0  0
   44.4960   29.3930   46.9930 O   0  0  0  0  0  0  0  0  0  0  0  0
   44.7030   31.5130   48.2880 O   0  0  0  0  0  0  0  0  0  0  0  0
   48.5507   36.2175   41.2537 H   0  0  0  0  0  0  0  0  0  0  0  0
   49.2942   34.7957   40.4315 H   0  0  0  0  0  0  0  0  0  0  0  0
   45.1591   32.8294   38.8205 H   0  0  0  0  0  0  0  0  0  0  0  0
   44.3461   34.7913   42.5130 H   0  0  0  0  0  0  0  0  0  0  0  0
   47.6047   35.0846   37.3443 H   0  0  0  0  0  0  0  0  0  0  0  0
   50.1667   31.6683   37.4974 H   0  0  0  0  0  0  0  0  0  0  0  0
   50.1591   34.7690   42.6876 H   0  0  0  0  0  0  0  0  0  0  0  0
   48.5419   35.0856   43.3941 H   0  0  0  0  0  0  0  0  0  0  0  0
   47.2053   29.3209   45.5580 H   0  0  0  0  0  0  0  0  0  0  0  0
   48.5002   30.2881   43.6864 H   0  0  0  0  0  0  0  0  0  0  0  0
   46.9114   34.1584   44.5877 H   0  0  0  0  0  0  0  0  0  0  0  0
   45.6248   33.1639   46.4544 H   0  0  0  0  0  0  0  0  0  0  0  0
   46.3000   29.8811   48.3173 H   0  0  0  0  0  0  0  0  0  0  0  0
  1 13  1  0
  2  1  1  0
  2  7  2  0
  3  2  1  0
  4  3  2  0
  4  5  1  0
  5  6  2  0
  6  7  1  0
  8 12  1  0
  8  3  1  0
  9  8  1  0
 10  9  2  0
 10 11  1  0
 11 12  2  0
 13 14  1  0
 14 18  1  0
 15 21  1  0
 16 15  2  0
 17 16  1  0
 18 17  2  0
 18 19  1  0
 19 20  2  0
 20 15  1  0
 21 23  2  0
 22 21  2  0
  1 24  1  0
  1 25  1  0
  4 26  1  0
  6 27  1  0
  9 28  1  0
 11 29  1  0
 13 30  1  0
 13 31  1  0
 16 32  1  0
 17 33  1  0
 19 34  1  0
 20 35  1  0
 21 36  1  0
M  ISO  8  24   8  25   8  26  14  27  14  28  14  29  14  30   8  31   8
M  ISO  5  32  14  33  14  34  14  35  14  36  11
M  END
>  <minimizedAffinity>  (1) 
-4.65857172

>  <minimizedRMSD>  (1) 
4.16430712

$$$$
