
     RDKit          3D

 32 34  0  0  0  0  0  0  0  0999 V2000
   47.6730   34.9140   41.1520 C   0  0  0  0  0  0  0  0  0  0  0  0
   47.1720   34.0850   40.1570 C   0  0  0  0  0  0  0  0  0  0  0  0
   45.8200   33.6250   40.2450 C   0  0  0  0  0  0  0  0  0  0  0  0
   45.0980   34.0350   41.3160 N   0  0  0  0  0  0  0  0  0  0  0  0
   45.6120   34.8380   42.2620 C   0  0  0  0  0  0  0  0  0  0  0  0
   46.8770   35.2490   42.1480 N   0  0  0  0  0  0  0  0  0  0  0  0
   47.9930   33.7070   39.0770 N   0  0  0  0  0  0  0  0  0  0  0  0
   48.2070   34.3600   37.9240 C   0  0  0  0  0  0  0  0  0  0  0  0
   49.0590   33.6740   37.1410 N   0  0  0  0  0  0  0  0  0  0  0  0
   49.3920   32.5300   37.8480 C   0  0  0  0  0  0  0  0  0  0  0  0
   48.7170   32.5850   39.0340 N   0  0  0  0  0  0  0  0  0  0  0  0
   49.0250   35.4950   41.2510 C   0  0  0  0  0  0  0  0  0  0  0  0
   49.7300   35.0540   42.5310 C   0  0  0  0  0  0  0  0  0  0  0  0
   50.4540   33.4010   42.2490 S   0  0  0  0  0  0  0  0  0  0  0  0
   49.3260   32.0990   42.6540 C   0  0  0  0  0  0  0  0  0  0  0  0
   49.5800   30.8020   42.2750 C   0  0  0  0  0  0  0  0  0  0  0  0
   48.7910   29.7010   42.5240 C   0  0  0  0  0  0  0  0  0  0  0  0
   47.6300   30.0030   43.2380 C   0  0  0  0  0  0  0  0  0  0  0  0
   47.3170   31.3020   43.6510 C   0  0  0  0  0  0  0  0  0  0  0  0
   48.1810   32.2760   43.3380 N   0  0  0  0  0  0  0  0  0  0  0  0
   45.3859   32.9676   39.4773 H   0  0  0  0  0  0  0  0  0  0  0  0
   44.9988   35.1528   43.1193 H   0  0  0  0  0  0  0  0  0  0  0  0
   47.7488   35.3235   37.6562 H   0  0  0  0  0  0  0  0  0  0  0  0
   50.0706   31.7300   37.5172 H   0  0  0  0  0  0  0  0  0  0  0  0
   49.6190   35.1682   40.3848 H   0  0  0  0  0  0  0  0  0  0  0  0
   48.9298   36.5907   41.2689 H   0  0  0  0  0  0  0  0  0  0  0  0
   50.5259   35.7704   42.7826 H   0  0  0  0  0  0  0  0  0  0  0  0
   49.0126   35.0157   43.3640 H   0  0  0  0  0  0  0  0  0  0  0  0
   50.5100   30.6254   41.7147 H   0  0  0  0  0  0  0  0  0  0  0  0
   49.0500   28.6844   42.1931 H   0  0  0  0  0  0  0  0  0  0  0  0
   46.9344   29.1876   43.4854 H   0  0  0  0  0  0  0  0  0  0  0  0
   46.3953   31.5157   44.2121 H   0  0  0  0  0  0  0  0  0  0  0  0
  1 12  1  0
  1  6  2  0
  2  3  2  0
  2  1  1  0
  3  4  1  0
  4  5  2  0
  6  5  1  0
  7  2  1  0
  8  7  1  0
  9 10  1  0
  9  8  2  0
 10 11  2  0
 11  7  1  0
 12 13  1  0
 14 13  1  0
 14 15  1  0
 15 20  2  0
 16 17  2  0
 16 15  1  0
 17 18  1  0
 18 19  2  0
 20 19  1  0
  3 21  1  0
  5 22  1  0
  8 23  1  0
 10 24  1  0
 12 25  1  0
 12 26  1  0
 13 27  1  0
 13 28  1  0
 16 29  1  0
 17 30  1  0
 18 31  1  0
 19 32  1  0
M  ISO  8  21  14  22  14  23  14  24  14  25   8  26   8  27   8  28   8
M  ISO  4  29  14  30  14  31  14  32  14
M  END
>  <minimizedAffinity>  (1) 
-4.11716938

>  <minimizedRMSD>  (1) 
2.55544257

$$$$
