
     RDKit          3D

 37 40  0  0  0  0  0  0  0  0999 V2000
   48.7620   35.2320   41.1580 C   0  0  0  0  0  0  0  0  0  0  0  0
   47.4280   34.6340   40.9450 C   0  0  0  0  0  0  0  0  0  0  0  0
   46.9920   33.8660   39.8500 C   0  0  0  0  0  0  0  0  0  0  0  0
   45.6610   33.3790   39.8300 C   0  0  0  0  0  0  0  0  0  0  0  0
   44.8630   33.6780   40.8760 N   0  0  0  0  0  0  0  0  0  0  0  0
   45.3080   34.4190   41.9180 C   0  0  0  0  0  0  0  0  0  0  0  0
   46.5520   34.8620   41.9150 N   0  0  0  0  0  0  0  0  0  0  0  0
   47.8810   33.5970   38.7990 N   0  0  0  0  0  0  0  0  0  0  0  0
   48.1690   34.3650   37.7240 C   0  0  0  0  0  0  0  0  0  0  0  0
   49.0770   33.7440   36.9470 N   0  0  0  0  0  0  0  0  0  0  0  0
   49.3680   32.5530   37.5500 C   0  0  0  0  0  0  0  0  0  0  0  0
   48.6190   32.4850   38.6890 N   0  0  0  0  0  0  0  0  0  0  0  0
   49.2370   34.9580   42.5970 C   0  0  0  0  0  0  0  0  0  0  0  0
   50.7020   33.8740   42.4960 S   0  0  0  0  0  0  0  0  0  0  0  0
   50.2350   32.2470   41.9420 C   0  0  0  0  0  0  0  0  0  0  0  0
   49.0770   31.5990   42.3810 C   0  0  0  0  0  0  0  0  0  0  0  0
   49.0360   30.4050   41.7690 N   0  0  0  0  0  0  0  0  0  0  0  0
   50.1120   30.3030   40.9840 C   0  0  0  0  0  0  0  0  0  0  0  0
   50.5170   29.2750   40.1590 C   0  0  0  0  0  0  0  0  0  0  0  0
   51.6850   29.3630   39.4130 C   0  0  0  0  0  0  0  0  0  0  0  0
   52.4490   30.5250   39.5190 C   0  0  0  0  0  0  0  0  0  0  0  0
   52.0780   31.5830   40.3360 C   0  0  0  0  0  0  0  0  0  0  0  0
   50.9050   31.4340   41.0520 C   0  0  0  0  0  0  0  0  0  0  0  0
   48.7050   36.3181   40.9936 H   0  0  0  0  0  0  0  0  0  0  0  0
   49.4758   34.7851   40.4503 H   0  0  0  0  0  0  0  0  0  0  0  0
   45.2903   32.7761   38.9879 H   0  0  0  0  0  0  0  0  0  0  0  0
   44.6390   34.6501   42.7600 H   0  0  0  0  0  0  0  0  0  0  0  0
   47.7273   35.3505   37.5151 H   0  0  0  0  0  0  0  0  0  0  0  0
   50.0736   31.7917   37.1858 H   0  0  0  0  0  0  0  0  0  0  0  0
   49.5035   35.9041   43.0908 H   0  0  0  0  0  0  0  0  0  0  0  0
   48.4396   34.4771   43.1826 H   0  0  0  0  0  0  0  0  0  0  0  0
   48.3381   31.9934   43.0941 H   0  0  0  0  0  0  0  0  0  0  0  0
   48.3023   29.6914   41.8846 H   0  0  0  0  0  0  0  0  0  0  0  0
   49.9017   28.3658   40.0903 H   0  0  0  0  0  0  0  0  0  0  0  0
   51.9992   28.5384   38.7562 H   0  0  0  0  0  0  0  0  0  0  0  0
   53.3776   30.6053   38.9348 H   0  0  0  0  0  0  0  0  0  0  0  0
   52.6874   32.4957   40.4104 H   0  0  0  0  0  0  0  0  0  0  0  0
  1 13  1  0
  2  1  1  0
  2  7  2  0
  3  2  1  0
  4  3  2  0
  4  5  1  0
  5  6  2  0
  7  6  1  0
  8  3  1  0
  9  8  1  0
 10 11  1  0
 10  9  2  0
 11 12  2  0
 12  8  1  0
 14 13  1  0
 15 16  2  0
 15 14  1  0
 17 16  1  0
 18 23  2  0
 18 17  1  0
 19 18  1  0
 20 21  1  0
 20 19  2  0
 21 22  2  0
 22 23  1  0
 23 15  1  0
  1 24  1  0
  1 25  1  0
  4 26  1  0
  6 27  1  0
  9 28  1  0
 11 29  1  0
 13 30  1  0
 13 31  1  0
 16 32  1  0
 17 33  1  0
 19 34  1  0
 20 35  1  0
 21 36  1  0
 22 37  1  0
M  ISO  8  24   8  25   8  26  14  27  14  28  14  29  14  30   8  31   8
M  ISO  6  32  14  33   9  34  14  35  14  36  14  37  14
M  END
>  <minimizedAffinity>  (1) 
-4.18561172

>  <minimizedRMSD>  (1) 
3.23787475

$$$$
