
     RDKit          3D

 36 38  0  0  0  0  0  0  0  0999 V2000
   47.6670   34.8410   41.2260 C   0  0  0  0  0  0  0  0  0  0  0  0
   47.1240   34.0860   40.1720 C   0  0  0  0  0  0  0  0  0  0  0  0
   45.7500   33.7250   40.2050 C   0  0  0  0  0  0  0  0  0  0  0  0
   45.0290   34.1360   41.2720 N   0  0  0  0  0  0  0  0  0  0  0  0
   45.5700   34.8580   42.2680 C   0  0  0  0  0  0  0  0  0  0  0  0
   46.8680   35.1860   42.2130 N   0  0  0  0  0  0  0  0  0  0  0  0
   47.9580   33.7020   39.0960 N   0  0  0  0  0  0  0  0  0  0  0  0
   48.2220   34.3620   37.9620 C   0  0  0  0  0  0  0  0  0  0  0  0
   49.0680   33.6630   37.1850 N   0  0  0  0  0  0  0  0  0  0  0  0
   49.3410   32.5150   37.8690 C   0  0  0  0  0  0  0  0  0  0  0  0
   48.6380   32.5690   39.0490 N   0  0  0  0  0  0  0  0  0  0  0  0
   49.0450   35.3060   41.3790 C   0  0  0  0  0  0  0  0  0  0  0  0
   49.7090   34.7150   42.6190 C   0  0  0  0  0  0  0  0  0  0  0  0
   50.6180   33.2070   42.1220 S   0  0  0  0  0  0  0  0  0  0  0  0
   49.8700   31.7310   42.7820 C   0  0  0  0  0  0  0  0  0  0  0  0
   48.3710   31.8790   43.0010 C   0  0  0  0  0  0  0  0  0  0  0  0
   48.0500   30.4400   43.4250 C   0  0  0  0  0  0  0  0  0  0  0  0
   48.9550   29.5850   42.5310 C   0  0  0  0  0  0  0  0  0  0  0  0
   49.8580   30.5680   41.7940 C   0  0  0  0  0  0  0  0  0  0  0  0
   45.2925   33.1360   39.3965 H   0  0  0  0  0  0  0  0  0  0  0  0
   44.9527   35.1769   43.1208 H   0  0  0  0  0  0  0  0  0  0  0  0
   47.8029   35.3449   37.7006 H   0  0  0  0  0  0  0  0  0  0  0  0
   50.0002   31.6989   37.5383 H   0  0  0  0  0  0  0  0  0  0  0  0
   49.6216   35.0087   40.4907 H   0  0  0  0  0  0  0  0  0  0  0  0
   49.0258   36.4002   41.4906 H   0  0  0  0  0  0  0  0  0  0  0  0
   50.4090   35.4459   43.0499 H   0  0  0  0  0  0  0  0  0  0  0  0
   48.9483   34.4669   43.3738 H   0  0  0  0  0  0  0  0  0  0  0  0
   50.4657   31.5608   43.6909 H   0  0  0  0  0  0  0  0  0  0  0  0
   48.1393   32.6047   43.7945 H   0  0  0  0  0  0  0  0  0  0  0  0
   47.8012   32.2578   42.1397 H   0  0  0  0  0  0  0  0  0  0  0  0
   48.2870   30.2824   44.4875 H   0  0  0  0  0  0  0  0  0  0  0  0
   46.9843   30.1913   43.3134 H   0  0  0  0  0  0  0  0  0  0  0  0
   49.5567   28.8961   43.1420 H   0  0  0  0  0  0  0  0  0  0  0  0
   48.3694   28.9701   41.8317 H   0  0  0  0  0  0  0  0  0  0  0  0
   50.8662   30.1559   41.6399 H   0  0  0  0  0  0  0  0  0  0  0  0
   49.5184   30.8309   40.7813 H   0  0  0  0  0  0  0  0  0  0  0  0
  1 12  1  0
  1  6  2  0
  2  3  2  0
  2  1  1  0
  3  4  1  0
  4  5  2  0
  6  5  1  0
  7  2  1  0
  8  7  1  0
  9 10  1  0
  9  8  2  0
 10 11  2  0
 11  7  1  0
 12 13  1  0
 14 13  1  0
 14 15  1  0
 15 16  1  0
 16 17  1  0
 18 17  1  0
 19 18  1  0
 19 15  1  0
  3 20  1  0
  5 21  1  0
  8 22  1  0
 10 23  1  0
 12 24  1  0
 12 25  1  0
 13 26  1  0
 13 27  1  0
 15 28  1  0
 16 29  1  0
 16 30  1  0
 17 31  1  0
 17 32  1  0
 18 33  1  0
 18 34  1  0
 19 35  1  0
 19 36  1  0
M  ISO  8  20  14  21  14  22  14  23  14  24   8  25   8  26   8  27   8
M  ISO  8  28  13  29  13  30  13  31  13  32  13  33  13  34  13  35  13
M  ISO  1  36  13
M  END
>  <minimizedAffinity>  (1) 
-3.89094996

>  <minimizedRMSD>  (1) 
1.86045516

$$$$
