
     RDKit          3D

 28 30  0  0  0  0  0  0  0  0999 V2000
   47.6910   34.9150   41.1300 C   0  0  0  0  0  0  0  0  0  0  0  0
   47.1690   34.0800   40.1290 C   0  0  0  0  0  0  0  0  0  0  0  0
   45.8290   33.6200   40.2260 C   0  0  0  0  0  0  0  0  0  0  0  0
   45.1130   34.0210   41.3030 N   0  0  0  0  0  0  0  0  0  0  0  0
   45.6320   34.8210   42.2510 C   0  0  0  0  0  0  0  0  0  0  0  0
   46.8780   35.2340   42.1380 N   0  0  0  0  0  0  0  0  0  0  0  0
   47.9880   33.7180   39.0510 N   0  0  0  0  0  0  0  0  0  0  0  0
   48.2090   34.3860   37.8960 C   0  0  0  0  0  0  0  0  0  0  0  0
   49.0680   33.7000   37.1100 N   0  0  0  0  0  0  0  0  0  0  0  0
   49.3930   32.5600   37.8020 C   0  0  0  0  0  0  0  0  0  0  0  0
   48.7180   32.5900   38.9950 N   0  0  0  0  0  0  0  0  0  0  0  0
   49.0420   35.4990   41.2240 C   0  0  0  0  0  0  0  0  0  0  0  0
   49.7110   35.0530   42.5440 C   0  0  0  0  0  0  0  0  0  0  0  0
   50.4800   33.4330   42.2800 S   0  0  0  0  0  0  0  0  0  0  0  0
   49.3400   32.1070   42.5080 C   0  0  0  0  0  0  0  0  0  0  0  0
   49.3040   30.8600   42.0230 N   0  0  0  0  0  0  0  0  0  0  0  0
   48.2350   30.2650   42.5020 O   0  0  0  0  0  0  0  0  0  0  0  0
   47.5770   31.0950   43.2840 C   0  0  0  0  0  0  0  0  0  0  0  0
   48.2520   32.2570   43.3020 N   0  0  0  0  0  0  0  0  0  0  0  0
   45.3910   32.9652   39.4582 H   0  0  0  0  0  0  0  0  0  0  0  0
   45.0217   35.1279   43.1132 H   0  0  0  0  0  0  0  0  0  0  0  0
   47.7535   35.3521   37.6332 H   0  0  0  0  0  0  0  0  0  0  0  0
   50.0727   31.7653   37.4608 H   0  0  0  0  0  0  0  0  0  0  0  0
   49.6485   35.1565   40.3726 H   0  0  0  0  0  0  0  0  0  0  0  0
   48.9669   36.5963   41.2060 H   0  0  0  0  0  0  0  0  0  0  0  0
   50.4783   35.7847   42.8369 H   0  0  0  0  0  0  0  0  0  0  0  0
   48.9592   34.9875   43.3443 H   0  0  0  0  0  0  0  0  0  0  0  0
   46.6441   30.8770   43.8245 H   0  0  0  0  0  0  0  0  0  0  0  0
  1 12  1  0
  1  6  2  0
  2  3  2  0
  2  1  1  0
  3  4  1  0
  4  5  2  0
  6  5  1  0
  7  2  1  0
  8  7  1  0
  9 10  1  0
  9  8  2  0
 10 11  2  0
 11  7  1  0
 12 13  1  0
 14 15  1  0
 14 13  1  0
 15 19  1  0
 16 17  1  0
 16 15  2  0
 17 18  1  0
 18 19  2  0
  3 20  1  0
  5 21  1  0
  8 22  1  0
 10 23  1  0
 12 24  1  0
 12 25  1  0
 13 26  1  0
 13 27  1  0
 18 28  1  0
M  ISO  8  20  14  21  14  22  14  23  14  24   8  25   8  26   8  27   8
M  ISO  1  28  14
M  END
>  <minimizedAffinity>  (1) 
-4.03767252

>  <minimizedRMSD>  (1) 
2.16906238

$$$$
