
     RDKit          3D

 38 40  0  0  0  0  0  0  0  0999 V2000
   47.4070   34.7490   41.3880 C   0  0  0  0  0  0  0  0  0  0  0  0
   46.6200   34.1210   40.4190 C   0  0  0  0  0  0  0  0  0  0  0  0
   45.2120   34.0740   40.5860 C   0  0  0  0  0  0  0  0  0  0  0  0
   44.6850   34.6450   41.6860 N   0  0  0  0  0  0  0  0  0  0  0  0
   45.4710   35.2500   42.6150 C   0  0  0  0  0  0  0  0  0  0  0  0
   46.7910   35.2850   42.4420 N   0  0  0  0  0  0  0  0  0  0  0  0
   47.2410   33.5500   39.3000 N   0  0  0  0  0  0  0  0  0  0  0  0
   48.0140   34.1500   38.3670 C   0  0  0  0  0  0  0  0  0  0  0  0
   48.4280   33.2530   37.4420 N   0  0  0  0  0  0  0  0  0  0  0  0
   47.8810   32.0410   37.8290 C   0  0  0  0  0  0  0  0  0  0  0  0
   47.1690   32.2610   38.9590 N   0  0  0  0  0  0  0  0  0  0  0  0
   48.8770   34.9140   41.4150 C   0  0  0  0  0  0  0  0  0  0  0  0
   49.4610   34.2040   42.6540 C   0  0  0  0  0  0  0  0  0  0  0  0
   49.0760   32.4410   42.5270 S   0  0  0  0  0  0  0  0  0  0  0  0
   51.7320   30.2540   39.5780 N   0  0  0  0  0  0  0  0  0  0  0  0
   52.1600   31.5460   40.0570 C   0  0  0  0  0  0  0  0  0  0  0  0
   51.4990   31.8340   41.3710 C   0  0  0  0  0  0  0  0  0  0  0  0
   49.9890   31.7650   41.1270 C   0  0  0  0  0  0  0  0  0  0  0  0
   49.6440   30.3610   40.7810 C   0  0  0  0  0  0  0  0  0  0  0  0
   50.8850   29.5310   40.4980 C   0  0  0  0  0  0  0  0  0  0  0  0
   44.5694   33.5854   39.8388 H   0  0  0  0  0  0  0  0  0  0  0  0
   45.0186   35.7090   43.5064 H   0  0  0  0  0  0  0  0  0  0  0  0
   48.2709   35.2196   38.3606 H   0  0  0  0  0  0  0  0  0  0  0  0
   48.0027   31.0771   37.3131 H   0  0  0  0  0  0  0  0  0  0  0  0
   49.3104   34.4746   40.5044 H   0  0  0  0  0  0  0  0  0  0  0  0
   49.1209   35.9856   41.4624 H   0  0  0  0  0  0  0  0  0  0  0  0
   50.5513   34.3460   42.6854 H   0  0  0  0  0  0  0  0  0  0  0  0
   49.0259   34.6233   43.5732 H   0  0  0  0  0  0  0  0  0  0  0  0
   51.2114   30.3915   38.6999 H   0  0  0  0  0  0  0  0  0  0  0  0
   53.2522   31.5455   40.1880 H   0  0  0  0  0  0  0  0  0  0  0  0
   51.8794   32.3198   39.3272 H   0  0  0  0  0  0  0  0  0  0  0  0
   51.7972   31.0837   42.1181 H   0  0  0  0  0  0  0  0  0  0  0  0
   51.7936   32.8220   41.7545 H   0  0  0  0  0  0  0  0  0  0  0  0
   49.6900   32.3979   40.2784 H   0  0  0  0  0  0  0  0  0  0  0  0
   49.0979   29.9102   41.6228 H   0  0  0  0  0  0  0  0  0  0  0  0
   49.0253   30.3739   39.8716 H   0  0  0  0  0  0  0  0  0  0  0  0
   50.5920   28.5691   40.0520 H   0  0  0  0  0  0  0  0  0  0  0  0
   51.4288   29.3424   41.4354 H   0  0  0  0  0  0  0  0  0  0  0  0
  1 12  1  0
  1  6  2  0
  2  3  2  0
  2  1  1  0
  3  4  1  0
  4  5  2  0
  6  5  1  0
  7  2  1  0
  8  7  1  0
  9 10  1  0
  9  8  2  0
 10 11  2  0
 11  7  1  0
 12 13  1  0
 14 13  1  0
 15 16  1  0
 15 20  1  0
 16 17  1  0
 18 17  1  0
 18 14  1  0
 19 18  1  0
 20 19  1  0
  3 21  1  0
  5 22  1  0
  8 23  1  0
 10 24  1  0
 12 25  1  0
 12 26  1  0
 13 27  1  0
 13 28  1  0
 15 29  1  0
 16 30  1  0
 16 31  1  0
 17 32  1  0
 17 33  1  0
 18 34  1  0
 19 35  1  0
 19 36  1  0
 20 37  1  0
 20 38  1  0
M  ISO  8  21  14  22  14  23  14  24  14  25   8  26   8  27   8  28   8
M  ISO  8  29   5  30  13  31  13  32  13  33  13  34  13  35  13  36  13
M  ISO  2  37  13  38  13
M  END
>  <minimizedAffinity>  (1) 
-3.71528625

>  <minimizedRMSD>  (1) 
1.96591747

$$$$
