
     RDKit          3D

 36 39  0  0  0  0  0  0  0  0999 V2000
   47.2130   30.7040   48.5210 N   0  0  0  0  0  0  0  0  0  0  0  0
   46.3850   31.3710   49.3060 N   0  0  0  0  0  0  0  0  0  0  0  0
   45.1210   31.0090   49.1150 C   0  0  0  0  0  0  0  0  0  0  0  0
   45.1140   30.0410   48.1430 C   0  0  0  0  0  0  0  0  0  0  0  0
   46.4220   29.8610   47.7830 C   0  0  0  0  0  0  0  0  0  0  0  0
   46.7190   28.8850   46.7600 N   0  0  0  0  0  0  0  0  0  0  0  0
   46.4270   29.0790   45.4450 C   0  0  0  0  0  0  0  0  0  0  0  0
   46.7940   28.0420   44.6940 N   0  0  0  0  0  0  0  0  0  0  0  0
   47.3460   27.1350   45.5440 C   0  0  0  0  0  0  0  0  0  0  0  0
   47.9150   25.8710   45.4190 C   0  0  0  0  0  0  0  0  0  0  0  0
   48.3870   25.2170   46.5190 N   0  0  0  0  0  0  0  0  0  0  0  0
   48.3110   25.7830   47.7410 C   0  0  0  0  0  0  0  0  0  0  0  0
   47.7570   27.0160   47.8640 N   0  0  0  0  0  0  0  0  0  0  0  0
   47.2850   27.6800   46.8040 C   0  0  0  0  0  0  0  0  0  0  0  0
   47.9510   25.3560   44.0910 N   0  0  0  0  0  0  0  0  0  0  0  0
   48.6340   30.7150   48.3450 C   0  0  0  0  0  0  0  0  0  0  0  0
   49.3500   31.6790   49.2610 C   0  0  0  0  0  0  0  0  0  0  0  0
   50.0370   31.0110   50.3490 C   0  0  0  0  0  0  0  0  0  0  0  0
   50.8930   31.8060   51.1000 C   0  0  0  0  0  0  0  0  0  0  0  0
   51.6250   31.3120   52.1800 C   0  0  0  0  0  0  0  0  0  0  0  0
   51.4470   29.9910   52.4550 N   0  0  0  0  0  0  0  0  0  0  0  0
   50.6150   29.2290   51.7200 C   0  0  0  0  0  0  0  0  0  0  0  0
   49.9380   29.7470   50.7000 N   0  0  0  0  0  0  0  0  0  0  0  0
   44.2419   31.4114   49.6397 H   0  0  0  0  0  0  0  0  0  0  0  0
   44.2366   29.5168   47.7362 H   0  0  0  0  0  0  0  0  0  0  0  0
   45.9449   29.9850   45.0492 H   0  0  0  0  0  0  0  0  0  0  0  0
   48.6928   25.2526   48.6258 H   0  0  0  0  0  0  0  0  0  0  0  0
   48.3558   24.4264   43.9099 H   0  0  0  0  0  0  0  0  0  0  0  0
   47.5722   25.9134   43.3120 H   0  0  0  0  0  0  0  0  0  0  0  0
   49.0162   29.7020   48.5392 H   0  0  0  0  0  0  0  0  0  0  0  0
   48.8285   31.0454   47.3140 H   0  0  0  0  0  0  0  0  0  0  0  0
   50.0884   32.2421   48.6715 H   0  0  0  0  0  0  0  0  0  0  0  0
   48.5921   32.3420   49.7037 H   0  0  0  0  0  0  0  0  0  0  0  0
   50.9980   32.8678   50.8325 H   0  0  0  0  0  0  0  0  0  0  0  0
   52.3012   31.9480   52.7702 H   0  0  0  0  0  0  0  0  0  0  0  0
   50.4939   28.1639   51.9668 H   0  0  0  0  0  0  0  0  0  0  0  0
  1  2  1  0
  3  2  2  0
  4  3  1  0
  5  4  2  0
  5  1  1  0
  6 14  1  0
  6  5  1  0
  7  6  1  0
  8  7  2  0
  8  9  1  0
  9 14  2  0
 10  9  1  0
 10 11  2  0
 11 12  1  0
 12 13  2  0
 14 13  1  0
 15 10  1  0
 16  1  1  0
 16 17  1  0
 17 18  1  0
 18 23  1  0
 18 19  2  0
 19 20  1  0
 20 21  2  0
 22 21  1  0
 23 22  2  0
  3 24  1  0
  4 25  1  0
  7 26  1  0
 12 27  1  0
 15 28  1  0
 15 29  1  0
 16 30  1  0
 16 31  1  0
 17 32  1  0
 17 33  1  0
 19 34  1  0
 20 35  1  0
 22 36  1  0
M  ISO  8  24  14  25  14  26  14  27  14  30   8  31   8  32   8  33   8
M  ISO  3  34  14  35  14  36  14
M  END
>  <minimizedAffinity>  (1) 
-4.18432331

>  <minimizedRMSD>  (1) 
8.48867989

$$$$
