
     RDKit          3D

 35 38  0  0  1  0  0  0  0  0999 V2000
   47.0680   32.4970   46.6760 C   0  0  2  0  0  0  0  0  0  0  0  0
   47.1590   31.1580   46.0830 C   0  0  0  0  0  0  0  0  0  0  0  0
   46.9720   31.2260   47.5480 C   0  0  1  0  0  0  0  0  0  0  0  0
   48.1320   30.7990   48.3330 C   0  0  0  0  0  0  0  0  0  0  0  0
   48.8830   31.6720   49.1070 C   0  0  0  0  0  0  0  0  0  0  0  0
   49.9780   31.2670   49.8480 C   0  0  0  0  0  0  0  0  0  0  0  0
   50.3660   29.9600   49.8460 C   0  0  0  0  0  0  0  0  0  0  0  0
   49.6640   29.0630   49.1040 C   0  0  0  0  0  0  0  0  0  0  0  0
   50.0380   27.7200   49.0820 C   0  0  0  0  0  0  0  0  0  0  0  0
   49.3330   26.7800   48.3290 C   0  0  0  0  0  0  0  0  0  0  0  0
   48.2410   27.1810   47.5890 C   0  0  0  0  0  0  0  0  0  0  0  0
   47.8810   28.5340   47.6240 C   0  0  0  0  0  0  0  0  0  0  0  0
   48.5730   29.4890   48.3700 C   0  0  0  0  0  0  0  0  0  0  0  0
   45.7870   33.2660   46.5680 C   0  0  0  0  0  0  0  0  0  0  0  0
   44.9370   33.0960   47.4870 O   0  0  0  0  0  0  0  0  0  0  0  0
   44.4730   35.9950   44.5100 C   0  0  0  0  0  0  0  0  0  0  0  0
   45.1590   35.8360   43.2910 C   0  0  0  0  0  0  0  0  0  0  0  0
   46.0720   34.7650   43.2190 C   0  0  0  0  0  0  0  0  0  0  0  0
   46.2280   33.9790   44.3040 N   0  0  0  0  0  0  0  0  0  0  0  0
   45.5570   34.1620   45.4480 C   0  0  0  0  0  0  0  0  0  0  0  0
   44.6930   35.1590   45.5400 N   0  0  0  0  0  0  0  0  0  0  0  0
   47.6976   33.3967   46.6109 H   0  0  0  0  0  0  0  0  0  0  0  0
   46.3384   30.7901   45.4495 H   0  0  0  0  0  0  0  0  0  0  0  0
   47.8982   30.6643   45.4350 H   0  0  0  0  0  0  0  0  0  0  0  0
   46.2506   30.8690   48.2978 H   0  0  0  0  0  0  0  0  0  0  0  0
   48.5946   32.7332   49.1323 H   0  0  0  0  0  0  0  0  0  0  0  0
   50.5390   32.0033   50.4423 H   0  0  0  0  0  0  0  0  0  0  0  0
   51.2353   29.6357   50.4368 H   0  0  0  0  0  0  0  0  0  0  0  0
   50.9079   27.3942   49.6711 H   0  0  0  0  0  0  0  0  0  0  0  0
   49.6466   25.7257   48.3259 H   0  0  0  0  0  0  0  0  0  0  0  0
   47.6688   26.4588   46.9882 H   0  0  0  0  0  0  0  0  0  0  0  0
   47.0108   28.8596   47.0351 H   0  0  0  0  0  0  0  0  0  0  0  0
   43.7473   36.8141   44.6214 H   0  0  0  0  0  0  0  0  0  0  0  0
   44.9912   36.5121   42.4397 H   0  0  0  0  0  0  0  0  0  0  0  0
   46.6443   34.5744   42.2991 H   0  0  0  0  0  0  0  0  0  0  0  0
  1  3  1  0
  2  1  1  0
  2  3  1  0
  3  4  1  0
  4 13  1  0
  4  5  2  0
  5  6  1  0
  7  6  2  0
  8  7  1  0
  9  8  2  0
 10  9  1  0
 11 12  1  0
 11 10  2  0
 12 13  2  0
 13  8  1  0
 14  1  1  0
 14 15  2  0
 16 21  2  0
 17 16  1  0
 18 17  2  0
 18 19  1  0
 19 20  2  0
 20 21  1  0
 20 14  1  0
  1 22  1  1
  2 23  1  0
  2 24  1  0
  3 25  1  6
  5 26  1  0
  6 27  1  0
  7 28  1  0
  9 29  1  0
 10 30  1  0
 11 31  1  0
 12 32  1  0
 16 33  1  0
 17 34  1  0
 18 35  1  0
M  ISO  8  22  13  23  13  24  13  25  13  26  14  27  14  28  14  29  14
M  ISO  6  30  14  31  14  32  14  33  14  34  14  35  14
M  END
>  <minimizedAffinity>  (1) 
-5.5017643

>  <minimizedRMSD>  (1) 
1.88749075

$$$$
