
     RDKit          3D

 32 35  0  0  1  0  0  0  0  0999 V2000
   46.9910   32.4420   46.6480 C   0  0  2  0  0  0  0  0  0  0  0  0
   47.0120   31.0800   46.0910 C   0  0  0  0  0  0  0  0  0  0  0  0
   46.8690   31.2150   47.5750 C   0  0  1  0  0  0  0  0  0  0  0  0
   48.0220   30.7650   48.3030 N   0  0  0  0  0  0  0  0  0  0  0  0
   48.8280   31.5120   49.1110 C   0  0  0  0  0  0  0  0  0  0  0  0
   49.8290   30.7860   49.6470 N   0  0  0  0  0  0  0  0  0  0  0  0
   49.6720   29.5450   49.1840 C   0  0  0  0  0  0  0  0  0  0  0  0
   50.4480   28.4170   49.4430 C   0  0  0  0  0  0  0  0  0  0  0  0
   50.0620   27.2820   48.8380 N   0  0  0  0  0  0  0  0  0  0  0  0
   48.9800   27.2780   48.0360 C   0  0  0  0  0  0  0  0  0  0  0  0
   48.2310   28.3820   47.7900 N   0  0  0  0  0  0  0  0  0  0  0  0
   48.5610   29.5310   48.3560 C   0  0  0  0  0  0  0  0  0  0  0  0
   51.5760   28.4930   50.3000 N   0  0  0  0  0  0  0  0  0  0  0  0
   45.7590   33.2880   46.5450 C   0  0  0  0  0  0  0  0  0  0  0  0
   44.9330   33.1660   47.4930 O   0  0  0  0  0  0  0  0  0  0  0  0
   44.4950   36.0090   44.4630 C   0  0  0  0  0  0  0  0  0  0  0  0
   45.2170   35.8270   43.2440 C   0  0  0  0  0  0  0  0  0  0  0  0
   46.1260   34.7540   43.1930 C   0  0  0  0  0  0  0  0  0  0  0  0
   46.2450   33.9820   44.2930 N   0  0  0  0  0  0  0  0  0  0  0  0
   45.5500   34.1830   45.4200 C   0  0  0  0  0  0  0  0  0  0  0  0
   44.6860   35.1790   45.5120 N   0  0  0  0  0  0  0  0  0  0  0  0
   47.6570   33.3099   46.5326 H   0  0  0  0  0  0  0  0  0  0  0  0
   46.1593   30.7248   45.4938 H   0  0  0  0  0  0  0  0  0  0  0  0
   47.7097   30.5339   45.4391 H   0  0  0  0  0  0  0  0  0  0  0  0
   46.1579   30.9300   48.3644 H   0  0  0  0  0  0  0  0  0  0  0  0
   48.6781   32.5847   49.3032 H   0  0  0  0  0  0  0  0  0  0  0  0
   48.6890   26.3319   47.5563 H   0  0  0  0  0  0  0  0  0  0  0  0
   52.1412   27.6517   50.4831 H   0  0  0  0  0  0  0  0  0  0  0  0
   51.8297   29.3895   50.7391 H   0  0  0  0  0  0  0  0  0  0  0  0
   43.7742   36.8355   44.5489 H   0  0  0  0  0  0  0  0  0  0  0  0
   45.0690   36.4959   42.3834 H   0  0  0  0  0  0  0  0  0  0  0  0
   46.7184   34.5519   42.2885 H   0  0  0  0  0  0  0  0  0  0  0  0
  1  3  1  0
  2  1  1  0
  2  3  1  0
  3  4  1  0
  4 12  1  0
  4  5  1  0
  5  6  2  0
  7  8  2  0
  7  6  1  0
  8 13  1  0
  9  8  1  0
 10  9  2  0
 11 10  1  0
 11 12  2  0
 12  7  1  0
 14  1  1  0
 14 15  2  0
 16 21  2  0
 17 16  1  0
 18 17  2  0
 18 19  1  0
 19 20  2  0
 20 21  1  0
 20 14  1  0
  1 22  1  1
  2 23  1  0
  2 24  1  0
  3 25  1  1
  5 26  1  0
 10 27  1  0
 13 28  1  0
 13 29  1  0
 16 30  1  0
 17 31  1  0
 18 32  1  0
M  ISO  8  22  13  23  13  24  13  25  13  26  14  27  14  30  14  31  14
M  ISO  1  32  14
M  END
>  <minimizedAffinity>  (1) 
-5.1920557

>  <minimizedRMSD>  (1) 
1.84304678

$$$$
