
     RDKit          3D

 33 36  0  0  1  0  0  0  0  0999 V2000
   46.4970   31.4580   47.2510 C   0  0  2  0  0  0  0  0  0  0  0  0
   46.0760   30.5460   48.3210 C   0  0  0  0  0  0  0  0  0  0  0  0
   47.2160   31.4310   48.6280 C   0  0  1  0  0  0  0  0  0  0  0  0
   48.5480   30.8180   48.7110 C   0  0  0  0  0  0  0  0  0  0  0  0
   48.6290   29.5060   48.2430 C   0  0  0  0  0  0  0  0  0  0  0  0
   49.9140   29.0790   48.4110 N   0  0  0  0  0  0  0  0  0  0  0  0
   50.6640   30.0430   48.9600 C   0  0  0  0  0  0  0  0  0  0  0  0
   51.9660   30.2550   49.3640 C   0  0  0  0  0  0  0  0  0  0  0  0
   52.3730   31.4730   49.9140 C   0  0  0  0  0  0  0  0  0  0  0  0
   51.4790   32.5280   50.0790 C   0  0  0  0  0  0  0  0  0  0  0  0
   50.1760   32.3300   49.6800 C   0  0  0  0  0  0  0  0  0  0  0  0
   49.8170   31.1140   49.1420 C   0  0  0  0  0  0  0  0  0  0  0  0
   45.7520   32.7200   46.9620 C   0  0  0  0  0  0  0  0  0  0  0  0
   44.9760   33.1140   47.8730 O   0  0  0  0  0  0  0  0  0  0  0  0
   45.3200   35.0460   44.1850 C   0  0  0  0  0  0  0  0  0  0  0  0
   46.3640   34.6960   43.3070 C   0  0  0  0  0  0  0  0  0  0  0  0
   47.1910   33.6550   43.7090 C   0  0  0  0  0  0  0  0  0  0  0  0
   46.9280   33.0680   44.9000 N   0  0  0  0  0  0  0  0  0  0  0  0
   45.9270   33.4230   45.7130 C   0  0  0  0  0  0  0  0  0  0  0  0
   45.1060   34.4220   45.3640 N   0  0  0  0  0  0  0  0  0  0  0  0
   46.7382   31.3041   46.1889 H   0  0  0  0  0  0  0  0  0  0  0  0
   45.1124   30.7134   48.8244 H   0  0  0  0  0  0  0  0  0  0  0  0
   45.9305   29.4568   48.3713 H   0  0  0  0  0  0  0  0  0  0  0  0
   47.4604   32.1751   49.4004 H   0  0  0  0  0  0  0  0  0  0  0  0
   47.8029   28.9196   47.8144 H   0  0  0  0  0  0  0  0  0  0  0  0
   50.2595   28.1441   48.1513 H   0  0  0  0  0  0  0  0  0  0  0  0
   52.7017   29.4451   49.2503 H   0  0  0  0  0  0  0  0  0  0  0  0
   53.4209   31.6013   50.2230 H   0  0  0  0  0  0  0  0  0  0  0  0
   51.8023   33.4857   50.5128 H   0  0  0  0  0  0  0  0  0  0  0  0
   49.4316   33.1325   49.7895 H   0  0  0  0  0  0  0  0  0  0  0  0
   44.6466   35.8667   43.8971 H   0  0  0  0  0  0  0  0  0  0  0  0
   46.5166   35.2201   42.3520 H   0  0  0  0  0  0  0  0  0  0  0  0
   48.0300   33.3195   43.0817 H   0  0  0  0  0  0  0  0  0  0  0  0
  1  2  1  0
  1  3  1  0
  2  3  1  0
  3  4  1  0
  4 12  1  0
  5  6  1  0
  5  4  2  0
  6  7  1  0
  7 12  2  0
  7  8  1  0
  8  9  2  0
  9 10  1  0
 11 10  2  0
 12 11  1  0
 13  1  1  0
 13 14  2  0
 15 20  2  0
 16 17  2  0
 16 15  1  0
 17 18  1  0
 18 19  2  0
 19 13  1  0
 20 19  1  0
  1 21  1  6
  2 22  1  0
  2 23  1  0
  3 24  1  1
  5 25  1  0
  6 26  1  0
  8 27  1  0
  9 28  1  0
 10 29  1  0
 11 30  1  0
 15 31  1  0
 16 32  1  0
 17 33  1  0
M  ISO  8  21  13  22  13  23  13  24  13  25  14  26   9  27  14  28  14
M  ISO  5  29  14  30  14  31  14  32  14  33  14
M  END
>  <minimizedAffinity>  (1) 
-5.13864803

>  <minimizedRMSD>  (1) 
1.66678154

$$$$
