
     RDKit          3D

 26 28  0  0  1  0  0  0  0  0999 V2000
   46.6130   31.6670   47.1150 C   0  0  2  0  0  0  0  0  0  0  0  0
   46.1020   30.5140   47.8490 C   0  0  0  0  0  0  0  0  0  0  0  0
   46.9370   31.4720   48.6270 C   0  0  1  0  0  0  0  0  0  0  0  0
   48.3210   31.2070   48.8880 N   0  0  0  0  0  0  0  0  0  0  0  0
   49.2720   31.9990   49.3100 N   0  0  0  0  0  0  0  0  0  0  0  0
   50.4550   31.3710   49.4320 C   0  0  0  0  0  0  0  0  0  0  0  0
   50.2110   30.0530   49.0440 C   0  0  0  0  0  0  0  0  0  0  0  0
   48.8690   29.9830   48.7100 C   0  0  0  0  0  0  0  0  0  0  0  0
   45.7570   32.8640   46.8330 C   0  0  0  0  0  0  0  0  0  0  0  0
   44.9500   33.1930   47.7350 O   0  0  0  0  0  0  0  0  0  0  0  0
   45.1740   35.2140   44.1050 C   0  0  0  0  0  0  0  0  0  0  0  0
   46.2090   34.9130   43.1980 C   0  0  0  0  0  0  0  0  0  0  0  0
   47.0850   33.8950   43.5510 C   0  0  0  0  0  0  0  0  0  0  0  0
   46.8820   33.2720   44.7300 N   0  0  0  0  0  0  0  0  0  0  0  0
   45.8890   33.5810   45.5710 C   0  0  0  0  0  0  0  0  0  0  0  0
   45.0210   34.5610   45.2620 N   0  0  0  0  0  0  0  0  0  0  0  0
   47.1454   31.7538   46.1563 H   0  0  0  0  0  0  0  0  0  0  0  0
   45.0247   30.4432   48.0597 H   0  0  0  0  0  0  0  0  0  0  0  0
   46.1566   29.4281   47.6819 H   0  0  0  0  0  0  0  0  0  0  0  0
   46.7922   31.9874   49.5879 H   0  0  0  0  0  0  0  0  0  0  0  0
   51.4097   31.8034   49.7659 H   0  0  0  0  0  0  0  0  0  0  0  0
   50.9413   29.2311   49.0101 H   0  0  0  0  0  0  0  0  0  0  0  0
   48.3388   29.0851   48.3596 H   0  0  0  0  0  0  0  0  0  0  0  0
   44.4651   36.0162   43.8521 H   0  0  0  0  0  0  0  0  0  0  0  0
   46.3186   35.4610   42.2505 H   0  0  0  0  0  0  0  0  0  0  0  0
   47.9165   33.6064   42.8913 H   0  0  0  0  0  0  0  0  0  0  0  0
  1  2  1  0
  1  3  1  0
  2  3  1  0
  3  4  1  0
  4  5  1  0
  5  6  2  0
  7  6  1  0
  8  4  1  0
  8  7  2  0
  9  1  1  0
  9 10  2  0
 11 16  2  0
 12 13  2  0
 12 11  1  0
 13 14  1  0
 14 15  2  0
 15  9  1  0
 16 15  1  0
  1 17  1  6
  2 18  1  0
  2 19  1  0
  3 20  1  1
  6 21  1  0
  7 22  1  0
  8 23  1  0
 11 24  1  0
 12 25  1  0
 13 26  1  0
M  ISO  8  17  13  18  13  19  13  20  13  21  14  22  14  23  14  24  14
M  ISO  2  25  14  26  14
M  END
>  <minimizedAffinity>  (1) 
-4.40347052

>  <minimizedRMSD>  (1) 
1.42267966

$$$$
