
     RDKit          3D

 29 31  0  0  1  0  0  0  0  0999 V2000
   46.9400   31.6280   43.2800 C   0  0  2  0  0  0  0  0  0  0  0  0
   48.3390   31.2270   43.4120 C   0  0  0  0  0  0  0  0  0  0  0  0
   47.9540   31.9400   42.1530 C   0  0  2  0  0  0  0  0  0  0  0  0
   48.4600   33.3030   41.9930 C   0  0  0  0  0  0  0  0  0  0  0  0
   49.3610   33.9950   42.7770 C   0  0  0  0  0  0  0  0  0  0  0  0
   49.7450   35.2860   42.4900 C   0  0  0  0  0  0  0  0  0  0  0  0
   49.2480   35.9560   41.3990 C   0  0  0  0  0  0  0  0  0  0  0  0
   48.3450   35.2720   40.6100 C   0  0  0  0  0  0  0  0  0  0  0  0
   47.9450   33.9770   40.8790 C   0  0  0  0  0  0  0  0  0  0  0  0
   46.4270   32.8380   43.9990 C   0  0  0  0  0  0  0  0  0  0  0  0
   46.8140   32.9980   45.1900 O   0  0  0  0  0  0  0  0  0  0  0  0
   44.8270   35.9340   42.8790 C   0  0  0  0  0  0  0  0  0  0  0  0
   43.8030   35.4670   42.0340 C   0  0  0  0  0  0  0  0  0  0  0  0
   43.6890   34.0930   41.8770 C   0  0  0  0  0  0  0  0  0  0  0  0
   44.5600   33.2990   42.5360 N   0  0  0  0  0  0  0  0  0  0  0  0
   45.5260   33.7680   43.3340 C   0  0  0  0  0  0  0  0  0  0  0  0
   45.6620   35.0850   43.5080 N   0  0  0  0  0  0  0  0  0  0  0  0
   45.9934   31.0803   43.3977 H   0  0  0  0  0  0  0  0  0  0  0  0
   48.9806   31.7349   44.1471 H   0  0  0  0  0  0  0  0  0  0  0  0
   48.8379   30.2689   43.6198 H   0  0  0  0  0  0  0  0  0  0  0  0
   47.9926   31.7515   41.0700 H   0  0  0  0  0  0  0  0  0  0  0  0
   49.7869   33.4983   43.6613 H   0  0  0  0  0  0  0  0  0  0  0  0
   50.4658   35.7918   43.1492 H   0  0  0  0  0  0  0  0  0  0  0  0
   49.5542   36.9864   41.1655 H   0  0  0  0  0  0  0  0  0  0  0  0
   47.9257   35.7799   39.7290 H   0  0  0  0  0  0  0  0  0  0  0  0
   47.2223   33.4758   40.2183 H   0  0  0  0  0  0  0  0  0  0  0  0
   44.9481   37.0170   43.0291 H   0  0  0  0  0  0  0  0  0  0  0  0
   43.1222   36.1615   41.5200 H   0  0  0  0  0  0  0  0  0  0  0  0
   42.9091   33.6617   41.2322 H   0  0  0  0  0  0  0  0  0  0  0  0
  1  2  1  0
  1 10  1  0
  3  1  1  0
  3  2  1  0
  4  3  1  0
  4  5  2  0
  6  5  1  0
  7  6  2  0
  8  9  2  0
  8  7  1  0
  9  4  1  0
 10 11  2  0
 12 17  2  0
 13 12  1  0
 14 13  2  0
 14 15  1  0
 15 16  2  0
 16 17  1  0
 16 10  1  0
  1 18  1  6
  2 19  1  0
  2 20  1  0
  3 21  1  6
  5 22  1  0
  6 23  1  0
  7 24  1  0
  8 25  1  0
  9 26  1  0
 12 27  1  0
 13 28  1  0
 14 29  1  0
M  ISO  8  18  13  19  13  20  13  21  13  22  14  23  14  24  14  25  14
M  ISO  4  26  14  27  14  28  14  29  14
M  END
>  <minimizedAffinity>  (1) 
-4.73489571

>  <minimizedRMSD>  (1) 
5.94400358

$$$$
