
     RDKit          3D

 25 26  0  0  1  0  0  0  0  0999 V2000
   45.6410   33.4600   46.3670 C   0  0  0  0  0  0  0  0  0  0  0  0
   44.8210   33.4940   47.3270 O   0  0  0  0  0  0  0  0  0  0  0  0
   44.5710   36.1370   44.1160 C   0  0  0  0  0  0  0  0  0  0  0  0
   45.3420   35.9160   42.9610 C   0  0  0  0  0  0  0  0  0  0  0  0
   46.2090   34.8360   43.0050 C   0  0  0  0  0  0  0  0  0  0  0  0
   46.2610   34.0790   44.1230 N   0  0  0  0  0  0  0  0  0  0  0  0
   45.5110   34.3220   45.2030 C   0  0  0  0  0  0  0  0  0  0  0  0
   44.6740   35.3440   45.1940 N   0  0  0  0  0  0  0  0  0  0  0  0
   46.7660   32.4840   46.4830 C   0  0  2  0  0  0  0  0  0  0  0  0
   46.4970   31.0650   46.6950 C   0  0  0  0  0  0  0  0  0  0  0  0
   46.9280   31.8470   47.8860 C   0  0  2  0  0  0  0  0  0  0  0  0
   46.0190   32.2070   48.9890 C   0  0  0  0  0  0  0  0  0  0  0  0
   45.3220   30.9340   49.4920 C   0  0  0  0  0  0  0  0  0  0  0  0
   43.8658   36.9809   44.1366 H   0  0  0  0  0  0  0  0  0  0  0  0
   45.2616   36.5625   42.0747 H   0  0  0  0  0  0  0  0  0  0  0  0
   46.8467   34.5980   42.1409 H   0  0  0  0  0  0  0  0  0  0  0  0
   47.3874   33.0286   45.7569 H   0  0  0  0  0  0  0  0  0  0  0  0
   45.4622   30.6965   46.6361 H   0  0  0  0  0  0  0  0  0  0  0  0
   46.8666   30.1448   46.2190 H   0  0  0  0  0  0  0  0  0  0  0  0
   47.7232   31.7447   48.6391 H   0  0  0  0  0  0  0  0  0  0  0  0
   46.5945   32.6618   49.8087 H   0  0  0  0  0  0  0  0  0  0  0  0
   45.2684   32.9286   48.6341 H   0  0  0  0  0  0  0  0  0  0  0  0
   45.3187   30.9280   50.5920 H   0  0  0  0  0  0  0  0  0  0  0  0
   44.2863   30.9125   49.1221 H   0  0  0  0  0  0  0  0  0  0  0  0
   45.8619   30.0498   49.1221 H   0  0  0  0  0  0  0  0  0  0  0  0
  1  9  1  0
  1  2  2  0
  3  8  2  0
  4  5  2  0
  4  3  1  0
  5  6  1  0
  6  7  2  0
  7  1  1  0
  8  7  1  0
  9 10  1  0
  9 11  1  0
 10 11  1  0
 11 12  1  0
 12 13  1  0
  3 14  1  0
  4 15  1  0
  5 16  1  0
  9 17  1  6
 10 18  1  0
 10 19  1  0
 11 20  1  1
 12 21  1  0
 12 22  1  0
 13 23  1  0
 13 24  1  0
 13 25  1  0
M  ISO  8  14  14  15  14  16  14  17  13  18  13  19  13  20  13  21   8
M  ISO  4  22   8  23   8  24   8  25   8
M  END
>  <minimizedAffinity>  (1) 
-4.45050001

>  <minimizedRMSD>  (1) 
0.938682258

$$$$
