
     RDKit          3D

 21 22  0  0  1  0  0  0  0  0999 V2000
   45.7720   33.0970   46.8250 C   0  0  0  0  0  0  0  0  0  0  0  0
   44.9070   32.9550   47.7330 O   0  0  0  0  0  0  0  0  0  0  0  0
   44.5700   35.7770   44.6610 C   0  0  0  0  0  0  0  0  0  0  0  0
   45.2790   35.5810   43.4610 C   0  0  0  0  0  0  0  0  0  0  0  0
   46.1600   34.5090   43.4470 C   0  0  0  0  0  0  0  0  0  0  0  0
   46.2780   33.7430   44.5550 N   0  0  0  0  0  0  0  0  0  0  0  0
   45.5820   33.9670   45.6760 C   0  0  0  0  0  0  0  0  0  0  0  0
   44.7170   34.9920   45.7370 N   0  0  0  0  0  0  0  0  0  0  0  0
   47.0420   32.3140   46.9770 C   0  0  2  0  0  0  0  0  0  0  0  0
   47.0010   30.8550   47.0790 C   0  0  0  0  0  0  0  0  0  0  0  0
   47.1820   31.6030   48.3500 C   0  0  1  0  0  0  0  0  0  0  0  0
   48.5350   31.5060   48.9440 C   0  0  0  0  0  0  0  0  0  0  0  0
   48.8250   30.6770   49.7870 O   0  0  0  0  0  0  0  0  0  0  0  0
   43.8605   36.6156   44.7184 H   0  0  0  0  0  0  0  0  0  0  0  0
   45.1432   36.2369   42.5884 H   0  0  0  0  0  0  0  0  0  0  0  0
   46.7534   34.2857   42.5481 H   0  0  0  0  0  0  0  0  0  0  0  0
   47.6222   33.0039   46.3465 H   0  0  0  0  0  0  0  0  0  0  0  0
   46.0540   30.3271   46.8933 H   0  0  0  0  0  0  0  0  0  0  0  0
   47.5643   30.0464   46.5903 H   0  0  0  0  0  0  0  0  0  0  0  0
   46.6727   31.6835   49.3217 H   0  0  0  0  0  0  0  0  0  0  0  0
   49.3097   32.2119   48.6099 H   0  0  0  0  0  0  0  0  0  0  0  0
  1  9  1  0
  1  2  2  0
  3  8  2  0
  4  3  1  0
  5  4  2  0
  5  6  1  0
  6  7  2  0
  7  8  1  0
  7  1  1  0
  9 10  1  0
  9 11  1  0
 10 11  1  0
 11 12  1  0
 12 13  2  0
  3 14  1  0
  4 15  1  0
  5 16  1  0
  9 17  1  6
 10 18  1  0
 10 19  1  0
 11 20  1  1
 12 21  1  0
M  ISO  8  14  14  15  14  16  14  17  13  18  13  19  13  20  13  21   6
M  END
>  <minimizedAffinity>  (1) 
-4.30843639

>  <minimizedRMSD>  (1) 
0.942432404

$$$$
