
     RDKit          3D

 38 40  0  0  1  0  0  0  0  0999 V2000
   47.0200   31.8360   46.4300 C   0  0  2  0  0  0  0  0  0  0  0  0
   46.6400   30.4160   46.2560 C   0  0  0  0  0  0  0  0  0  0  0  0
   47.1670   30.8350   47.5810 C   0  0  1  0  0  0  0  0  0  0  0  0
   45.9470   32.8750   46.6320 C   0  0  0  0  0  0  0  0  0  0  0  0
   45.3280   32.8190   47.7390 O   0  0  0  0  0  0  0  0  0  0  0  0
   44.5580   35.7080   44.8430 C   0  0  0  0  0  0  0  0  0  0  0  0
   45.1910   35.6700   43.5960 C   0  0  0  0  0  0  0  0  0  0  0  0
   46.0970   34.6470   43.4040 C   0  0  0  0  0  0  0  0  0  0  0  0
   46.2930   33.7820   44.4230 N   0  0  0  0  0  0  0  0  0  0  0  0
   45.6590   33.8520   45.6190 C   0  0  0  0  0  0  0  0  0  0  0  0
   44.7760   34.8400   45.8210 N   0  0  0  0  0  0  0  0  0  0  0  0
   48.5310   30.6200   48.0630 C   0  0  2  0  0  0  0  0  0  0  0  0
   49.1070   29.2830   47.6470 C   0  0  0  0  0  0  0  0  0  0  0  0
   48.6330   30.7640   49.5480 C   0  0  0  0  0  0  0  0  0  0  0  0
   49.8460   31.3400   50.0310 N   0  0  0  0  0  0  0  0  0  0  0  0
   50.4500   32.5080   49.7520 C   0  0  0  0  0  0  0  0  0  0  0  0
   51.6360   32.8770   50.3470 C   0  0  0  0  0  0  0  0  0  0  0  0
   52.2540   32.0550   51.2610 C   0  0  0  0  0  0  0  0  0  0  0  0
   53.3350   32.4250   51.7830 O   0  0  0  0  0  0  0  0  0  0  0  0
   51.6340   30.8870   51.5290 N   0  0  0  0  0  0  0  0  0  0  0  0
   50.4700   30.5310   50.9410 C   0  0  0  0  0  0  0  0  0  0  0  0
   50.0410   29.4010   51.3190 O   0  0  0  0  0  0  0  0  0  0  0  0
   47.6668   32.5202   45.8611 H   0  0  0  0  0  0  0  0  0  0  0  0
   45.5786   30.1457   46.1537 H   0  0  0  0  0  0  0  0  0  0  0  0
   46.9181   29.6328   45.5354 H   0  0  0  0  0  0  0  0  0  0  0  0
   46.7926   30.6608   48.6006 H   0  0  0  0  0  0  0  0  0  0  0  0
   43.8301   36.5126   45.0243 H   0  0  0  0  0  0  0  0  0  0  0  0
   44.9786   36.4131   42.8133 H   0  0  0  0  0  0  0  0  0  0  0  0
   46.6409   34.5396   42.4539 H   0  0  0  0  0  0  0  0  0  0  0  0
   49.1282   31.4095   47.5833 H   0  0  0  0  0  0  0  0  0  0  0  0
   49.3592   28.6975   48.5434 H   0  0  0  0  0  0  0  0  0  0  0  0
   48.3653   28.7347   47.0477 H   0  0  0  0  0  0  0  0  0  0  0  0
   50.0150   29.4454   47.0477 H   0  0  0  0  0  0  0  0  0  0  0  0
   47.7999   31.3987   49.8842 H   0  0  0  0  0  0  0  0  0  0  0  0
   48.6047   29.7411   49.9516 H   0  0  0  0  0  0  0  0  0  0  0  0
   49.9827   33.1899   49.0263 H   0  0  0  0  0  0  0  0  0  0  0  0
   52.0955   33.8423   50.0879 H   0  0  0  0  0  0  0  0  0  0  0  0
   52.0639   30.2421   52.2074 H   0  0  0  0  0  0  0  0  0  0  0  0
  1  4  1  0
  1  3  1  0
  2  1  1  0
  2  3  1  0
  3 12  1  0
  4  5  2  0
  6 11  2  0
  7  6  1  0
  8  7  2  0
  8  9  1  0
  9 10  2  0
 10 11  1  0
 10  4  1  0
 12 14  1  0
 13 12  1  0
 14 15  1  0
 15 21  1  0
 16 15  1  0
 16 17  2  0
 17 18  1  0
 18 20  1  0
 18 19  2  0
 21 22  2  0
 21 20  1  0
  1 23  1  6
  2 24  1  0
  2 25  1  0
  3 26  1  1
  6 27  1  0
  7 28  1  0
  8 29  1  0
 12 30  1  6
 13 31  1  0
 13 32  1  0
 13 33  1  0
 14 34  1  0
 14 35  1  0
 16 36  1  0
 17 37  1  0
 20 38  1  0
M  ISO  8  23  13  24  13  25  13  26  13  27  14  28  14  29  14  30   8
M  ISO  8  31   8  32   8  33   8  34   8  35   8  36  14  37  14  38   9
M  END
>  <minimizedAffinity>  (1) 
-5.45487976

>  <minimizedRMSD>  (1) 
2.65562725

$$$$
