
     RDKit          3D

 42 45  0  0  1  0  0  0  0  0999 V2000
   48.4060   30.7260   48.0520 C   0  0  2  0  0  0  0  0  0  0  0  0
   46.9770   31.9620   46.3660 C   0  0  2  0  0  0  0  0  0  0  0  0
   46.6380   30.5350   46.1450 C   0  0  0  0  0  0  0  0  0  0  0  0
   47.0800   30.9460   47.5100 C   0  0  1  0  0  0  0  0  0  0  0  0
   45.8820   32.9790   46.5500 C   0  0  0  0  0  0  0  0  0  0  0  0
   45.2380   32.9010   47.6160 O   0  0  0  0  0  0  0  0  0  0  0  0
   44.5330   35.8390   44.7480 C   0  0  0  0  0  0  0  0  0  0  0  0
   45.1930   35.7910   43.4960 C   0  0  0  0  0  0  0  0  0  0  0  0
   46.1050   34.7530   43.3110 C   0  0  0  0  0  0  0  0  0  0  0  0
   46.2730   33.8950   44.3320 N   0  0  0  0  0  0  0  0  0  0  0  0
   45.6270   33.9680   45.5200 C   0  0  0  0  0  0  0  0  0  0  0  0
   44.7460   34.9560   45.7210 N   0  0  0  0  0  0  0  0  0  0  0  0
   49.0180   29.3790   47.6550 C   0  0  0  0  0  0  0  0  0  0  0  0
   48.5310   30.9370   49.5080 C   0  0  0  0  0  0  0  0  0  0  0  0
   49.8620   31.2600   50.0450 C   0  0  0  0  0  0  0  0  0  0  0  0
   50.3050   32.5100   49.6880 N   0  0  0  0  0  0  0  0  0  0  0  0
   51.4510   33.0270   50.1570 C   0  0  0  0  0  0  0  0  0  0  0  0
   52.2690   32.3890   51.0100 N   0  0  0  0  0  0  0  0  0  0  0  0
   51.8950   31.1590   51.3970 C   0  0  0  0  0  0  0  0  0  0  0  0
   52.6700   30.3980   52.2410 C   0  0  0  0  0  0  0  0  0  0  0  0
   52.2660   29.1050   52.5960 C   0  0  0  0  0  0  0  0  0  0  0  0
   51.0870   28.6070   52.0910 C   0  0  0  0  0  0  0  0  0  0  0  0
   50.3100   29.3560   51.2520 C   0  0  0  0  0  0  0  0  0  0  0  0
   50.7240   30.6350   50.9150 C   0  0  0  0  0  0  0  0  0  0  0  0
   48.9928   31.5225   47.5711 H   0  0  0  0  0  0  0  0  0  0  0  0
   47.6348   32.6647   45.8336 H   0  0  0  0  0  0  0  0  0  0  0  0
   45.5906   30.2442   45.9766 H   0  0  0  0  0  0  0  0  0  0  0  0
   46.9740   29.7702   45.4293 H   0  0  0  0  0  0  0  0  0  0  0  0
   46.6526   30.7636   48.5070 H   0  0  0  0  0  0  0  0  0  0  0  0
   43.8077   36.6468   44.9254 H   0  0  0  0  0  0  0  0  0  0  0  0
   44.9961   36.5347   42.7097 H   0  0  0  0  0  0  0  0  0  0  0  0
   46.6632   34.6409   42.3698 H   0  0  0  0  0  0  0  0  0  0  0  0
   49.2757   28.8119   48.5616 H   0  0  0  0  0  0  0  0  0  0  0  0
   48.2912   28.8074   47.0591 H   0  0  0  0  0  0  0  0  0  0  0  0
   49.9266   29.5504   47.0591 H   0  0  0  0  0  0  0  0  0  0  0  0
   47.8591   31.7651   49.7779 H   0  0  0  0  0  0  0  0  0  0  0  0
   48.2846   29.9605   49.9504 H   0  0  0  0  0  0  0  0  0  0  0  0
   51.7380   34.0348   49.8224 H   0  0  0  0  0  0  0  0  0  0  0  0
   53.6107   30.8066   52.6386 H   0  0  0  0  0  0  0  0  0  0  0  0
   52.8841   28.4946   53.2708 H   0  0  0  0  0  0  0  0  0  0  0  0
   50.7651   27.5918   52.3663 H   0  0  0  0  0  0  0  0  0  0  0  0
   49.3701   28.9496   50.8503 H   0  0  0  0  0  0  0  0  0  0  0  0
  1 14  1  0
  2  5  1  0
  2  4  1  0
  3  2  1  0
  3  4  1  0
  4  1  1  0
  5  6  2  0
  7 12  2  0
  8  7  1  0
  9  8  2  0
  9 10  1  0
 10 11  2  0
 11 12  1  0
 11  5  1  0
 13  1  1  0
 14 15  1  0
 15 24  1  0
 16 15  2  0
 16 17  1  0
 17 18  2  0
 18 19  1  0
 19 20  2  0
 20 21  1  0
 22 21  2  0
 23 22  1  0
 24 23  2  0
 24 19  1  0
  1 25  1  6
  2 26  1  6
  3 27  1  0
  3 28  1  0
  4 29  1  1
  7 30  1  0
  8 31  1  0
  9 32  1  0
 13 33  1  0
 13 34  1  0
 13 35  1  0
 14 36  1  0
 14 37  1  0
 17 38  1  0
 20 39  1  0
 21 40  1  0
 22 41  1  0
 23 42  1  0
M  ISO  8  25   8  26  13  27  13  28  13  29  13  30  14  31  14  32  14
M  ISO  8  33   8  34   8  35   8  36   8  37   8  38  14  39  14  40  14
M  ISO  2  41  14  42  14
M  END
>  <minimizedAffinity>  (1) 
-6.11068869

>  <minimizedRMSD>  (1) 
3.15010214

$$$$
