
     RDKit          3D

 38 40  0  0  1  0  0  0  0  0999 V2000
   47.0000   32.1310   46.1000 C   0  0  2  0  0  0  0  0  0  0  0  0
   46.6850   30.7900   45.5610 C   0  0  0  0  0  0  0  0  0  0  0  0
   46.9350   30.9070   47.0220 C   0  0  1  0  0  0  0  0  0  0  0  0
   45.8910   33.1310   46.2980 C   0  0  0  0  0  0  0  0  0  0  0  0
   45.2430   33.0260   47.3830 O   0  0  0  0  0  0  0  0  0  0  0  0
   44.4970   36.0070   44.5570 C   0  0  0  0  0  0  0  0  0  0  0  0
   45.1250   35.9770   43.3070 C   0  0  0  0  0  0  0  0  0  0  0  0
   46.0350   34.9420   43.0980 C   0  0  0  0  0  0  0  0  0  0  0  0
   46.2270   34.0750   44.1020 N   0  0  0  0  0  0  0  0  0  0  0  0
   45.6100   34.1280   45.2930 C   0  0  0  0  0  0  0  0  0  0  0  0
   44.7230   35.1150   45.5310 N   0  0  0  0  0  0  0  0  0  0  0  0
   48.1900   30.5680   47.6970 C   0  0  2  0  0  0  0  0  0  0  0  0
   48.7000   29.1830   47.3390 C   0  0  0  0  0  0  0  0  0  0  0  0
   48.0350   30.6660   49.1920 C   0  0  0  0  0  0  0  0  0  0  0  0
   49.3440   30.9030   49.8580 C   0  0  0  0  0  0  0  0  0  0  0  0
   49.9430   30.0290   50.7410 C   0  0  0  0  0  0  0  0  0  0  0  0
   51.1590   30.3870   51.2790 C   0  0  0  0  0  0  0  0  0  0  0  0
   51.8420   31.5530   51.0150 C   0  0  0  0  0  0  0  0  0  0  0  0
   51.2230   32.4020   50.1350 C   0  0  0  0  0  0  0  0  0  0  0  0
   50.0050   32.0910   49.5670 C   0  0  0  0  0  0  0  0  0  0  0  0
   47.7350   32.9025   45.8271 H   0  0  0  0  0  0  0  0  0  0  0  0
   45.6689   30.5746   45.1989 H   0  0  0  0  0  0  0  0  0  0  0  0
   47.1121   30.1687   44.7600 H   0  0  0  0  0  0  0  0  0  0  0  0
   46.3711   30.5306   47.8882 H   0  0  0  0  0  0  0  0  0  0  0  0
   43.7734   36.8122   44.7521 H   0  0  0  0  0  0  0  0  0  0  0  0
   44.9124   36.7284   42.5323 H   0  0  0  0  0  0  0  0  0  0  0  0
   46.5751   34.8406   42.1451 H   0  0  0  0  0  0  0  0  0  0  0  0
   48.9319   31.2999   47.3450 H   0  0  0  0  0  0  0  0  0  0  0  0
   48.9076   28.6192   48.2604 H   0  0  0  0  0  0  0  0  0  0  0  0
   47.9381   28.6530   46.7486 H   0  0  0  0  0  0  0  0  0  0  0  0
   49.6237   29.2737   46.7486 H   0  0  0  0  0  0  0  0  0  0  0  0
   47.3571   31.4996   49.4278 H   0  0  0  0  0  0  0  0  0  0  0  0
   47.6255   29.7141   49.5612 H   0  0  0  0  0  0  0  0  0  0  0  0
   49.4640   29.0752   51.0073 H   0  0  0  0  0  0  0  0  0  0  0  0
   51.6253   29.6799   51.9808 H   0  0  0  0  0  0  0  0  0  0  0  0
   52.8130   31.7860   51.4764 H   0  0  0  0  0  0  0  0  0  0  0  0
   51.7090   33.3541   49.8755 H   0  0  0  0  0  0  0  0  0  0  0  0
   49.5445   32.8019   48.8652 H   0  0  0  0  0  0  0  0  0  0  0  0
  1  4  1  0
  1  3  1  0
  2  1  1  0
  2  3  1  0
  3 12  1  0
  4  5  2  0
  6 11  2  0
  7  6  1  0
  8  7  2  0
  8  9  1  0
  9 10  2  0
 10 11  1  0
 10  4  1  0
 12 14  1  0
 13 12  1  0
 14 15  1  0
 15 16  2  0
 16 17  1  0
 18 17  2  0
 19 18  1  0
 20 15  1  0
 20 19  2  0
  1 21  1  6
  2 22  1  0
  2 23  1  0
  3 24  1  1
  6 25  1  0
  7 26  1  0
  8 27  1  0
 12 28  1  6
 13 29  1  0
 13 30  1  0
 13 31  1  0
 14 32  1  0
 14 33  1  0
 16 34  1  0
 17 35  1  0
 18 36  1  0
 19 37  1  0
 20 38  1  0
M  ISO  8  21  13  22  13  23  13  24  13  25  14  26  14  27  14  28   8
M  ISO  8  29   8  30   8  31   8  32   8  33   8  34  14  35  14  36  14
M  ISO  2  37  14  38  14
M  END
>  <minimizedAffinity>  (1) 
-5.38517618

>  <minimizedRMSD>  (1) 
1.12452781

$$$$
