
     RDKit          3D

 36 38  0  0  1  0  0  0  0  0999 V2000
   46.9070   32.0590   46.1270 C   0  0  2  0  0  0  0  0  0  0  0  0
   46.4970   30.7000   45.6970 C   0  0  0  0  0  0  0  0  0  0  0  0
   46.8600   30.9020   47.1250 C   0  0  1  0  0  0  0  0  0  0  0  0
   45.8480   33.1130   46.3400 C   0  0  0  0  0  0  0  0  0  0  0  0
   45.2200   33.0500   47.4410 O   0  0  0  0  0  0  0  0  0  0  0  0
   44.5050   36.0010   44.5850 C   0  0  0  0  0  0  0  0  0  0  0  0
   45.1340   35.9660   43.3340 C   0  0  0  0  0  0  0  0  0  0  0  0
   46.0280   34.9220   43.1320 C   0  0  0  0  0  0  0  0  0  0  0  0
   46.2110   34.0450   44.1430 N   0  0  0  0  0  0  0  0  0  0  0  0
   45.5820   34.1150   45.3380 C   0  0  0  0  0  0  0  0  0  0  0  0
   44.7190   35.1100   45.5530 N   0  0  0  0  0  0  0  0  0  0  0  0
   48.1380   30.5480   47.7380 C   0  0  2  0  0  0  0  0  0  0  0  0
   48.5620   29.1160   47.4640 C   0  0  0  0  0  0  0  0  0  0  0  0
   48.1260   30.7550   49.2140 C   0  0  0  0  0  0  0  0  0  0  0  0
   49.4210   31.0080   49.8490 C   0  0  0  0  0  0  0  0  0  0  0  0
   50.3220   32.0430   49.7300 C   0  0  0  0  0  0  0  0  0  0  0  0
   51.4890   32.0390   50.4650 C   0  0  0  0  0  0  0  0  0  0  0  0
   51.8020   31.0480   51.3160 N   0  0  0  0  0  0  0  0  0  0  0  0
   50.9190   30.0380   51.4290 C   0  0  0  0  0  0  0  0  0  0  0  0
   49.7750   30.0180   50.7240 N   0  0  0  0  0  0  0  0  0  0  0  0
   47.6515   32.7783   45.7550 H   0  0  0  0  0  0  0  0  0  0  0  0
   45.4489   30.5085   45.4234 H   0  0  0  0  0  0  0  0  0  0  0  0
   46.8366   30.0103   44.9103 H   0  0  0  0  0  0  0  0  0  0  0  0
   46.3462   30.6078   48.0521 H   0  0  0  0  0  0  0  0  0  0  0  0
   43.7903   36.8140   44.7807 H   0  0  0  0  0  0  0  0  0  0  0  0
   44.9323   36.7195   42.5584 H   0  0  0  0  0  0  0  0  0  0  0  0
   46.5689   34.8131   42.1804 H   0  0  0  0  0  0  0  0  0  0  0  0
   48.8657   31.2255   47.2675 H   0  0  0  0  0  0  0  0  0  0  0  0
   48.7175   28.5907   48.4179 H   0  0  0  0  0  0  0  0  0  0  0  0
   47.7766   28.6049   46.8878 H   0  0  0  0  0  0  0  0  0  0  0  0
   49.4990   29.1149   46.8878 H   0  0  0  0  0  0  0  0  0  0  0  0
   47.4761   31.6170   49.4253 H   0  0  0  0  0  0  0  0  0  0  0  0
   47.7747   29.8030   49.6385 H   0  0  0  0  0  0  0  0  0  0  0  0
   50.1097   32.8772   49.0451 H   0  0  0  0  0  0  0  0  0  0  0  0
   52.1898   32.8790   50.3500 H   0  0  0  0  0  0  0  0  0  0  0  0
   51.1396   29.2078   52.1161 H   0  0  0  0  0  0  0  0  0  0  0  0
  1  4  1  0
  1  3  1  0
  2  1  1  0
  2  3  1  0
  3 12  1  0
  4  5  2  0
  6 11  2  0
  7  6  1  0
  8  7  2  0
  8  9  1  0
  9 10  2  0
 10 11  1  0
 10  4  1  0
 12 14  1  0
 13 12  1  0
 14 15  1  0
 15 20  1  0
 16 15  2  0
 16 17  1  0
 17 18  2  0
 18 19  1  0
 20 19  2  0
  1 21  1  6
  2 22  1  0
  2 23  1  0
  3 24  1  1
  6 25  1  0
  7 26  1  0
  8 27  1  0
 12 28  1  6
 13 29  1  0
 13 30  1  0
 13 31  1  0
 14 32  1  0
 14 33  1  0
 16 34  1  0
 17 35  1  0
 19 36  1  0
M  ISO  8  21  13  22  13  23  13  24  13  25  14  26  14  27  14  28   8
M  ISO  8  29   8  30   8  31   8  32   8  33   8  34  14  35  14  36  14
M  END
>  <minimizedAffinity>  (1) 
-5.3220191

>  <minimizedRMSD>  (1) 
2.30818915

$$$$
