
     RDKit          3D

 37 39  0  0  1  0  0  0  0  0999 V2000
   46.9820   32.1290   46.0310 C   0  0  2  0  0  0  0  0  0  0  0  0
   46.6360   30.7920   45.4890 C   0  0  0  0  0  0  0  0  0  0  0  0
   46.8970   30.9060   46.9490 C   0  0  1  0  0  0  0  0  0  0  0  0
   45.8880   33.1470   46.2410 C   0  0  0  0  0  0  0  0  0  0  0  0
   45.2470   33.0520   47.3330 O   0  0  0  0  0  0  0  0  0  0  0  0
   44.4940   36.0260   44.5160 C   0  0  0  0  0  0  0  0  0  0  0  0
   45.1300   36.0090   43.2600 C   0  0  0  0  0  0  0  0  0  0  0  0
   46.0400   34.9820   43.0480 C   0  0  0  0  0  0  0  0  0  0  0  0
   46.2380   34.0990   44.0520 N   0  0  0  0  0  0  0  0  0  0  0  0
   45.6130   34.1500   45.2370 C   0  0  0  0  0  0  0  0  0  0  0  0
   44.7270   35.1310   45.4700 N   0  0  0  0  0  0  0  0  0  0  0  0
   48.1360   30.5370   47.6280 C   0  0  2  0  0  0  0  0  0  0  0  0
   48.5970   29.1270   47.3150 C   0  0  0  0  0  0  0  0  0  0  0  0
   48.0350   30.6870   49.1100 C   0  0  0  0  0  0  0  0  0  0  0  0
   49.2890   30.8790   49.8330 C   0  0  0  0  0  0  0  0  0  0  0  0
   49.9490   30.0690   50.7290 C   0  0  0  0  0  0  0  0  0  0  0  0
   51.1460   30.4500   51.2980 C   0  0  0  0  0  0  0  0  0  0  0  0
   51.7290   31.6720   50.9830 C   0  0  0  0  0  0  0  0  0  0  0  0
   51.0480   32.4660   50.0840 C   0  0  0  0  0  0  0  0  0  0  0  0
   49.8850   32.0730   49.5440 N   0  0  0  0  0  0  0  0  0  0  0  0
   47.7308   32.8862   45.7553 H   0  0  0  0  0  0  0  0  0  0  0  0
   45.6138   30.5972   45.1325 H   0  0  0  0  0  0  0  0  0  0  0  0
   47.0452   30.1626   44.6851 H   0  0  0  0  0  0  0  0  0  0  0  0
   46.3298   30.5407   47.8178 H   0  0  0  0  0  0  0  0  0  0  0  0
   43.7643   36.8238   44.7186 H   0  0  0  0  0  0  0  0  0  0  0  0
   44.9181   36.7661   42.4907 H   0  0  0  0  0  0  0  0  0  0  0  0
   46.5816   34.8901   42.0950 H   0  0  0  0  0  0  0  0  0  0  0  0
   48.8838   31.2418   47.2356 H   0  0  0  0  0  0  0  0  0  0  0  0
   48.7750   28.5825   48.2541 H   0  0  0  0  0  0  0  0  0  0  0  0
   47.8215   28.6086   46.7319 H   0  0  0  0  0  0  0  0  0  0  0  0
   49.5289   29.1669   46.7319 H   0  0  0  0  0  0  0  0  0  0  0  0
   47.3946   31.5576   49.3148 H   0  0  0  0  0  0  0  0  0  0  0  0
   47.6340   29.7290   49.4726 H   0  0  0  0  0  0  0  0  0  0  0  0
   49.5118   29.0959   50.9972 H   0  0  0  0  0  0  0  0  0  0  0  0
   51.6462   29.7779   52.0107 H   0  0  0  0  0  0  0  0  0  0  0  0
   52.6838   31.9893   51.4276 H   0  0  0  0  0  0  0  0  0  0  0  0
   51.4681   33.4432   49.8037 H   0  0  0  0  0  0  0  0  0  0  0  0
  1  4  1  0
  1  3  1  0
  2  1  1  0
  2  3  1  0
  3 12  1  0
  4  5  2  0
  6 11  2  0
  7  6  1  0
  8  7  2  0
  8  9  1  0
  9 10  2  0
 10 11  1  0
 10  4  1  0
 12 14  1  0
 13 12  1  0
 14 15  1  0
 15 16  2  0
 16 17  1  0
 18 17  2  0
 19 18  1  0
 20 15  1  0
 20 19  2  0
  1 21  1  6
  2 22  1  0
  2 23  1  0
  3 24  1  1
  6 25  1  0
  7 26  1  0
  8 27  1  0
 12 28  1  6
 13 29  1  0
 13 30  1  0
 13 31  1  0
 14 32  1  0
 14 33  1  0
 16 34  1  0
 17 35  1  0
 18 36  1  0
 19 37  1  0
M  ISO  8  21  13  22  13  23  13  24  13  25  14  26  14  27  14  28   8
M  ISO  8  29   8  30   8  31   8  32   8  33   8  34  14  35  14  36  14
M  ISO  1  37  14
M  END
>  <minimizedAffinity>  (1) 
-5.31519365

>  <minimizedRMSD>  (1) 
2.33654237

$$$$
