
     RDKit          3D

 41 43  0  0  1  0  0  0  0  0999 V2000
   46.6900   31.9640   46.1540 C   0  0  2  0  0  0  0  0  0  0  0  0
   46.1460   30.6100   45.9160 C   0  0  0  0  0  0  0  0  0  0  0  0
   46.6940   30.9050   47.2650 C   0  0  1  0  0  0  0  0  0  0  0  0
   45.7450   33.1160   46.3780 C   0  0  0  0  0  0  0  0  0  0  0  0
   45.1630   33.1360   47.5050 O   0  0  0  0  0  0  0  0  0  0  0  0
   44.5330   36.0250   44.5610 C   0  0  0  0  0  0  0  0  0  0  0  0
   45.1950   35.9460   43.3280 C   0  0  0  0  0  0  0  0  0  0  0  0
   46.0580   34.8760   43.1600 C   0  0  0  0  0  0  0  0  0  0  0  0
   46.1870   34.0090   44.1810 N   0  0  0  0  0  0  0  0  0  0  0  0
   45.5390   34.1090   45.3540 C   0  0  0  0  0  0  0  0  0  0  0  0
   44.6960   35.1340   45.5510 N   0  0  0  0  0  0  0  0  0  0  0  0
   48.0190   30.5130   47.7500 C   0  0  2  0  0  0  0  0  0  0  0  0
   48.2850   29.0240   47.6230 C   0  0  0  0  0  0  0  0  0  0  0  0
   48.2000   30.9240   49.1870 C   0  0  0  0  0  0  0  0  0  0  0  0
   49.6930   30.8250   49.5220 C   0  0  0  0  0  0  0  0  0  0  0  0
   50.2780   32.1720   49.8180 C   0  0  0  0  0  0  0  0  0  0  0  0
   51.2930   31.9930   50.9270 C   0  0  0  0  0  0  0  0  0  0  0  0
   51.2440   30.5330   51.3150 C   0  0  0  0  0  0  0  0  0  0  0  0
   49.9130   30.0520   50.7800 C   0  0  0  0  0  0  0  0  0  0  0  0
   47.4262   32.5880   45.6262 H   0  0  0  0  0  0  0  0  0  0  0  0
   45.0619   30.4749   45.7876 H   0  0  0  0  0  0  0  0  0  0  0  0
   46.3418   29.8293   45.1662 H   0  0  0  0  0  0  0  0  0  0  0  0
   46.2819   30.7321   48.2701 H   0  0  0  0  0  0  0  0  0  0  0  0
   43.8413   36.8642   44.7263 H   0  0  0  0  0  0  0  0  0  0  0  0
   45.0375   36.6935   42.5366 H   0  0  0  0  0  0  0  0  0  0  0  0
   46.6190   34.7395   42.2237 H   0  0  0  0  0  0  0  0  0  0  0  0
   48.7433   31.0364   47.1086 H   0  0  0  0  0  0  0  0  0  0  0  0
   48.3645   28.5789   48.6258 H   0  0  0  0  0  0  0  0  0  0  0  0
   47.4575   28.5491   47.0756 H   0  0  0  0  0  0  0  0  0  0  0  0
   49.2258   28.8650   47.0756 H   0  0  0  0  0  0  0  0  0  0  0  0
   47.8537   31.9588   49.3260 H   0  0  0  0  0  0  0  0  0  0  0  0
   47.6149   30.2689   49.8491 H   0  0  0  0  0  0  0  0  0  0  0  0
   50.1577   30.3495   48.6457 H   0  0  0  0  0  0  0  0  0  0  0  0
   50.7699   32.5736   48.9198 H   0  0  0  0  0  0  0  0  0  0  0  0
   49.4913   32.8778   50.1227 H   0  0  0  0  0  0  0  0  0  0  0  0
   52.2988   32.2585   50.5694 H   0  0  0  0  0  0  0  0  0  0  0  0
   51.0664   32.6427   51.7852 H   0  0  0  0  0  0  0  0  0  0  0  0
   52.0739   29.9783   50.8528 H   0  0  0  0  0  0  0  0  0  0  0  0
   51.3418   30.3816   52.4001 H   0  0  0  0  0  0  0  0  0  0  0  0
   49.1101   30.2564   51.5035 H   0  0  0  0  0  0  0  0  0  0  0  0
   49.9105   28.9667   50.6008 H   0  0  0  0  0  0  0  0  0  0  0  0
  1  4  1  0
  1  3  1  0
  2  1  1  0
  2  3  1  0
  3 12  1  0
  4  5  2  0
  6 11  2  0
  7  6  1  0
  8  7  2  0
  8  9  1  0
  9 10  2  0
 10 11  1  0
 10  4  1  0
 12 14  1  0
 13 12  1  0
 14 15  1  0
 15 16  1  0
 15 19  1  0
 16 17  1  0
 17 18  1  0
 19 18  1  0
  1 20  1  6
  2 21  1  0
  2 22  1  0
  3 23  1  1
  6 24  1  0
  7 25  1  0
  8 26  1  0
 12 27  1  6
 13 28  1  0
 13 29  1  0
 13 30  1  0
 14 31  1  0
 14 32  1  0
 15 33  1  0
 16 34  1  0
 16 35  1  0
 17 36  1  0
 17 37  1  0
 18 38  1  0
 18 39  1  0
 19 40  1  0
 19 41  1  0
M  ISO  8  20  13  21  13  22  13  23  13  24  14  25  14  26  14  27   8
M  ISO  8  28   8  29   8  30   8  31   8  32   8  33  13  34  13  35  13
M  ISO  6  36  13  37  13  38  13  39  13  40  13  41  13
M  END
>  <minimizedAffinity>  (1) 
-5.21170712

>  <minimizedRMSD>  (1) 
0.41107136

$$$$
