
     RDKit          3D

 35 37  0  0  1  0  0  0  0  0999 V2000
   46.9650   31.8400   45.4410 C   0  0  2  0  0  0  0  0  0  0  0  0
   46.3320   30.6710   44.7870 C   0  0  0  0  0  0  0  0  0  0  0  0
   46.8270   30.5020   46.1780 C   0  0  1  0  0  0  0  0  0  0  0  0
   46.0920   32.9450   45.9830 C   0  0  0  0  0  0  0  0  0  0  0  0
   45.7340   32.8240   47.1950 O   0  0  0  0  0  0  0  0  0  0  0  0
   44.4790   35.9620   44.7460 C   0  0  0  0  0  0  0  0  0  0  0  0
   44.9990   36.1200   43.4580 C   0  0  0  0  0  0  0  0  0  0  0  0
   45.9120   35.1690   43.0480 C   0  0  0  0  0  0  0  0  0  0  0  0
   46.2230   34.1760   43.9110 N   0  0  0  0  0  0  0  0  0  0  0  0
   45.7100   34.0490   45.1370 C   0  0  0  0  0  0  0  0  0  0  0  0
   44.8110   34.9620   45.5810 N   0  0  0  0  0  0  0  0  0  0  0  0
   48.0910   29.8680   46.5560 C   0  0  2  0  0  0  0  0  0  0  0  0
   48.3080   28.5210   45.8930 C   0  0  0  0  0  0  0  0  0  0  0  0
   48.1670   29.6810   48.0450 C   0  0  0  0  0  0  0  0  0  0  0  0
   49.2480   30.3750   48.6830 N   0  0  0  0  0  0  0  0  0  0  0  0
   50.5390   30.0820   48.9050 C   0  0  0  0  0  0  0  0  0  0  0  0
   51.1500   31.1330   49.5830 C   0  0  0  0  0  0  0  0  0  0  0  0
   50.1890   32.0530   49.7540 N   0  0  0  0  0  0  0  0  0  0  0  0
   49.0410   31.6130   49.2190 C   0  0  0  0  0  0  0  0  0  0  0  0
   47.7735   32.5255   45.1471 H   0  0  0  0  0  0  0  0  0  0  0  0
   45.2494   30.6772   44.5921 H   0  0  0  0  0  0  0  0  0  0  0  0
   46.5081   30.1352   43.8426 H   0  0  0  0  0  0  0  0  0  0  0  0
   46.3483   30.0753   47.0717 H   0  0  0  0  0  0  0  0  0  0  0  0
   43.7496   36.7054   45.0999 H   0  0  0  0  0  0  0  0  0  0  0  0
   44.6978   36.9547   42.8080 H   0  0  0  0  0  0  0  0  0  0  0  0
   46.3721   35.2178   42.0500 H   0  0  0  0  0  0  0  0  0  0  0  0
   48.8802   30.5505   46.2077 H   0  0  0  0  0  0  0  0  0  0  0  0
   48.4325   27.7479   46.6655 H   0  0  0  0  0  0  0  0  0  0  0  0
   47.4377   28.2763   45.2663 H   0  0  0  0  0  0  0  0  0  0  0  0
   49.2111   28.5620   45.2663 H   0  0  0  0  0  0  0  0  0  0  0  0
   47.2239   30.0391   48.4836 H   0  0  0  0  0  0  0  0  0  0  0  0
   48.3441   28.6086   48.2142 H   0  0  0  0  0  0  0  0  0  0  0  0
   51.0388   29.1516   48.5975 H   0  0  0  0  0  0  0  0  0  0  0  0
   52.1986   31.1958   49.9094 H   0  0  0  0  0  0  0  0  0  0  0  0
   48.0872   32.1609   49.2130 H   0  0  0  0  0  0  0  0  0  0  0  0
  1  4  1  0
  1  3  1  0
  2  1  1  0
  2  3  1  0
  3 12  1  0
  4  5  2  0
  6 11  2  0
  7  6  1  0
  8  7  2  0
  8  9  1  0
  9 10  2  0
 10 11  1  0
 10  4  1  0
 12 14  1  0
 13 12  1  0
 14 15  1  0
 15 16  1  0
 15 19  1  0
 16 17  2  0
 17 18  1  0
 19 18  2  0
  1 20  1  6
  2 21  1  0
  2 22  1  0
  3 23  1  1
  6 24  1  0
  7 25  1  0
  8 26  1  0
 12 27  1  6
 13 28  1  0
 13 29  1  0
 13 30  1  0
 14 31  1  0
 14 32  1  0
 16 33  1  0
 17 34  1  0
 19 35  1  0
M  ISO  8  20  13  21  13  22  13  23  13  24  14  25  14  26  14  27   8
M  ISO  8  28   8  29   8  30   8  31   8  32   8  33  14  34  14  35  14
M  END
>  <minimizedAffinity>  (1) 
-4.48530865

>  <minimizedRMSD>  (1) 
2.06116629

$$$$
