
     RDKit          3D

 30 32  0  0  0  0  0  0  0  0999 V2000
   47.2080   31.7810   43.4670 C   0  0  0  0  0  0  0  0  0  0  0  0
   48.5640   31.5160   43.1150 N   0  0  0  0  0  0  0  0  0  0  0  0
   49.3640   30.4710   43.3220 N   0  0  0  0  0  0  0  0  0  0  0  0
   50.5870   30.6410   42.8420 C   0  0  0  0  0  0  0  0  0  0  0  0
   50.5670   31.8860   42.2870 C   0  0  0  0  0  0  0  0  0  0  0  0
   49.2920   32.4380   42.4560 C   0  0  0  0  0  0  0  0  0  0  0  0
   49.1160   33.7740   41.9010 C   0  0  0  0  0  0  0  0  0  0  0  0
   48.6160   34.1670   40.6770 C   0  0  0  0  0  0  0  0  0  0  0  0
   48.6510   35.5010   40.5400 N   0  0  0  0  0  0  0  0  0  0  0  0
   49.1760   36.0180   41.6720 C   0  0  0  0  0  0  0  0  0  0  0  0
   49.4280   34.9650   42.4310 N   0  0  0  0  0  0  0  0  0  0  0  0
   47.0420   32.6250   44.7410 C   0  0  0  0  0  0  0  0  0  0  0  0
   46.2520   33.8290   44.4660 C   0  0  0  0  0  0  0  0  0  0  0  0
   45.4200   34.2130   45.5110 C   0  0  0  0  0  0  0  0  0  0  0  0
   44.6000   35.3490   45.4000 C   0  0  0  0  0  0  0  0  0  0  0  0
   44.6700   36.0380   44.2280 N   0  0  0  0  0  0  0  0  0  0  0  0
   45.4930   35.6400   43.2210 C   0  0  0  0  0  0  0  0  0  0  0  0
   46.2580   34.5550   43.3630 N   0  0  0  0  0  0  0  0  0  0  0  0
   46.6972   30.8191   43.6213 H   0  0  0  0  0  0  0  0  0  0  0  0
   46.7752   32.3654   42.6416 H   0  0  0  0  0  0  0  0  0  0  0  0
   51.4300   29.9355   42.8823 H   0  0  0  0  0  0  0  0  0  0  0  0
   51.4152   32.3770   41.7875 H   0  0  0  0  0  0  0  0  0  0  0  0
   48.2369   33.4747   39.9108 H   0  0  0  0  0  0  0  0  0  0  0  0
   49.3540   37.0773   41.9092 H   0  0  0  0  0  0  0  0  0  0  0  0
   49.8387   35.0544   43.3714 H   0  0  0  0  0  0  0  0  0  0  0  0
   46.5302   32.0247   45.5076 H   0  0  0  0  0  0  0  0  0  0  0  0
   48.0378   32.9290   45.0960 H   0  0  0  0  0  0  0  0  0  0  0  0
   45.4031   33.6199   46.4373 H   0  0  0  0  0  0  0  0  0  0  0  0
   43.9359   35.6651   46.2180 H   0  0  0  0  0  0  0  0  0  0  0  0
   45.5286   36.2153   42.2841 H   0  0  0  0  0  0  0  0  0  0  0  0
  1 12  1  0
  2  3  1  0
  2  1  1  0
  4  3  2  0
  5  6  2  0
  5  4  1  0
  6  2  1  0
  7 11  1  0
  7  6  1  0
  8  7  2  0
  9  8  1  0
  9 10  2  0
 10 11  1  0
 13 12  1  0
 13 14  2  0
 15 14  1  0
 16 15  2  0
 17 18  2  0
 17 16  1  0
 18 13  1  0
  1 19  1  0
  1 20  1  0
  4 21  1  0
  5 22  1  0
  8 23  1  0
 10 24  1  0
 11 25  1  0
 12 26  1  0
 12 27  1  0
 14 28  1  0
 15 29  1  0
 17 30  1  0
M  ISO  8  19   8  20   8  21  14  22  14  23  14  24  14  25   9  26   8
M  ISO  4  27   8  28  14  29  14  30  14
M  END
>  <minimizedAffinity>  (1) 
-4.46491957

>  <minimizedRMSD>  (1) 
6.40589046

$$$$
