
     RDKit          3D

 50 54  0  0  1  0  0  0  0  0999 V2000
   48.3570   30.7140   47.9280 C   0  0  2  0  0  0  0  0  0  0  0  0
   47.0270   32.0950   46.2920 C   0  0  2  0  0  0  0  0  0  0  0  0
   46.6410   30.6750   45.9330 C   0  0  0  0  0  0  0  0  0  0  0  0
   47.0680   30.9790   47.3040 C   0  0  1  0  0  0  0  0  0  0  0  0
   45.8940   33.0920   46.4590 C   0  0  0  0  0  0  0  0  0  0  0  0
   45.2270   32.9700   47.5480 O   0  0  0  0  0  0  0  0  0  0  0  0
   44.4790   35.9180   44.6730 C   0  0  0  0  0  0  0  0  0  0  0  0
   45.1080   35.8730   43.4190 C   0  0  0  0  0  0  0  0  0  0  0  0
   46.0380   34.8460   43.2300 C   0  0  0  0  0  0  0  0  0  0  0  0
   46.2470   33.9960   44.2570 N   0  0  0  0  0  0  0  0  0  0  0  0
   45.6210   34.0730   45.4480 C   0  0  0  0  0  0  0  0  0  0  0  0
   44.7100   35.0510   45.6860 N   0  0  0  0  0  0  0  0  0  0  0  0
   49.1010   29.5640   47.2860 C   0  0  0  0  0  0  0  0  0  0  0  0
   48.2050   30.4020   49.3930 C   0  0  0  0  0  0  0  0  0  0  0  0
   49.4530   30.4140   50.1620 C   0  0  0  0  0  0  0  0  0  0  0  0
   50.1750   29.3760   50.7110 C   0  0  0  0  0  0  0  0  0  0  0  0
   51.3290   29.5890   51.3920 C   0  0  0  0  0  0  0  0  0  0  0  0
   51.7660   30.8520   51.5250 N   0  0  0  0  0  0  0  0  0  0  0  0
   51.0940   31.9060   51.0050 C   0  0  0  0  0  0  0  0  0  0  0  0
   49.9540   31.6670   50.3340 N   0  0  0  0  0  0  0  0  0  0  0  0
   51.6080   33.2690   51.1740 C   0  0  0  0  0  0  0  0  0  0  0  0
   51.5740   34.2430   50.1700 C   0  0  0  0  0  0  0  0  0  0  0  0
   52.1240   35.3380   50.6910 N   0  0  0  0  0  0  0  0  0  0  0  0
   52.4870   35.0740   51.9570 C   0  0  0  0  0  0  0  0  0  0  0  0
   53.0930   35.9150   52.8740 C   0  0  0  0  0  0  0  0  0  0  0  0
   53.3720   35.4030   54.1370 C   0  0  0  0  0  0  0  0  0  0  0  0
   53.0560   34.0980   54.4670 C   0  0  0  0  0  0  0  0  0  0  0  0
   52.4430   33.2410   53.5450 C   0  0  0  0  0  0  0  0  0  0  0  0
   52.1770   33.7620   52.3140 C   0  0  0  0  0  0  0  0  0  0  0  0
   48.9379   31.6374   47.7867 H   0  0  0  0  0  0  0  0  0  0  0  0
   47.7352   32.8378   45.8961 H   0  0  0  0  0  0  0  0  0  0  0  0
   45.5887   30.4280   45.7287 H   0  0  0  0  0  0  0  0  0  0  0  0
   46.9617   29.9569   45.1639 H   0  0  0  0  0  0  0  0  0  0  0  0
   46.6071   30.6933   48.2610 H   0  0  0  0  0  0  0  0  0  0  0  0
   43.7435   36.7176   44.8451 H   0  0  0  0  0  0  0  0  0  0  0  0
   44.8820   36.6046   42.6292 H   0  0  0  0  0  0  0  0  0  0  0  0
   46.5794   34.7351   42.2789 H   0  0  0  0  0  0  0  0  0  0  0  0
   49.5204   28.9157   48.0694 H   0  0  0  0  0  0  0  0  0  0  0  0
   48.4077   28.9822   46.6609 H   0  0  0  0  0  0  0  0  0  0  0  0
   49.9159   29.9579   46.6609 H   0  0  0  0  0  0  0  0  0  0  0  0
   47.5265   31.1482   49.8321 H   0  0  0  0  0  0  0  0  0  0  0  0
   47.8190   29.3735   49.4497 H   0  0  0  0  0  0  0  0  0  0  0  0
   49.8054   28.3466   50.5938 H   0  0  0  0  0  0  0  0  0  0  0  0
   51.8923   28.7488   51.8241 H   0  0  0  0  0  0  0  0  0  0  0  0
   51.1726   34.1271   49.1524 H   0  0  0  0  0  0  0  0  0  0  0  0
   52.2500   36.2371   50.2046 H   0  0  0  0  0  0  0  0  0  0  0  0
   53.3455   36.9533   52.6129 H   0  0  0  0  0  0  0  0  0  0  0  0
   53.8529   36.0482   54.8870 H   0  0  0  0  0  0  0  0  0  0  0  0
   53.2911   33.7253   55.4749 H   0  0  0  0  0  0  0  0  0  0  0  0
   52.1894   32.2016   53.8008 H   0  0  0  0  0  0  0  0  0  0  0  0
  1 14  1  0
  2  5  1  0
  2  4  1  0
  3  2  1  0
  3  4  1  0
  4  1  1  0
  5  6  2  0
  7 12  2  0
  8  7  1  0
  9  8  2  0
  9 10  1  0
 10 11  2  0
 11 12  1  0
 11  5  1  0
 13  1  1  0
 14 15  1  0
 15 20  1  0
 15 16  2  0
 16 17  1  0
 17 18  2  0
 19 21  1  0
 19 18  1  0
 20 19  2  0
 21 29  1  0
 22 23  1  0
 22 21  2  0
 23 24  1  0
 24 29  2  0
 24 25  1  0
 25 26  2  0
 26 27  1  0
 28 27  2  0
 29 28  1  0
  1 30  1  1
  2 31  1  6
  3 32  1  0
  3 33  1  0
  4 34  1  1
  7 35  1  0
  8 36  1  0
  9 37  1  0
 13 38  1  0
 13 39  1  0
 13 40  1  0
 14 41  1  0
 14 42  1  0
 16 43  1  0
 17 44  1  0
 22 45  1  0
 23 46  1  0
 25 47  1  0
 26 48  1  0
 27 49  1  0
 28 50  1  0
M  ISO  8  30   8  31  13  32  13  33  13  34  13  35  14  36  14  37  14
M  ISO  8  38   8  39   8  40   8  41   8  42   8  43  14  44  14  45  14
M  ISO  5  46   9  47  14  48  14  49  14  50  14
M  END
>  <minimizedAffinity>  (1) 
-6.56591511

>  <minimizedRMSD>  (1) 
1.41469395

$$$$
