
     RDKit          3D

 50 53  0  0  1  0  0  0  0  0999 V2000
   48.3740   30.8590   47.9600 C   0  0  2  0  0  0  0  0  0  0  0  0
   47.0220   32.1510   46.2700 C   0  0  2  0  0  0  0  0  0  0  0  0
   46.6470   30.7150   45.9770 C   0  0  0  0  0  0  0  0  0  0  0  0
   47.0800   31.0830   47.3310 C   0  0  1  0  0  0  0  0  0  0  0  0
   45.8760   33.1430   46.4030 C   0  0  0  0  0  0  0  0  0  0  0  0
   45.1860   33.0300   47.4800 O   0  0  0  0  0  0  0  0  0  0  0  0
   44.5000   35.9610   44.5720 C   0  0  0  0  0  0  0  0  0  0  0  0
   45.1470   35.8920   43.3240 C   0  0  0  0  0  0  0  0  0  0  0  0
   46.0630   34.8570   43.1570 C   0  0  0  0  0  0  0  0  0  0  0  0
   46.2550   34.0160   44.1930 N   0  0  0  0  0  0  0  0  0  0  0  0
   45.6160   34.1120   45.3760 C   0  0  0  0  0  0  0  0  0  0  0  0
   44.7160   35.0990   45.5890 N   0  0  0  0  0  0  0  0  0  0  0  0
   49.0640   29.6100   47.4540 C   0  0  0  0  0  0  0  0  0  0  0  0
   48.2480   30.7300   49.4540 C   0  0  0  0  0  0  0  0  0  0  0  0
   49.5140   30.6150   50.1780 C   0  0  0  0  0  0  0  0  0  0  0  0
   50.1300   29.5150   50.7350 C   0  0  0  0  0  0  0  0  0  0  0  0
   51.3220   29.6110   51.3720 C   0  0  0  0  0  0  0  0  0  0  0  0
   51.9170   30.8310   51.4570 N   0  0  0  0  0  0  0  0  0  0  0  0
   51.3410   31.9230   50.9230 C   0  0  0  0  0  0  0  0  0  0  0  0
   50.1620   31.8060   50.2980 N   0  0  0  0  0  0  0  0  0  0  0  0
   52.0080   33.1890   51.0400 N   0  0  0  0  0  0  0  0  0  0  0  0
   51.4090   34.3820   50.4730 C   0  0  0  0  0  0  0  0  0  0  0  0
   52.3120   35.5390   50.8020 C   0  0  0  0  0  0  0  0  0  0  0  0
   52.4640   35.5720   52.2420 N   0  0  0  0  0  0  0  0  0  0  0  0
   53.1480   34.3980   52.7430 C   0  0  0  0  0  0  0  0  0  0  0  0
   53.2640   33.2960   51.7090 C   0  0  0  0  0  0  0  0  0  0  0  0
   48.9760   31.7409   47.6959 H   0  0  0  0  0  0  0  0  0  0  0  0
   47.7207   32.8813   45.8359 H   0  0  0  0  0  0  0  0  0  0  0  0
   45.5957   30.4501   45.7908 H   0  0  0  0  0  0  0  0  0  0  0  0
   46.9693   29.9664   45.2382 H   0  0  0  0  0  0  0  0  0  0  0  0
   46.6282   30.8353   48.3028 H   0  0  0  0  0  0  0  0  0  0  0  0
   43.7710   36.7696   44.7293 H   0  0  0  0  0  0  0  0  0  0  0  0
   44.9400   36.6172   42.5232 H   0  0  0  0  0  0  0  0  0  0  0  0
   46.6114   34.7298   42.2120 H   0  0  0  0  0  0  0  0  0  0  0  0
   49.3987   29.0041   48.3089 H   0  0  0  0  0  0  0  0  0  0  0  0
   48.3611   29.0249   46.8427 H   0  0  0  0  0  0  0  0  0  0  0  0
   49.9335   29.8935   46.8427 H   0  0  0  0  0  0  0  0  0  0  0  0
   47.7210   31.6196   49.8292 H   0  0  0  0  0  0  0  0  0  0  0  0
   47.7064   29.7898   49.6347 H   0  0  0  0  0  0  0  0  0  0  0  0
   49.6407   28.5327   50.6604 H   0  0  0  0  0  0  0  0  0  0  0  0
   51.7980   28.7217   51.8108 H   0  0  0  0  0  0  0  0  0  0  0  0
   50.4129   34.5465   50.9098 H   0  0  0  0  0  0  0  0  0  0  0  0
   51.2924   34.2779   49.3842 H   0  0  0  0  0  0  0  0  0  0  0  0
   53.2924   35.3991   50.3233 H   0  0  0  0  0  0  0  0  0  0  0  0
   51.8841   36.4833   50.4342 H   0  0  0  0  0  0  0  0  0  0  0  0
   53.0070   36.4084   52.4999 H   0  0  0  0  0  0  0  0  0  0  0  0
   54.1602   34.6900   53.0596 H   0  0  0  0  0  0  0  0  0  0  0  0
   52.5546   34.0030   53.5808 H   0  0  0  0  0  0  0  0  0  0  0  0
   53.5067   32.3437   52.2032 H   0  0  0  0  0  0  0  0  0  0  0  0
   54.0631   33.5279   50.9895 H   0  0  0  0  0  0  0  0  0  0  0  0
  1 14  1  0
  2  5  1  0
  2  4  1  0
  3  2  1  0
  3  4  1  0
  4  1  1  0
  5  6  2  0
  7 12  2  0
  8  7  1  0
  9  8  2  0
  9 10  1  0
 10 11  2  0
 11 12  1  0
 11  5  1  0
 13  1  1  0
 14 15  1  0
 15 20  1  0
 15 16  2  0
 16 17  1  0
 17 18  2  0
 19 21  1  0
 19 18  1  0
 20 19  2  0
 21 26  1  0
 22 23  1  0
 22 21  1  0
 23 24  1  0
 24 25  1  0
 26 25  1  0
  1 27  1  1
  2 28  1  6
  3 29  1  0
  3 30  1  0
  4 31  1  1
  7 32  1  0
  8 33  1  0
  9 34  1  0
 13 35  1  0
 13 36  1  0
 13 37  1  0
 14 38  1  0
 14 39  1  0
 16 40  1  0
 17 41  1  0
 22 42  1  0
 22 43  1  0
 23 44  1  0
 23 45  1  0
 24 46  1  0
 25 47  1  0
 25 48  1  0
 26 49  1  0
 26 50  1  0
M  ISO  8  27   8  28  13  29  13  30  13  31  13  32  14  33  14  34  14
M  ISO  8  35   8  36   8  37   8  38   8  39   8  40  14  41  14  42  13
M  ISO  8  43  13  44  13  45  13  46   5  47  13  48  13  49  13  50  13
M  END
>  <minimizedAffinity>  (1) 
-6.13586473

>  <minimizedRMSD>  (1) 
1.04138839

$$$$
