
     RDKit          3D

 43 46  0  0  1  0  0  0  0  0999 V2000
   48.3680   30.7950   47.8810 C   0  0  2  0  0  0  0  0  0  0  0  0
   47.0030   32.1190   46.2240 C   0  0  2  0  0  0  0  0  0  0  0  0
   46.6080   30.6880   45.9270 C   0  0  0  0  0  0  0  0  0  0  0  0
   47.0660   31.0430   47.2770 C   0  0  1  0  0  0  0  0  0  0  0  0
   45.8810   33.1260   46.3800 C   0  0  0  0  0  0  0  0  0  0  0  0
   45.2090   33.0170   47.4680 O   0  0  0  0  0  0  0  0  0  0  0  0
   44.5030   35.9580   44.5810 C   0  0  0  0  0  0  0  0  0  0  0  0
   45.1420   35.9070   43.3300 C   0  0  0  0  0  0  0  0  0  0  0  0
   46.0590   34.8730   43.1500 C   0  0  0  0  0  0  0  0  0  0  0  0
   46.2510   34.0210   44.1790 N   0  0  0  0  0  0  0  0  0  0  0  0
   45.6160   34.1050   45.3650 C   0  0  0  0  0  0  0  0  0  0  0  0
   44.7130   35.0950   45.5900 N   0  0  0  0  0  0  0  0  0  0  0  0
   49.0550   29.5680   47.3090 C   0  0  0  0  0  0  0  0  0  0  0  0
   48.2600   30.6000   49.3700 C   0  0  0  0  0  0  0  0  0  0  0  0
   49.5110   30.7830   50.1130 C   0  0  0  0  0  0  0  0  0  0  0  0
   50.2470   29.8730   50.8400 C   0  0  0  0  0  0  0  0  0  0  0  0
   51.4110   30.2500   51.4650 C   0  0  0  0  0  0  0  0  0  0  0  0
   51.8180   31.5210   51.3530 N   0  0  0  0  0  0  0  0  0  0  0  0
   51.1190   32.4410   50.6470 C   0  0  0  0  0  0  0  0  0  0  0  0
   49.9840   32.0590   50.0420 N   0  0  0  0  0  0  0  0  0  0  0  0
   51.6540   33.7930   50.5930 C   0  0  0  0  0  0  0  0  0  0  0  0
   52.8330   34.4110   51.0120 C   0  0  0  0  0  0  0  0  0  0  0  0
   52.7250   35.7530   50.6560 C   0  0  0  0  0  0  0  0  0  0  0  0
   51.5340   35.9070   50.0570 N   0  0  0  0  0  0  0  0  0  0  0  0
   50.8850   34.7460   50.0140 N   0  0  0  0  0  0  0  0  0  0  0  0
   48.9658   31.6892   47.6509 H   0  0  0  0  0  0  0  0  0  0  0  0
   47.7024   32.8443   45.7826 H   0  0  0  0  0  0  0  0  0  0  0  0
   45.5512   30.4354   45.7554 H   0  0  0  0  0  0  0  0  0  0  0  0
   46.9108   29.9410   45.1785 H   0  0  0  0  0  0  0  0  0  0  0  0
   46.6267   30.7973   48.2551 H   0  0  0  0  0  0  0  0  0  0  0  0
   43.7753   36.7661   44.7470 H   0  0  0  0  0  0  0  0  0  0  0  0
   44.9304   36.6410   42.5385 H   0  0  0  0  0  0  0  0  0  0  0  0
   46.6066   34.7555   42.2033 H   0  0  0  0  0  0  0  0  0  0  0  0
   49.4118   28.9307   48.1315 H   0  0  0  0  0  0  0  0  0  0  0  0
   48.3418   29.0033   46.6905 H   0  0  0  0  0  0  0  0  0  0  0  0
   49.9091   29.8809   46.6905 H   0  0  0  0  0  0  0  0  0  0  0  0
   47.5255   31.3221   49.7560 H   0  0  0  0  0  0  0  0  0  0  0  0
   47.9641   29.5514   49.5213 H   0  0  0  0  0  0  0  0  0  0  0  0
   49.8987   28.8327   50.9210 H   0  0  0  0  0  0  0  0  0  0  0  0
   51.9969   29.5224   52.0458 H   0  0  0  0  0  0  0  0  0  0  0  0
   53.6812   33.9321   51.5231 H   0  0  0  0  0  0  0  0  0  0  0  0
   53.4745   36.5386   50.8325 H   0  0  0  0  0  0  0  0  0  0  0  0
   51.1736   36.7968   49.6838 H   0  0  0  0  0  0  0  0  0  0  0  0
  1 14  1  0
  2  5  1  0
  2  4  1  0
  3  2  1  0
  3  4  1  0
  4  1  1  0
  5  6  2  0
  7 12  2  0
  8  7  1  0
  9  8  2  0
  9 10  1  0
 10 11  2  0
 11 12  1  0
 11  5  1  0
 13  1  1  0
 14 15  1  0
 15 16  2  0
 16 17  1  0
 18 17  2  0
 19 18  1  0
 20 15  1  0
 20 19  2  0
 21 19  1  0
 21 22  1  0
 23 22  2  0
 24 23  1  0
 25 24  1  0
 25 21  2  0
  1 26  1  1
  2 27  1  6
  3 28  1  0
  3 29  1  0
  4 30  1  1
  7 31  1  0
  8 32  1  0
  9 33  1  0
 13 34  1  0
 13 35  1  0
 13 36  1  0
 14 37  1  0
 14 38  1  0
 16 39  1  0
 17 40  1  0
 22 41  1  0
 23 42  1  0
 24 43  1  0
M  ISO  8  26   8  27  13  28  13  29  13  30  13  31  14  32  14  33  14
M  ISO  8  34   8  35   8  36   8  37   8  38   8  39  14  40  14  41  14
M  ISO  2  42  14  43   9
M  END
>  <minimizedAffinity>  (1) 
-6.06549454

>  <minimizedRMSD>  (1) 
0.5622859

$$$$
