
     RDKit          3D

 46 49  0  0  1  0  0  0  0  0999 V2000
   48.2950   30.7640   47.8140 C   0  0  2  0  0  0  0  0  0  0  0  0
   47.0080   32.1730   46.1640 C   0  0  2  0  0  0  0  0  0  0  0  0
   46.6170   30.7620   45.7830 C   0  0  0  0  0  0  0  0  0  0  0  0
   47.0220   31.0440   47.1660 C   0  0  1  0  0  0  0  0  0  0  0  0
   45.8710   33.1720   46.3310 C   0  0  0  0  0  0  0  0  0  0  0  0
   45.1970   33.0530   47.4170 O   0  0  0  0  0  0  0  0  0  0  0  0
   44.4840   36.0180   44.5490 C   0  0  0  0  0  0  0  0  0  0  0  0
   45.1110   35.9660   43.2990 C   0  0  0  0  0  0  0  0  0  0  0  0
   46.0280   34.9250   43.1060 C   0  0  0  0  0  0  0  0  0  0  0  0
   46.2260   34.0720   44.1300 N   0  0  0  0  0  0  0  0  0  0  0  0
   45.5980   34.1570   45.3210 C   0  0  0  0  0  0  0  0  0  0  0  0
   44.7060   35.1450   45.5520 N   0  0  0  0  0  0  0  0  0  0  0  0
   48.8860   29.4220   47.4120 C   0  0  0  0  0  0  0  0  0  0  0  0
   48.1660   30.7850   49.3140 C   0  0  0  0  0  0  0  0  0  0  0  0
   49.4450   30.7560   50.0380 C   0  0  0  0  0  0  0  0  0  0  0  0
   50.0820   29.7170   50.6820 C   0  0  0  0  0  0  0  0  0  0  0  0
   51.2790   29.8790   51.2970 C   0  0  0  0  0  0  0  0  0  0  0  0
   51.8420   31.0930   51.2680 N   0  0  0  0  0  0  0  0  0  0  0  0
   51.2640   32.1500   50.6540 C   0  0  0  0  0  0  0  0  0  0  0  0
   50.0780   31.9620   50.0510 N   0  0  0  0  0  0  0  0  0  0  0  0
   51.9440   33.4430   50.6680 C   0  0  0  0  0  0  0  0  0  0  0  0
   53.3390   33.4490   50.7230 C   0  0  0  0  0  0  0  0  0  0  0  0
   53.9720   34.6840   50.7350 C   0  0  0  0  0  0  0  0  0  0  0  0
   53.2090   35.8320   50.6930 C   0  0  0  0  0  0  0  0  0  0  0  0
   51.8310   35.8210   50.6400 C   0  0  0  0  0  0  0  0  0  0  0  0
   51.1920   34.5750   50.6270 C   0  0  0  0  0  0  0  0  0  0  0  0
   48.9705   31.5633   47.4752 H   0  0  0  0  0  0  0  0  0  0  0  0
   47.7282   32.9139   45.7868 H   0  0  0  0  0  0  0  0  0  0  0  0
   45.5665   30.5268   45.5570 H   0  0  0  0  0  0  0  0  0  0  0  0
   46.9457   30.0505   45.0111 H   0  0  0  0  0  0  0  0  0  0  0  0
   46.5422   30.7481   48.1106 H   0  0  0  0  0  0  0  0  0  0  0  0
   43.7600   36.8271   44.7253 H   0  0  0  0  0  0  0  0  0  0  0  0
   44.8954   36.7025   42.5109 H   0  0  0  0  0  0  0  0  0  0  0  0
   46.5664   34.8082   42.1539 H   0  0  0  0  0  0  0  0  0  0  0  0
   49.1390   28.8474   48.3152 H   0  0  0  0  0  0  0  0  0  0  0  0
   48.1513   28.8619   46.8150 H   0  0  0  0  0  0  0  0  0  0  0  0
   49.7952   29.5858   46.8150 H   0  0  0  0  0  0  0  0  0  0  0  0
   47.6306   31.7025   49.5996 H   0  0  0  0  0  0  0  0  0  0  0  0
   47.6281   29.8672   49.5938 H   0  0  0  0  0  0  0  0  0  0  0  0
   49.6044   28.7262   50.6973 H   0  0  0  0  0  0  0  0  0  0  0  0
   51.7731   29.0377   51.8049 H   0  0  0  0  0  0  0  0  0  0  0  0
   53.9138   32.5117   50.7555 H   0  0  0  0  0  0  0  0  0  0  0  0
   55.0694   34.7464   50.7775 H   0  0  0  0  0  0  0  0  0  0  0  0
   53.7246   36.8036   50.7022 H   0  0  0  0  0  0  0  0  0  0  0  0
   51.2545   36.7573   50.6090 H   0  0  0  0  0  0  0  0  0  0  0  0
   50.0946   34.5128   50.5841 H   0  0  0  0  0  0  0  0  0  0  0  0
  1 14  1  0
  2  5  1  0
  2  4  1  0
  3  2  1  0
  3  4  1  0
  4  1  1  0
  5  6  2  0
  7 12  2  0
  8  7  1  0
  9  8  2  0
  9 10  1  0
 10 11  2  0
 11 12  1  0
 11  5  1  0
 13  1  1  0
 14 15  1  0
 15 20  1  0
 15 16  2  0
 16 17  1  0
 18 17  2  0
 19 21  1  0
 19 18  1  0
 20 19  2  0
 21 22  2  0
 22 23  1  0
 24 23  2  0
 25 24  1  0
 26 25  2  0
 26 21  1  0
  1 27  1  1
  2 28  1  6
  3 29  1  0
  3 30  1  0
  4 31  1  1
  7 32  1  0
  8 33  1  0
  9 34  1  0
 13 35  1  0
 13 36  1  0
 13 37  1  0
 14 38  1  0
 14 39  1  0
 16 40  1  0
 17 41  1  0
 22 42  1  0
 23 43  1  0
 24 44  1  0
 25 45  1  0
 26 46  1  0
M  ISO  8  27   8  28  13  29  13  30  13  31  13  32  14  33  14  34  14
M  ISO  8  35   8  36   8  37   8  38   8  39   8  40  14  41  14  42  14
M  ISO  4  43  14  44  14  45  14  46  14
M  END
>  <minimizedAffinity>  (1) 
-6.0282135

>  <minimizedRMSD>  (1) 
0.753027976

$$$$
