
     RDKit          3D

 43 46  0  0  1  0  0  0  0  0999 V2000
   48.3010   30.7290   47.8210 C   0  0  2  0  0  0  0  0  0  0  0  0
   46.9690   32.1090   46.1850 C   0  0  2  0  0  0  0  0  0  0  0  0
   46.5340   30.6930   45.8680 C   0  0  0  0  0  0  0  0  0  0  0  0
   47.0060   31.0150   47.2190 C   0  0  1  0  0  0  0  0  0  0  0  0
   45.8650   33.1410   46.3590 C   0  0  0  0  0  0  0  0  0  0  0  0
   45.2080   33.0450   47.4570 O   0  0  0  0  0  0  0  0  0  0  0  0
   44.5010   35.9850   44.5650 C   0  0  0  0  0  0  0  0  0  0  0  0
   45.1380   35.9320   43.3150 C   0  0  0  0  0  0  0  0  0  0  0  0
   46.0510   34.8920   43.1330 C   0  0  0  0  0  0  0  0  0  0  0  0
   46.2410   34.0370   44.1580 N   0  0  0  0  0  0  0  0  0  0  0  0
   45.6070   34.1240   45.3450 C   0  0  0  0  0  0  0  0  0  0  0  0
   44.7090   35.1180   45.5740 N   0  0  0  0  0  0  0  0  0  0  0  0
   49.0070   29.5480   47.1830 C   0  0  0  0  0  0  0  0  0  0  0  0
   48.1690   30.4530   49.2960 C   0  0  0  0  0  0  0  0  0  0  0  0
   49.4380   30.4970   50.0410 C   0  0  0  0  0  0  0  0  0  0  0  0
   50.2000   29.4770   50.5700 C   0  0  0  0  0  0  0  0  0  0  0  0
   51.3600   29.7150   51.2270 C   0  0  0  0  0  0  0  0  0  0  0  0
   51.7610   30.9850   51.3530 N   0  0  0  0  0  0  0  0  0  0  0  0
   51.0590   32.0280   50.8570 C   0  0  0  0  0  0  0  0  0  0  0  0
   49.9090   31.7640   50.2080 N   0  0  0  0  0  0  0  0  0  0  0  0
   51.5250   33.4120   51.0120 C   0  0  0  0  0  0  0  0  0  0  0  0
   52.2030   33.8700   52.1220 C   0  0  0  0  0  0  0  0  0  0  0  0
   52.4740   35.1740   51.9280 N   0  0  0  0  0  0  0  0  0  0  0  0
   51.9640   35.4830   50.7230 C   0  0  0  0  0  0  0  0  0  0  0  0
   51.3700   34.4160   50.1280 N   0  0  0  0  0  0  0  0  0  0  0  0
   48.9045   31.6326   47.6497 H   0  0  0  0  0  0  0  0  0  0  0  0
   47.6869   32.8230   45.7551 H   0  0  0  0  0  0  0  0  0  0  0  0
   45.4701   30.4716   45.6972 H   0  0  0  0  0  0  0  0  0  0  0  0
   46.8135   29.9494   45.1072 H   0  0  0  0  0  0  0  0  0  0  0  0
   46.5631   30.7615   48.1935 H   0  0  0  0  0  0  0  0  0  0  0  0
   43.7772   36.7962   44.7328 H   0  0  0  0  0  0  0  0  0  0  0  0
   44.9295   36.6679   42.5244 H   0  0  0  0  0  0  0  0  0  0  0  0
   46.5970   34.7740   42.1854 H   0  0  0  0  0  0  0  0  0  0  0  0
   49.4015   28.8880   47.9696 H   0  0  0  0  0  0  0  0  0  0  0  0
   48.2949   28.9889   46.5583 H   0  0  0  0  0  0  0  0  0  0  0  0
   49.8367   29.9106   46.5583 H   0  0  0  0  0  0  0  0  0  0  0  0
   47.4913   31.2047   49.7269 H   0  0  0  0  0  0  0  0  0  0  0  0
   47.7868   29.4257   49.3892 H   0  0  0  0  0  0  0  0  0  0  0  0
   49.8554   28.4387   50.4549 H   0  0  0  0  0  0  0  0  0  0  0  0
   51.9545   28.8890   51.6444 H   0  0  0  0  0  0  0  0  0  0  0  0
   52.4738   33.2760   53.0074 H   0  0  0  0  0  0  0  0  0  0  0  0
   52.0211   36.4843   50.2711 H   0  0  0  0  0  0  0  0  0  0  0  0
   50.9062   34.3825   49.2090 H   0  0  0  0  0  0  0  0  0  0  0  0
  1 14  1  0
  2  5  1  0
  2  4  1  0
  3  2  1  0
  3  4  1  0
  4  1  1  0
  5  6  2  0
  7 12  2  0
  8  7  1  0
  9  8  2  0
  9 10  1  0
 10 11  2  0
 11 12  1  0
 11  5  1  0
 13  1  1  0
 14 15  1  0
 15 20  1  0
 15 16  2  0
 16 17  1  0
 17 18  2  0
 19 21  1  0
 19 18  1  0
 20 19  2  0
 21 22  2  0
 23 22  1  0
 24 23  2  0
 25 24  1  0
 25 21  1  0
  1 26  1  1
  2 27  1  6
  3 28  1  0
  3 29  1  0
  4 30  1  1
  7 31  1  0
  8 32  1  0
  9 33  1  0
 13 34  1  0
 13 35  1  0
 13 36  1  0
 14 37  1  0
 14 38  1  0
 16 39  1  0
 17 40  1  0
 22 41  1  0
 24 42  1  0
 25 43  1  0
M  ISO  8  26   8  27  13  28  13  29  13  30  13  31  14  32  14  33  14
M  ISO  8  34   8  35   8  36   8  37   8  38   8  39  14  40  14  41  14
M  ISO  2  42  14  43   9
M  END
>  <minimizedAffinity>  (1) 
-6.01338577

>  <minimizedRMSD>  (1) 
0.964449048

$$$$
