
     RDKit          3D

 43 46  0  0  1  0  0  0  0  0999 V2000
   48.3790   30.8560   47.9580 C   0  0  2  0  0  0  0  0  0  0  0  0
   47.0340   32.1540   46.2670 C   0  0  2  0  0  0  0  0  0  0  0  0
   46.6680   30.7180   45.9590 C   0  0  0  0  0  0  0  0  0  0  0  0
   47.0900   31.0770   47.3190 C   0  0  1  0  0  0  0  0  0  0  0  0
   45.8820   33.1400   46.4010 C   0  0  0  0  0  0  0  0  0  0  0  0
   45.1910   33.0200   47.4750 O   0  0  0  0  0  0  0  0  0  0  0  0
   44.4990   35.9580   44.5730 C   0  0  0  0  0  0  0  0  0  0  0  0
   45.1450   35.8930   43.3250 C   0  0  0  0  0  0  0  0  0  0  0  0
   46.0640   34.8570   43.1550 C   0  0  0  0  0  0  0  0  0  0  0  0
   46.2560   34.0150   44.1900 N   0  0  0  0  0  0  0  0  0  0  0  0
   45.6180   34.1090   45.3740 C   0  0  0  0  0  0  0  0  0  0  0  0
   44.7170   35.0960   45.5880 N   0  0  0  0  0  0  0  0  0  0  0  0
   49.0670   29.5910   47.4780 C   0  0  0  0  0  0  0  0  0  0  0  0
   48.2490   30.7740   49.4560 C   0  0  0  0  0  0  0  0  0  0  0  0
   49.5150   30.7050   50.1860 C   0  0  0  0  0  0  0  0  0  0  0  0
   50.1000   29.6520   50.8620 C   0  0  0  0  0  0  0  0  0  0  0  0
   51.3120   29.7990   51.4810 C   0  0  0  0  0  0  0  0  0  0  0  0
   51.9270   30.9930   51.4200 N   0  0  0  0  0  0  0  0  0  0  0  0
   51.3850   32.0410   50.7690 C   0  0  0  0  0  0  0  0  0  0  0  0
   50.1950   31.8820   50.1660 N   0  0  0  0  0  0  0  0  0  0  0  0
   52.1000   33.2720   50.7490 N   0  0  0  0  0  0  0  0  0  0  0  0
   51.4230   34.4280   50.9530 C   0  0  0  0  0  0  0  0  0  0  0  0
   52.2770   35.4950   50.8980 C   0  0  0  0  0  0  0  0  0  0  0  0
   53.5000   34.9660   50.6540 N   0  0  0  0  0  0  0  0  0  0  0  0
   53.3800   33.6120   50.5650 C   0  0  0  0  0  0  0  0  0  0  0  0
   48.9913   31.7250   47.6752 H   0  0  0  0  0  0  0  0  0  0  0  0
   47.7319   32.8915   45.8439 H   0  0  0  0  0  0  0  0  0  0  0  0
   45.6194   30.4495   45.7634 H   0  0  0  0  0  0  0  0  0  0  0  0
   46.9990   29.9773   45.2162 H   0  0  0  0  0  0  0  0  0  0  0  0
   46.6327   30.8173   48.2852 H   0  0  0  0  0  0  0  0  0  0  0  0
   43.7681   36.7646   44.7319 H   0  0  0  0  0  0  0  0  0  0  0  0
   44.9368   36.6199   42.5261 H   0  0  0  0  0  0  0  0  0  0  0  0
   46.6125   34.7318   42.2098 H   0  0  0  0  0  0  0  0  0  0  0  0
   49.3899   28.9973   48.3459 H   0  0  0  0  0  0  0  0  0  0  0  0
   48.3658   29.0004   46.8701 H   0  0  0  0  0  0  0  0  0  0  0  0
   49.9439   29.8586   46.8701 H   0  0  0  0  0  0  0  0  0  0  0  0
   47.7054   31.6662   49.8002 H   0  0  0  0  0  0  0  0  0  0  0  0
   47.7222   29.8316   49.6666 H   0  0  0  0  0  0  0  0  0  0  0  0
   49.5844   28.6812   50.9035 H   0  0  0  0  0  0  0  0  0  0  0  0
   51.7736   28.9570   52.0176 H   0  0  0  0  0  0  0  0  0  0  0  0
   50.3407   34.4983   51.1367 H   0  0  0  0  0  0  0  0  0  0  0  0
   52.0242   36.5580   51.0250 H   0  0  0  0  0  0  0  0  0  0  0  0
   54.2048   32.9101   50.3724 H   0  0  0  0  0  0  0  0  0  0  0  0
  1 14  1  0
  2  5  1  0
  2  4  1  0
  3  2  1  0
  3  4  1  0
  4  1  1  0
  5  6  2  0
  7 12  2  0
  8  7  1  0
  9  8  2  0
  9 10  1  0
 10 11  2  0
 11 12  1  0
 11  5  1  0
 13  1  1  0
 14 15  1  0
 15 16  2  0
 16 17  1  0
 18 17  2  0
 19 18  1  0
 20 15  1  0
 20 19  2  0
 21 19  1  0
 21 22  1  0
 23 22  2  0
 24 23  1  0
 25 24  2  0
 25 21  1  0
  1 26  1  1
  2 27  1  6
  3 28  1  0
  3 29  1  0
  4 30  1  1
  7 31  1  0
  8 32  1  0
  9 33  1  0
 13 34  1  0
 13 35  1  0
 13 36  1  0
 14 37  1  0
 14 38  1  0
 16 39  1  0
 17 40  1  0
 22 41  1  0
 23 42  1  0
 25 43  1  0
M  ISO  8  26   8  27  13  28  13  29  13  30  13  31  14  32  14  33  14
M  ISO  8  34   8  35   8  36   8  37   8  38   8  39  14  40  14  41  14
M  ISO  2  42  14  43  14
M  END
>  <minimizedAffinity>  (1) 
-6.00930691

>  <minimizedRMSD>  (1) 
0.751334667

$$$$
