
     RDKit          3D

 42 45  0  0  1  0  0  0  0  0999 V2000
   48.3650   30.8460   47.9500 C   0  0  2  0  0  0  0  0  0  0  0  0
   47.0220   32.1490   46.2630 C   0  0  2  0  0  0  0  0  0  0  0  0
   46.6420   30.7150   45.9610 C   0  0  0  0  0  0  0  0  0  0  0  0
   47.0710   31.0740   47.3190 C   0  0  1  0  0  0  0  0  0  0  0  0
   45.8760   33.1420   46.4010 C   0  0  0  0  0  0  0  0  0  0  0  0
   45.1890   33.0270   47.4780 O   0  0  0  0  0  0  0  0  0  0  0  0
   44.5010   35.9560   44.5710 C   0  0  0  0  0  0  0  0  0  0  0  0
   45.1430   35.8940   43.3240 C   0  0  0  0  0  0  0  0  0  0  0  0
   46.0620   34.8600   43.1560 C   0  0  0  0  0  0  0  0  0  0  0  0
   46.2520   34.0190   44.1920 N   0  0  0  0  0  0  0  0  0  0  0  0
   45.6130   34.1140   45.3770 C   0  0  0  0  0  0  0  0  0  0  0  0
   44.7120   35.1020   45.5890 N   0  0  0  0  0  0  0  0  0  0  0  0
   49.0560   29.5950   47.4340 C   0  0  0  0  0  0  0  0  0  0  0  0
   48.2310   30.7170   49.4440 C   0  0  0  0  0  0  0  0  0  0  0  0
   49.5040   30.6480   50.1720 C   0  0  0  0  0  0  0  0  0  0  0  0
   50.1020   29.5860   50.8210 C   0  0  0  0  0  0  0  0  0  0  0  0
   51.3080   29.7240   51.4410 C   0  0  0  0  0  0  0  0  0  0  0  0
   51.9090   30.9210   51.4090 N   0  0  0  0  0  0  0  0  0  0  0  0
   51.3600   31.9910   50.7840 C   0  0  0  0  0  0  0  0  0  0  0  0
   50.1700   31.8330   50.1790 N   0  0  0  0  0  0  0  0  0  0  0  0
   52.0720   33.2240   50.8010 N   0  0  0  0  0  0  0  0  0  0  0  0
   53.3150   33.6160   50.5470 C   0  0  0  0  0  0  0  0  0  0  0  0
   53.4440   34.9430   50.7280 N   0  0  0  0  0  0  0  0  0  0  0  0
   52.2190   35.3850   51.1120 C   0  0  0  0  0  0  0  0  0  0  0  0
   51.3960   34.3160   51.1490 N   0  0  0  0  0  0  0  0  0  0  0  0
   48.9746   31.7249   47.6933 H   0  0  0  0  0  0  0  0  0  0  0  0
   47.7250   32.8787   45.8348 H   0  0  0  0  0  0  0  0  0  0  0  0
   45.5904   30.4555   45.7691 H   0  0  0  0  0  0  0  0  0  0  0  0
   46.9643   29.9689   45.2197 H   0  0  0  0  0  0  0  0  0  0  0  0
   46.6138   30.8206   48.2868 H   0  0  0  0  0  0  0  0  0  0  0  0
   43.7706   36.7635   44.7275 H   0  0  0  0  0  0  0  0  0  0  0  0
   44.9326   36.6203   42.5251 H   0  0  0  0  0  0  0  0  0  0  0  0
   46.6125   34.7347   42.2119 H   0  0  0  0  0  0  0  0  0  0  0  0
   49.3930   28.9848   48.2849 H   0  0  0  0  0  0  0  0  0  0  0  0
   48.3514   29.0130   46.8218 H   0  0  0  0  0  0  0  0  0  0  0  0
   49.9238   29.8815   46.8218 H   0  0  0  0  0  0  0  0  0  0  0  0
   47.6718   31.5890   49.8141 H   0  0  0  0  0  0  0  0  0  0  0  0
   47.7167   29.7621   49.6278 H   0  0  0  0  0  0  0  0  0  0  0  0
   49.5953   28.6098   50.8380 H   0  0  0  0  0  0  0  0  0  0  0  0
   51.7769   28.8724   51.9557 H   0  0  0  0  0  0  0  0  0  0  0  0
   54.1288   32.9466   50.2314 H   0  0  0  0  0  0  0  0  0  0  0  0
   51.9471   36.4241   51.3495 H   0  0  0  0  0  0  0  0  0  0  0  0
  1 14  1  0
  2  5  1  0
  2  4  1  0
  3  2  1  0
  3  4  1  0
  4  1  1  0
  5  6  2  0
  7 12  2  0
  8  7  1  0
  9  8  2  0
  9 10  1  0
 10 11  2  0
 11 12  1  0
 11  5  1  0
 13  1  1  0
 14 15  1  0
 15 20  1  0
 15 16  2  0
 16 17  1  0
 18 17  2  0
 19 21  1  0
 19 18  1  0
 20 19  2  0
 21 25  1  0
 22 23  2  0
 22 21  1  0
 23 24  1  0
 24 25  2  0
  1 26  1  1
  2 27  1  6
  3 28  1  0
  3 29  1  0
  4 30  1  1
  7 31  1  0
  8 32  1  0
  9 33  1  0
 13 34  1  0
 13 35  1  0
 13 36  1  0
 14 37  1  0
 14 38  1  0
 16 39  1  0
 17 40  1  0
 22 41  1  0
 24 42  1  0
M  ISO  8  26   8  27  13  28  13  29  13  30  13  31  14  32  14  33  14
M  ISO  8  34   8  35   8  36   8  37   8  38   8  39  14  40  14  41  14
M  ISO  1  42  14
M  END
>  <minimizedAffinity>  (1) 
-6.02038383

>  <minimizedRMSD>  (1) 
0.775890946

$$$$
