
     RDKit          3D

 42 45  0  0  1  0  0  0  0  0999 V2000
   48.3440   30.7860   47.9020 C   0  0  2  0  0  0  0  0  0  0  0  0
   47.0020   32.1210   46.2380 C   0  0  2  0  0  0  0  0  0  0  0  0
   46.6000   30.6950   45.9290 C   0  0  0  0  0  0  0  0  0  0  0  0
   47.0470   31.0390   47.2850 C   0  0  1  0  0  0  0  0  0  0  0  0
   45.8780   33.1330   46.3910 C   0  0  0  0  0  0  0  0  0  0  0  0
   45.2010   33.0270   47.4770 O   0  0  0  0  0  0  0  0  0  0  0  0
   44.5030   35.9560   44.5720 C   0  0  0  0  0  0  0  0  0  0  0  0
   45.1450   35.8970   43.3260 C   0  0  0  0  0  0  0  0  0  0  0  0
   46.0640   34.8650   43.1550 C   0  0  0  0  0  0  0  0  0  0  0  0
   46.2590   34.0200   44.1870 N   0  0  0  0  0  0  0  0  0  0  0  0
   45.6200   34.1100   45.3720 C   0  0  0  0  0  0  0  0  0  0  0  0
   44.7150   35.0970   45.5930 N   0  0  0  0  0  0  0  0  0  0  0  0
   49.0570   29.5840   47.3120 C   0  0  0  0  0  0  0  0  0  0  0  0
   48.2180   30.5620   49.3850 C   0  0  0  0  0  0  0  0  0  0  0  0
   49.4710   30.4570   50.1140 C   0  0  0  0  0  0  0  0  0  0  0  0
   50.1810   29.3700   50.5540 C   0  0  0  0  0  0  0  0  0  0  0  0
   51.3510   29.4800   51.2220 C   0  0  0  0  0  0  0  0  0  0  0  0
   51.8350   30.7280   51.4630 N   0  0  0  0  0  0  0  0  0  0  0  0
   51.1750   31.8280   51.0520 C   0  0  0  0  0  0  0  0  0  0  0  0
   50.0160   31.6830   50.3910 N   0  0  0  0  0  0  0  0  0  0  0  0
   51.7230   33.1810   51.3380 C   0  0  0  0  0  0  0  0  0  0  0  0
   52.6550   33.5620   52.5260 C   0  0  0  0  0  0  0  0  0  0  0  0
   52.7660   35.3590   52.0270 S   0  0  0  0  0  0  0  0  0  0  0  0
   51.6960   35.2710   50.5330 C   0  0  0  0  0  0  0  0  0  0  0  0
   51.1880   33.8580   50.3260 N   0  0  0  0  0  0  0  0  0  0  0  0
   48.9364   31.6901   47.6979 H   0  0  0  0  0  0  0  0  0  0  0  0
   47.7108   32.8441   45.8080 H   0  0  0  0  0  0  0  0  0  0  0  0
   45.5432   30.4509   45.7456 H   0  0  0  0  0  0  0  0  0  0  0  0
   46.9049   29.9501   45.1792 H   0  0  0  0  0  0  0  0  0  0  0  0
   46.5960   30.7867   48.2561 H   0  0  0  0  0  0  0  0  0  0  0  0
   43.7718   36.7626   44.7296 H   0  0  0  0  0  0  0  0  0  0  0  0
   44.9342   36.6251   42.5289 H   0  0  0  0  0  0  0  0  0  0  0  0
   46.6126   34.7433   42.2093 H   0  0  0  0  0  0  0  0  0  0  0  0
   49.4351   28.9466   48.1248 H   0  0  0  0  0  0  0  0  0  0  0  0
   48.3540   29.0087   46.6917 H   0  0  0  0  0  0  0  0  0  0  0  0
   49.8989   29.9251   46.6917 H   0  0  0  0  0  0  0  0  0  0  0  0
   47.6506   31.4044   49.8073 H   0  0  0  0  0  0  0  0  0  0  0  0
   47.7207   29.5877   49.5005 H   0  0  0  0  0  0  0  0  0  0  0  0
   49.7813   28.3647   50.3548 H   0  0  0  0  0  0  0  0  0  0  0  0
   51.8957   28.5864   51.5607 H   0  0  0  0  0  0  0  0  0  0  0  0
   53.0891   32.9844   53.3554 H   0  0  0  0  0  0  0  0  0  0  0  0
   51.4582   36.1245   49.8811 H   0  0  0  0  0  0  0  0  0  0  0  0
  1 14  1  0
  2  5  1  0
  2  4  1  0
  3  2  1  0
  3  4  1  0
  4  1  1  0
  5  6  2  0
  7 12  2  0
  8  7  1  0
  9  8  2  0
  9 10  1  0
 10 11  2  0
 11 12  1  0
 11  5  1  0
 13  1  1  0
 14 15  1  0
 15 20  1  0
 15 16  2  0
 16 17  1  0
 17 18  2  0
 19 21  1  0
 19 18  1  0
 20 19  2  0
 21 22  2  0
 23 22  1  0
 24 23  1  0
 25 24  2  0
 25 21  1  0
  1 26  1  1
  2 27  1  6
  3 28  1  0
  3 29  1  0
  4 30  1  1
  7 31  1  0
  8 32  1  0
  9 33  1  0
 13 34  1  0
 13 35  1  0
 13 36  1  0
 14 37  1  0
 14 38  1  0
 16 39  1  0
 17 40  1  0
 22 41  1  0
 24 42  1  0
M  ISO  8  26   8  27  13  28  13  29  13  30  13  31  14  32  14  33  14
M  ISO  8  34   8  35   8  36   8  37   8  38   8  39  14  40  14  41  14
M  ISO  1  42  14
M  END
>  <minimizedAffinity>  (1) 
-5.81889486

>  <minimizedRMSD>  (1) 
1.10141861

$$$$
