
     RDKit          3D

 37 39  0  0  1  0  0  0  0  0999 V2000
   48.1910   30.5630   47.6210 C   0  0  2  0  0  0  0  0  0  0  0  0
   47.0470   32.1700   46.0540 C   0  0  2  0  0  0  0  0  0  0  0  0
   46.6740   30.8200   45.4820 C   0  0  0  0  0  0  0  0  0  0  0  0
   46.9730   30.9350   46.9130 C   0  0  1  0  0  0  0  0  0  0  0  0
   45.9070   33.1640   46.2450 C   0  0  0  0  0  0  0  0  0  0  0  0
   45.2390   33.0210   47.3330 O   0  0  0  0  0  0  0  0  0  0  0  0
   44.4870   36.0250   44.5170 C   0  0  0  0  0  0  0  0  0  0  0  0
   45.1150   36.0020   43.2620 C   0  0  0  0  0  0  0  0  0  0  0  0
   46.0400   34.9820   43.0510 C   0  0  0  0  0  0  0  0  0  0  0  0
   46.2520   34.1140   44.0610 N   0  0  0  0  0  0  0  0  0  0  0  0
   45.6290   34.1670   45.2560 C   0  0  0  0  0  0  0  0  0  0  0  0
   44.7240   35.1340   45.5120 N   0  0  0  0  0  0  0  0  0  0  0  0
   48.6810   29.1670   47.2720 C   0  0  0  0  0  0  0  0  0  0  0  0
   48.0060   30.6310   49.1130 C   0  0  0  0  0  0  0  0  0  0  0  0
   49.2450   30.7000   49.8910 C   0  0  0  0  0  0  0  0  0  0  0  0
   49.9050   29.7240   50.6080 C   0  0  0  0  0  0  0  0  0  0  0  0
   51.0620   29.9830   51.2710 C   0  0  0  0  0  0  0  0  0  0  0  0
   51.5660   31.2340   51.2140 N   0  0  0  0  0  0  0  0  0  0  0  0
   50.9510   32.2190   50.5230 C   0  0  0  0  0  0  0  0  0  0  0  0
   49.8060   31.9330   49.8760 N   0  0  0  0  0  0  0  0  0  0  0  0
   51.6930   33.8500   50.5040 S   0  0  0  0  0  0  0  0  0  0  0  0
   48.9447   31.2946   47.2943 H   0  0  0  0  0  0  0  0  0  0  0  0
   47.8016   32.9367   45.8244 H   0  0  0  0  0  0  0  0  0  0  0  0
   45.6421   30.6311   45.1512 H   0  0  0  0  0  0  0  0  0  0  0  0
   47.0547   30.1962   44.6598 H   0  0  0  0  0  0  0  0  0  0  0  0
   46.4183   30.5390   47.7764 H   0  0  0  0  0  0  0  0  0  0  0  0
   43.7516   36.8207   44.7069 H   0  0  0  0  0  0  0  0  0  0  0  0
   44.8890   36.7491   42.4869 H   0  0  0  0  0  0  0  0  0  0  0  0
   46.5776   34.8881   42.0959 H   0  0  0  0  0  0  0  0  0  0  0  0
   48.8781   28.6056   48.1972 H   0  0  0  0  0  0  0  0  0  0  0  0
   47.9123   28.6451   46.6831 H   0  0  0  0  0  0  0  0  0  0  0  0
   49.6072   29.2401   46.6831 H   0  0  0  0  0  0  0  0  0  0  0  0
   47.4098   31.5267   49.3418 H   0  0  0  0  0  0  0  0  0  0  0  0
   47.5143   29.6909   49.4035 H   0  0  0  0  0  0  0  0  0  0  0  0
   49.4832   28.7087   50.6439 H   0  0  0  0  0  0  0  0  0  0  0  0
   51.5751   29.1935   51.8398 H   0  0  0  0  0  0  0  0  0  0  0  0
   51.8878   34.2781   51.7907 H   0  0  0  0  0  0  0  0  0  0  0  0
  1 14  1  0
  2  5  1  0
  2  4  1  0
  3  2  1  0
  3  4  1  0
  4  1  1  0
  5  6  2  0
  7 12  2  0
  8  7  1  0
  9  8  2  0
  9 10  1  0
 10 11  2  0
 11 12  1  0
 11  5  1  0
 13  1  1  0
 14 15  1  0
 15 16  2  0
 16 17  1  0
 18 17  2  0
 19 18  1  0
 20 15  1  0
 20 19  2  0
 21 19  1  0
  1 22  1  6
  2 23  1  6
  3 24  1  0
  3 25  1  0
  4 26  1  1
  7 27  1  0
  8 28  1  0
  9 29  1  0
 13 30  1  0
 13 31  1  0
 13 32  1  0
 14 33  1  0
 14 34  1  0
 16 35  1  0
 17 36  1  0
 21 37  1  0
M  ISO  8  22   8  23  13  24  13  25  13  26  13  27  14  28  14  29  14
M  ISO  8  30   8  31   8  32   8  33   8  34   8  35  14  36  14  37  11
M  END
>  <minimizedAffinity>  (1) 
-5.37323523

>  <minimizedRMSD>  (1) 
0.293012708

$$$$
