
     RDKit          3D

 42 44  0  0  1  0  0  0  0  0999 V2000
   48.1940   30.6900   47.6630 C   0  0  2  0  0  0  0  0  0  0  0  0
   46.9500   32.1820   46.0590 C   0  0  2  0  0  0  0  0  0  0  0  0
   46.5220   30.7920   45.6320 C   0  0  0  0  0  0  0  0  0  0  0  0
   46.9300   31.0280   47.0230 C   0  0  1  0  0  0  0  0  0  0  0  0
   45.8500   33.2130   46.2430 C   0  0  0  0  0  0  0  0  0  0  0  0
   45.1890   33.1030   47.3370 O   0  0  0  0  0  0  0  0  0  0  0  0
   44.4780   36.0740   44.4790 C   0  0  0  0  0  0  0  0  0  0  0  0
   45.1100   36.0230   43.2220 C   0  0  0  0  0  0  0  0  0  0  0  0
   46.0230   34.9890   43.0280 C   0  0  0  0  0  0  0  0  0  0  0  0
   46.2200   34.1320   44.0500 N   0  0  0  0  0  0  0  0  0  0  0  0
   45.5950   34.2110   45.2430 C   0  0  0  0  0  0  0  0  0  0  0  0
   44.6980   35.1960   45.4880 N   0  0  0  0  0  0  0  0  0  0  0  0
   48.8100   29.4150   47.1300 C   0  0  0  0  0  0  0  0  0  0  0  0
   48.0270   30.5280   49.1510 C   0  0  0  0  0  0  0  0  0  0  0  0
   49.2720   30.6680   49.9240 C   0  0  0  0  0  0  0  0  0  0  0  0
   49.9560   29.7500   50.6910 C   0  0  0  0  0  0  0  0  0  0  0  0
   51.1120   30.0730   51.3330 C   0  0  0  0  0  0  0  0  0  0  0  0
   51.5790   31.3230   51.2010 N   0  0  0  0  0  0  0  0  0  0  0  0
   50.9480   32.2510   50.4640 C   0  0  0  0  0  0  0  0  0  0  0  0
   49.8090   31.9130   49.8390 N   0  0  0  0  0  0  0  0  0  0  0  0
   51.5100   33.6370   50.3480 C   0  0  0  0  0  0  0  0  0  0  0  0
   51.9320   34.1430   51.6870 C   0  0  0  0  0  0  0  0  0  0  0  0
   48.8638   31.5317   47.4329 H   0  0  0  0  0  0  0  0  0  0  0  0
   47.6926   32.9142   45.7091 H   0  0  0  0  0  0  0  0  0  0  0  0
   45.4665   30.5911   45.3964 H   0  0  0  0  0  0  0  0  0  0  0  0
   46.8334   30.0941   44.8408 H   0  0  0  0  0  0  0  0  0  0  0  0
   46.4386   30.7229   47.9586 H   0  0  0  0  0  0  0  0  0  0  0  0
   43.7544   36.8837   44.6548 H   0  0  0  0  0  0  0  0  0  0  0  0
   44.8943   36.7605   42.4349 H   0  0  0  0  0  0  0  0  0  0  0  0
   46.5631   34.8759   42.0764 H   0  0  0  0  0  0  0  0  0  0  0  0
   49.1182   28.7770   47.9714 H   0  0  0  0  0  0  0  0  0  0  0  0
   48.0711   28.8798   46.5155 H   0  0  0  0  0  0  0  0  0  0  0  0
   49.6885   29.6612   46.5155 H   0  0  0  0  0  0  0  0  0  0  0  0
   47.3170   31.2913   49.5021 H   0  0  0  0  0  0  0  0  0  0  0  0
   47.6704   29.5005   49.3157 H   0  0  0  0  0  0  0  0  0  0  0  0
   49.5573   28.7293   50.7870 H   0  0  0  0  0  0  0  0  0  0  0  0
   51.6475   29.3302   51.9424 H   0  0  0  0  0  0  0  0  0  0  0  0
   52.3811   33.6195   49.6765 H   0  0  0  0  0  0  0  0  0  0  0  0
   50.7336   34.3033   49.9441 H   0  0  0  0  0  0  0  0  0  0  0  0
   51.4397   33.5527   52.4739 H   0  0  0  0  0  0  0  0  0  0  0  0
   53.0234   34.0494   51.7871 H   0  0  0  0  0  0  0  0  0  0  0  0
   51.6439   35.1999   51.7871 H   0  0  0  0  0  0  0  0  0  0  0  0
  1 14  1  0
  2  5  1  0
  2  4  1  0
  3  2  1  0
  3  4  1  0
  4  1  1  0
  5  6  2  0
  7 12  2  0
  8  7  1  0
  9  8  2  0
  9 10  1  0
 10 11  2  0
 11 12  1  0
 11  5  1  0
 13  1  1  0
 14 15  1  0
 15 16  2  0
 16 17  1  0
 18 17  2  0
 19 18  1  0
 20 15  1  0
 20 19  2  0
 21 19  1  0
 21 22  1  0
  1 23  1  1
  2 24  1  6
  3 25  1  0
  3 26  1  0
  4 27  1  1
  7 28  1  0
  8 29  1  0
  9 30  1  0
 13 31  1  0
 13 32  1  0
 13 33  1  0
 14 34  1  0
 14 35  1  0
 16 36  1  0
 17 37  1  0
 21 38  1  0
 21 39  1  0
 22 40  1  0
 22 41  1  0
 22 42  1  0
M  ISO  8  23   8  24  13  25  13  26  13  27  13  28  14  29  14  30  14
M  ISO  8  31   8  32   8  33   8  34   8  35   8  36  14  37  14  38   8
M  ISO  4  39   8  40   8  41   8  42   8
M  END
>  <minimizedAffinity>  (1) 
-5.48576498

>  <minimizedRMSD>  (1) 
0.714632988

$$$$
