
     RDKit          3D

 23 24  0  0  0  0  0  0  0  0999 V2000
   44.4430   36.0080   44.7120 C   0  0  0  0  0  0  0  0  0  0  0  0
   45.0460   35.9430   43.4470 C   0  0  0  0  0  0  0  0  0  0  0  0
   45.9420   34.9000   43.1930 C   0  0  0  0  0  0  0  0  0  0  0  0
   46.1910   33.9930   44.1860 N   0  0  0  0  0  0  0  0  0  0  0  0
   45.5920   34.0890   45.3930 C   0  0  0  0  0  0  0  0  0  0  0  0
   44.7260   35.0870   45.6510 N   0  0  0  0  0  0  0  0  0  0  0  0
   45.8930   33.1120   46.3890 N   0  0  0  0  0  0  0  0  0  0  0  0
   45.1580   33.1610   47.5170 C   0  0  0  0  0  0  0  0  0  0  0  0
   45.4450   32.2180   48.4820 C   0  0  0  0  0  0  0  0  0  0  0  0
   46.4480   31.3080   48.2280 C   0  0  0  0  0  0  0  0  0  0  0  0
   46.8210   30.2970   49.1560 N   0  0  0  0  0  0  0  0  0  0  0  0
   47.1500   31.3190   47.0600 N   0  0  0  0  0  0  0  0  0  0  0  0
   46.8770   32.2410   46.1030 C   0  0  0  0  0  0  0  0  0  0  0  0
   47.4920   32.2900   45.0200 O   0  0  0  0  0  0  0  0  0  0  0  0
   46.5660   34.8180   41.9090 N   0  0  0  0  0  0  0  0  0  0  0  0
   43.7337   36.8179   44.9378 H   0  0  0  0  0  0  0  0  0  0  0  0
   44.8198   36.6931   42.6749 H   0  0  0  0  0  0  0  0  0  0  0  0
   44.3695   33.9143   47.6611 H   0  0  0  0  0  0  0  0  0  0  0  0
   44.8875   32.1931   49.4299 H   0  0  0  0  0  0  0  0  0  0  0  0
   47.5775   29.6379   48.9231 H   0  0  0  0  0  0  0  0  0  0  0  0
   46.3347   30.2239   50.0610 H   0  0  0  0  0  0  0  0  0  0  0  0
   47.2284   34.0558   41.7060 H   0  0  0  0  0  0  0  0  0  0  0  0
   46.3531   35.5211   41.1871 H   0  0  0  0  0  0  0  0  0  0  0  0
  1  6  2  0
  2  1  1  0
  3  2  2  0
  3  4  1  0
  4  5  2  0
  5  6  1  0
  5  7  1  0
  7  8  1  0
  8  9  2  0
 10  9  1  0
 10 11  1  0
 12 10  2  0
 13  7  1  0
 13 12  1  0
 14 13  2  0
 15  3  1  0
  1 16  1  0
  2 17  1  0
  8 18  1  0
  9 19  1  0
 11 20  1  0
 11 21  1  0
 15 22  1  0
 15 23  1  0
M  ISO  4  16  14  17  14  18  14  19  14
M  END
>  <minimizedAffinity>  (1) 
-5.46522903

>  <minimizedRMSD>  (1) 
0.197408915

$$$$
