
     RDKit          3D

 30 32  0  0  1  0  0  0  0  0999 V2000
   46.5750   32.4420   44.9730 C   0  0  0  0  0  0  0  0  0  0  0  0
   47.2630   31.4240   44.9290 N   0  0  0  0  0  0  0  0  0  0  0  0
   47.9680   30.4290   44.7830 C   0  0  0  0  0  0  0  0  0  0  0  0
   47.7870   30.0980   46.0680 N   0  0  0  0  0  0  0  0  0  0  0  0
   47.0230   30.8580   46.8980 C   0  0  0  0  0  0  0  0  0  0  0  0
   46.9750   30.3050   48.2020 C   0  0  0  0  0  0  0  0  0  0  0  0
   46.2210   31.0140   49.0870 C   0  0  0  0  0  0  0  0  0  0  0  0
   45.5420   32.1710   48.7980 C   0  0  0  0  0  0  0  0  0  0  0  0
   45.6950   32.5680   47.4860 C   0  0  0  0  0  0  0  0  0  0  0  0
   46.4140   32.0240   46.3700 C   0  0  0  0  0  0  0  0  0  0  0  0
   44.5380   35.5260   45.2530 C   0  0  0  0  0  0  0  0  0  0  0  0
   44.4180   35.7390   43.8900 C   0  0  0  0  0  0  0  0  0  0  0  0
   45.0490   34.7870   43.0460 C   0  0  0  0  0  0  0  0  0  0  0  0
   45.6830   33.7950   43.7170 N   0  0  0  0  0  0  0  0  0  0  0  0
   45.7850   33.6100   45.0210 C   0  0  0  0  0  0  0  0  0  0  0  0
   45.1950   34.5030   45.7320 N   0  0  0  0  0  0  0  0  0  0  0  0
   44.9580   34.9420   41.6370 N   0  0  0  0  0  0  0  0  0  0  0  0
   47.4618   33.0304   45.2512 H   0  0  0  0  0  0  0  0  0  0  0  0
   47.8414   31.7499   45.7165 H   0  0  0  0  0  0  0  0  0  0  0  0
   47.5633   29.6948   44.0709 H   0  0  0  0  0  0  0  0  0  0  0  0
   48.9852   30.5276   44.3760 H   0  0  0  0  0  0  0  0  0  0  0  0
   48.2369   29.2479   46.4365 H   0  0  0  0  0  0  0  0  0  0  0  0
   47.5030   29.3799   48.4765 H   0  0  0  0  0  0  0  0  0  0  0  0
   46.1506   30.6288   50.1149 H   0  0  0  0  0  0  0  0  0  0  0  0
   44.9397   32.7231   49.5345 H   0  0  0  0  0  0  0  0  0  0  0  0
   45.1530   33.4944   47.2452 H   0  0  0  0  0  0  0  0  0  0  0  0
   44.0685   36.2358   45.9500 H   0  0  0  0  0  0  0  0  0  0  0  0
   43.8644   36.5982   43.4834 H   0  0  0  0  0  0  0  0  0  0  0  0
   44.4458   35.7420   41.2389 H   0  0  0  0  0  0  0  0  0  0  0  0
   45.4042   34.2543   41.0134 H   0  0  0  0  0  0  0  0  0  0  0  0
  1 15  1  0
  1 10  1  0
  2  1  1  0
  3  2  1  0
  3  4  1  0
  4  5  1  0
  5  6  2  0
  6  7  1  0
  8  7  2  0
  9  8  1  0
 10  5  1  0
 10  9  2  0
 11 16  2  0
 12 11  1  0
 13 14  1  0
 13 12  2  0
 14 15  2  0
 15 16  1  0
 17 13  1  0
  1 18  1  0
  2 19  1  0
  3 20  1  0
  3 21  1  0
  4 22  1  0
  6 23  1  0
  7 24  1  0
  8 25  1  0
  9 26  1  0
 11 27  1  0
 12 28  1  0
 17 29  1  0
 17 30  1  0
M  ISO  8  18  13  19   5  20  13  21  13  23  14  24  14  25  14  26  14
M  ISO  2  27  14  28  14
M  END
>  <minimizedAffinity>  (1) 
-5.1679492

>  <minimizedRMSD>  (1) 
1.84030008

$$$$
