
     RDKit          3D

 18 19  0  0  0  0  0  0  0  0999 V2000
   44.4670   35.9750   44.5820 C   0  0  0  0  0  0  0  0  0  0  0  0
   45.1280   35.8840   43.3350 C   0  0  0  0  0  0  0  0  0  0  0  0
   46.0620   34.8740   43.1530 C   0  0  0  0  0  0  0  0  0  0  0  0
   46.3080   34.0090   44.1840 N   0  0  0  0  0  0  0  0  0  0  0  0
   45.6650   34.1200   45.3590 C   0  0  0  0  0  0  0  0  0  0  0  0
   44.7600   35.0830   45.5610 N   0  0  0  0  0  0  0  0  0  0  0  0
   45.8730   33.2580   46.4670 N   0  0  0  0  0  0  0  0  0  0  0  0
   46.9230   32.4450   46.6680 C   0  0  0  0  0  0  0  0  0  0  0  0
   46.7530   31.7800   47.8480 N   0  0  0  0  0  0  0  0  0  0  0  0
   45.5680   32.2100   48.3670 C   0  0  0  0  0  0  0  0  0  0  0  0
   45.0550   33.1100   47.5020 N   0  0  0  0  0  0  0  0  0  0  0  0
   46.7370   34.7600   41.9120 N   0  0  0  0  0  0  0  0  0  0  0  0
   43.7204   36.7637   44.7568 H   0  0  0  0  0  0  0  0  0  0  0  0
   44.9067   36.5977   42.5277 H   0  0  0  0  0  0  0  0  0  0  0  0
   47.7822   32.3330   45.9904 H   0  0  0  0  0  0  0  0  0  0  0  0
   45.1143   31.8840   49.3146 H   0  0  0  0  0  0  0  0  0  0  0  0
   47.4314   34.0126   41.7702 H   0  0  0  0  0  0  0  0  0  0  0  0
   46.5331   35.4245   41.1519 H   0  0  0  0  0  0  0  0  0  0  0  0
  1  6  2  0
  2  1  1  0
  3  2  2  0
  3  4  1  0
  4  5  2  0
  5  6  1  0
  5  7  1  0
  7  8  1  0
  7 11  1  0
  8  9  2  0
  9 10  1  0
 11 10  2  0
 12  3  1  0
  1 13  1  0
  2 14  1  0
  8 15  1  0
 10 16  1  0
 12 17  1  0
 12 18  1  0
M  ISO  4  13  14  14  14  15  14  16  14
M  END
>  <minimizedAffinity>  (1) 
-4.56025124

>  <minimizedRMSD>  (1) 
0.213446647

$$$$
