
     RDKit          3D

 21 21  0  0  0  0  0  0  0  0999 V2000
   46.6360   33.4290   44.6800 C   0  0  0  0  0  0  0  0  0  0  0  0
   45.4030   34.0730   44.8920 C   0  0  0  0  0  0  0  0  0  0  0  0
   45.0290   35.1000   44.0320 C   0  0  0  0  0  0  0  0  0  0  0  0
   45.8840   35.4410   43.0060 N   0  0  0  0  0  0  0  0  0  0  0  0
   47.0650   34.7980   42.8320 C   0  0  0  0  0  0  0  0  0  0  0  0
   47.4250   33.8140   43.6560 N   0  0  0  0  0  0  0  0  0  0  0  0
   43.7900   35.7760   44.2120 N   0  0  0  0  0  0  0  0  0  0  0  0
   47.9120   35.2480   41.6910 C   0  0  0  0  0  0  0  0  0  0  0  0
   49.3700   35.2520   42.1130 C   0  0  0  0  0  0  0  0  0  0  0  0
   47.6730   34.4060   40.4620 C   0  0  0  0  0  0  0  0  0  0  0  0
   46.9553   32.6146   45.3469 H   0  0  0  0  0  0  0  0  0  0  0  0
   44.7476   33.7700   45.7219 H   0  0  0  0  0  0  0  0  0  0  0  0
   43.5199   36.5356   43.5710 H   0  0  0  0  0  0  0  0  0  0  0  0
   43.1632   35.5057   44.9833 H   0  0  0  0  0  0  0  0  0  0  0  0
   47.6316   36.2756   41.4166 H   0  0  0  0  0  0  0  0  0  0  0  0
   49.4339   35.2522   43.2111 H   0  0  0  0  0  0  0  0  0  0  0  0
   49.8688   34.3552   41.7168 H   0  0  0  0  0  0  0  0  0  0  0  0
   49.8639   36.1515   41.7168 H   0  0  0  0  0  0  0  0  0  0  0  0
   47.3842   33.3887   40.7650 H   0  0  0  0  0  0  0  0  0  0  0  0
   46.8662   34.8530   39.8625 H   0  0  0  0  0  0  0  0  0  0  0  0
   48.5943   34.3625   39.8625 H   0  0  0  0  0  0  0  0  0  0  0  0
  1  2  2  0
  3  7  1  0
  3  2  1  0
  4  3  2  0
  5  4  1  0
  5  6  2  0
  6  1  1  0
  8  9  1  0
  8  5  1  0
 10  8  1  0
  1 11  1  0
  2 12  1  0
  7 13  1  0
  7 14  1  0
  8 15  1  0
  9 16  1  0
  9 17  1  0
  9 18  1  0
 10 19  1  0
 10 20  1  0
 10 21  1  0
M  ISO  8  11  14  12  14  15   8  16   8  17   8  18   8  19   8  20   8
M  ISO  1  21   8
M  END
>  <minimizedAffinity>  (1) 
-4.40683317

>  <minimizedRMSD>  (1) 
4.26159859

$$$$
