
     RDKit          3D

 14 14  0  0  0  0  0  0  0  0999 V2000
   44.5320   36.1650   44.5770 C   0  0  0  0  0  0  0  0  0  0  0  0
   45.2150   36.0550   43.3620 C   0  0  0  0  0  0  0  0  0  0  0  0
   46.0080   34.9400   43.1290 C   0  0  0  0  0  0  0  0  0  0  0  0
   46.0890   33.9750   44.1230 N   0  0  0  0  0  0  0  0  0  0  0  0
   45.4170   34.1210   45.2720 C   0  0  0  0  0  0  0  0  0  0  0  0
   44.6510   35.1880   45.5090 N   0  0  0  0  0  0  0  0  0  0  0  0
   45.5190   33.1160   46.2720 N   0  0  0  0  0  0  0  0  0  0  0  0
   46.7200   34.7910   41.9060 N   0  0  0  0  0  0  0  0  0  0  0  0
   43.8994   37.0426   44.7762 H   0  0  0  0  0  0  0  0  0  0  0  0
   45.1249   36.8429   42.5997 H   0  0  0  0  0  0  0  0  0  0  0  0
   45.0062   33.2185   47.1594 H   0  0  0  0  0  0  0  0  0  0  0  0
   46.1057   32.2852   46.1093 H   0  0  0  0  0  0  0  0  0  0  0  0
   47.3043   33.9575   41.7485 H   0  0  0  0  0  0  0  0  0  0  0  0
   46.6511   35.5166   41.1783 H   0  0  0  0  0  0  0  0  0  0  0  0
  1  6  2  0
  2  1  1  0
  3  2  2  0
  3  4  1  0
  4  5  2  0
  5  6  1  0
  5  7  1  0
  8  3  1  0
  1  9  1  0
  2 10  1  0
  7 11  1  0
  7 12  1  0
  8 13  1  0
  8 14  1  0
M  ISO  2   9  14  10  14
M  END
>  <minimizedAffinity>  (1) 
-3.41138387

>  <minimizedRMSD>  (1) 
0.151204526

$$$$
