
     RDKit          3D

 42 44  0  0  0  0  0  0  0  0999 V2000
   47.1850   33.4450   43.6930 C   0  0  0  0  0  0  0  0  0  0  0  0
   46.1380   34.2560   44.1970 N   0  0  0  0  0  0  0  0  0  0  0  0
   45.3990   35.2110   43.6390 N   0  0  0  0  0  0  0  0  0  0  0  0
   44.5110   35.7300   44.4810 C   0  0  0  0  0  0  0  0  0  0  0  0
   44.6990   35.0560   45.6550 C   0  0  0  0  0  0  0  0  0  0  0  0
   45.7320   34.1240   45.4640 C   0  0  0  0  0  0  0  0  0  0  0  0
   46.0470   33.3220   46.6530 C   0  0  0  0  0  0  0  0  0  0  0  0
   45.1770   32.7340   47.5640 C   0  0  0  0  0  0  0  0  0  0  0  0
   45.8830   32.1000   48.5260 N   0  0  0  0  0  0  0  0  0  0  0  0
   47.1920   32.2600   48.2650 C   0  0  0  0  0  0  0  0  0  0  0  0
   47.2310   32.9770   47.1660 N   0  0  0  0  0  0  0  0  0  0  0  0
   48.2780   34.2290   42.9280 C   0  0  0  0  0  0  0  0  0  0  0  0
   48.5710   33.5890   41.6380 C   0  0  0  0  0  0  0  0  0  0  0  0
   49.6230   32.6740   41.7020 C   0  0  0  0  0  0  0  0  0  0  0  0
   50.0300   31.9910   40.5580 C   0  0  0  0  0  0  0  0  0  0  0  0
   49.3420   32.2760   39.3990 N   0  0  0  0  0  0  0  0  0  0  0  0
   48.3240   33.1690   39.3710 C   0  0  0  0  0  0  0  0  0  0  0  0
   47.9570   33.8040   40.4740 N   0  0  0  0  0  0  0  0  0  0  0  0
   47.8350   33.2710   37.9700 C   0  0  0  0  0  0  0  0  0  0  0  0
   48.3280   32.0880   37.1100 C   0  0  0  0  0  0  0  0  0  0  0  0
   46.3180   33.1050   37.9620 C   0  0  0  0  0  0  0  0  0  0  0  0
   48.2930   34.5160   37.2630 C   0  0  0  0  0  0  0  0  0  0  0  0
   47.6596   32.9276   44.5398 H   0  0  0  0  0  0  0  0  0  0  0  0
   46.7295   32.7500   42.9723 H   0  0  0  0  0  0  0  0  0  0  0  0
   43.7827   36.5288   44.2771 H   0  0  0  0  0  0  0  0  0  0  0  0
   44.1384   35.2158   46.5878 H   0  0  0  0  0  0  0  0  0  0  0  0
   44.0792   32.7782   47.5099 H   0  0  0  0  0  0  0  0  0  0  0  0
   48.0435   31.8747   48.8450 H   0  0  0  0  0  0  0  0  0  0  0  0
   48.1197   33.2562   46.7265 H   0  0  0  0  0  0  0  0  0  0  0  0
   47.9274   35.2563   42.7498 H   0  0  0  0  0  0  0  0  0  0  0  0
   49.1958   34.2382   43.5343 H   0  0  0  0  0  0  0  0  0  0  0  0
   50.1328   32.4914   42.6595 H   0  0  0  0  0  0  0  0  0  0  0  0
   50.8553   31.2641   40.5790 H   0  0  0  0  0  0  0  0  0  0  0  0
   48.6674   31.2736   37.7669 H   0  0  0  0  0  0  0  0  0  0  0  0
   47.5049   31.7282   36.4751 H   0  0  0  0  0  0  0  0  0  0  0  0
   49.1630   32.4191   36.4751 H   0  0  0  0  0  0  0  0  0  0  0  0
   45.9481   33.0645   38.9972 H   0  0  0  0  0  0  0  0  0  0  0  0
   45.8585   33.9582   37.4415 H   0  0  0  0  0  0  0  0  0  0  0  0
   46.0539   32.1726   37.4415 H   0  0  0  0  0  0  0  0  0  0  0  0
   48.5731   35.2775   38.0058 H   0  0  0  0  0  0  0  0  0  0  0  0
   49.1634   34.2807   36.6329 H   0  0  0  0  0  0  0  0  0  0  0  0
   47.4776   34.9009   36.6329 H   0  0  0  0  0  0  0  0  0  0  0  0
  1  2  1  0
  2  6  1  0
  3  2  1  0
  3  4  2  0
  4  5  1  0
  6  5  2  0
  6  7  1  0
  7 11  1  0
  7  8  2  0
  8  9  1  0
 10  9  2  0
 11 10  1  0
 12  1  1  0
 13 14  2  0
 13 12  1  0
 15 14  1  0
 16 15  2  0
 17 16  1  0
 17 18  2  0
 18 13  1  0
 19 17  1  0
 20 19  1  0
 21 19  1  0
 22 19  1  0
  1 23  1  0
  1 24  1  0
  4 25  1  0
  5 26  1  0
  8 27  1  0
 10 28  1  0
 11 29  1  0
 12 30  1  0
 12 31  1  0
 14 32  1  0
 15 33  1  0
 20 34  1  0
 20 35  1  0
 20 36  1  0
 21 37  1  0
 21 38  1  0
 21 39  1  0
 22 40  1  0
 22 41  1  0
 22 42  1  0
M  ISO  8  23   8  24   8  25  14  26  14  27  14  28  14  29   9  30   8
M  ISO  8  31   8  32  14  33  14  34   8  35   8  36   8  37   8  38   8
M  ISO  4  39   8  40   8  41   8  42   8
M  END
>  <minimizedAffinity>  (1) 
-5.63806581

>  <minimizedRMSD>  (1) 
6.24669552

$$$$
