
     RDKit          3D

 17 18  0  0  0  0  0  0  0  0999 V2000
   44.4700   35.9900   44.5150 C   0  0  0  0  0  0  0  0  0  0  0  0
   45.1480   35.8980   43.2940 C   0  0  0  0  0  0  0  0  0  0  0  0
   46.0920   34.8890   43.1290 C   0  0  0  0  0  0  0  0  0  0  0  0
   46.3180   34.0280   44.1700 N   0  0  0  0  0  0  0  0  0  0  0  0
   45.6500   34.1440   45.3310 C   0  0  0  0  0  0  0  0  0  0  0  0
   44.7440   35.1070   45.5020 N   0  0  0  0  0  0  0  0  0  0  0  0
   45.8590   33.2500   46.4630 C   0  0  0  0  0  0  0  0  0  0  0  0
   46.9550   32.4700   46.6010 N   0  0  0  0  0  0  0  0  0  0  0  0
   46.8720   31.7900   47.6900 O   0  0  0  0  0  0  0  0  0  0  0  0
   45.7430   32.0650   48.3300 C   0  0  0  0  0  0  0  0  0  0  0  0
   45.1080   32.9790   47.5660 N   0  0  0  0  0  0  0  0  0  0  0  0
   46.7990   34.7680   41.8970 N   0  0  0  0  0  0  0  0  0  0  0  0
   43.7176   36.7771   44.6711 H   0  0  0  0  0  0  0  0  0  0  0  0
   44.9388   36.6090   42.4812 H   0  0  0  0  0  0  0  0  0  0  0  0
   45.3970   31.6380   49.2829 H   0  0  0  0  0  0  0  0  0  0  0  0
   47.4976   34.0210   41.7754 H   0  0  0  0  0  0  0  0  0  0  0  0
   46.6112   35.4276   41.1285 H   0  0  0  0  0  0  0  0  0  0  0  0
  1  6  2  0
  2  1  1  0
  3  2  2  0
  3  4  1  0
  4  5  2  0
  5  6  1  0
  5  7  1  0
  7  8  2  0
  7 11  1  0
  8  9  1  0
  9 10  1  0
 11 10  2  0
 12  3  1  0
  1 13  1  0
  2 14  1  0
 10 15  1  0
 12 16  1  0
 12 17  1  0
M  ISO  3  13  14  14  14  15  14
M  END
>  <minimizedAffinity>  (1) 
-4.29147768

>  <minimizedRMSD>  (1) 
0.439845383

$$$$
