
     RDKit          3D

 42 45  0  0  0  0  0  0  0  0999 V2000
   46.0680   32.3790   43.6510 C   0  0  0  0  0  0  0  0  0  0  0  0
   45.4920   33.5680   44.1610 N   0  0  0  0  0  0  0  0  0  0  0  0
   44.9010   34.6000   43.5630 N   0  0  0  0  0  0  0  0  0  0  0  0
   44.4930   35.5280   44.4290 C   0  0  0  0  0  0  0  0  0  0  0  0
   44.8510   35.0480   45.6600 C   0  0  0  0  0  0  0  0  0  0  0  0
   45.4830   33.8060   45.4770 C   0  0  0  0  0  0  0  0  0  0  0  0
   45.9280   33.1650   46.7200 C   0  0  0  0  0  0  0  0  0  0  0  0
   45.1560   32.6190   47.7380 C   0  0  0  0  0  0  0  0  0  0  0  0
   45.9370   32.1430   48.7130 N   0  0  0  0  0  0  0  0  0  0  0  0
   47.2130   32.3610   48.3670 C   0  0  0  0  0  0  0  0  0  0  0  0
   47.1550   32.9610   47.1920 N   0  0  0  0  0  0  0  0  0  0  0  0
   47.6030   32.2980   43.8290 C   0  0  0  0  0  0  0  0  0  0  0  0
   48.2750   32.2560   42.5270 C   0  0  0  0  0  0  0  0  0  0  0  0
   49.5690   31.7650   42.5780 C   0  0  0  0  0  0  0  0  0  0  0  0
   50.3530   31.6720   41.4320 C   0  0  0  0  0  0  0  0  0  0  0  0
   49.7680   32.0930   40.2660 N   0  0  0  0  0  0  0  0  0  0  0  0
   48.4870   32.5740   40.2450 C   0  0  0  0  0  0  0  0  0  0  0  0
   47.7760   32.6450   41.3580 N   0  0  0  0  0  0  0  0  0  0  0  0
   48.2060   32.9430   38.8850 N   0  0  0  0  0  0  0  0  0  0  0  0
   48.2670   34.3830   38.5470 C   0  0  0  0  0  0  0  0  0  0  0  0
   48.2100   34.4350   37.0390 C   0  0  0  0  0  0  0  0  0  0  0  0
   48.6430   33.0340   36.6180 C   0  0  0  0  0  0  0  0  0  0  0  0
   47.8720   32.2210   37.6670 C   0  0  0  0  0  0  0  0  0  0  0  0
   45.8404   32.3174   42.5766 H   0  0  0  0  0  0  0  0  0  0  0  0
   45.6363   31.5447   44.2233 H   0  0  0  0  0  0  0  0  0  0  0  0
   43.9798   36.4744   44.2032 H   0  0  0  0  0  0  0  0  0  0  0  0
   44.6748   35.5472   46.6242 H   0  0  0  0  0  0  0  0  0  0  0  0
   44.0566   32.5834   47.7412 H   0  0  0  0  0  0  0  0  0  0  0  0
   48.1149   32.0970   48.9387 H   0  0  0  0  0  0  0  0  0  0  0  0
   47.9993   33.2503   46.6778 H   0  0  0  0  0  0  0  0  0  0  0  0
   47.9489   33.1816   44.3854 H   0  0  0  0  0  0  0  0  0  0  0  0
   47.8465   31.3788   44.3820 H   0  0  0  0  0  0  0  0  0  0  0  0
   49.9853   31.4421   43.5436 H   0  0  0  0  0  0  0  0  0  0  0  0
   51.3817   31.2835   41.4602 H   0  0  0  0  0  0  0  0  0  0  0  0
   47.4120   34.9191   38.9846 H   0  0  0  0  0  0  0  0  0  0  0  0
   49.1753   34.8613   38.9422 H   0  0  0  0  0  0  0  0  0  0  0  0
   47.1892   34.6522   36.6913 H   0  0  0  0  0  0  0  0  0  0  0  0
   48.8450   35.2259   36.6132 H   0  0  0  0  0  0  0  0  0  0  0  0
   48.3236   32.7938   35.5932 H   0  0  0  0  0  0  0  0  0  0  0  0
   49.7291   32.8622   36.5900 H   0  0  0  0  0  0  0  0  0  0  0  0
   46.7893   32.2365   37.4732 H   0  0  0  0  0  0  0  0  0  0  0  0
   48.1313   31.1522   37.6900 H   0  0  0  0  0  0  0  0  0  0  0  0
  1 12  1  0
  1  2  1  0
  2  6  1  0
  3  2  1  0
  3  4  2  0
  4  5  1  0
  6  5  2  0
  6  7  1  0
  7 11  1  0
  7  8  2  0
  8  9  1  0
 10  9  2  0
 11 10  1  0
 13 14  2  0
 13 12  1  0
 15 14  1  0
 16 15  2  0
 17 16  1  0
 17 18  2  0
 18 13  1  0
 19 17  1  0
 20 19  1  0
 21 20  1  0
 22 21  1  0
 22 23  1  0
 23 19  1  0
  1 24  1  0
  1 25  1  0
  4 26  1  0
  5 27  1  0
  8 28  1  0
 10 29  1  0
 11 30  1  0
 12 31  1  0
 12 32  1  0
 14 33  1  0
 15 34  1  0
 20 35  1  0
 20 36  1  0
 21 37  1  0
 21 38  1  0
 22 39  1  0
 22 40  1  0
 23 41  1  0
 23 42  1  0
M  ISO  8  24   8  25   8  26  14  27  14  28  14  29  14  30   9  31   8
M  ISO  8  32   8  33  14  34  14  35  13  36  13  37  13  38  13  39  13
M  ISO  3  40  13  41  13  42  13
M  END
>  <minimizedAffinity>  (1) 
-5.58410597

>  <minimizedRMSD>  (1) 
6.20770216

$$$$
