
     RDKit          3D

 36 39  0  0  0  0  0  0  0  0999 V2000
   46.2540   32.4570   44.6450 C   0  0  0  0  0  0  0  0  0  0  0  0
   46.1570   31.8480   45.8580 C   0  0  0  0  0  0  0  0  0  0  0  0
   46.8980   30.7520   46.2100 C   0  0  0  0  0  0  0  0  0  0  0  0
   47.8040   30.2120   45.3060 C   0  0  0  0  0  0  0  0  0  0  0  0
   47.8730   30.8660   44.0760 C   0  0  0  0  0  0  0  0  0  0  0  0
   47.1390   31.9480   43.7270 C   0  0  0  0  0  0  0  0  0  0  0  0
   47.3700   32.4790   42.4020 C   0  0  0  0  0  0  0  0  0  0  0  0
   46.9440   31.6820   41.3410 C   0  0  0  0  0  0  0  0  0  0  0  0
   47.2520   32.3380   40.1960 N   0  0  0  0  0  0  0  0  0  0  0  0
   47.8560   33.5190   40.5100 C   0  0  0  0  0  0  0  0  0  0  0  0
   48.3700   34.5600   39.7640 C   0  0  0  0  0  0  0  0  0  0  0  0
   48.9310   35.6350   40.4200 C   0  0  0  0  0  0  0  0  0  0  0  0
   48.9960   35.7070   41.8060 C   0  0  0  0  0  0  0  0  0  0  0  0
   48.4830   34.6680   42.5920 C   0  0  0  0  0  0  0  0  0  0  0  0
   47.9350   33.6180   41.8860 C   0  0  0  0  0  0  0  0  0  0  0  0
   44.6600   35.7310   44.8780 C   0  0  0  0  0  0  0  0  0  0  0  0
   43.9350   35.8060   43.6850 C   0  0  0  0  0  0  0  0  0  0  0  0
   43.9950   34.7310   42.8000 C   0  0  0  0  0  0  0  0  0  0  0  0
   44.7650   33.6490   43.1420 N   0  0  0  0  0  0  0  0  0  0  0  0
   45.4490   33.6100   44.2980 C   0  0  0  0  0  0  0  0  0  0  0  0
   45.3900   34.6550   45.1590 N   0  0  0  0  0  0  0  0  0  0  0  0
   43.2860   34.7480   41.5780 N   0  0  0  0  0  0  0  0  0  0  0  0
   45.4476   32.2568   46.5926 H   0  0  0  0  0  0  0  0  0  0  0  0
   46.7763   30.3004   47.2056 H   0  0  0  0  0  0  0  0  0  0  0  0
   48.4217   29.3331   45.5428 H   0  0  0  0  0  0  0  0  0  0  0  0
   48.5796   30.4712   43.3311 H   0  0  0  0  0  0  0  0  0  0  0  0
   46.4496   30.7024   41.4186 H   0  0  0  0  0  0  0  0  0  0  0  0
   47.0606   31.9990   39.2424 H   0  0  0  0  0  0  0  0  0  0  0  0
   48.3327   34.5325   38.6650 H   0  0  0  0  0  0  0  0  0  0  0  0
   49.3414   36.4645   39.8255 H   0  0  0  0  0  0  0  0  0  0  0  0
   49.4525   36.5841   42.2879 H   0  0  0  0  0  0  0  0  0  0  0  0
   48.5148   34.6879   43.6914 H   0  0  0  0  0  0  0  0  0  0  0  0
   44.6265   36.5686   45.5902 H   0  0  0  0  0  0  0  0  0  0  0  0
   43.3303   36.6943   43.4499 H   0  0  0  0  0  0  0  0  0  0  0  0
   42.7098   35.5644   41.3282 H   0  0  0  0  0  0  0  0  0  0  0  0
   43.3454   33.9440   40.9369 H   0  0  0  0  0  0  0  0  0  0  0  0
  1  2  2  0
  2  3  1  0
  4  3  2  0
  5  4  1  0
  6  5  2  0
  6  1  1  0
  7  6  1  0
  8  7  2  0
  9 10  1  0
  9  8  1  0
 10 15  2  0
 11 12  2  0
 11 10  1  0
 12 13  1  0
 13 14  2  0
 15  7  1  0
 15 14  1  0
 16 21  2  0
 17 16  1  0
 18 19  1  0
 18 17  2  0
 19 20  2  0
 20  1  1  0
 20 21  1  0
 22 18  1  0
  2 23  1  0
  3 24  1  0
  4 25  1  0
  5 26  1  0
  8 27  1  0
  9 28  1  0
 11 29  1  0
 12 30  1  0
 13 31  1  0
 14 32  1  0
 16 33  1  0
 17 34  1  0
 22 35  1  0
 22 36  1  0
M  ISO  8  23  14  24  14  25  14  26  14  27  14  28   9  29  14  30  14
M  ISO  4  31  14  32  14  33  14  34  14
M  END
>  <minimizedAffinity>  (1) 
-5.52494955

>  <minimizedRMSD>  (1) 
2.82779646

$$$$
