
     RDKit          3D

 15 15  0  0  0  0  0  0  0  0999 V2000
   44.5060   36.0200   44.5080 C   0  0  0  0  0  0  0  0  0  0  0  0
   45.1730   35.9570   43.2840 C   0  0  0  0  0  0  0  0  0  0  0  0
   46.0890   34.9320   43.0730 C   0  0  0  0  0  0  0  0  0  0  0  0
   46.2920   34.0300   44.0800 N   0  0  0  0  0  0  0  0  0  0  0  0
   45.6300   34.1220   45.2470 C   0  0  0  0  0  0  0  0  0  0  0  0
   44.7430   35.1000   45.4780 N   0  0  0  0  0  0  0  0  0  0  0  0
   46.7870   34.8350   41.8420 N   0  0  0  0  0  0  0  0  0  0  0  0
   45.9320   33.0760   46.2840 C   0  0  0  0  0  0  0  0  0  0  0  0
   43.7789   36.8253   44.6894 H   0  0  0  0  0  0  0  0  0  0  0  0
   44.9779   36.7041   42.5006 H   0  0  0  0  0  0  0  0  0  0  0  0
   47.4640   34.0733   41.6925 H   0  0  0  0  0  0  0  0  0  0  0  0
   46.6168   35.5263   41.0976 H   0  0  0  0  0  0  0  0  0  0  0  0
   45.8072   33.5081   47.2878 H   0  0  0  0  0  0  0  0  0  0  0  0
   45.2420   32.2282   46.1614 H   0  0  0  0  0  0  0  0  0  0  0  0
   46.9678   32.7264   46.1614 H   0  0  0  0  0  0  0  0  0  0  0  0
  1  6  2  0
  2  1  1  0
  3  2  2  0
  3  4  1  0
  4  5  2  0
  5  6  1  0
  5  8  1  0
  7  3  1  0
  1  9  1  0
  2 10  1  0
  7 11  1  0
  7 12  1  0
  8 13  1  0
  8 14  1  0
  8 15  1  0
M  ISO  5   9  14  10  14  13   8  14   8  15   8
M  END
>  <minimizedAffinity>  (1) 
-3.32994986

>  <minimizedRMSD>  (1) 
0.0509865321

$$$$
