
     RDKit          3D

 38 41  0  0  0  0  0  0  0  0999 V2000
   46.4720   32.8690   43.5440 C   0  0  0  0  0  0  0  0  0  0  0  0
   45.6880   33.9150   44.1200 N   0  0  0  0  0  0  0  0  0  0  0  0
   45.0150   34.9320   43.5790 N   0  0  0  0  0  0  0  0  0  0  0  0
   44.4110   35.6900   44.4930 C   0  0  0  0  0  0  0  0  0  0  0  0
   44.7230   35.1160   45.6850 C   0  0  0  0  0  0  0  0  0  0  0  0
   45.5310   33.9920   45.4470 C   0  0  0  0  0  0  0  0  0  0  0  0
   45.9450   33.2700   46.6490 C   0  0  0  0  0  0  0  0  0  0  0  0
   45.1610   32.7050   47.6360 C   0  0  0  0  0  0  0  0  0  0  0  0
   45.9420   32.1520   48.5870 N   0  0  0  0  0  0  0  0  0  0  0  0
   47.2190   32.3340   48.2550 C   0  0  0  0  0  0  0  0  0  0  0  0
   47.1560   32.9890   47.1190 N   0  0  0  0  0  0  0  0  0  0  0  0
   47.9730   33.1020   43.6110 C   0  0  0  0  0  0  0  0  0  0  0  0
   48.6320   32.7090   42.3670 C   0  0  0  0  0  0  0  0  0  0  0  0
   49.7940   31.9620   42.5630 C   0  0  0  0  0  0  0  0  0  0  0  0
   50.5490   31.5010   41.4900 C   0  0  0  0  0  0  0  0  0  0  0  0
   50.0760   31.8290   40.2490 N   0  0  0  0  0  0  0  0  0  0  0  0
   48.9210   32.5740   40.0750 C   0  0  0  0  0  0  0  0  0  0  0  0
   48.2370   32.9890   41.1210 N   0  0  0  0  0  0  0  0  0  0  0  0
   48.7510   32.7570   38.6460 C   0  0  0  0  0  0  0  0  0  0  0  0
   48.1980   33.8760   38.0620 C   0  0  0  0  0  0  0  0  0  0  0  0
   48.0650   34.1290   36.7150 C   0  0  0  0  0  0  0  0  0  0  0  0
   48.5160   33.1990   35.8570 N   0  0  0  0  0  0  0  0  0  0  0  0
   49.0620   32.0940   36.3910 C   0  0  0  0  0  0  0  0  0  0  0  0
   49.1660   31.9000   37.7030 N   0  0  0  0  0  0  0  0  0  0  0  0
   46.1862   32.7667   42.4867 H   0  0  0  0  0  0  0  0  0  0  0  0
   46.2677   31.9621   44.1321 H   0  0  0  0  0  0  0  0  0  0  0  0
   43.7946   36.5847   44.3208 H   0  0  0  0  0  0  0  0  0  0  0  0
   44.3966   35.4729   46.6730 H   0  0  0  0  0  0  0  0  0  0  0  0
   44.0610   32.7058   47.6452 H   0  0  0  0  0  0  0  0  0  0  0  0
   48.1160   32.0112   48.8039 H   0  0  0  0  0  0  0  0  0  0  0  0
   48.0078   33.2727   46.6141 H   0  0  0  0  0  0  0  0  0  0  0  0
   48.1611   34.1704   43.7931 H   0  0  0  0  0  0  0  0  0  0  0  0
   48.3816   32.4878   44.4270 H   0  0  0  0  0  0  0  0  0  0  0  0
   50.1199   31.7328   43.5883 H   0  0  0  0  0  0  0  0  0  0  0  0
   51.4668   30.9110   41.6300 H   0  0  0  0  0  0  0  0  0  0  0  0
   47.8221   34.6511   38.7460 H   0  0  0  0  0  0  0  0  0  0  0  0
   47.6052   35.0608   36.3539 H   0  0  0  0  0  0  0  0  0  0  0  0
   49.4401   31.3146   35.7131 H   0  0  0  0  0  0  0  0  0  0  0  0
  1 12  1  0
  1  2  1  0
  2  6  1  0
  3  2  1  0
  3  4  2  0
  4  5  1  0
  6  5  2  0
  6  7  1  0
  7 11  1  0
  7  8  2  0
  8  9  1  0
 10  9  2  0
 11 10  1  0
 13 14  2  0
 13 12  1  0
 15 14  1  0
 16 15  2  0
 17 16  1  0
 17 18  2  0
 18 13  1  0
 19 17  1  0
 20 19  2  0
 21 20  1  0
 22 23  1  0
 22 21  2  0
 23 24  2  0
 24 19  1  0
  1 25  1  0
  1 26  1  0
  4 27  1  0
  5 28  1  0
  8 29  1  0
 10 30  1  0
 11 31  1  0
 12 32  1  0
 12 33  1  0
 14 34  1  0
 15 35  1  0
 20 36  1  0
 21 37  1  0
 23 38  1  0
M  ISO  8  25   8  26   8  27  14  28  14  29  14  30  14  31   9  32   8
M  ISO  6  33   8  34  14  35  14  36  14  37  14  38  14
M  END
>  <minimizedAffinity>  (1) 
-5.50809193

>  <minimizedRMSD>  (1) 
6.43984032

$$$$
