
     RDKit          3D

 35 37  0  0  0  0  0  0  0  0999 V2000
   45.8740   32.9620   45.8870 C   0  0  0  0  0  0  0  0  0  0  0  0
   45.4270   32.9110   47.1780 C   0  0  0  0  0  0  0  0  0  0  0  0
   45.8820   31.9640   48.0680 C   0  0  0  0  0  0  0  0  0  0  0  0
   46.8240   31.0210   47.6650 C   0  0  0  0  0  0  0  0  0  0  0  0
   47.2410   31.1150   46.3570 C   0  0  0  0  0  0  0  0  0  0  0  0
   46.8010   32.0440   45.4650 C   0  0  0  0  0  0  0  0  0  0  0  0
   47.3310   32.0100   44.1440 N   0  0  0  0  0  0  0  0  0  0  0  0
   48.3060   32.7600   43.5930 C   0  0  0  0  0  0  0  0  0  0  0  0
   48.6640   32.5590   42.2820 C   0  0  0  0  0  0  0  0  0  0  0  0
   49.7610   33.4600   41.7960 C   0  0  0  0  0  0  0  0  0  0  0  0
   48.0380   31.5930   41.5080 C   0  0  0  0  0  0  0  0  0  0  0  0
   48.4240   31.4700   40.3170 O   0  0  0  0  0  0  0  0  0  0  0  0
   47.0710   30.8680   42.0980 N   0  0  0  0  0  0  0  0  0  0  0  0
   46.7200   31.0650   43.3820 C   0  0  0  0  0  0  0  0  0  0  0  0
   45.7870   30.2840   43.7610 O   0  0  0  0  0  0  0  0  0  0  0  0
   44.4670   36.0760   44.5820 C   0  0  0  0  0  0  0  0  0  0  0  0
   44.4650   35.8450   43.2000 C   0  0  0  0  0  0  0  0  0  0  0  0
   44.9380   34.6390   42.7250 C   0  0  0  0  0  0  0  0  0  0  0  0
   45.3910   33.7230   43.6420 N   0  0  0  0  0  0  0  0  0  0  0  0
   45.3830   33.9670   44.9630 C   0  0  0  0  0  0  0  0  0  0  0  0
   44.9210   35.1450   45.4280 N   0  0  0  0  0  0  0  0  0  0  0  0
   44.9570   34.3570   41.3340 N   0  0  0  0  0  0  0  0  0  0  0  0
   44.6827   33.6474   47.5153 H   0  0  0  0  0  0  0  0  0  0  0  0
   45.5005   31.9524   49.0997 H   0  0  0  0  0  0  0  0  0  0  0  0
   47.2100   30.2503   48.3484 H   0  0  0  0  0  0  0  0  0  0  0  0
   47.9853   30.3850   46.0063 H   0  0  0  0  0  0  0  0  0  0  0  0
   48.8136   33.5309   44.1914 H   0  0  0  0  0  0  0  0  0  0  0  0
   50.2886   33.8934   42.6584 H   0  0  0  0  0  0  0  0  0  0  0  0
   50.4693   32.8795   41.1866 H   0  0  0  0  0  0  0  0  0  0  0  0
   49.3292   34.2676   41.1866 H   0  0  0  0  0  0  0  0  0  0  0  0
   46.5857   30.1419   41.5519 H   0  0  0  0  0  0  0  0  0  0  0  0
   44.0915   37.0324   44.9749 H   0  0  0  0  0  0  0  0  0  0  0  0
   44.0926   36.6123   42.5053 H   0  0  0  0  0  0  0  0  0  0  0  0
   45.3136   33.4514   40.9969 H   0  0  0  0  0  0  0  0  0  0  0  0
   44.6142   35.0580   40.6617 H   0  0  0  0  0  0  0  0  0  0  0  0
  1  2  2  0
  2  3  1  0
  4  3  2  0
  5  4  1  0
  6  1  1  0
  6  5  2  0
  7  6  1  0
  8  7  1  0
  9  8  2  0
 10  9  1  0
 11 13  1  0
 11  9  1  0
 12 11  2  0
 13 14  1  0
 14 15  2  0
 14  7  1  0
 16 21  2  0
 17 16  1  0
 18 17  2  0
 18 19  1  0
 19 20  2  0
 20 21  1  0
 20  1  1  0
 22 18  1  0
  2 23  1  0
  3 24  1  0
  4 25  1  0
  5 26  1  0
  8 27  1  0
 10 28  1  0
 10 29  1  0
 10 30  1  0
 13 31  1  0
 16 32  1  0
 17 33  1  0
 22 34  1  0
 22 35  1  0
M  ISO  8  23  14  24  14  25  14  26  14  27  14  28   8  29   8  30   8
M  ISO  3  31   9  32  14  33  14
M  END
>  <minimizedAffinity>  (1) 
-5.02338266

>  <minimizedRMSD>  (1) 
1.5496093

$$$$
