
     RDKit          3D

 35 38  0  0  0  0  0  0  0  0999 V2000
   41.2830   32.4180   41.6290 C   0  0  0  0  0  0  0  0  0  0  0  0
   40.2280   31.6150   42.0090 C   0  0  0  0  0  0  0  0  0  0  0  0
   40.4370   30.3980   42.6250 C   0  0  0  0  0  0  0  0  0  0  0  0
   41.7270   29.9490   42.8790 C   0  0  0  0  0  0  0  0  0  0  0  0
   42.7300   30.8170   42.4660 C   0  0  0  0  0  0  0  0  0  0  0  0
   42.5770   32.0180   41.8590 C   0  0  0  0  0  0  0  0  0  0  0  0
   43.7120   32.7750   41.5050 N   0  0  0  0  0  0  0  0  0  0  0  0
   44.3890   33.8250   42.0490 C   0  0  0  0  0  0  0  0  0  0  0  0
   45.4290   34.1580   41.2670 N   0  0  0  0  0  0  0  0  0  0  0  0
   45.4320   33.3270   40.2150 C   0  0  0  0  0  0  0  0  0  0  0  0
   46.3160   33.2970   39.1560 C   0  0  0  0  0  0  0  0  0  0  0  0
   46.1060   32.3520   38.2030 N   0  0  0  0  0  0  0  0  0  0  0  0
   45.0730   31.4980   38.3200 C   0  0  0  0  0  0  0  0  0  0  0  0
   44.2400   31.5690   39.3730 N   0  0  0  0  0  0  0  0  0  0  0  0
   44.3630   32.4690   40.3660 C   0  0  0  0  0  0  0  0  0  0  0  0
   47.4090   34.1600   38.9820 N   0  0  0  0  0  0  0  0  0  0  0  0
   40.5890   35.9870   41.1640 C   0  0  0  0  0  0  0  0  0  0  0  0
   40.5770   36.1130   39.7750 C   0  0  0  0  0  0  0  0  0  0  0  0
   40.8070   34.9740   38.9970 C   0  0  0  0  0  0  0  0  0  0  0  0
   41.0350   33.7780   39.6340 N   0  0  0  0  0  0  0  0  0  0  0  0
   41.0370   33.7030   40.9780 C   0  0  0  0  0  0  0  0  0  0  0  0
   40.8150   34.8040   41.7380 N   0  0  0  0  0  0  0  0  0  0  0  0
   40.8040   35.0540   37.5880 N   0  0  0  0  0  0  0  0  0  0  0  0
   39.1985   31.9517   41.8170 H   0  0  0  0  0  0  0  0  0  0  0  0
   39.5760   29.7789   42.9171 H   0  0  0  0  0  0  0  0  0  0  0  0
   41.9369   28.9857   43.3669 H   0  0  0  0  0  0  0  0  0  0  0  0
   43.7643   30.4925   42.6529 H   0  0  0  0  0  0  0  0  0  0  0  0
   44.1227   34.3266   42.9910 H   0  0  0  0  0  0  0  0  0  0  0  0
   44.9082   30.7338   37.5462 H   0  0  0  0  0  0  0  0  0  0  0  0
   48.0165   34.0616   38.1561 H   0  0  0  0  0  0  0  0  0  0  0  0
   47.6036   34.8918   39.6802 H   0  0  0  0  0  0  0  0  0  0  0  0
   40.4103   36.8719   41.7925 H   0  0  0  0  0  0  0  0  0  0  0  0
   40.3905   37.0881   39.3013 H   0  0  0  0  0  0  0  0  0  0  0  0
   40.6317   35.9572   37.1238 H   0  0  0  0  0  0  0  0  0  0  0  0
   40.9741   34.2092   37.0238 H   0  0  0  0  0  0  0  0  0  0  0  0
  1  6  1  0
  1  2  2  0
  2  3  1  0
  3  4  2  0
  5  4  1  0
  6  5  2  0
  7  6  1  0
  7  8  1  0
  9  8  2  0
 10 15  2  0
 10  9  1  0
 11 10  1  0
 12 13  1  0
 12 11  2  0
 13 14  2  0
 14 15  1  0
 15  7  1  0
 16 11  1  0
 17 22  2  0
 18 17  1  0
 19 20  1  0
 19 18  2  0
 20 21  2  0
 21  1  1  0
 21 22  1  0
 23 19  1  0
  2 24  1  0
  3 25  1  0
  4 26  1  0
  5 27  1  0
  8 28  1  0
 13 29  1  0
 16 30  1  0
 16 31  1  0
 17 32  1  0
 18 33  1  0
 23 34  1  0
 23 35  1  0
M  ISO  8  24  14  25  14  26  14  27  14  28  14  29  14  32  14  33  14
M  END
>  <minimizedAffinity>  (1) 
-5.11216879

>  <minimizedRMSD>  (1) 
7.07642841

$$$$
