
     RDKit          3D

 35 37  0  0  0  0  0  0  0  0999 V2000
   45.7650   32.8440   46.4580 C   0  0  0  0  0  0  0  0  0  0  0  0
   45.3920   33.0500   47.7790 C   0  0  0  0  0  0  0  0  0  0  0  0
   45.5750   32.0580   48.7210 C   0  0  0  0  0  0  0  0  0  0  0  0
   46.1370   30.8350   48.3530 C   0  0  0  0  0  0  0  0  0  0  0  0
   46.4820   30.7170   47.0040 C   0  0  0  0  0  0  0  0  0  0  0  0
   46.3250   31.6550   46.0390 C   0  0  0  0  0  0  0  0  0  0  0  0
   44.5010   35.8980   44.8550 C   0  0  0  0  0  0  0  0  0  0  0  0
   45.1920   35.8920   43.6370 C   0  0  0  0  0  0  0  0  0  0  0  0
   46.0750   34.8670   43.3640 C   0  0  0  0  0  0  0  0  0  0  0  0
   46.2120   33.9100   44.3260 N   0  0  0  0  0  0  0  0  0  0  0  0
   45.5550   33.9140   45.4860 C   0  0  0  0  0  0  0  0  0  0  0  0
   44.6950   34.9190   45.7440 N   0  0  0  0  0  0  0  0  0  0  0  0
   46.8050   34.8060   42.1500 N   0  0  0  0  0  0  0  0  0  0  0  0
   46.7540   31.3300   44.6590 C   0  0  0  0  0  0  0  0  0  0  0  0
   47.9770   30.4460   44.5920 C   0  0  0  0  0  0  0  0  0  0  0  0
   47.8020   29.5850   43.3320 C   0  0  0  0  0  0  0  0  0  0  0  0
   46.4840   30.0810   42.7210 C   0  0  0  0  0  0  0  0  0  0  0  0
   45.7300   30.3410   44.0400 C   0  0  0  0  0  0  0  0  0  0  0  0
   44.9473   34.0109   48.0773 H   0  0  0  0  0  0  0  0  0  0  0  0
   45.2768   32.2321   49.7654 H   0  0  0  0  0  0  0  0  0  0  0  0
   46.2973   30.0204   49.0746 H   0  0  0  0  0  0  0  0  0  0  0  0
   46.9284   29.7611   46.6925 H   0  0  0  0  0  0  0  0  0  0  0  0
   43.7959   36.7115   45.0809 H   0  0  0  0  0  0  0  0  0  0  0  0
   45.0325   36.6969   42.9045 H   0  0  0  0  0  0  0  0  0  0  0  0
   47.4559   34.0263   41.9791 H   0  0  0  0  0  0  0  0  0  0  0  0
   46.6844   35.5414   41.4390 H   0  0  0  0  0  0  0  0  0  0  0  0
   46.8906   32.3113   44.1810 H   0  0  0  0  0  0  0  0  0  0  0  0
   48.8880   31.0576   44.5146 H   0  0  0  0  0  0  0  0  0  0  0  0
   48.0788   29.8263   45.4951 H   0  0  0  0  0  0  0  0  0  0  0  0
   48.6384   29.7390   42.6343 H   0  0  0  0  0  0  0  0  0  0  0  0
   47.7855   28.5080   43.5551 H   0  0  0  0  0  0  0  0  0  0  0  0
   46.6172   30.9979   42.1280 H   0  0  0  0  0  0  0  0  0  0  0  0
   45.9940   29.4026   42.0071 H   0  0  0  0  0  0  0  0  0  0  0  0
   44.7455   30.8036   43.8766 H   0  0  0  0  0  0  0  0  0  0  0  0
   45.4774   29.4561   44.6427 H   0  0  0  0  0  0  0  0  0  0  0  0
  1  2  2  0
  2  3  1  0
  4  3  2  0
  5  4  1  0
  6  1  1  0
  6  5  2  0
  7 12  2  0
  8  7  1  0
  9  8  2  0
  9 10  1  0
 10 11  2  0
 11 12  1  0
 11  1  1  0
 13  9  1  0
 14  6  1  0
 15 14  1  0
 16 15  1  0
 17 16  1  0
 17 18  1  0
 18 14  1  0
  2 19  1  0
  3 20  1  0
  4 21  1  0
  5 22  1  0
  7 23  1  0
  8 24  1  0
 13 25  1  0
 13 26  1  0
 14 27  1  0
 15 28  1  0
 15 29  1  0
 16 30  1  0
 16 31  1  0
 17 32  1  0
 17 33  1  0
 18 34  1  0
 18 35  1  0
M  ISO  8  19  14  20  14  21  14  22  14  23  14  24  14  27  13  28  13
M  ISO  7  29  13  30  13  31  13  32  13  33  13  34  13  35  13
M  END
>  <minimizedAffinity>  (1) 
-4.83838177

>  <minimizedRMSD>  (1) 
1.27554715

$$$$
