
     RDKit          3D

 44 48  0  0  0  0  0  0  0  0999 V2000
   47.2830   32.4450   44.3720 C   0  0  0  0  0  0  0  0  0  0  0  0
   46.1960   33.3090   43.9110 C   0  0  0  0  0  0  0  0  0  0  0  0
   45.8470   34.3010   44.8380 C   0  0  0  0  0  0  0  0  0  0  0  0
   44.8340   35.2150   44.5630 C   0  0  0  0  0  0  0  0  0  0  0  0
   44.2290   35.0700   43.3560 N   0  0  0  0  0  0  0  0  0  0  0  0
   44.5840   34.0780   42.4430 C   0  0  0  0  0  0  0  0  0  0  0  0
   45.5550   33.2290   42.7450 N   0  0  0  0  0  0  0  0  0  0  0  0
   43.5510   34.1690   41.4000 C   0  0  0  0  0  0  0  0  0  0  0  0
   43.3600   35.2020   40.5690 N   0  0  0  0  0  0  0  0  0  0  0  0
   42.4030   35.3330   39.6820 C   0  0  0  0  0  0  0  0  0  0  0  0
   41.4860   34.3730   39.5370 N   0  0  0  0  0  0  0  0  0  0  0  0
   41.5310   33.2460   40.3120 C   0  0  0  0  0  0  0  0  0  0  0  0
   40.5470   32.2990   40.1700 C   0  0  0  0  0  0  0  0  0  0  0  0
   40.5720   31.1950   40.9940 C   0  0  0  0  0  0  0  0  0  0  0  0
   41.5760   31.0830   41.9220 C   0  0  0  0  0  0  0  0  0  0  0  0
   42.5150   32.0860   41.9810 C   0  0  0  0  0  0  0  0  0  0  0  0
   42.5750   33.2140   41.2090 C   0  0  0  0  0  0  0  0  0  0  0  0
   47.6430   31.3980   43.3350 C   0  0  0  0  0  0  0  0  0  0  0  0
   49.0440   31.3500   43.0210 N   0  0  0  0  0  0  0  0  0  0  0  0
   49.9860   30.4320   43.2290 N   0  0  0  0  0  0  0  0  0  0  0  0
   51.1790   30.7980   42.7740 C   0  0  0  0  0  0  0  0  0  0  0  0
   50.9810   32.0400   42.2380 C   0  0  0  0  0  0  0  0  0  0  0  0
   49.6270   32.3850   42.3970 C   0  0  0  0  0  0  0  0  0  0  0  0
   49.2640   33.7000   41.8640 C   0  0  0  0  0  0  0  0  0  0  0  0
   48.5210   34.0180   40.7600 C   0  0  0  0  0  0  0  0  0  0  0  0
   48.4270   35.3440   40.5960 N   0  0  0  0  0  0  0  0  0  0  0  0
   49.1050   35.9280   41.5830 C   0  0  0  0  0  0  0  0  0  0  0  0
   49.5700   34.9200   42.2900 N   0  0  0  0  0  0  0  0  0  0  0  0
   48.1689   33.0642   44.5764 H   0  0  0  0  0  0  0  0  0  0  0  0
   46.9475   31.9263   45.2821 H   0  0  0  0  0  0  0  0  0  0  0  0
   46.3820   34.3579   45.7975 H   0  0  0  0  0  0  0  0  0  0  0  0
   44.5432   36.0014   45.2751 H   0  0  0  0  0  0  0  0  0  0  0  0
   42.3555   36.2361   39.0557 H   0  0  0  0  0  0  0  0  0  0  0  0
   39.7561   32.4191   39.4150 H   0  0  0  0  0  0  0  0  0  0  0  0
   39.7997   30.4163   40.9091 H   0  0  0  0  0  0  0  0  0  0  0  0
   41.6284   30.2172   42.5984 H   0  0  0  0  0  0  0  0  0  0  0  0
   43.3078   31.9680   42.7343 H   0  0  0  0  0  0  0  0  0  0  0  0
   47.3395   30.4124   43.7176 H   0  0  0  0  0  0  0  0  0  0  0  0
   47.1164   31.6707   42.4085 H   0  0  0  0  0  0  0  0  0  0  0  0
   52.1186   30.2278   42.8186 H   0  0  0  0  0  0  0  0  0  0  0  0
   51.7514   32.6646   41.7622 H   0  0  0  0  0  0  0  0  0  0  0  0
   48.0587   33.2774   40.0909 H   0  0  0  0  0  0  0  0  0  0  0  0
   49.2440   37.0039   41.7650 H   0  0  0  0  0  0  0  0  0  0  0  0
   50.1432   35.0700   43.1325 H   0  0  0  0  0  0  0  0  0  0  0  0
  2  1  1  0
  2  3  2  0
  4  3  1  0
  5  4  2  0
  6  7  2  0
  6  5  1  0
  7  2  1  0
  8  6  1  0
  9  8  2  0
 10  9  1  0
 11 10  2  0
 11 12  1  0
 12 17  2  0
 13 12  1  0
 13 14  2  0
 14 15  1  0
 15 16  2  0
 17  8  1  0
 17 16  1  0
 18  1  1  0
 19 20  1  0
 19 18  1  0
 21 20  2  0
 22 23  2  0
 22 21  1  0
 23 19  1  0
 24 28  1  0
 24 23  1  0
 25 24  2  0
 26 25  1  0
 26 27  2  0
 27 28  1  0
  1 29  1  0
  1 30  1  0
  3 31  1  0
  4 32  1  0
 10 33  1  0
 13 34  1  0
 14 35  1  0
 15 36  1  0
 16 37  1  0
 18 38  1  0
 18 39  1  0
 21 40  1  0
 22 41  1  0
 25 42  1  0
 27 43  1  0
 28 44  1  0
M  ISO  8  29   8  30   8  31  14  32  14  33  14  34  14  35  14  36  14
M  ISO  8  37  14  38   8  39   8  40  14  41  14  42  14  43  14  44   9
M  END
>  <minimizedAffinity>  (1) 
-5.40732622

>  <minimizedRMSD>  (1) 
2.72373605

$$$$
