
     RDKit          3D

 39 41  0  0  0  0  0  0  0  0999 V2000
   45.9670   31.3320   45.5260 C   0  0  0  0  0  0  0  0  0  0  0  0
   45.8340   31.4920   46.9360 N   0  0  0  0  0  0  0  0  0  0  0  0
   46.0380   32.5290   47.7310 N   0  0  0  0  0  0  0  0  0  0  0  0
   45.7920   32.2460   49.0110 C   0  0  0  0  0  0  0  0  0  0  0  0
   45.4030   30.9270   49.0190 C   0  0  0  0  0  0  0  0  0  0  0  0
   45.4350   30.4640   47.6940 C   0  0  0  0  0  0  0  0  0  0  0  0
   45.0400   29.0580   47.5420 C   0  0  0  0  0  0  0  0  0  0  0  0
   44.3580   28.4560   46.4930 C   0  0  0  0  0  0  0  0  0  0  0  0
   44.1820   27.1510   46.7280 N   0  0  0  0  0  0  0  0  0  0  0  0
   44.7370   26.8720   47.9190 C   0  0  0  0  0  0  0  0  0  0  0  0
   45.2330   28.0280   48.3640 N   0  0  0  0  0  0  0  0  0  0  0  0
   47.3430   31.7700   44.9750 C   0  0  0  0  0  0  0  0  0  0  0  0
   47.1980   32.9270   44.0910 C   0  0  0  0  0  0  0  0  0  0  0  0
   48.1810   33.0430   43.1290 C   0  0  0  0  0  0  0  0  0  0  0  0
   48.1950   34.0860   42.2050 C   0  0  0  0  0  0  0  0  0  0  0  0
   47.1750   34.9860   42.3140 N   0  0  0  0  0  0  0  0  0  0  0  0
   46.2140   34.8560   43.2690 C   0  0  0  0  0  0  0  0  0  0  0  0
   46.2420   33.8410   44.1320 N   0  0  0  0  0  0  0  0  0  0  0  0
   45.1960   35.9340   43.2210 C   0  0  0  0  0  0  0  0  0  0  0  0
   44.4750   35.8780   44.5500 C   0  0  0  0  0  0  0  0  0  0  0  0
   44.1550   35.5620   42.1600 C   0  0  0  0  0  0  0  0  0  0  0  0
   45.8180   30.2698   45.2820 H   0  0  0  0  0  0  0  0  0  0  0  0
   45.2130   31.9817   45.0576 H   0  0  0  0  0  0  0  0  0  0  0  0
   45.8811   32.9220   49.8742 H   0  0  0  0  0  0  0  0  0  0  0  0
   45.1179   30.3401   49.9046 H   0  0  0  0  0  0  0  0  0  0  0  0
   44.0098   28.9809   45.5912 H   0  0  0  0  0  0  0  0  0  0  0  0
   44.7747   25.8946   48.4223 H   0  0  0  0  0  0  0  0  0  0  0  0
   45.7230   28.1162   49.2657 H   0  0  0  0  0  0  0  0  0  0  0  0
   48.0008   32.0370   45.8153 H   0  0  0  0  0  0  0  0  0  0  0  0
   47.7774   30.9375   44.4020 H   0  0  0  0  0  0  0  0  0  0  0  0
   48.9795   32.2874   43.0905 H   0  0  0  0  0  0  0  0  0  0  0  0
   48.9776   34.1779   41.4374 H   0  0  0  0  0  0  0  0  0  0  0  0
   45.6525   36.9121   43.0089 H   0  0  0  0  0  0  0  0  0  0  0  0
   45.2085   35.9350   45.3678 H   0  0  0  0  0  0  0  0  0  0  0  0
   43.7766   36.7246   44.6242 H   0  0  0  0  0  0  0  0  0  0  0  0
   43.9157   34.9337   44.6242 H   0  0  0  0  0  0  0  0  0  0  0  0
   43.2296   35.2313   42.6543 H   0  0  0  0  0  0  0  0  0  0  0  0
   43.9418   36.4396   41.5320 H   0  0  0  0  0  0  0  0  0  0  0  0
   44.5462   34.7480   41.5320 H   0  0  0  0  0  0  0  0  0  0  0  0
  1  2  1  0
  2  6  1  0
  2  3  1  0
  3  4  2  0
  4  5  1  0
  6  5  2  0
  7  6  1  0
  7 11  1  0
  8  9  1  0
  8  7  2  0
  9 10  2  0
 10 11  1  0
 12  1  1  0
 13 18  1  0
 13 12  1  0
 14 13  2  0
 15 16  2  0
 15 14  1  0
 16 17  1  0
 17 18  2  0
 19 17  1  0
 19 20  1  0
 21 19  1  0
  1 22  1  0
  1 23  1  0
  4 24  1  0
  5 25  1  0
  8 26  1  0
 10 27  1  0
 11 28  1  0
 12 29  1  0
 12 30  1  0
 14 31  1  0
 15 32  1  0
 19 33  1  0
 20 34  1  0
 20 35  1  0
 20 36  1  0
 21 37  1  0
 21 38  1  0
 21 39  1  0
M  ISO  8  22   8  23   8  24  14  25  14  26  14  27  14  28   9  29   8
M  ISO  8  30   8  31  14  32  14  33   8  34   8  35   8  36   8  37   8
M  ISO  2  38   8  39   8
M  END
>  <minimizedAffinity>  (1) 
-5.31942558

>  <minimizedRMSD>  (1) 
6.36103868

$$$$
