
     RDKit          3D

 35 37  0  0  0  0  0  0  0  0999 V2000
   46.4950   32.5310   43.4870 C   0  0  0  0  0  0  0  0  0  0  0  0
   45.8890   31.6190   44.3310 C   0  0  0  0  0  0  0  0  0  0  0  0
   46.5510   30.5010   44.7630 C   0  0  0  0  0  0  0  0  0  0  0  0
   47.8550   30.2510   44.3630 C   0  0  0  0  0  0  0  0  0  0  0  0
   48.4140   31.2060   43.5130 C   0  0  0  0  0  0  0  0  0  0  0  0
   47.8000   32.3320   43.0550 C   0  0  0  0  0  0  0  0  0  0  0  0
   45.1640   35.9300   43.3970 C   0  0  0  0  0  0  0  0  0  0  0  0
   44.4620   35.9320   42.1730 C   0  0  0  0  0  0  0  0  0  0  0  0
   44.4480   34.7930   41.3990 C   0  0  0  0  0  0  0  0  0  0  0  0
   45.1260   33.6970   41.8620 N   0  0  0  0  0  0  0  0  0  0  0  0
   45.7870   33.7140   43.0280 C   0  0  0  0  0  0  0  0  0  0  0  0
   45.8030   34.8350   43.7930 N   0  0  0  0  0  0  0  0  0  0  0  0
   43.7470   34.7970   40.1770 N   0  0  0  0  0  0  0  0  0  0  0  0
   48.5640   33.1740   42.2120 N   0  0  0  0  0  0  0  0  0  0  0  0
   48.7850   33.2620   40.7860 C   0  0  0  0  0  0  0  0  0  0  0  0
   48.0690   34.5060   40.2410 C   0  0  0  0  0  0  0  0  0  0  0  0
   48.0000   35.4210   41.2850 O   0  0  0  0  0  0  0  0  0  0  0  0
   49.2860   35.4830   41.8630 C   0  0  0  0  0  0  0  0  0  0  0  0
   49.3610   34.2670   42.7830 C   0  0  0  0  0  0  0  0  0  0  0  0
   44.8548   31.7950   44.6619 H   0  0  0  0  0  0  0  0  0  0  0  0
   46.0429   29.7934   45.4347 H   0  0  0  0  0  0  0  0  0  0  0  0
   48.4106   29.3609   44.6931 H   0  0  0  0  0  0  0  0  0  0  0  0
   49.4485   31.0330   43.1815 H   0  0  0  0  0  0  0  0  0  0  0  0
   45.1820   36.8345   44.0227 H   0  0  0  0  0  0  0  0  0  0  0  0
   43.9305   36.8356   41.8399 H   0  0  0  0  0  0  0  0  0  0  0  0
   43.2514   35.6463   39.8703 H   0  0  0  0  0  0  0  0  0  0  0  0
   43.7300   33.9506   39.5902 H   0  0  0  0  0  0  0  0  0  0  0  0
   49.8636   33.3404   40.5848 H   0  0  0  0  0  0  0  0  0  0  0  0
   48.3886   32.3616   40.2939 H   0  0  0  0  0  0  0  0  0  0  0  0
   48.6374   34.9322   39.4012 H   0  0  0  0  0  0  0  0  0  0  0  0
   47.0642   34.2524   39.8722 H   0  0  0  0  0  0  0  0  0  0  0  0
   50.0628   35.4292   41.0860 H   0  0  0  0  0  0  0  0  0  0  0  0
   49.4512   36.4249   42.4066 H   0  0  0  0  0  0  0  0  0  0  0  0
   48.9642   34.5316   43.7742 H   0  0  0  0  0  0  0  0  0  0  0  0
   50.4082   33.9453   42.8824 H   0  0  0  0  0  0  0  0  0  0  0  0
  1  2  2  0
  2  3  1  0
  4  3  2  0
  5  4  1  0
  6  1  1  0
  6  5  2  0
  7 12  2  0
  8  7  1  0
  9 10  1  0
  9  8  2  0
 10 11  2  0
 11  1  1  0
 11 12  1  0
 13  9  1  0
 14 19  1  0
 14  6  1  0
 15 14  1  0
 16 15  1  0
 16 17  1  0
 17 18  1  0
 18 19  1  0
  2 20  1  0
  3 21  1  0
  4 22  1  0
  5 23  1  0
  7 24  1  0
  8 25  1  0
 13 26  1  0
 13 27  1  0
 15 28  1  0
 15 29  1  0
 16 30  1  0
 16 31  1  0
 18 32  1  0
 18 33  1  0
 19 34  1  0
 19 35  1  0
M  ISO  8  20  14  21  14  22  14  23  14  24  14  25  14  28  13  29  13
M  ISO  6  30  13  31  13  32  13  33  13  34  13  35  13
M  END
>  <minimizedAffinity>  (1) 
-4.59477091

>  <minimizedRMSD>  (1) 
3.36939144

$$$$
