
     RDKit          3D

 27 29  0  0  0  0  0  0  0  0999 V2000
   45.8160   33.1620   45.9090 C   0  0  0  0  0  0  0  0  0  0  0  0
   45.2510   33.2270   47.1850 C   0  0  0  0  0  0  0  0  0  0  0  0
   45.7170   32.4100   48.1900 C   0  0  0  0  0  0  0  0  0  0  0  0
   46.7380   31.5220   47.9620 C   0  0  0  0  0  0  0  0  0  0  0  0
   47.2420   31.5210   46.6750 C   0  0  0  0  0  0  0  0  0  0  0  0
   46.8400   32.3010   45.6090 C   0  0  0  0  0  0  0  0  0  0  0  0
   44.5400   36.1110   44.1200 C   0  0  0  0  0  0  0  0  0  0  0  0
   44.2210   35.5760   42.8690 C   0  0  0  0  0  0  0  0  0  0  0  0
   44.4410   34.2350   42.6370 C   0  0  0  0  0  0  0  0  0  0  0  0
   44.9660   33.4980   43.6610 N   0  0  0  0  0  0  0  0  0  0  0  0
   45.2700   34.0120   44.8530 C   0  0  0  0  0  0  0  0  0  0  0  0
   45.0540   35.3300   45.0820 N   0  0  0  0  0  0  0  0  0  0  0  0
   44.1350   33.6490   41.3680 N   0  0  0  0  0  0  0  0  0  0  0  0
   47.5550   32.1330   44.3590 C   0  0  0  0  0  0  0  0  0  0  0  0
   48.2870   32.8450   43.5090 N   0  0  0  0  0  0  0  0  0  0  0  0
   48.6950   32.1760   42.4980 O   0  0  0  0  0  0  0  0  0  0  0  0
   48.2670   30.9420   42.5810 C   0  0  0  0  0  0  0  0  0  0  0  0
   47.5920   30.9690   43.7100 N   0  0  0  0  0  0  0  0  0  0  0  0
   44.4318   33.9327   47.3871 H   0  0  0  0  0  0  0  0  0  0  0  0
   45.2642   32.4698   49.1907 H   0  0  0  0  0  0  0  0  0  0  0  0
   47.1277   30.8581   48.7477 H   0  0  0  0  0  0  0  0  0  0  0  0
   48.0613   30.8144   46.4763 H   0  0  0  0  0  0  0  0  0  0  0  0
   44.3685   37.1795   44.3172 H   0  0  0  0  0  0  0  0  0  0  0  0
   43.8000   36.2164   42.0799 H   0  0  0  0  0  0  0  0  0  0  0  0
   44.3049   32.6455   41.2097 H   0  0  0  0  0  0  0  0  0  0  0  0
   43.7448   34.2307   40.6128 H   0  0  0  0  0  0  0  0  0  0  0  0
   48.4291   30.1027   41.8887 H   0  0  0  0  0  0  0  0  0  0  0  0
  1  2  2  0
  2  3  1  0
  4  3  2  0
  5  4  1  0
  6  1  1  0
  6  5  2  0
  7 12  2  0
  8  7  1  0
  9  8  2  0
  9 10  1  0
 10 11  2  0
 11 12  1  0
 11  1  1  0
 13  9  1  0
 14  6  1  0
 15 14  2  0
 16 17  1  0
 16 15  1  0
 17 18  2  0
 18 14  1  0
  2 19  1  0
  3 20  1  0
  4 21  1  0
  5 22  1  0
  7 23  1  0
  8 24  1  0
 13 25  1  0
 13 26  1  0
 17 27  1  0
M  ISO  7  19  14  20  14  21  14  22  14  23  14  24  14  27  14
M  END
>  <minimizedAffinity>  (1) 
-4.4557972

>  <minimizedRMSD>  (1) 
1.46388268

$$$$
