
     RDKit          3D

 28 30  0  0  0  0  0  0  0  0999 V2000
   45.7780   32.9570   46.1690 C   0  0  0  0  0  0  0  0  0  0  0  0
   45.4230   33.1750   47.4830 C   0  0  0  0  0  0  0  0  0  0  0  0
   45.5610   32.1900   48.4250 C   0  0  0  0  0  0  0  0  0  0  0  0
   46.0590   30.9460   48.0930 C   0  0  0  0  0  0  0  0  0  0  0  0
   46.3990   30.7870   46.7510 C   0  0  0  0  0  0  0  0  0  0  0  0
   46.2840   31.7250   45.7810 C   0  0  0  0  0  0  0  0  0  0  0  0
   44.5330   35.9220   44.4380 C   0  0  0  0  0  0  0  0  0  0  0  0
   45.3690   35.9710   43.2970 C   0  0  0  0  0  0  0  0  0  0  0  0
   46.3350   34.9980   43.1390 C   0  0  0  0  0  0  0  0  0  0  0  0
   46.4490   34.0250   44.0910 N   0  0  0  0  0  0  0  0  0  0  0  0
   45.6270   34.0120   45.1730 C   0  0  0  0  0  0  0  0  0  0  0  0
   44.6750   34.9530   45.3480 N   0  0  0  0  0  0  0  0  0  0  0  0
   47.1910   35.0080   42.0160 N   0  0  0  0  0  0  0  0  0  0  0  0
   46.6710   31.4280   44.4450 N   0  0  0  0  0  0  0  0  0  0  0  0
   45.7480   30.8920   43.6240 C   0  0  0  0  0  0  0  0  0  0  0  0
   46.3110   30.6850   42.4010 N   0  0  0  0  0  0  0  0  0  0  0  0
   47.6040   31.1050   42.4890 C   0  0  0  0  0  0  0  0  0  0  0  0
   47.7950   31.5540   43.7480 N   0  0  0  0  0  0  0  0  0  0  0  0
   45.0225   34.1555   47.7799 H   0  0  0  0  0  0  0  0  0  0  0  0
   45.2694   32.3942   49.4658 H   0  0  0  0  0  0  0  0  0  0  0  0
   46.1785   30.1405   48.8325 H   0  0  0  0  0  0  0  0  0  0  0  0
   46.7986   29.8070   46.4512 H   0  0  0  0  0  0  0  0  0  0  0  0
   43.7578   36.6898   44.5776 H   0  0  0  0  0  0  0  0  0  0  0  0
   45.2510   36.7698   42.5500 H   0  0  0  0  0  0  0  0  0  0  0  0
   47.9083   34.2766   41.9087 H   0  0  0  0  0  0  0  0  0  0  0  0
   47.0981   35.7466   41.3042 H   0  0  0  0  0  0  0  0  0  0  0  0
   44.7081   30.6591   43.8967 H   0  0  0  0  0  0  0  0  0  0  0  0
   48.3532   31.0825   41.6839 H   0  0  0  0  0  0  0  0  0  0  0  0
  1  2  2  0
  2  3  1  0
  4  3  2  0
  5  4  1  0
  6  1  1  0
  6  5  2  0
  7 12  2  0
  8  7  1  0
  9  8  2  0
  9 10  1  0
 10 11  2  0
 11 12  1  0
 11  1  1  0
 13  9  1  0
 14  6  1  0
 15 14  1  0
 16 17  1  0
 16 15  2  0
 17 18  2  0
 18 14  1  0
  2 19  1  0
  3 20  1  0
  4 21  1  0
  5 22  1  0
  7 23  1  0
  8 24  1  0
 13 25  1  0
 13 26  1  0
 15 27  1  0
 17 28  1  0
M  ISO  8  19  14  20  14  21  14  22  14  23  14  24  14  27  14  28  14
M  END
>  <minimizedAffinity>  (1) 
-4.68352461

>  <minimizedRMSD>  (1) 
1.40583563

$$$$
