
     RDKit          3D

 44 48  0  0  0  0  0  0  0  0999 V2000
   45.5470   33.8240   46.0940 C   0  0  0  0  0  0  0  0  0  0  0  0
   46.0010   32.8030   47.0550 C   0  0  0  0  0  0  0  0  0  0  0  0
   45.1050   32.5530   48.0820 C   0  0  0  0  0  0  0  0  0  0  0  0
   45.3890   31.6420   49.0820 C   0  0  0  0  0  0  0  0  0  0  0  0
   46.5820   31.0280   48.9840 N   0  0  0  0  0  0  0  0  0  0  0  0
   47.4850   31.2700   47.9640 C   0  0  0  0  0  0  0  0  0  0  0  0
   47.1650   32.1480   47.0320 N   0  0  0  0  0  0  0  0  0  0  0  0
   48.5790   30.3660   48.2850 C   0  0  0  0  0  0  0  0  0  0  0  0
   49.0020   29.1320   47.8970 C   0  0  0  0  0  0  0  0  0  0  0  0
   50.1760   28.7210   48.3640 N   0  0  0  0  0  0  0  0  0  0  0  0
   50.6430   29.7050   49.1390 C   0  0  0  0  0  0  0  0  0  0  0  0
   51.7840   29.8910   49.8880 C   0  0  0  0  0  0  0  0  0  0  0  0
   52.0450   31.0280   50.6170 C   0  0  0  0  0  0  0  0  0  0  0  0
   51.1080   32.0350   50.5930 C   0  0  0  0  0  0  0  0  0  0  0  0
   49.9730   31.8490   49.8460 C   0  0  0  0  0  0  0  0  0  0  0  0
   49.6980   30.6910   49.0980 C   0  0  0  0  0  0  0  0  0  0  0  0
   46.2240   33.6320   44.7180 C   0  0  0  0  0  0  0  0  0  0  0  0
   45.3540   33.0730   43.7370 N   0  0  0  0  0  0  0  0  0  0  0  0
   44.6140   33.6200   42.7710 N   0  0  0  0  0  0  0  0  0  0  0  0
   43.9400   32.7330   42.0740 C   0  0  0  0  0  0  0  0  0  0  0  0
   44.2650   31.5200   42.6240 C   0  0  0  0  0  0  0  0  0  0  0  0
   45.1660   31.7500   43.6820 C   0  0  0  0  0  0  0  0  0  0  0  0
   45.6100   30.5370   44.3810 C   0  0  0  0  0  0  0  0  0  0  0  0
   46.6630   29.7060   44.1030 C   0  0  0  0  0  0  0  0  0  0  0  0
   46.7090   28.6940   44.9660 N   0  0  0  0  0  0  0  0  0  0  0  0
   45.6780   28.8350   45.8470 C   0  0  0  0  0  0  0  0  0  0  0  0
   45.0790   29.9290   45.4470 N   0  0  0  0  0  0  0  0  0  0  0  0
   44.4567   33.7435   45.9725 H   0  0  0  0  0  0  0  0  0  0  0  0
   45.8202   34.8161   46.4827 H   0  0  0  0  0  0  0  0  0  0  0  0
   44.1461   33.0916   48.1019 H   0  0  0  0  0  0  0  0  0  0  0  0
   44.6869   31.4331   49.9026 H   0  0  0  0  0  0  0  0  0  0  0  0
   48.3985   28.5027   47.2264 H   0  0  0  0  0  0  0  0  0  0  0  0
   50.6361   27.8207   48.1674 H   0  0  0  0  0  0  0  0  0  0  0  0
   52.5302   29.0830   49.9041 H   0  0  0  0  0  0  0  0  0  0  0  0
   52.9724   31.1287   51.1999 H   0  0  0  0  0  0  0  0  0  0  0  0
   51.2651   32.9654   51.1584 H   0  0  0  0  0  0  0  0  0  0  0  0
   49.2290   32.6591   49.8312 H   0  0  0  0  0  0  0  0  0  0  0  0
   46.5712   34.6122   44.3594 H   0  0  0  0  0  0  0  0  0  0  0  0
   47.0551   32.9252   44.8585 H   0  0  0  0  0  0  0  0  0  0  0  0
   43.2606   32.9231   41.2300 H   0  0  0  0  0  0  0  0  0  0  0  0
   43.8884   30.5397   42.2967 H   0  0  0  0  0  0  0  0  0  0  0  0
   47.3747   29.8551   43.2776 H   0  0  0  0  0  0  0  0  0  0  0  0
   45.4123   28.1843   46.6931 H   0  0  0  0  0  0  0  0  0  0  0  0
   44.2462   30.2999   45.9264 H   0  0  0  0  0  0  0  0  0  0  0  0
  1  2  1  0
  2  3  2  0
  3  4  1  0
  5  4  2  0
  6  8  1  0
  6  5  1  0
  7  2  1  0
  7  6  2  0
  8 16  1  0
  9  8  2  0
  9 10  1  0
 10 11  1  0
 11 12  2  0
 12 13  1  0
 14 13  2  0
 15 14  1  0
 16 11  1  0
 16 15  2  0
 17  1  1  0
 18 17  1  0
 19 18  1  0
 20 21  1  0
 20 19  2  0
 21 22  2  0
 22 18  1  0
 22 23  1  0
 23 27  1  0
 24 23  2  0
 24 25  1  0
 25 26  2  0
 27 26  1  0
  1 28  1  0
  1 29  1  0
  3 30  1  0
  4 31  1  0
  9 32  1  0
 10 33  1  0
 12 34  1  0
 13 35  1  0
 14 36  1  0
 15 37  1  0
 17 38  1  0
 17 39  1  0
 20 40  1  0
 21 41  1  0
 24 42  1  0
 26 43  1  0
 27 44  1  0
M  ISO  8  28   8  29   8  30  14  31  14  32  14  33   9  34  14  35  14
M  ISO  8  36  14  37  14  38   8  39   8  40  14  41  14  42  14  43  14
M  ISO  1  44   9
M  END
>  <minimizedAffinity>  (1) 
-5.19730425

>  <minimizedRMSD>  (1) 
8.84806347

$$$$
