
     RDKit          3D

 35 38  0  0  0  0  0  0  0  0999 V2000
   45.8030   33.0070   46.1740 C   0  0  0  0  0  0  0  0  0  0  0  0
   45.3230   33.1420   47.4570 C   0  0  0  0  0  0  0  0  0  0  0  0
   45.5160   32.1440   48.3890 C   0  0  0  0  0  0  0  0  0  0  0  0
   46.1920   30.9830   48.0650 C   0  0  0  0  0  0  0  0  0  0  0  0
   46.6460   30.9170   46.7520 C   0  0  0  0  0  0  0  0  0  0  0  0
   46.4860   31.8670   45.7950 C   0  0  0  0  0  0  0  0  0  0  0  0
   44.4900   36.0040   44.5530 C   0  0  0  0  0  0  0  0  0  0  0  0
   45.2260   36.0380   43.3490 C   0  0  0  0  0  0  0  0  0  0  0  0
   46.1510   35.0500   43.1080 C   0  0  0  0  0  0  0  0  0  0  0  0
   46.3260   34.0650   44.0470 N   0  0  0  0  0  0  0  0  0  0  0  0
   45.5950   34.0670   45.1950 C   0  0  0  0  0  0  0  0  0  0  0  0
   44.6820   35.0330   45.4460 N   0  0  0  0  0  0  0  0  0  0  0  0
   46.9220   35.0300   41.9170 N   0  0  0  0  0  0  0  0  0  0  0  0
   47.0020   31.6630   44.4960 N   0  0  0  0  0  0  0  0  0  0  0  0
   46.2590   30.9400   43.6250 C   0  0  0  0  0  0  0  0  0  0  0  0
   46.9320   30.8600   42.4320 N   0  0  0  0  0  0  0  0  0  0  0  0
   48.0840   31.5430   42.5970 C   0  0  0  0  0  0  0  0  0  0  0  0
   48.1160   32.0250   43.8480 N   0  0  0  0  0  0  0  0  0  0  0  0
   49.0960   31.7050   41.5600 C   0  0  0  0  0  0  0  0  0  0  0  0
   50.4170   31.3050   41.5680 C   0  0  0  0  0  0  0  0  0  0  0  0
   51.0550   31.6380   40.3960 C   0  0  0  0  0  0  0  0  0  0  0  0
   50.0830   32.2500   39.6770 N   0  0  0  0  0  0  0  0  0  0  0  0
   48.9450   32.2850   40.3620 N   0  0  0  0  0  0  0  0  0  0  0  0
   44.7799   34.0552   47.7418 H   0  0  0  0  0  0  0  0  0  0  0  0
   45.1248   32.2744   49.4088 H   0  0  0  0  0  0  0  0  0  0  0  0
   46.3583   30.1729   48.7903 H   0  0  0  0  0  0  0  0  0  0  0  0
   47.1881   30.0055   46.4600 H   0  0  0  0  0  0  0  0  0  0  0  0
   43.7477   36.7897   44.7572 H   0  0  0  0  0  0  0  0  0  0  0  0
   45.0622   36.8416   42.6159 H   0  0  0  0  0  0  0  0  0  0  0  0
   47.6086   34.2784   41.7606 H   0  0  0  0  0  0  0  0  0  0  0  0
   46.7950   35.7671   41.2089 H   0  0  0  0  0  0  0  0  0  0  0  0
   45.2778   30.4909   43.8386 H   0  0  0  0  0  0  0  0  0  0  0  0
   50.8999   30.7842   42.4080 H   0  0  0  0  0  0  0  0  0  0  0  0
   52.1012   31.4524   40.1112 H   0  0  0  0  0  0  0  0  0  0  0  0
   50.2090   32.6350   38.7300 H   0  0  0  0  0  0  0  0  0  0  0  0
  1  2  2  0
  2  3  1  0
  4  3  2  0
  5  4  1  0
  6  1  1  0
  6  5  2  0
  7 12  2  0
  8  7  1  0
  9  8  2  0
  9 10  1  0
 10 11  2  0
 11 12  1  0
 11  1  1  0
 13  9  1  0
 14  6  1  0
 15 14  1  0
 16 17  1  0
 16 15  2  0
 17 18  2  0
 18 14  1  0
 19 20  1  0
 19 17  1  0
 21 20  2  0
 22 23  1  0
 22 21  1  0
 23 19  2  0
  2 24  1  0
  3 25  1  0
  4 26  1  0
  5 27  1  0
  7 28  1  0
  8 29  1  0
 13 30  1  0
 13 31  1  0
 15 32  1  0
 20 33  1  0
 21 34  1  0
 22 35  1  0
M  ISO  8  24  14  25  14  26  14  27  14  28  14  29  14  32  14  33  14
M  ISO  2  34  14  35   9
M  END
>  <minimizedAffinity>  (1) 
-5.59323597

>  <minimizedRMSD>  (1) 
0.5704844

$$$$
