
     RDKit          3D

 40 43  0  0  0  0  0  0  0  0999 V2000
   45.8180   32.9390   46.2660 C   0  0  0  0  0  0  0  0  0  0  0  0
   45.3550   33.0060   47.5580 C   0  0  0  0  0  0  0  0  0  0  0  0
   45.5870   31.9910   48.4480 C   0  0  0  0  0  0  0  0  0  0  0  0
   46.2920   30.8660   48.0830 C   0  0  0  0  0  0  0  0  0  0  0  0
   46.7360   30.8550   46.7630 C   0  0  0  0  0  0  0  0  0  0  0  0
   46.5320   31.8280   45.8510 C   0  0  0  0  0  0  0  0  0  0  0  0
   47.0460   31.6840   44.5240 N   0  0  0  0  0  0  0  0  0  0  0  0
   46.3500   30.9320   43.6530 C   0  0  0  0  0  0  0  0  0  0  0  0
   47.0080   30.9250   42.4530 N   0  0  0  0  0  0  0  0  0  0  0  0
   48.1110   31.6870   42.6200 C   0  0  0  0  0  0  0  0  0  0  0  0
   48.1270   32.1440   43.8800 N   0  0  0  0  0  0  0  0  0  0  0  0
   49.0940   31.9610   41.6300 N   0  0  0  0  0  0  0  0  0  0  0  0
   49.1640   31.5190   40.2590 C   0  0  0  0  0  0  0  0  0  0  0  0
   50.5990   31.4800   39.8510 C   0  0  0  0  0  0  0  0  0  0  0  0
   51.3410   31.9330   41.0830 C   0  0  0  0  0  0  0  0  0  0  0  0
   50.2820   32.7730   41.7910 C   0  0  0  0  0  0  0  0  0  0  0  0
   44.4540   35.9820   44.7980 C   0  0  0  0  0  0  0  0  0  0  0  0
   45.1180   36.0340   43.5480 C   0  0  0  0  0  0  0  0  0  0  0  0
   46.0110   35.0390   43.2310 C   0  0  0  0  0  0  0  0  0  0  0  0
   46.2270   34.0300   44.1390 N   0  0  0  0  0  0  0  0  0  0  0  0
   45.5680   34.0210   45.3260 C   0  0  0  0  0  0  0  0  0  0  0  0
   44.6830   34.9950   45.6570 N   0  0  0  0  0  0  0  0  0  0  0  0
   46.6930   35.0520   42.0010 N   0  0  0  0  0  0  0  0  0  0  0  0
   44.7879   33.8906   47.8834 H   0  0  0  0  0  0  0  0  0  0  0  0
   45.2024   32.0763   49.4750 H   0  0  0  0  0  0  0  0  0  0  0  0
   46.4895   30.0389   48.7808 H   0  0  0  0  0  0  0  0  0  0  0  0
   47.3047   29.9727   46.4341 H   0  0  0  0  0  0  0  0  0  0  0  0
   45.4070   30.4086   43.8695 H   0  0  0  0  0  0  0  0  0  0  0  0
   48.7245   30.5146   40.1693 H   0  0  0  0  0  0  0  0  0  0  0  0
   48.6044   32.2085   39.6098 H   0  0  0  0  0  0  0  0  0  0  0  0
   50.8974   30.4598   39.5679 H   0  0  0  0  0  0  0  0  0  0  0  0
   50.8074   32.1118   38.9750 H   0  0  0  0  0  0  0  0  0  0  0  0
   51.6529   31.0777   41.7003 H   0  0  0  0  0  0  0  0  0  0  0  0
   52.2724   32.4774   40.8682 H   0  0  0  0  0  0  0  0  0  0  0  0
   50.1631   33.7547   41.3092 H   0  0  0  0  0  0  0  0  0  0  0  0
   50.5248   32.9995   42.8397 H   0  0  0  0  0  0  0  0  0  0  0  0
   43.7362   36.7726   45.0620 H   0  0  0  0  0  0  0  0  0  0  0  0
   44.9223   36.8560   42.8438 H   0  0  0  0  0  0  0  0  0  0  0  0
   47.3602   34.3008   41.7741 H   0  0  0  0  0  0  0  0  0  0  0  0
   46.5253   35.8127   41.3271 H   0  0  0  0  0  0  0  0  0  0  0  0
  1  2  2  0
  2  3  1  0
  4  3  2  0
  5  4  1  0
  6  1  1  0
  6  5  2  0
  7  6  1  0
  8  7  1  0
  9 10  1  0
  9  8  2  0
 10 11  2  0
 11  7  1  0
 12 16  1  0
 12 10  1  0
 13 12  1  0
 14 13  1  0
 14 15  1  0
 15 16  1  0
 17 22  2  0
 18 17  1  0
 19 18  2  0
 19 20  1  0
 20 21  2  0
 21 22  1  0
 21  1  1  0
 23 19  1  0
  2 24  1  0
  3 25  1  0
  4 26  1  0
  5 27  1  0
  8 28  1  0
 13 29  1  0
 13 30  1  0
 14 31  1  0
 14 32  1  0
 15 33  1  0
 15 34  1  0
 16 35  1  0
 16 36  1  0
 17 37  1  0
 18 38  1  0
 23 39  1  0
 23 40  1  0
M  ISO  8  24  14  25  14  26  14  27  14  28  14  29  13  30  13  31  13
M  ISO  7  32  13  33  13  34  13  35  13  36  13  37  14  38  14
M  END
>  <minimizedAffinity>  (1) 
-5.8564868

>  <minimizedRMSD>  (1) 
0.744073451

$$$$
