
     RDKit          3D

 35 38  0  0  0  0  0  0  0  0999 V2000
   45.8070   32.9960   46.1500 C   0  0  0  0  0  0  0  0  0  0  0  0
   45.3370   33.1450   47.4420 C   0  0  0  0  0  0  0  0  0  0  0  0
   45.5000   32.1640   48.3750 C   0  0  0  0  0  0  0  0  0  0  0  0
   46.1370   30.9840   48.0600 C   0  0  0  0  0  0  0  0  0  0  0  0
   46.5920   30.8830   46.7450 C   0  0  0  0  0  0  0  0  0  0  0  0
   46.4580   31.8260   45.7770 C   0  0  0  0  0  0  0  0  0  0  0  0
   46.9680   31.5940   44.4750 N   0  0  0  0  0  0  0  0  0  0  0  0
   46.1780   30.9520   43.5960 C   0  0  0  0  0  0  0  0  0  0  0  0
   46.8420   30.8280   42.4140 N   0  0  0  0  0  0  0  0  0  0  0  0
   48.0630   31.4120   42.5930 C   0  0  0  0  0  0  0  0  0  0  0  0
   48.1160   31.8730   43.8620 N   0  0  0  0  0  0  0  0  0  0  0  0
   49.0730   31.5000   41.5940 N   0  0  0  0  0  0  0  0  0  0  0  0
   49.0780   31.2400   40.2960 N   0  0  0  0  0  0  0  0  0  0  0  0
   50.3140   31.4900   39.7850 C   0  0  0  0  0  0  0  0  0  0  0  0
   51.1110   31.9300   40.8440 C   0  0  0  0  0  0  0  0  0  0  0  0
   50.2910   31.9240   41.9780 C   0  0  0  0  0  0  0  0  0  0  0  0
   44.5290   35.9780   44.4810 C   0  0  0  0  0  0  0  0  0  0  0  0
   45.3230   36.0070   43.2990 C   0  0  0  0  0  0  0  0  0  0  0  0
   46.2620   35.0280   43.0960 C   0  0  0  0  0  0  0  0  0  0  0  0
   46.4010   34.0550   44.0430 N   0  0  0  0  0  0  0  0  0  0  0  0
   45.6280   34.0540   45.1610 C   0  0  0  0  0  0  0  0  0  0  0  0
   44.7000   35.0070   45.3770 N   0  0  0  0  0  0  0  0  0  0  0  0
   47.0650   35.0250   41.9410 N   0  0  0  0  0  0  0  0  0  0  0  0
   44.8206   34.0747   47.7231 H   0  0  0  0  0  0  0  0  0  0  0  0
   45.1170   32.3173   49.3947 H   0  0  0  0  0  0  0  0  0  0  0  0
   46.2772   30.1772   48.7944 H   0  0  0  0  0  0  0  0  0  0  0  0
   47.1076   29.9522   46.4661 H   0  0  0  0  0  0  0  0  0  0  0  0
   45.1606   30.5865   43.7992 H   0  0  0  0  0  0  0  0  0  0  0  0
   50.6261   31.3686   38.7372 H   0  0  0  0  0  0  0  0  0  0  0  0
   52.1703   32.2225   40.7964 H   0  0  0  0  0  0  0  0  0  0  0  0
   50.5878   32.2130   42.9970 H   0  0  0  0  0  0  0  0  0  0  0  0
   43.7735   36.7585   44.6544 H   0  0  0  0  0  0  0  0  0  0  0  0
   45.1846   36.8065   42.5563 H   0  0  0  0  0  0  0  0  0  0  0  0
   47.7658   34.2829   41.8029 H   0  0  0  0  0  0  0  0  0  0  0  0
   46.9521   35.7649   41.2334 H   0  0  0  0  0  0  0  0  0  0  0  0
  1  2  2  0
  2  3  1  0
  4  3  2  0
  5  4  1  0
  6  1  1  0
  6  5  2  0
  7  6  1  0
  8  7  1  0
  9 10  1  0
  9  8  2  0
 10 11  2  0
 11  7  1  0
 12 16  1  0
 12 10  1  0
 13 12  1  0
 14 13  2  0
 14 15  1  0
 15 16  2  0
 17 22  2  0
 18 17  1  0
 19 18  2  0
 19 20  1  0
 20 21  2  0
 21 22  1  0
 21  1  1  0
 23 19  1  0
  2 24  1  0
  3 25  1  0
  4 26  1  0
  5 27  1  0
  8 28  1  0
 14 29  1  0
 15 30  1  0
 16 31  1  0
 17 32  1  0
 18 33  1  0
 23 34  1  0
 23 35  1  0
M  ISO  8  24  14  25  14  26  14  27  14  28  14  29  14  30  14  31  14
M  ISO  2  32  14  33  14
M  END
>  <minimizedAffinity>  (1) 
-5.62184668

>  <minimizedRMSD>  (1) 
0.462925434

$$$$
