
     RDKit          3D

 41 44  0  0  0  0  0  0  0  0999 V2000
   45.7490   32.8900   46.2970 C   0  0  0  0  0  0  0  0  0  0  0  0
   45.3500   33.0690   47.6060 C   0  0  0  0  0  0  0  0  0  0  0  0
   45.5060   32.0680   48.5320 C   0  0  0  0  0  0  0  0  0  0  0  0
   46.0610   30.8630   48.1860 C   0  0  0  0  0  0  0  0  0  0  0  0
   46.4470   30.7390   46.8420 C   0  0  0  0  0  0  0  0  0  0  0  0
   46.3140   31.6970   45.8980 C   0  0  0  0  0  0  0  0  0  0  0  0
   44.5070   35.9140   44.6570 C   0  0  0  0  0  0  0  0  0  0  0  0
   45.2810   35.9580   43.4810 C   0  0  0  0  0  0  0  0  0  0  0  0
   46.2100   34.9620   43.2630 C   0  0  0  0  0  0  0  0  0  0  0  0
   46.3450   33.9690   44.1980 N   0  0  0  0  0  0  0  0  0  0  0  0
   45.5760   33.9710   45.3170 C   0  0  0  0  0  0  0  0  0  0  0  0
   44.6570   34.9320   45.5600 N   0  0  0  0  0  0  0  0  0  0  0  0
   47.0100   34.9570   42.1020 N   0  0  0  0  0  0  0  0  0  0  0  0
   46.7450   31.4490   44.5670 N   0  0  0  0  0  0  0  0  0  0  0  0
   45.8760   30.9010   43.7080 C   0  0  0  0  0  0  0  0  0  0  0  0
   46.4900   30.7490   42.4950 N   0  0  0  0  0  0  0  0  0  0  0  0
   47.7500   31.2170   42.6360 C   0  0  0  0  0  0  0  0  0  0  0  0
   47.8870   31.6400   43.9070 N   0  0  0  0  0  0  0  0  0  0  0  0
   50.8370   31.3830   39.7550 C   0  0  0  0  0  0  0  0  0  0  0  0
   49.6420   30.7510   39.4900 C   0  0  0  0  0  0  0  0  0  0  0  0
   48.6490   30.7090   40.4460 C   0  0  0  0  0  0  0  0  0  0  0  0
   48.8520   31.3090   41.6870 C   0  0  0  0  0  0  0  0  0  0  0  0
   50.0410   31.9530   41.9870 C   0  0  0  0  0  0  0  0  0  0  0  0
   51.0060   31.9670   40.9940 C   0  0  0  0  0  0  0  0  0  0  0  0
   52.1410   31.4670   38.5710 S   0  0  0  0  0  0  0  0  0  0  0  0
   53.4660   31.3350   39.3030 O   0  0  0  0  0  0  0  0  0  0  0  0
   52.0250   30.3190   37.6190 O   0  0  0  0  0  0  0  0  0  0  0  0
   44.9013   34.0259   47.9110 H   0  0  0  0  0  0  0  0  0  0  0  0
   45.1802   32.2354   49.5692 H   0  0  0  0  0  0  0  0  0  0  0  0
   46.1948   30.0481   48.9127 H   0  0  0  0  0  0  0  0  0  0  0  0
   46.8946   29.7833   46.5316 H   0  0  0  0  0  0  0  0  0  0  0  0
   43.7623   36.7027   44.8398 H   0  0  0  0  0  0  0  0  0  0  0  0
   45.1473   36.7702   42.7513 H   0  0  0  0  0  0  0  0  0  0  0  0
   47.6990   34.2057   41.9546 H   0  0  0  0  0  0  0  0  0  0  0  0
   46.9054   35.7046   41.4013 H   0  0  0  0  0  0  0  0  0  0  0  0
   44.8383   30.6192   43.9398 H   0  0  0  0  0  0  0  0  0  0  0  0
   49.4790   30.2773   38.5107 H   0  0  0  0  0  0  0  0  0  0  0  0
   47.6972   30.2021   40.2289 H   0  0  0  0  0  0  0  0  0  0  0  0
   50.2101   32.4290   42.9642 H   0  0  0  0  0  0  0  0  0  0  0  0
   51.9605   32.4717   41.2044 H   0  0  0  0  0  0  0  0  0  0  0  0
   52.0687   32.6541   37.8909 H   0  0  0  0  0  0  0  0  0  0  0  0
  1  2  2  0
  2  3  1  0
  4  3  2  0
  5  4  1  0
  6  1  1  0
  6  5  2  0
  7 12  2  0
  8  7  1  0
  9  8  2  0
  9 10  1  0
 10 11  2  0
 11 12  1  0
 11  1  1  0
 13  9  1  0
 14  6  1  0
 15 14  1  0
 16 17  1  0
 16 15  2  0
 17 18  2  0
 18 14  1  0
 19 24  2  0
 20 19  1  0
 20 21  2  0
 21 22  1  0
 22 23  2  0
 22 17  1  0
 24 23  1  0
 25 26  2  0
 25 19  1  0
 27 25  2  0
  2 28  1  0
  3 29  1  0
  4 30  1  0
  5 31  1  0
  7 32  1  0
  8 33  1  0
 13 34  1  0
 13 35  1  0
 15 36  1  0
 20 37  1  0
 21 38  1  0
 23 39  1  0
 24 40  1  0
 25 41  1  0
M  ISO  8  28  14  29  14  30  14  31  14  32  14  33  14  36  14  37  14
M  ISO  4  38  14  39  14  40  14  41  11
M  END
>  <minimizedAffinity>  (1) 
-5.65350771

>  <minimizedRMSD>  (1) 
0.481466413

$$$$
