
     RDKit          3D

 34 37  0  0  0  0  0  0  0  0999 V2000
   45.8400   32.9660   46.1330 C   0  0  0  0  0  0  0  0  0  0  0  0
   45.3830   33.1290   47.4150 C   0  0  0  0  0  0  0  0  0  0  0  0
   45.5410   32.1410   48.3530 C   0  0  0  0  0  0  0  0  0  0  0  0
   46.1670   30.9470   48.0340 C   0  0  0  0  0  0  0  0  0  0  0  0
   46.6070   30.8440   46.7180 C   0  0  0  0  0  0  0  0  0  0  0  0
   46.4760   31.7910   45.7510 C   0  0  0  0  0  0  0  0  0  0  0  0
   46.9750   31.5490   44.4420 N   0  0  0  0  0  0  0  0  0  0  0  0
   46.1690   30.9440   43.5590 C   0  0  0  0  0  0  0  0  0  0  0  0
   46.8290   30.8090   42.3810 N   0  0  0  0  0  0  0  0  0  0  0  0
   48.0670   31.3470   42.5620 C   0  0  0  0  0  0  0  0  0  0  0  0
   48.1310   31.7930   43.8340 N   0  0  0  0  0  0  0  0  0  0  0  0
   49.2270   31.5280   41.7580 N   0  0  0  0  0  0  0  0  0  0  0  0
   49.1030   31.4300   40.4170 C   0  0  0  0  0  0  0  0  0  0  0  0
   50.3140   31.6340   39.8390 N   0  0  0  0  0  0  0  0  0  0  0  0
   51.1870   31.8590   40.8420 C   0  0  0  0  0  0  0  0  0  0  0  0
   50.5080   31.7920   42.0220 N   0  0  0  0  0  0  0  0  0  0  0  0
   44.5430   35.9300   44.4220 C   0  0  0  0  0  0  0  0  0  0  0  0
   45.3640   35.9810   43.2610 C   0  0  0  0  0  0  0  0  0  0  0  0
   46.3260   35.0180   43.0900 C   0  0  0  0  0  0  0  0  0  0  0  0
   46.4650   34.0450   44.0360 N   0  0  0  0  0  0  0  0  0  0  0  0
   45.6710   34.0230   45.1300 C   0  0  0  0  0  0  0  0  0  0  0  0
   44.7100   34.9580   45.3290 N   0  0  0  0  0  0  0  0  0  0  0  0
   47.1630   35.0300   41.9530 N   0  0  0  0  0  0  0  0  0  0  0  0
   44.8817   34.0670   47.6959 H   0  0  0  0  0  0  0  0  0  0  0  0
   45.1648   32.2991   49.3745 H   0  0  0  0  0  0  0  0  0  0  0  0
   46.3061   30.1392   48.7676 H   0  0  0  0  0  0  0  0  0  0  0  0
   47.1085   29.9074   46.4328 H   0  0  0  0  0  0  0  0  0  0  0  0
   45.1395   30.6109   43.7569 H   0  0  0  0  0  0  0  0  0  0  0  0
   48.1678   31.2182   39.8779 H   0  0  0  0  0  0  0  0  0  0  0  0
   52.2621   32.0617   40.7275 H   0  0  0  0  0  0  0  0  0  0  0  0
   43.7662   36.6935   44.5759 H   0  0  0  0  0  0  0  0  0  0  0  0
   45.2299   36.7777   42.5145 H   0  0  0  0  0  0  0  0  0  0  0  0
   47.8819   34.3019   41.8350 H   0  0  0  0  0  0  0  0  0  0  0  0
   47.0547   35.7669   41.2415 H   0  0  0  0  0  0  0  0  0  0  0  0
  1  2  2  0
  2  3  1  0
  4  3  2  0
  5  4  1  0
  6  1  1  0
  6  5  2  0
  7  6  1  0
  8  7  1  0
  9 10  1  0
  9  8  2  0
 10 11  2  0
 11  7  1  0
 12 16  1  0
 12 10  1  0
 13 12  1  0
 14 13  2  0
 14 15  1  0
 15 16  2  0
 17 22  2  0
 18 17  1  0
 19 18  2  0
 19 20  1  0
 20 21  2  0
 21 22  1  0
 21  1  1  0
 23 19  1  0
  2 24  1  0
  3 25  1  0
  4 26  1  0
  5 27  1  0
  8 28  1  0
 13 29  1  0
 15 30  1  0
 17 31  1  0
 18 32  1  0
 23 33  1  0
 23 34  1  0
M  ISO  8  24  14  25  14  26  14  27  14  28  14  29  14  30  14  31  14
M  ISO  1  32  14
M  END
>  <minimizedAffinity>  (1) 
-5.59080791

>  <minimizedRMSD>  (1) 
0.418535411

$$$$
