
     RDKit          3D

 35 38  0  0  0  0  0  0  0  0999 V2000
   45.8010   32.9370   46.3470 C   0  0  0  0  0  0  0  0  0  0  0  0
   45.2660   32.9610   47.6150 C   0  0  0  0  0  0  0  0  0  0  0  0
   45.5140   31.9550   48.5080 C   0  0  0  0  0  0  0  0  0  0  0  0
   46.3140   30.8720   48.1650 C   0  0  0  0  0  0  0  0  0  0  0  0
   46.8230   30.9040   46.8740 C   0  0  0  0  0  0  0  0  0  0  0  0
   46.6050   31.8810   45.9570 C   0  0  0  0  0  0  0  0  0  0  0  0
   44.4450   35.9990   44.8960 C   0  0  0  0  0  0  0  0  0  0  0  0
   45.0510   36.0110   43.6130 C   0  0  0  0  0  0  0  0  0  0  0  0
   45.9020   34.9820   43.2750 C   0  0  0  0  0  0  0  0  0  0  0  0
   46.1320   33.9900   44.1830 N   0  0  0  0  0  0  0  0  0  0  0  0
   45.5320   34.0180   45.3970 C   0  0  0  0  0  0  0  0  0  0  0  0
   44.6970   35.0090   45.7560 N   0  0  0  0  0  0  0  0  0  0  0  0
   46.5290   34.9540   42.0040 N   0  0  0  0  0  0  0  0  0  0  0  0
   47.1960   31.7830   44.6580 N   0  0  0  0  0  0  0  0  0  0  0  0
   46.5960   30.9850   43.7540 C   0  0  0  0  0  0  0  0  0  0  0  0
   47.3110   31.0310   42.5900 N   0  0  0  0  0  0  0  0  0  0  0  0
   48.3590   31.8780   42.8130 C   0  0  0  0  0  0  0  0  0  0  0  0
   48.2520   32.3120   44.0770 N   0  0  0  0  0  0  0  0  0  0  0  0
   49.4160   32.2470   41.8360 C   0  0  0  0  0  0  0  0  0  0  0  0
   50.7920   32.5860   42.2620 C   0  0  0  0  0  0  0  0  0  0  0  0
   49.9060   33.6910   41.8230 C   0  0  0  0  0  0  0  0  0  0  0  0
   44.6273   33.8046   47.9157 H   0  0  0  0  0  0  0  0  0  0  0  0
   45.0728   32.0042   49.5144 H   0  0  0  0  0  0  0  0  0  0  0  0
   46.5280   30.0504   48.8644 H   0  0  0  0  0  0  0  0  0  0  0  0
   47.4604   30.0619   46.5663 H   0  0  0  0  0  0  0  0  0  0  0  0
   43.7622   36.8117   45.1845 H   0  0  0  0  0  0  0  0  0  0  0  0
   44.8454   36.8255   42.9028 H   0  0  0  0  0  0  0  0  0  0  0  0
   47.1639   34.1806   41.7599 H   0  0  0  0  0  0  0  0  0  0  0  0
   46.3497   35.7071   41.3246 H   0  0  0  0  0  0  0  0  0  0  0  0
   45.6833   30.3950   43.9240 H   0  0  0  0  0  0  0  0  0  0  0  0
   48.9992   31.5307   41.1127 H   0  0  0  0  0  0  0  0  0  0  0  0
   51.0704   32.4999   43.3227 H   0  0  0  0  0  0  0  0  0  0  0  0
   51.7932   32.2420   41.9632 H   0  0  0  0  0  0  0  0  0  0  0  0
   50.0926   34.2030   40.8675 H   0  0  0  0  0  0  0  0  0  0  0  0
   49.5611   34.6400   42.2594 H   0  0  0  0  0  0  0  0  0  0  0  0
  1  2  2  0
  2  3  1  0
  4  3  2  0
  5  4  1  0
  6  1  1  0
  6  5  2  0
  7 12  2  0
  8  7  1  0
  9  8  2  0
  9 10  1  0
 10 11  2  0
 11 12  1  0
 11  1  1  0
 13  9  1  0
 14  6  1  0
 15 14  1  0
 16 17  1  0
 16 15  2  0
 17 18  2  0
 18 14  1  0
 19 20  1  0
 19 17  1  0
 21 19  1  0
 21 20  1  0
  2 22  1  0
  3 23  1  0
  4 24  1  0
  5 25  1  0
  7 26  1  0
  8 27  1  0
 13 28  1  0
 13 29  1  0
 15 30  1  0
 19 31  1  0
 20 32  1  0
 20 33  1  0
 21 34  1  0
 21 35  1  0
M  ISO  8  22  14  23  14  24  14  25  14  26  14  27  14  30  14  31  13
M  ISO  4  32  13  33  13  34  13  35  13
M  END
>  <minimizedAffinity>  (1) 
-5.29567003

>  <minimizedRMSD>  (1) 
1.01012862

$$$$
