
     RDKit          3D

 35 38  0  0  0  0  0  0  0  0999 V2000
   45.7530   32.8970   46.3140 C   0  0  0  0  0  0  0  0  0  0  0  0
   45.3450   33.0530   47.6120 C   0  0  0  0  0  0  0  0  0  0  0  0
   45.5100   32.0510   48.5330 C   0  0  0  0  0  0  0  0  0  0  0  0
   46.0890   30.8560   48.1850 C   0  0  0  0  0  0  0  0  0  0  0  0
   46.4810   30.7600   46.8530 C   0  0  0  0  0  0  0  0  0  0  0  0
   46.3430   31.7160   45.9020 C   0  0  0  0  0  0  0  0  0  0  0  0
   44.4990   35.9190   44.6910 C   0  0  0  0  0  0  0  0  0  0  0  0
   45.2670   35.9570   43.4940 C   0  0  0  0  0  0  0  0  0  0  0  0
   46.1890   34.9570   43.2710 C   0  0  0  0  0  0  0  0  0  0  0  0
   46.3300   33.9750   44.1980 N   0  0  0  0  0  0  0  0  0  0  0  0
   45.5730   33.9730   45.3360 C   0  0  0  0  0  0  0  0  0  0  0  0
   44.6650   34.9380   45.5800 N   0  0  0  0  0  0  0  0  0  0  0  0
   46.9740   34.9530   42.0980 N   0  0  0  0  0  0  0  0  0  0  0  0
   46.7940   31.4740   44.5740 N   0  0  0  0  0  0  0  0  0  0  0  0
   45.9580   30.8620   43.7180 C   0  0  0  0  0  0  0  0  0  0  0  0
   46.5730   30.7250   42.5140 N   0  0  0  0  0  0  0  0  0  0  0  0
   47.8090   31.2680   42.6480 C   0  0  0  0  0  0  0  0  0  0  0  0
   47.9100   31.7150   43.9130 N   0  0  0  0  0  0  0  0  0  0  0  0
   48.8940   31.4140   41.7290 C   0  0  0  0  0  0  0  0  0  0  0  0
   48.9470   31.5140   40.3690 C   0  0  0  0  0  0  0  0  0  0  0  0
   50.1320   31.6490   39.7020 C   0  0  0  0  0  0  0  0  0  0  0  0
   51.3080   31.6730   40.5880 C   0  0  0  0  0  0  0  0  0  0  0  0
   50.5710   31.4980   42.2810 S   0  0  0  0  0  0  0  0  0  0  0  0
   44.8766   33.9991   47.9211 H   0  0  0  0  0  0  0  0  0  0  0  0
   45.1727   32.2072   49.5683 H   0  0  0  0  0  0  0  0  0  0  0  0
   46.2323   30.0363   48.9044 H   0  0  0  0  0  0  0  0  0  0  0  0
   46.9492   29.8147   46.5411 H   0  0  0  0  0  0  0  0  0  0  0  0
   43.7586   36.7088   44.8861 H   0  0  0  0  0  0  0  0  0  0  0  0
   45.1280   36.7667   42.7625 H   0  0  0  0  0  0  0  0  0  0  0  0
   47.6604   34.2014   41.9402 H   0  0  0  0  0  0  0  0  0  0  0  0
   46.8605   35.7017   41.3998 H   0  0  0  0  0  0  0  0  0  0  0  0
   44.9378   30.5254   43.9545 H   0  0  0  0  0  0  0  0  0  0  0  0
   48.0098   31.4851   39.7938 H   0  0  0  0  0  0  0  0  0  0  0  0
   50.2009   31.7319   38.6073 H   0  0  0  0  0  0  0  0  0  0  0  0
   52.3683   31.7711   40.3121 H   0  0  0  0  0  0  0  0  0  0  0  0
  1  2  2  0
  2  3  1  0
  4  3  2  0
  5  4  1  0
  6  1  1  0
  6  5  2  0
  7 12  2  0
  8  7  1  0
  9  8  2  0
  9 10  1  0
 10 11  2  0
 11 12  1  0
 11  1  1  0
 13  9  1  0
 14  6  1  0
 15 14  1  0
 16 17  1  0
 16 15  2  0
 17 18  2  0
 18 14  1  0
 19 23  1  0
 19 17  1  0
 20 19  2  0
 21 20  1  0
 21 22  2  0
 22 23  1  0
  2 24  1  0
  3 25  1  0
  4 26  1  0
  5 27  1  0
  7 28  1  0
  8 29  1  0
 13 30  1  0
 13 31  1  0
 15 32  1  0
 20 33  1  0
 21 34  1  0
 22 35  1  0
M  ISO  8  24  14  25  14  26  14  27  14  28  14  29  14  32  14  33  14
M  ISO  2  34  14  35  14
M  END
>  <minimizedAffinity>  (1) 
-5.37062025

>  <minimizedRMSD>  (1) 
0.408990979

$$$$
