
     RDKit          3D

 37 39  0  0  0  0  0  0  0  0999 V2000
   45.8300   32.9340   46.2440 C   0  0  0  0  0  0  0  0  0  0  0  0
   45.3730   33.0160   47.5450 C   0  0  0  0  0  0  0  0  0  0  0  0
   45.6050   31.9970   48.4330 C   0  0  0  0  0  0  0  0  0  0  0  0
   46.2930   30.8620   48.0680 C   0  0  0  0  0  0  0  0  0  0  0  0
   46.7240   30.8430   46.7430 C   0  0  0  0  0  0  0  0  0  0  0  0
   46.5310   31.8160   45.8100 C   0  0  0  0  0  0  0  0  0  0  0  0
   44.4630   35.9720   44.7580 C   0  0  0  0  0  0  0  0  0  0  0  0
   45.1410   36.0340   43.5170 C   0  0  0  0  0  0  0  0  0  0  0  0
   46.0480   35.0430   43.2100 C   0  0  0  0  0  0  0  0  0  0  0  0
   46.2540   34.0400   44.1240 N   0  0  0  0  0  0  0  0  0  0  0  0
   45.5840   34.0210   45.2950 C   0  0  0  0  0  0  0  0  0  0  0  0
   44.6880   34.9820   45.6200 N   0  0  0  0  0  0  0  0  0  0  0  0
   46.7570   35.0500   41.9870 N   0  0  0  0  0  0  0  0  0  0  0  0
   47.0270   31.6630   44.4960 N   0  0  0  0  0  0  0  0  0  0  0  0
   46.2850   30.9400   43.6250 C   0  0  0  0  0  0  0  0  0  0  0  0
   46.9350   30.9140   42.4220 N   0  0  0  0  0  0  0  0  0  0  0  0
   48.0770   31.6300   42.5770 C   0  0  0  0  0  0  0  0  0  0  0  0
   48.1000   32.0680   43.8440 N   0  0  0  0  0  0  0  0  0  0  0  0
   49.0770   31.8510   41.5020 C   0  0  0  0  0  0  0  0  0  0  0  0
   48.3880   32.2340   40.1880 C   0  0  0  0  0  0  0  0  0  0  0  0
   50.0570   32.9560   41.8340 C   0  0  0  0  0  0  0  0  0  0  0  0
   44.8175   33.9074   47.8719 H   0  0  0  0  0  0  0  0  0  0  0  0
   45.2316   32.0890   49.4636 H   0  0  0  0  0  0  0  0  0  0  0  0
   46.4872   30.0352   48.7671 H   0  0  0  0  0  0  0  0  0  0  0  0
   47.2772   29.9499   46.4170 H   0  0  0  0  0  0  0  0  0  0  0  0
   43.7363   36.7566   45.0154 H   0  0  0  0  0  0  0  0  0  0  0  0
   44.9479   36.8562   42.8122 H   0  0  0  0  0  0  0  0  0  0  0  0
   47.4304   34.2993   41.7778 H   0  0  0  0  0  0  0  0  0  0  0  0
   46.6001   35.8058   41.3051 H   0  0  0  0  0  0  0  0  0  0  0  0
   45.3227   30.4556   43.8470 H   0  0  0  0  0  0  0  0  0  0  0  0
   49.6214   30.9002   41.4038 H   0  0  0  0  0  0  0  0  0  0  0  0
   47.4458   32.7577   40.4071 H   0  0  0  0  0  0  0  0  0  0  0  0
   49.0482   32.8946   39.6068 H   0  0  0  0  0  0  0  0  0  0  0  0
   48.1754   31.3246   39.6068 H   0  0  0  0  0  0  0  0  0  0  0  0
   50.1434   33.0535   42.9263 H   0  0  0  0  0  0  0  0  0  0  0  0
   51.0418   32.7128   41.4085 H   0  0  0  0  0  0  0  0  0  0  0  0
   49.6979   33.9047   41.4085 H   0  0  0  0  0  0  0  0  0  0  0  0
  1  2  2  0
  2  3  1  0
  4  3  2  0
  5  4  1  0
  6  1  1  0
  6  5  2  0
  7 12  2  0
  8  7  1  0
  9  8  2  0
  9 10  1  0
 10 11  2  0
 11 12  1  0
 11  1  1  0
 13  9  1  0
 14  6  1  0
 15 14  1  0
 16 17  1  0
 16 15  2  0
 17 18  2  0
 18 14  1  0
 19 21  1  0
 19 17  1  0
 20 19  1  0
  2 22  1  0
  3 23  1  0
  4 24  1  0
  5 25  1  0
  7 26  1  0
  8 27  1  0
 13 28  1  0
 13 29  1  0
 15 30  1  0
 19 31  1  0
 20 32  1  0
 20 33  1  0
 20 34  1  0
 21 35  1  0
 21 36  1  0
 21 37  1  0
M  ISO  8  22  14  23  14  24  14  25  14  26  14  27  14  30  14  31   8
M  ISO  6  32   8  33   8  34   8  35   8  36   8  37   8
M  END
>  <minimizedAffinity>  (1) 
-5.19667673

>  <minimizedRMSD>  (1) 
0.751600325

$$$$
