
     RDKit          3D

 29 31  0  0  0  0  0  0  0  0999 V2000
   45.7790   32.9580   46.1640 C   0  0  0  0  0  0  0  0  0  0  0  0
   45.4190   33.1730   47.4800 C   0  0  0  0  0  0  0  0  0  0  0  0
   45.5570   32.1930   48.4250 C   0  0  0  0  0  0  0  0  0  0  0  0
   46.0620   30.9510   48.0890 C   0  0  0  0  0  0  0  0  0  0  0  0
   46.4100   30.7860   46.7460 C   0  0  0  0  0  0  0  0  0  0  0  0
   46.2920   31.7240   45.7740 C   0  0  0  0  0  0  0  0  0  0  0  0
   44.5390   35.9240   44.4410 C   0  0  0  0  0  0  0  0  0  0  0  0
   45.3600   35.9830   43.3030 C   0  0  0  0  0  0  0  0  0  0  0  0
   46.3320   35.0050   43.1350 C   0  0  0  0  0  0  0  0  0  0  0  0
   46.4450   34.0310   44.0830 N   0  0  0  0  0  0  0  0  0  0  0  0
   45.6230   34.0130   45.1770 C   0  0  0  0  0  0  0  0  0  0  0  0
   44.6760   34.9590   45.3500 N   0  0  0  0  0  0  0  0  0  0  0  0
   47.1880   35.0090   42.0120 N   0  0  0  0  0  0  0  0  0  0  0  0
   46.6820   31.4350   44.4400 N   0  0  0  0  0  0  0  0  0  0  0  0
   45.7550   30.8880   43.6270 C   0  0  0  0  0  0  0  0  0  0  0  0
   46.3170   30.6860   42.4000 N   0  0  0  0  0  0  0  0  0  0  0  0
   47.6020   31.1220   42.4860 C   0  0  0  0  0  0  0  0  0  0  0  0
   47.8030   31.5760   43.7480 N   0  0  0  0  0  0  0  0  0  0  0  0
   48.5190   31.0910   41.4480 O   0  0  0  0  0  0  0  0  0  0  0  0
   45.0131   34.1520   47.7744 H   0  0  0  0  0  0  0  0  0  0  0  0
   45.2623   32.3962   49.4651 H   0  0  0  0  0  0  0  0  0  0  0  0
   46.1819   30.1464   48.8294 H   0  0  0  0  0  0  0  0  0  0  0  0
   46.8162   29.8073   46.4507 H   0  0  0  0  0  0  0  0  0  0  0  0
   43.7649   36.6921   44.5854 H   0  0  0  0  0  0  0  0  0  0  0  0
   45.2360   36.7858   42.5613 H   0  0  0  0  0  0  0  0  0  0  0  0
   47.9023   34.2745   41.9063 H   0  0  0  0  0  0  0  0  0  0  0  0
   47.0981   35.7464   41.2985 H   0  0  0  0  0  0  0  0  0  0  0  0
   44.7191   30.6453   43.9064 H   0  0  0  0  0  0  0  0  0  0  0  0
   49.4389   31.4282   41.5900 H   0  0  0  0  0  0  0  0  0  0  0  0
  1  2  2  0
  2  3  1  0
  4  3  2  0
  5  4  1  0
  6  1  1  0
  6  5  2  0
  7 12  2  0
  8  7  1  0
  9  8  2  0
  9 10  1  0
 10 11  2  0
 11 12  1  0
 11  1  1  0
 13  9  1  0
 14  6  1  0
 15 14  1  0
 16 17  1  0
 16 15  2  0
 17 18  2  0
 18 14  1  0
 19 17  1  0
  2 20  1  0
  3 21  1  0
  4 22  1  0
  5 23  1  0
  7 24  1  0
  8 25  1  0
 13 26  1  0
 13 27  1  0
 15 28  1  0
 19 29  1  0
M  ISO  8  20  14  21  14  22  14  23  14  24  14  25  14  28  14  29   3
M  END
>  <minimizedAffinity>  (1) 
-4.80324459

>  <minimizedRMSD>  (1) 
0.0129866619

$$$$
