
     RDKit          3D

 31 33  0  0  0  0  0  0  0  0999 V2000
   45.7740   32.9620   46.1720 C   0  0  0  0  0  0  0  0  0  0  0  0
   45.4200   33.1750   47.4760 C   0  0  0  0  0  0  0  0  0  0  0  0
   45.5510   32.1910   48.4230 C   0  0  0  0  0  0  0  0  0  0  0  0
   46.0490   30.9460   48.0890 C   0  0  0  0  0  0  0  0  0  0  0  0
   46.3950   30.7830   46.7510 C   0  0  0  0  0  0  0  0  0  0  0  0
   46.2810   31.7280   45.7810 C   0  0  0  0  0  0  0  0  0  0  0  0
   44.5400   35.9230   44.4370 C   0  0  0  0  0  0  0  0  0  0  0  0
   45.3660   35.9710   43.3010 C   0  0  0  0  0  0  0  0  0  0  0  0
   46.3370   34.9950   43.1360 C   0  0  0  0  0  0  0  0  0  0  0  0
   46.4520   34.0260   44.0810 N   0  0  0  0  0  0  0  0  0  0  0  0
   45.6320   34.0110   45.1700 C   0  0  0  0  0  0  0  0  0  0  0  0
   44.6740   34.9580   45.3540 N   0  0  0  0  0  0  0  0  0  0  0  0
   47.1830   35.0090   42.0140 N   0  0  0  0  0  0  0  0  0  0  0  0
   46.6700   31.4340   44.4470 N   0  0  0  0  0  0  0  0  0  0  0  0
   45.7630   30.8890   43.6250 C   0  0  0  0  0  0  0  0  0  0  0  0
   46.3200   30.6830   42.4050 N   0  0  0  0  0  0  0  0  0  0  0  0
   47.6050   31.1160   42.4900 C   0  0  0  0  0  0  0  0  0  0  0  0
   47.8040   31.5730   43.7500 N   0  0  0  0  0  0  0  0  0  0  0  0
   48.6810   31.1410   41.4830 C   0  0  0  0  0  0  0  0  0  0  0  0
   45.0216   34.1567   47.7718 H   0  0  0  0  0  0  0  0  0  0  0  0
   45.2555   32.3959   49.4626 H   0  0  0  0  0  0  0  0  0  0  0  0
   46.1639   30.1402   48.8290 H   0  0  0  0  0  0  0  0  0  0  0  0
   46.7960   29.8032   46.4523 H   0  0  0  0  0  0  0  0  0  0  0  0
   43.7679   36.6942   44.5750 H   0  0  0  0  0  0  0  0  0  0  0  0
   45.2442   36.7699   42.5548 H   0  0  0  0  0  0  0  0  0  0  0  0
   47.9010   34.2791   41.9012 H   0  0  0  0  0  0  0  0  0  0  0  0
   47.0851   35.7491   41.3044 H   0  0  0  0  0  0  0  0  0  0  0  0
   44.7254   30.6458   43.8976 H   0  0  0  0  0  0  0  0  0  0  0  0
   49.6570   31.1637   41.9898 H   0  0  0  0  0  0  0  0  0  0  0  0
   48.6154   30.2411   40.8538 H   0  0  0  0  0  0  0  0  0  0  0  0
   48.5736   32.0369   40.8538 H   0  0  0  0  0  0  0  0  0  0  0  0
  1  2  2  0
  2  3  1  0
  4  3  2  0
  5  4  1  0
  6  1  1  0
  6  5  2  0
  7 12  2  0
  8  7  1  0
  9  8  2  0
  9 10  1  0
 10 11  2  0
 11 12  1  0
 11  1  1  0
 13  9  1  0
 14  6  1  0
 15 14  1  0
 16 17  1  0
 16 15  2  0
 17 18  2  0
 18 14  1  0
 19 17  1  0
  2 20  1  0
  3 21  1  0
  4 22  1  0
  5 23  1  0
  7 24  1  0
  8 25  1  0
 13 26  1  0
 13 27  1  0
 15 28  1  0
 19 29  1  0
 19 30  1  0
 19 31  1  0
M  ISO  8  20  14  21  14  22  14  23  14  24  14  25  14  28  14  29   8
M  ISO  2  30   8  31   8
M  END
>  <minimizedAffinity>  (1) 
-4.8048234

>  <minimizedRMSD>  (1) 
0.00782803725

$$$$
