
     RDKit          3D

 44 49  0  0  0  0  0  0  0  0999 V2000
   45.7780   32.8890   46.3520 C   0  0  0  0  0  0  0  0  0  0  0  0
   45.4650   33.0670   47.6840 C   0  0  0  0  0  0  0  0  0  0  0  0
   45.6700   32.0690   48.5940 C   0  0  0  0  0  0  0  0  0  0  0  0
   46.1970   30.8500   48.2100 C   0  0  0  0  0  0  0  0  0  0  0  0
   46.4970   30.7270   46.8460 C   0  0  0  0  0  0  0  0  0  0  0  0
   46.3100   31.6900   45.9110 C   0  0  0  0  0  0  0  0  0  0  0  0
   44.4670   35.9360   44.8180 C   0  0  0  0  0  0  0  0  0  0  0  0
   45.1530   35.9810   43.5930 C   0  0  0  0  0  0  0  0  0  0  0  0
   46.0520   34.9690   43.3120 C   0  0  0  0  0  0  0  0  0  0  0  0
   46.2360   33.9770   44.2260 N   0  0  0  0  0  0  0  0  0  0  0  0
   45.5490   33.9750   45.4020 C   0  0  0  0  0  0  0  0  0  0  0  0
   44.6670   34.9550   45.6920 N   0  0  0  0  0  0  0  0  0  0  0  0
   46.7720   34.9590   42.0970 N   0  0  0  0  0  0  0  0  0  0  0  0
   46.6510   31.4470   44.5600 N   0  0  0  0  0  0  0  0  0  0  0  0
   45.9020   30.6020   43.8430 C   0  0  0  0  0  0  0  0  0  0  0  0
   46.3970   30.5130   42.5840 N   0  0  0  0  0  0  0  0  0  0  0  0
   47.4850   31.3320   42.5280 C   0  0  0  0  0  0  0  0  0  0  0  0
   47.6120   31.8840   43.7410 N   0  0  0  0  0  0  0  0  0  0  0  0
   48.4330   31.6750   41.4850 C   0  0  0  0  0  0  0  0  0  0  0  0
   48.4420   32.6090   40.5040 N   0  0  0  0  0  0  0  0  0  0  0  0
   49.5330   32.5190   39.8070 O   0  0  0  0  0  0  0  0  0  0  0  0
   50.2800   31.5490   40.2800 C   0  0  0  0  0  0  0  0  0  0  0  0
   49.6050   31.0130   41.3280 N   0  0  0  0  0  0  0  0  0  0  0  0
   51.5600   31.1270   39.7940 N   0  0  0  0  0  0  0  0  0  0  0  0
   52.8250   31.3810   40.2010 C   0  0  0  0  0  0  0  0  0  0  0  0
   53.6620   30.7220   39.3790 N   0  0  0  0  0  0  0  0  0  0  0  0
   52.9580   30.0500   38.4510 C   0  0  0  0  0  0  0  0  0  0  0  0
   53.2780   29.2270   37.3830 C   0  0  0  0  0  0  0  0  0  0  0  0
   52.3330   28.6620   36.5830 N   0  0  0  0  0  0  0  0  0  0  0  0
   51.0400   28.9330   36.8690 C   0  0  0  0  0  0  0  0  0  0  0  0
   50.7210   29.7280   37.9010 N   0  0  0  0  0  0  0  0  0  0  0  0
   51.6110   30.3120   38.7220 C   0  0  0  0  0  0  0  0  0  0  0  0
   45.0441   34.0268   48.0181 H   0  0  0  0  0  0  0  0  0  0  0  0
   45.4115   32.2381   49.6497 H   0  0  0  0  0  0  0  0  0  0  0  0
   46.3692   30.0325   48.9256 H   0  0  0  0  0  0  0  0  0  0  0  0
   46.9191   29.7696   46.5067 H   0  0  0  0  0  0  0  0  0  0  0  0
   43.7470   36.7318   45.0596 H   0  0  0  0  0  0  0  0  0  0  0  0
   44.9798   36.7984   42.8775 H   0  0  0  0  0  0  0  0  0  0  0  0
   47.4389   34.1992   41.8998 H   0  0  0  0  0  0  0  0  0  0  0  0
   46.6302   35.7115   41.4081 H   0  0  0  0  0  0  0  0  0  0  0  0
   45.0198   30.0621   44.2174 H   0  0  0  0  0  0  0  0  0  0  0  0
   53.1172   32.0135   41.0522 H   0  0  0  0  0  0  0  0  0  0  0  0
   54.3383   29.0222   37.1734 H   0  0  0  0  0  0  0  0  0  0  0  0
   50.2421   28.4975   36.2496 H   0  0  0  0  0  0  0  0  0  0  0  0
  1  2  2  0
  2  3  1  0
  4  3  2  0
  5  4  1  0
  6  1  1  0
  6  5  2  0
  7 12  2  0
  8  7  1  0
  9  8  2  0
  9 10  1  0
 10 11  2  0
 11 12  1  0
 11  1  1  0
 13  9  1  0
 14  6  1  0
 15 14  1  0
 16 15  2  0
 17 16  1  0
 17 18  2  0
 18 14  1  0
 19 17  1  0
 20 19  2  0
 21 22  1  0
 21 20  1  0
 22 23  2  0
 23 19  1  0
 24 25  1  0
 24 22  1  0
 26 25  2  0
 27 32  2  0
 27 26  1  0
 28 27  1  0
 29 30  1  0
 29 28  2  0
 30 31  2  0
 31 32  1  0
 32 24  1  0
  2 33  1  0
  3 34  1  0
  4 35  1  0
  5 36  1  0
  7 37  1  0
  8 38  1  0
 13 39  1  0
 13 40  1  0
 15 41  1  0
 25 42  1  0
 28 43  1  0
 30 44  1  0
M  ISO  8  33  14  34  14  35  14  36  14  37  14  38  14  41  14  42  14
M  ISO  2  43  14  44  14
M  END
>  <minimizedAffinity>  (1) 
-6.22777987

>  <minimizedRMSD>  (1) 
2.10926151

$$$$
