
     RDKit          3D

 42 45  0  0  0  0  0  0  0  0999 V2000
   45.8290   32.8910   46.2780 C   0  0  0  0  0  0  0  0  0  0  0  0
   45.5130   33.0360   47.6180 C   0  0  0  0  0  0  0  0  0  0  0  0
   45.7410   32.0170   48.5090 C   0  0  0  0  0  0  0  0  0  0  0  0
   46.2870   30.8270   48.1130 C   0  0  0  0  0  0  0  0  0  0  0  0
   46.5890   30.7340   46.7460 C   0  0  0  0  0  0  0  0  0  0  0  0
   46.3850   31.7060   45.8200 C   0  0  0  0  0  0  0  0  0  0  0  0
   44.4590   35.9360   44.7940 C   0  0  0  0  0  0  0  0  0  0  0  0
   45.1500   36.0100   43.5650 C   0  0  0  0  0  0  0  0  0  0  0  0
   46.0630   35.0290   43.2670 C   0  0  0  0  0  0  0  0  0  0  0  0
   46.2650   34.0220   44.1730 N   0  0  0  0  0  0  0  0  0  0  0  0
   45.5770   33.9880   45.3460 C   0  0  0  0  0  0  0  0  0  0  0  0
   44.6820   34.9380   45.6540 N   0  0  0  0  0  0  0  0  0  0  0  0
   46.7850   35.0480   42.0520 N   0  0  0  0  0  0  0  0  0  0  0  0
   46.7340   31.4910   44.4580 N   0  0  0  0  0  0  0  0  0  0  0  0
   45.8810   30.8200   43.6850 C   0  0  0  0  0  0  0  0  0  0  0  0
   46.4090   30.7320   42.4320 N   0  0  0  0  0  0  0  0  0  0  0  0
   47.6050   31.3660   42.4560 C   0  0  0  0  0  0  0  0  0  0  0  0
   47.7800   31.8190   43.7010 N   0  0  0  0  0  0  0  0  0  0  0  0
   48.6320   31.6100   41.4490 C   0  0  0  0  0  0  0  0  0  0  0  0
   48.6130   32.0920   40.1920 N   0  0  0  0  0  0  0  0  0  0  0  0
   49.8200   32.1120   39.7080 O   0  0  0  0  0  0  0  0  0  0  0  0
   50.6740   31.6520   40.6090 C   0  0  0  0  0  0  0  0  0  0  0  0
   49.9520   31.3370   41.6930 N   0  0  0  0  0  0  0  0  0  0  0  0
   52.1490   31.4790   40.5380 C   0  0  0  0  0  0  0  0  0  0  0  0
   52.6430   31.3630   39.1110 C   0  0  0  0  0  0  0  0  0  0  0  0
   52.5750   30.2390   41.2840 C   0  0  0  0  0  0  0  0  0  0  0  0
   45.0736   33.9798   47.9732 H   0  0  0  0  0  0  0  0  0  0  0  0
   45.4782   32.1609   49.5674 H   0  0  0  0  0  0  0  0  0  0  0  0
   46.4758   30.0021   48.8158 H   0  0  0  0  0  0  0  0  0  0  0  0
   47.0301   29.7901   46.3931 H   0  0  0  0  0  0  0  0  0  0  0  0
   43.7239   36.7139   45.0481 H   0  0  0  0  0  0  0  0  0  0  0  0
   44.9611   36.8349   42.8622 H   0  0  0  0  0  0  0  0  0  0  0  0
   47.4660   34.3032   41.8459 H   0  0  0  0  0  0  0  0  0  0  0  0
   46.6302   35.8066   41.3727 H   0  0  0  0  0  0  0  0  0  0  0  0
   44.9131   30.4065   44.0047 H   0  0  0  0  0  0  0  0  0  0  0  0
   52.5891   32.3766   40.9969 H   0  0  0  0  0  0  0  0  0  0  0  0
   53.7139   31.1115   39.1130 H   0  0  0  0  0  0  0  0  0  0  0  0
   52.0816   30.5722   38.5918 H   0  0  0  0  0  0  0  0  0  0  0  0
   52.4923   32.3210   38.5918 H   0  0  0  0  0  0  0  0  0  0  0  0
   52.5119   30.4226   42.3667 H   0  0  0  0  0  0  0  0  0  0  0  0
   51.9124   29.4033   41.0146 H   0  0  0  0  0  0  0  0  0  0  0  0
   53.6113   29.9869   41.0146 H   0  0  0  0  0  0  0  0  0  0  0  0
  1  2  2  0
  2  3  1  0
  4  3  2  0
  5  4  1  0
  6  1  1  0
  6  5  2  0
  7 12  2  0
  8  7  1  0
  9  8  2  0
  9 10  1  0
 10 11  2  0
 11 12  1  0
 11  1  1  0
 13  9  1  0
 14  6  1  0
 15 14  1  0
 16 17  1  0
 16 15  2  0
 17 18  2  0
 18 14  1  0
 19 23  1  0
 19 17  1  0
 20 19  2  0
 21 20  1  0
 21 22  1  0
 22 23  2  0
 24 22  1  0
 24 26  1  0
 25 24  1  0
  2 27  1  0
  3 28  1  0
  4 29  1  0
  5 30  1  0
  7 31  1  0
  8 32  1  0
 13 33  1  0
 13 34  1  0
 15 35  1  0
 24 36  1  0
 25 37  1  0
 25 38  1  0
 25 39  1  0
 26 40  1  0
 26 41  1  0
 26 42  1  0
M  ISO  8  27  14  28  14  29  14  30  14  31  14  32  14  35  14  36   8
M  ISO  6  37   8  38   8  39   8  40   8  41   8  42   8
M  END
>  <minimizedAffinity>  (1) 
-5.57662773

>  <minimizedRMSD>  (1) 
0.647883534

$$$$
