
     RDKit          3D

 40 44  0  0  0  0  0  0  0  0999 V2000
   45.7510   32.8820   46.3360 C   0  0  0  0  0  0  0  0  0  0  0  0
   45.5300   33.0570   47.6940 C   0  0  0  0  0  0  0  0  0  0  0  0
   45.7370   32.0230   48.5790 C   0  0  0  0  0  0  0  0  0  0  0  0
   46.1660   30.7920   48.1580 C   0  0  0  0  0  0  0  0  0  0  0  0
   46.3710   30.6760   46.7760 C   0  0  0  0  0  0  0  0  0  0  0  0
   46.1840   31.6560   45.8610 C   0  0  0  0  0  0  0  0  0  0  0  0
   44.4470   35.9510   44.8600 C   0  0  0  0  0  0  0  0  0  0  0  0
   45.1390   36.0200   43.6480 C   0  0  0  0  0  0  0  0  0  0  0  0
   46.0450   35.0160   43.3470 C   0  0  0  0  0  0  0  0  0  0  0  0
   46.2190   34.0060   44.2490 N   0  0  0  0  0  0  0  0  0  0  0  0
   45.5280   33.9820   45.4050 C   0  0  0  0  0  0  0  0  0  0  0  0
   44.6450   34.9420   45.7220 N   0  0  0  0  0  0  0  0  0  0  0  0
   46.7700   35.0440   42.1310 N   0  0  0  0  0  0  0  0  0  0  0  0
   46.4290   31.4050   44.4920 N   0  0  0  0  0  0  0  0  0  0  0  0
   45.5150   30.7250   43.7920 C   0  0  0  0  0  0  0  0  0  0  0  0
   45.9220   30.5850   42.5100 N   0  0  0  0  0  0  0  0  0  0  0  0
   47.1350   31.2030   42.4170 C   0  0  0  0  0  0  0  0  0  0  0  0
   47.4080   31.6900   43.6470 N   0  0  0  0  0  0  0  0  0  0  0  0
   48.0890   31.4120   41.3450 C   0  0  0  0  0  0  0  0  0  0  0  0
   48.0380   32.1070   40.1800 N   0  0  0  0  0  0  0  0  0  0  0  0
   49.1690   31.9850   39.5480 O   0  0  0  0  0  0  0  0  0  0  0  0
   50.0010   31.2250   40.2430 C   0  0  0  0  0  0  0  0  0  0  0  0
   49.3370   30.8650   41.3610 N   0  0  0  0  0  0  0  0  0  0  0  0
   51.3330   30.8570   39.8880 N   0  0  0  0  0  0  0  0  0  0  0  0
   51.6990   29.9050   39.0430 N   0  0  0  0  0  0  0  0  0  0  0  0
   53.0570   29.8460   38.9590 C   0  0  0  0  0  0  0  0  0  0  0  0
   53.5670   30.8260   39.8040 C   0  0  0  0  0  0  0  0  0  0  0  0
   52.4570   31.4270   40.3580 C   0  0  0  0  0  0  0  0  0  0  0  0
   45.1856   34.0325   48.0679 H   0  0  0  0  0  0  0  0  0  0  0  0
   45.5534   32.1894   49.6507 H   0  0  0  0  0  0  0  0  0  0  0  0
   46.3369   29.9565   48.8528 H   0  0  0  0  0  0  0  0  0  0  0  0
   46.7148   29.7006   46.4013 H   0  0  0  0  0  0  0  0  0  0  0  0
   43.7244   36.7409   45.1129 H   0  0  0  0  0  0  0  0  0  0  0  0
   44.9684   36.8521   42.9491 H   0  0  0  0  0  0  0  0  0  0  0  0
   47.4418   34.2938   41.9145 H   0  0  0  0  0  0  0  0  0  0  0  0
   46.6256   35.8145   41.4629 H   0  0  0  0  0  0  0  0  0  0  0  0
   44.5701   30.3363   44.1994 H   0  0  0  0  0  0  0  0  0  0  0  0
   53.6421   29.1519   38.3379 H   0  0  0  0  0  0  0  0  0  0  0  0
   54.6238   31.0682   39.9895 H   0  0  0  0  0  0  0  0  0  0  0  0
   52.4863   32.2550   41.0816 H   0  0  0  0  0  0  0  0  0  0  0  0
  1  2  2  0
  2  3  1  0
  4  3  2  0
  5  4  1  0
  6  1  1  0
  6  5  2  0
  7 12  2  0
  8  7  1  0
  9  8  2  0
  9 10  1  0
 10 11  2  0
 11 12  1  0
 11  1  1  0
 13  9  1  0
 14  6  1  0
 15 14  1  0
 16 15  2  0
 17 16  1  0
 17 18  2  0
 18 14  1  0
 19 23  1  0
 19 17  1  0
 20 19  2  0
 21 20  1  0
 21 22  1  0
 22 23  2  0
 24 22  1  0
 24 28  1  0
 25 24  1  0
 26 25  2  0
 26 27  1  0
 27 28  2  0
  2 29  1  0
  3 30  1  0
  4 31  1  0
  5 32  1  0
  7 33  1  0
  8 34  1  0
 13 35  1  0
 13 36  1  0
 15 37  1  0
 26 38  1  0
 27 39  1  0
 28 40  1  0
M  ISO  8  29  14  30  14  31  14  32  14  33  14  34  14  37  14  38  14
M  ISO  2  39  14  40  14
M  END
>  <minimizedAffinity>  (1) 
-5.78715897

>  <minimizedRMSD>  (1) 
1.4230994

$$$$
