
     RDKit          3D

 40 44  0  0  0  0  0  0  0  0999 V2000
   46.5680   32.6240   46.2630 C   0  0  0  0  0  0  0  0  0  0  0  0
   46.5320   32.7550   47.6370 C   0  0  0  0  0  0  0  0  0  0  0  0
   47.0110   31.7630   48.4520 C   0  0  0  0  0  0  0  0  0  0  0  0
   47.5430   30.6080   47.9320 C   0  0  0  0  0  0  0  0  0  0  0  0
   47.5510   30.5360   46.5360 C   0  0  0  0  0  0  0  0  0  0  0  0
   47.0950   31.4760   45.6760 C   0  0  0  0  0  0  0  0  0  0  0  0
   44.5500   35.4190   45.0540 C   0  0  0  0  0  0  0  0  0  0  0  0
   45.1130   35.6840   43.8030 C   0  0  0  0  0  0  0  0  0  0  0  0
   46.1750   34.9090   43.3820 C   0  0  0  0  0  0  0  0  0  0  0  0
   46.6270   33.9170   44.2100 N   0  0  0  0  0  0  0  0  0  0  0  0
   46.0520   33.6930   45.4170 C   0  0  0  0  0  0  0  0  0  0  0  0
   45.0120   34.4420   45.8420 N   0  0  0  0  0  0  0  0  0  0  0  0
   46.7860   35.1280   42.1290 N   0  0  0  0  0  0  0  0  0  0  0  0
   47.1590   31.2850   44.2830 N   0  0  0  0  0  0  0  0  0  0  0  0
   46.1860   30.5900   43.6890 C   0  0  0  0  0  0  0  0  0  0  0  0
   46.4310   30.5200   42.3530 N   0  0  0  0  0  0  0  0  0  0  0  0
   47.5870   31.1950   42.1330 C   0  0  0  0  0  0  0  0  0  0  0  0
   48.0010   31.6470   43.3300 N   0  0  0  0  0  0  0  0  0  0  0  0
   48.3770   31.4850   40.9380 C   0  0  0  0  0  0  0  0  0  0  0  0
   48.0740   32.0090   39.7300 N   0  0  0  0  0  0  0  0  0  0  0  0
   49.1530   32.0600   39.0000 O   0  0  0  0  0  0  0  0  0  0  0  0
   50.1830   31.5880   39.6710 C   0  0  0  0  0  0  0  0  0  0  0  0
   49.7130   31.2240   40.8840 N   0  0  0  0  0  0  0  0  0  0  0  0
   51.5610   31.4740   39.2050 C   0  0  0  0  0  0  0  0  0  0  0  0
   52.6240   31.0340   39.9660 C   0  0  0  0  0  0  0  0  0  0  0  0
   53.6930   31.1070   39.0950 C   0  0  0  0  0  0  0  0  0  0  0  0
   53.2580   31.5750   37.8720 C   0  0  0  0  0  0  0  0  0  0  0  0
   51.9680   31.7790   37.9960 O   0  0  0  0  0  0  0  0  0  0  0  0
   46.1129   33.6686   48.0838 H   0  0  0  0  0  0  0  0  0  0  0  0
   46.9688   31.8939   49.5434 H   0  0  0  0  0  0  0  0  0  0  0  0
   47.9338   29.7995   48.5673 H   0  0  0  0  0  0  0  0  0  0  0  0
   47.9709   29.6218   46.0911 H   0  0  0  0  0  0  0  0  0  0  0  0
   43.7038   36.0305   45.4002 H   0  0  0  0  0  0  0  0  0  0  0  0
   44.7191   36.4915   43.1683 H   0  0  0  0  0  0  0  0  0  0  0  0
   47.5774   34.5394   41.8320 H   0  0  0  0  0  0  0  0  0  0  0  0
   46.4406   35.8764   41.5114 H   0  0  0  0  0  0  0  0  0  0  0  0
   45.3207   30.1434   44.2006 H   0  0  0  0  0  0  0  0  0  0  0  0
   52.6209   30.7040   41.0153 H   0  0  0  0  0  0  0  0  0  0  0  0
   54.7305   30.8343   39.3384 H   0  0  0  0  0  0  0  0  0  0  0  0
   53.8699   31.7432   36.9735 H   0  0  0  0  0  0  0  0  0  0  0  0
  1  2  2  0
  2  3  1  0
  4  3  2  0
  5  4  1  0
  6  1  1  0
  6  5  2  0
  7 12  2  0
  8  7  1  0
  9  8  2  0
  9 10  1  0
 10 11  2  0
 11 12  1  0
 11  1  1  0
 13  9  1  0
 14  6  1  0
 15 14  1  0
 16 15  2  0
 17 16  1  0
 17 18  2  0
 18 14  1  0
 19 17  1  0
 20 19  2  0
 21 22  1  0
 21 20  1  0
 22 23  2  0
 23 19  1  0
 24 22  1  0
 24 25  2  0
 26 25  1  0
 27 28  1  0
 27 26  2  0
 28 24  1  0
  2 29  1  0
  3 30  1  0
  4 31  1  0
  5 32  1  0
  7 33  1  0
  8 34  1  0
 13 35  1  0
 13 36  1  0
 15 37  1  0
 25 38  1  0
 26 39  1  0
 27 40  1  0
M  ISO  8  29  14  30  14  31  14  32  14  33  14  34  14  37  14  38  14
M  ISO  2  39  14  40  14
M  END
>  <minimizedAffinity>  (1) 
-5.75089455

>  <minimizedRMSD>  (1) 
1.61381102

$$$$
