
     RDKit          3D

 36 39  0  0  0  0  0  0  0  0999 V2000
   45.8070   32.8980   46.2900 C   0  0  0  0  0  0  0  0  0  0  0  0
   45.4920   33.0420   47.6280 C   0  0  0  0  0  0  0  0  0  0  0  0
   45.7110   32.0290   48.5210 C   0  0  0  0  0  0  0  0  0  0  0  0
   46.2520   30.8310   48.1180 C   0  0  0  0  0  0  0  0  0  0  0  0
   46.5520   30.7420   46.7470 C   0  0  0  0  0  0  0  0  0  0  0  0
   46.3550   31.7140   45.8260 C   0  0  0  0  0  0  0  0  0  0  0  0
   44.4560   35.9420   44.8070 C   0  0  0  0  0  0  0  0  0  0  0  0
   45.1440   36.0260   43.5720 C   0  0  0  0  0  0  0  0  0  0  0  0
   46.0530   35.0400   43.2800 C   0  0  0  0  0  0  0  0  0  0  0  0
   46.2560   34.0200   44.1860 N   0  0  0  0  0  0  0  0  0  0  0  0
   45.5640   33.9970   45.3510 C   0  0  0  0  0  0  0  0  0  0  0  0
   44.6680   34.9520   45.6620 N   0  0  0  0  0  0  0  0  0  0  0  0
   46.7780   35.0530   42.0710 N   0  0  0  0  0  0  0  0  0  0  0  0
   46.7000   31.5000   44.4690 N   0  0  0  0  0  0  0  0  0  0  0  0
   45.8230   30.8340   43.6900 C   0  0  0  0  0  0  0  0  0  0  0  0
   46.3360   30.7350   42.4390 N   0  0  0  0  0  0  0  0  0  0  0  0
   47.5410   31.3450   42.4490 C   0  0  0  0  0  0  0  0  0  0  0  0
   47.7370   31.8050   43.7090 N   0  0  0  0  0  0  0  0  0  0  0  0
   48.5750   31.5810   41.4530 C   0  0  0  0  0  0  0  0  0  0  0  0
   48.5820   32.1390   40.2240 N   0  0  0  0  0  0  0  0  0  0  0  0
   49.7860   32.1150   39.7220 O   0  0  0  0  0  0  0  0  0  0  0  0
   50.6050   31.5590   40.5720 C   0  0  0  0  0  0  0  0  0  0  0  0
   49.8740   31.2230   41.6460 N   0  0  0  0  0  0  0  0  0  0  0  0
   52.0300   31.3390   40.3990 C   0  0  0  0  0  0  0  0  0  0  0  0
   52.6880   30.6000   41.1470 O   0  0  0  0  0  0  0  0  0  0  0  0
   52.7410   31.9410   39.3880 O   0  0  0  0  0  0  0  0  0  0  0  0
   45.0572   33.9886   47.9814 H   0  0  0  0  0  0  0  0  0  0  0  0
   45.4498   32.1755   49.5795 H   0  0  0  0  0  0  0  0  0  0  0  0
   46.4368   30.0022   48.8173 H   0  0  0  0  0  0  0  0  0  0  0  0
   46.9863   29.7963   46.3907 H   0  0  0  0  0  0  0  0  0  0  0  0
   43.7239   36.7217   45.0642 H   0  0  0  0  0  0  0  0  0  0  0  0
   44.9564   36.8528   42.8711 H   0  0  0  0  0  0  0  0  0  0  0  0
   47.4561   34.3045   41.8691 H   0  0  0  0  0  0  0  0  0  0  0  0
   46.6296   35.8110   41.3896 H   0  0  0  0  0  0  0  0  0  0  0  0
   44.8507   30.4363   44.0164 H   0  0  0  0  0  0  0  0  0  0  0  0
   53.7120   31.7709   39.2964 H   0  0  0  0  0  0  0  0  0  0  0  0
  1  2  2  0
  2  3  1  0
  4  3  2  0
  5  4  1  0
  6  1  1  0
  6  5  2  0
  7 12  2  0
  8  7  1  0
  9  8  2  0
  9 10  1  0
 10 11  2  0
 11 12  1  0
 11  1  1  0
 13  9  1  0
 14  6  1  0
 15 14  1  0
 16 17  1  0
 16 15  2  0
 17 18  2  0
 18 14  1  0
 19 23  1  0
 19 17  1  0
 20 19  2  0
 21 20  1  0
 21 22  1  0
 22 23  2  0
 24 22  1  0
 24 25  2  0
 26 24  1  0
  2 27  1  0
  3 28  1  0
  4 29  1  0
  5 30  1  0
  7 31  1  0
  8 32  1  0
 13 33  1  0
 13 34  1  0
 15 35  1  0
 26 36  1  0
M  ISO  8  27  14  28  14  29  14  30  14  31  14  32  14  35  14  36   3
M  END
>  <minimizedAffinity>  (1) 
-5.79748011

>  <minimizedRMSD>  (1) 
0.664881587

$$$$
