
     RDKit          3D

 42 44  0  0  0  0  0  0  0  0999 V2000
   46.4170   34.4290   43.5940 C   0  0  0  0  0  0  0  0  0  0  0  0
   46.1080   33.8620   44.8260 C   0  0  0  0  0  0  0  0  0  0  0  0
   45.1170   34.4550   45.5780 C   0  0  0  0  0  0  0  0  0  0  0  0
   44.4930   35.5580   45.0890 N   0  0  0  0  0  0  0  0  0  0  0  0
   44.8010   36.1010   43.8930 C   0  0  0  0  0  0  0  0  0  0  0  0
   45.7520   35.5450   43.1530 N   0  0  0  0  0  0  0  0  0  0  0  0
   47.4770   33.9540   42.6410 C   0  0  0  0  0  0  0  0  0  0  0  0
   48.8350   34.3160   43.0860 C   0  0  0  0  0  0  0  0  0  0  0  0
   49.6100   34.8740   41.9410 C   0  0  0  0  0  0  0  0  0  0  0  0
   48.5680   35.3590   41.0030 C   0  0  0  0  0  0  0  0  0  0  0  0
   47.2690   34.6730   41.2930 C   0  0  0  0  0  0  0  0  0  0  0  0
   46.8440   32.6870   45.2250 C   0  0  0  0  0  0  0  0  0  0  0  0
   46.0520   31.9390   46.2870 C   0  0  0  0  0  0  0  0  0  0  0  0
   49.0700   30.1500   48.7980 C   0  0  0  0  0  0  0  0  0  0  0  0
   48.6450   31.4480   49.0170 C   0  0  0  0  0  0  0  0  0  0  0  0
   47.6820   32.0500   48.2320 C   0  0  0  0  0  0  0  0  0  0  0  0
   47.1090   31.3520   47.1890 C   0  0  0  0  0  0  0  0  0  0  0  0
   47.5460   30.0390   46.9780 C   0  0  0  0  0  0  0  0  0  0  0  0
   48.5090   29.4400   47.7630 C   0  0  0  0  0  0  0  0  0  0  0  0
   50.3000   29.4230   49.8240 S   0  0  0  0  0  0  0  0  0  0  0  0
   50.0870   29.8670   51.2470 O   0  0  0  0  0  0  0  0  0  0  0  0
   50.1030   27.9360   49.7870 O   0  0  0  0  0  0  0  0  0  0  0  0
   44.8360   34.0419   46.5580 H   0  0  0  0  0  0  0  0  0  0  0  0
   44.2695   36.9951   43.5350 H   0  0  0  0  0  0  0  0  0  0  0  0
   47.3910   32.8593   42.5751 H   0  0  0  0  0  0  0  0  0  0  0  0
   48.7688   35.0700   43.8841 H   0  0  0  0  0  0  0  0  0  0  0  0
   49.3441   33.4179   43.4657 H   0  0  0  0  0  0  0  0  0  0  0  0
   50.2541   35.7021   42.2717 H   0  0  0  0  0  0  0  0  0  0  0  0
   50.2797   34.1318   41.4820 H   0  0  0  0  0  0  0  0  0  0  0  0
   48.8750   35.1390   39.9699 H   0  0  0  0  0  0  0  0  0  0  0  0
   48.4424   36.4447   41.1278 H   0  0  0  0  0  0  0  0  0  0  0  0
   46.4546   35.4083   41.3708 H   0  0  0  0  0  0  0  0  0  0  0  0
   46.9902   33.9706   40.4937 H   0  0  0  0  0  0  0  0  0  0  0  0
   46.9974   32.0348   44.3526 H   0  0  0  0  0  0  0  0  0  0  0  0
   47.8217   32.9834   45.6327 H   0  0  0  0  0  0  0  0  0  0  0  0
   45.4005   32.6273   46.8454 H   0  0  0  0  0  0  0  0  0  0  0  0
   45.3899   31.1724   45.8581 H   0  0  0  0  0  0  0  0  0  0  0  0
   49.0894   32.0200   49.8448 H   0  0  0  0  0  0  0  0  0  0  0  0
   47.3719   33.0851   48.4379 H   0  0  0  0  0  0  0  0  0  0  0  0
   47.1035   29.4616   46.1528 H   0  0  0  0  0  0  0  0  0  0  0  0
   48.8247   28.4054   47.5631 H   0  0  0  0  0  0  0  0  0  0  0  0
   51.5481   29.7862   49.3912 H   0  0  0  0  0  0  0  0  0  0  0  0
  1  2  1  0
  2 12  1  0
  2  3  2  0
  4  3  1  0
  5  4  2  0
  6  1  2  0
  6  5  1  0
  7  8  1  0
  7  1  1  0
  9  8  1  0
 10 11  1  0
 10  9  1  0
 11  7  1  0
 12 13  1  0
 13 17  1  0
 14 15  2  0
 14 20  1  0
 16 15  1  0
 17 16  2  0
 18 17  1  0
 18 19  2  0
 19 14  1  0
 20 21  2  0
 22 20  2  0
  3 23  1  0
  5 24  1  0
  7 25  1  0
  8 26  1  0
  8 27  1  0
  9 28  1  0
  9 29  1  0
 10 30  1  0
 10 31  1  0
 11 32  1  0
 11 33  1  0
 12 34  1  0
 12 35  1  0
 13 36  1  0
 13 37  1  0
 15 38  1  0
 16 39  1  0
 18 40  1  0
 19 41  1  0
 20 42  1  0
M  ISO  8  23  14  24  14  25  13  26  13  27  13  28  13  29  13  30  13
M  ISO  8  31  13  32  13  33  13  34   8  35   8  36   8  37   8  38  14
M  ISO  4  39  14  40  14  41  14  42  11
M  END
>  <minimizedAffinity>  (1) 
-6.14079952

>  <minimizedRMSD>  (1) 
1.66724193

$$$$
