
     RDKit          3D

 39 41  0  0  0  0  0  0  0  0999 V2000
   46.3000   34.6630   43.3610 C   0  0  0  0  0  0  0  0  0  0  0  0
   45.8700   34.1150   44.5680 C   0  0  0  0  0  0  0  0  0  0  0  0
   44.9040   34.8030   45.2680 C   0  0  0  0  0  0  0  0  0  0  0  0
   44.4130   35.9640   44.7720 N   0  0  0  0  0  0  0  0  0  0  0  0
   44.8330   36.4830   43.6080 C   0  0  0  0  0  0  0  0  0  0  0  0
   45.7640   35.8440   42.9090 N   0  0  0  0  0  0  0  0  0  0  0  0
   47.3670   34.1220   42.4580 C   0  0  0  0  0  0  0  0  0  0  0  0
   48.2260   35.1850   41.8950 C   0  0  0  0  0  0  0  0  0  0  0  0
   48.4610   34.9320   40.4590 C   0  0  0  0  0  0  0  0  0  0  0  0
   47.2680   34.1290   40.0390 C   0  0  0  0  0  0  0  0  0  0  0  0
   46.6910   33.4590   41.2440 C   0  0  0  0  0  0  0  0  0  0  0  0
   46.4570   32.8830   44.9720 C   0  0  0  0  0  0  0  0  0  0  0  0
   46.9370   32.9990   46.4150 C   0  0  0  0  0  0  0  0  0  0  0  0
   46.2410   31.9550   47.2640 C   0  0  0  0  0  0  0  0  0  0  0  0
   45.9740   32.2380   48.5880 C   0  0  0  0  0  0  0  0  0  0  0  0
   45.3480   31.3850   49.4770 C   0  0  0  0  0  0  0  0  0  0  0  0
   44.9810   30.1610   48.9390 C   0  0  0  0  0  0  0  0  0  0  0  0
   45.2200   29.8200   47.6230 C   0  0  0  0  0  0  0  0  0  0  0  0
   45.8450   30.7110   46.7940 C   0  0  0  0  0  0  0  0  0  0  0  0
   44.5325   34.4112   46.2264 H   0  0  0  0  0  0  0  0  0  0  0  0
   44.4104   37.4282   43.2365 H   0  0  0  0  0  0  0  0  0  0  0  0
   47.9735   33.4307   43.0615 H   0  0  0  0  0  0  0  0  0  0  0  0
   47.7292   36.1588   42.0175 H   0  0  0  0  0  0  0  0  0  0  0  0
   49.1900   35.1908   42.4247 H   0  0  0  0  0  0  0  0  0  0  0  0
   48.5150   35.8767   39.8981 H   0  0  0  0  0  0  0  0  0  0  0  0
   49.4121   34.4135   40.2680 H   0  0  0  0  0  0  0  0  0  0  0  0
   46.5152   34.7928   39.5889 H   0  0  0  0  0  0  0  0  0  0  0  0
   47.5678   33.3731   39.2982 H   0  0  0  0  0  0  0  0  0  0  0  0
   45.6022   33.6108   41.2819 H   0  0  0  0  0  0  0  0  0  0  0  0
   46.8669   32.3733   41.2261 H   0  0  0  0  0  0  0  0  0  0  0  0
   45.7102   32.0788   44.8973 H   0  0  0  0  0  0  0  0  0  0  0  0
   47.3110   32.6514   44.3185 H   0  0  0  0  0  0  0  0  0  0  0  0
   48.0244   32.8377   46.4538 H   0  0  0  0  0  0  0  0  0  0  0  0
   46.7011   34.0019   46.8005 H   0  0  0  0  0  0  0  0  0  0  0  0
   46.2848   33.2229   48.9666 H   0  0  0  0  0  0  0  0  0  0  0  0
   45.1565   31.6551   50.5260 H   0  0  0  0  0  0  0  0  0  0  0  0
   44.4776   29.4301   49.5890 H   0  0  0  0  0  0  0  0  0  0  0  0
   44.9092   28.8359   47.2423 H   0  0  0  0  0  0  0  0  0  0  0  0
   46.0353   30.4387   45.7454 H   0  0  0  0  0  0  0  0  0  0  0  0
  1  2  1  0
  2 12  1  0
  2  3  2  0
  4  3  1  0
  5  4  2  0
  6  1  2  0
  6  5  1  0
  7  1  1  0
  8  7  1  0
  9  8  1  0
 10  9  1  0
 10 11  1  0
 11  7  1  0
 12 13  1  0
 13 14  1  0
 14 15  2  0
 15 16  1  0
 17 16  2  0
 18 17  1  0
 19 14  1  0
 19 18  2  0
  3 20  1  0
  5 21  1  0
  7 22  1  0
  8 23  1  0
  8 24  1  0
  9 25  1  0
  9 26  1  0
 10 27  1  0
 10 28  1  0
 11 29  1  0
 11 30  1  0
 12 31  1  0
 12 32  1  0
 13 33  1  0
 13 34  1  0
 15 35  1  0
 16 36  1  0
 17 37  1  0
 18 38  1  0
 19 39  1  0
M  ISO  8  20  14  21  14  22  13  23  13  24  13  25  13  26  13  27  13
M  ISO  8  28  13  29  13  30  13  31   8  32   8  33   8  34   8  35  14
M  ISO  4  36  14  37  14  38  14  39  14
M  END
>  <minimizedAffinity>  (1) 
-6.01612091

>  <minimizedRMSD>  (1) 
1.98510695

$$$$
