
     RDKit          3D

 43 45  0  0  0  0  0  0  0  0999 V2000
   46.5340   34.5860   43.3360 C   0  0  0  0  0  0  0  0  0  0  0  0
   46.2130   33.9470   44.5500 C   0  0  0  0  0  0  0  0  0  0  0  0
   45.1680   34.4940   45.2750 C   0  0  0  0  0  0  0  0  0  0  0  0
   44.5220   35.5880   44.7940 N   0  0  0  0  0  0  0  0  0  0  0  0
   44.8480   36.1760   43.6360 C   0  0  0  0  0  0  0  0  0  0  0  0
   45.8490   35.6790   42.9060 N   0  0  0  0  0  0  0  0  0  0  0  0
   47.6350   34.1850   42.4190 C   0  0  0  0  0  0  0  0  0  0  0  0
   48.3550   35.3440   41.8440 C   0  0  0  0  0  0  0  0  0  0  0  0
   48.5530   35.1310   40.3800 C   0  0  0  0  0  0  0  0  0  0  0  0
   47.4780   34.1840   39.9980 C   0  0  0  0  0  0  0  0  0  0  0  0
   47.0350   33.4150   41.2260 C   0  0  0  0  0  0  0  0  0  0  0  0
   46.9660   32.8010   44.9350 C   0  0  0  0  0  0  0  0  0  0  0  0
   46.0100   31.7450   45.5060 C   0  0  0  0  0  0  0  0  0  0  0  0
   46.4720   31.1980   46.7380 N   0  0  0  0  0  0  0  0  0  0  0  0
   45.4920   30.3640   47.3930 C   0  0  0  0  0  0  0  0  0  0  0  0
   45.1510   31.0240   48.7430 C   0  0  0  0  0  0  0  0  0  0  0  0
   46.3160   30.9790   49.6120 N   0  0  0  0  0  0  0  0  0  0  0  0
   47.5300   31.2440   48.8630 C   0  0  0  0  0  0  0  0  0  0  0  0
   47.2590   31.9970   47.5800 C   0  0  0  0  0  0  0  0  0  0  0  0
   44.8633   34.0465   46.2326 H   0  0  0  0  0  0  0  0  0  0  0  0
   44.2953   37.0615   43.2890 H   0  0  0  0  0  0  0  0  0  0  0  0
   48.3363   33.5821   43.0145 H   0  0  0  0  0  0  0  0  0  0  0  0
   47.7652   36.2585   42.0049 H   0  0  0  0  0  0  0  0  0  0  0  0
   49.3339   35.4475   42.3349 H   0  0  0  0  0  0  0  0  0  0  0  0
   48.4504   36.0787   39.8311 H   0  0  0  0  0  0  0  0  0  0  0  0
   49.5558   34.7455   40.1436 H   0  0  0  0  0  0  0  0  0  0  0  0
   46.6248   34.7423   39.5854 H   0  0  0  0  0  0  0  0  0  0  0  0
   47.8542   33.4835   39.2379 H   0  0  0  0  0  0  0  0  0  0  0  0
   45.9373   33.3932   41.2930 H   0  0  0  0  0  0  0  0  0  0  0  0
   47.3705   32.3677   41.2002 H   0  0  0  0  0  0  0  0  0  0  0  0
   47.4878   32.3906   44.0579 H   0  0  0  0  0  0  0  0  0  0  0  0
   47.7079   33.0821   45.6970 H   0  0  0  0  0  0  0  0  0  0  0  0
   45.0284   32.2122   45.6738 H   0  0  0  0  0  0  0  0  0  0  0  0
   45.9482   30.9226   44.7781 H   0  0  0  0  0  0  0  0  0  0  0  0
   44.5870   30.2894   46.7721 H   0  0  0  0  0  0  0  0  0  0  0  0
   45.8872   29.3490   47.5466 H   0  0  0  0  0  0  0  0  0  0  0  0
   44.8584   32.0711   48.5758 H   0  0  0  0  0  0  0  0  0  0  0  0
   44.3190   30.4822   49.2165 H   0  0  0  0  0  0  0  0  0  0  0  0
   46.2135   31.6894   50.3508 H   0  0  0  0  0  0  0  0  0  0  0  0
   48.2081   31.8431   49.4885 H   0  0  0  0  0  0  0  0  0  0  0  0
   47.9797   30.2760   48.5969 H   0  0  0  0  0  0  0  0  0  0  0  0
   48.2114   32.2310   47.0817 H   0  0  0  0  0  0  0  0  0  0  0  0
   46.7287   32.9342   47.8046 H   0  0  0  0  0  0  0  0  0  0  0  0
  1  2  1  0
  2 12  1  0
  2  3  2  0
  4  3  1  0
  5  4  2  0
  6  1  2  0
  6  5  1  0
  7  1  1  0
  8  7  1  0
  9  8  1  0
 10  9  1  0
 10 11  1  0
 11  7  1  0
 12 13  1  0
 13 14  1  0
 14 15  1  0
 14 19  1  0
 15 16  1  0
 16 17  1  0
 18 17  1  0
 19 18  1  0
  3 20  1  0
  5 21  1  0
  7 22  1  0
  8 23  1  0
  8 24  1  0
  9 25  1  0
  9 26  1  0
 10 27  1  0
 10 28  1  0
 11 29  1  0
 11 30  1  0
 12 31  1  0
 12 32  1  0
 13 33  1  0
 13 34  1  0
 15 35  1  0
 15 36  1  0
 16 37  1  0
 16 38  1  0
 17 39  1  0
 18 40  1  0
 18 41  1  0
 19 42  1  0
 19 43  1  0
M  ISO  8  20  14  21  14  22  13  23  13  24  13  25  13  26  13  27  13
M  ISO  8  28  13  29  13  30  13  31   8  32   8  33   8  34   8  35  13
M  ISO  8  36  13  37  13  38  13  39   5  40  13  41  13  42  13  43  13
M  END
>  <minimizedAffinity>  (1) 
-5.94229698

>  <minimizedRMSD>  (1) 
1.24276078

$$$$
