
     RDKit          3D

 36 37  0  0  0  0  0  0  0  0999 V2000
   46.5500   34.6600   43.2420 C   0  0  0  0  0  0  0  0  0  0  0  0
   46.1870   34.0570   44.4410 C   0  0  0  0  0  0  0  0  0  0  0  0
   45.1220   34.5920   45.1300 C   0  0  0  0  0  0  0  0  0  0  0  0
   44.4770   35.6720   44.6210 N   0  0  0  0  0  0  0  0  0  0  0  0
   44.8330   36.2500   43.4590 C   0  0  0  0  0  0  0  0  0  0  0  0
   45.8590   35.7530   42.7740 N   0  0  0  0  0  0  0  0  0  0  0  0
   47.6750   34.2790   42.3500 C   0  0  0  0  0  0  0  0  0  0  0  0
   48.3870   35.4360   41.7800 C   0  0  0  0  0  0  0  0  0  0  0  0
   48.6550   35.1650   40.3330 C   0  0  0  0  0  0  0  0  0  0  0  0
   47.5810   34.2120   39.9340 C   0  0  0  0  0  0  0  0  0  0  0  0
   47.1180   33.4780   41.1530 C   0  0  0  0  0  0  0  0  0  0  0  0
   46.9420   32.9190   44.8680 C   0  0  0  0  0  0  0  0  0  0  0  0
   46.1680   32.1710   45.9470 C   0  0  0  0  0  0  0  0  0  0  0  0
   46.5640   32.6640   47.2420 N   0  0  0  0  0  0  0  0  0  0  0  0
   45.5860   32.4550   48.2650 C   0  0  0  0  0  0  0  0  0  0  0  0
   44.3720   32.1170   48.0030 N   0  0  0  0  0  0  0  0  0  0  0  0
   45.9670   32.6260   49.6360 N   0  0  0  0  0  0  0  0  0  0  0  0
   43.6960   31.9760   48.7580 H   0  0  0  0  0  0  0  0  0  0  0  0
   44.7973   34.1488   46.0830 H   0  0  0  0  0  0  0  0  0  0  0  0
   44.2818   37.1233   43.0802 H   0  0  0  0  0  0  0  0  0  0  0  0
   48.3761   33.7012   42.9702 H   0  0  0  0  0  0  0  0  0  0  0  0
   47.7665   36.3389   41.8794 H   0  0  0  0  0  0  0  0  0  0  0  0
   49.3350   35.5950   42.3148 H   0  0  0  0  0  0  0  0  0  0  0  0
   48.5922   36.0921   39.7444 H   0  0  0  0  0  0  0  0  0  0  0  0
   49.6630   34.7600   40.1601 H   0  0  0  0  0  0  0  0  0  0  0  0
   46.7392   34.7657   39.4926 H   0  0  0  0  0  0  0  0  0  0  0  0
   47.9675   33.4997   39.1902 H   0  0  0  0  0  0  0  0  0  0  0  0
   46.0190   33.4464   41.1890 H   0  0  0  0  0  0  0  0  0  0  0  0
   47.4679   32.4351   41.1602 H   0  0  0  0  0  0  0  0  0  0  0  0
   47.1147   32.2512   44.0112 H   0  0  0  0  0  0  0  0  0  0  0  0
   47.9084   33.2519   45.2744 H   0  0  0  0  0  0  0  0  0  0  0  0
   45.0893   32.3335   45.8056 H   0  0  0  0  0  0  0  0  0  0  0  0
   46.3853   31.0948   45.8789 H   0  0  0  0  0  0  0  0  0  0  0  0
   47.4687   33.1248   47.4152 H   0  0  0  0  0  0  0  0  0  0  0  0
   45.2752   32.4794   50.3849 H   0  0  0  0  0  0  0  0  0  0  0  0
   46.9326   32.8955   49.8724 H   0  0  0  0  0  0  0  0  0  0  0  0
  1  2  2  0
  2 12  1  0
  2  3  1  0
  4  3  2  0
  5  4  1  0
  6  1  1  0
  6  5  2  0
  7  1  1  0
  8  7  1  0
  9  8  1  0
 10  9  1  0
 10 11  1  0
 11  7  1  0
 12 13  1  0
 13 14  1  0
 14 15  1  0
 15 17  1  0
 16 15  2  0
 16 18  1  0
  3 19  1  0
  5 20  1  0
  7 21  1  0
  8 22  1  0
  8 23  1  0
  9 24  1  0
  9 25  1  0
 10 26  1  0
 10 27  1  0
 11 28  1  0
 11 29  1  0
 12 30  1  0
 12 31  1  0
 13 32  1  0
 13 33  1  0
 14 34  1  0
 17 35  1  0
 17 36  1  0
M  ISO  8  19  14  20  14  21  13  22  13  23  13  24  13  25  13  26  13
M  ISO  7  27  13  28  13  29  13  30   8  31   8  32   8  33   8
M  END
>  <minimizedAffinity>  (1) 
-5.67236805

>  <minimizedRMSD>  (1) 
1.17532253

$$$$
