
     RDKit          3D

 33 35  0  0  0  0  0  0  0  0999 V2000
   47.3340   31.6810   43.4890 C   0  0  0  0  0  0  0  0  0  0  0  0
   48.6950   31.4570   43.1340 N   0  0  0  0  0  0  0  0  0  0  0  0
   49.5020   30.4200   43.3080 N   0  0  0  0  0  0  0  0  0  0  0  0
   50.7230   30.6380   42.8110 C   0  0  0  0  0  0  0  0  0  0  0  0
   50.6780   31.9070   42.2850 C   0  0  0  0  0  0  0  0  0  0  0  0
   49.3870   32.4110   42.4980 C   0  0  0  0  0  0  0  0  0  0  0  0
   49.1890   33.7700   41.9840 C   0  0  0  0  0  0  0  0  0  0  0  0
   48.5100   34.1840   40.8450 C   0  0  0  0  0  0  0  0  0  0  0  0
   48.5490   35.5110   40.7060 N   0  0  0  0  0  0  0  0  0  0  0  0
   49.2590   36.0050   41.7550 C   0  0  0  0  0  0  0  0  0  0  0  0
   49.6140   34.9420   42.4780 N   0  0  0  0  0  0  0  0  0  0  0  0
   47.1520   32.3460   44.8750 C   0  0  0  0  0  0  0  0  0  0  0  0
   46.2790   33.5090   44.7770 C   0  0  0  0  0  0  0  0  0  0  0  0
   45.5490   33.7900   45.9280 C   0  0  0  0  0  0  0  0  0  0  0  0
   44.6710   34.8730   45.9830 C   0  0  0  0  0  0  0  0  0  0  0  0
   44.5710   35.6300   44.8570 N   0  0  0  0  0  0  0  0  0  0  0  0
   45.2890   35.3420   43.7490 C   0  0  0  0  0  0  0  0  0  0  0  0
   46.1240   34.2970   43.7240 N   0  0  0  0  0  0  0  0  0  0  0  0
   45.0750   36.2590   42.5970 C   0  0  0  0  0  0  0  0  0  0  0  0
   46.8138   30.7118   43.4982 H   0  0  0  0  0  0  0  0  0  0  0  0
   46.9180   32.3746   42.7434 H   0  0  0  0  0  0  0  0  0  0  0  0
   51.5806   29.9493   42.8207 H   0  0  0  0  0  0  0  0  0  0  0  0
   51.5058   32.4327   41.7866 H   0  0  0  0  0  0  0  0  0  0  0  0
   48.0034   33.5033   40.1450 H   0  0  0  0  0  0  0  0  0  0  0  0
   49.4917   37.0597   41.9635 H   0  0  0  0  0  0  0  0  0  0  0  0
   50.1681   35.0151   43.3432 H   0  0  0  0  0  0  0  0  0  0  0  0
   46.7072   31.6180   45.5694 H   0  0  0  0  0  0  0  0  0  0  0  0
   48.1360   32.6720   45.2431 H   0  0  0  0  0  0  0  0  0  0  0  0
   45.6665   33.1457   46.8118 H   0  0  0  0  0  0  0  0  0  0  0  0
   44.0905   35.1026   46.8887 H   0  0  0  0  0  0  0  0  0  0  0  0
   44.8398   37.2669   42.9695 H   0  0  0  0  0  0  0  0  0  0  0  0
   45.9881   36.2981   41.9849 H   0  0  0  0  0  0  0  0  0  0  0  0
   44.2389   35.8899   41.9849 H   0  0  0  0  0  0  0  0  0  0  0  0
  1 12  1  0
  2  3  1  0
  2  1  1  0
  4  3  2  0
  5  6  2  0
  5  4  1  0
  6  2  1  0
  7 11  1  0
  7  6  1  0
  8  7  2  0
  9  8  1  0
  9 10  2  0
 10 11  1  0
 13 12  1  0
 13 14  2  0
 14 15  1  0
 16 15  2  0
 17 16  1  0
 18 17  2  0
 18 13  1  0
 19 17  1  0
  1 20  1  0
  1 21  1  0
  4 22  1  0
  5 23  1  0
  8 24  1  0
 10 25  1  0
 11 26  1  0
 12 27  1  0
 12 28  1  0
 14 29  1  0
 15 30  1  0
 19 31  1  0
 19 32  1  0
 19 33  1  0
M  ISO  8  20   8  21   8  22  14  23  14  24  14  25  14  26   9  27   8
M  ISO  6  28   8  29  14  30  14  31   8  32   8  33   8
M  END
>  <minimizedAffinity>  (1) 
-4.59115124

>  <minimizedRMSD>  (1) 
0.41431278

$$$$
