
     RDKit          3D

 38 40  0  0  0  0  0  0  0  0999 V2000
   46.2780   34.6400   43.4000 C   0  0  0  0  0  0  0  0  0  0  0  0
   45.8450   34.1080   44.6090 C   0  0  0  0  0  0  0  0  0  0  0  0
   44.8880   34.8050   45.3130 C   0  0  0  0  0  0  0  0  0  0  0  0
   44.4080   35.9690   44.8090 N   0  0  0  0  0  0  0  0  0  0  0  0
   44.8300   36.4740   43.6440 C   0  0  0  0  0  0  0  0  0  0  0  0
   45.7510   35.8240   42.9450 N   0  0  0  0  0  0  0  0  0  0  0  0
   47.3360   34.0830   42.4960 C   0  0  0  0  0  0  0  0  0  0  0  0
   48.2300   35.1280   41.9580 C   0  0  0  0  0  0  0  0  0  0  0  0
   48.4590   34.9010   40.5130 C   0  0  0  0  0  0  0  0  0  0  0  0
   47.2410   34.1460   40.0740 C   0  0  0  0  0  0  0  0  0  0  0  0
   46.6510   33.4620   41.2630 C   0  0  0  0  0  0  0  0  0  0  0  0
   46.4340   32.8690   45.0170 C   0  0  0  0  0  0  0  0  0  0  0  0
   46.9330   32.9810   46.4490 C   0  0  0  0  0  0  0  0  0  0  0  0
   46.2490   31.9730   47.3210 C   0  0  0  0  0  0  0  0  0  0  0  0
   46.0070   32.3060   48.6400 C   0  0  0  0  0  0  0  0  0  0  0  0
   45.3760   31.3500   49.4100 C   0  0  0  0  0  0  0  0  0  0  0  0
   44.9800   30.1010   48.9390 C   0  0  0  0  0  0  0  0  0  0  0  0
   45.2600   29.8440   47.5970 C   0  0  0  0  0  0  0  0  0  0  0  0
   45.8790   30.7670   46.8250 N   0  0  0  0  0  0  0  0  0  0  0  0
   44.5167   34.4212   46.2747 H   0  0  0  0  0  0  0  0  0  0  0  0
   44.4161   37.4215   43.2686 H   0  0  0  0  0  0  0  0  0  0  0  0
   47.9156   33.3636   43.0931 H   0  0  0  0  0  0  0  0  0  0  0  0
   47.7661   36.1148   42.1031 H   0  0  0  0  0  0  0  0  0  0  0  0
   49.1932   35.0881   42.4877 H   0  0  0  0  0  0  0  0  0  0  0  0
   48.5434   35.8564   39.9745 H   0  0  0  0  0  0  0  0  0  0  0  0
   49.3935   34.3573   40.3100 H   0  0  0  0  0  0  0  0  0  0  0  0
   46.5066   34.8440   39.6456 H   0  0  0  0  0  0  0  0  0  0  0  0
   47.5141   33.4033   39.3099 H   0  0  0  0  0  0  0  0  0  0  0  0
   45.5652   33.6336   41.3025 H   0  0  0  0  0  0  0  0  0  0  0  0
   46.8088   32.3742   41.2206 H   0  0  0  0  0  0  0  0  0  0  0  0
   45.6815   32.0691   44.9543 H   0  0  0  0  0  0  0  0  0  0  0  0
   47.2809   32.6349   44.3552 H   0  0  0  0  0  0  0  0  0  0  0  0
   48.0180   32.8013   46.4698 H   0  0  0  0  0  0  0  0  0  0  0  0
   46.7095   33.9896   46.8268 H   0  0  0  0  0  0  0  0  0  0  0  0
   46.3016   33.2814   49.0545 H   0  0  0  0  0  0  0  0  0  0  0  0
   45.1728   31.5904   50.4640 H   0  0  0  0  0  0  0  0  0  0  0  0
   44.4786   29.3643   49.5838 H   0  0  0  0  0  0  0  0  0  0  0  0
   44.9733   28.8763   47.1595 H   0  0  0  0  0  0  0  0  0  0  0  0
  1  2  1  0
  2 12  1  0
  2  3  2  0
  4  3  1  0
  5  4  2  0
  6  1  2  0
  6  5  1  0
  7  1  1  0
  8  7  1  0
  9  8  1  0
 10  9  1  0
 10 11  1  0
 11  7  1  0
 12 13  1  0
 13 14  1  0
 14 15  2  0
 15 16  1  0
 17 16  2  0
 18 17  1  0
 19 14  1  0
 19 18  2  0
  3 20  1  0
  5 21  1  0
  7 22  1  0
  8 23  1  0
  8 24  1  0
  9 25  1  0
  9 26  1  0
 10 27  1  0
 10 28  1  0
 11 29  1  0
 11 30  1  0
 12 31  1  0
 12 32  1  0
 13 33  1  0
 13 34  1  0
 15 35  1  0
 16 36  1  0
 17 37  1  0
 18 38  1  0
M  ISO  8  20  14  21  14  22  13  23  13  24  13  25  13  26  13  27  13
M  ISO  8  28  13  29  13  30  13  31   8  32   8  33   8  34   8  35  14
M  ISO  3  36  14  37  14  38  14
M  END
>  <minimizedAffinity>  (1) 
-5.87347603

>  <minimizedRMSD>  (1) 
2.02767897

$$$$
