
     RDKit          3D

 36 38  0  0  0  0  0  0  0  0999 V2000
   46.2370   34.6150   43.4560 C   0  0  0  0  0  0  0  0  0  0  0  0
   45.8090   34.1020   44.6720 C   0  0  0  0  0  0  0  0  0  0  0  0
   44.8690   34.8190   45.3820 C   0  0  0  0  0  0  0  0  0  0  0  0
   44.4030   35.9900   44.8680 N   0  0  0  0  0  0  0  0  0  0  0  0
   44.8200   36.4740   43.6980 C   0  0  0  0  0  0  0  0  0  0  0  0
   45.7260   35.8040   42.9940 N   0  0  0  0  0  0  0  0  0  0  0  0
   47.2810   34.0430   42.5380 C   0  0  0  0  0  0  0  0  0  0  0  0
   48.2190   35.0700   42.0370 C   0  0  0  0  0  0  0  0  0  0  0  0
   48.4440   34.8590   40.5830 C   0  0  0  0  0  0  0  0  0  0  0  0
   47.2210   34.1540   40.1250 C   0  0  0  0  0  0  0  0  0  0  0  0
   46.5840   33.4520   41.3020 C   0  0  0  0  0  0  0  0  0  0  0  0
   46.3850   32.8480   45.0750 C   0  0  0  0  0  0  0  0  0  0  0  0
   46.9500   32.9950   46.4840 C   0  0  0  0  0  0  0  0  0  0  0  0
   46.2770   31.9850   47.2930 C   0  0  0  0  0  0  0  0  0  0  0  0
   45.9670   32.2480   48.5930 C   0  0  0  0  0  0  0  0  0  0  0  0
   45.3530   31.4000   49.4210 C   0  0  0  0  0  0  0  0  0  0  0  0
   45.0230   30.1260   48.8290 C   0  0  0  0  0  0  0  0  0  0  0  0
   45.6660   30.2940   47.0470 S   0  0  0  0  0  0  0  0  0  0  0  0
   44.5008   34.4496   46.3505 H   0  0  0  0  0  0  0  0  0  0  0  0
   44.4159   37.4236   43.3172 H   0  0  0  0  0  0  0  0  0  0  0  0
   47.8391   33.2922   43.1166 H   0  0  0  0  0  0  0  0  0  0  0  0
   47.7918   36.0702   42.2018 H   0  0  0  0  0  0  0  0  0  0  0  0
   49.1755   34.9903   42.5743 H   0  0  0  0  0  0  0  0  0  0  0  0
   48.5581   35.8211   40.0621 H   0  0  0  0  0  0  0  0  0  0  0  0
   49.3618   34.2888   40.3766 H   0  0  0  0  0  0  0  0  0  0  0  0
   46.5125   34.8820   39.7030 H   0  0  0  0  0  0  0  0  0  0  0  0
   47.4859   33.4165   39.3530 H   0  0  0  0  0  0  0  0  0  0  0  0
   45.5030   33.6529   41.3340 H   0  0  0  0  0  0  0  0  0  0  0  0
   46.6982   32.3595   41.2445 H   0  0  0  0  0  0  0  0  0  0  0  0
   45.6110   32.0664   45.0670 H   0  0  0  0  0  0  0  0  0  0  0  0
   47.1882   32.5655   44.3786 H   0  0  0  0  0  0  0  0  0  0  0  0
   48.0361   32.8209   46.4806 H   0  0  0  0  0  0  0  0  0  0  0  0
   46.7838   34.0070   46.8818 H   0  0  0  0  0  0  0  0  0  0  0  0
   46.2440   33.2353   48.9912 H   0  0  0  0  0  0  0  0  0  0  0  0
   45.1184   31.6510   50.4660 H   0  0  0  0  0  0  0  0  0  0  0  0
   44.5209   29.2657   49.2956 H   0  0  0  0  0  0  0  0  0  0  0  0
  1  2  1  0
  2 12  1  0
  2  3  2  0
  4  3  1  0
  5  4  2  0
  6  1  2  0
  6  5  1  0
  7  1  1  0
  8  7  1  0
  9  8  1  0
 10  9  1  0
 10 11  1  0
 11  7  1  0
 12 13  1  0
 13 14  1  0
 14 15  2  0
 15 16  1  0
 17 16  2  0
 18 14  1  0
 18 17  1  0
  3 19  1  0
  5 20  1  0
  7 21  1  0
  8 22  1  0
  8 23  1  0
  9 24  1  0
  9 25  1  0
 10 26  1  0
 10 27  1  0
 11 28  1  0
 11 29  1  0
 12 30  1  0
 12 31  1  0
 13 32  1  0
 13 33  1  0
 15 34  1  0
 16 35  1  0
 17 36  1  0
M  ISO  8  19  14  20  14  21  13  22  13  23  13  24  13  25  13  26  13
M  ISO  8  27  13  28  13  29  13  30   8  31   8  32   8  33   8  34  14
M  ISO  2  35  14  36  14
M  END
>  <minimizedAffinity>  (1) 
-5.54329681

>  <minimizedRMSD>  (1) 
1.72047508

$$$$
