
     RDKit          3D

 36 38  0  0  0  0  0  0  0  0999 V2000
   46.1910   34.4400   43.6980 C   0  0  0  0  0  0  0  0  0  0  0  0
   45.8090   33.9420   44.9350 C   0  0  0  0  0  0  0  0  0  0  0  0
   44.8980   34.6710   45.6710 C   0  0  0  0  0  0  0  0  0  0  0  0
   44.4160   35.8290   45.1670 N   0  0  0  0  0  0  0  0  0  0  0  0
   44.7900   36.3050   43.9680 C   0  0  0  0  0  0  0  0  0  0  0  0
   45.6640   35.6240   43.2430 N   0  0  0  0  0  0  0  0  0  0  0  0
   47.1930   33.8480   42.7470 C   0  0  0  0  0  0  0  0  0  0  0  0
   48.2730   34.7920   42.4010 C   0  0  0  0  0  0  0  0  0  0  0  0
   48.5150   34.7370   40.9300 C   0  0  0  0  0  0  0  0  0  0  0  0
   47.2330   34.2410   40.3590 C   0  0  0  0  0  0  0  0  0  0  0  0
   46.4800   33.5170   41.4220 C   0  0  0  0  0  0  0  0  0  0  0  0
   46.3980   32.6940   45.3330 C   0  0  0  0  0  0  0  0  0  0  0  0
   46.9970   32.8440   46.7260 C   0  0  0  0  0  0  0  0  0  0  0  0
   46.2210   31.9780   47.6370 N   0  0  0  0  0  0  0  0  0  0  0  0
   45.9030   32.2670   48.8880 N   0  0  0  0  0  0  0  0  0  0  0  0
   45.1850   31.2400   49.4230 C   0  0  0  0  0  0  0  0  0  0  0  0
   45.0450   30.2550   48.4520 C   0  0  0  0  0  0  0  0  0  0  0  0
   45.7090   30.7650   47.3590 C   0  0  0  0  0  0  0  0  0  0  0  0
   44.5673   34.3138   46.6574 H   0  0  0  0  0  0  0  0  0  0  0  0
   44.3742   37.2514   43.5920 H   0  0  0  0  0  0  0  0  0  0  0  0
   47.6215   32.9655   43.2447 H   0  0  0  0  0  0  0  0  0  0  0  0
   47.9771   35.8118   42.6880 H   0  0  0  0  0  0  0  0  0  0  0  0
   49.1924   34.5174   42.9389 H   0  0  0  0  0  0  0  0  0  0  0  0
   48.7543   35.7365   40.5378 H   0  0  0  0  0  0  0  0  0  0  0  0
   49.3662   34.0904   40.6703 H   0  0  0  0  0  0  0  0  0  0  0  0
   46.6362   35.0913   39.9975 H   0  0  0  0  0  0  0  0  0  0  0  0
   47.4372   33.5619   39.5181 H   0  0  0  0  0  0  0  0  0  0  0  0
   45.4359   33.8617   41.4532 H   0  0  0  0  0  0  0  0  0  0  0  0
   46.4599   32.4332   41.2348 H   0  0  0  0  0  0  0  0  0  0  0  0
   45.6258   31.9107   45.3470 H   0  0  0  0  0  0  0  0  0  0  0  0
   47.1871   32.4138   44.6197 H   0  0  0  0  0  0  0  0  0  0  0  0
   48.0515   32.5311   46.7174 H   0  0  0  0  0  0  0  0  0  0  0  0
   46.9535   33.8923   47.0563 H   0  0  0  0  0  0  0  0  0  0  0  0
   44.7850   31.1976   50.4468 H   0  0  0  0  0  0  0  0  0  0  0  0
   44.5237   29.2901   48.5373 H   0  0  0  0  0  0  0  0  0  0  0  0
   45.8075   30.2514   46.3913 H   0  0  0  0  0  0  0  0  0  0  0  0
  1  2  1  0
  2 12  1  0
  2  3  2  0
  4  3  1  0
  5  4  2  0
  6  1  2  0
  6  5  1  0
  7  1  1  0
  8  7  1  0
  9  8  1  0
 10  9  1  0
 10 11  1  0
 11  7  1  0
 12 13  1  0
 13 14  1  0
 14 15  1  0
 15 16  2  0
 17 16  1  0
 18 14  1  0
 18 17  2  0
  3 19  1  0
  5 20  1  0
  7 21  1  0
  8 22  1  0
  8 23  1  0
  9 24  1  0
  9 25  1  0
 10 26  1  0
 10 27  1  0
 11 28  1  0
 11 29  1  0
 12 30  1  0
 12 31  1  0
 13 32  1  0
 13 33  1  0
 16 34  1  0
 17 35  1  0
 18 36  1  0
M  ISO  8  19  14  20  14  21  13  22  13  23  13  24  13  25  13  26  13
M  ISO  8  27  13  28  13  29  13  30   8  31   8  32   8  33   8  34  14
M  ISO  2  35  14  36  14
M  END
>  <minimizedAffinity>  (1) 
-5.45312071

>  <minimizedRMSD>  (1) 
1.82984495

$$$$
