
     RDKit          3D

 35 37  0  0  0  0  0  0  0  0999 V2000
   46.4100   34.5790   43.4440 C   0  0  0  0  0  0  0  0  0  0  0  0
   46.0500   34.0180   44.6660 C   0  0  0  0  0  0  0  0  0  0  0  0
   45.0440   34.6270   45.3830 C   0  0  0  0  0  0  0  0  0  0  0  0
   44.4520   35.7380   44.8740 N   0  0  0  0  0  0  0  0  0  0  0  0
   44.8070   36.2690   43.6970 C   0  0  0  0  0  0  0  0  0  0  0  0
   45.7690   35.7050   42.9890 N   0  0  0  0  0  0  0  0  0  0  0  0
   47.5040   34.1110   42.5230 C   0  0  0  0  0  0  0  0  0  0  0  0
   48.3070   35.2320   41.9930 C   0  0  0  0  0  0  0  0  0  0  0  0
   48.5220   35.0410   40.5390 C   0  0  0  0  0  0  0  0  0  0  0  0
   47.3860   34.1730   40.1160 C   0  0  0  0  0  0  0  0  0  0  0  0
   46.8500   33.4370   41.3010 C   0  0  0  0  0  0  0  0  0  0  0  0
   46.7540   32.8310   45.0650 C   0  0  0  0  0  0  0  0  0  0  0  0
   46.8420   32.7920   46.5870 C   0  0  0  0  0  0  0  0  0  0  0  0
   46.1120   31.5350   46.9930 C   0  0  0  0  0  0  0  0  0  0  0  0
   45.8450   30.4700   46.0340 C   0  0  0  0  0  0  0  0  0  0  0  0
   44.9820   29.2820   47.0630 S   0  0  0  0  0  0  0  0  0  0  0  0
   45.1020   30.3750   48.6130 C   0  0  0  0  0  0  0  0  0  0  0  0
   45.6790   31.3340   48.2280 N   0  0  0  0  0  0  0  0  0  0  0  0
   44.7249   34.2194   46.3536 H   0  0  0  0  0  0  0  0  0  0  0  0
   44.3001   37.1702   43.3217 H   0  0  0  0  0  0  0  0  0  0  0  0
   48.1532   33.4354   43.0993 H   0  0  0  0  0  0  0  0  0  0  0  0
   47.7730   36.1785   42.1636 H   0  0  0  0  0  0  0  0  0  0  0  0
   49.2792   35.2620   42.5068 H   0  0  0  0  0  0  0  0  0  0  0  0
   48.4952   36.0051   40.0100 H   0  0  0  0  0  0  0  0  0  0  0  0
   49.5018   34.5959   40.3113 H   0  0  0  0  0  0  0  0  0  0  0  0
   46.5906   34.7966   39.6817 H   0  0  0  0  0  0  0  0  0  0  0  0
   47.7381   33.4502   39.3653 H   0  0  0  0  0  0  0  0  0  0  0  0
   45.7549   33.5289   41.3495 H   0  0  0  0  0  0  0  0  0  0  0  0
   47.0756   32.3614   41.2542 H   0  0  0  0  0  0  0  0  0  0  0  0
   46.2138   31.9433   44.7042 H   0  0  0  0  0  0  0  0  0  0  0  0
   47.7664   32.8379   44.6349 H   0  0  0  0  0  0  0  0  0  0  0  0
   47.8921   32.7503   46.9118 H   0  0  0  0  0  0  0  0  0  0  0  0
   46.4032   33.6894   47.0475 H   0  0  0  0  0  0  0  0  0  0  0  0
   46.1034   30.4111   44.9664 H   0  0  0  0  0  0  0  0  0  0  0  0
   44.7255   30.1664   49.6253 H   0  0  0  0  0  0  0  0  0  0  0  0
  1  2  1  0
  2 12  1  0
  2  3  2  0
  4  3  1  0
  5  4  2  0
  6  1  2  0
  6  5  1  0
  7  1  1  0
  8  7  1  0
  9  8  1  0
 10  9  1  0
 10 11  1  0
 11  7  1  0
 12 13  1  0
 13 14  1  0
 14 18  1  0
 15 14  2  0
 15 16  1  0
 16 17  1  0
 18 17  2  0
  3 19  1  0
  5 20  1  0
  7 21  1  0
  8 22  1  0
  8 23  1  0
  9 24  1  0
  9 25  1  0
 10 26  1  0
 10 27  1  0
 11 28  1  0
 11 29  1  0
 12 30  1  0
 12 31  1  0
 13 32  1  0
 13 33  1  0
 15 34  1  0
 17 35  1  0
M  ISO  8  19  14  20  14  21  13  22  13  23  13  24  13  25  13  26  13
M  ISO  8  27  13  28  13  29  13  30   8  31   8  32   8  33   8  34  14
M  ISO  1  35  14
M  END
>  <minimizedAffinity>  (1) 
-5.33933401

>  <minimizedRMSD>  (1) 
1.63124049

$$$$
