
     RDKit          3D

 37 39  0  0  0  0  0  0  0  0999 V2000
   46.8230   33.2050   39.3680 C   0  0  0  0  0  0  0  0  0  0  0  0
   45.4390   33.2680   39.4030 C   0  0  0  0  0  0  0  0  0  0  0  0
   44.7710   33.1500   38.2020 C   0  0  0  0  0  0  0  0  0  0  0  0
   45.4810   32.9790   37.0450 N   0  0  0  0  0  0  0  0  0  0  0  0
   46.8230   32.9220   37.0350 C   0  0  0  0  0  0  0  0  0  0  0  0
   47.4870   33.0320   38.1780 N   0  0  0  0  0  0  0  0  0  0  0  0
   47.7510   33.3540   40.5400 C   0  0  0  0  0  0  0  0  0  0  0  0
   47.1110   33.0220   41.8250 C   0  0  0  0  0  0  0  0  0  0  0  0
   47.4660   34.0520   42.8410 C   0  0  0  0  0  0  0  0  0  0  0  0
   47.7540   35.2650   42.0390 C   0  0  0  0  0  0  0  0  0  0  0  0
   48.1420   34.8440   40.6590 C   0  0  0  0  0  0  0  0  0  0  0  0
   44.8020   33.4310   40.6660 C   0  0  0  0  0  0  0  0  0  0  0  0
   44.3120   34.8870   40.8070 C   0  0  0  0  0  0  0  0  0  0  0  0
   42.8560   34.9980   40.7770 C   0  0  0  0  0  0  0  0  0  0  0  0
   42.2770   35.3060   39.5360 C   0  0  0  0  0  0  0  0  0  0  0  0
   40.9410   35.4540   39.2890 C   0  0  0  0  0  0  0  0  0  0  0  0
   40.0770   35.2990   40.2900 N   0  0  0  0  0  0  0  0  0  0  0  0
   40.5870   35.0040   41.4940 C   0  0  0  0  0  0  0  0  0  0  0  0
   41.8840   34.8690   41.6940 N   0  0  0  0  0  0  0  0  0  0  0  0
   43.6722   33.1932   38.1745 H   0  0  0  0  0  0  0  0  0  0  0  0
   47.3660   32.7854   36.0882 H   0  0  0  0  0  0  0  0  0  0  0  0
   48.5981   32.6756   40.3608 H   0  0  0  0  0  0  0  0  0  0  0  0
   46.0190   32.9975   41.6946 H   0  0  0  0  0  0  0  0  0  0  0  0
   47.4634   32.0370   42.1649 H   0  0  0  0  0  0  0  0  0  0  0  0
   46.6256   34.2286   43.5285 H   0  0  0  0  0  0  0  0  0  0  0  0
   48.3161   33.7496   43.4702 H   0  0  0  0  0  0  0  0  0  0  0  0
   46.8575   35.9008   41.9940 H   0  0  0  0  0  0  0  0  0  0  0  0
   48.5729   35.8353   42.5017 H   0  0  0  0  0  0  0  0  0  0  0  0
   49.2252   34.9673   40.5126 H   0  0  0  0  0  0  0  0  0  0  0  0
   47.6371   35.4543   39.8957 H   0  0  0  0  0  0  0  0  0  0  0  0
   43.9439   32.7463   40.7356 H   0  0  0  0  0  0  0  0  0  0  0  0
   45.5167   33.2036   41.4707 H   0  0  0  0  0  0  0  0  0  0  0  0
   44.6758   35.2895   41.7639 H   0  0  0  0  0  0  0  0  0  0  0  0
   44.7058   35.4541   39.9506 H   0  0  0  0  0  0  0  0  0  0  0  0
   42.9607   35.4405   38.6849 H   0  0  0  0  0  0  0  0  0  0  0  0
   40.5845   35.6978   38.2773 H   0  0  0  0  0  0  0  0  0  0  0  0
   39.9012   34.8700   42.3436 H   0  0  0  0  0  0  0  0  0  0  0  0
  1  2  1  0
  1  7  1  0
  2 12  1  0
  3  2  2  0
  4  3  1  0
  5  4  2  0
  5  6  1  0
  6  1  2  0
  7 11  1  0
  7  8  1  0
  8  9  1  0
 10  9  1  0
 11 10  1  0
 12 13  1  0
 14 13  1  0
 14 19  1  0
 15 14  2  0
 16 15  1  0
 16 17  2  0
 17 18  1  0
 18 19  2  0
  3 20  1  0
  5 21  1  0
  7 22  1  0
  8 23  1  0
  8 24  1  0
  9 25  1  0
  9 26  1  0
 10 27  1  0
 10 28  1  0
 11 29  1  0
 11 30  1  0
 12 31  1  0
 12 32  1  0
 13 33  1  0
 13 34  1  0
 15 35  1  0
 16 36  1  0
 18 37  1  0
M  ISO  8  20  14  21  14  22  13  23  13  24  13  25  13  26  13  27  13
M  ISO  8  28  13  29  13  30  13  31   8  32   8  33   8  34   8  35  14
M  ISO  2  36  14  37  14
M  END
>  <minimizedAffinity>  (1) 
-4.40306997

>  <minimizedRMSD>  (1) 
7.34905338

$$$$
