
     RDKit          3D

 42 44  0  0  0  0  0  0  0  0999 V2000
   46.4280   34.5990   43.4100 C   0  0  0  0  0  0  0  0  0  0  0  0
   46.0980   34.0690   44.6390 C   0  0  0  0  0  0  0  0  0  0  0  0
   45.0920   34.6520   45.3600 C   0  0  0  0  0  0  0  0  0  0  0  0
   44.4410   35.7320   44.8400 N   0  0  0  0  0  0  0  0  0  0  0  0
   44.7600   36.2460   43.6390 C   0  0  0  0  0  0  0  0  0  0  0  0
   45.7420   35.6940   42.9220 N   0  0  0  0  0  0  0  0  0  0  0  0
   47.5490   34.1850   42.5240 C   0  0  0  0  0  0  0  0  0  0  0  0
   48.2980   35.2920   41.9400 C   0  0  0  0  0  0  0  0  0  0  0  0
   48.5200   35.0760   40.4950 C   0  0  0  0  0  0  0  0  0  0  0  0
   47.4220   34.1740   40.0920 C   0  0  0  0  0  0  0  0  0  0  0  0
   46.8900   33.4560   41.2940 C   0  0  0  0  0  0  0  0  0  0  0  0
   46.7680   32.9330   45.0880 C   0  0  0  0  0  0  0  0  0  0  0  0
   46.1700   32.3380   46.3630 C   0  0  0  0  0  0  0  0  0  0  0  0
   47.0490   31.6020   47.1460 N   0  0  0  0  0  0  0  0  0  0  0  0
   47.9300   31.8290   48.1360 C   0  0  0  0  0  0  0  0  0  0  0  0
   48.6850   30.8990   48.7790 C   0  0  0  0  0  0  0  0  0  0  0  0
   48.5950   29.5660   48.4390 C   0  0  0  0  0  0  0  0  0  0  0  0
   49.4170   28.6840   49.1780 N   0  0  0  0  0  0  0  0  0  0  0  0
   47.7290   29.2640   47.4520 N   0  0  0  0  0  0  0  0  0  0  0  0
   47.0070   30.2730   46.8600 C   0  0  0  0  0  0  0  0  0  0  0  0
   46.2760   29.7340   45.9840 O   0  0  0  0  0  0  0  0  0  0  0  0
   49.5860   31.3560   49.8330 C   0  0  0  0  0  0  0  0  0  0  0  0
   50.3290   32.3750   49.6450 O   0  0  0  0  0  0  0  0  0  0  0  0
   44.8116   34.2548   46.3467 H   0  0  0  0  0  0  0  0  0  0  0  0
   44.2142   37.1177   43.2488 H   0  0  0  0  0  0  0  0  0  0  0  0
   48.2376   33.5847   43.1367 H   0  0  0  0  0  0  0  0  0  0  0  0
   47.7316   36.2242   42.0817 H   0  0  0  0  0  0  0  0  0  0  0  0
   49.2759   35.3562   42.4395 H   0  0  0  0  0  0  0  0  0  0  0  0
   48.4655   36.0272   39.9452 H   0  0  0  0  0  0  0  0  0  0  0  0
   49.5129   34.6547   40.2790 H   0  0  0  0  0  0  0  0  0  0  0  0
   46.6153   34.7633   39.6316 H   0  0  0  0  0  0  0  0  0  0  0  0
   47.8025   33.4386   39.3679 H   0  0  0  0  0  0  0  0  0  0  0  0
   45.7938   33.5352   41.3387 H   0  0  0  0  0  0  0  0  0  0  0  0
   47.1259   32.3818   41.2735 H   0  0  0  0  0  0  0  0  0  0  0  0
   46.7298   32.1702   44.2963 H   0  0  0  0  0  0  0  0  0  0  0  0
   47.7985   33.2367   45.3244 H   0  0  0  0  0  0  0  0  0  0  0  0
   45.7826   33.1661   46.9747 H   0  0  0  0  0  0  0  0  0  0  0  0
   45.3941   31.6316   46.0328 H   0  0  0  0  0  0  0  0  0  0  0  0
   48.0524   32.8735   48.4585 H   0  0  0  0  0  0  0  0  0  0  0  0
   49.4003   27.6740   48.9767 H   0  0  0  0  0  0  0  0  0  0  0  0
   50.0324   29.0516   49.9176 H   0  0  0  0  0  0  0  0  0  0  0  0
   49.6240   30.8194   50.7925 H   0  0  0  0  0  0  0  0  0  0  0  0
  1  2  1  0
  2 12  1  0
  2  3  2  0
  4  3  1  0
  5  4  2  0
  6  1  2  0
  6  5  1  0
  7  1  1  0
  8  7  1  0
  9  8  1  0
 10  9  1  0
 10 11  1  0
 11  7  1  0
 12 13  1  0
 13 14  1  0
 14 15  1  0
 15 16  2  0
 16 22  1  0
 17 16  1  0
 17 18  1  0
 19 17  2  0
 20 14  1  0
 20 19  1  0
 21 20  2  0
 23 22  2  0
  3 24  1  0
  5 25  1  0
  7 26  1  0
  8 27  1  0
  8 28  1  0
  9 29  1  0
  9 30  1  0
 10 31  1  0
 10 32  1  0
 11 33  1  0
 11 34  1  0
 12 35  1  0
 12 36  1  0
 13 37  1  0
 13 38  1  0
 15 39  1  0
 18 40  1  0
 18 41  1  0
 22 42  1  0
M  ISO  8  24  14  25  14  26  13  27  13  28  13  29  13  30  13  31  13
M  ISO  8  32  13  33  13  34  13  35   8  36   8  37   8  38   8  39  14
M  ISO  1  42   6
M  END
>  <minimizedAffinity>  (1) 
-5.96569824

>  <minimizedRMSD>  (1) 
0.992234766

$$$$
