
     RDKit          3D

 42 44  0  0  0  0  0  0  0  0999 V2000
   46.4700   34.5810   43.3680 C   0  0  0  0  0  0  0  0  0  0  0  0
   46.1450   34.0270   44.5860 C   0  0  0  0  0  0  0  0  0  0  0  0
   45.1340   34.5870   45.3190 C   0  0  0  0  0  0  0  0  0  0  0  0
   44.4780   35.6720   44.8180 N   0  0  0  0  0  0  0  0  0  0  0  0
   44.7910   36.2120   43.6270 C   0  0  0  0  0  0  0  0  0  0  0  0
   45.7770   35.6800   42.9000 N   0  0  0  0  0  0  0  0  0  0  0  0
   47.5950   34.1930   42.4760 C   0  0  0  0  0  0  0  0  0  0  0  0
   48.3170   35.3160   41.8860 C   0  0  0  0  0  0  0  0  0  0  0  0
   48.5330   35.1000   40.4390 C   0  0  0  0  0  0  0  0  0  0  0  0
   47.4500   34.1790   40.0450 C   0  0  0  0  0  0  0  0  0  0  0  0
   46.9460   33.4450   41.2500 C   0  0  0  0  0  0  0  0  0  0  0  0
   46.8270   32.8880   45.0170 C   0  0  0  0  0  0  0  0  0  0  0  0
   46.1720   32.2090   46.2200 C   0  0  0  0  0  0  0  0  0  0  0  0
   47.0360   31.5290   47.0600 N   0  0  0  0  0  0  0  0  0  0  0  0
   47.8030   31.8030   48.1330 C   0  0  0  0  0  0  0  0  0  0  0  0
   48.5720   30.9180   48.8320 C   0  0  0  0  0  0  0  0  0  0  0  0
   48.6210   29.5990   48.4610 C   0  0  0  0  0  0  0  0  0  0  0  0
   49.4440   28.7670   49.2570 N   0  0  0  0  0  0  0  0  0  0  0  0
   47.8830   29.2560   47.4020 N   0  0  0  0  0  0  0  0  0  0  0  0
   47.1330   30.2080   46.7530 C   0  0  0  0  0  0  0  0  0  0  0  0
   46.5300   29.6340   45.8050 O   0  0  0  0  0  0  0  0  0  0  0  0
   49.3050   31.4400   49.9450 N   0  0  0  0  0  0  0  0  0  0  0  0
   44.8551   34.1682   46.2971 H   0  0  0  0  0  0  0  0  0  0  0  0
   44.2383   37.0867   43.2537 H   0  0  0  0  0  0  0  0  0  0  0  0
   48.3010   33.6107   43.0863 H   0  0  0  0  0  0  0  0  0  0  0  0
   47.7319   36.2363   42.0298 H   0  0  0  0  0  0  0  0  0  0  0  0
   49.2963   35.4036   42.3793 H   0  0  0  0  0  0  0  0  0  0  0  0
   48.4582   36.0488   39.8875 H   0  0  0  0  0  0  0  0  0  0  0  0
   49.5316   34.6952   40.2178 H   0  0  0  0  0  0  0  0  0  0  0  0
   46.6265   34.7540   39.5965 H   0  0  0  0  0  0  0  0  0  0  0  0
   47.8369   33.4545   39.3133 H   0  0  0  0  0  0  0  0  0  0  0  0
   45.8484   33.4939   41.3028 H   0  0  0  0  0  0  0  0  0  0  0  0
   47.2102   32.3774   41.2271 H   0  0  0  0  0  0  0  0  0  0  0  0
   46.8630   32.1676   44.1865 H   0  0  0  0  0  0  0  0  0  0  0  0
   47.8310   33.2093   45.3314 H   0  0  0  0  0  0  0  0  0  0  0  0
   45.6630   32.9841   46.8118 H   0  0  0  0  0  0  0  0  0  0  0  0
   45.4910   31.4505   45.8067 H   0  0  0  0  0  0  0  0  0  0  0  0
   47.8103   32.8463   48.4814 H   0  0  0  0  0  0  0  0  0  0  0  0
   49.5289   27.7644   49.0369 H   0  0  0  0  0  0  0  0  0  0  0  0
   49.9580   29.1641   50.0563 H   0  0  0  0  0  0  0  0  0  0  0  0
   49.9012   30.8160   50.5073 H   0  0  0  0  0  0  0  0  0  0  0  0
   49.2363   32.4396   50.1837 H   0  0  0  0  0  0  0  0  0  0  0  0
  1  2  1  0
  2 12  1  0
  2  3  2  0
  4  3  1  0
  5  4  2  0
  6  1  2  0
  6  5  1  0
  7  1  1  0
  8  7  1  0
  9  8  1  0
 10  9  1  0
 10 11  1  0
 11  7  1  0
 12 13  1  0
 13 14  1  0
 14 15  1  0
 15 16  2  0
 16 22  1  0
 17 16  1  0
 17 18  1  0
 19 17  2  0
 20 14  1  0
 20 19  1  0
 21 20  2  0
  3 23  1  0
  5 24  1  0
  7 25  1  0
  8 26  1  0
  8 27  1  0
  9 28  1  0
  9 29  1  0
 10 30  1  0
 10 31  1  0
 11 32  1  0
 11 33  1  0
 12 34  1  0
 12 35  1  0
 13 36  1  0
 13 37  1  0
 15 38  1  0
 18 39  1  0
 18 40  1  0
 22 41  1  0
 22 42  1  0
M  ISO  8  23  14  24  14  25  13  26  13  27  13  28  13  29  13  30  13
M  ISO  8  31  13  32  13  33  13  34   8  35   8  36   8  37   8  38  14
M  END
>  <minimizedAffinity>  (1) 
-6.09351873

>  <minimizedRMSD>  (1) 
0.779496729

$$$$
