
     RDKit          3D

 16 17  0  0  0  0  0  0  0  0999 V2000
   44.4310   35.2770   44.0880 C   0  0  0  0  0  0  0  0  0  0  0  0
   44.5760   34.2300   43.1610 C   0  0  0  0  0  0  0  0  0  0  0  0
   45.2270   33.0700   43.5780 C   0  0  0  0  0  0  0  0  0  0  0  0
   45.6850   33.0110   44.8570 N   0  0  0  0  0  0  0  0  0  0  0  0
   45.5320   34.0330   45.7260 C   0  0  0  0  0  0  0  0  0  0  0  0
   44.9060   35.1540   45.3310 N   0  0  0  0  0  0  0  0  0  0  0  0
   44.0440   34.4380   41.8590 N   0  0  0  0  0  0  0  0  0  0  0  0
   43.3750   35.4950   41.3260 C   0  0  0  0  0  0  0  0  0  0  0  0
   43.0660   35.2350   40.0410 N   0  0  0  0  0  0  0  0  0  0  0  0
   43.5510   33.9970   39.7680 C   0  0  0  0  0  0  0  0  0  0  0  0
   44.1410   33.5360   40.8960 N   0  0  0  0  0  0  0  0  0  0  0  0
   43.9224   36.2050   43.7877 H   0  0  0  0  0  0  0  0  0  0  0  0
   45.3667   32.2235   42.8896 H   0  0  0  0  0  0  0  0  0  0  0  0
   45.9181   33.9481   46.7525 H   0  0  0  0  0  0  0  0  0  0  0  0
   43.1242   36.4218   41.8628 H   0  0  0  0  0  0  0  0  0  0  0  0
   43.4781   33.4661   38.8073 H   0  0  0  0  0  0  0  0  0  0  0  0
  1  6  2  0
  2  3  2  0
  2  1  1  0
  3  4  1  0
  4  5  2  0
  6  5  1  0
  7  2  1  0
  8  7  1  0
  9  8  2  0
 10  9  1  0
 10 11  2  0
 11  7  1  0
  1 12  1  0
  3 13  1  0
  5 14  1  0
  8 15  1  0
 10 16  1  0
M  ISO  5  12  14  13  14  14  14  15  14  16  14
M  END
>  <minimizedAffinity>  (1) 
-3.02412081

>  <minimizedRMSD>  (1) 
2.28879905

$$$$
