
     RDKit          3D

 39 41  0  0  1  0  0  0  0  0999 V2000
   47.1680   33.9910   41.6470 C   0  0  1  0  0  0  0  0  0  0  0  0
   48.0120   34.7870   40.6570 C   0  0  0  0  0  0  0  0  0  0  0  0
   48.9310   35.7750   41.2880 C   0  0  0  0  0  0  0  0  0  0  0  0
   49.8070   35.1880   42.3590 C   0  0  0  0  0  0  0  0  0  0  0  0
   49.1980   33.9450   42.9510 C   0  0  0  0  0  0  0  0  0  0  0  0
   47.7000   34.1790   43.0300 C   0  0  2  0  0  0  0  0  0  0  0  0
   43.5420   34.0140   40.6220 C   0  0  0  0  0  0  0  0  0  0  0  0
   44.8830   33.6240   40.6700 C   0  0  0  0  0  0  0  0  0  0  0  0
   45.7250   34.3480   41.5170 C   0  0  0  0  0  0  0  0  0  0  0  0
   45.2060   35.3830   42.2440 N   0  0  0  0  0  0  0  0  0  0  0  0
   43.8910   35.7360   42.1730 C   0  0  0  0  0  0  0  0  0  0  0  0
   43.0640   35.0450   41.3570 N   0  0  0  0  0  0  0  0  0  0  0  0
   46.1170   31.4810   45.9900 C   0  0  0  0  0  0  0  0  0  0  0  0
   46.8350   30.9810   44.9100 C   0  0  0  0  0  0  0  0  0  0  0  0
   47.3510   31.8330   43.9500 C   0  0  0  0  0  0  0  0  0  0  0  0
   47.1850   33.2090   44.0070 C   0  0  0  0  0  0  0  0  0  0  0  0
   46.4620   33.7010   45.0950 C   0  0  0  0  0  0  0  0  0  0  0  0
   45.9480   32.8480   46.0540 C   0  0  0  0  0  0  0  0  0  0  0  0
   45.4290   30.4990   47.2450 S   0  0  0  0  0  0  0  0  0  0  0  0
   44.7750   31.3800   48.2750 O   0  0  0  0  0  0  0  0  0  0  0  0
   46.5270   29.7470   47.9800 O   0  0  0  0  0  0  0  0  0  0  0  0
   47.2376   32.9175   41.4175 H   0  0  0  0  0  0  0  0  0  0  0  0
   47.3323   35.3302   39.9840 H   0  0  0  0  0  0  0  0  0  0  0  0
   48.6467   34.0599   40.1293 H   0  0  0  0  0  0  0  0  0  0  0  0
   49.5768   36.1981   40.5045 H   0  0  0  0  0  0  0  0  0  0  0  0
   48.3012   36.5372   41.7701 H   0  0  0  0  0  0  0  0  0  0  0  0
   50.7840   34.9340   41.9221 H   0  0  0  0  0  0  0  0  0  0  0  0
   49.9179   35.9331   43.1606 H   0  0  0  0  0  0  0  0  0  0  0  0
   49.4115   33.0773   42.3095 H   0  0  0  0  0  0  0  0  0  0  0  0
   49.6163   33.7391   43.9473 H   0  0  0  0  0  0  0  0  0  0  0  0
   47.4007   35.1832   43.3647 H   0  0  0  0  0  0  0  0  0  0  0  0
   42.8518   33.4647   39.9648 H   0  0  0  0  0  0  0  0  0  0  0  0
   45.2588   32.7840   40.0674 H   0  0  0  0  0  0  0  0  0  0  0  0
   43.5072   36.5741   42.7733 H   0  0  0  0  0  0  0  0  0  0  0  0
   46.9946   29.8966   44.8177 H   0  0  0  0  0  0  0  0  0  0  0  0
   47.9146   31.4027   43.1091 H   0  0  0  0  0  0  0  0  0  0  0  0
   46.2986   34.7846   45.1909 H   0  0  0  0  0  0  0  0  0  0  0  0
   45.3848   33.2746   46.8971 H   0  0  0  0  0  0  0  0  0  0  0  0
   44.5342   29.6402   46.6631 H   0  0  0  0  0  0  0  0  0  0  0  0
  1  6  1  0
  2  3  1  0
  2  1  1  0
  3  4  1  0
  4  5  1  0
  5  6  1  0
  6 16  1  0
  7  8  2  0
  7 12  1  0
  8  9  1  0
  9  1  1  0
  9 10  2  0
 11 10  1  0
 12 11  2  0
 13 18  2  0
 13 19  1  0
 14 13  1  0
 15 16  1  0
 15 14  2  0
 16 17  2  0
 17 18  1  0
 19 21  2  0
 19 20  2  0
  1 22  1  6
  2 23  1  0
  2 24  1  0
  3 25  1  0
  3 26  1  0
  4 27  1  0
  4 28  1  0
  5 29  1  0
  5 30  1  0
  6 31  1  1
  7 32  1  0
  8 33  1  0
 11 34  1  0
 14 35  1  0
 15 36  1  0
 17 37  1  0
 18 38  1  0
 19 39  1  0
M  ISO  8  22  13  23  13  24  13  25  13  26  13  27  13  28  13  29  13
M  ISO  8  30  13  31  13  32  14  33  14  34  14  35  14  36  14  37  14
M  ISO  2  38  14  39  11
M  END
>  <minimizedAffinity>  (1) 
-5.99240637

>  <minimizedRMSD>  (1) 
2.99947691

$$$$
