
     RDKit          3D

 29 30  0  0  1  0  0  0  0  0999 V2000
   46.7000   35.0770   41.8200 C   0  0  1  0  0  0  0  0  0  0  0  0
   48.2080   35.1470   41.9970 C   0  0  0  0  0  0  0  0  0  0  0  0
   48.9320   33.9090   41.5880 C   0  0  0  0  0  0  0  0  0  0  0  0
   48.6100   33.4830   40.1780 C   0  0  0  0  0  0  0  0  0  0  0  0
   47.2380   33.9720   39.7420 C   0  0  0  0  0  0  0  0  0  0  0  0
   46.3490   33.8980   40.9620 C   0  0  2  0  0  0  0  0  0  0  0  0
   44.5030   35.9690   44.7540 C   0  0  0  0  0  0  0  0  0  0  0  0
   45.0960   36.0870   43.4960 C   0  0  0  0  0  0  0  0  0  0  0  0
   46.0070   35.0740   43.1440 C   0  0  0  0  0  0  0  0  0  0  0  0
   46.2570   34.0610   44.0200 N   0  0  0  0  0  0  0  0  0  0  0  0
   45.6470   33.9890   45.2440 C   0  0  0  0  0  0  0  0  0  0  0  0
   44.7750   34.9500   45.5920 N   0  0  0  0  0  0  0  0  0  0  0  0
   44.9250   33.8240   40.6340 C   0  0  0  0  0  0  0  0  0  0  0  0
   44.2360   32.7710   40.8430 O   0  0  0  0  0  0  0  0  0  0  0  0
   44.2160   34.8740   40.0770 O   0  0  0  0  0  0  0  0  0  0  0  0
   46.3430   35.9770   41.2980 H   0  0  0  0  0  0  0  0  0  0  0  0
   48.5874   35.9837   41.3921 H   0  0  0  0  0  0  0  0  0  0  0  0
   48.3931   35.2792   43.0732 H   0  0  0  0  0  0  0  0  0  0  0  0
   50.0139   34.0942   41.6609 H   0  0  0  0  0  0  0  0  0  0  0  0
   48.6105   33.0998   42.2602 H   0  0  0  0  0  0  0  0  0  0  0  0
   49.3688   33.8978   39.4982 H   0  0  0  0  0  0  0  0  0  0  0  0
   48.6088   32.3835   40.1439 H   0  0  0  0  0  0  0  0  0  0  0  0
   47.3013   35.0088   39.3801 H   0  0  0  0  0  0  0  0  0  0  0  0
   46.8391   33.3582   38.9210 H   0  0  0  0  0  0  0  0  0  0  0  0
   46.5292   32.9616   41.5103 H   0  0  0  0  0  0  0  0  0  0  0  0
   43.7851   36.7386   45.0738 H   0  0  0  0  0  0  0  0  0  0  0  0
   44.8647   36.9229   42.8194 H   0  0  0  0  0  0  0  0  0  0  0  0
   45.8673   33.1583   45.9307 H   0  0  0  0  0  0  0  0  0  0  0  0
   44.6722   35.7305   39.8810 H   0  0  0  0  0  0  0  0  0  0  0  0
  1  2  1  0
  1  9  1  0
  3  2  1  0
  4  3  1  0
  5  4  1  0
  5  6  1  0
  6  1  1  0
  7 12  2  0
  8  7  1  0
  9  8  2  0
  9 10  1  0
 10 11  2  0
 11 12  1  0
 13 14  2  0
 13  6  1  0
 15 13  1  0
  1 16  1  6
  2 17  1  0
  2 18  1  0
  3 19  1  0
  3 20  1  0
  4 21  1  0
  4 22  1  0
  5 23  1  0
  5 24  1  0
  6 25  1  1
  7 26  1  0
  8 27  1  0
 11 28  1  0
 15 29  1  0
M  ISO  8  16  13  17  13  18  13  19  13  20  13  21  13  22  13  23  13
M  ISO  6  24  13  25  13  26  14  27  14  28  14  29   3
M  END
>  <minimizedAffinity>  (1) 
-4.91233158

>  <minimizedRMSD>  (1) 
2.80859947

$$$$
