
     RDKit          3D

 20 21  0  0  0  0  0  0  0  0999 V2000
   46.2960   32.6390   46.6980 C   0  0  0  0  0  0  0  0  0  0  0  0
   45.4610   32.7610   47.7960 C   0  0  0  0  0  0  0  0  0  0  0  0
   45.5870   31.9740   48.9250 C   0  0  0  0  0  0  0  0  0  0  0  0
   46.6240   31.0510   48.8650 C   0  0  0  0  0  0  0  0  0  0  0  0
   47.4840   30.8930   47.7880 C   0  0  0  0  0  0  0  0  0  0  0  0
   47.2650   31.7090   46.7540 N   0  0  0  0  0  0  0  0  0  0  0  0
   44.9580   35.1670   44.4310 C   0  0  0  0  0  0  0  0  0  0  0  0
   45.8210   35.0870   43.3100 C   0  0  0  0  0  0  0  0  0  0  0  0
   46.8640   34.1550   43.3450 C   0  0  0  0  0  0  0  0  0  0  0  0
   46.9960   33.3740   44.4550 N   0  0  0  0  0  0  0  0  0  0  0  0
   46.1370   33.4860   45.5170 C   0  0  0  0  0  0  0  0  0  0  0  0
   45.1330   34.3760   45.4950 N   0  0  0  0  0  0  0  0  0  0  0  0
   44.4420   33.7050   47.7960 O   0  0  0  0  0  0  0  0  0  0  0  0
   44.9230   32.0700   49.7967 H   0  0  0  0  0  0  0  0  0  0  0  0
   46.7742   30.3968   49.7365 H   0  0  0  0  0  0  0  0  0  0  0  0
   48.2916   30.1461   47.7860 H   0  0  0  0  0  0  0  0  0  0  0  0
   44.1305   35.8917   44.4260 H   0  0  0  0  0  0  0  0  0  0  0  0
   45.6750   35.7395   42.4365 H   0  0  0  0  0  0  0  0  0  0  0  0
   47.5597   34.0549   42.4988 H   0  0  0  0  0  0  0  0  0  0  0  0
   43.8463   33.7904   48.5821 H   0  0  0  0  0  0  0  0  0  0  0  0
  1  6  1  0
  1  2  2  0
  2 13  1  0
  2  3  1  0
  4  3  2  0
  5  4  1  0
  6  5  2  0
  7 12  2  0
  8  9  2  0
  8  7  1  0
  9 10  1  0
 10 11  2  0
 11  1  1  0
 12 11  1  0
  3 14  1  0
  4 15  1  0
  5 16  1  0
  7 17  1  0
  8 18  1  0
  9 19  1  0
 13 20  1  0
M  ISO  7  14  14  15  14  16  14  17  14  18  14  19  14  20   3
M  END
>  <minimizedAffinity>  (1) 
-5.06311321

>  <minimizedRMSD>  (1) 
0.591892779

$$$$
