
     RDKit          3D

 36 38  0  0  0  0  0  0  0  0999 V2000
   44.5660   35.8240   44.6390 C   0  0  0  0  0  0  0  0  0  0  0  0
   45.1790   35.8130   43.3750 C   0  0  0  0  0  0  0  0  0  0  0  0
   46.1110   34.8320   43.1140 C   0  0  0  0  0  0  0  0  0  0  0  0
   46.3700   33.9410   44.1090 N   0  0  0  0  0  0  0  0  0  0  0  0
   45.7630   33.9710   45.3260 C   0  0  0  0  0  0  0  0  0  0  0  0
   44.8580   34.9250   45.5770 N   0  0  0  0  0  0  0  0  0  0  0  0
   46.0710   32.9990   46.3560 C   0  0  0  0  0  0  0  0  0  0  0  0
   45.3950   32.9800   47.5580 C   0  0  0  0  0  0  0  0  0  0  0  0
   45.6320   32.0880   48.5820 C   0  0  0  0  0  0  0  0  0  0  0  0
   46.6270   31.1960   48.2930 C   0  0  0  0  0  0  0  0  0  0  0  0
   47.3440   31.1520   47.1180 C   0  0  0  0  0  0  0  0  0  0  0  0
   47.0170   32.0760   46.1990 N   0  0  0  0  0  0  0  0  0  0  0  0
   44.3690   33.9800   47.7280 N   0  0  0  0  0  0  0  0  0  0  0  0
   46.8000   34.7260   41.8500 N   0  0  0  0  0  0  0  0  0  0  0  0
   46.0480   34.2360   40.7150 C   0  0  0  0  0  0  0  0  0  0  0  0
   46.8800   33.5990   39.6590 C   0  0  0  0  0  0  0  0  0  0  0  0
   48.3080   34.0450   39.6210 C   0  0  0  0  0  0  0  0  0  0  0  0
   48.5530   35.3260   40.3760 C   0  0  0  0  0  0  0  0  0  0  0  0
   48.1930   35.1220   41.8300 C   0  0  0  0  0  0  0  0  0  0  0  0
   43.8199   36.6011   44.8613 H   0  0  0  0  0  0  0  0  0  0  0  0
   44.9224   36.5660   42.6153 H   0  0  0  0  0  0  0  0  0  0  0  0
   45.0783   32.0934   49.5325 H   0  0  0  0  0  0  0  0  0  0  0  0
   46.8756   30.4512   49.0634 H   0  0  0  0  0  0  0  0  0  0  0  0
   48.1345   30.4074   46.9429 H   0  0  0  0  0  0  0  0  0  0  0  0
   43.8277   34.0189   48.6035 H   0  0  0  0  0  0  0  0  0  0  0  0
   44.1778   34.6550   46.9739 H   0  0  0  0  0  0  0  0  0  0  0  0
   45.3225   33.4927   41.0772 H   0  0  0  0  0  0  0  0  0  0  0  0
   45.5682   35.1114   40.2530 H   0  0  0  0  0  0  0  0  0  0  0  0
   46.8669   32.5116   39.8245 H   0  0  0  0  0  0  0  0  0  0  0  0
   46.4390   33.9011   38.6976 H   0  0  0  0  0  0  0  0  0  0  0  0
   48.9325   33.2545   40.0628 H   0  0  0  0  0  0  0  0  0  0  0  0
   48.5622   34.2341   38.5676 H   0  0  0  0  0  0  0  0  0  0  0  0
   49.6143   35.6036   40.2951 H   0  0  0  0  0  0  0  0  0  0  0  0
   47.9340   36.1299   39.9510 H   0  0  0  0  0  0  0  0  0  0  0  0
   48.8200   34.3331   42.2710 H   0  0  0  0  0  0  0  0  0  0  0  0
   48.3575   36.0383   42.4159 H   0  0  0  0  0  0  0  0  0  0  0  0
  1  6  2  0
  2  1  1  0
  3  2  2  0
  3  4  1  0
  4  5  2  0
  5  6  1  0
  5  7  1  0
  7  8  2  0
  8 13  1  0
  8  9  1  0
 10  9  2  0
 11 10  1  0
 12  7  1  0
 12 11  2  0
 14  3  1  0
 15 14  1  0
 16 15  1  0
 17 16  1  0
 17 18  1  0
 18 19  1  0
 19 14  1  0
  1 20  1  0
  2 21  1  0
  9 22  1  0
 10 23  1  0
 11 24  1  0
 13 25  1  0
 13 26  1  0
 15 27  1  0
 15 28  1  0
 16 29  1  0
 16 30  1  0
 17 31  1  0
 17 32  1  0
 18 33  1  0
 18 34  1  0
 19 35  1  0
 19 36  1  0
M  ISO  8  20  14  21  14  22  14  23  14  24  14  27  13  28  13  29  13
M  ISO  7  30  13  31  13  32  13  33  13  34  13  35  13  36  13
M  END
>  <minimizedAffinity>  (1) 
-6.80861759

>  <minimizedRMSD>  (1) 
0.649463534

$$$$
