
     RDKit          3D

 28 30  0  0  0  0  0  0  0  0999 V2000
   44.5840   35.7790   44.3570 C   0  0  0  0  0  0  0  0  0  0  0  0
   45.3460   35.8770   43.1890 C   0  0  0  0  0  0  0  0  0  0  0  0
   46.3860   34.9740   43.0480 C   0  0  0  0  0  0  0  0  0  0  0  0
   46.6100   34.0590   44.0270 N   0  0  0  0  0  0  0  0  0  0  0  0
   45.8310   34.0040   45.1560 C   0  0  0  0  0  0  0  0  0  0  0  0
   44.8200   34.8720   45.3070 N   0  0  0  0  0  0  0  0  0  0  0  0
   46.0720   33.0290   46.1970 C   0  0  0  0  0  0  0  0  0  0  0  0
   45.3950   33.0560   47.3950 C   0  0  0  0  0  0  0  0  0  0  0  0
   45.5900   32.1510   48.4120 C   0  0  0  0  0  0  0  0  0  0  0  0
   46.5300   31.2040   48.1320 C   0  0  0  0  0  0  0  0  0  0  0  0
   47.2480   31.1080   46.9640 C   0  0  0  0  0  0  0  0  0  0  0  0
   46.9650   32.0550   46.0430 N   0  0  0  0  0  0  0  0  0  0  0  0
   44.4370   34.1090   47.5490 N   0  0  0  0  0  0  0  0  0  0  0  0
   47.2660   34.9620   41.8730 C   0  0  0  0  0  0  0  0  0  0  0  0
   46.9720   34.2220   40.7240 C   0  0  0  0  0  0  0  0  0  0  0  0
   48.0300   34.4820   39.8790 C   0  0  0  0  0  0  0  0  0  0  0  0
   48.9030   35.3190   40.4660 N   0  0  0  0  0  0  0  0  0  0  0  0
   48.4460   35.6210   41.6920 N   0  0  0  0  0  0  0  0  0  0  0  0
   43.7506   36.4827   44.4997 H   0  0  0  0  0  0  0  0  0  0  0  0
   45.1301   36.6337   42.4204 H   0  0  0  0  0  0  0  0  0  0  0  0
   45.0387   32.1878   49.3632 H   0  0  0  0  0  0  0  0  0  0  0  0
   46.7313   30.4513   48.9085 H   0  0  0  0  0  0  0  0  0  0  0  0
   47.9961   30.3201   46.7922 H   0  0  0  0  0  0  0  0  0  0  0  0
   43.8947   34.1884   48.4210 H   0  0  0  0  0  0  0  0  0  0  0  0
   44.2902   34.7871   46.7877 H   0  0  0  0  0  0  0  0  0  0  0  0
   46.0983   33.5804   40.5372 H   0  0  0  0  0  0  0  0  0  0  0  0
   48.1436   34.0639   38.8679 H   0  0  0  0  0  0  0  0  0  0  0  0
   49.7756   35.6697   40.0460 H   0  0  0  0  0  0  0  0  0  0  0  0
  1  6  2  0
  2  1  1  0
  3  2  2  0
  3  4  1  0
  4  5  2  0
  5  6  1  0
  5  7  1  0
  7  8  2  0
  8 13  1  0
  8  9  1  0
 10  9  2  0
 11 10  1  0
 12  7  1  0
 12 11  2  0
 14  3  1  0
 15 14  1  0
 16 17  1  0
 16 15  2  0
 17 18  1  0
 18 14  2  0
  1 19  1  0
  2 20  1  0
  9 21  1  0
 10 22  1  0
 11 23  1  0
 13 24  1  0
 13 25  1  0
 15 26  1  0
 16 27  1  0
 17 28  1  0
M  ISO  8  19  14  20  14  21  14  22  14  23  14  26  14  27  14  28   9
M  END
>  <minimizedAffinity>  (1) 
-6.88884878

>  <minimizedRMSD>  (1) 
0.426198184

$$$$
