
     RDKit          3D

 37 39  0  0  0  0  0  0  0  0999 V2000
   44.5830   35.7820   44.5560 C   0  0  0  0  0  0  0  0  0  0  0  0
   45.2270   35.7930   43.3130 C   0  0  0  0  0  0  0  0  0  0  0  0
   46.1850   34.8230   43.0990 C   0  0  0  0  0  0  0  0  0  0  0  0
   46.4410   33.9290   44.0960 N   0  0  0  0  0  0  0  0  0  0  0  0
   45.7860   33.9540   45.3010 C   0  0  0  0  0  0  0  0  0  0  0  0
   44.8530   34.8950   45.5150 N   0  0  0  0  0  0  0  0  0  0  0  0
   46.0680   32.9990   46.3490 C   0  0  0  0  0  0  0  0  0  0  0  0
   45.3870   33.0020   47.5400 C   0  0  0  0  0  0  0  0  0  0  0  0
   45.6120   32.1140   48.5810 C   0  0  0  0  0  0  0  0  0  0  0  0
   46.5970   31.2150   48.3010 C   0  0  0  0  0  0  0  0  0  0  0  0
   47.3270   31.1490   47.1250 C   0  0  0  0  0  0  0  0  0  0  0  0
   47.0150   32.0670   46.1900 N   0  0  0  0  0  0  0  0  0  0  0  0
   44.3750   34.0130   47.6870 N   0  0  0  0  0  0  0  0  0  0  0  0
   46.9460   34.6990   41.8540 C   0  0  0  0  0  0  0  0  0  0  0  0
   48.2350   35.5320   41.9010 C   0  0  0  0  0  0  0  0  0  0  0  0
   48.9040   35.4360   40.5640 C   0  0  0  0  0  0  0  0  0  0  0  0
   48.1380   34.6280   39.5470 C   0  0  0  0  0  0  0  0  0  0  0  0
   47.7180   33.2790   40.0420 C   0  0  0  0  0  0  0  0  0  0  0  0
   47.3840   33.2910   41.5280 C   0  0  0  0  0  0  0  0  0  0  0  0
   43.8145   36.5443   44.7520 H   0  0  0  0  0  0  0  0  0  0  0  0
   44.9811   36.5395   42.5434 H   0  0  0  0  0  0  0  0  0  0  0  0
   45.0557   32.1332   49.5298 H   0  0  0  0  0  0  0  0  0  0  0  0
   46.8342   30.4745   49.0791 H   0  0  0  0  0  0  0  0  0  0  0  0
   48.1116   30.3947   46.9652 H   0  0  0  0  0  0  0  0  0  0  0  0
   43.8269   34.0703   48.5571 H   0  0  0  0  0  0  0  0  0  0  0  0
   44.1983   34.6798   46.9221 H   0  0  0  0  0  0  0  0  0  0  0  0
   46.2417   35.0514   41.0861 H   0  0  0  0  0  0  0  0  0  0  0  0
   47.9919   36.5820   42.1211 H   0  0  0  0  0  0  0  0  0  0  0  0
   48.9035   35.1532   42.6882 H   0  0  0  0  0  0  0  0  0  0  0  0
   49.0336   36.4544   40.1690 H   0  0  0  0  0  0  0  0  0  0  0  0
   49.8604   34.9170   40.7252 H   0  0  0  0  0  0  0  0  0  0  0  0
   48.7759   34.4898   38.6616 H   0  0  0  0  0  0  0  0  0  0  0  0
   47.2185   35.1871   39.3191 H   0  0  0  0  0  0  0  0  0  0  0  0
   46.8281   32.9569   39.4813 H   0  0  0  0  0  0  0  0  0  0  0  0
   48.5587   32.5861   39.8899 H   0  0  0  0  0  0  0  0  0  0  0  0
   46.5717   32.5807   41.7413 H   0  0  0  0  0  0  0  0  0  0  0  0
   48.2516   32.9922   42.1346 H   0  0  0  0  0  0  0  0  0  0  0  0
  1  6  2  0
  2  1  1  0
  3  2  2  0
  3  4  1  0
  4  5  2  0
  5  6  1  0
  5  7  1  0
  7  8  2  0
  8 13  1  0
  8  9  1  0
 10  9  2  0
 11 10  1  0
 12  7  1  0
 12 11  2  0
 14 15  1  0
 14  3  1  0
 16 15  1  0
 17 18  1  0
 17 16  1  0
 18 19  1  0
 19 14  1  0
  1 20  1  0
  2 21  1  0
  9 22  1  0
 10 23  1  0
 11 24  1  0
 13 25  1  0
 13 26  1  0
 14 27  1  0
 15 28  1  0
 15 29  1  0
 16 30  1  0
 16 31  1  0
 17 32  1  0
 17 33  1  0
 18 34  1  0
 18 35  1  0
 19 36  1  0
 19 37  1  0
M  ISO  8  20  14  21  14  22  14  23  14  24  14  27  13  28  13  29  13
M  ISO  8  30  13  31  13  32  13  33  13  34  13  35  13  36  13  37  13
M  END
>  <minimizedAffinity>  (1) 
-7.06275034

>  <minimizedRMSD>  (1) 
0.471076369

$$$$
