
     RDKit          3D

 28 29  0  0  0  0  0  0  0  0999 V2000
   44.6300   35.8040   44.5180 C   0  0  0  0  0  0  0  0  0  0  0  0
   45.3120   35.8330   43.2980 C   0  0  0  0  0  0  0  0  0  0  0  0
   46.2670   34.8590   43.0940 C   0  0  0  0  0  0  0  0  0  0  0  0
   46.4820   33.9440   44.0820 N   0  0  0  0  0  0  0  0  0  0  0  0
   45.7970   33.9460   45.2610 C   0  0  0  0  0  0  0  0  0  0  0  0
   44.8630   34.8910   45.4720 N   0  0  0  0  0  0  0  0  0  0  0  0
   46.0380   32.9700   46.2940 C   0  0  0  0  0  0  0  0  0  0  0  0
   45.3600   32.9860   47.4910 C   0  0  0  0  0  0  0  0  0  0  0  0
   45.5610   32.0710   48.5050 C   0  0  0  0  0  0  0  0  0  0  0  0
   46.5070   31.1270   48.2210 C   0  0  0  0  0  0  0  0  0  0  0  0
   47.2200   31.0540   47.0470 C   0  0  0  0  0  0  0  0  0  0  0  0
   46.9360   32.0030   46.1310 N   0  0  0  0  0  0  0  0  0  0  0  0
   44.3960   34.0380   47.6460 N   0  0  0  0  0  0  0  0  0  0  0  0
   47.0360   34.7670   41.9040 N   0  0  0  0  0  0  0  0  0  0  0  0
   48.4440   35.0630   41.8820 C   0  0  0  0  0  0  0  0  0  0  0  0
   49.0380   34.7650   43.0110 N   0  0  0  0  0  0  0  0  0  0  0  0
   48.9520   35.6210   40.6610 N   0  0  0  0  0  0  0  0  0  0  0  0
   50.0560   34.9540   43.0630 H   0  0  0  0  0  0  0  0  0  0  0  0
   43.8627   36.5697   44.7050 H   0  0  0  0  0  0  0  0  0  0  0  0
   45.0970   36.5969   42.5363 H   0  0  0  0  0  0  0  0  0  0  0  0
   45.0091   32.0994   49.4561 H   0  0  0  0  0  0  0  0  0  0  0  0
   46.7142   30.3678   48.9895 H   0  0  0  0  0  0  0  0  0  0  0  0
   47.9729   30.2726   46.8667 H   0  0  0  0  0  0  0  0  0  0  0  0
   43.8505   34.1125   48.5165 H   0  0  0  0  0  0  0  0  0  0  0  0
   44.2497   34.7185   46.8867 H   0  0  0  0  0  0  0  0  0  0  0  0
   46.5721   34.4798   41.0304 H   0  0  0  0  0  0  0  0  0  0  0  0
   49.9515   35.8559   40.5788 H   0  0  0  0  0  0  0  0  0  0  0  0
   48.3171   35.7865   39.8671 H   0  0  0  0  0  0  0  0  0  0  0  0
  1  6  2  0
  2  1  1  0
  3  2  2  0
  3  4  1  0
  4  5  2  0
  5  6  1  0
  5  7  1  0
  7  8  2  0
  8 13  1  0
  8  9  1  0
 10  9  2  0
 11 10  1  0
 12  7  1  0
 12 11  2  0
 14  3  1  0
 15 14  1  0
 15 16  2  0
 16 18  1  0
 17 15  1  0
  1 19  1  0
  2 20  1  0
  9 21  1  0
 10 22  1  0
 11 23  1  0
 13 24  1  0
 13 25  1  0
 14 26  1  0
 17 27  1  0
 17 28  1  0
M  ISO  5  19  14  20  14  21  14  22  14  23  14
M  END
>  <minimizedAffinity>  (1) 
-6.71391487

>  <minimizedRMSD>  (1) 
0.157508388

$$$$
