
     RDKit          3D

 33 35  0  0  0  0  0  0  0  0999 V2000
   44.6700   35.5410   44.4570 C   0  0  0  0  0  0  0  0  0  0  0  0
   45.4800   35.6070   43.3200 C   0  0  0  0  0  0  0  0  0  0  0  0
   46.5400   34.7180   43.2570 C   0  0  0  0  0  0  0  0  0  0  0  0
   46.7260   33.8510   44.2840 N   0  0  0  0  0  0  0  0  0  0  0  0
   45.9150   33.8140   45.3780 C   0  0  0  0  0  0  0  0  0  0  0  0
   44.8740   34.6760   45.4560 N   0  0  0  0  0  0  0  0  0  0  0  0
   46.1280   32.8840   46.4620 C   0  0  0  0  0  0  0  0  0  0  0  0
   45.4090   32.9350   47.6220 C   0  0  0  0  0  0  0  0  0  0  0  0
   45.5660   32.0750   48.6920 C   0  0  0  0  0  0  0  0  0  0  0  0
   46.5330   31.1370   48.4880 C   0  0  0  0  0  0  0  0  0  0  0  0
   47.3000   31.0230   47.3430 C   0  0  0  0  0  0  0  0  0  0  0  0
   47.0560   31.9150   46.3720 N   0  0  0  0  0  0  0  0  0  0  0  0
   44.4230   33.9760   47.6990 N   0  0  0  0  0  0  0  0  0  0  0  0
   47.4790   34.6000   42.2260 N   0  0  0  0  0  0  0  0  0  0  0  0
   48.8750   34.9730   42.1100 C   0  0  0  0  0  0  0  0  0  0  0  0
   48.9120   35.6000   40.7270 C   0  0  0  0  0  0  0  0  0  0  0  0
   48.0460   34.6270   39.9330 C   0  0  0  0  0  0  0  0  0  0  0  0
   47.1050   33.9920   40.9450 C   0  0  0  0  0  0  0  0  0  0  0  0
   43.8211   36.2363   44.5340 H   0  0  0  0  0  0  0  0  0  0  0  0
   45.2850   36.3300   42.5142 H   0  0  0  0  0  0  0  0  0  0  0  0
   44.9708   32.1409   49.6147 H   0  0  0  0  0  0  0  0  0  0  0  0
   46.7179   30.4146   49.2966 H   0  0  0  0  0  0  0  0  0  0  0  0
   48.0683   30.2432   47.2347 H   0  0  0  0  0  0  0  0  0  0  0  0
   43.8432   34.0747   48.5446 H   0  0  0  0  0  0  0  0  0  0  0  0
   44.2955   34.6240   46.9086 H   0  0  0  0  0  0  0  0  0  0  0  0
   49.1625   35.6972   42.8865 H   0  0  0  0  0  0  0  0  0  0  0  0
   49.5738   34.1333   42.2386 H   0  0  0  0  0  0  0  0  0  0  0  0
   48.4798   36.6115   40.7320 H   0  0  0  0  0  0  0  0  0  0  0  0
   49.9254   35.7348   40.3210 H   0  0  0  0  0  0  0  0  0  0  0  0
   47.4740   35.1641   39.1621 H   0  0  0  0  0  0  0  0  0  0  0  0
   48.6551   33.8712   39.4156 H   0  0  0  0  0  0  0  0  0  0  0  0
   46.0575   34.2192   40.6979 H   0  0  0  0  0  0  0  0  0  0  0  0
   47.1879   32.8953   40.9625 H   0  0  0  0  0  0  0  0  0  0  0  0
  1  6  2  0
  2  1  1  0
  3  2  2  0
  3  4  1  0
  4  5  2  0
  5  6  1  0
  5  7  1  0
  7  8  2  0
  8 13  1  0
  8  9  1  0
 10  9  2  0
 11 10  1  0
 12  7  1  0
 12 11  2  0
 14  3  1  0
 15 14  1  0
 16 15  1  0
 17 16  1  0
 17 18  1  0
 18 14  1  0
  1 19  1  0
  2 20  1  0
  9 21  1  0
 10 22  1  0
 11 23  1  0
 13 24  1  0
 13 25  1  0
 15 26  1  0
 15 27  1  0
 16 28  1  0
 16 29  1  0
 17 30  1  0
 17 31  1  0
 18 32  1  0
 18 33  1  0
M  ISO  8  19  14  20  14  21  14  22  14  23  14  26  13  27  13  28  13
M  ISO  5  29  13  30  13  31  13  32  13  33  13
M  END
>  <minimizedAffinity>  (1) 
-6.6467452

>  <minimizedRMSD>  (1) 
0.54054606

$$$$
