
     RDKit          3D

 27 29  0  0  0  0  0  0  0  0999 V2000
   44.5500   35.7780   44.5740 C   0  0  0  0  0  0  0  0  0  0  0  0
   45.2620   35.8410   43.3700 C   0  0  0  0  0  0  0  0  0  0  0  0
   46.2620   34.9170   43.1570 C   0  0  0  0  0  0  0  0  0  0  0  0
   46.4850   34.0040   44.1380 N   0  0  0  0  0  0  0  0  0  0  0  0
   45.7820   33.9590   45.3020 C   0  0  0  0  0  0  0  0  0  0  0  0
   44.8120   34.8600   45.5020 N   0  0  0  0  0  0  0  0  0  0  0  0
   46.0540   32.9680   46.3200 C   0  0  0  0  0  0  0  0  0  0  0  0
   45.3850   32.9580   47.5220 C   0  0  0  0  0  0  0  0  0  0  0  0
   45.5970   32.0430   48.5320 C   0  0  0  0  0  0  0  0  0  0  0  0
   46.5550   31.1220   48.2290 C   0  0  0  0  0  0  0  0  0  0  0  0
   47.2690   31.0660   47.0480 C   0  0  0  0  0  0  0  0  0  0  0  0
   46.9660   32.0180   46.1450 N   0  0  0  0  0  0  0  0  0  0  0  0
   44.3910   34.0020   47.7020 N   0  0  0  0  0  0  0  0  0  0  0  0
   47.0950   34.8570   41.9450 C   0  0  0  0  0  0  0  0  0  0  0  0
   46.6690   34.0250   40.9190 C   0  0  0  0  0  0  0  0  0  0  0  0
   48.0050   34.2540   39.5960 S   0  0  0  0  0  0  0  0  0  0  0  0
   48.8840   35.4710   40.7580 C   0  0  0  0  0  0  0  0  0  0  0  0
   48.2180   35.4860   41.6640 N   0  0  0  0  0  0  0  0  0  0  0  0
   43.7495   36.5095   44.7588 H   0  0  0  0  0  0  0  0  0  0  0  0
   45.0296   36.6067   42.6152 H   0  0  0  0  0  0  0  0  0  0  0  0
   45.0485   32.0553   49.4854 H   0  0  0  0  0  0  0  0  0  0  0  0
   46.7783   30.3589   48.9892 H   0  0  0  0  0  0  0  0  0  0  0  0
   48.0323   30.2970   46.8582 H   0  0  0  0  0  0  0  0  0  0  0  0
   43.8522   34.0545   48.5782 H   0  0  0  0  0  0  0  0  0  0  0  0
   44.2251   34.6897   46.9534 H   0  0  0  0  0  0  0  0  0  0  0  0
   45.7732   33.3876   40.8829 H   0  0  0  0  0  0  0  0  0  0  0  0
   49.8178   36.0265   40.5867 H   0  0  0  0  0  0  0  0  0  0  0  0
  1  6  2  0
  2  1  1  0
  3  2  2  0
  3  4  1  0
  4  5  2  0
  5  6  1  0
  5  7  1  0
  7  8  2  0
  8 13  1  0
  8  9  1  0
 10  9  2  0
 11 10  1  0
 12  7  1  0
 12 11  2  0
 14  3  1  0
 15 14  2  0
 16 17  1  0
 16 15  1  0
 17 18  2  0
 18 14  1  0
  1 19  1  0
  2 20  1  0
  9 21  1  0
 10 22  1  0
 11 23  1  0
 13 24  1  0
 13 25  1  0
 15 26  1  0
 17 27  1  0
M  ISO  7  19  14  20  14  21  14  22  14  23  14  26  14  27  14
M  END
>  <minimizedAffinity>  (1) 
-6.4318676

>  <minimizedRMSD>  (1) 
0.260515302

$$$$
