
     RDKit          3D

 23 24  0  0  0  0  0  0  0  0999 V2000
   46.0800   32.9940   46.3290 C   0  0  0  0  0  0  0  0  0  0  0  0
   45.3850   33.0090   47.5230 C   0  0  0  0  0  0  0  0  0  0  0  0
   45.5990   32.1170   48.5600 C   0  0  0  0  0  0  0  0  0  0  0  0
   46.5780   31.2030   48.2920 C   0  0  0  0  0  0  0  0  0  0  0  0
   47.3110   31.1280   47.1260 C   0  0  0  0  0  0  0  0  0  0  0  0
   47.0080   32.0520   46.1940 N   0  0  0  0  0  0  0  0  0  0  0  0
   44.5970   35.7630   44.5130 C   0  0  0  0  0  0  0  0  0  0  0  0
   45.2860   35.7910   43.2940 C   0  0  0  0  0  0  0  0  0  0  0  0
   46.2670   34.8390   43.1150 C   0  0  0  0  0  0  0  0  0  0  0  0
   46.5210   33.9340   44.1000 N   0  0  0  0  0  0  0  0  0  0  0  0
   45.8100   33.9530   45.2820 C   0  0  0  0  0  0  0  0  0  0  0  0
   44.8420   34.8800   45.4820 N   0  0  0  0  0  0  0  0  0  0  0  0
   47.0070   34.8220   41.8750 C   0  0  0  0  0  0  0  0  0  0  0  0
   48.0950   35.4010   41.7450 O   0  0  0  0  0  0  0  0  0  0  0  0
   44.3810   34.0320   47.6620 N   0  0  0  0  0  0  0  0  0  0  0  0
   45.0368   32.1419   49.5052 H   0  0  0  0  0  0  0  0  0  0  0  0
   46.8013   30.4624   49.0740 H   0  0  0  0  0  0  0  0  0  0  0  0
   48.0890   30.3665   46.9682 H   0  0  0  0  0  0  0  0  0  0  0  0
   43.8090   36.5119   44.6807 H   0  0  0  0  0  0  0  0  0  0  0  0
   45.0558   36.5357   42.5178 H   0  0  0  0  0  0  0  0  0  0  0  0
   46.5904   34.2760   41.0158 H   0  0  0  0  0  0  0  0  0  0  0  0
   43.8281   34.0966   48.5286 H   0  0  0  0  0  0  0  0  0  0  0  0
   44.2158   34.6991   46.8948 H   0  0  0  0  0  0  0  0  0  0  0  0
  1  2  2  0
  2 15  1  0
  2  3  1  0
  4  3  2  0
  5  4  1  0
  6  1  1  0
  6  5  2  0
  7 12  2  0
  8  7  1  0
  9  8  2  0
  9 10  1  0
 10 11  2  0
 11 12  1  0
 11  1  1  0
 13  9  1  0
 14 13  2  0
  3 16  1  0
  4 17  1  0
  5 18  1  0
  7 19  1  0
  8 20  1  0
 13 21  1  0
 15 22  1  0
 15 23  1  0
M  ISO  6  16  14  17  14  18  14  19  14  20  14  21   6
M  END
>  <minimizedAffinity>  (1) 
-5.60758591

>  <minimizedRMSD>  (1) 
0.21095185

$$$$
