
     RDKit          3D

 41 44  0  0  0  0  0  0  0  0999 V2000
   44.4780   35.9740   44.7730 C   0  0  0  0  0  0  0  0  0  0  0  0
   44.9740   36.0060   43.4580 C   0  0  0  0  0  0  0  0  0  0  0  0
   45.8340   35.0120   43.0700 C   0  0  0  0  0  0  0  0  0  0  0  0
   46.1680   34.0460   43.9660 N   0  0  0  0  0  0  0  0  0  0  0  0
   45.6740   34.0370   45.2360 C   0  0  0  0  0  0  0  0  0  0  0  0
   44.8260   35.0150   45.6230 N   0  0  0  0  0  0  0  0  0  0  0  0
   46.0410   33.0000   46.1840 C   0  0  0  0  0  0  0  0  0  0  0  0
   45.4370   32.9330   47.4290 C   0  0  0  0  0  0  0  0  0  0  0  0
   45.7430   31.9780   48.3700 C   0  0  0  0  0  0  0  0  0  0  0  0
   46.7090   31.0970   47.9470 C   0  0  0  0  0  0  0  0  0  0  0  0
   47.3420   31.1040   46.7370 C   0  0  0  0  0  0  0  0  0  0  0  0
   46.9570   32.0850   45.9080 N   0  0  0  0  0  0  0  0  0  0  0  0
   44.4530   33.9190   47.7210 N   0  0  0  0  0  0  0  0  0  0  0  0
   46.3480   35.0610   41.6850 C   0  0  0  0  0  0  0  0  0  0  0  0
   47.8490   35.0180   41.6150 C   0  0  0  0  0  0  0  0  0  0  0  0
   48.2930   33.9910   40.6370 C   0  0  0  0  0  0  0  0  0  0  0  0
   47.6870   33.9610   39.4180 N   0  0  0  0  0  0  0  0  0  0  0  0
   48.0480   33.0640   38.4780 C   0  0  0  0  0  0  0  0  0  0  0  0
   49.0290   32.1430   38.6800 N   0  0  0  0  0  0  0  0  0  0  0  0
   49.6320   32.1690   39.8840 C   0  0  0  0  0  0  0  0  0  0  0  0
   50.6530   31.2730   40.2150 C   0  0  0  0  0  0  0  0  0  0  0  0
   51.2780   31.2830   41.4450 C   0  0  0  0  0  0  0  0  0  0  0  0
   50.9060   32.2020   42.4060 C   0  0  0  0  0  0  0  0  0  0  0  0
   49.9100   33.0870   42.1010 C   0  0  0  0  0  0  0  0  0  0  0  0
   49.2920   33.0800   40.8920 C   0  0  0  0  0  0  0  0  0  0  0  0
   43.7857   36.7615   45.1055 H   0  0  0  0  0  0  0  0  0  0  0  0
   44.6806   36.8050   42.7613 H   0  0  0  0  0  0  0  0  0  0  0  0
   45.2641   31.9249   49.3589 H   0  0  0  0  0  0  0  0  0  0  0  0
   47.0018   30.3068   48.6540 H   0  0  0  0  0  0  0  0  0  0  0  0
   48.1077   30.3630   46.4639 H   0  0  0  0  0  0  0  0  0  0  0  0
   43.9736   33.9140   48.6326 H   0  0  0  0  0  0  0  0  0  0  0  0
   44.2203   34.6375   47.0207 H   0  0  0  0  0  0  0  0  0  0  0  0
   45.9462   34.1998   41.1311 H   0  0  0  0  0  0  0  0  0  0  0  0
   46.0249   36.0170   41.2472 H   0  0  0  0  0  0  0  0  0  0  0  0
   48.2256   36.0031   41.3022 H   0  0  0  0  0  0  0  0  0  0  0  0
   48.2452   34.7597   42.6081 H   0  0  0  0  0  0  0  0  0  0  0  0
   47.5283   33.0774   37.5086 H   0  0  0  0  0  0  0  0  0  0  0  0
   50.9700   30.5320   39.4664 H   0  0  0  0  0  0  0  0  0  0  0  0
   52.0752   30.5565   41.6607 H   0  0  0  0  0  0  0  0  0  0  0  0
   51.3976   32.2214   43.3898 H   0  0  0  0  0  0  0  0  0  0  0  0
   49.6006   33.8251   42.8556 H   0  0  0  0  0  0  0  0  0  0  0  0
  1  6  2  0
  2  1  1  0
  3  2  2  0
  3  4  1  0
  4  5  2  0
  5  6  1  0
  5  7  1  0
  7  8  2  0
  8 13  1  0
  8  9  1  0
 10  9  2  0
 11 10  1  0
 12  7  1  0
 12 11  2  0
 14  3  1  0
 15 14  1  0
 16 25  1  0
 16 15  1  0
 17 16  2  0
 18 19  2  0
 18 17  1  0
 19 20  1  0
 20 21  1  0
 20 25  2  0
 21 22  2  0
 22 23  1  0
 24 23  2  0
 25 24  1  0
  1 26  1  0
  2 27  1  0
  9 28  1  0
 10 29  1  0
 11 30  1  0
 13 31  1  0
 13 32  1  0
 14 33  1  0
 14 34  1  0
 15 35  1  0
 15 36  1  0
 18 37  1  0
 21 38  1  0
 22 39  1  0
 23 40  1  0
 24 41  1  0
M  ISO  8  26  14  27  14  28  14  29  14  30  14  33   8  34   8  35   8
M  ISO  6  36   8  37  14  38  14  39  14  40  14  41  14
M  END
>  <minimizedAffinity>  (1) 
-6.93026543

>  <minimizedRMSD>  (1) 
1.63682592

$$$$
