
     RDKit          3D

 35 37  0  0  0  0  0  0  0  0999 V2000
   44.5260   35.9170   44.6080 C   0  0  0  0  0  0  0  0  0  0  0  0
   45.1090   35.9030   43.3300 C   0  0  0  0  0  0  0  0  0  0  0  0
   46.0190   34.9030   43.0400 C   0  0  0  0  0  0  0  0  0  0  0  0
   46.3130   33.9770   44.0020 N   0  0  0  0  0  0  0  0  0  0  0  0
   45.7290   34.0240   45.2240 C   0  0  0  0  0  0  0  0  0  0  0  0
   44.8330   35.0000   45.5240 N   0  0  0  0  0  0  0  0  0  0  0  0
   46.0440   33.0360   46.2410 C   0  0  0  0  0  0  0  0  0  0  0  0
   45.3810   33.0250   47.4550 C   0  0  0  0  0  0  0  0  0  0  0  0
   45.6260   32.1170   48.4610 C   0  0  0  0  0  0  0  0  0  0  0  0
   46.5940   31.2170   48.1480 C   0  0  0  0  0  0  0  0  0  0  0  0
   47.2910   31.1650   46.9700 C   0  0  0  0  0  0  0  0  0  0  0  0
   46.9740   32.1050   46.0450 N   0  0  0  0  0  0  0  0  0  0  0  0
   44.3850   34.0280   47.6610 N   0  0  0  0  0  0  0  0  0  0  0  0
   46.6360   34.8800   41.6980 C   0  0  0  0  0  0  0  0  0  0  0  0
   48.0680   35.2990   41.7220 C   0  0  0  0  0  0  0  0  0  0  0  0
   49.0390   34.2030   41.6140 C   0  0  0  0  0  0  0  0  0  0  0  0
   50.1610   34.1580   42.4180 C   0  0  0  0  0  0  0  0  0  0  0  0
   51.0760   33.1180   42.3100 C   0  0  0  0  0  0  0  0  0  0  0  0
   50.8670   32.1310   41.4020 N   0  0  0  0  0  0  0  0  0  0  0  0
   49.7760   32.1760   40.6210 C   0  0  0  0  0  0  0  0  0  0  0  0
   48.8980   33.1900   40.7380 N   0  0  0  0  0  0  0  0  0  0  0  0
   43.7989   36.7037   44.8581 H   0  0  0  0  0  0  0  0  0  0  0  0
   44.8490   36.6658   42.5813 H   0  0  0  0  0  0  0  0  0  0  0  0
   45.0911   32.1203   49.4222 H   0  0  0  0  0  0  0  0  0  0  0  0
   46.8404   30.4619   48.9090 H   0  0  0  0  0  0  0  0  0  0  0  0
   48.0637   30.4043   46.7847 H   0  0  0  0  0  0  0  0  0  0  0  0
   43.8637   34.0615   48.5487 H   0  0  0  0  0  0  0  0  0  0  0  0
   44.1881   34.7178   46.9218 H   0  0  0  0  0  0  0  0  0  0  0  0
   46.0788   35.5644   41.0414 H   0  0  0  0  0  0  0  0  0  0  0  0
   46.5961   33.8446   41.3287 H   0  0  0  0  0  0  0  0  0  0  0  0
   48.2359   35.9873   40.8805 H   0  0  0  0  0  0  0  0  0  0  0  0
   48.2357   35.7613   42.7059 H   0  0  0  0  0  0  0  0  0  0  0  0
   50.3327   34.9569   43.1544 H   0  0  0  0  0  0  0  0  0  0  0  0
   51.9652   33.0946   42.9571 H   0  0  0  0  0  0  0  0  0  0  0  0
   49.5986   31.3807   39.8820 H   0  0  0  0  0  0  0  0  0  0  0  0
  1  6  2  0
  2  1  1  0
  3  2  2  0
  3  4  1  0
  4  5  2  0
  5  6  1  0
  5  7  1  0
  7  8  2  0
  8 13  1  0
  8  9  1  0
 10  9  2  0
 11 10  1  0
 12  7  1  0
 12 11  2  0
 14 15  1  0
 14  3  1  0
 16 15  1  0
 16 17  2  0
 18 17  1  0
 19 18  2  0
 20 21  2  0
 20 19  1  0
 21 16  1  0
  1 22  1  0
  2 23  1  0
  9 24  1  0
 10 25  1  0
 11 26  1  0
 13 27  1  0
 13 28  1  0
 14 29  1  0
 14 30  1  0
 15 31  1  0
 15 32  1  0
 17 33  1  0
 18 34  1  0
 20 35  1  0
M  ISO  8  22  14  23  14  24  14  25  14  26  14  29   8  30   8  31   8
M  ISO  4  32   8  33  14  34  14  35  14
M  END
>  <minimizedAffinity>  (1) 
-6.81009388

>  <minimizedRMSD>  (1) 
1.43318188

$$$$
