
     RDKit          3D

 34 36  0  0  0  0  0  0  0  0999 V2000
   44.5590   35.8660   44.5800 C   0  0  0  0  0  0  0  0  0  0  0  0
   45.1560   35.8460   43.3170 C   0  0  0  0  0  0  0  0  0  0  0  0
   46.0810   34.8460   43.0490 C   0  0  0  0  0  0  0  0  0  0  0  0
   46.3680   33.9300   44.0230 N   0  0  0  0  0  0  0  0  0  0  0  0
   45.7550   33.9930   45.2460 C   0  0  0  0  0  0  0  0  0  0  0  0
   44.8570   34.9620   45.5090 N   0  0  0  0  0  0  0  0  0  0  0  0
   46.0740   33.0060   46.2570 C   0  0  0  0  0  0  0  0  0  0  0  0
   45.3930   33.0080   47.4730 C   0  0  0  0  0  0  0  0  0  0  0  0
   45.6130   32.1180   48.4850 C   0  0  0  0  0  0  0  0  0  0  0  0
   46.5790   31.2110   48.1900 C   0  0  0  0  0  0  0  0  0  0  0  0
   47.2960   31.1380   47.0240 C   0  0  0  0  0  0  0  0  0  0  0  0
   46.9920   32.0730   46.0890 N   0  0  0  0  0  0  0  0  0  0  0  0
   44.3910   34.0250   47.6580 N   0  0  0  0  0  0  0  0  0  0  0  0
   46.7170   34.8210   41.7110 C   0  0  0  0  0  0  0  0  0  0  0  0
   48.1130   35.3770   41.7400 C   0  0  0  0  0  0  0  0  0  0  0  0
   49.0840   34.3140   41.7600 C   0  0  0  0  0  0  0  0  0  0  0  0
   50.2700   34.1440   42.4380 C   0  0  0  0  0  0  0  0  0  0  0  0
   51.0230   33.0210   42.2800 C   0  0  0  0  0  0  0  0  0  0  0  0
   50.4810   32.0520   41.3610 C   0  0  0  0  0  0  0  0  0  0  0  0
   48.9070   32.8610   40.8020 S   0  0  0  0  0  0  0  0  0  0  0  0
   43.8232   36.6500   44.8122 H   0  0  0  0  0  0  0  0  0  0  0  0
   44.9008   36.5999   42.5578 H   0  0  0  0  0  0  0  0  0  0  0  0
   45.0652   32.1343   49.4388 H   0  0  0  0  0  0  0  0  0  0  0  0
   46.8088   30.4617   48.9618 H   0  0  0  0  0  0  0  0  0  0  0  0
   48.0673   30.3716   46.8573 H   0  0  0  0  0  0  0  0  0  0  0  0
   43.8593   34.0699   48.5390 H   0  0  0  0  0  0  0  0  0  0  0  0
   44.2058   34.7078   46.9094 H   0  0  0  0  0  0  0  0  0  0  0  0
   46.1098   35.4220   41.0180 H   0  0  0  0  0  0  0  0  0  0  0  0
   46.7758   33.7728   41.3826 H   0  0  0  0  0  0  0  0  0  0  0  0
   48.2737   35.9961   40.8451 H   0  0  0  0  0  0  0  0  0  0  0  0
   48.2334   35.9831   42.6501 H   0  0  0  0  0  0  0  0  0  0  0  0
   50.6166   34.9326   43.1221 H   0  0  0  0  0  0  0  0  0  0  0  0
   51.9725   32.8650   42.8130 H   0  0  0  0  0  0  0  0  0  0  0  0
   50.8962   31.0773   41.0651 H   0  0  0  0  0  0  0  0  0  0  0  0
  1  6  2  0
  2  1  1  0
  3  2  2  0
  3  4  1  0
  4  5  2  0
  5  6  1  0
  5  7  1  0
  7  8  2  0
  8 13  1  0
  8  9  1  0
 10  9  2  0
 11 10  1  0
 12  7  1  0
 12 11  2  0
 14 15  1  0
 14  3  1  0
 15 16  1  0
 16 17  2  0
 18 17  1  0
 19 18  2  0
 20 19  1  0
 20 16  1  0
  1 21  1  0
  2 22  1  0
  9 23  1  0
 10 24  1  0
 11 25  1  0
 13 26  1  0
 13 27  1  0
 14 28  1  0
 14 29  1  0
 15 30  1  0
 15 31  1  0
 17 32  1  0
 18 33  1  0
 19 34  1  0
M  ISO  8  21  14  22  14  23  14  24  14  25  14  28   8  29   8  30   8
M  ISO  4  31   8  32  14  33  14  34  14
M  END
>  <minimizedAffinity>  (1) 
-6.71855593

>  <minimizedRMSD>  (1) 
1.8363061

$$$$
