
     RDKit          3D

 32 34  0  0  0  0  0  0  0  0999 V2000
   43.6660   34.4580   41.8940 N   0  0  0  0  0  0  0  0  0  0  0  0
   43.6710   35.5170   41.0300 C   0  0  0  0  0  0  0  0  0  0  0  0
   42.8210   35.2930   40.0200 N   0  0  0  0  0  0  0  0  0  0  0  0
   42.2690   34.0650   40.2560 C   0  0  0  0  0  0  0  0  0  0  0  0
   42.8050   33.5880   41.4020 N   0  0  0  0  0  0  0  0  0  0  0  0
   44.4010   35.2610   44.0410 C   0  0  0  0  0  0  0  0  0  0  0  0
   44.3760   34.2130   43.0930 C   0  0  0  0  0  0  0  0  0  0  0  0
   45.0460   33.0460   43.4190 C   0  0  0  0  0  0  0  0  0  0  0  0
   45.6840   32.9660   44.6160 N   0  0  0  0  0  0  0  0  0  0  0  0
   45.6880   33.9790   45.4940 C   0  0  0  0  0  0  0  0  0  0  0  0
   45.0500   35.1130   45.2000 N   0  0  0  0  0  0  0  0  0  0  0  0
   41.2550   33.4370   39.3510 C   0  0  0  0  0  0  0  0  0  0  0  0
   40.3190   32.5760   40.1430 C   0  0  0  0  0  0  0  0  0  0  0  0
   39.2200   33.4090   40.7380 C   0  0  0  0  0  0  0  0  0  0  0  0
   38.3800   34.0240   39.6720 C   0  0  0  0  0  0  0  0  0  0  0  0
   39.0790   34.2520   38.3630 C   0  0  0  0  0  0  0  0  0  0  0  0
   40.5580   34.4850   38.5130 C   0  0  0  0  0  0  0  0  0  0  0  0
   44.2846   36.4224   41.1474 H   0  0  0  0  0  0  0  0  0  0  0  0
   43.8821   36.2061   43.8232 H   0  0  0  0  0  0  0  0  0  0  0  0
   45.0616   32.1969   42.7199 H   0  0  0  0  0  0  0  0  0  0  0  0
   46.2156   33.8755   46.4536 H   0  0  0  0  0  0  0  0  0  0  0  0
   41.7601   32.7719   38.6351 H   0  0  0  0  0  0  0  0  0  0  0  0
   39.8795   31.8146   39.4819 H   0  0  0  0  0  0  0  0  0  0  0  0
   40.8802   32.0917   40.9557 H   0  0  0  0  0  0  0  0  0  0  0  0
   38.5869   32.7701   41.3713 H   0  0  0  0  0  0  0  0  0  0  0  0
   39.6739   34.2138   41.3348 H   0  0  0  0  0  0  0  0  0  0  0  0
   37.5218   33.3606   39.4891 H   0  0  0  0  0  0  0  0  0  0  0  0
   38.0931   35.0188   40.0436 H   0  0  0  0  0  0  0  0  0  0  0  0
   38.6338   35.1331   37.8778 H   0  0  0  0  0  0  0  0  0  0  0  0
   38.9513   33.3401   37.7613 H   0  0  0  0  0  0  0  0  0  0  0  0
   41.0127   34.4880   37.5114 H   0  0  0  0  0  0  0  0  0  0  0  0
   40.6815   35.4470   39.0320 H   0  0  0  0  0  0  0  0  0  0  0  0
  1  7  1  0
  2  1  1  0
  3  4  1  0
  3  2  2  0
  4  5  2  0
  5  1  1  0
  6 11  2  0
  7  8  2  0
  7  6  1  0
  8  9  1  0
  9 10  2  0
 11 10  1  0
 12 13  1  0
 12  4  1  0
 13 14  1  0
 15 14  1  0
 16 17  1  0
 16 15  1  0
 17 12  1  0
  2 18  1  0
  6 19  1  0
  8 20  1  0
 10 21  1  0
 12 22  1  0
 13 23  1  0
 13 24  1  0
 14 25  1  0
 14 26  1  0
 15 27  1  0
 15 28  1  0
 16 29  1  0
 16 30  1  0
 17 31  1  0
 17 32  1  0
M  ISO  8  18  14  19  14  20  14  21  14  22  13  23  13  24  13  25  13
M  ISO  7  26  13  27  13  28  13  29  13  30  13  31  13  32  13
M  END
>  <minimizedAffinity>  (1) 
-4.9293828

>  <minimizedRMSD>  (1) 
1.99266374

$$$$
