
     RDKit          3D

 34 36  0  0  0  0  0  0  0  0999 V2000
   44.4960   35.9750   44.6130 C   0  0  0  0  0  0  0  0  0  0  0  0
   44.8870   35.8730   43.2830 C   0  0  0  0  0  0  0  0  0  0  0  0
   45.6680   34.8040   42.9220 C   0  0  0  0  0  0  0  0  0  0  0  0
   46.0240   33.8910   43.8780 N   0  0  0  0  0  0  0  0  0  0  0  0
   45.6210   34.0230   45.1760 C   0  0  0  0  0  0  0  0  0  0  0  0
   44.8510   35.0810   45.5290 N   0  0  0  0  0  0  0  0  0  0  0  0
   46.0010   33.0540   46.1840 C   0  0  0  0  0  0  0  0  0  0  0  0
   45.3870   33.0480   47.4220 C   0  0  0  0  0  0  0  0  0  0  0  0
   45.7040   32.1520   48.4220 C   0  0  0  0  0  0  0  0  0  0  0  0
   46.6820   31.2680   48.0810 C   0  0  0  0  0  0  0  0  0  0  0  0
   47.3340   31.2210   46.8610 C   0  0  0  0  0  0  0  0  0  0  0  0
   46.9410   32.1470   45.9600 N   0  0  0  0  0  0  0  0  0  0  0  0
   44.3760   34.0240   47.6630 N   0  0  0  0  0  0  0  0  0  0  0  0
   46.1010   34.6700   41.5030 C   0  0  0  0  0  0  0  0  0  0  0  0
   47.6010   34.7480   41.3660 C   0  0  0  0  0  0  0  0  0  0  0  0
   48.1300   33.9190   40.2620 C   0  0  0  0  0  0  0  0  0  0  0  0
   48.0080   34.1040   38.8960 C   0  0  0  0  0  0  0  0  0  0  0  0
   48.7040   33.0190   38.3550 C   0  0  0  0  0  0  0  0  0  0  0  0
   49.1890   32.2670   39.4060 C   0  0  0  0  0  0  0  0  0  0  0  0
   48.8330   32.8270   40.5370 O   0  0  0  0  0  0  0  0  0  0  0  0
   43.8701   36.8267   44.9179 H   0  0  0  0  0  0  0  0  0  0  0  0
   44.5798   36.6262   42.5425 H   0  0  0  0  0  0  0  0  0  0  0  0
   45.2114   32.1517   49.4055 H   0  0  0  0  0  0  0  0  0  0  0  0
   46.9790   30.5286   48.8394 H   0  0  0  0  0  0  0  0  0  0  0  0
   48.1176   30.4811   46.6407 H   0  0  0  0  0  0  0  0  0  0  0  0
   43.8944   34.0528   48.5730 H   0  0  0  0  0  0  0  0  0  0  0  0
   44.1272   34.7003   46.9271 H   0  0  0  0  0  0  0  0  0  0  0  0
   45.7580   33.6991   41.1161 H   0  0  0  0  0  0  0  0  0  0  0  0
   45.6615   35.5006   40.9312 H   0  0  0  0  0  0  0  0  0  0  0  0
   47.8810   35.7956   41.1814 H   0  0  0  0  0  0  0  0  0  0  0  0
   48.0346   34.3623   42.3005 H   0  0  0  0  0  0  0  0  0  0  0  0
   47.4871   34.9127   38.3626 H   0  0  0  0  0  0  0  0  0  0  0  0
   48.8405   32.8035   37.2850 H   0  0  0  0  0  0  0  0  0  0  0  0
   49.7803   31.3444   39.3100 H   0  0  0  0  0  0  0  0  0  0  0  0
  1  6  2  0
  2  1  1  0
  3  2  2  0
  3  4  1  0
  4  5  2  0
  5  6  1  0
  5  7  1  0
  7  8  2  0
  8 13  1  0
  8  9  1  0
 10  9  2  0
 11 10  1  0
 12  7  1  0
 12 11  2  0
 14  3  1  0
 15 14  1  0
 16 20  1  0
 16 15  1  0
 17 16  2  0
 18 17  1  0
 18 19  2  0
 19 20  1  0
  1 21  1  0
  2 22  1  0
  9 23  1  0
 10 24  1  0
 11 25  1  0
 13 26  1  0
 13 27  1  0
 14 28  1  0
 14 29  1  0
 15 30  1  0
 15 31  1  0
 17 32  1  0
 18 33  1  0
 19 34  1  0
M  ISO  8  21  14  22  14  23  14  24  14  25  14  28   8  29   8  30   8
M  ISO  4  31   8  32  14  33  14  34  14
M  END
>  <minimizedAffinity>  (1) 
-6.10570621

>  <minimizedRMSD>  (1) 
1.22146249

$$$$
