
     RDKit          3D

 33 35  0  0  0  0  0  0  0  0999 V2000
   44.5560   35.8610   44.5820 C   0  0  0  0  0  0  0  0  0  0  0  0
   45.1600   35.8370   43.3160 C   0  0  0  0  0  0  0  0  0  0  0  0
   46.0850   34.8410   43.0480 C   0  0  0  0  0  0  0  0  0  0  0  0
   46.3720   33.9240   44.0260 N   0  0  0  0  0  0  0  0  0  0  0  0
   45.7680   33.9810   45.2370 C   0  0  0  0  0  0  0  0  0  0  0  0
   44.8640   34.9560   45.5000 N   0  0  0  0  0  0  0  0  0  0  0  0
   46.0680   33.0130   46.2690 C   0  0  0  0  0  0  0  0  0  0  0  0
   45.3880   33.0220   47.4810 C   0  0  0  0  0  0  0  0  0  0  0  0
   45.6170   32.1330   48.5070 C   0  0  0  0  0  0  0  0  0  0  0  0
   46.5970   31.2220   48.2170 C   0  0  0  0  0  0  0  0  0  0  0  0
   47.3100   31.1570   47.0410 C   0  0  0  0  0  0  0  0  0  0  0  0
   46.9930   32.0860   46.1060 N   0  0  0  0  0  0  0  0  0  0  0  0
   44.3890   34.0220   47.6600 N   0  0  0  0  0  0  0  0  0  0  0  0
   46.7170   34.8200   41.7160 C   0  0  0  0  0  0  0  0  0  0  0  0
   48.1370   35.3200   41.7530 C   0  0  0  0  0  0  0  0  0  0  0  0
   49.0970   34.2640   41.7420 N   0  0  0  0  0  0  0  0  0  0  0  0
   49.1410   33.0960   41.0780 C   0  0  0  0  0  0  0  0  0  0  0  0
   50.2860   32.4480   41.4270 N   0  0  0  0  0  0  0  0  0  0  0  0
   50.9360   33.2300   42.3040 C   0  0  0  0  0  0  0  0  0  0  0  0
   50.2020   34.3390   42.4920 N   0  0  0  0  0  0  0  0  0  0  0  0
   43.8169   36.6414   44.8159 H   0  0  0  0  0  0  0  0  0  0  0  0
   44.9056   36.5899   42.5554 H   0  0  0  0  0  0  0  0  0  0  0  0
   45.0694   32.1526   49.4608 H   0  0  0  0  0  0  0  0  0  0  0  0
   46.8354   30.4774   48.9907 H   0  0  0  0  0  0  0  0  0  0  0  0
   48.0883   30.3986   46.8707 H   0  0  0  0  0  0  0  0  0  0  0  0
   43.8587   34.0681   48.5418 H   0  0  0  0  0  0  0  0  0  0  0  0
   44.1971   34.6988   46.9076 H   0  0  0  0  0  0  0  0  0  0  0  0
   46.1338   35.4593   41.0369 H   0  0  0  0  0  0  0  0  0  0  0  0
   46.7349   33.7771   41.3667 H   0  0  0  0  0  0  0  0  0  0  0  0
   48.3074   35.9587   40.8738 H   0  0  0  0  0  0  0  0  0  0  0  0
   48.2675   35.8756   42.6934 H   0  0  0  0  0  0  0  0  0  0  0  0
   48.3815   32.7270   40.3731 H   0  0  0  0  0  0  0  0  0  0  0  0
   51.8994   33.0025   42.7837 H   0  0  0  0  0  0  0  0  0  0  0  0
  1  6  2  0
  2  1  1  0
  3  2  2  0
  3  4  1  0
  4  5  2  0
  5  6  1  0
  5  7  1  0
  7  8  2  0
  8 13  1  0
  8  9  1  0
 10  9  2  0
 11 10  1  0
 12  7  1  0
 12 11  2  0
 14 15  1  0
 14  3  1  0
 16 15  1  0
 16 20  1  0
 17 18  2  0
 17 16  1  0
 18 19  1  0
 19 20  2  0
  1 21  1  0
  2 22  1  0
  9 23  1  0
 10 24  1  0
 11 25  1  0
 13 26  1  0
 13 27  1  0
 14 28  1  0
 14 29  1  0
 15 30  1  0
 15 31  1  0
 17 32  1  0
 19 33  1  0
M  ISO  8  21  14  22  14  23  14  24  14  25  14  28   8  29   8  30   8
M  ISO  3  31   8  32  14  33  14
M  END
>  <minimizedAffinity>  (1) 
-6.42805958

>  <minimizedRMSD>  (1) 
0.977433801

$$$$
