
     RDKit          3D

 43 45  0  0  0  0  0  0  0  0999 V2000
   44.4850   35.9400   44.7460 C   0  0  0  0  0  0  0  0  0  0  0  0
   45.0340   35.9770   43.4570 C   0  0  0  0  0  0  0  0  0  0  0  0
   45.9410   34.9960   43.1030 C   0  0  0  0  0  0  0  0  0  0  0  0
   46.2620   34.0340   44.0190 N   0  0  0  0  0  0  0  0  0  0  0  0
   45.7100   34.0240   45.2650 C   0  0  0  0  0  0  0  0  0  0  0  0
   44.8230   34.9860   45.6100 N   0  0  0  0  0  0  0  0  0  0  0  0
   46.0530   33.0020   46.2320 C   0  0  0  0  0  0  0  0  0  0  0  0
   45.4220   32.9430   47.4570 C   0  0  0  0  0  0  0  0  0  0  0  0
   45.6930   31.9950   48.4230 C   0  0  0  0  0  0  0  0  0  0  0  0
   46.6600   31.1080   48.0430 C   0  0  0  0  0  0  0  0  0  0  0  0
   47.3270   31.1090   46.8430 C   0  0  0  0  0  0  0  0  0  0  0  0
   46.9810   32.0850   45.9680 N   0  0  0  0  0  0  0  0  0  0  0  0
   44.4340   33.9310   47.7230 N   0  0  0  0  0  0  0  0  0  0  0  0
   46.5170   35.0400   41.7420 C   0  0  0  0  0  0  0  0  0  0  0  0
   48.0050   35.1490   41.7590 C   0  0  0  0  0  0  0  0  0  0  0  0
   48.6700   34.2990   40.7110 C   0  0  0  0  0  0  0  0  0  0  0  0
   49.0260   32.9660   41.3450 C   0  0  0  0  0  0  0  0  0  0  0  0
   49.7560   32.0820   40.3590 C   0  0  0  0  0  0  0  0  0  0  0  0
   48.8090   31.8560   39.1810 C   0  0  0  0  0  0  0  0  0  0  0  0
   48.5840   33.2120   38.5280 C   0  0  0  0  0  0  0  0  0  0  0  0
   47.8660   34.1590   39.4620 C   0  0  0  0  0  0  0  0  0  0  0  0
   43.7627   36.7125   45.0485 H   0  0  0  0  0  0  0  0  0  0  0  0
   44.7504   36.7664   42.7454 H   0  0  0  0  0  0  0  0  0  0  0  0
   45.1835   31.9576   49.3972 H   0  0  0  0  0  0  0  0  0  0  0  0
   46.9286   30.3217   48.7638 H   0  0  0  0  0  0  0  0  0  0  0  0
   48.0977   30.3610   46.6052 H   0  0  0  0  0  0  0  0  0  0  0  0
   43.9341   33.9300   48.6235 H   0  0  0  0  0  0  0  0  0  0  0  0
   44.2185   34.6474   47.0151 H   0  0  0  0  0  0  0  0  0  0  0  0
   46.1047   35.9110   41.2116 H   0  0  0  0  0  0  0  0  0  0  0  0
   46.2547   34.0994   41.2355 H   0  0  0  0  0  0  0  0  0  0  0  0
   48.2813   36.1994   41.5851 H   0  0  0  0  0  0  0  0  0  0  0  0
   48.3494   34.7901   42.7401 H   0  0  0  0  0  0  0  0  0  0  0  0
   49.5884   34.7994   40.3701 H   0  0  0  0  0  0  0  0  0  0  0  0
   49.6714   33.1425   42.2181 H   0  0  0  0  0  0  0  0  0  0  0  0
   48.0978   32.4616   41.6517 H   0  0  0  0  0  0  0  0  0  0  0  0
   50.6759   32.5777   40.0153 H   0  0  0  0  0  0  0  0  0  0  0  0
   50.0425   31.1268   40.8232 H   0  0  0  0  0  0  0  0  0  0  0  0
   49.2617   31.1594   38.4600 H   0  0  0  0  0  0  0  0  0  0  0  0
   47.8577   31.4191   39.5189 H   0  0  0  0  0  0  0  0  0  0  0  0
   49.5581   33.6455   38.2575 H   0  0  0  0  0  0  0  0  0  0  0  0
   47.9604   33.0674   37.6334 H   0  0  0  0  0  0  0  0  0  0  0  0
   47.7561   35.1418   38.9803 H   0  0  0  0  0  0  0  0  0  0  0  0
   46.8673   33.7648   39.7010 H   0  0  0  0  0  0  0  0  0  0  0  0
  1  6  2  0
  2  1  1  0
  3  2  2  0
  3  4  1  0
  4  5  2  0
  5  6  1  0
  5  7  1  0
  7  8  2  0
  8 13  1  0
  8  9  1  0
 10  9  2  0
 11 10  1  0
 12  7  1  0
 12 11  2  0
 14 15  1  0
 14  3  1  0
 16 17  1  0
 16 15  1  0
 18 17  1  0
 19 18  1  0
 20 19  1  0
 20 21  1  0
 21 16  1  0
  1 22  1  0
  2 23  1  0
  9 24  1  0
 10 25  1  0
 11 26  1  0
 13 27  1  0
 13 28  1  0
 14 29  1  0
 14 30  1  0
 15 31  1  0
 15 32  1  0
 16 33  1  0
 17 34  1  0
 17 35  1  0
 18 36  1  0
 18 37  1  0
 19 38  1  0
 19 39  1  0
 20 40  1  0
 20 41  1  0
 21 42  1  0
 21 43  1  0
M  ISO  8  22  14  23  14  24  14  25  14  26  14  29   8  30   8  31   8
M  ISO  8  32   8  33  13  34  13  35  13  36  13  37  13  38  13  39  13
M  ISO  4  40  13  41  13  42  13  43  13
M  END
>  <minimizedAffinity>  (1) 
-6.4403758

>  <minimizedRMSD>  (1) 
1.38915551

$$$$
