
     RDKit          3D

 34 35  0  0  0  0  0  0  0  0999 V2000
   44.6190   35.9930   44.4710 C   0  0  0  0  0  0  0  0  0  0  0  0
   45.0820   35.8930   43.1430 C   0  0  0  0  0  0  0  0  0  0  0  0
   45.8830   34.8200   42.8200 C   0  0  0  0  0  0  0  0  0  0  0  0
   46.1960   33.9040   43.7800 N   0  0  0  0  0  0  0  0  0  0  0  0
   45.7250   34.0360   45.0630 C   0  0  0  0  0  0  0  0  0  0  0  0
   44.9420   35.0820   45.3850 N   0  0  0  0  0  0  0  0  0  0  0  0
   46.0590   33.0540   46.0670 C   0  0  0  0  0  0  0  0  0  0  0  0
   45.4250   33.0600   47.3040 C   0  0  0  0  0  0  0  0  0  0  0  0
   45.6790   32.1570   48.3090 C   0  0  0  0  0  0  0  0  0  0  0  0
   46.6290   31.2390   47.9730 C   0  0  0  0  0  0  0  0  0  0  0  0
   47.3070   31.1640   46.7660 C   0  0  0  0  0  0  0  0  0  0  0  0
   46.9710   32.1060   45.8590 N   0  0  0  0  0  0  0  0  0  0  0  0
   44.4500   34.0820   47.5250 N   0  0  0  0  0  0  0  0  0  0  0  0
   46.3540   34.7340   41.4330 C   0  0  0  0  0  0  0  0  0  0  0  0
   47.7800   34.2650   41.3240 C   0  0  0  0  0  0  0  0  0  0  0  0
   48.4130   35.0190   40.2500 N   0  0  0  0  0  0  0  0  0  0  0  0
   48.2240   34.5330   38.9070 C   0  0  0  0  0  0  0  0  0  0  0  0
   47.1900   33.8050   38.6930 N   0  0  0  0  0  0  0  0  0  0  0  0
   49.0870   34.7910   37.7870 N   0  0  0  0  0  0  0  0  0  0  0  0
   46.9610   33.4050   37.7660 H   0  0  0  0  0  0  0  0  0  0  0  0
   43.9785   36.8404   44.7567 H   0  0  0  0  0  0  0  0  0  0  0  0
   44.8123   36.6474   42.3893 H   0  0  0  0  0  0  0  0  0  0  0  0
   45.1686   32.1736   49.2833 H   0  0  0  0  0  0  0  0  0  0  0  0
   46.8821   30.4849   48.7328 H   0  0  0  0  0  0  0  0  0  0  0  0
   48.0642   30.3926   46.5620 H   0  0  0  0  0  0  0  0  0  0  0  0
   43.9508   34.1316   48.4245 H   0  0  0  0  0  0  0  0  0  0  0  0
   44.2468   34.7687   46.7847 H   0  0  0  0  0  0  0  0  0  0  0  0
   45.7103   34.0284   40.8874 H   0  0  0  0  0  0  0  0  0  0  0  0
   46.3073   35.7468   41.0063 H   0  0  0  0  0  0  0  0  0  0  0  0
   48.3080   34.4475   42.2716 H   0  0  0  0  0  0  0  0  0  0  0  0
   47.8158   33.1865   41.1108 H   0  0  0  0  0  0  0  0  0  0  0  0
   48.9714   35.8628   40.4425 H   0  0  0  0  0  0  0  0  0  0  0  0
   48.8632   34.3956   36.8626 H   0  0  0  0  0  0  0  0  0  0  0  0
   49.9292   35.3713   37.9088 H   0  0  0  0  0  0  0  0  0  0  0  0
  1  6  2  0
  2  1  1  0
  3  2  2  0
  3  4  1  0
  4  5  2  0
  5  6  1  0
  5  7  1  0
  7  8  2  0
  8 13  1  0
  8  9  1  0
 10  9  2  0
 11 10  1  0
 12  7  1  0
 12 11  2  0
 14  3  1  0
 15 14  1  0
 16 15  1  0
 17 16  1  0
 18 17  2  0
 19 17  1  0
 20 18  1  0
  1 21  1  0
  2 22  1  0
  9 23  1  0
 10 24  1  0
 11 25  1  0
 13 26  1  0
 13 27  1  0
 14 28  1  0
 14 29  1  0
 15 30  1  0
 15 31  1  0
 16 32  1  0
 19 33  1  0
 19 34  1  0
M  ISO  8  21  14  22  14  23  14  24  14  25  14  28   8  29   8  30   8
M  ISO  1  31   8
M  END
>  <minimizedAffinity>  (1) 
-6.44949198

>  <minimizedRMSD>  (1) 
0.634955108

$$$$
