
     RDKit          3D

 26 28  0  0  0  0  0  0  0  0999 V2000
   44.0330   34.2520   42.3960 N   0  0  0  0  0  0  0  0  0  0  0  0
   43.9430   35.5670   42.0460 C   0  0  0  0  0  0  0  0  0  0  0  0
   43.0100   35.7240   41.1010 N   0  0  0  0  0  0  0  0  0  0  0  0
   42.5030   34.4790   40.8530 C   0  0  0  0  0  0  0  0  0  0  0  0
   43.1510   33.6130   41.6590 N   0  0  0  0  0  0  0  0  0  0  0  0
   41.4800   34.0300   39.9410 N   0  0  0  0  0  0  0  0  0  0  0  0
   41.4760   32.7430   39.5500 C   0  0  0  0  0  0  0  0  0  0  0  0
   40.4920   32.3400   38.6820 C   0  0  0  0  0  0  0  0  0  0  0  0
   39.5690   33.2920   38.2660 C   0  0  0  0  0  0  0  0  0  0  0  0
   38.6930   32.8660   37.4730 O   0  0  0  0  0  0  0  0  0  0  0  0
   39.6330   34.5640   38.6970 N   0  0  0  0  0  0  0  0  0  0  0  0
   40.6040   34.9790   39.5610 C   0  0  0  0  0  0  0  0  0  0  0  0
   40.6350   36.1560   39.9370 O   0  0  0  0  0  0  0  0  0  0  0  0
   45.2150   34.3210   44.4940 C   0  0  0  0  0  0  0  0  0  0  0  0
   44.8640   33.6030   43.3370 C   0  0  0  0  0  0  0  0  0  0  0  0
   45.3600   32.3110   43.2100 C   0  0  0  0  0  0  0  0  0  0  0  0
   46.1500   31.7930   44.1850 N   0  0  0  0  0  0  0  0  0  0  0  0
   46.4660   32.5240   45.2880 C   0  0  0  0  0  0  0  0  0  0  0  0
   45.9970   33.7670   45.4240 N   0  0  0  0  0  0  0  0  0  0  0  0
   44.5481   36.3782   42.4771 H   0  0  0  0  0  0  0  0  0  0  0  0
   42.2365   32.0365   39.9140 H   0  0  0  0  0  0  0  0  0  0  0  0
   40.4360   31.3000   38.3281 H   0  0  0  0  0  0  0  0  0  0  0  0
   38.9315   35.2420   38.3667 H   0  0  0  0  0  0  0  0  0  0  0  0
   44.8427   35.3466   44.6340 H   0  0  0  0  0  0  0  0  0  0  0  0
   45.1133   31.7100   42.3223 H   0  0  0  0  0  0  0  0  0  0  0  0
   47.1085   32.0907   46.0687 H   0  0  0  0  0  0  0  0  0  0  0  0
  1 15  1  0
  2  1  1  0
  3  2  2  0
  4  3  1  0
  4  5  2  0
  5  1  1  0
  6  4  1  0
  7  6  1  0
  8  7  2  0
  9  8  1  0
  9 11  1  0
 10  9  2  0
 11 12  1  0
 12 13  2  0
 12  6  1  0
 14 19  2  0
 15 14  1  0
 16 15  2  0
 16 17  1  0
 17 18  2  0
 18 19  1  0
  2 20  1  0
  7 21  1  0
  8 22  1  0
 11 23  1  0
 14 24  1  0
 16 25  1  0
 18 26  1  0
M  ISO  7  20  14  21  14  22  14  23   9  24  14  25  14  26  14
M  END
>  <minimizedAffinity>  (1) 
-4.7990818

>  <minimizedRMSD>  (1) 
2.70461011

$$$$
