
     RDKit          3D

 35 37  0  0  0  0  0  0  0  0999 V2000
   44.5780   35.7990   44.5610 C   0  0  0  0  0  0  0  0  0  0  0  0
   45.1580   35.7090   43.2810 C   0  0  0  0  0  0  0  0  0  0  0  0
   46.0500   34.6960   43.0340 C   0  0  0  0  0  0  0  0  0  0  0  0
   46.3330   33.8250   44.0370 N   0  0  0  0  0  0  0  0  0  0  0  0
   45.7660   33.9210   45.2670 C   0  0  0  0  0  0  0  0  0  0  0  0
   44.8790   34.9240   45.5200 N   0  0  0  0  0  0  0  0  0  0  0  0
   46.0820   32.9830   46.3150 C   0  0  0  0  0  0  0  0  0  0  0  0
   45.3940   33.0190   47.5220 C   0  0  0  0  0  0  0  0  0  0  0  0
   45.6500   32.1440   48.5730 C   0  0  0  0  0  0  0  0  0  0  0  0
   46.6380   31.2470   48.3090 C   0  0  0  0  0  0  0  0  0  0  0  0
   47.3550   31.1630   47.1320 C   0  0  0  0  0  0  0  0  0  0  0  0
   47.0270   32.0590   46.1770 N   0  0  0  0  0  0  0  0  0  0  0  0
   44.3810   34.0020   47.6830 N   0  0  0  0  0  0  0  0  0  0  0  0
   46.6640   34.5970   41.6920 C   0  0  0  0  0  0  0  0  0  0  0  0
   47.9760   35.3520   41.6130 C   0  0  0  0  0  0  0  0  0  0  0  0
   49.1430   34.4630   41.7780 C   0  0  0  0  0  0  0  0  0  0  0  0
   50.1330   34.7330   42.6270 N   0  0  0  0  0  0  0  0  0  0  0  0
   51.0060   33.7850   42.5550 O   0  0  0  0  0  0  0  0  0  0  0  0
   50.6320   32.8800   41.6780 C   0  0  0  0  0  0  0  0  0  0  0  0
   49.4550   33.3070   41.1870 N   0  0  0  0  0  0  0  0  0  0  0  0
   51.3910   31.6790   41.3560 C   0  0  0  0  0  0  0  0  0  0  0  0
   50.9120   30.5660   41.6240 O   0  0  0  0  0  0  0  0  0  0  0  0
   52.6450   31.8800   40.7490 O   0  0  0  0  0  0  0  0  0  0  0  0
   43.8626   36.6072   44.7734 H   0  0  0  0  0  0  0  0  0  0  0  0
   44.9014   36.4354   42.4958 H   0  0  0  0  0  0  0  0  0  0  0  0
   45.1046   32.1747   49.5278 H   0  0  0  0  0  0  0  0  0  0  0  0
   46.8873   30.5263   49.1017 H   0  0  0  0  0  0  0  0  0  0  0  0
   48.1448   30.4123   46.9817 H   0  0  0  0  0  0  0  0  0  0  0  0
   43.8518   34.0565   48.5650 H   0  0  0  0  0  0  0  0  0  0  0  0
   44.1758   34.6602   46.9178 H   0  0  0  0  0  0  0  0  0  0  0  0
   46.8494   33.5372   41.4632 H   0  0  0  0  0  0  0  0  0  0  0  0
   45.9694   35.0442   40.9657 H   0  0  0  0  0  0  0  0  0  0  0  0
   48.0423   35.8449   40.6318 H   0  0  0  0  0  0  0  0  0  0  0  0
   47.9926   36.0859   42.4322 H   0  0  0  0  0  0  0  0  0  0  0  0
   52.9640   32.7988   40.5643 H   0  0  0  0  0  0  0  0  0  0  0  0
  1  6  2  0
  2  1  1  0
  3  2  2  0
  3  4  1  0
  4  5  2  0
  5  6  1  0
  5  7  1  0
  7  8  2  0
  8 13  1  0
  8  9  1  0
 10  9  2  0
 11 10  1  0
 12  7  1  0
 12 11  2  0
 14  3  1  0
 15 14  1  0
 15 16  1  0
 16 17  2  0
 18 17  1  0
 19 18  1  0
 20 19  2  0
 20 16  1  0
 21 22  2  0
 21 19  1  0
 23 21  1  0
  1 24  1  0
  2 25  1  0
  9 26  1  0
 10 27  1  0
 11 28  1  0
 13 29  1  0
 13 30  1  0
 14 31  1  0
 14 32  1  0
 15 33  1  0
 15 34  1  0
 23 35  1  0
M  ISO  8  24  14  25  14  26  14  27  14  28  14  31   8  32   8  33   8
M  ISO  2  34   8  35   3
M  END
>  <minimizedAffinity>  (1) 
-6.9132762

>  <minimizedRMSD>  (1) 
0.630878687

$$$$
