
     RDKit          3D

 34 36  0  0  0  0  0  0  0  0999 V2000
   44.5710   35.8420   44.5430 C   0  0  0  0  0  0  0  0  0  0  0  0
   45.1880   35.8110   43.2890 C   0  0  0  0  0  0  0  0  0  0  0  0
   46.1100   34.8280   43.0480 C   0  0  0  0  0  0  0  0  0  0  0  0
   46.3800   33.9310   44.0370 N   0  0  0  0  0  0  0  0  0  0  0  0
   45.7720   33.9780   45.2460 C   0  0  0  0  0  0  0  0  0  0  0  0
   44.8590   34.9500   45.4880 N   0  0  0  0  0  0  0  0  0  0  0  0
   46.0710   33.0220   46.2920 C   0  0  0  0  0  0  0  0  0  0  0  0
   45.3830   33.0560   47.4900 C   0  0  0  0  0  0  0  0  0  0  0  0
   45.6450   32.1620   48.5240 C   0  0  0  0  0  0  0  0  0  0  0  0
   46.6200   31.2720   48.2490 C   0  0  0  0  0  0  0  0  0  0  0  0
   47.3410   31.1830   47.0860 C   0  0  0  0  0  0  0  0  0  0  0  0
   47.0040   32.1000   46.1500 N   0  0  0  0  0  0  0  0  0  0  0  0
   44.3760   34.0330   47.6590 N   0  0  0  0  0  0  0  0  0  0  0  0
   46.7710   34.7850   41.7220 C   0  0  0  0  0  0  0  0  0  0  0  0
   48.1510   35.3890   41.7510 C   0  0  0  0  0  0  0  0  0  0  0  0
   49.2160   34.3710   41.8190 C   0  0  0  0  0  0  0  0  0  0  0  0
   50.3200   34.5300   42.5430 N   0  0  0  0  0  0  0  0  0  0  0  0
   51.0620   33.4850   42.4110 O   0  0  0  0  0  0  0  0  0  0  0  0
   50.4760   32.6130   41.6030 C   0  0  0  0  0  0  0  0  0  0  0  0
   49.3110   33.1720   41.2300 N   0  0  0  0  0  0  0  0  0  0  0  0
   50.7870   31.3300   41.0920 N   0  0  0  0  0  0  0  0  0  0  0  0
   43.8275   36.6246   44.7545 H   0  0  0  0  0  0  0  0  0  0  0  0
   44.9398   36.5552   42.5179 H   0  0  0  0  0  0  0  0  0  0  0  0
   45.1041   32.1799   49.4817 H   0  0  0  0  0  0  0  0  0  0  0  0
   46.8614   30.5438   49.0373 H   0  0  0  0  0  0  0  0  0  0  0  0
   48.1269   30.4298   46.9275 H   0  0  0  0  0  0  0  0  0  0  0  0
   43.8477   34.0807   48.5419 H   0  0  0  0  0  0  0  0  0  0  0  0
   44.1703   34.6974   46.8992 H   0  0  0  0  0  0  0  0  0  0  0  0
   46.1554   35.3437   41.0016 H   0  0  0  0  0  0  0  0  0  0  0  0
   46.8719   33.7292   41.4304 H   0  0  0  0  0  0  0  0  0  0  0  0
   48.2930   35.9865   40.8384 H   0  0  0  0  0  0  0  0  0  0  0  0
   48.2241   36.0077   42.6575 H   0  0  0  0  0  0  0  0  0  0  0  0
   50.1296   30.8554   40.4567 H   0  0  0  0  0  0  0  0  0  0  0  0
   51.6707   30.8710   41.3555 H   0  0  0  0  0  0  0  0  0  0  0  0
  1  6  2  0
  2  1  1  0
  3  2  2  0
  3  4  1  0
  4  5  2  0
  5  6  1  0
  5  7  1  0
  7  8  2  0
  8 13  1  0
  8  9  1  0
 10  9  2  0
 11 10  1  0
 12  7  1  0
 12 11  2  0
 14 15  1  0
 14  3  1  0
 15 16  1  0
 16 17  2  0
 18 17  1  0
 19 18  1  0
 20 19  2  0
 20 16  1  0
 21 19  1  0
  1 22  1  0
  2 23  1  0
  9 24  1  0
 10 25  1  0
 11 26  1  0
 13 27  1  0
 13 28  1  0
 14 29  1  0
 14 30  1  0
 15 31  1  0
 15 32  1  0
 21 33  1  0
 21 34  1  0
M  ISO  8  22  14  23  14  24  14  25  14  26  14  29   8  30   8  31   8
M  ISO  1  32   8
M  END
>  <minimizedAffinity>  (1) 
-6.74536848

>  <minimizedRMSD>  (1) 
0.0386867598

$$$$
