
     RDKit          3D

 28 29  0  0  0  0  0  0  0  0999 V2000
   43.7260   34.3060   41.2020 N   0  0  0  0  0  0  0  0  0  0  0  0
   44.1880   33.7710   40.0520 C   0  0  0  0  0  0  0  0  0  0  0  0
   43.3100   33.9980   39.0600 N   0  0  0  0  0  0  0  0  0  0  0  0
   42.2840   34.6850   39.6040 C   0  0  0  0  0  0  0  0  0  0  0  0
   42.5720   34.8540   40.9060 N   0  0  0  0  0  0  0  0  0  0  0  0
   44.2170   35.5420   43.2190 C   0  0  0  0  0  0  0  0  0  0  0  0
   44.2830   34.3330   42.5150 C   0  0  0  0  0  0  0  0  0  0  0  0
   44.8860   33.2300   43.1400 C   0  0  0  0  0  0  0  0  0  0  0  0
   45.3760   33.3960   44.3940 N   0  0  0  0  0  0  0  0  0  0  0  0
   45.2990   34.5690   45.0420 C   0  0  0  0  0  0  0  0  0  0  0  0
   44.7240   35.6150   44.4450 N   0  0  0  0  0  0  0  0  0  0  0  0
   41.0310   35.2120   39.0100 C   0  0  0  0  0  0  0  0  0  0  0  0
   40.1260   34.0780   38.5650 C   0  0  0  0  0  0  0  0  0  0  0  0
   40.3270   36.0460   40.0630 C   0  0  0  0  0  0  0  0  0  0  0  0
   41.3480   36.0640   37.8240 C   0  0  0  0  0  0  0  0  0  0  0  0
   45.1399   33.2305   39.9431 H   0  0  0  0  0  0  0  0  0  0  0  0
   43.7486   36.4251   42.7600 H   0  0  0  0  0  0  0  0  0  0  0  0
   44.9590   32.2593   42.6277 H   0  0  0  0  0  0  0  0  0  0  0  0
   45.7072   34.6675   46.0587 H   0  0  0  0  0  0  0  0  0  0  0  0
   39.7176   33.5663   39.4490 H   0  0  0  0  0  0  0  0  0  0  0  0
   39.3002   34.4831   37.9617 H   0  0  0  0  0  0  0  0  0  0  0  0
   40.7042   33.3626   37.9617 H   0  0  0  0  0  0  0  0  0  0  0  0
   40.6213   35.6974   41.0639 H   0  0  0  0  0  0  0  0  0  0  0  0
   40.6109   37.1021   39.9444 H   0  0  0  0  0  0  0  0  0  0  0  0
   39.2382   35.9434   39.9444 H   0  0  0  0  0  0  0  0  0  0  0  0
   41.7128   37.0445   38.1639 H   0  0  0  0  0  0  0  0  0  0  0  0
   42.1240   35.5741   37.2175 H   0  0  0  0  0  0  0  0  0  0  0  0
   40.4405   36.2005   37.2175 H   0  0  0  0  0  0  0  0  0  0  0  0
  1  7  1  0
  2  1  1  0
  3  4  1  0
  3  2  2  0
  4  5  2  0
  5  1  1  0
  6 11  2  0
  7  8  2  0
  7  6  1  0
  8  9  1  0
  9 10  2  0
 11 10  1  0
 12  4  1  0
 12 14  1  0
 13 12  1  0
 15 12  1  0
  2 16  1  0
  6 17  1  0
  8 18  1  0
 10 19  1  0
 13 20  1  0
 13 21  1  0
 13 22  1  0
 14 23  1  0
 14 24  1  0
 14 25  1  0
 15 26  1  0
 15 27  1  0
 15 28  1  0
M  ISO  8  16  14  17  14  18  14  19  14  20   8  21   8  22   8  23   8
M  ISO  5  24   8  25   8  26   8  27   8  28   8
M  END
>  <minimizedAffinity>  (1) 
-4.59763861

>  <minimizedRMSD>  (1) 
2.5002718

$$$$
