
     RDKit          3D

 46 50  0  0  0  0  0  0  0  0999 V2000
   46.6730   34.6610   41.6730 C   0  0  0  0  0  0  0  0  0  0  0  0
   44.5800   35.8530   44.5570 C   0  0  0  0  0  0  0  0  0  0  0  0
   45.1620   35.7730   43.2760 C   0  0  0  0  0  0  0  0  0  0  0  0
   46.0480   34.7640   43.0140 C   0  0  0  0  0  0  0  0  0  0  0  0
   46.3270   33.8770   44.0100 N   0  0  0  0  0  0  0  0  0  0  0  0
   45.7600   33.9590   45.2480 C   0  0  0  0  0  0  0  0  0  0  0  0
   44.8740   34.9710   45.5060 N   0  0  0  0  0  0  0  0  0  0  0  0
   46.0720   33.0080   46.2850 C   0  0  0  0  0  0  0  0  0  0  0  0
   45.3750   33.0470   47.4970 C   0  0  0  0  0  0  0  0  0  0  0  0
   45.6300   32.1520   48.5430 C   0  0  0  0  0  0  0  0  0  0  0  0
   46.6070   31.2630   48.2550 C   0  0  0  0  0  0  0  0  0  0  0  0
   47.3330   31.1740   47.0780 C   0  0  0  0  0  0  0  0  0  0  0  0
   47.0040   32.0870   46.1390 N   0  0  0  0  0  0  0  0  0  0  0  0
   44.3770   34.0370   47.6480 N   0  0  0  0  0  0  0  0  0  0  0  0
   48.0440   35.2970   41.6360 C   0  0  0  0  0  0  0  0  0  0  0  0
   49.1240   34.3350   41.9540 C   0  0  0  0  0  0  0  0  0  0  0  0
   50.3090   34.6980   42.4520 N   0  0  0  0  0  0  0  0  0  0  0  0
   51.0250   33.6330   42.6170 O   0  0  0  0  0  0  0  0  0  0  0  0
   50.3410   32.5780   42.2410 C   0  0  0  0  0  0  0  0  0  0  0  0
   49.1320   32.9990   41.8160 N   0  0  0  0  0  0  0  0  0  0  0  0
   50.9260   31.2800   42.3320 N   0  0  0  0  0  0  0  0  0  0  0  0
   50.8610   30.3010   43.2420 N   0  0  0  0  0  0  0  0  0  0  0  0
   51.6130   29.2600   42.8450 C   0  0  0  0  0  0  0  0  0  0  0  0
   52.1800   29.5980   41.6250 C   0  0  0  0  0  0  0  0  0  0  0  0
   51.7220   30.8780   41.3370 C   0  0  0  0  0  0  0  0  0  0  0  0
   52.1420   31.5650   40.0770 C   0  0  0  0  0  0  0  0  0  0  0  0
   53.3390   31.1490   39.3480 C   0  0  0  0  0  0  0  0  0  0  0  0
   51.9720   30.6870   38.8430 C   0  0  0  0  0  0  0  0  0  0  0  0
   46.7674   33.5981   41.4060 H   0  0  0  0  0  0  0  0  0  0  0  0
   46.0313   35.1959   40.9574 H   0  0  0  0  0  0  0  0  0  0  0  0
   43.8677   36.6623   44.7756 H   0  0  0  0  0  0  0  0  0  0  0  0
   44.9081   36.5097   42.4996 H   0  0  0  0  0  0  0  0  0  0  0  0
   45.0905   32.1703   49.5014 H   0  0  0  0  0  0  0  0  0  0  0  0
   46.8520   30.5317   49.0393 H   0  0  0  0  0  0  0  0  0  0  0  0
   48.1166   30.4182   46.9208 H   0  0  0  0  0  0  0  0  0  0  0  0
   43.8414   34.0987   48.5256 H   0  0  0  0  0  0  0  0  0  0  0  0
   44.1856   34.6966   46.8804 H   0  0  0  0  0  0  0  0  0  0  0  0
   48.2179   35.7021   40.6282 H   0  0  0  0  0  0  0  0  0  0  0  0
   48.0660   36.0887   42.3994 H   0  0  0  0  0  0  0  0  0  0  0  0
   51.7531   28.3137   43.3880 H   0  0  0  0  0  0  0  0  0  0  0  0
   52.8531   28.9804   41.0122 H   0  0  0  0  0  0  0  0  0  0  0  0
   51.8215   32.5573   40.4271 H   0  0  0  0  0  0  0  0  0  0  0  0
   53.9129   31.8896   38.7716 H   0  0  0  0  0  0  0  0  0  0  0  0
   54.2713   30.6359   39.6264 H   0  0  0  0  0  0  0  0  0  0  0  0
   51.5501   31.1033   37.9164 H   0  0  0  0  0  0  0  0  0  0  0  0
   51.4946   29.7227   38.6146 H   0  0  0  0  0  0  0  0  0  0  0  0
  1  4  1  0
  2  7  2  0
  3  2  1  0
  4  3  2  0
  4  5  1  0
  5  6  2  0
  6  7  1  0
  6  8  1  0
  8  9  2  0
  9 14  1  0
  9 10  1  0
 11 10  2  0
 12 11  1  0
 13  8  1  0
 13 12  2  0
 15  1  1  0
 15 16  1  0
 16 17  2  0
 17 18  1  0
 19 21  1  0
 19 18  1  0
 20 16  1  0
 20 19  2  0
 21 22  1  0
 23 22  2  0
 24 23  1  0
 25 24  2  0
 25 21  1  0
 26 25  1  0
 27 26  1  0
 28 27  1  0
 28 26  1  0
  1 29  1  0
  1 30  1  0
  2 31  1  0
  3 32  1  0
 10 33  1  0
 11 34  1  0
 12 35  1  0
 14 36  1  0
 14 37  1  0
 15 38  1  0
 15 39  1  0
 23 40  1  0
 24 41  1  0
 26 42  1  0
 27 43  1  0
 27 44  1  0
 28 45  1  0
 28 46  1  0
M  ISO  8  29   8  30   8  31  14  32  14  33  14  34  14  35  14  38   8
M  ISO  8  39   8  40  14  41  14  42  13  43  13  44  13  45  13  46  13
M  END
>  <minimizedAffinity>  (1) 
-7.20034885

>  <minimizedRMSD>  (1) 
0.836087346

$$$$
