
     RDKit          3D

 48 51  0  0  0  0  0  0  0  0999 V2000
   46.7140   34.7600   41.6950 C   0  0  0  0  0  0  0  0  0  0  0  0
   44.5750   35.8700   44.5680 C   0  0  0  0  0  0  0  0  0  0  0  0
   45.1700   35.8260   43.2980 C   0  0  0  0  0  0  0  0  0  0  0  0
   46.0710   34.8240   43.0330 C   0  0  0  0  0  0  0  0  0  0  0  0
   46.3470   33.9180   44.0150 N   0  0  0  0  0  0  0  0  0  0  0  0
   45.7570   33.9780   45.2410 C   0  0  0  0  0  0  0  0  0  0  0  0
   44.8650   34.9690   45.5060 N   0  0  0  0  0  0  0  0  0  0  0  0
   46.0640   33.0100   46.2620 C   0  0  0  0  0  0  0  0  0  0  0  0
   45.3730   33.0390   47.4720 C   0  0  0  0  0  0  0  0  0  0  0  0
   45.6140   32.1380   48.5030 C   0  0  0  0  0  0  0  0  0  0  0  0
   46.5930   31.2210   48.2180 C   0  0  0  0  0  0  0  0  0  0  0  0
   47.3010   31.1580   47.0310 C   0  0  0  0  0  0  0  0  0  0  0  0
   46.9870   32.0760   46.1030 N   0  0  0  0  0  0  0  0  0  0  0  0
   44.3830   34.0320   47.6560 N   0  0  0  0  0  0  0  0  0  0  0  0
   48.1010   35.3640   41.7130 C   0  0  0  0  0  0  0  0  0  0  0  0
   49.1530   34.3580   41.9910 C   0  0  0  0  0  0  0  0  0  0  0  0
   50.3610   34.6720   42.4530 N   0  0  0  0  0  0  0  0  0  0  0  0
   51.0410   33.5790   42.5890 O   0  0  0  0  0  0  0  0  0  0  0  0
   50.3130   32.5540   42.2270 C   0  0  0  0  0  0  0  0  0  0  0  0
   49.1100   33.0230   41.8430 N   0  0  0  0  0  0  0  0  0  0  0  0
   50.8550   31.2250   42.2900 N   0  0  0  0  0  0  0  0  0  0  0  0
   50.7770   30.2530   43.1850 N   0  0  0  0  0  0  0  0  0  0  0  0
   51.4690   29.1810   42.7800 C   0  0  0  0  0  0  0  0  0  0  0  0
   52.0140   29.5040   41.5520 C   0  0  0  0  0  0  0  0  0  0  0  0
   51.6120   30.8230   41.2480 C   0  0  0  0  0  0  0  0  0  0  0  0
   52.0100   31.5310   39.9860 C   0  0  0  0  0  0  0  0  0  0  0  0
   53.3960   31.1210   39.5350 C   0  0  0  0  0  0  0  0  0  0  0  0
   50.9840   31.2860   38.8830 C   0  0  0  0  0  0  0  0  0  0  0  0
   46.0935   35.3127   40.9742 H   0  0  0  0  0  0  0  0  0  0  0  0
   46.8036   33.7021   41.4071 H   0  0  0  0  0  0  0  0  0  0  0  0
   43.8519   36.6673   44.7947 H   0  0  0  0  0  0  0  0  0  0  0  0
   44.9207   36.5761   42.5330 H   0  0  0  0  0  0  0  0  0  0  0  0
   45.0698   32.1588   49.4587 H   0  0  0  0  0  0  0  0  0  0  0  0
   46.8340   30.4783   48.9928 H   0  0  0  0  0  0  0  0  0  0  0  0
   48.0775   30.3985   46.8574 H   0  0  0  0  0  0  0  0  0  0  0  0
   43.8568   34.0769   48.5403 H   0  0  0  0  0  0  0  0  0  0  0  0
   44.1882   34.7103   46.9057 H   0  0  0  0  0  0  0  0  0  0  0  0
   48.2998   35.8209   40.7323 H   0  0  0  0  0  0  0  0  0  0  0  0
   48.1305   36.1110   42.5199 H   0  0  0  0  0  0  0  0  0  0  0  0
   51.5817   28.2290   43.3194 H   0  0  0  0  0  0  0  0  0  0  0  0
   52.6442   28.8541   40.9271 H   0  0  0  0  0  0  0  0  0  0  0  0
   52.0363   32.6095   40.2006 H   0  0  0  0  0  0  0  0  0  0  0  0
   54.0279   30.9341   40.4158 H   0  0  0  0  0  0  0  0  0  0  0  0
   53.3288   30.2043   38.9308 H   0  0  0  0  0  0  0  0  0  0  0  0
   53.8383   31.9268   38.9308 H   0  0  0  0  0  0  0  0  0  0  0  0
   50.0085   31.0531   39.3348 H   0  0  0  0  0  0  0  0  0  0  0  0
   50.8934   32.1878   38.2596 H   0  0  0  0  0  0  0  0  0  0  0  0
   51.3106   30.4406   38.2596 H   0  0  0  0  0  0  0  0  0  0  0  0
  1 15  1  0
  1  4  1  0
  2  7  2  0
  3  2  1  0
  4  3  2  0
  4  5  1  0
  5  6  2  0
  6  7  1  0
  6  8  1  0
  8  9  2  0
  9 14  1  0
  9 10  1  0
 11 10  2  0
 12 11  1  0
 13  8  1  0
 13 12  2  0
 15 16  1  0
 16 17  2  0
 17 18  1  0
 19 21  1  0
 19 18  1  0
 20 16  1  0
 20 19  2  0
 21 22  1  0
 23 22  2  0
 24 23  1  0
 25 24  2  0
 25 21  1  0
 26 25  1  0
 27 26  1  0
 28 26  1  0
  1 29  1  0
  1 30  1  0
  2 31  1  0
  3 32  1  0
 10 33  1  0
 11 34  1  0
 12 35  1  0
 14 36  1  0
 14 37  1  0
 15 38  1  0
 15 39  1  0
 23 40  1  0
 24 41  1  0
 26 42  1  0
 27 43  1  0
 27 44  1  0
 27 45  1  0
 28 46  1  0
 28 47  1  0
 28 48  1  0
M  ISO  8  29   8  30   8  31  14  32  14  33  14  34  14  35  14  38   8
M  ISO  8  39   8  40  14  41  14  42   8  43   8  44   8  45   8  46   8
M  ISO  2  47   8  48   8
M  END
>  <minimizedAffinity>  (1) 
-7.24422026

>  <minimizedRMSD>  (1) 
0.785163283

$$$$
