
     RDKit          3D

 45 48  0  0  0  0  0  0  0  0999 V2000
   46.6860   34.7130   41.6920 C   0  0  0  0  0  0  0  0  0  0  0  0
   44.5720   35.8570   44.5750 C   0  0  0  0  0  0  0  0  0  0  0  0
   45.1600   35.7940   43.3040 C   0  0  0  0  0  0  0  0  0  0  0  0
   46.0540   34.7920   43.0380 C   0  0  0  0  0  0  0  0  0  0  0  0
   46.3320   33.8990   44.0280 N   0  0  0  0  0  0  0  0  0  0  0  0
   45.7600   33.9630   45.2590 C   0  0  0  0  0  0  0  0  0  0  0  0
   44.8680   34.9640   45.5210 N   0  0  0  0  0  0  0  0  0  0  0  0
   46.0730   33.0040   46.2880 C   0  0  0  0  0  0  0  0  0  0  0  0
   45.3770   33.0340   47.4990 C   0  0  0  0  0  0  0  0  0  0  0  0
   45.6290   32.1330   48.5410 C   0  0  0  0  0  0  0  0  0  0  0  0
   46.6100   31.2410   48.2450 C   0  0  0  0  0  0  0  0  0  0  0  0
   47.3260   31.1630   47.0740 C   0  0  0  0  0  0  0  0  0  0  0  0
   47.0060   32.0770   46.1380 N   0  0  0  0  0  0  0  0  0  0  0  0
   44.3760   34.0300   47.6610 N   0  0  0  0  0  0  0  0  0  0  0  0
   48.0730   35.3360   41.6890 C   0  0  0  0  0  0  0  0  0  0  0  0
   49.1310   34.3540   41.9760 C   0  0  0  0  0  0  0  0  0  0  0  0
   50.3360   34.6890   42.4350 N   0  0  0  0  0  0  0  0  0  0  0  0
   51.0360   33.6120   42.5860 O   0  0  0  0  0  0  0  0  0  0  0  0
   50.3260   32.5550   42.2380 C   0  0  0  0  0  0  0  0  0  0  0  0
   49.1200   33.0150   41.8510 N   0  0  0  0  0  0  0  0  0  0  0  0
   50.8860   31.2510   42.3190 N   0  0  0  0  0  0  0  0  0  0  0  0
   50.8250   30.2810   43.2240 N   0  0  0  0  0  0  0  0  0  0  0  0
   51.5510   29.2270   42.8060 C   0  0  0  0  0  0  0  0  0  0  0  0
   52.0940   29.5640   41.5720 C   0  0  0  0  0  0  0  0  0  0  0  0
   51.6530   30.8600   41.2860 C   0  0  0  0  0  0  0  0  0  0  0  0
   52.0580   31.5360   40.0170 C   0  0  0  0  0  0  0  0  0  0  0  0
   53.4170   31.0630   39.5530 C   0  0  0  0  0  0  0  0  0  0  0  0
   46.7684   33.6564   41.3975 H   0  0  0  0  0  0  0  0  0  0  0  0
   46.0565   35.2700   40.9824 H   0  0  0  0  0  0  0  0  0  0  0  0
   43.8522   36.6587   44.7968 H   0  0  0  0  0  0  0  0  0  0  0  0
   44.9073   36.5372   42.5334 H   0  0  0  0  0  0  0  0  0  0  0  0
   45.0890   32.1461   49.4992 H   0  0  0  0  0  0  0  0  0  0  0  0
   46.8572   30.5043   49.0235 H   0  0  0  0  0  0  0  0  0  0  0  0
   48.1072   30.4056   46.9125 H   0  0  0  0  0  0  0  0  0  0  0  0
   43.8411   34.0845   48.5395 H   0  0  0  0  0  0  0  0  0  0  0  0
   44.1855   34.6973   46.8998 H   0  0  0  0  0  0  0  0  0  0  0  0
   48.2598   35.7770   40.6987 H   0  0  0  0  0  0  0  0  0  0  0  0
   48.0995   36.0981   42.4818 H   0  0  0  0  0  0  0  0  0  0  0  0
   51.6887   28.2761   43.3416 H   0  0  0  0  0  0  0  0  0  0  0  0
   52.7426   28.9355   40.9441 H   0  0  0  0  0  0  0  0  0  0  0  0
   51.3148   31.3108   39.2379 H   0  0  0  0  0  0  0  0  0  0  0  0
   52.1115   32.6190   40.2019 H   0  0  0  0  0  0  0  0  0  0  0  0
   54.0472   30.8437   40.4275 H   0  0  0  0  0  0  0  0  0  0  0  0
   53.3011   30.1524   38.9469 H   0  0  0  0  0  0  0  0  0  0  0  0
   53.8915   31.8488   38.9469 H   0  0  0  0  0  0  0  0  0  0  0  0
  1  4  1  0
  2  7  2  0
  3  2  1  0
  4  3  2  0
  4  5  1  0
  5  6  2  0
  6  7  1  0
  6  8  1  0
  8  9  2  0
  9 14  1  0
  9 10  1  0
 11 10  2  0
 12 11  1  0
 13  8  1  0
 13 12  2  0
 15  1  1  0
 15 16  1  0
 16 17  2  0
 17 18  1  0
 19 21  1  0
 19 18  1  0
 20 16  1  0
 20 19  2  0
 21 22  1  0
 23 22  2  0
 24 23  1  0
 25 24  2  0
 25 21  1  0
 26 25  1  0
 27 26  1  0
  1 28  1  0
  1 29  1  0
  2 30  1  0
  3 31  1  0
 10 32  1  0
 11 33  1  0
 12 34  1  0
 14 35  1  0
 14 36  1  0
 15 37  1  0
 15 38  1  0
 23 39  1  0
 24 40  1  0
 26 41  1  0
 26 42  1  0
 27 43  1  0
 27 44  1  0
 27 45  1  0
M  ISO  8  28   8  29   8  30  14  31  14  32  14  33  14  34  14  37   8
M  ISO  8  38   8  39  14  40  14  41   8  42   8  43   8  44   8  45   8
M  END
>  <minimizedAffinity>  (1) 
-7.10451269

>  <minimizedRMSD>  (1) 
0.713765562

$$$$
