
     RDKit          3D

 26 27  0  0  0  0  0  0  0  0999 V2000
   50.2640   32.9970   41.8120 C   0  0  0  0  0  0  0  0  0  0  0  0
   50.1910   31.6090   41.5640 C   0  0  0  0  0  0  0  0  0  0  0  0
   49.1130   30.8880   42.1070 C   0  0  0  0  0  0  0  0  0  0  0  0
   48.2000   31.5860   42.8450 N   0  0  0  0  0  0  0  0  0  0  0  0
   48.3050   32.9250   43.0630 C   0  0  0  0  0  0  0  0  0  0  0  0
   49.3260   33.6150   42.5500 N   0  0  0  0  0  0  0  0  0  0  0  0
   47.2670   33.4740   43.8500 N   0  0  0  0  0  0  0  0  0  0  0  0
   47.0450   32.8530   45.0410 C   0  0  0  0  0  0  0  0  0  0  0  0
   46.0450   33.3120   45.8980 C   0  0  0  0  0  0  0  0  0  0  0  0
   45.2930   34.3860   45.5360 C   0  0  0  0  0  0  0  0  0  0  0  0
   44.3850   34.8230   46.2850 O   0  0  0  0  0  0  0  0  0  0  0  0
   45.5330   34.9840   44.3510 N   0  0  0  0  0  0  0  0  0  0  0  0
   46.5020   34.5450   43.5130 C   0  0  0  0  0  0  0  0  0  0  0  0
   46.7560   35.0810   42.3920 O   0  0  0  0  0  0  0  0  0  0  0  0
   45.8310   32.5940   47.2080 C   0  0  0  0  0  0  0  0  0  0  0  0
   44.7560   36.1370   43.9180 C   0  0  0  0  0  0  0  0  0  0  0  0
   43.4090   35.7770   43.8290 F   0  0  0  0  0  0  0  0  0  0  0  0
   44.9190   37.2340   44.7230 F   0  0  0  0  0  0  0  0  0  0  0  0
   45.1210   36.5090   42.6170 F   0  0  0  0  0  0  0  0  0  0  0  0
   51.0990   33.5799   41.3960 H   0  0  0  0  0  0  0  0  0  0  0  0
   50.9593   31.1037   40.9603 H   0  0  0  0  0  0  0  0  0  0  0  0
   49.0091   29.8051   41.9440 H   0  0  0  0  0  0  0  0  0  0  0  0
   47.6570   31.9854   45.3287 H   0  0  0  0  0  0  0  0  0  0  0  0
   46.0361   33.2823   48.0412 H   0  0  0  0  0  0  0  0  0  0  0  0
   44.7897   32.2447   47.2689 H   0  0  0  0  0  0  0  0  0  0  0  0
   46.5112   31.7316   47.2689 H   0  0  0  0  0  0  0  0  0  0  0  0
  1  6  2  0
  2  1  1  0
  2  3  2  0
  3  4  1  0
  4  5  2  0
  5  7  1  0
  6  5  1  0
  7  8  1  0
  8  9  2  0
  9 15  1  0
 10  9  1  0
 10 11  2  0
 12 10  1  0
 13  7  1  0
 13 12  1  0
 14 13  2  0
 16 12  1  0
 16 18  1  0
 17 16  1  0
 19 16  1  0
  1 20  1  0
  2 21  1  0
  3 22  1  0
  8 23  1  0
 15 24  1  0
 15 25  1  0
 15 26  1  0
M  ISO  7  20  14  21  14  22  14  23  14  24   8  25   8  26   8
M  END
>  <minimizedAffinity>  (1) 
-5.63501072

>  <minimizedRMSD>  (1) 
3.95261574

$$$$
