
     RDKit          3D

 29 31  0  0  0  0  0  0  0  0999 V2000
   44.3570   34.2320   42.6160 N   0  0  0  0  0  0  0  0  0  0  0  0
   44.3020   35.5440   42.2320 C   0  0  0  0  0  0  0  0  0  0  0  0
   43.5190   35.6640   41.1510 N   0  0  0  0  0  0  0  0  0  0  0  0
   43.0810   34.4100   40.8530 C   0  0  0  0  0  0  0  0  0  0  0  0
   43.6060   33.5620   41.7580 N   0  0  0  0  0  0  0  0  0  0  0  0
   45.2220   34.3600   44.8680 C   0  0  0  0  0  0  0  0  0  0  0  0
   45.0480   33.6040   43.6920 C   0  0  0  0  0  0  0  0  0  0  0  0
   45.5510   32.3010   43.6440 C   0  0  0  0  0  0  0  0  0  0  0  0
   46.1880   31.8280   44.7450 N   0  0  0  0  0  0  0  0  0  0  0  0
   46.3390   32.5740   45.8510 C   0  0  0  0  0  0  0  0  0  0  0  0
   45.8590   33.8180   45.9000 N   0  0  0  0  0  0  0  0  0  0  0  0
   42.1790   34.0510   39.7190 C   0  0  0  0  0  0  0  0  0  0  0  0
   40.7220   34.2220   40.1200 C   0  0  0  0  0  0  0  0  0  0  0  0
   40.0460   35.0070   39.0240 C   0  0  0  0  0  0  0  0  0  0  0  0
   41.1720   35.7760   38.3390 C   0  0  0  0  0  0  0  0  0  0  0  0
   42.4110   34.8900   38.5140 C   0  0  0  0  0  0  0  0  0  0  0  0
   44.8212   36.3737   42.7339 H   0  0  0  0  0  0  0  0  0  0  0  0
   44.8347   35.3876   44.9309 H   0  0  0  0  0  0  0  0  0  0  0  0
   45.4345   31.6796   42.7439 H   0  0  0  0  0  0  0  0  0  0  0  0
   46.8625   32.1564   46.7236 H   0  0  0  0  0  0  0  0  0  0  0  0
   42.4051   33.0023   39.4758 H   0  0  0  0  0  0  0  0  0  0  0  0
   40.2432   33.2377   40.2287 H   0  0  0  0  0  0  0  0  0  0  0  0
   40.6415   34.7477   41.0829 H   0  0  0  0  0  0  0  0  0  0  0  0
   39.5509   34.3301   38.3122 H   0  0  0  0  0  0  0  0  0  0  0  0
   39.2660   35.6766   39.4153 H   0  0  0  0  0  0  0  0  0  0  0  0
   41.3230   36.7535   38.8204 H   0  0  0  0  0  0  0  0  0  0  0  0
   40.9526   35.9803   37.2806 H   0  0  0  0  0  0  0  0  0  0  0  0
   42.5463   34.2508   37.6291 H   0  0  0  0  0  0  0  0  0  0  0  0
   43.3177   35.5018   38.6304 H   0  0  0  0  0  0  0  0  0  0  0  0
  1  7  1  0
  2  1  1  0
  3  2  2  0
  4  3  1  0
  4  5  2  0
  5  1  1  0
  6 11  2  0
  7  6  1  0
  8  7  2  0
  8  9  1  0
  9 10  2  0
 10 11  1  0
 12 13  1  0
 12  4  1  0
 14 13  1  0
 15 16  1  0
 15 14  1  0
 16 12  1  0
  2 17  1  0
  6 18  1  0
  8 19  1  0
 10 20  1  0
 12 21  1  0
 13 22  1  0
 13 23  1  0
 14 24  1  0
 14 25  1  0
 15 26  1  0
 15 27  1  0
 16 28  1  0
 16 29  1  0
M  ISO  8  17  14  18  14  19  14  20  14  21  13  22  13  23  13  24  13
M  ISO  5  25  13  26  13  27  13  28  13  29  13
M  END
>  <minimizedAffinity>  (1) 
-4.50994158

>  <minimizedRMSD>  (1) 
2.79152369

$$$$
