
     RDKit          3D

 45 48  0  0  0  0  0  0  0  0999 V2000
   50.6430   32.9950   42.0000 C   0  0  0  0  0  0  0  0  0  0  0  0
   50.7000   31.6030   42.1880 C   0  0  0  0  0  0  0  0  0  0  0  0
   49.6070   30.9820   42.7650 C   0  0  0  0  0  0  0  0  0  0  0  0
   48.5300   31.7420   43.1250 N   0  0  0  0  0  0  0  0  0  0  0  0
   48.5090   33.0890   42.9280 C   0  0  0  0  0  0  0  0  0  0  0  0
   49.5550   33.6800   42.3760 N   0  0  0  0  0  0  0  0  0  0  0  0
   47.3220   33.7230   43.3560 N   0  0  0  0  0  0  0  0  0  0  0  0
   46.9270   33.4600   44.6210 C   0  0  0  0  0  0  0  0  0  0  0  0
   45.7740   34.0300   45.1490 C   0  0  0  0  0  0  0  0  0  0  0  0
   45.0280   34.8760   44.3540 C   0  0  0  0  0  0  0  0  0  0  0  0
   43.9880   35.4080   44.7850 O   0  0  0  0  0  0  0  0  0  0  0  0
   45.4510   35.1250   43.0720 N   0  0  0  0  0  0  0  0  0  0  0  0
   46.5680   34.5600   42.5930 C   0  0  0  0  0  0  0  0  0  0  0  0
   46.9810   34.7730   41.4140 O   0  0  0  0  0  0  0  0  0  0  0  0
   45.3640   33.7210   46.5490 C   0  0  0  0  0  0  0  0  0  0  0  0
   44.6510   36.0180   42.2480 C   0  0  0  0  0  0  0  0  0  0  0  0
   43.5570   35.1920   41.6310 C   0  0  0  0  0  0  0  0  0  0  0  0
   42.2570   35.6050   42.0340 N   0  0  0  0  0  0  0  0  0  0  0  0
   41.1230   34.9280   41.4620 C   0  0  0  0  0  0  0  0  0  0  0  0
   40.1850   34.1350   42.1320 C   0  0  0  0  0  0  0  0  0  0  0  0
   39.2670   33.6690   41.2670 N   0  0  0  0  0  0  0  0  0  0  0  0
   39.5610   34.1230   40.0360 C   0  0  0  0  0  0  0  0  0  0  0  0
   38.9650   33.9610   38.7870 C   0  0  0  0  0  0  0  0  0  0  0  0
   39.5410   34.5860   37.6890 C   0  0  0  0  0  0  0  0  0  0  0  0
   40.6850   35.3590   37.8220 C   0  0  0  0  0  0  0  0  0  0  0  0
   41.2770   35.5230   39.0580 C   0  0  0  0  0  0  0  0  0  0  0  0
   40.6970   34.8990   40.1340 C   0  0  0  0  0  0  0  0  0  0  0  0
   51.4933   33.5226   41.5433 H   0  0  0  0  0  0  0  0  0  0  0  0
   51.5862   31.0257   41.8857 H   0  0  0  0  0  0  0  0  0  0  0  0
   49.6048   29.8946   42.9313 H   0  0  0  0  0  0  0  0  0  0  0  0
   47.5287   32.7825   45.2446 H   0  0  0  0  0  0  0  0  0  0  0  0
   46.0408   34.2311   47.2503 H   0  0  0  0  0  0  0  0  0  0  0  0
   44.3338   34.0693   46.7147 H   0  0  0  0  0  0  0  0  0  0  0  0
   45.4150   32.6347   46.7147 H   0  0  0  0  0  0  0  0  0  0  0  0
   44.2167   36.8157   42.8686 H   0  0  0  0  0  0  0  0  0  0  0  0
   45.2691   36.4909   41.4707 H   0  0  0  0  0  0  0  0  0  0  0  0
   43.6996   34.1425   41.9281 H   0  0  0  0  0  0  0  0  0  0  0  0
   43.6210   35.3212   40.5405 H   0  0  0  0  0  0  0  0  0  0  0  0
   42.1307   36.3668   42.7157 H   0  0  0  0  0  0  0  0  0  0  0  0
   40.1968   33.9232   43.2113 H   0  0  0  0  0  0  0  0  0  0  0  0
   38.4693   33.0635   41.5079 H   0  0  0  0  0  0  0  0  0  0  0  0
   38.0570   33.3506   38.6732 H   0  0  0  0  0  0  0  0  0  0  0  0
   39.0821   34.4660   36.6965 H   0  0  0  0  0  0  0  0  0  0  0  0
   41.1230   35.8442   36.9373 H   0  0  0  0  0  0  0  0  0  0  0  0
   42.1840   36.1339   39.1768 H   0  0  0  0  0  0  0  0  0  0  0  0
  1  2  2  0
  1  6  1  0
  2  3  1  0
  3  4  2  0
  5  4  1  0
  5  7  1  0
  6  5  2  0
  7  8  1  0
  8  9  2  0
  9 15  1  0
 10 11  2  0
 10  9  1  0
 12 10  1  0
 13 12  1  0
 13  7  1  0
 14 13  2  0
 16 12  1  0
 17 18  1  0
 17 16  1  0
 19 18  1  0
 19 20  2  0
 21 20  1  0
 22 27  2  0
 22 21  1  0
 23 22  1  0
 24 25  1  0
 24 23  2  0
 25 26  2  0
 26 27  1  0
 27 19  1  0
  1 28  1  0
  2 29  1  0
  3 30  1  0
  8 31  1  0
 15 32  1  0
 15 33  1  0
 15 34  1  0
 16 35  1  0
 16 36  1  0
 17 37  1  0
 17 38  1  0
 18 39  1  0
 20 40  1  0
 21 41  1  0
 23 42  1  0
 24 43  1  0
 25 44  1  0
 26 45  1  0
M  ISO  8  28  14  29  14  30  14  31  14  32   8  33   8  34   8  35   8
M  ISO  8  36   8  37   8  38   8  40  14  41   9  42  14  43  14  44  14
M  ISO  1  45  14
M  END
>  <minimizedAffinity>  (1) 
-7.12909269

>  <minimizedRMSD>  (1) 
1.20470858

$$$$
