
     RDKit          3D

 47 49  0  0  0  0  0  0  0  0999 V2000
   50.8230   32.9180   42.0080 C   0  0  0  0  0  0  0  0  0  0  0  0
   50.7640   31.5210   41.8430 C   0  0  0  0  0  0  0  0  0  0  0  0
   49.6230   30.8750   42.2760 C   0  0  0  0  0  0  0  0  0  0  0  0
   48.6250   31.6190   42.8360 N   0  0  0  0  0  0  0  0  0  0  0  0
   48.7080   32.9680   42.9830 C   0  0  0  0  0  0  0  0  0  0  0  0
   49.8050   33.5760   42.5650 N   0  0  0  0  0  0  0  0  0  0  0  0
   47.5890   33.5670   43.5770 N   0  0  0  0  0  0  0  0  0  0  0  0
   47.1790   33.0410   44.7460 C   0  0  0  0  0  0  0  0  0  0  0  0
   46.0810   33.5470   45.4360 C   0  0  0  0  0  0  0  0  0  0  0  0
   45.4100   34.6220   44.8800 C   0  0  0  0  0  0  0  0  0  0  0  0
   44.4150   35.1110   45.4640 O   0  0  0  0  0  0  0  0  0  0  0  0
   45.8400   35.1460   43.6870 N   0  0  0  0  0  0  0  0  0  0  0  0
   46.9020   34.6280   43.0570 C   0  0  0  0  0  0  0  0  0  0  0  0
   47.3240   35.0880   41.9570 O   0  0  0  0  0  0  0  0  0  0  0  0
   45.6590   32.9370   46.7250 C   0  0  0  0  0  0  0  0  0  0  0  0
   45.1200   36.2600   43.1380 C   0  0  0  0  0  0  0  0  0  0  0  0
   44.2200   35.7550   42.0500 C   0  0  0  0  0  0  0  0  0  0  0  0
   42.9210   35.3680   42.5090 N   0  0  0  0  0  0  0  0  0  0  0  0
   42.0990   34.8220   41.4510 C   0  0  0  0  0  0  0  0  0  0  0  0
   42.7590   35.1420   40.1530 C   0  0  0  0  0  0  0  0  0  0  0  0
   41.8760   35.1540   38.9550 C   0  0  0  0  0  0  0  0  0  0  0  0
   40.4070   35.2870   39.2420 C   0  0  0  0  0  0  0  0  0  0  0  0
   40.2160   36.1650   40.4480 C   0  0  0  0  0  0  0  0  0  0  0  0
   40.7260   35.3810   41.6320 C   0  0  0  0  0  0  0  0  0  0  0  0
   51.7142   33.4704   41.6755 H   0  0  0  0  0  0  0  0  0  0  0  0
   51.5959   30.9649   41.3862 H   0  0  0  0  0  0  0  0  0  0  0  0
   49.5206   29.7847   42.1719 H   0  0  0  0  0  0  0  0  0  0  0  0
   47.7276   32.1863   45.1685 H   0  0  0  0  0  0  0  0  0  0  0  0
   46.0664   33.5258   47.5601 H   0  0  0  0  0  0  0  0  0  0  0  0
   44.5606   32.9280   46.7842 H   0  0  0  0  0  0  0  0  0  0  0  0
   46.0379   31.9060   46.7842 H   0  0  0  0  0  0  0  0  0  0  0  0
   44.5184   36.7375   43.9255 H   0  0  0  0  0  0  0  0  0  0  0  0
   45.8243   37.0006   42.7312 H   0  0  0  0  0  0  0  0  0  0  0  0
   44.6974   34.8812   41.5825 H   0  0  0  0  0  0  0  0  0  0  0  0
   44.0760   36.5845   41.3421 H   0  0  0  0  0  0  0  0  0  0  0  0
   43.0295   34.6549   43.2443 H   0  0  0  0  0  0  0  0  0  0  0  0
   41.9953   33.7271   41.4715 H   0  0  0  0  0  0  0  0  0  0  0  0
   43.2149   36.1389   40.2445 H   0  0  0  0  0  0  0  0  0  0  0  0
   43.4805   34.3298   39.9802 H   0  0  0  0  0  0  0  0  0  0  0  0
   42.0317   34.2121   38.4085 H   0  0  0  0  0  0  0  0  0  0  0  0
   42.1559   36.0486   38.3794 H   0  0  0  0  0  0  0  0  0  0  0  0
   39.9021   35.7380   38.3750 H   0  0  0  0  0  0  0  0  0  0  0  0
   39.9771   34.2933   39.4366 H   0  0  0  0  0  0  0  0  0  0  0  0
   40.7886   37.0973   40.3341 H   0  0  0  0  0  0  0  0  0  0  0  0
   39.1587   36.4395   40.5775 H   0  0  0  0  0  0  0  0  0  0  0  0
   40.0348   34.5453   41.8159 H   0  0  0  0  0  0  0  0  0  0  0  0
   40.7797   36.0836   42.4767 H   0  0  0  0  0  0  0  0  0  0  0  0
  1  6  2  0
  2  1  1  0
  2  3  2  0
  3  4  1  0
  4  5  2  0
  5  7  1  0
  6  5  1  0
  7  8  1  0
  8  9  2  0
  9 15  1  0
 10  9  1  0
 10 11  2  0
 12 10  1  0
 13  7  1  0
 13 12  1  0
 14 13  2  0
 16 12  1  0
 17 18  1  0
 17 16  1  0
 19 24  1  0
 19 18  1  0
 20 19  1  0
 21 22  1  0
 21 20  1  0
 22 23  1  0
 23 24  1  0
  1 25  1  0
  2 26  1  0
  3 27  1  0
  8 28  1  0
 15 29  1  0
 15 30  1  0
 15 31  1  0
 16 32  1  0
 16 33  1  0
 17 34  1  0
 17 35  1  0
 18 36  1  0
 19 37  1  0
 20 38  1  0
 20 39  1  0
 21 40  1  0
 21 41  1  0
 22 42  1  0
 22 43  1  0
 23 44  1  0
 23 45  1  0
 24 46  1  0
 24 47  1  0
M  ISO  8  25  14  26  14  27  14  28  14  29   8  30   8  31   8  32   8
M  ISO  8  33   8  34   8  35   8  36   5  37  13  38  13  39  13  40  13
M  ISO  7  41  13  42  13  43  13  44  13  45  13  46  13  47  13
M  END
>  <minimizedAffinity>  (1) 
-6.7609868

>  <minimizedRMSD>  (1) 
0.734901905

$$$$
