
     RDKit          3D

 44 46  0  0  0  0  0  0  0  0999 V2000
   50.8390   32.9840   42.0180 C   0  0  0  0  0  0  0  0  0  0  0  0
   50.7950   31.5710   41.9030 C   0  0  0  0  0  0  0  0  0  0  0  0
   49.6660   30.9250   42.3390 C   0  0  0  0  0  0  0  0  0  0  0  0
   48.6380   31.6500   42.8610 N   0  0  0  0  0  0  0  0  0  0  0  0
   48.7010   33.0070   42.9610 C   0  0  0  0  0  0  0  0  0  0  0  0
   49.7820   33.6150   42.5430 N   0  0  0  0  0  0  0  0  0  0  0  0
   47.5600   33.6240   43.5290 N   0  0  0  0  0  0  0  0  0  0  0  0
   47.1550   33.1190   44.7160 C   0  0  0  0  0  0  0  0  0  0  0  0
   46.0380   33.6330   45.3820 C   0  0  0  0  0  0  0  0  0  0  0  0
   45.3510   34.6800   44.7890 C   0  0  0  0  0  0  0  0  0  0  0  0
   44.3470   35.1770   45.3380 O   0  0  0  0  0  0  0  0  0  0  0  0
   45.7850   35.1670   43.5890 N   0  0  0  0  0  0  0  0  0  0  0  0
   46.8710   34.6470   42.9710 C   0  0  0  0  0  0  0  0  0  0  0  0
   47.3030   35.0730   41.8650 O   0  0  0  0  0  0  0  0  0  0  0  0
   45.6280   33.0560   46.6910 C   0  0  0  0  0  0  0  0  0  0  0  0
   45.0500   36.2440   42.9840 C   0  0  0  0  0  0  0  0  0  0  0  0
   44.1340   35.6750   41.9360 C   0  0  0  0  0  0  0  0  0  0  0  0
   42.8090   35.4240   42.4300 N   0  0  0  0  0  0  0  0  0  0  0  0
   42.0250   34.7550   41.4300 C   0  0  0  0  0  0  0  0  0  0  0  0
   40.5420   35.0810   41.5990 C   0  0  0  0  0  0  0  0  0  0  0  0
   40.0740   35.7500   40.3560 C   0  0  0  0  0  0  0  0  0  0  0  0
   41.1600   35.5720   39.3170 C   0  0  0  0  0  0  0  0  0  0  0  0
   42.4080   35.1350   40.0620 C   0  0  0  0  0  0  0  0  0  0  0  0
   51.7219   33.5484   41.6833 H   0  0  0  0  0  0  0  0  0  0  0  0
   51.6402   31.0103   41.4773 H   0  0  0  0  0  0  0  0  0  0  0  0
   49.5916   29.8298   42.2675 H   0  0  0  0  0  0  0  0  0  0  0  0
   47.7156   32.2869   45.1670 H   0  0  0  0  0  0  0  0  0  0  0  0
   46.0554   33.6575   47.5068 H   0  0  0  0  0  0  0  0  0  0  0  0
   44.5306   33.0622   46.7669 H   0  0  0  0  0  0  0  0  0  0  0  0
   45.9949   32.0218   46.7669 H   0  0  0  0  0  0  0  0  0  0  0  0
   44.4570   36.7639   43.7509 H   0  0  0  0  0  0  0  0  0  0  0  0
   45.7464   36.9602   42.5236 H   0  0  0  0  0  0  0  0  0  0  0  0
   44.5595   34.7271   41.5748 H   0  0  0  0  0  0  0  0  0  0  0  0
   44.0509   36.4192   41.1302 H   0  0  0  0  0  0  0  0  0  0  0  0
   42.8659   34.8313   43.2704 H   0  0  0  0  0  0  0  0  0  0  0  0
   42.2133   33.6805   41.5713 H   0  0  0  0  0  0  0  0  0  0  0  0
   39.9722   34.1542   41.7613 H   0  0  0  0  0  0  0  0  0  0  0  0
   40.3920   35.7397   42.4672 H   0  0  0  0  0  0  0  0  0  0  0  0
   39.1392   35.2867   40.0075 H   0  0  0  0  0  0  0  0  0  0  0  0
   39.8771   36.8170   40.5368 H   0  0  0  0  0  0  0  0  0  0  0  0
   41.3438   36.5221   38.7939 H   0  0  0  0  0  0  0  0  0  0  0  0
   40.8679   34.8267   38.5626 H   0  0  0  0  0  0  0  0  0  0  0  0
   42.8628   34.2735   39.5510 H   0  0  0  0  0  0  0  0  0  0  0  0
   43.1382   35.9572   40.0894 H   0  0  0  0  0  0  0  0  0  0  0  0
  1  6  2  0
  2  1  1  0
  2  3  2  0
  3  4  1  0
  4  5  2  0
  5  7  1  0
  6  5  1  0
  7  8  1  0
  8  9  2  0
  9 15  1  0
 10 11  2  0
 10  9  1  0
 12 10  1  0
 13  7  1  0
 13 12  1  0
 14 13  2  0
 16 12  1  0
 17 18  1  0
 17 16  1  0
 19 20  1  0
 19 18  1  0
 21 20  1  0
 22 23  1  0
 22 21  1  0
 23 19  1  0
  1 24  1  0
  2 25  1  0
  3 26  1  0
  8 27  1  0
 15 28  1  0
 15 29  1  0
 15 30  1  0
 16 31  1  0
 16 32  1  0
 17 33  1  0
 17 34  1  0
 18 35  1  0
 19 36  1  0
 20 37  1  0
 20 38  1  0
 21 39  1  0
 21 40  1  0
 22 41  1  0
 22 42  1  0
 23 43  1  0
 23 44  1  0
M  ISO  8  24  14  25  14  26  14  27  14  28   8  29   8  30   8  31   8
M  ISO  8  32   8  33   8  34   8  35   5  36  13  37  13  38  13  39  13
M  ISO  5  40  13  41  13  42  13  43  13  44  13
M  END
>  <minimizedAffinity>  (1) 
-6.35634947

>  <minimizedRMSD>  (1) 
0.709236741

$$$$
