
     RDKit          3D

 37 38  0  0  0  0  0  0  0  0999 V2000
   50.8090   32.9620   42.0100 C   0  0  0  0  0  0  0  0  0  0  0  0
   50.7900   31.5590   41.9020 C   0  0  0  0  0  0  0  0  0  0  0  0
   49.6590   30.8940   42.3660 C   0  0  0  0  0  0  0  0  0  0  0  0
   48.6470   31.6350   42.8930 N   0  0  0  0  0  0  0  0  0  0  0  0
   48.6890   32.9880   42.9860 C   0  0  0  0  0  0  0  0  0  0  0  0
   49.7640   33.5930   42.5420 N   0  0  0  0  0  0  0  0  0  0  0  0
   47.5530   33.5860   43.5590 N   0  0  0  0  0  0  0  0  0  0  0  0
   47.1650   33.0790   44.7580 C   0  0  0  0  0  0  0  0  0  0  0  0
   46.0520   33.5970   45.4160 C   0  0  0  0  0  0  0  0  0  0  0  0
   45.3530   34.6260   44.8400 C   0  0  0  0  0  0  0  0  0  0  0  0
   44.3560   35.1150   45.3970 O   0  0  0  0  0  0  0  0  0  0  0  0
   45.7700   35.1120   43.6360 N   0  0  0  0  0  0  0  0  0  0  0  0
   46.8460   34.6020   43.0110 C   0  0  0  0  0  0  0  0  0  0  0  0
   47.2520   35.0350   41.8960 O   0  0  0  0  0  0  0  0  0  0  0  0
   45.6550   33.0150   46.7430 C   0  0  0  0  0  0  0  0  0  0  0  0
   45.0280   36.1990   43.0340 C   0  0  0  0  0  0  0  0  0  0  0  0
   44.0040   35.6150   42.1000 C   0  0  0  0  0  0  0  0  0  0  0  0
   42.6840   35.6040   42.6140 N   0  0  0  0  0  0  0  0  0  0  0  0
   41.6130   35.2730   41.2960 S   0  0  0  0  0  0  0  0  0  0  0  0
   42.4890   35.0590   39.7840 C   0  0  0  0  0  0  0  0  0  0  0  0
   40.7890   34.0450   41.5500 O   0  0  0  0  0  0  0  0  0  0  0  0
   40.6480   36.4340   41.0970 O   0  0  0  0  0  0  0  0  0  0  0  0
   51.6806   33.5331   41.6576 H   0  0  0  0  0  0  0  0  0  0  0  0
   51.6373   31.0086   41.4671 H   0  0  0  0  0  0  0  0  0  0  0  0
   49.5852   29.7980   42.3082 H   0  0  0  0  0  0  0  0  0  0  0  0
   47.7334   32.2540   45.2122 H   0  0  0  0  0  0  0  0  0  0  0  0
   46.0743   33.6297   47.5532 H   0  0  0  0  0  0  0  0  0  0  0  0
   44.5581   33.0007   46.8237 H   0  0  0  0  0  0  0  0  0  0  0  0
   46.0420   31.9885   46.8237 H   0  0  0  0  0  0  0  0  0  0  0  0
   44.5249   36.7843   43.8178 H   0  0  0  0  0  0  0  0  0  0  0  0
   45.7101   36.8612   42.4806 H   0  0  0  0  0  0  0  0  0  0  0  0
   44.2946   34.5782   41.8752 H   0  0  0  0  0  0  0  0  0  0  0  0
   43.9888   36.2583   41.2078 H   0  0  0  0  0  0  0  0  0  0  0  0
   42.5930   34.8721   43.3330 H   0  0  0  0  0  0  0  0  0  0  0  0
   43.5367   34.8031   40.0003 H   0  0  0  0  0  0  0  0  0  0  0  0
   42.0257   34.2476   39.2035 H   0  0  0  0  0  0  0  0  0  0  0  0
   42.4520   35.9926   39.2035 H   0  0  0  0  0  0  0  0  0  0  0  0
  1  6  2  0
  2  1  1  0
  2  3  2  0
  3  4  1  0
  4  5  2  0
  5  7  1  0
  6  5  1  0
  7  8  1  0
  8  9  2  0
  9 15  1  0
 10 11  2  0
 10  9  1  0
 12 10  1  0
 13  7  1  0
 13 12  1  0
 14 13  2  0
 16 12  1  0
 17 18  1  0
 17 16  1  0
 19 21  2  0
 19 18  1  0
 20 19  1  0
 22 19  2  0
  1 23  1  0
  2 24  1  0
  3 25  1  0
  8 26  1  0
 15 27  1  0
 15 28  1  0
 15 29  1  0
 16 30  1  0
 16 31  1  0
 17 32  1  0
 17 33  1  0
 18 34  1  0
 20 35  1  0
 20 36  1  0
 20 37  1  0
M  ISO  8  23  14  24  14  25  14  26  14  27   8  28   8  29   8  30   8
M  ISO  7  31   8  32   8  33   8  34   5  35   8  36   8  37   8
M  END
>  <minimizedAffinity>  (1) 
-5.80959415

>  <minimizedRMSD>  (1) 
0.339955568

$$$$
