
     RDKit          3D

 34 35  0  0  0  0  0  0  0  0999 V2000
   49.1290   34.4040   42.9810 C   0  0  0  0  0  0  0  0  0  0  0  0
   49.9500   33.7010   42.0540 C   0  0  0  0  0  0  0  0  0  0  0  0
   49.3170   32.8900   41.1330 C   0  0  0  0  0  0  0  0  0  0  0  0
   47.9560   32.8030   41.1550 N   0  0  0  0  0  0  0  0  0  0  0  0
   47.2030   33.4890   42.0550 C   0  0  0  0  0  0  0  0  0  0  0  0
   47.8010   34.2570   42.9290 N   0  0  0  0  0  0  0  0  0  0  0  0
   45.8090   33.2860   41.9440 N   0  0  0  0  0  0  0  0  0  0  0  0
   45.4090   31.9860   41.9270 C   0  0  0  0  0  0  0  0  0  0  0  0
   44.0640   31.6380   41.8230 C   0  0  0  0  0  0  0  0  0  0  0  0
   43.1400   32.6520   41.7370 C   0  0  0  0  0  0  0  0  0  0  0  0
   41.9150   32.4020   41.6420 O   0  0  0  0  0  0  0  0  0  0  0  0
   43.5750   33.9560   41.7570 N   0  0  0  0  0  0  0  0  0  0  0  0
   44.8740   34.2550   41.8570 C   0  0  0  0  0  0  0  0  0  0  0  0
   45.3060   35.4340   41.8780 O   0  0  0  0  0  0  0  0  0  0  0  0
   43.6600   30.2140   41.8010 C   0  0  0  0  0  0  0  0  0  0  0  0
   42.5870   35.0210   41.6580 C   0  0  0  0  0  0  0  0  0  0  0  0
   42.2800   35.2240   40.2080 C   0  0  0  0  0  0  0  0  0  0  0  0
   41.0650   34.6940   39.7490 N   0  0  0  0  0  0  0  0  0  0  0  0
   39.8770   35.2320   40.3010 C   0  0  0  0  0  0  0  0  0  0  0  0
   39.5980   34.5430   41.4730 F   0  0  0  0  0  0  0  0  0  0  0  0
   38.8090   35.0390   39.4180 F   0  0  0  0  0  0  0  0  0  0  0  0
   39.8830   36.5560   40.6190 F   0  0  0  0  0  0  0  0  0  0  0  0
   49.5841   35.0634   43.7347 H   0  0  0  0  0  0  0  0  0  0  0  0
   51.0454   33.8001   42.0709 H   0  0  0  0  0  0  0  0  0  0  0  0
   49.9012   32.3230   40.3932 H   0  0  0  0  0  0  0  0  0  0  0  0
   46.1655   31.1905   41.9970 H   0  0  0  0  0  0  0  0  0  0  0  0
   43.5557   29.8465   42.8325 H   0  0  0  0  0  0  0  0  0  0  0  0
   42.6980   30.1138   41.2771 H   0  0  0  0  0  0  0  0  0  0  0  0
   44.4261   29.6236   41.2771 H   0  0  0  0  0  0  0  0  0  0  0  0
   41.6724   34.7348   42.1980 H   0  0  0  0  0  0  0  0  0  0  0  0
   42.9753   35.9490   42.1030 H   0  0  0  0  0  0  0  0  0  0  0  0
   42.2664   36.3072   40.0169 H   0  0  0  0  0  0  0  0  0  0  0  0
   43.0630   34.6760   39.6633 H   0  0  0  0  0  0  0  0  0  0  0  0
   41.0278   34.8404   38.7301 H   0  0  0  0  0  0  0  0  0  0  0  0
  2  1  2  0
  3  4  2  0
  3  2  1  0
  4  5  1  0
  5  6  2  0
  6  1  1  0
  7  5  1  0
  8  7  1  0
  9  8  2  0
 10 12  1  0
 10  9  1  0
 11 10  2  0
 12 13  1  0
 13 14  2  0
 13  7  1  0
 15  9  1  0
 16 12  1  0
 17 16  1  0
 18 17  1  0
 18 19  1  0
 19 22  1  0
 19 20  1  0
 21 19  1  0
  1 23  1  0
  2 24  1  0
  3 25  1  0
  8 26  1  0
 15 27  1  0
 15 28  1  0
 15 29  1  0
 16 30  1  0
 16 31  1  0
 17 32  1  0
 17 33  1  0
 18 34  1  0
M  ISO  8  23  14  24  14  25  14  26  14  27   8  28   8  29   8  30   8
M  ISO  4  31   8  32   8  33   8  34   5
M  END
>  <minimizedAffinity>  (1) 
-4.79264593

>  <minimizedRMSD>  (1) 
3.50023842

$$$$
