
     RDKit          3D

 37 38  0  0  0  0  0  0  0  0999 V2000
   50.8060   33.0080   42.0320 C   0  0  0  0  0  0  0  0  0  0  0  0
   50.7980   31.6050   41.9300 C   0  0  0  0  0  0  0  0  0  0  0  0
   49.6650   30.9350   42.3910 C   0  0  0  0  0  0  0  0  0  0  0  0
   48.6340   31.6740   42.9110 N   0  0  0  0  0  0  0  0  0  0  0  0
   48.6950   33.0340   42.9860 C   0  0  0  0  0  0  0  0  0  0  0  0
   49.7600   33.6670   42.5520 N   0  0  0  0  0  0  0  0  0  0  0  0
   47.5380   33.6320   43.5540 N   0  0  0  0  0  0  0  0  0  0  0  0
   47.1360   33.1560   44.7400 C   0  0  0  0  0  0  0  0  0  0  0  0
   46.0240   33.6640   45.3870 C   0  0  0  0  0  0  0  0  0  0  0  0
   45.3190   34.6900   44.7820 C   0  0  0  0  0  0  0  0  0  0  0  0
   44.3070   35.1870   45.3190 O   0  0  0  0  0  0  0  0  0  0  0  0
   45.7430   35.1640   43.5680 N   0  0  0  0  0  0  0  0  0  0  0  0
   46.8330   34.6400   42.9720 C   0  0  0  0  0  0  0  0  0  0  0  0
   47.2460   35.0570   41.8590 O   0  0  0  0  0  0  0  0  0  0  0  0
   45.6060   33.1100   46.7120 C   0  0  0  0  0  0  0  0  0  0  0  0
   45.0030   36.2370   42.9400 C   0  0  0  0  0  0  0  0  0  0  0  0
   43.9840   35.5970   42.0140 C   0  0  0  0  0  0  0  0  0  0  0  0
   42.6570   35.6420   42.5050 N   0  0  0  0  0  0  0  0  0  0  0  0
   41.7040   35.1090   41.5780 C   0  0  0  0  0  0  0  0  0  0  0  0
   40.7340   36.1410   41.0560 C   0  0  0  0  0  0  0  0  0  0  0  0
   51.6823   33.5724   41.6804 H   0  0  0  0  0  0  0  0  0  0  0  0
   51.6517   31.0579   41.5035 H   0  0  0  0  0  0  0  0  0  0  0  0
   49.6001   29.8382   42.3385 H   0  0  0  0  0  0  0  0  0  0  0  0
   47.7046   32.3407   45.2111 H   0  0  0  0  0  0  0  0  0  0  0  0
   46.0569   33.7076   47.5180 H   0  0  0  0  0  0  0  0  0  0  0  0
   44.5099   33.1485   46.7962 H   0  0  0  0  0  0  0  0  0  0  0  0
   45.9438   32.0666   46.7962 H   0  0  0  0  0  0  0  0  0  0  0  0
   44.4912   36.8399   43.7046 H   0  0  0  0  0  0  0  0  0  0  0  0
   45.6775   36.9009   42.3795 H   0  0  0  0  0  0  0  0  0  0  0  0
   44.2634   34.5434   41.8663 H   0  0  0  0  0  0  0  0  0  0  0  0
   43.9980   36.1721   41.0764 H   0  0  0  0  0  0  0  0  0  0  0  0
   42.6098   35.0951   43.3765 H   0  0  0  0  0  0  0  0  0  0  0  0
   42.2498   34.6803   40.7246 H   0  0  0  0  0  0  0  0  0  0  0  0
   41.1147   34.3525   42.1169 H   0  0  0  0  0  0  0  0  0  0  0  0
   40.2527   36.6530   41.9023 H   0  0  0  0  0  0  0  0  0  0  0  0
   41.2756   36.8761   40.4426 H   0  0  0  0  0  0  0  0  0  0  0  0
   39.9667   35.6459   40.4426 H   0  0  0  0  0  0  0  0  0  0  0  0
  1  6  2  0
  2  1  1  0
  2  3  2  0
  3  4  1  0
  4  5  2  0
  5  7  1  0
  6  5  1  0
  7  8  1  0
  8  9  2  0
  9 15  1  0
 10 11  2  0
 10  9  1  0
 12 10  1  0
 13  7  1  0
 13 12  1  0
 14 13  2  0
 16 12  1  0
 17 18  1  0
 17 16  1  0
 19 18  1  0
 20 19  1  0
  1 21  1  0
  2 22  1  0
  3 23  1  0
  8 24  1  0
 15 25  1  0
 15 26  1  0
 15 27  1  0
 16 28  1  0
 16 29  1  0
 17 30  1  0
 17 31  1  0
 18 32  1  0
 19 33  1  0
 19 34  1  0
 20 35  1  0
 20 36  1  0
 20 37  1  0
M  ISO  8  21  14  22  14  23  14  24  14  25   8  26   8  27   8  28   8
M  ISO  8  29   8  30   8  31   8  32   5  33   8  34   8  35   8  36   8
M  ISO  1  37   8
M  END
>  <minimizedAffinity>  (1) 
-5.3766346

>  <minimizedRMSD>  (1) 
0.240439564

$$$$
