
     RDKit          3D

 42 44  0  0  0  0  0  0  0  0999 V2000
   50.6680   33.0110   42.0150 C   0  0  0  0  0  0  0  0  0  0  0  0
   50.7070   31.6190   42.0970 C   0  0  0  0  0  0  0  0  0  0  0  0
   49.6090   30.9700   42.6380 C   0  0  0  0  0  0  0  0  0  0  0  0
   48.5520   31.7320   43.0600 N   0  0  0  0  0  0  0  0  0  0  0  0
   48.5450   33.0730   42.9680 C   0  0  0  0  0  0  0  0  0  0  0  0
   49.5820   33.6790   42.4570 N   0  0  0  0  0  0  0  0  0  0  0  0
   47.3720   33.6970   43.4530 N   0  0  0  0  0  0  0  0  0  0  0  0
   46.9880   33.3550   44.7010 C   0  0  0  0  0  0  0  0  0  0  0  0
   45.8610   33.9010   45.2840 C   0  0  0  0  0  0  0  0  0  0  0  0
   45.1160   34.8230   44.5580 C   0  0  0  0  0  0  0  0  0  0  0  0
   44.0880   35.3440   45.0480 O   0  0  0  0  0  0  0  0  0  0  0  0
   45.5200   35.1520   43.3050 N   0  0  0  0  0  0  0  0  0  0  0  0
   46.6220   34.5990   42.7740 C   0  0  0  0  0  0  0  0  0  0  0  0
   47.0250   34.8830   41.6140 O   0  0  0  0  0  0  0  0  0  0  0  0
   45.4550   33.4980   46.6650 C   0  0  0  0  0  0  0  0  0  0  0  0
   44.7250   36.1130   42.5830 C   0  0  0  0  0  0  0  0  0  0  0  0
   43.6830   35.4200   41.8160 C   0  0  0  0  0  0  0  0  0  0  0  0
   42.3520   35.3630   42.3780 N   0  0  0  0  0  0  0  0  0  0  0  0
   41.2040   35.5090   41.5910 C   0  0  0  0  0  0  0  0  0  0  0  0
   40.7910   36.6420   41.0580 O   0  0  0  0  0  0  0  0  0  0  0  0
   40.2490   34.3820   41.2370 C   0  0  0  0  0  0  0  0  0  0  0  0
   39.3050   34.5620   40.2540 C   0  0  0  0  0  0  0  0  0  0  0  0
   38.3930   33.6200   39.8580 C   0  0  0  0  0  0  0  0  0  0  0  0
   38.4080   32.3940   40.4770 C   0  0  0  0  0  0  0  0  0  0  0  0
   39.3600   32.2480   41.4500 C   0  0  0  0  0  0  0  0  0  0  0  0
   40.2270   33.1900   41.8050 N   0  0  0  0  0  0  0  0  0  0  0  0
   51.5201   33.5626   41.5912 H   0  0  0  0  0  0  0  0  0  0  0  0
   51.5822   31.0543   41.7432 H   0  0  0  0  0  0  0  0  0  0  0  0
   49.5868   29.8738   42.7261 H   0  0  0  0  0  0  0  0  0  0  0  0
   47.5859   32.6251   45.2665 H   0  0  0  0  0  0  0  0  0  0  0  0
   46.0354   34.0741   47.4006 H   0  0  0  0  0  0  0  0  0  0  0  0
   44.3827   33.6991   46.8053 H   0  0  0  0  0  0  0  0  0  0  0  0
   45.6481   32.4242   46.8053 H   0  0  0  0  0  0  0  0  0  0  0  0
   44.2540   36.8063   43.2954 H   0  0  0  0  0  0  0  0  0  0  0  0
   45.3718   36.6741   41.8925 H   0  0  0  0  0  0  0  0  0  0  0  0
   44.0204   34.3835   41.6679 H   0  0  0  0  0  0  0  0  0  0  0  0
   43.5698   36.0202   40.9011 H   0  0  0  0  0  0  0  0  0  0  0  0
   42.2452   35.2099   43.3909 H   0  0  0  0  0  0  0  0  0  0  0  0
   39.2802   35.5376   39.7464 H   0  0  0  0  0  0  0  0  0  0  0  0
   37.6655   33.8402   39.0628 H   0  0  0  0  0  0  0  0  0  0  0  0
   37.7071   31.5891   40.2107 H   0  0  0  0  0  0  0  0  0  0  0  0
   39.4106   31.2826   41.9749 H   0  0  0  0  0  0  0  0  0  0  0  0
  1  2  2  0
  1  6  1  0
  2  3  1  0
  3  4  2  0
  5  4  1  0
  5  7  1  0
  6  5  2  0
  7  8  1  0
  8  9  2  0
  9 15  1  0
 10 11  2  0
 10  9  1  0
 12 10  1  0
 13 12  1  0
 13  7  1  0
 14 13  2  0
 16 12  1  0
 17 18  1  0
 17 16  1  0
 19 18  1  0
 20 19  2  0
 21 19  1  0
 21 26  1  0
 22 21  2  0
 23 22  1  0
 23 24  2  0
 24 25  1  0
 25 26  2  0
  1 27  1  0
  2 28  1  0
  3 29  1  0
  8 30  1  0
 15 31  1  0
 15 32  1  0
 15 33  1  0
 16 34  1  0
 16 35  1  0
 17 36  1  0
 17 37  1  0
 18 38  1  0
 22 39  1  0
 23 40  1  0
 24 41  1  0
 25 42  1  0
M  ISO  8  27  14  28  14  29  14  30  14  31   8  32   8  33   8  34   8
M  ISO  7  35   8  36   8  37   8  39  14  40  14  41  14  42  14
M  END
>  <minimizedAffinity>  (1) 
-6.97470951

>  <minimizedRMSD>  (1) 
0.587499499

$$$$
