
     RDKit          3D

 43 45  0  0  0  0  0  0  0  0999 V2000
   50.6700   33.0000   42.0120 C   0  0  0  0  0  0  0  0  0  0  0  0
   50.7220   31.6130   42.1070 C   0  0  0  0  0  0  0  0  0  0  0  0
   49.6140   30.9800   42.6510 C   0  0  0  0  0  0  0  0  0  0  0  0
   48.5540   31.7420   43.0560 N   0  0  0  0  0  0  0  0  0  0  0  0
   48.5450   33.0820   42.9460 C   0  0  0  0  0  0  0  0  0  0  0  0
   49.5870   33.6810   42.4350 N   0  0  0  0  0  0  0  0  0  0  0  0
   47.3710   33.7130   43.4150 N   0  0  0  0  0  0  0  0  0  0  0  0
   46.9820   33.3880   44.6660 C   0  0  0  0  0  0  0  0  0  0  0  0
   45.8510   33.9440   45.2360 C   0  0  0  0  0  0  0  0  0  0  0  0
   45.1110   34.8570   44.4920 C   0  0  0  0  0  0  0  0  0  0  0  0
   44.0810   35.3850   44.9720 O   0  0  0  0  0  0  0  0  0  0  0  0
   45.5210   35.1680   43.2370 N   0  0  0  0  0  0  0  0  0  0  0  0
   46.6230   34.6070   42.7190 C   0  0  0  0  0  0  0  0  0  0  0  0
   47.0330   34.8720   41.5570 O   0  0  0  0  0  0  0  0  0  0  0  0
   45.4350   33.5610   46.6210 C   0  0  0  0  0  0  0  0  0  0  0  0
   44.7300   36.1170   42.4960 C   0  0  0  0  0  0  0  0  0  0  0  0
   43.6790   35.4100   41.7490 C   0  0  0  0  0  0  0  0  0  0  0  0
   42.3580   35.3540   42.3280 N   0  0  0  0  0  0  0  0  0  0  0  0
   41.2050   35.5150   41.5530 C   0  0  0  0  0  0  0  0  0  0  0  0
   40.7750   36.6450   41.0490 O   0  0  0  0  0  0  0  0  0  0  0  0
   40.2260   34.4400   41.1540 C   0  0  0  0  0  0  0  0  0  0  0  0
   39.3070   34.6790   40.1610 C   0  0  0  0  0  0  0  0  0  0  0  0
   38.3900   33.6830   39.8040 C   0  0  0  0  0  0  0  0  0  0  0  0
   38.3760   32.4610   40.4180 C   0  0  0  0  0  0  0  0  0  0  0  0
   39.2790   32.1810   41.4170 C   0  0  0  0  0  0  0  0  0  0  0  0
   40.1550   33.1890   41.7300 C   0  0  0  0  0  0  0  0  0  0  0  0
   51.5237   33.5476   41.5862 H   0  0  0  0  0  0  0  0  0  0  0  0
   51.6004   31.0450   41.7667 H   0  0  0  0  0  0  0  0  0  0  0  0
   49.5889   29.8852   42.7545 H   0  0  0  0  0  0  0  0  0  0  0  0
   47.5769   32.6658   45.2443 H   0  0  0  0  0  0  0  0  0  0  0  0
   46.0394   34.1175   47.3525 H   0  0  0  0  0  0  0  0  0  0  0  0
   44.3715   33.8027   46.7645 H   0  0  0  0  0  0  0  0  0  0  0  0
   45.5882   32.4812   46.7645 H   0  0  0  0  0  0  0  0  0  0  0  0
   44.2662   36.8301   43.1934 H   0  0  0  0  0  0  0  0  0  0  0  0
   45.3772   36.6584   41.7902 H   0  0  0  0  0  0  0  0  0  0  0  0
   44.0187   34.3733   41.6080 H   0  0  0  0  0  0  0  0  0  0  0  0
   43.5514   35.9995   40.8291 H   0  0  0  0  0  0  0  0  0  0  0  0
   42.2618   35.1909   43.3404 H   0  0  0  0  0  0  0  0  0  0  0  0
   39.2917   35.6515   39.6472 H   0  0  0  0  0  0  0  0  0  0  0  0
   37.6602   33.8892   39.0072 H   0  0  0  0  0  0  0  0  0  0  0  0
   37.6416   31.7011   40.1125 H   0  0  0  0  0  0  0  0  0  0  0  0
   39.2975   31.2095   41.9327 H   0  0  0  0  0  0  0  0  0  0  0  0
   40.8809   32.9760   42.5285 H   0  0  0  0  0  0  0  0  0  0  0  0
  1  2  2  0
  1  6  1  0
  2  3  1  0
  3  4  2  0
  5  4  1  0
  5  7  1  0
  6  5  2  0
  7  8  1  0
  8  9  2  0
  9 15  1  0
 10 11  2  0
 10  9  1  0
 12 10  1  0
 13 12  1  0
 13  7  1  0
 14 13  2  0
 16 12  1  0
 17 18  1  0
 17 16  1  0
 19 18  1  0
 20 19  2  0
 21 19  1  0
 21 26  1  0
 22 21  2  0
 23 22  1  0
 23 24  2  0
 24 25  1  0
 25 26  2  0
  1 27  1  0
  2 28  1  0
  3 29  1  0
  8 30  1  0
 15 31  1  0
 15 32  1  0
 15 33  1  0
 16 34  1  0
 16 35  1  0
 17 36  1  0
 17 37  1  0
 18 38  1  0
 22 39  1  0
 23 40  1  0
 24 41  1  0
 25 42  1  0
 26 43  1  0
M  ISO  8  27  14  28  14  29  14  30  14  31   8  32   8  33   8  34   8
M  ISO  8  35   8  36   8  37   8  39  14  40  14  41  14  42  14  43  14
M  END
>  <minimizedAffinity>  (1) 
-7.10122871

>  <minimizedRMSD>  (1) 
0.639499187

$$$$
