
     RDKit          3D

 41 43  0  0  0  0  0  0  0  0999 V2000
   50.7130   33.1020   42.0610 C   0  0  0  0  0  0  0  0  0  0  0  0
   50.7710   31.7090   42.0780 C   0  0  0  0  0  0  0  0  0  0  0  0
   49.6730   31.0340   42.5900 C   0  0  0  0  0  0  0  0  0  0  0  0
   48.6070   31.7620   43.0450 N   0  0  0  0  0  0  0  0  0  0  0  0
   48.5860   33.1050   43.0130 C   0  0  0  0  0  0  0  0  0  0  0  0
   49.6240   33.7350   42.5290 N   0  0  0  0  0  0  0  0  0  0  0  0
   47.4090   33.7000   43.5210 N   0  0  0  0  0  0  0  0  0  0  0  0
   47.0300   33.3100   44.7470 C   0  0  0  0  0  0  0  0  0  0  0  0
   45.8940   33.8300   45.3500 C   0  0  0  0  0  0  0  0  0  0  0  0
   45.1480   34.7720   44.6570 C   0  0  0  0  0  0  0  0  0  0  0  0
   44.1150   35.2690   45.1670 O   0  0  0  0  0  0  0  0  0  0  0  0
   45.5480   35.1530   43.4190 N   0  0  0  0  0  0  0  0  0  0  0  0
   46.6520   34.6260   42.8680 C   0  0  0  0  0  0  0  0  0  0  0  0
   47.0550   34.9550   41.7200 O   0  0  0  0  0  0  0  0  0  0  0  0
   45.4980   33.3750   46.7190 C   0  0  0  0  0  0  0  0  0  0  0  0
   44.7470   36.1320   42.7310 C   0  0  0  0  0  0  0  0  0  0  0  0
   43.7110   35.4560   41.9360 C   0  0  0  0  0  0  0  0  0  0  0  0
   42.3680   35.4190   42.4690 N   0  0  0  0  0  0  0  0  0  0  0  0
   41.2400   35.5130   41.6460 C   0  0  0  0  0  0  0  0  0  0  0  0
   40.8260   36.6050   41.0450 O   0  0  0  0  0  0  0  0  0  0  0  0
   40.2970   34.3750   41.3220 C   0  0  0  0  0  0  0  0  0  0  0  0
   39.3180   34.4930   40.3680 C   0  0  0  0  0  0  0  0  0  0  0  0
   38.4390   33.4940   40.0400 C   0  0  0  0  0  0  0  0  0  0  0  0
   38.5350   32.3220   40.6880 N   0  0  0  0  0  0  0  0  0  0  0  0
   39.4730   32.1590   41.6270 C   0  0  0  0  0  0  0  0  0  0  0  0
   40.2860   33.1760   41.8860 N   0  0  0  0  0  0  0  0  0  0  0  0
   51.5588   33.6828   41.6644 H   0  0  0  0  0  0  0  0  0  0  0  0
   51.6513   31.1678   41.7009 H   0  0  0  0  0  0  0  0  0  0  0  0
   49.6591   29.9348   42.6297 H   0  0  0  0  0  0  0  0  0  0  0  0
   47.6319   32.5629   45.2851 H   0  0  0  0  0  0  0  0  0  0  0  0
   46.0240   33.9794   47.4727 H   0  0  0  0  0  0  0  0  0  0  0  0
   44.4119   33.4952   46.8455 H   0  0  0  0  0  0  0  0  0  0  0  0
   45.7669   32.3159   46.8455 H   0  0  0  0  0  0  0  0  0  0  0  0
   44.2685   36.7951   43.4668 H   0  0  0  0  0  0  0  0  0  0  0  0
   45.3900   36.7238   42.0629 H   0  0  0  0  0  0  0  0  0  0  0  0
   44.0354   34.4148   41.7921 H   0  0  0  0  0  0  0  0  0  0  0  0
   43.6283   36.0590   41.0197 H   0  0  0  0  0  0  0  0  0  0  0  0
   42.2371   35.3204   43.4859 H   0  0  0  0  0  0  0  0  0  0  0  0
   39.2333   35.4501   39.8325 H   0  0  0  0  0  0  0  0  0  0  0  0
   37.6738   33.6485   39.2650 H   0  0  0  0  0  0  0  0  0  0  0  0
   39.5684   31.2074   42.1704 H   0  0  0  0  0  0  0  0  0  0  0  0
  1  2  2  0
  1  6  1  0
  2  3  1  0
  3  4  2  0
  5  4  1  0
  5  7  1  0
  6  5  2  0
  7  8  1  0
  8  9  2  0
  9 15  1  0
 10 11  2  0
 10  9  1  0
 12 10  1  0
 13 12  1  0
 13  7  1  0
 14 13  2  0
 16 12  1  0
 17 18  1  0
 17 16  1  0
 19 18  1  0
 20 19  2  0
 21 19  1  0
 21 26  1  0
 22 21  2  0
 23 22  1  0
 23 24  2  0
 24 25  1  0
 25 26  2  0
  1 27  1  0
  2 28  1  0
  3 29  1  0
  8 30  1  0
 15 31  1  0
 15 32  1  0
 15 33  1  0
 16 34  1  0
 16 35  1  0
 17 36  1  0
 17 37  1  0
 18 38  1  0
 22 39  1  0
 23 40  1  0
 25 41  1  0
M  ISO  8  27  14  28  14  29  14  30  14  31   8  32   8  33   8  34   8
M  ISO  6  35   8  36   8  37   8  39  14  40  14  41  14
M  END
>  <minimizedAffinity>  (1) 
-6.76950693

>  <minimizedRMSD>  (1) 
0.513106763

$$$$
