
     RDKit          3D

 40 42  0  0  0  0  0  0  0  0999 V2000
   50.7000   33.0960   42.0500 C   0  0  0  0  0  0  0  0  0  0  0  0
   50.7550   31.7030   42.0700 C   0  0  0  0  0  0  0  0  0  0  0  0
   49.6570   31.0320   42.5900 C   0  0  0  0  0  0  0  0  0  0  0  0
   48.6000   31.7640   43.0470 N   0  0  0  0  0  0  0  0  0  0  0  0
   48.5790   33.1070   43.0140 C   0  0  0  0  0  0  0  0  0  0  0  0
   49.6140   33.7360   42.5240 N   0  0  0  0  0  0  0  0  0  0  0  0
   47.4020   33.6990   43.5280 N   0  0  0  0  0  0  0  0  0  0  0  0
   47.0260   33.3080   44.7510 C   0  0  0  0  0  0  0  0  0  0  0  0
   45.8920   33.8300   45.3570 C   0  0  0  0  0  0  0  0  0  0  0  0
   45.1460   34.7750   44.6670 C   0  0  0  0  0  0  0  0  0  0  0  0
   44.1160   35.2690   45.1830 O   0  0  0  0  0  0  0  0  0  0  0  0
   45.5460   35.1560   43.4270 N   0  0  0  0  0  0  0  0  0  0  0  0
   46.6450   34.6290   42.8780 C   0  0  0  0  0  0  0  0  0  0  0  0
   47.0470   34.9610   41.7260 O   0  0  0  0  0  0  0  0  0  0  0  0
   45.4990   33.3710   46.7280 C   0  0  0  0  0  0  0  0  0  0  0  0
   44.7450   36.1400   42.7480 C   0  0  0  0  0  0  0  0  0  0  0  0
   43.7090   35.4650   41.9470 C   0  0  0  0  0  0  0  0  0  0  0  0
   42.3680   35.4220   42.4850 N   0  0  0  0  0  0  0  0  0  0  0  0
   41.2380   35.4890   41.6640 C   0  0  0  0  0  0  0  0  0  0  0  0
   40.8050   36.5660   41.0500 O   0  0  0  0  0  0  0  0  0  0  0  0
   40.3120   34.3340   41.3490 C   0  0  0  0  0  0  0  0  0  0  0  0
   39.2710   34.2280   40.4090 C   0  0  0  0  0  0  0  0  0  0  0  0
   38.6770   32.9940   40.4520 C   0  0  0  0  0  0  0  0  0  0  0  0
   39.3960   32.3720   41.4430 C   0  0  0  0  0  0  0  0  0  0  0  0
   40.3090   33.1590   41.9260 O   0  0  0  0  0  0  0  0  0  0  0  0
   51.5450   33.6732   41.6464 H   0  0  0  0  0  0  0  0  0  0  0  0
   51.6319   31.1586   41.6896 H   0  0  0  0  0  0  0  0  0  0  0  0
   49.6392   29.9330   42.6328 H   0  0  0  0  0  0  0  0  0  0  0  0
   47.6272   32.5584   45.2864 H   0  0  0  0  0  0  0  0  0  0  0  0
   46.0200   33.9795   47.4818 H   0  0  0  0  0  0  0  0  0  0  0  0
   44.4120   33.4824   46.8544 H   0  0  0  0  0  0  0  0  0  0  0  0
   45.7765   32.3141   46.8544 H   0  0  0  0  0  0  0  0  0  0  0  0
   44.2653   36.7965   43.4889 H   0  0  0  0  0  0  0  0  0  0  0  0
   45.3863   36.7400   42.0857 H   0  0  0  0  0  0  0  0  0  0  0  0
   44.0359   34.4257   41.7951 H   0  0  0  0  0  0  0  0  0  0  0  0
   43.6236   36.0716   41.0334 H   0  0  0  0  0  0  0  0  0  0  0  0
   42.2410   35.3395   43.5038 H   0  0  0  0  0  0  0  0  0  0  0  0
   38.9711   35.0353   39.7246 H   0  0  0  0  0  0  0  0  0  0  0  0
   37.8428   32.6038   39.8504 H   0  0  0  0  0  0  0  0  0  0  0  0
   39.2212   31.3407   41.7835 H   0  0  0  0  0  0  0  0  0  0  0  0
  1  2  2  0
  1  6  1  0
  2  3  1  0
  3  4  2  0
  5  4  1  0
  5  7  1  0
  6  5  2  0
  7  8  1  0
  8  9  2  0
  9 15  1  0
 10 11  2  0
 10  9  1  0
 12 10  1  0
 13 12  1  0
 13  7  1  0
 14 13  2  0
 16 12  1  0
 17 18  1  0
 17 16  1  0
 19 18  1  0
 20 19  2  0
 21 19  1  0
 21 25  1  0
 22 23  1  0
 22 21  2  0
 23 24  2  0
 24 25  1  0
  1 26  1  0
  2 27  1  0
  3 28  1  0
  8 29  1  0
 15 30  1  0
 15 31  1  0
 15 32  1  0
 16 33  1  0
 16 34  1  0
 17 35  1  0
 17 36  1  0
 18 37  1  0
 22 38  1  0
 23 39  1  0
 24 40  1  0
M  ISO  8  26  14  27  14  28  14  29  14  30   8  31   8  32   8  33   8
M  ISO  6  34   8  35   8  36   8  38  14  39  14  40  14
M  END
>  <minimizedAffinity>  (1) 
-6.575984

>  <minimizedRMSD>  (1) 
0.446122199

$$$$
