
     RDKit          3D

 40 42  0  0  0  0  0  0  0  0999 V2000
   50.8150   32.9720   42.0140 C   0  0  0  0  0  0  0  0  0  0  0  0
   50.7760   31.5850   41.8780 C   0  0  0  0  0  0  0  0  0  0  0  0
   49.6410   30.9180   42.3160 C   0  0  0  0  0  0  0  0  0  0  0  0
   48.6270   31.6630   42.8560 N   0  0  0  0  0  0  0  0  0  0  0  0
   48.6920   33.0000   42.9740 C   0  0  0  0  0  0  0  0  0  0  0  0
   49.7660   33.6210   42.5590 N   0  0  0  0  0  0  0  0  0  0  0  0
   47.5540   33.6030   43.5550 N   0  0  0  0  0  0  0  0  0  0  0  0
   47.1450   33.0990   44.7370 C   0  0  0  0  0  0  0  0  0  0  0  0
   46.0460   33.6100   45.4040 C   0  0  0  0  0  0  0  0  0  0  0  0
   45.3600   34.6690   44.8260 C   0  0  0  0  0  0  0  0  0  0  0  0
   44.3620   35.1610   45.3980 O   0  0  0  0  0  0  0  0  0  0  0  0
   45.7820   35.1650   43.6380 N   0  0  0  0  0  0  0  0  0  0  0  0
   46.8590   34.6430   43.0140 C   0  0  0  0  0  0  0  0  0  0  0  0
   47.2770   35.0770   41.9160 O   0  0  0  0  0  0  0  0  0  0  0  0
   45.6270   33.0250   46.7170 C   0  0  0  0  0  0  0  0  0  0  0  0
   45.0410   36.2570   43.0730 C   0  0  0  0  0  0  0  0  0  0  0  0
   44.1110   35.7560   42.0500 C   0  0  0  0  0  0  0  0  0  0  0  0
   42.7910   35.3590   42.4790 N   0  0  0  0  0  0  0  0  0  0  0  0
   41.7590   35.2160   41.5520 C   0  0  0  0  0  0  0  0  0  0  0  0
   41.1120   36.1520   40.9350 O   0  0  0  0  0  0  0  0  0  0  0  0
   40.9490   34.1660   40.8720 C   0  0  0  0  0  0  0  0  0  0  0  0
   39.9090   33.4170   41.7160 C   0  0  0  0  0  0  0  0  0  0  0  0
   39.4780   34.3790   40.6990 C   0  0  0  0  0  0  0  0  0  0  0  0
   51.6983   33.5349   41.6780 H   0  0  0  0  0  0  0  0  0  0  0  0
   51.6204   31.0356   41.4363 H   0  0  0  0  0  0  0  0  0  0  0  0
   49.5583   29.8243   42.2320 H   0  0  0  0  0  0  0  0  0  0  0  0
   47.6996   32.2599   45.1823 H   0  0  0  0  0  0  0  0  0  0  0  0
   46.0540   33.6211   47.5370 H   0  0  0  0  0  0  0  0  0  0  0  0
   44.5294   33.0350   46.7893 H   0  0  0  0  0  0  0  0  0  0  0  0
   45.9898   31.9891   46.7893 H   0  0  0  0  0  0  0  0  0  0  0  0
   44.4716   36.7610   43.8678 H   0  0  0  0  0  0  0  0  0  0  0  0
   45.7410   36.9672   42.6087 H   0  0  0  0  0  0  0  0  0  0  0  0
   44.5810   34.8796   41.5799 H   0  0  0  0  0  0  0  0  0  0  0  0
   43.9402   36.6155   41.3851 H   0  0  0  0  0  0  0  0  0  0  0  0
   42.6101   35.1801   43.4771 H   0  0  0  0  0  0  0  0  0  0  0  0
   41.7832   33.8981   40.2070 H   0  0  0  0  0  0  0  0  0  0  0  0
   39.7453   32.3405   41.5600 H   0  0  0  0  0  0  0  0  0  0  0  0
   39.7267   33.2879   42.7931 H   0  0  0  0  0  0  0  0  0  0  0  0
   39.0270   35.3328   41.0101 H   0  0  0  0  0  0  0  0  0  0  0  0
   38.7950   34.3254   39.8384 H   0  0  0  0  0  0  0  0  0  0  0  0
  1  6  2  0
  2  1  1  0
  2  3  2  0
  3  4  1  0
  4  5  2  0
  5  7  1  0
  6  5  1  0
  7  8  1  0
  8  9  2  0
  9 15  1  0
 10 11  2  0
 10  9  1  0
 12 10  1  0
 13  7  1  0
 13 12  1  0
 14 13  2  0
 16 12  1  0
 17 18  1  0
 17 16  1  0
 19 18  1  0
 20 19  2  0
 21 19  1  0
 21 22  1  0
 23 21  1  0
 23 22  1  0
  1 24  1  0
  2 25  1  0
  3 26  1  0
  8 27  1  0
 15 28  1  0
 15 29  1  0
 15 30  1  0
 16 31  1  0
 16 32  1  0
 17 33  1  0
 17 34  1  0
 18 35  1  0
 21 36  1  0
 22 37  1  0
 22 38  1  0
 23 39  1  0
 23 40  1  0
M  ISO  8  24  14  25  14  26  14  27  14  28   8  29   8  30   8  31   8
M  ISO  8  32   8  33   8  34   8  36  13  37  13  38  13  39  13  40  13
M  END
>  <minimizedAffinity>  (1) 
-6.09901333

>  <minimizedRMSD>  (1) 
0.447365999

$$$$
