
     RDKit          3D

 31 33  0  0  1  0  0  0  0  0999 V2000
   47.6370   34.8730   41.9020 C   0  0  1  0  0  0  0  0  0  0  0  0
   48.7300   35.8150   41.7900 C   0  0  0  0  0  0  0  0  0  0  0  0
   49.0410   34.3920   42.2390 C   0  0  2  0  0  0  0  0  0  0  0  0
   45.7590   34.0100   44.9360 C   0  0  0  0  0  0  0  0  0  0  0  0
   44.7580   35.0210   45.0150 C   0  0  0  0  0  0  0  0  0  0  0  0
   44.7430   35.9960   44.0080 C   0  0  0  0  0  0  0  0  0  0  0  0
   45.6850   35.9070   43.0260 N   0  0  0  0  0  0  0  0  0  0  0  0
   46.6210   34.9300   42.9830 C   0  0  0  0  0  0  0  0  0  0  0  0
   46.6540   33.9890   43.9370 N   0  0  0  0  0  0  0  0  0  0  0  0
   49.7520   33.5230   41.3700 N   0  0  0  0  0  0  0  0  0  0  0  0
   48.9730   32.7820   40.4540 C   0  0  0  0  0  0  0  0  0  0  0  0
   49.6190   31.5720   39.8770 C   0  0  0  0  0  0  0  0  0  0  0  0
   51.0650   31.6540   39.8550 N   0  0  0  0  0  0  0  0  0  0  0  0
   51.4380   31.7190   41.2760 C   0  0  0  0  0  0  0  0  0  0  0  0
   50.8830   32.9210   41.9540 C   0  0  0  0  0  0  0  0  0  0  0  0
   46.8415   34.5741   41.2036 H   0  0  0  0  0  0  0  0  0  0  0  0
   49.0558   36.1572   40.7966 H   0  0  0  0  0  0  0  0  0  0  0  0
   48.9299   36.8133   42.2064 H   0  0  0  0  0  0  0  0  0  0  0  0
   49.5194   33.9046   43.1013 H   0  0  0  0  0  0  0  0  0  0  0  0
   45.7987   33.2301   45.7107 H   0  0  0  0  0  0  0  0  0  0  0  0
   44.0249   35.0358   45.8350 H   0  0  0  0  0  0  0  0  0  0  0  0
   43.9974   36.8047   44.0098 H   0  0  0  0  0  0  0  0  0  0  0  0
   48.0585   32.4598   40.9735 H   0  0  0  0  0  0  0  0  0  0  0  0
   48.7940   33.4564   39.6036 H   0  0  0  0  0  0  0  0  0  0  0  0
   49.3273   30.6989   40.4792 H   0  0  0  0  0  0  0  0  0  0  0  0
   49.2801   31.4858   38.8341 H   0  0  0  0  0  0  0  0  0  0  0  0
   51.4724   30.8208   39.4071 H   0  0  0  0  0  0  0  0  0  0  0  0
   51.0568   30.8201   41.7827 H   0  0  0  0  0  0  0  0  0  0  0  0
   52.5349   31.7790   41.3322 H   0  0  0  0  0  0  0  0  0  0  0  0
   51.6799   33.6784   41.9900 H   0  0  0  0  0  0  0  0  0  0  0  0
   50.5386   32.5605   42.9345 H   0  0  0  0  0  0  0  0  0  0  0  0
  1  3  1  0
  1  8  1  0
  2  1  1  0
  2  3  1  0
  4  5  2  0
  6  5  1  0
  7  6  2  0
  8  7  1  0
  8  9  2  0
  9  4  1  0
 10 15  1  0
 10  3  1  0
 11 10  1  0
 12 11  1  0
 13 12  1  0
 13 14  1  0
 14 15  1  0
  1 16  1  6
  2 17  1  0
  2 18  1  0
  3 19  1  1
  4 20  1  0
  5 21  1  0
  6 22  1  0
 11 23  1  0
 11 24  1  0
 12 25  1  0
 12 26  1  0
 13 27  1  0
 14 28  1  0
 14 29  1  0
 15 30  1  0
 15 31  1  0
M  ISO  8  16  13  17  13  18  13  19  13  20  14  21  14  22  14  23  13
M  ISO  8  24  13  25  13  26  13  27   5  28  13  29  13  30  13  31  13
M  END
>  <minimizedAffinity>  (1) 
-4.63028908

>  <minimizedRMSD>  (1) 
1.45373499

$$$$
