
     RDKit          3D

 24 26  0  0  1  0  0  0  0  0999 V2000
   47.4830   34.4400   42.2510 C   0  0  1  0  0  0  0  0  0  0  0  0
   48.3620   35.4400   41.6840 C   0  0  0  0  0  0  0  0  0  0  0  0
   48.9400   34.4060   42.6560 C   0  0  2  0  0  0  0  0  0  0  0  0
   45.4240   34.2010   45.2890 C   0  0  0  0  0  0  0  0  0  0  0  0
   44.5630   35.3310   45.1740 C   0  0  0  0  0  0  0  0  0  0  0  0
   44.6810   36.1620   44.0690 C   0  0  0  0  0  0  0  0  0  0  0  0
   45.6200   35.8500   43.1490 N   0  0  0  0  0  0  0  0  0  0  0  0
   46.4470   34.7590   43.2670 C   0  0  0  0  0  0  0  0  0  0  0  0
   46.3470   33.9480   44.3230 N   0  0  0  0  0  0  0  0  0  0  0  0
   49.8560   33.4610   42.0040 C   0  0  0  0  0  0  0  0  0  0  0  0
   49.5140   32.5000   41.0510 C   0  0  0  0  0  0  0  0  0  0  0  0
   50.6570   31.8170   40.6910 C   0  0  0  0  0  0  0  0  0  0  0  0
   51.6700   32.3660   41.4240 N   0  0  0  0  0  0  0  0  0  0  0  0
   51.1810   33.3350   42.1950 N   0  0  0  0  0  0  0  0  0  0  0  0
   46.7779   33.7269   41.7990 H   0  0  0  0  0  0  0  0  0  0  0  0
   48.6255   35.3955   40.6170 H   0  0  0  0  0  0  0  0  0  0  0  0
   48.3547   36.5391   41.6401 H   0  0  0  0  0  0  0  0  0  0  0  0
   49.4567   34.3672   43.6263 H   0  0  0  0  0  0  0  0  0  0  0  0
   45.3418   33.5334   46.1594 H   0  0  0  0  0  0  0  0  0  0  0  0
   43.8141   35.5418   45.9517 H   0  0  0  0  0  0  0  0  0  0  0  0
   44.0336   37.0428   43.9465 H   0  0  0  0  0  0  0  0  0  0  0  0
   48.5042   32.3182   40.6544 H   0  0  0  0  0  0  0  0  0  0  0  0
   50.7364   30.9971   39.9620 H   0  0  0  0  0  0  0  0  0  0  0  0
   52.6576   32.0759   41.3863 H   0  0  0  0  0  0  0  0  0  0  0  0
  1  3  1  0
  1  8  1  0
  2  1  1  0
  2  3  1  0
  5  4  2  0
  6  5  1  0
  7  8  1  0
  7  6  2  0
  8  9  2  0
  9  4  1  0
 10 14  2  0
 10  3  1  0
 11 10  1  0
 12 11  2  0
 12 13  1  0
 13 14  1  0
  1 15  1  6
  2 16  1  0
  2 17  1  0
  3 18  1  1
  4 19  1  0
  5 20  1  0
  6 21  1  0
 11 22  1  0
 12 23  1  0
 13 24  1  0
M  ISO  8  15  13  16  13  17  13  18  13  19  14  20  14  21  14  22  14
M  ISO  2  23  14  24   9
M  END
>  <minimizedAffinity>  (1) 
-4.94769382

>  <minimizedRMSD>  (1) 
1.49377704

$$$$
