
     RDKit          3D

 19 20  0  0  1  0  0  0  0  0999 V2000
   48.2620   34.3810   42.2010 C   0  0  1  0  0  0  0  0  0  0  0  0
   48.9210   35.4490   41.4760 C   0  0  0  0  0  0  0  0  0  0  0  0
   49.6170   34.8470   42.6980 C   0  0  2  0  0  0  0  0  0  0  0  0
   45.7990   33.9580   44.8940 C   0  0  0  0  0  0  0  0  0  0  0  0
   44.8280   34.9670   44.6280 C   0  0  0  0  0  0  0  0  0  0  0  0
   45.0480   35.7850   43.5030 C   0  0  0  0  0  0  0  0  0  0  0  0
   46.1670   35.5680   42.7380 N   0  0  0  0  0  0  0  0  0  0  0  0
   47.0560   34.5910   43.0410 C   0  0  0  0  0  0  0  0  0  0  0  0
   46.8900   33.7910   44.0970 N   0  0  0  0  0  0  0  0  0  0  0  0
   50.8100   34.1240   42.3600 N   0  0  0  0  0  0  0  0  0  0  0  0
   47.8284   33.4215   41.8827 H   0  0  0  0  0  0  0  0  0  0  0  0
   49.3227   35.2600   40.4696 H   0  0  0  0  0  0  0  0  0  0  0  0
   48.6351   36.4678   41.1755 H   0  0  0  0  0  0  0  0  0  0  0  0
   49.9924   35.1500   43.6866 H   0  0  0  0  0  0  0  0  0  0  0  0
   45.6636   33.2986   45.7640 H   0  0  0  0  0  0  0  0  0  0  0  0
   43.9466   35.1007   45.2724 H   0  0  0  0  0  0  0  0  0  0  0  0
   44.3368   36.5826   43.2422 H   0  0  0  0  0  0  0  0  0  0  0  0
   51.2909   33.8325   43.2229 H   0  0  0  0  0  0  0  0  0  0  0  0
   50.5617   33.2911   41.8073 H   0  0  0  0  0  0  0  0  0  0  0  0
  1  3  1  0
  1  8  1  0
  2  1  1  0
  2  3  1  0
  5  4  2  0
  6  5  1  0
  7  8  1  0
  7  6  2  0
  8  9  2  0
  9  4  1  0
 10  3  1  0
  1 11  1  6
  2 12  1  0
  2 13  1  0
  3 14  1  1
  4 15  1  0
  5 16  1  0
  6 17  1  0
 10 18  1  0
 10 19  1  0
M  ISO  8  11  13  12  13  13  13  14  13  15  14  16  14  17  14  18   5
M  ISO  1  19   5
M  END
>  <minimizedAffinity>  (1) 
-4.17206383

>  <minimizedRMSD>  (1) 
0.295734823

$$$$
