
     RDKit          3D

 36 40  0  0  1  0  0  0  0  0999 V2000
   47.6180   34.5110   42.1770 C   0  0  1  0  0  0  0  0  0  0  0  0
   48.4940   35.5080   41.6200 C   0  0  0  0  0  0  0  0  0  0  0  0
   49.0580   34.4450   42.5870 C   0  0  2  0  0  0  0  0  0  0  0  0
   45.5100   34.1750   45.1520 C   0  0  0  0  0  0  0  0  0  0  0  0
   44.5990   35.2570   45.0590 C   0  0  0  0  0  0  0  0  0  0  0  0
   44.7350   36.0940   43.9480 C   0  0  0  0  0  0  0  0  0  0  0  0
   45.7260   35.8240   43.0310 N   0  0  0  0  0  0  0  0  0  0  0  0
   46.5580   34.7760   43.1810 C   0  0  0  0  0  0  0  0  0  0  0  0
   46.4710   33.9540   44.2150 N   0  0  0  0  0  0  0  0  0  0  0  0
   49.8790   33.4130   41.8970 C   0  0  0  0  0  0  0  0  0  0  0  0
   51.0520   32.9410   42.3470 N   0  0  0  0  0  0  0  0  0  0  0  0
   51.5440   32.0410   41.5730 O   0  0  0  0  0  0  0  0  0  0  0  0
   50.6990   31.8980   40.5840 C   0  0  0  0  0  0  0  0  0  0  0  0
   49.6530   32.7310   40.7470 N   0  0  0  0  0  0  0  0  0  0  0  0
   50.8590   30.9740   39.4660 C   0  0  0  0  0  0  0  0  0  0  0  0
   49.9300   30.0730   38.9920 C   0  0  0  0  0  0  0  0  0  0  0  0
   50.4600   29.3960   37.9360 N   0  0  0  0  0  0  0  0  0  0  0  0
   51.7190   29.8330   37.7080 C   0  0  0  0  0  0  0  0  0  0  0  0
   52.7060   29.5080   36.7840 C   0  0  0  0  0  0  0  0  0  0  0  0
   53.9290   30.1510   36.8050 C   0  0  0  0  0  0  0  0  0  0  0  0
   54.2190   31.1370   37.7360 C   0  0  0  0  0  0  0  0  0  0  0  0
   53.2040   31.4170   38.6240 C   0  0  0  0  0  0  0  0  0  0  0  0
   51.9680   30.8200   38.6630 C   0  0  0  0  0  0  0  0  0  0  0  0
   46.9034   33.8197   41.7064 H   0  0  0  0  0  0  0  0  0  0  0  0
   48.7566   35.4740   40.5523 H   0  0  0  0  0  0  0  0  0  0  0  0
   48.4976   36.6075   41.5867 H   0  0  0  0  0  0  0  0  0  0  0  0
   49.6011   34.4175   43.5432 H   0  0  0  0  0  0  0  0  0  0  0  0
   45.4374   33.4912   46.0106 H   0  0  0  0  0  0  0  0  0  0  0  0
   43.8252   35.4290   45.8216 H   0  0  0  0  0  0  0  0  0  0  0  0
   44.0623   36.9531   43.8087 H   0  0  0  0  0  0  0  0  0  0  0  0
   48.9201   29.9243   39.4019 H   0  0  0  0  0  0  0  0  0  0  0  0
   49.9769   28.6647   37.3950 H   0  0  0  0  0  0  0  0  0  0  0  0
   52.5114   28.7318   36.0293 H   0  0  0  0  0  0  0  0  0  0  0  0
   54.6927   29.8734   36.0636 H   0  0  0  0  0  0  0  0  0  0  0  0
   55.1879   31.6570   37.7633 H   0  0  0  0  0  0  0  0  0  0  0  0
   53.4030   32.1951   39.3756 H   0  0  0  0  0  0  0  0  0  0  0  0
  1  3  1  0
  1  8  1  0
  2  1  1  0
  2  3  1  0
  5  4  2  0
  6  5  1  0
  7  8  1  0
  7  6  2  0
  8  9  2  0
  9  4  1  0
 10 11  2  0
 10  3  1  0
 12 11  1  0
 13 14  2  0
 13 12  1  0
 14 10  1  0
 15 13  1  0
 16 15  2  0
 17 16  1  0
 18 17  1  0
 18 23  2  0
 19 20  2  0
 19 18  1  0
 20 21  1  0
 21 22  2  0
 22 23  1  0
 23 15  1  0
  1 24  1  6
  2 25  1  0
  2 26  1  0
  3 27  1  1
  4 28  1  0
  5 29  1  0
  6 30  1  0
 16 31  1  0
 17 32  1  0
 19 33  1  0
 20 34  1  0
 21 35  1  0
 22 36  1  0
M  ISO  8  24  13  25  13  26  13  27  13  28  14  29  14  30  14  31  14
M  ISO  5  32   9  33  14  34  14  35  14  36  14
M  END
>  <minimizedAffinity>  (1) 
-5.4814105

>  <minimizedRMSD>  (1) 
0.744404912

$$$$
