
     RDKit          3D

 36 40  0  0  1  0  0  0  0  0999 V2000
   49.8260   33.3210   41.8630 C   0  0  0  0  0  0  0  0  0  0  0  0
   51.0950   33.0020   42.1280 N   0  0  0  0  0  0  0  0  0  0  0  0
   51.5340   32.0530   41.3930 O   0  0  0  0  0  0  0  0  0  0  0  0
   50.5610   31.6960   40.5990 C   0  0  0  0  0  0  0  0  0  0  0  0
   49.5220   32.4750   40.8930 N   0  0  0  0  0  0  0  0  0  0  0  0
   50.7960   30.6200   39.6470 C   0  0  0  0  0  0  0  0  0  0  0  0
   49.9600   29.5880   39.5040 N   0  0  0  0  0  0  0  0  0  0  0  0
   50.1260   28.5720   38.6450 C   0  0  0  0  0  0  0  0  0  0  0  0
   51.2100   28.5210   37.8210 N   0  0  0  0  0  0  0  0  0  0  0  0
   52.1200   29.5320   37.8950 C   0  0  0  0  0  0  0  0  0  0  0  0
   53.2240   29.5050   37.0740 C   0  0  0  0  0  0  0  0  0  0  0  0
   54.1680   30.5100   37.1200 C   0  0  0  0  0  0  0  0  0  0  0  0
   53.9470   31.5470   38.0340 C   0  0  0  0  0  0  0  0  0  0  0  0
   52.8370   31.5160   38.8170 C   0  0  0  0  0  0  0  0  0  0  0  0
   51.8760   30.5370   38.8030 C   0  0  0  0  0  0  0  0  0  0  0  0
   47.5870   34.4670   42.1310 C   0  0  1  0  0  0  0  0  0  0  0  0
   48.4870   35.4440   41.5730 C   0  0  0  0  0  0  0  0  0  0  0  0
   49.0270   34.3650   42.5370 C   0  0  2  0  0  0  0  0  0  0  0  0
   45.5030   34.2130   45.1360 C   0  0  0  0  0  0  0  0  0  0  0  0
   44.6140   35.3210   45.0310 C   0  0  0  0  0  0  0  0  0  0  0  0
   44.7570   36.1370   43.9060 C   0  0  0  0  0  0  0  0  0  0  0  0
   45.7340   35.8270   42.9840 N   0  0  0  0  0  0  0  0  0  0  0  0
   46.5460   34.7600   43.1450 C   0  0  0  0  0  0  0  0  0  0  0  0
   46.4460   33.9590   44.1940 N   0  0  0  0  0  0  0  0  0  0  0  0
   49.3763   27.7681   38.6049 H   0  0  0  0  0  0  0  0  0  0  0  0
   53.3558   28.6697   36.3706 H   0  0  0  0  0  0  0  0  0  0  0  0
   55.0540   30.4970   36.4682 H   0  0  0  0  0  0  0  0  0  0  0  0
   54.6637   32.3773   38.1173 H   0  0  0  0  0  0  0  0  0  0  0  0
   52.6968   32.3477   39.5231 H   0  0  0  0  0  0  0  0  0  0  0  0
   46.8538   33.7960   41.6596 H   0  0  0  0  0  0  0  0  0  0  0  0
   48.7460   35.4055   40.5046 H   0  0  0  0  0  0  0  0  0  0  0  0
   48.5178   36.5431   41.5417 H   0  0  0  0  0  0  0  0  0  0  0  0
   49.5707   34.3226   43.4923 H   0  0  0  0  0  0  0  0  0  0  0  0
   45.4228   33.5442   46.0056 H   0  0  0  0  0  0  0  0  0  0  0  0
   43.8522   35.5242   45.7981 H   0  0  0  0  0  0  0  0  0  0  0  0
   44.1032   37.0093   43.7588 H   0  0  0  0  0  0  0  0  0  0  0  0
  1  2  2  0
  1 18  1  0
  3  2  1  0
  4  5  2  0
  4  3  1  0
  5  1  1  0
  6  4  1  0
  7  6  2  0
  8  7  1  0
  9 10  1  0
  9  8  2  0
 10 15  2  0
 11 12  2  0
 11 10  1  0
 12 13  1  0
 13 14  2  0
 15 14  1  0
 15  6  1  0
 16 18  1  0
 16 23  1  0
 17 16  1  0
 17 18  1  0
 20 19  2  0
 21 20  1  0
 22 23  1  0
 22 21  2  0
 23 24  2  0
 24 19  1  0
  8 25  1  0
 11 26  1  0
 12 27  1  0
 13 28  1  0
 14 29  1  0
 16 30  1  6
 17 31  1  0
 17 32  1  0
 18 33  1  1
 19 34  1  0
 20 35  1  0
 21 36  1  0
M  ISO  8  25  14  26  14  27  14  28  14  29  14  30  13  31  13  32  13
M  ISO  4  33  13  34  14  35  14  36  14
M  END
>  <minimizedAffinity>  (1) 
-5.57291555

>  <minimizedRMSD>  (1) 
0.357566565

$$$$
