
     RDKit          3D

 35 39  0  0  1  0  0  0  0  0999 V2000
   49.8610   33.4210   41.8390 C   0  0  0  0  0  0  0  0  0  0  0  0
   51.1160   33.0700   42.1730 N   0  0  0  0  0  0  0  0  0  0  0  0
   51.5780   32.1570   41.3880 O   0  0  0  0  0  0  0  0  0  0  0  0
   50.6420   31.8950   40.5280 C   0  0  0  0  0  0  0  0  0  0  0  0
   49.5460   32.6570   40.7640 N   0  0  0  0  0  0  0  0  0  0  0  0
   50.8650   30.9090   39.5160 N   0  0  0  0  0  0  0  0  0  0  0  0
   50.0180   29.9140   39.1690 C   0  0  0  0  0  0  0  0  0  0  0  0
   50.5370   29.1640   38.1790 N   0  0  0  0  0  0  0  0  0  0  0  0
   51.7470   29.6750   37.8680 C   0  0  0  0  0  0  0  0  0  0  0  0
   52.6690   29.2660   36.9270 C   0  0  0  0  0  0  0  0  0  0  0  0
   53.8080   29.9780   36.8390 N   0  0  0  0  0  0  0  0  0  0  0  0
   53.9910   31.0380   37.6630 C   0  0  0  0  0  0  0  0  0  0  0  0
   53.0820   31.4470   38.5960 N   0  0  0  0  0  0  0  0  0  0  0  0
   51.9300   30.7540   38.7080 C   0  0  0  0  0  0  0  0  0  0  0  0
   47.6210   34.5470   42.1680 C   0  0  1  0  0  0  0  0  0  0  0  0
   48.5140   35.5540   41.6560 C   0  0  0  0  0  0  0  0  0  0  0  0
   49.0570   34.4370   42.5710 C   0  0  2  0  0  0  0  0  0  0  0  0
   45.5270   34.1460   45.1450 C   0  0  0  0  0  0  0  0  0  0  0  0
   44.6010   35.2350   45.0600 C   0  0  0  0  0  0  0  0  0  0  0  0
   44.7300   36.0910   43.9590 C   0  0  0  0  0  0  0  0  0  0  0  0
   45.7190   35.8280   43.0550 N   0  0  0  0  0  0  0  0  0  0  0  0
   46.5660   34.7850   43.1820 C   0  0  0  0  0  0  0  0  0  0  0  0
   46.4830   33.9500   44.2060 N   0  0  0  0  0  0  0  0  0  0  0  0
   52.3990   28.1390   36.1000 N   0  0  0  0  0  0  0  0  0  0  0  0
   49.0361   29.7405   39.6335 H   0  0  0  0  0  0  0  0  0  0  0  0
   54.9301   31.6040   37.5748 H   0  0  0  0  0  0  0  0  0  0  0  0
   46.8946   33.8895   41.6680 H   0  0  0  0  0  0  0  0  0  0  0  0
   48.7754   35.5652   40.5876 H   0  0  0  0  0  0  0  0  0  0  0  0
   48.5377   36.6536   41.6736 H   0  0  0  0  0  0  0  0  0  0  0  0
   49.6002   34.3562   43.5241 H   0  0  0  0  0  0  0  0  0  0  0  0
   45.4601   33.4508   45.9948 H   0  0  0  0  0  0  0  0  0  0  0  0
   43.8249   35.3918   45.8235 H   0  0  0  0  0  0  0  0  0  0  0  0
   44.0549   36.9493   43.8265 H   0  0  0  0  0  0  0  0  0  0  0  0
   53.0905   27.8373   35.3988 H   0  0  0  0  0  0  0  0  0  0  0  0
   51.5122   27.6253   36.2029 H   0  0  0  0  0  0  0  0  0  0  0  0
  1  2  2  0
  1 17  1  0
  3  2  1  0
  4  5  2  0
  4  3  1  0
  5  1  1  0
  6  4  1  0
  7  6  1  0
  8  7  2  0
  9  8  1  0
  9 14  2  0
 10  9  1  0
 11 10  2  0
 11 12  1  0
 12 13  2  0
 13 14  1  0
 14  6  1  0
 15 17  1  0
 15 22  1  0
 16 15  1  0
 16 17  1  0
 19 18  2  0
 20 19  1  0
 21 22  1  0
 21 20  2  0
 22 23  2  0
 23 18  1  0
 24 10  1  0
  7 25  1  0
 12 26  1  0
 15 27  1  6
 16 28  1  0
 16 29  1  0
 17 30  1  1
 18 31  1  0
 19 32  1  0
 20 33  1  0
 24 34  1  0
 24 35  1  0
M  ISO  8  25  14  26  14  27  13  28  13  29  13  30  13  31  14  32  14
M  ISO  1  33  14
M  END
>  <minimizedAffinity>  (1) 
-5.64502954

>  <minimizedRMSD>  (1) 
0.278149962

$$$$
