
     RDKit          3D

 35 38  0  0  1  0  0  0  0  0999 V2000
   47.5880   34.5400   42.1780 C   0  0  1  0  0  0  0  0  0  0  0  0
   48.4950   35.5300   41.6580 C   0  0  0  0  0  0  0  0  0  0  0  0
   49.0260   34.4020   42.5770 C   0  0  2  0  0  0  0  0  0  0  0  0
   49.8080   33.3750   41.8360 C   0  0  0  0  0  0  0  0  0  0  0  0
   51.0900   33.0670   42.1110 N   0  0  0  0  0  0  0  0  0  0  0  0
   51.5350   32.1480   41.3230 O   0  0  0  0  0  0  0  0  0  0  0  0
   50.5620   31.8350   40.5190 C   0  0  0  0  0  0  0  0  0  0  0  0
   49.4460   32.5790   40.8000 N   0  0  0  0  0  0  0  0  0  0  0  0
   50.6040   30.8470   39.4660 N   0  0  0  0  0  0  0  0  0  0  0  0
   51.0210   31.1730   38.2390 C   0  0  0  0  0  0  0  0  0  0  0  0
   51.0370   30.1730   37.2650 C   0  0  0  0  0  0  0  0  0  0  0  0
   51.5080   30.5750   35.9110 C   0  0  0  0  0  0  0  0  0  0  0  0
   50.6290   28.8970   37.5970 C   0  0  0  0  0  0  0  0  0  0  0  0
   50.6700   28.0390   36.6680 O   0  0  0  0  0  0  0  0  0  0  0  0
   50.2110   28.5770   38.8340 N   0  0  0  0  0  0  0  0  0  0  0  0
   50.2150   29.5900   39.7480 C   0  0  0  0  0  0  0  0  0  0  0  0
   49.8300   29.3180   40.9060 O   0  0  0  0  0  0  0  0  0  0  0  0
   45.5140   34.1690   45.1720 C   0  0  0  0  0  0  0  0  0  0  0  0
   44.6020   35.2560   45.0880 C   0  0  0  0  0  0  0  0  0  0  0  0
   44.7250   36.1070   43.9850 C   0  0  0  0  0  0  0  0  0  0  0  0
   45.7070   35.8460   43.0560 N   0  0  0  0  0  0  0  0  0  0  0  0
   46.5400   34.7920   43.1980 C   0  0  0  0  0  0  0  0  0  0  0  0
   46.4690   33.9580   44.2210 N   0  0  0  0  0  0  0  0  0  0  0  0
   46.8465   33.8975   41.6806 H   0  0  0  0  0  0  0  0  0  0  0  0
   48.7505   35.5336   40.5881 H   0  0  0  0  0  0  0  0  0  0  0  0
   48.5376   36.6291   41.6721 H   0  0  0  0  0  0  0  0  0  0  0  0
   49.5705   34.3106   43.5284 H   0  0  0  0  0  0  0  0  0  0  0  0
   51.3420   32.1984   38.0035 H   0  0  0  0  0  0  0  0  0  0  0  0
   52.3414   31.2863   36.0089 H   0  0  0  0  0  0  0  0  0  0  0  0
   51.8484   29.6847   35.3619 H   0  0  0  0  0  0  0  0  0  0  0  0
   50.6822   31.0510   35.3619 H   0  0  0  0  0  0  0  0  0  0  0  0
   49.9059   27.6238   39.0773 H   0  0  0  0  0  0  0  0  0  0  0  0
   45.4480   33.4796   46.0266 H   0  0  0  0  0  0  0  0  0  0  0  0
   43.8330   35.4207   45.8571 H   0  0  0  0  0  0  0  0  0  0  0  0
   44.0508   36.9674   43.8622 H   0  0  0  0  0  0  0  0  0  0  0  0
  1  3  1  0
  1 22  1  0
  2  1  1  0
  2  3  1  0
  4  5  2  0
  4  3  1  0
  6  5  1  0
  7  8  2  0
  7  6  1  0
  8  4  1  0
  9 16  1  0
  9  7  1  0
 10  9  1  0
 11 13  1  0
 11 10  2  0
 12 11  1  0
 13 15  1  0
 14 13  2  0
 15 16  1  0
 16 17  2  0
 19 18  2  0
 20 19  1  0
 21 22  1  0
 21 20  2  0
 22 23  2  0
 23 18  1  0
  1 24  1  6
  2 25  1  0
  2 26  1  0
  3 27  1  1
 10 28  1  0
 12 29  1  0
 12 30  1  0
 12 31  1  0
 15 32  1  0
 18 33  1  0
 19 34  1  0
 20 35  1  0
M  ISO  8  24  13  25  13  26  13  27  13  28  14  29   8  30   8  31   8
M  ISO  4  32   9  33  14  34  14  35  14
M  END
>  <minimizedAffinity>  (1) 
-5.4030385

>  <minimizedRMSD>  (1) 
0.170450017

$$$$
