
     RDKit          3D

 38 41  0  0  1  0  0  0  0  0999 V2000
   47.5980   34.5430   42.1530 C   0  0  1  0  0  0  0  0  0  0  0  0
   48.5190   35.5340   41.6630 C   0  0  0  0  0  0  0  0  0  0  0  0
   49.0310   34.3830   42.5570 C   0  0  2  0  0  0  0  0  0  0  0  0
   45.5270   34.1630   45.1510 C   0  0  0  0  0  0  0  0  0  0  0  0
   44.6090   35.2560   45.0730 C   0  0  0  0  0  0  0  0  0  0  0  0
   44.7310   36.1060   43.9700 C   0  0  0  0  0  0  0  0  0  0  0  0
   45.7120   35.8440   43.0430 N   0  0  0  0  0  0  0  0  0  0  0  0
   46.5520   34.7910   43.1760 C   0  0  0  0  0  0  0  0  0  0  0  0
   46.4780   33.9520   44.2050 N   0  0  0  0  0  0  0  0  0  0  0  0
   49.8040   33.3560   41.7980 C   0  0  0  0  0  0  0  0  0  0  0  0
   51.0700   33.0050   42.0850 N   0  0  0  0  0  0  0  0  0  0  0  0
   51.5080   32.0970   41.2950 O   0  0  0  0  0  0  0  0  0  0  0  0
   50.5380   31.8240   40.4630 C   0  0  0  0  0  0  0  0  0  0  0  0
   49.4460   32.5880   40.7370 N   0  0  0  0  0  0  0  0  0  0  0  0
   50.5220   30.8420   39.3450 C   0  0  0  0  0  0  0  0  0  0  0  0
   50.7490   31.6310   38.0690 C   0  0  0  0  0  0  0  0  0  0  0  0
   52.2270   31.7400   37.7910 C   0  0  0  0  0  0  0  0  0  0  0  0
   52.8830   30.4000   37.5920 C   0  0  0  0  0  0  0  0  0  0  0  0
   51.9930   29.3160   38.1500 C   0  0  0  0  0  0  0  0  0  0  0  0
   51.5390   29.7350   39.5240 C   0  0  0  0  0  0  0  0  0  0  0  0
   46.8539   33.9183   41.6371 H   0  0  0  0  0  0  0  0  0  0  0  0
   48.7823   35.5595   40.5953 H   0  0  0  0  0  0  0  0  0  0  0  0
   48.5729   36.6319   41.7030 H   0  0  0  0  0  0  0  0  0  0  0  0
   49.5712   34.2680   43.5083 H   0  0  0  0  0  0  0  0  0  0  0  0
   45.4610   33.4714   46.0038 H   0  0  0  0  0  0  0  0  0  0  0  0
   43.8426   35.4205   45.8447 H   0  0  0  0  0  0  0  0  0  0  0  0
   44.0565   36.9661   43.8463 H   0  0  0  0  0  0  0  0  0  0  0  0
   49.5542   30.3202   39.3118 H   0  0  0  0  0  0  0  0  0  0  0  0
   50.2566   31.1177   37.2299 H   0  0  0  0  0  0  0  0  0  0  0  0
   50.3265   32.6398   38.1862 H   0  0  0  0  0  0  0  0  0  0  0  0
   52.3701   32.3402   36.8803 H   0  0  0  0  0  0  0  0  0  0  0  0
   52.6952   32.2112   38.6677 H   0  0  0  0  0  0  0  0  0  0  0  0
   53.0431   30.2261   36.5177 H   0  0  0  0  0  0  0  0  0  0  0  0
   53.8510   30.3846   38.1143 H   0  0  0  0  0  0  0  0  0  0  0  0
   51.1195   29.1789   37.4957 H   0  0  0  0  0  0  0  0  0  0  0  0
   52.5444   28.3659   38.2072 H   0  0  0  0  0  0  0  0  0  0  0  0
   52.3960   30.1022   40.1078 H   0  0  0  0  0  0  0  0  0  0  0  0
   51.0973   28.8845   40.0640 H   0  0  0  0  0  0  0  0  0  0  0  0
  1  3  1  0
  1  8  1  0
  2  1  1  0
  2  3  1  0
  5  4  2  0
  6  5  1  0
  7  8  1  0
  7  6  2  0
  8  9  2  0
  9  4  1  0
 10 11  2  0
 10  3  1  0
 12 11  1  0
 13 14  2  0
 13 12  1  0
 14 10  1  0
 15 20  1  0
 15 13  1  0
 16 15  1  0
 17 16  1  0
 18 17  1  0
 18 19  1  0
 19 20  1  0
  1 21  1  6
  2 22  1  0
  2 23  1  0
  3 24  1  1
  4 25  1  0
  5 26  1  0
  6 27  1  0
 15 28  1  0
 16 29  1  0
 16 30  1  0
 17 31  1  0
 17 32  1  0
 18 33  1  0
 18 34  1  0
 19 35  1  0
 19 36  1  0
 20 37  1  0
 20 38  1  0
M  ISO  8  21  13  22  13  23  13  24  13  25  14  26  14  27  14  28  13
M  ISO  8  29  13  30  13  31  13  32  13  33  13  34  13  35  13  36  13
M  ISO  2  37  13  38  13
M  END
>  <minimizedAffinity>  (1) 
-5.20595217

>  <minimizedRMSD>  (1) 
0.672017992

$$$$
