
     RDKit          3D

 28 31  0  0  1  0  0  0  0  0999 V2000
   47.5950   34.5400   42.1690 C   0  0  1  0  0  0  0  0  0  0  0  0
   48.5070   35.5300   41.6540 C   0  0  0  0  0  0  0  0  0  0  0  0
   49.0340   34.4040   42.5700 C   0  0  2  0  0  0  0  0  0  0  0  0
   49.8110   33.3710   41.8230 C   0  0  0  0  0  0  0  0  0  0  0  0
   51.0790   33.0310   42.1070 N   0  0  0  0  0  0  0  0  0  0  0  0
   51.5170   32.1060   41.3320 O   0  0  0  0  0  0  0  0  0  0  0  0
   50.5400   31.8120   40.5110 C   0  0  0  0  0  0  0  0  0  0  0  0
   49.4580   32.5770   40.7820 N   0  0  0  0  0  0  0  0  0  0  0  0
   50.3840   30.8870   39.4310 N   0  0  0  0  0  0  0  0  0  0  0  0
   50.5280   29.5480   39.4950 C   0  0  0  0  0  0  0  0  0  0  0  0
   50.2940   29.0420   38.2520 N   0  0  0  0  0  0  0  0  0  0  0  0
   50.0090   30.1090   37.4570 C   0  0  0  0  0  0  0  0  0  0  0  0
   50.0680   31.2390   38.1970 N   0  0  0  0  0  0  0  0  0  0  0  0
   45.5150   34.1760   45.1600 C   0  0  0  0  0  0  0  0  0  0  0  0
   44.6000   35.2670   45.0730 C   0  0  0  0  0  0  0  0  0  0  0  0
   44.7310   36.1120   43.9670 C   0  0  0  0  0  0  0  0  0  0  0  0
   45.7170   35.8410   43.0470 N   0  0  0  0  0  0  0  0  0  0  0  0
   46.5470   34.7950   43.1870 C   0  0  0  0  0  0  0  0  0  0  0  0
   46.4680   33.9630   44.2140 N   0  0  0  0  0  0  0  0  0  0  0  0
   46.8544   33.8975   41.6702 H   0  0  0  0  0  0  0  0  0  0  0  0
   48.7660   35.5351   40.5850 H   0  0  0  0  0  0  0  0  0  0  0  0
   48.5506   36.6290   41.6706 H   0  0  0  0  0  0  0  0  0  0  0  0
   49.5793   34.3146   43.5212 H   0  0  0  0  0  0  0  0  0  0  0  0
   50.7883   28.9670   40.3920 H   0  0  0  0  0  0  0  0  0  0  0  0
   49.7691   30.0600   36.3846 H   0  0  0  0  0  0  0  0  0  0  0  0
   45.4477   33.4883   46.0159 H   0  0  0  0  0  0  0  0  0  0  0  0
   43.8287   35.4352   45.8391 H   0  0  0  0  0  0  0  0  0  0  0  0
   44.0607   36.9742   43.8354 H   0  0  0  0  0  0  0  0  0  0  0  0
  1  3  1  0
  1 18  1  0
  2  1  1  0
  2  3  1  0
  4  5  2  0
  4  3  1  0
  6  5  1  0
  7  8  2  0
  7  6  1  0
  8  4  1  0
  9 10  1  0
  9  7  1  0
 11 10  2  0
 12 13  2  0
 12 11  1  0
 13  9  1  0
 15 14  2  0
 16 15  1  0
 17 18  1  0
 17 16  2  0
 18 19  2  0
 19 14  1  0
  1 20  1  6
  2 21  1  0
  2 22  1  0
  3 23  1  1
 10 24  1  0
 12 25  1  0
 14 26  1  0
 15 27  1  0
 16 28  1  0
M  ISO  8  20  13  21  13  22  13  23  13  24  14  25  14  26  14  27  14
M  ISO  1  28  14
M  END
>  <minimizedAffinity>  (1) 
-5.06587601

>  <minimizedRMSD>  (1) 
0.128414899

$$$$
