
     RDKit          3D

 22 23  0  0  0  0  0  0  0  0999 V2000
   45.1620   34.4430   44.9440 C   0  0  0  0  0  0  0  0  0  0  0  0
   45.0650   33.6630   43.7790 C   0  0  0  0  0  0  0  0  0  0  0  0
   45.5710   32.3580   43.7850 C   0  0  0  0  0  0  0  0  0  0  0  0
   46.1370   31.9090   44.9330 N   0  0  0  0  0  0  0  0  0  0  0  0
   46.2130   32.6790   46.0290 C   0  0  0  0  0  0  0  0  0  0  0  0
   45.7300   33.9390   46.0390 N   0  0  0  0  0  0  0  0  0  0  0  0
   44.4390   34.2910   42.6570 N   0  0  0  0  0  0  0  0  0  0  0  0
   44.2780   35.5890   42.3240 C   0  0  0  0  0  0  0  0  0  0  0  0
   43.6120   35.6840   41.1520 N   0  0  0  0  0  0  0  0  0  0  0  0
   43.3610   34.4160   40.7630 C   0  0  0  0  0  0  0  0  0  0  0  0
   43.8740   33.5960   41.6950 N   0  0  0  0  0  0  0  0  0  0  0  0
   42.6360   34.0250   39.5080 C   0  0  0  0  0  0  0  0  0  0  0  0
   42.1450   35.2760   38.8390 C   0  0  0  0  0  0  0  0  0  0  0  0
   44.7688   35.4703   44.9520 H   0  0  0  0  0  0  0  0  0  0  0  0
   45.5118   31.7197   42.8911 H   0  0  0  0  0  0  0  0  0  0  0  0
   46.6793   32.2744   46.9394 H   0  0  0  0  0  0  0  0  0  0  0  0
   44.6357   36.4427   42.9183 H   0  0  0  0  0  0  0  0  0  0  0  0
   43.3202   33.4872   38.8352 H   0  0  0  0  0  0  0  0  0  0  0  0
   41.7887   33.3662   39.7490 H   0  0  0  0  0  0  0  0  0  0  0  0
   41.8562   36.0118   39.6040 H   0  0  0  0  0  0  0  0  0  0  0  0
   42.9456   35.6946   38.2114 H   0  0  0  0  0  0  0  0  0  0  0  0
   41.2734   35.0383   38.2114 H   0  0  0  0  0  0  0  0  0  0  0  0
  1  6  2  0
  2  3  2  0
  2  1  1  0
  3  4  1  0
  4  5  2  0
  5  6  1  0
  7  2  1  0
  8  7  1  0
  9  8  2  0
 10  9  1  0
 10 11  2  0
 11  7  1  0
 12 10  1  0
 13 12  1  0
  1 14  1  0
  3 15  1  0
  5 16  1  0
  8 17  1  0
 12 18  1  0
 12 19  1  0
 13 20  1  0
 13 21  1  0
 13 22  1  0
M  ISO  8  14  14  15  14  16  14  17  14  18   8  19   8  20   8  21   8
M  ISO  1  22   8
M  END
>  <minimizedAffinity>  (1) 
-3.40047407

>  <minimizedRMSD>  (1) 
1.30897737

$$$$
