
     RDKit          3D

 28 30  0  0  1  0  0  0  0  0999 V2000
   47.5820   34.5290   42.1780 C   0  0  1  0  0  0  0  0  0  0  0  0
   48.4810   35.5210   41.6530 C   0  0  0  0  0  0  0  0  0  0  0  0
   49.0210   34.4050   42.5750 C   0  0  2  0  0  0  0  0  0  0  0  0
   45.5160   34.1730   45.1780 C   0  0  0  0  0  0  0  0  0  0  0  0
   44.6020   35.2540   45.1040 C   0  0  0  0  0  0  0  0  0  0  0  0
   44.7250   36.1010   43.9990 C   0  0  0  0  0  0  0  0  0  0  0  0
   45.7060   35.8410   43.0650 N   0  0  0  0  0  0  0  0  0  0  0  0
   46.5380   34.7940   43.1990 C   0  0  0  0  0  0  0  0  0  0  0  0
   46.4600   33.9660   44.2290 N   0  0  0  0  0  0  0  0  0  0  0  0
   49.8070   33.3770   41.8390 C   0  0  0  0  0  0  0  0  0  0  0  0
   51.0820   33.0570   42.1120 N   0  0  0  0  0  0  0  0  0  0  0  0
   51.5200   32.1250   41.3350 O   0  0  0  0  0  0  0  0  0  0  0  0
   50.5420   31.8130   40.5380 C   0  0  0  0  0  0  0  0  0  0  0  0
   49.4560   32.5650   40.8130 N   0  0  0  0  0  0  0  0  0  0  0  0
   50.5960   30.7750   39.4680 C   0  0  0  0  0  0  0  0  0  0  0  0
   51.2500   31.3180   38.1990 C   0  0  0  0  0  0  0  0  0  0  0  0
   46.8465   33.8741   41.6879 H   0  0  0  0  0  0  0  0  0  0  0  0
   48.7354   35.5208   40.5828 H   0  0  0  0  0  0  0  0  0  0  0  0
   48.5156   36.6204   41.6616 H   0  0  0  0  0  0  0  0  0  0  0  0
   49.5691   34.3247   43.5253 H   0  0  0  0  0  0  0  0  0  0  0  0
   45.4568   33.4817   46.0316 H   0  0  0  0  0  0  0  0  0  0  0  0
   43.8358   35.4177   45.8761 H   0  0  0  0  0  0  0  0  0  0  0  0
   44.0503   36.9611   43.8762 H   0  0  0  0  0  0  0  0  0  0  0  0
   51.1787   29.9158   39.8317 H   0  0  0  0  0  0  0  0  0  0  0  0
   49.5664   30.4731   39.2255 H   0  0  0  0  0  0  0  0  0  0  0  0
   52.0699   31.9988   38.4715 H   0  0  0  0  0  0  0  0  0  0  0  0
   51.6493   30.4821   37.6058 H   0  0  0  0  0  0  0  0  0  0  0  0
   50.5018   31.8642   37.6058 H   0  0  0  0  0  0  0  0  0  0  0  0
  1  3  1  0
  1  8  1  0
  2  1  1  0
  2  3  1  0
  5  4  2  0
  6  5  1  0
  7  8  1  0
  7  6  2  0
  8  9  2  0
  9  4  1  0
 10 11  2  0
 10  3  1  0
 12 11  1  0
 13 14  2  0
 13 12  1  0
 14 10  1  0
 15 13  1  0
 16 15  1  0
  1 17  1  6
  2 18  1  0
  2 19  1  0
  3 20  1  1
  4 21  1  0
  5 22  1  0
  6 23  1  0
 15 24  1  0
 15 25  1  0
 16 26  1  0
 16 27  1  0
 16 28  1  0
M  ISO  8  17  13  18  13  19  13  20  13  21  14  22  14  23  14  24   8
M  ISO  4  25   8  26   8  27   8  28   8
M  END
>  <minimizedAffinity>  (1) 
-4.686306

>  <minimizedRMSD>  (1) 
0.229964525

$$$$
