
     RDKit          3D

 25 27  0  0  1  0  0  0  0  0999 V2000
   47.5850   34.5140   42.1660 C   0  0  1  0  0  0  0  0  0  0  0  0
   48.4930   35.5010   41.6420 C   0  0  0  0  0  0  0  0  0  0  0  0
   49.0210   34.3770   42.5590 C   0  0  2  0  0  0  0  0  0  0  0  0
   45.5140   34.1800   45.1670 C   0  0  0  0  0  0  0  0  0  0  0  0
   44.6020   35.2800   45.0800 C   0  0  0  0  0  0  0  0  0  0  0  0
   44.7330   36.1170   43.9690 C   0  0  0  0  0  0  0  0  0  0  0  0
   45.7080   35.8360   43.0510 N   0  0  0  0  0  0  0  0  0  0  0  0
   46.5420   34.7820   43.1860 C   0  0  0  0  0  0  0  0  0  0  0  0
   46.4560   33.9600   44.2220 N   0  0  0  0  0  0  0  0  0  0  0  0
   49.8050   33.3460   41.8340 C   0  0  0  0  0  0  0  0  0  0  0  0
   51.0930   33.0580   42.0790 N   0  0  0  0  0  0  0  0  0  0  0  0
   51.5210   32.1090   41.3130 O   0  0  0  0  0  0  0  0  0  0  0  0
   50.5290   31.7580   40.5590 C   0  0  0  0  0  0  0  0  0  0  0  0
   49.4300   32.5010   40.8420 N   0  0  0  0  0  0  0  0  0  0  0  0
   50.5640   30.7040   39.5270 C   0  0  0  0  0  0  0  0  0  0  0  0
   46.8429   33.8667   41.6757 H   0  0  0  0  0  0  0  0  0  0  0  0
   48.7463   35.5019   40.5716 H   0  0  0  0  0  0  0  0  0  0  0  0
   48.5384   36.6000   41.6538 H   0  0  0  0  0  0  0  0  0  0  0  0
   49.5680   34.2886   43.5093 H   0  0  0  0  0  0  0  0  0  0  0  0
   45.4468   33.4955   46.0254 H   0  0  0  0  0  0  0  0  0  0  0  0
   43.8362   35.4574   45.8495 H   0  0  0  0  0  0  0  0  0  0  0  0
   44.0673   36.9824   43.8353 H   0  0  0  0  0  0  0  0  0  0  0  0
   50.5968   29.7171   40.0118 H   0  0  0  0  0  0  0  0  0  0  0  0
   49.6630   30.7747   38.8999 H   0  0  0  0  0  0  0  0  0  0  0  0
   51.4583   30.8344   38.8999 H   0  0  0  0  0  0  0  0  0  0  0  0
  1  3  1  0
  1  8  1  0
  2  1  1  0
  2  3  1  0
  5  4  2  0
  6  5  1  0
  7  8  1  0
  7  6  2  0
  8  9  2  0
  9  4  1  0
 10 11  2  0
 10  3  1  0
 12 11  1  0
 13 14  2  0
 13 12  1  0
 14 10  1  0
 15 13  1  0
  1 16  1  6
  2 17  1  0
  2 18  1  0
  3 19  1  1
  4 20  1  0
  5 21  1  0
  6 22  1  0
 15 23  1  0
 15 24  1  0
 15 25  1  0
M  ISO  8  16  13  17  13  18  13  19  13  20  14  21  14  22  14  23   8
M  ISO  2  24   8  25   8
M  END
>  <minimizedAffinity>  (1) 
-4.76104355

>  <minimizedRMSD>  (1) 
0.0172903277

$$$$
