
     RDKit          3D

 39 43  0  0  1  0  0  0  0  0999 V2000
   49.0790   33.1900   40.9810 C   0  0  0  0  0  0  0  0  0  0  0  0
   50.1350   32.3730   41.0110 N   0  0  0  0  0  0  0  0  0  0  0  0
   50.2730   31.7320   39.8970 O   0  0  0  0  0  0  0  0  0  0  0  0
   49.3300   32.1040   39.1200 C   0  0  0  0  0  0  0  0  0  0  0  0
   48.5400   33.0270   39.7490 N   0  0  0  0  0  0  0  0  0  0  0  0
   47.3520   34.7790   41.9320 C   0  0  1  0  0  0  0  0  0  0  0  0
   48.5350   35.5580   41.7170 C   0  0  0  0  0  0  0  0  0  0  0  0
   48.6360   34.0590   42.1090 C   0  0  2  0  0  0  0  0  0  0  0  0
   45.5500   34.1770   45.0520 C   0  0  0  0  0  0  0  0  0  0  0  0
   44.6380   35.2710   45.1420 C   0  0  0  0  0  0  0  0  0  0  0  0
   44.6780   36.1920   44.1060 C   0  0  0  0  0  0  0  0  0  0  0  0
   45.5640   36.0180   43.0720 N   0  0  0  0  0  0  0  0  0  0  0  0
   46.4000   34.9480   43.0630 C   0  0  0  0  0  0  0  0  0  0  0  0
   46.4160   34.0380   44.0090 N   0  0  0  0  0  0  0  0  0  0  0  0
   49.0820   31.6440   37.7520 C   0  0  0  0  0  0  0  0  0  0  0  0
   48.4370   30.4890   37.3970 C   0  0  0  0  0  0  0  0  0  0  0  0
   48.4120   30.4230   36.0060 C   0  0  0  0  0  0  0  0  0  0  0  0
   49.0290   31.5150   35.5680 N   0  0  0  0  0  0  0  0  0  0  0  0
   49.4340   32.2520   36.5930 N   0  0  0  0  0  0  0  0  0  0  0  0
   49.2160   31.8260   34.1910 C   0  0  0  0  0  0  0  0  0  0  0  0
   50.1050   31.0080   33.5050 C   0  0  0  0  0  0  0  0  0  0  0  0
   50.3420   31.2450   32.1620 C   0  0  0  0  0  0  0  0  0  0  0  0
   49.7240   32.2650   31.4920 C   0  0  0  0  0  0  0  0  0  0  0  0
   48.8450   33.0620   32.2040 C   0  0  0  0  0  0  0  0  0  0  0  0
   48.5750   32.8660   33.5430 C   0  0  0  0  0  0  0  0  0  0  0  0
   46.4561   34.6328   41.3108 H   0  0  0  0  0  0  0  0  0  0  0  0
   48.8051   35.8820   40.7011 H   0  0  0  0  0  0  0  0  0  0  0  0
   48.9344   36.4999   42.1210 H   0  0  0  0  0  0  0  0  0  0  0  0
   49.0835   33.4461   42.9054 H   0  0  0  0  0  0  0  0  0  0  0  0
   45.5541   33.4209   45.8510 H   0  0  0  0  0  0  0  0  0  0  0  0
   43.9416   35.3778   45.9867 H   0  0  0  0  0  0  0  0  0  0  0  0
   44.0017   37.0595   44.1128 H   0  0  0  0  0  0  0  0  0  0  0  0
   48.0137   29.7452   38.0881 H   0  0  0  0  0  0  0  0  0  0  0  0
   47.9692   29.6250   35.3919 H   0  0  0  0  0  0  0  0  0  0  0  0
   50.6144   30.1820   34.0228 H   0  0  0  0  0  0  0  0  0  0  0  0
   51.0455   30.5963   31.6195 H   0  0  0  0  0  0  0  0  0  0  0  0
   49.9190   32.4454   30.4245 H   0  0  0  0  0  0  0  0  0  0  0  0
   48.3399   33.8870   31.6803 H   0  0  0  0  0  0  0  0  0  0  0  0
   47.8702   33.5182   34.0795 H   0  0  0  0  0  0  0  0  0  0  0  0
  1  2  2  0
  1  8  1  0
  3  2  1  0
  4  5  2  0
  4  3  1  0
  5  1  1  0
  6  8  1  0
  6 13  1  0
  7  6  1  0
  7  8  1  0
  9 10  2  0
 11 10  1  0
 12 11  2  0
 13 12  1  0
 13 14  2  0
 14  9  1  0
 15  4  1  0
 16 15  1  0
 17 16  2  0
 18 17  1  0
 18 19  1  0
 19 15  2  0
 20 18  1  0
 21 20  2  0
 22 21  1  0
 23 22  2  0
 23 24  1  0
 24 25  2  0
 25 20  1  0
  6 26  1  6
  7 27  1  0
  7 28  1  0
  8 29  1  1
  9 30  1  0
 10 31  1  0
 11 32  1  0
 16 33  1  0
 17 34  1  0
 21 35  1  0
 22 36  1  0
 23 37  1  0
 24 38  1  0
 25 39  1  0
M  ISO  8  26  13  27  13  28  13  29  13  30  14  31  14  32  14  33  14
M  ISO  6  34  14  35  14  36  14  37  14  38  14  39  14
M  END
>  <minimizedAffinity>  (1) 
-6.09114552

>  <minimizedRMSD>  (1) 
4.18758392

$$$$
