
     RDKit          3D

 18 19  0  0  0  0  0  0  0  0999 V2000
   44.4250   35.3030   44.0840 C   0  0  0  0  0  0  0  0  0  0  0  0
   44.5500   34.2680   43.1520 C   0  0  0  0  0  0  0  0  0  0  0  0
   45.1890   33.0980   43.5290 C   0  0  0  0  0  0  0  0  0  0  0  0
   45.6670   33.0130   44.7900 N   0  0  0  0  0  0  0  0  0  0  0  0
   45.5450   34.0130   45.6860 C   0  0  0  0  0  0  0  0  0  0  0  0
   44.9280   35.1380   45.3180 N   0  0  0  0  0  0  0  0  0  0  0  0
   44.0010   34.4830   41.8450 N   0  0  0  0  0  0  0  0  0  0  0  0
   43.2570   35.5120   41.3800 C   0  0  0  0  0  0  0  0  0  0  0  0
   42.9680   35.2790   40.0800 N   0  0  0  0  0  0  0  0  0  0  0  0
   43.5360   34.1020   39.7430 C   0  0  0  0  0  0  0  0  0  0  0  0
   44.1610   33.6400   40.8450 N   0  0  0  0  0  0  0  0  0  0  0  0
   43.5030   33.4460   38.4800 N   0  0  0  0  0  0  0  0  0  0  0  0
   43.9206   36.2412   43.8095 H   0  0  0  0  0  0  0  0  0  0  0  0
   45.3039   32.2627   42.8225 H   0  0  0  0  0  0  0  0  0  0  0  0
   45.9474   33.9036   46.7039 H   0  0  0  0  0  0  0  0  0  0  0  0
   42.9403   36.3905   41.9614 H   0  0  0  0  0  0  0  0  0  0  0  0
   43.9826   32.5429   38.3560 H   0  0  0  0  0  0  0  0  0  0  0  0
   42.9995   33.8744   37.6901 H   0  0  0  0  0  0  0  0  0  0  0  0
  1  6  2  0
  2  3  2  0
  2  1  1  0
  3  4  1  0
  4  5  2  0
  6  5  1  0
  7  2  1  0
  8  7  1  0
  9  8  2  0
 10  9  1  0
 10 11  2  0
 11  7  1  0
 12 10  1  0
  1 13  1  0
  3 14  1  0
  5 15  1  0
  8 16  1  0
 12 17  1  0
 12 18  1  0
M  ISO  4  13  14  14  14  15  14  16  14
M  END
>  <minimizedAffinity>  (1) 
-3.22617745

>  <minimizedRMSD>  (1) 
0.16464819

$$$$
