
     RDKit          3D

 35 39  0  0  1  0  0  0  0  0999 V2000
   49.8550   33.3820   41.8510 C   0  0  0  0  0  0  0  0  0  0  0  0
   51.0120   32.8650   42.2670 N   0  0  0  0  0  0  0  0  0  0  0  0
   51.4840   32.0020   41.4250 O   0  0  0  0  0  0  0  0  0  0  0  0
   50.6380   31.9380   40.4400 C   0  0  0  0  0  0  0  0  0  0  0  0
   49.5970   32.7830   40.6540 N   0  0  0  0  0  0  0  0  0  0  0  0
   47.6310   34.5460   42.1890 C   0  0  1  0  0  0  0  0  0  0  0  0
   48.5290   35.5420   41.6870 C   0  0  0  0  0  0  0  0  0  0  0  0
   49.0500   34.3930   42.5960 C   0  0  2  0  0  0  0  0  0  0  0  0
   45.5200   34.1520   45.1460 C   0  0  0  0  0  0  0  0  0  0  0  0
   44.5980   35.2360   45.0580 C   0  0  0  0  0  0  0  0  0  0  0  0
   44.7350   36.0800   43.9670 C   0  0  0  0  0  0  0  0  0  0  0  0
   45.7280   35.8260   43.0590 N   0  0  0  0  0  0  0  0  0  0  0  0
   46.5640   34.7830   43.2020 C   0  0  0  0  0  0  0  0  0  0  0  0
   46.4860   33.9500   44.2120 N   0  0  0  0  0  0  0  0  0  0  0  0
   50.7600   31.0890   39.2560 C   0  0  0  0  0  0  0  0  0  0  0  0
   49.9440   30.0300   38.9350 C   0  0  0  0  0  0  0  0  0  0  0  0
   50.3970   29.5030   37.7450 C   0  0  0  0  0  0  0  0  0  0  0  0
   51.4650   30.2300   37.3560 N   0  0  0  0  0  0  0  0  0  0  0  0
   51.6850   31.1910   38.2720 N   0  0  0  0  0  0  0  0  0  0  0  0
   52.2280   30.0120   36.1710 C   0  0  0  0  0  0  0  0  0  0  0  0
   53.6020   29.7480   36.5710 C   0  0  0  0  0  0  0  0  0  0  0  0
   54.5200   29.4750   34.9320 S   0  0  0  0  0  0  0  0  0  0  0  0
   52.8750   29.7690   34.0340 C   0  0  0  0  0  0  0  0  0  0  0  0
   52.1320   29.9650   34.8600 N   0  0  0  0  0  0  0  0  0  0  0  0
   46.8952   33.9084   41.6771 H   0  0  0  0  0  0  0  0  0  0  0  0
   48.7897   35.5614   40.6185 H   0  0  0  0  0  0  0  0  0  0  0  0
   48.5717   36.6408   41.7151 H   0  0  0  0  0  0  0  0  0  0  0  0
   49.5796   34.2772   43.5531 H   0  0  0  0  0  0  0  0  0  0  0  0
   45.4471   33.4578   45.9962 H   0  0  0  0  0  0  0  0  0  0  0  0
   43.8178   35.3944   45.8171 H   0  0  0  0  0  0  0  0  0  0  0  0
   44.0590   36.9374   43.8332 H   0  0  0  0  0  0  0  0  0  0  0  0
   49.0860   29.6692   39.5212 H   0  0  0  0  0  0  0  0  0  0  0  0
   49.9658   28.6446   37.2090 H   0  0  0  0  0  0  0  0  0  0  0  0
   54.0144   29.7143   37.5902 H   0  0  0  0  0  0  0  0  0  0  0  0
   52.6875   29.7521   32.9502 H   0  0  0  0  0  0  0  0  0  0  0  0
  1  2  2  0
  1  8  1  0
  3  2  1  0
  4  5  2  0
  4  3  1  0
  5  1  1  0
  6  8  1  0
  6 13  1  0
  7  6  1  0
  7  8  1  0
 10  9  2  0
 11 10  1  0
 12 13  1  0
 12 11  2  0
 13 14  2  0
 14  9  1  0
 15  4  1  0
 16 15  1  0
 17 16  2  0
 18 17  1  0
 18 19  1  0
 19 15  2  0
 20 21  2  0
 20 18  1  0
 22 21  1  0
 23 24  2  0
 23 22  1  0
 24 20  1  0
  6 25  1  6
  7 26  1  0
  7 27  1  0
  8 28  1  1
  9 29  1  0
 10 30  1  0
 11 31  1  0
 16 32  1  0
 17 33  1  0
 21 34  1  0
 23 35  1  0
M  ISO  8  25  13  26  13  27  13  28  13  29  14  30  14  31  14  32  14
M  ISO  3  33  14  34  14  35  14
M  END
>  <minimizedAffinity>  (1) 
-5.14515877

>  <minimizedRMSD>  (1) 
2.70340896

$$$$
