
     RDKit          3D

 35 38  0  0  1  0  0  0  0  0999 V2000
   47.5950   34.5360   42.1820 C   0  0  1  0  0  0  0  0  0  0  0  0
   48.4870   35.5270   41.6610 C   0  0  0  0  0  0  0  0  0  0  0  0
   49.0170   34.3920   42.5820 C   0  0  2  0  0  0  0  0  0  0  0  0
   45.5100   34.1750   45.1640 C   0  0  0  0  0  0  0  0  0  0  0  0
   44.5990   35.2710   45.0800 C   0  0  0  0  0  0  0  0  0  0  0  0
   44.7280   36.1080   43.9830 C   0  0  0  0  0  0  0  0  0  0  0  0
   45.7060   35.8310   43.0700 N   0  0  0  0  0  0  0  0  0  0  0  0
   46.5370   34.7820   43.2030 C   0  0  0  0  0  0  0  0  0  0  0  0
   46.4610   33.9560   44.2210 N   0  0  0  0  0  0  0  0  0  0  0  0
   49.8210   33.3760   41.8480 C   0  0  0  0  0  0  0  0  0  0  0  0
   51.0900   33.0600   42.1140 N   0  0  0  0  0  0  0  0  0  0  0  0
   51.5180   32.1290   41.3150 O   0  0  0  0  0  0  0  0  0  0  0  0
   50.5570   31.8210   40.5220 C   0  0  0  0  0  0  0  0  0  0  0  0
   49.4630   32.5760   40.8130 N   0  0  0  0  0  0  0  0  0  0  0  0
   50.5930   30.8190   39.4590 C   0  0  0  0  0  0  0  0  0  0  0  0
   50.3050   31.0310   38.1380 C   0  0  0  0  0  0  0  0  0  0  0  0
   50.4560   29.8290   37.4620 C   0  0  0  0  0  0  0  0  0  0  0  0
   50.8270   28.9270   38.3770 N   0  0  0  0  0  0  0  0  0  0  0  0
   50.9120   29.5090   39.5740 N   0  0  0  0  0  0  0  0  0  0  0  0
   51.1270   27.5020   38.2390 C   0  0  0  0  0  0  0  0  0  0  0  0
   52.5990   27.3000   38.5260 C   0  0  0  0  0  0  0  0  0  0  0  0
   46.8567   33.8920   41.6818 H   0  0  0  0  0  0  0  0  0  0  0  0
   48.7408   35.5326   40.5907 H   0  0  0  0  0  0  0  0  0  0  0  0
   48.5269   36.6262   41.6739 H   0  0  0  0  0  0  0  0  0  0  0  0
   49.5523   34.2899   43.5375 H   0  0  0  0  0  0  0  0  0  0  0  0
   45.4389   33.4870   46.0193 H   0  0  0  0  0  0  0  0  0  0  0  0
   43.8315   35.4429   45.8491 H   0  0  0  0  0  0  0  0  0  0  0  0
   44.0607   36.9724   43.8508 H   0  0  0  0  0  0  0  0  0  0  0  0
   50.0053   31.9896   37.6894 H   0  0  0  0  0  0  0  0  0  0  0  0
   50.3013   29.6529   36.3873 H   0  0  0  0  0  0  0  0  0  0  0  0
   50.5250   26.9234   38.9551 H   0  0  0  0  0  0  0  0  0  0  0  0
   50.8872   27.1595   37.2215 H   0  0  0  0  0  0  0  0  0  0  0  0
   52.7608   27.2778   39.6138 H   0  0  0  0  0  0  0  0  0  0  0  0
   52.9310   26.3479   38.0864 H   0  0  0  0  0  0  0  0  0  0  0  0
   53.1752   28.1275   38.0864 H   0  0  0  0  0  0  0  0  0  0  0  0
  1  3  1  0
  1  8  1  0
  2  1  1  0
  2  3  1  0
  5  4  2  0
  6  5  1  0
  7  8  1  0
  7  6  2  0
  8  9  2  0
  9  4  1  0
 10 11  2  0
 10  3  1  0
 12 11  1  0
 13 14  2  0
 13 12  1  0
 14 10  1  0
 15 19  2  0
 15 13  1  0
 16 15  1  0
 17 16  2  0
 17 18  1  0
 18 19  1  0
 20 18  1  0
 20 21  1  0
  1 22  1  6
  2 23  1  0
  2 24  1  0
  3 25  1  1
  4 26  1  0
  5 27  1  0
  6 28  1  0
 16 29  1  0
 17 30  1  0
 20 31  1  0
 20 32  1  0
 21 33  1  0
 21 34  1  0
 21 35  1  0
M  ISO  8  22  13  23  13  24  13  25  13  26  14  27  14  28  14  29  14
M  ISO  6  30  14  31   8  32   8  33   8  34   8  35   8
M  END
>  <minimizedAffinity>  (1) 
-4.64738941

>  <minimizedRMSD>  (1) 
0.376659691

$$$$
