
     RDKit          3D

 22 24  0  0  0  0  0  0  0  0999 V2000
   45.9100   33.6310   45.7910 C   0  0  0  0  0  0  0  0  0  0  0  0
   44.8640   34.5780   45.8910 C   0  0  0  0  0  0  0  0  0  0  0  0
   44.9970   35.3830   44.1660 S   0  0  0  0  0  0  0  0  0  0  0  0
   46.4400   34.2460   43.7150 C   0  0  0  0  0  0  0  0  0  0  0  0
   46.5650   33.6290   44.6350 N   0  0  0  0  0  0  0  0  0  0  0  0
   47.2340   34.1640   42.4600 N   0  0  0  0  0  0  0  0  0  0  0  0
   47.5980   33.1560   41.6650 C   0  0  0  0  0  0  0  0  0  0  0  0
   48.3050   33.6880   40.6830 N   0  0  0  0  0  0  0  0  0  0  0  0
   48.4080   35.0390   40.8290 C   0  0  0  0  0  0  0  0  0  0  0  0
   47.7120   35.2910   41.9700 N   0  0  0  0  0  0  0  0  0  0  0  0
   45.2870   31.7870   48.8810 C   0  0  0  0  0  0  0  0  0  0  0  0
   46.5330   31.1720   49.1460 C   0  0  0  0  0  0  0  0  0  0  0  0
   47.5820   31.3980   48.2550 C   0  0  0  0  0  0  0  0  0  0  0  0
   47.3450   32.2020   47.1750 N   0  0  0  0  0  0  0  0  0  0  0  0
   46.1540   32.7670   46.9570 C   0  0  0  0  0  0  0  0  0  0  0  0
   45.1140   32.5690   47.8010 N   0  0  0  0  0  0  0  0  0  0  0  0
   44.1744   34.7890   46.7216 H   0  0  0  0  0  0  0  0  0  0  0  0
   47.3570   32.0913   41.8003 H   0  0  0  0  0  0  0  0  0  0  0  0
   48.9303   35.7558   40.1783 H   0  0  0  0  0  0  0  0  0  0  0  0
   44.4455   31.6227   49.5701 H   0  0  0  0  0  0  0  0  0  0  0  0
   46.6709   30.5329   50.0306 H   0  0  0  0  0  0  0  0  0  0  0  0
   48.5704   30.9430   48.4164 H   0  0  0  0  0  0  0  0  0  0  0  0
  1  2  2  0
  1 15  1  0
  3  2  1  0
  4  3  1  0
  4  5  2  0
  5  1  1  0
  6  4  1  0
  7  6  1  0
  8  9  1  0
  8  7  2  0
  9 10  2  0
 10  6  1  0
 11 12  2  0
 13 12  1  0
 14 13  2  0
 15 14  1  0
 15 16  2  0
 16 11  1  0
  2 17  1  0
  7 18  1  0
  9 19  1  0
 11 20  1  0
 12 21  1  0
 13 22  1  0
M  ISO  6  17  14  18  14  19  14  20  14  21  14  22  14
M  END
>  <minimizedAffinity>  (1) 
-4.95026541

>  <minimizedRMSD>  (1) 
6.98605967

$$$$
