
     RDKit          3D

 19 20  0  0  0  0  0  0  0  0999 V2000
   46.1620   32.8630   45.7110 C   0  0  0  0  0  0  0  0  0  0  0  0
   47.1520   31.9860   45.2200 C   0  0  0  0  0  0  0  0  0  0  0  0
   47.2510   30.7180   46.6260 S   0  0  0  0  0  0  0  0  0  0  0  0
   45.9150   31.6600   47.5840 C   0  0  0  0  0  0  0  0  0  0  0  0
   45.6920   32.5050   46.8970 N   0  0  0  0  0  0  0  0  0  0  0  0
   44.4810   35.9480   44.7370 C   0  0  0  0  0  0  0  0  0  0  0  0
   45.0000   36.1900   43.4520 C   0  0  0  0  0  0  0  0  0  0  0  0
   45.9380   35.2820   42.9190 C   0  0  0  0  0  0  0  0  0  0  0  0
   46.3070   34.1990   43.6720 N   0  0  0  0  0  0  0  0  0  0  0  0
   45.7750   34.0120   44.9060 C   0  0  0  0  0  0  0  0  0  0  0  0
   44.8730   34.8720   45.4340 N   0  0  0  0  0  0  0  0  0  0  0  0
   45.4210   31.2350   48.8930 C   0  0  0  0  0  0  0  0  0  0  0  0
   44.9310   30.1190   49.1500 O   0  0  0  0  0  0  0  0  0  0  0  0
   45.4780   32.0970   49.9630 O   0  0  0  0  0  0  0  0  0  0  0  0
   47.7148   32.0269   44.2758 H   0  0  0  0  0  0  0  0  0  0  0  0
   43.7498   36.6452   45.1721 H   0  0  0  0  0  0  0  0  0  0  0  0
   44.6805   37.0700   42.8745 H   0  0  0  0  0  0  0  0  0  0  0  0
   46.3651   35.4404   41.9178 H   0  0  0  0  0  0  0  0  0  0  0  0
   45.1434   31.8089   50.8491 H   0  0  0  0  0  0  0  0  0  0  0  0
  1  5  1  0
  2  1  2  0
  2  3  1  0
  3  4  1  0
  4 12  1  0
  5  4  2  0
  6 11  2  0
  7  6  1  0
  8  7  2  0
  8  9  1  0
  9 10  2  0
 10 11  1  0
 10  1  1  0
 12 13  2  0
 12 14  1  0
  2 15  1  0
  6 16  1  0
  7 17  1  0
  8 18  1  0
 14 19  1  0
M  ISO  5  15  14  16  14  17  14  18  14  19   3
M  END
>  <minimizedAffinity>  (1) 
-4.90251875

>  <minimizedRMSD>  (1) 
0.954866707

$$$$
