
     RDKit          3D

 22 24  0  0  0  0  0  0  0  0999 V2000
   45.8640   33.6850   45.7500 C   0  0  0  0  0  0  0  0  0  0  0  0
   44.8200   34.6360   45.8500 C   0  0  0  0  0  0  0  0  0  0  0  0
   44.9720   35.4570   44.1560 S   0  0  0  0  0  0  0  0  0  0  0  0
   46.4170   34.3330   43.6850 C   0  0  0  0  0  0  0  0  0  0  0  0
   46.5240   33.7070   44.6000 N   0  0  0  0  0  0  0  0  0  0  0  0
   47.5470   31.3040   47.9670 C   0  0  0  0  0  0  0  0  0  0  0  0
   46.6070   31.1230   48.9960 C   0  0  0  0  0  0  0  0  0  0  0  0
   45.3850   31.8200   48.9310 C   0  0  0  0  0  0  0  0  0  0  0  0
   45.1810   32.6480   47.8560 N   0  0  0  0  0  0  0  0  0  0  0  0
   46.1150   32.7940   46.8850 C   0  0  0  0  0  0  0  0  0  0  0  0
   47.2940   32.1320   46.9300 N   0  0  0  0  0  0  0  0  0  0  0  0
   47.0800   34.4510   42.3580 C   0  0  0  0  0  0  0  0  0  0  0  0
   46.6390   33.6430   41.3000 C   0  0  0  0  0  0  0  0  0  0  0  0
   47.7320   34.1520   39.9440 S   0  0  0  0  0  0  0  0  0  0  0  0
   48.6180   35.3780   41.0170 C   0  0  0  0  0  0  0  0  0  0  0  0
   48.0710   35.2530   42.0380 N   0  0  0  0  0  0  0  0  0  0  0  0
   44.1220   34.8383   46.6758 H   0  0  0  0  0  0  0  0  0  0  0  0
   48.5039   30.7629   48.0066 H   0  0  0  0  0  0  0  0  0  0  0  0
   46.8221   30.4484   49.8378 H   0  0  0  0  0  0  0  0  0  0  0  0
   44.6212   31.7047   49.7142 H   0  0  0  0  0  0  0  0  0  0  0  0
   45.8353   32.8920   41.2938 H   0  0  0  0  0  0  0  0  0  0  0  0
   49.4479   36.0512   40.7561 H   0  0  0  0  0  0  0  0  0  0  0  0
  1  2  2  0
  1 10  1  0
  3  2  1  0
  4  3  1  0
  4  5  2  0
  5  1  1  0
  6  7  2  0
  8  7  1  0
  9  8  2  0
 10 11  2  0
 10  9  1  0
 11  6  1  0
 12  4  1  0
 13 12  2  0
 14 15  1  0
 14 13  1  0
 15 16  2  0
 16 12  1  0
  2 17  1  0
  6 18  1  0
  7 19  1  0
  8 20  1  0
 13 21  1  0
 15 22  1  0
M  ISO  6  17  14  18  14  19  14  20  14  21  14  22  14
M  END
>  <minimizedAffinity>  (1) 
-4.86725569

>  <minimizedRMSD>  (1) 
7.25446701

$$$$
