
     RDKit          3D

 22 23  0  0  0  0  0  0  0  0999 V2000
   44.4940   36.0070   44.4730 C   0  0  0  0  0  0  0  0  0  0  0  0
   45.0760   36.1670   43.2130 C   0  0  0  0  0  0  0  0  0  0  0  0
   46.0420   35.2600   42.7940 C   0  0  0  0  0  0  0  0  0  0  0  0
   46.3650   34.2550   43.6540 N   0  0  0  0  0  0  0  0  0  0  0  0
   45.7910   34.1200   44.8620 C   0  0  0  0  0  0  0  0  0  0  0  0
   44.8500   34.9950   45.2830 N   0  0  0  0  0  0  0  0  0  0  0  0
   46.1670   33.0190   45.7650 C   0  0  0  0  0  0  0  0  0  0  0  0
   47.0160   32.0200   45.2710 C   0  0  0  0  0  0  0  0  0  0  0  0
   47.1540   30.9120   46.7980 S   0  0  0  0  0  0  0  0  0  0  0  0
   46.0130   32.0720   47.7690 C   0  0  0  0  0  0  0  0  0  0  0  0
   45.7760   32.8690   47.0270 N   0  0  0  0  0  0  0  0  0  0  0  0
   45.6280   31.8130   49.2040 C   0  0  0  0  0  0  0  0  0  0  0  0
   45.0690   30.4270   49.2640 C   0  0  0  0  0  0  0  0  0  0  0  0
   43.7295   36.7231   44.8088 H   0  0  0  0  0  0  0  0  0  0  0  0
   44.7736   36.9999   42.5612 H   0  0  0  0  0  0  0  0  0  0  0  0
   46.5249   35.3501   41.8098 H   0  0  0  0  0  0  0  0  0  0  0  0
   47.4731   31.9108   44.2764 H   0  0  0  0  0  0  0  0  0  0  0  0
   46.5130   31.8917   49.8526 H   0  0  0  0  0  0  0  0  0  0  0  0
   44.8884   32.5497   49.5509 H   0  0  0  0  0  0  0  0  0  0  0  0
   44.9475   30.1258   50.3150 H   0  0  0  0  0  0  0  0  0  0  0  0
   44.0912   30.4039   48.7606 H   0  0  0  0  0  0  0  0  0  0  0  0
   45.7571   29.7320   48.7606 H   0  0  0  0  0  0  0  0  0  0  0  0
  1  6  2  0
  2  1  1  0
  3  2  2  0
  3  4  1  0
  4  5  2  0
  5  6  1  0
  5  7  1  0
  7 11  1  0
  8  7  2  0
  8  9  1  0
  9 10  1  0
 10 12  1  0
 11 10  2  0
 12 13  1  0
  1 14  1  0
  2 15  1  0
  3 16  1  0
  8 17  1  0
 12 18  1  0
 12 19  1  0
 13 20  1  0
 13 21  1  0
 13 22  1  0
M  ISO  8  14  14  15  14  16  14  17  14  18   8  19   8  20   8  21   8
M  ISO  1  22   8
M  END
>  <minimizedAffinity>  (1) 
-4.51895618

>  <minimizedRMSD>  (1) 
0.774457216

$$$$
