
     RDKit          3D

 31 33  0  0  0  0  0  0  0  0999 V2000
   46.2090   32.4050   44.5700 C   0  0  0  0  0  0  0  0  0  0  0  0
   47.5220   32.0370   44.1640 C   0  0  0  0  0  0  0  0  0  0  0  0
   47.5400   30.2250   44.7040 S   0  0  0  0  0  0  0  0  0  0  0  0
   45.7710   30.3530   45.3600 C   0  0  0  0  0  0  0  0  0  0  0  0
   45.5120   31.4180   45.1410 N   0  0  0  0  0  0  0  0  0  0  0  0
   45.0340   29.3020   45.9640 N   0  0  0  0  0  0  0  0  0  0  0  0
   44.3790   28.2690   45.2100 C   0  0  0  0  0  0  0  0  0  0  0  0
   43.6480   27.2850   46.0730 C   0  0  0  0  0  0  0  0  0  0  0  0
   44.4140   26.8760   47.2920 C   0  0  0  0  0  0  0  0  0  0  0  0
   45.0140   27.9990   48.0650 C   0  0  0  0  0  0  0  0  0  0  0  0
   44.9780   29.3350   47.4100 C   0  0  0  0  0  0  0  0  0  0  0  0
   44.6280   35.6480   45.0820 C   0  0  0  0  0  0  0  0  0  0  0  0
   44.9000   36.3180   43.8750 C   0  0  0  0  0  0  0  0  0  0  0  0
   45.6280   35.6610   42.8800 C   0  0  0  0  0  0  0  0  0  0  0  0
   46.0410   34.3820   43.1470 N   0  0  0  0  0  0  0  0  0  0  0  0
   45.7580   33.7780   44.3180 C   0  0  0  0  0  0  0  0  0  0  0  0
   45.0660   34.3740   45.2880 N   0  0  0  0  0  0  0  0  0  0  0  0
   48.3042   32.6362   43.6750 H   0  0  0  0  0  0  0  0  0  0  0  0
   43.6570   28.7390   44.5261 H   0  0  0  0  0  0  0  0  0  0  0  0
   45.1587   27.7140   44.6677 H   0  0  0  0  0  0  0  0  0  0  0  0
   42.6997   27.7406   46.3942 H   0  0  0  0  0  0  0  0  0  0  0  0
   43.4919   26.3786   45.4696 H   0  0  0  0  0  0  0  0  0  0  0  0
   43.7293   26.3307   47.9582 H   0  0  0  0  0  0  0  0  0  0  0  0
   45.2557   26.2644   46.9351 H   0  0  0  0  0  0  0  0  0  0  0  0
   44.4728   28.0775   49.0194 H   0  0  0  0  0  0  0  0  0  0  0  0
   46.0801   27.7495   48.1710 H   0  0  0  0  0  0  0  0  0  0  0  0
   45.8376   29.9176   47.7729 H   0  0  0  0  0  0  0  0  0  0  0  0
   44.0087   29.7836   47.6730 H   0  0  0  0  0  0  0  0  0  0  0  0
   44.0545   36.1590   45.8694 H   0  0  0  0  0  0  0  0  0  0  0  0
   44.5438   37.3466   43.7168 H   0  0  0  0  0  0  0  0  0  0  0  0
   45.8600   36.1499   41.9223 H   0  0  0  0  0  0  0  0  0  0  0  0
  1  5  1  0
  2  1  2  0
  2  3  1  0
  3  4  1  0
  4  6  1  0
  5  4  2  0
  6 11  1  0
  7  6  1  0
  7  8  1  0
  8  9  1  0
  9 10  1  0
 11 10  1  0
 12 17  2  0
 13 12  1  0
 14 15  1  0
 14 13  2  0
 15 16  2  0
 16  1  1  0
 16 17  1  0
  2 18  1  0
  7 19  1  0
  7 20  1  0
  8 21  1  0
  8 22  1  0
  9 23  1  0
  9 24  1  0
 10 25  1  0
 10 26  1  0
 11 27  1  0
 11 28  1  0
 12 29  1  0
 13 30  1  0
 14 31  1  0
M  ISO  8  18  14  19  13  20  13  21  13  22  13  23  13  24  13  25  13
M  ISO  6  26  13  27  13  28  13  29  14  30  14  31  14
M  END
>  <minimizedAffinity>  (1) 
-4.24570704

>  <minimizedRMSD>  (1) 
3.73833108

$$$$
