
     RDKit          3D

 25 27  0  0  0  0  0  0  0  0999 V2000
   46.3100   32.4260   44.5820 C   0  0  0  0  0  0  0  0  0  0  0  0
   47.6140   32.1110   44.1450 C   0  0  0  0  0  0  0  0  0  0  0  0
   47.7230   30.3150   44.6860 S   0  0  0  0  0  0  0  0  0  0  0  0
   45.9710   30.3670   45.3940 C   0  0  0  0  0  0  0  0  0  0  0  0
   45.6900   31.4190   45.1680 N   0  0  0  0  0  0  0  0  0  0  0  0
   44.6100   35.6080   45.1640 C   0  0  0  0  0  0  0  0  0  0  0  0
   44.8240   36.2830   43.9600 C   0  0  0  0  0  0  0  0  0  0  0  0
   45.5560   35.6490   42.9360 C   0  0  0  0  0  0  0  0  0  0  0  0
   46.0270   34.3950   43.1690 N   0  0  0  0  0  0  0  0  0  0  0  0
   45.7970   33.7740   44.3540 C   0  0  0  0  0  0  0  0  0  0  0  0
   45.0940   34.3730   45.3440 N   0  0  0  0  0  0  0  0  0  0  0  0
   45.3810   29.1930   46.0220 C   0  0  0  0  0  0  0  0  0  0  0  0
   44.1950   28.6590   45.5910 C   0  0  0  0  0  0  0  0  0  0  0  0
   43.6850   27.5450   46.2250 C   0  0  0  0  0  0  0  0  0  0  0  0
   44.3510   26.9620   47.2860 C   0  0  0  0  0  0  0  0  0  0  0  0
   45.5530   27.5220   47.7070 C   0  0  0  0  0  0  0  0  0  0  0  0
   46.0150   28.5950   47.0720 N   0  0  0  0  0  0  0  0  0  0  0  0
   48.3571   32.7395   43.6323 H   0  0  0  0  0  0  0  0  0  0  0  0
   44.0401   36.0944   45.9694 H   0  0  0  0  0  0  0  0  0  0  0  0
   44.4258   37.2978   43.8127 H   0  0  0  0  0  0  0  0  0  0  0  0
   45.7408   36.1539   41.9764 H   0  0  0  0  0  0  0  0  0  0  0  0
   43.6549   29.1141   44.7477 H   0  0  0  0  0  0  0  0  0  0  0  0
   42.7333   27.1141   45.8805 H   0  0  0  0  0  0  0  0  0  0  0  0
   43.9394   26.0736   47.7874 H   0  0  0  0  0  0  0  0  0  0  0  0
   46.1104   27.0855   48.5489 H   0  0  0  0  0  0  0  0  0  0  0  0
  1  5  1  0
  2  1  2  0
  2  3  1  0
  3  4  1  0
  4 12  1  0
  5  4  2  0
  6 11  2  0
  7  6  1  0
  8  9  1  0
  8  7  2  0
  9 10  2  0
 10  1  1  0
 10 11  1  0
 12 17  1  0
 13 12  2  0
 13 14  1  0
 14 15  2  0
 15 16  1  0
 17 16  2  0
  2 18  1  0
  6 19  1  0
  7 20  1  0
  8 21  1  0
 13 22  1  0
 14 23  1  0
 15 24  1  0
 16 25  1  0
M  ISO  8  18  14  19  14  20  14  21  14  22  14  23  14  24  14  25  14
M  END
>  <minimizedAffinity>  (1) 
-4.02959204

>  <minimizedRMSD>  (1) 
3.80642462

$$$$
