
     RDKit          3D

 35 36  0  0  0  0  0  0  0  0999 V2000
   48.3000   34.4770   41.4700 C   0  0  0  0  0  0  0  0  0  0  0  0
   46.2830   33.8340   44.4880 C   0  0  0  0  0  0  0  0  0  0  0  0
   45.2150   34.7080   44.2290 C   0  0  0  0  0  0  0  0  0  0  0  0
   45.7320   35.4430   42.5810 S   0  0  0  0  0  0  0  0  0  0  0  0
   47.3250   34.3960   42.5750 C   0  0  0  0  0  0  0  0  0  0  0  0
   47.2120   33.8390   43.5410 N   0  0  0  0  0  0  0  0  0  0  0  0
   47.1330   31.2600   46.9340 C   0  0  0  0  0  0  0  0  0  0  0  0
   46.2560   31.5480   47.9970 C   0  0  0  0  0  0  0  0  0  0  0  0
   45.3850   32.6140   47.8690 C   0  0  0  0  0  0  0  0  0  0  0  0
   45.4170   33.3400   46.7150 N   0  0  0  0  0  0  0  0  0  0  0  0
   46.2690   33.0420   45.7120 C   0  0  0  0  0  0  0  0  0  0  0  0
   47.1300   32.0130   45.8000 N   0  0  0  0  0  0  0  0  0  0  0  0
   49.3010   33.3990   41.6160 C   0  0  0  0  0  0  0  0  0  0  0  0
   48.9670   35.8640   41.5120 C   0  0  0  0  0  0  0  0  0  0  0  0
   47.6370   34.3580   40.1170 C   0  0  0  0  0  0  0  0  0  0  0  0
   48.6410   33.8040   39.1960 N   0  0  0  0  0  0  0  0  0  0  0  0
   48.5200   33.9790   37.7790 C   0  0  0  0  0  0  0  0  0  0  0  0
   47.3520   34.3590   37.3830 N   0  0  0  0  0  0  0  0  0  0  0  0
   49.6860   33.7170   36.9740 N   0  0  0  0  0  0  0  0  0  0  0  0
   47.2020   34.5030   36.3680 H   0  0  0  0  0  0  0  0  0  0  0  0
   44.3162   34.9083   44.8307 H   0  0  0  0  0  0  0  0  0  0  0  0
   47.8308   30.4142   47.0211 H   0  0  0  0  0  0  0  0  0  0  0  0
   46.2636   30.9368   48.9115 H   0  0  0  0  0  0  0  0  0  0  0  0
   44.6841   32.8700   48.6773 H   0  0  0  0  0  0  0  0  0  0  0  0
   49.4796   33.2067   42.6842 H   0  0  0  0  0  0  0  0  0  0  0  0
   48.9260   32.4829   41.1362 H   0  0  0  0  0  0  0  0  0  0  0  0
   50.2423   33.7052   41.1362 H   0  0  0  0  0  0  0  0  0  0  0  0
   49.1136   36.1688   42.5587 H   0  0  0  0  0  0  0  0  0  0  0  0
   49.9414   35.8178   41.0036 H   0  0  0  0  0  0  0  0  0  0  0  0
   48.3226   36.5963   41.0036 H   0  0  0  0  0  0  0  0  0  0  0  0
   46.7688   33.6854   40.1791 H   0  0  0  0  0  0  0  0  0  0  0  0
   47.2794   35.3374   39.7665 H   0  0  0  0  0  0  0  0  0  0  0  0
   49.4437   33.2820   39.5756 H   0  0  0  0  0  0  0  0  0  0  0  0
   49.6419   33.8307   35.9512 H   0  0  0  0  0  0  0  0  0  0  0  0
   50.5636   33.4160   37.4213 H   0  0  0  0  0  0  0  0  0  0  0  0
  1 14  1  0
  1 13  1  0
  1  5  1  0
  2 11  1  0
  3  2  2  0
  4  3  1  0
  5  4  1  0
  5  6  2  0
  6  2  1  0
  7  8  2  0
  9  8  1  0
 10  9  2  0
 11 12  2  0
 11 10  1  0
 12  7  1  0
 15  1  1  0
 16 15  1  0
 17 16  1  0
 18 17  2  0
 19 17  1  0
 20 18  1  0
  3 21  1  0
  7 22  1  0
  8 23  1  0
  9 24  1  0
 13 25  1  0
 13 26  1  0
 13 27  1  0
 14 28  1  0
 14 29  1  0
 14 30  1  0
 15 31  1  0
 15 32  1  0
 16 33  1  0
 19 34  1  0
 19 35  1  0
M  ISO  8  21  14  22  14  23  14  24  14  25   8  26   8  27   8  28   8
M  ISO  4  29   8  30   8  31   8  32   8
M  END
>  <minimizedAffinity>  (1) 
-5.87987804

>  <minimizedRMSD>  (1) 
1.3790108

$$$$
