
     RDKit          3D

 44 47  0  0  0  0  0  0  0  0999 V2000
   47.9310   33.9610   42.3220 C   0  0  0  0  0  0  0  0  0  0  0  0
   46.2480   33.3830   45.5500 C   0  0  0  0  0  0  0  0  0  0  0  0
   45.2050   34.3110   45.4320 C   0  0  0  0  0  0  0  0  0  0  0  0
   45.5710   35.0470   43.7280 S   0  0  0  0  0  0  0  0  0  0  0  0
   47.0830   33.9230   43.5340 C   0  0  0  0  0  0  0  0  0  0  0  0
   47.0600   33.3570   44.4960 N   0  0  0  0  0  0  0  0  0  0  0  0
   47.4610   30.9390   47.9800 C   0  0  0  0  0  0  0  0  0  0  0  0
   46.5180   31.0820   49.0320 C   0  0  0  0  0  0  0  0  0  0  0  0
   45.4780   32.0010   48.9120 C   0  0  0  0  0  0  0  0  0  0  0  0
   45.4460   32.7210   47.7500 N   0  0  0  0  0  0  0  0  0  0  0  0
   46.3500   32.5710   46.7640 C   0  0  0  0  0  0  0  0  0  0  0  0
   47.3430   31.6980   46.8690 N   0  0  0  0  0  0  0  0  0  0  0  0
   48.2750   32.5600   41.9380 C   0  0  0  0  0  0  0  0  0  0  0  0
   49.1820   34.7850   42.6000 C   0  0  0  0  0  0  0  0  0  0  0  0
   47.2410   34.6510   41.1770 C   0  0  0  0  0  0  0  0  0  0  0  0
   46.4820   33.7920   40.2800 C   0  0  0  0  0  0  0  0  0  0  0  0
   45.3220   33.0930   40.4930 C   0  0  0  0  0  0  0  0  0  0  0  0
   44.7000   32.3140   39.5670 C   0  0  0  0  0  0  0  0  0  0  0  0
   45.2500   32.1950   38.3070 C   0  0  0  0  0  0  0  0  0  0  0  0
   46.4190   32.8830   38.0500 C   0  0  0  0  0  0  0  0  0  0  0  0
   46.9170   32.7240   36.7730 C   0  0  0  0  0  0  0  0  0  0  0  0
   48.0900   33.3760   36.4150 C   0  0  0  0  0  0  0  0  0  0  0  0
   48.7260   34.1670   37.3500 C   0  0  0  0  0  0  0  0  0  0  0  0
   48.2180   34.3190   38.6240 C   0  0  0  0  0  0  0  0  0  0  0  0
   47.0550   33.6830   39.0060 C   0  0  0  0  0  0  0  0  0  0  0  0
   44.3947   34.5472   46.1374 H   0  0  0  0  0  0  0  0  0  0  0  0
   48.2833   30.2139   48.0694 H   0  0  0  0  0  0  0  0  0  0  0  0
   46.6086   30.4681   49.9402 H   0  0  0  0  0  0  0  0  0  0  0  0
   44.7276   32.1392   49.7044 H   0  0  0  0  0  0  0  0  0  0  0  0
   48.4231   31.9568   42.8459 H   0  0  0  0  0  0  0  0  0  0  0  0
   47.4554   32.1313   41.3426 H   0  0  0  0  0  0  0  0  0  0  0  0
   49.1999   32.5596   41.3426 H   0  0  0  0  0  0  0  0  0  0  0  0
   49.3250   34.8792   43.6866 H   0  0  0  0  0  0  0  0  0  0  0  0
   50.0561   34.2853   42.1571 H   0  0  0  0  0  0  0  0  0  0  0  0
   49.0680   35.7854   42.1571 H   0  0  0  0  0  0  0  0  0  0  0  0
   46.5476   35.3931   41.5995 H   0  0  0  0  0  0  0  0  0  0  0  0
   48.0446   35.0848   40.5638 H   0  0  0  0  0  0  0  0  0  0  0  0
   44.8590   33.1676   41.4880 H   0  0  0  0  0  0  0  0  0  0  0  0
   43.7693   31.7851   39.8199 H   0  0  0  0  0  0  0  0  0  0  0  0
   44.7736   31.5736   37.5344 H   0  0  0  0  0  0  0  0  0  0  0  0
   46.3907   32.0877   36.0463 H   0  0  0  0  0  0  0  0  0  0  0  0
   48.5053   33.2637   35.4026 H   0  0  0  0  0  0  0  0  0  0  0  0
   49.6557   34.6863   37.0745 H   0  0  0  0  0  0  0  0  0  0  0  0
   48.7486   34.9571   39.3460 H   0  0  0  0  0  0  0  0  0  0  0  0
  1 14  1  0
  1  5  1  0
  2 11  1  0
  3  2  2  0
  4  3  1  0
  5  4  1  0
  5  6  2  0
  6  2  1  0
  7  8  2  0
  9  8  1  0
 10  9  2  0
 11 12  2  0
 11 10  1  0
 12  7  1  0
 13  1  1  0
 15  1  1  0
 16 17  2  0
 16 15  1  0
 18 17  1  0
 19 18  2  0
 20 19  1  0
 20 25  2  0
 21 20  1  0
 22 21  2  0
 22 23  1  0
 23 24  2  0
 24 25  1  0
 25 16  1  0
  3 26  1  0
  7 27  1  0
  8 28  1  0
  9 29  1  0
 13 30  1  0
 13 31  1  0
 13 32  1  0
 14 33  1  0
 14 34  1  0
 14 35  1  0
 15 36  1  0
 15 37  1  0
 17 38  1  0
 18 39  1  0
 19 40  1  0
 21 41  1  0
 22 42  1  0
 23 43  1  0
 24 44  1  0
M  ISO  8  26  14  27  14  28  14  29  14  30   8  31   8  32   8  33   8
M  ISO  8  34   8  35   8  36   8  37   8  38  14  39  14  40  14  41  14
M  ISO  3  42  14  43  14  44  14
M  END
>  <minimizedAffinity>  (1) 
-6.13213301

>  <minimizedRMSD>  (1) 
1.31420851

$$$$
