
     RDKit          3D

 37 39  0  0  0  0  0  0  0  0999 V2000
   48.7450   34.2040   41.9370 C   0  0  0  0  0  0  0  0  0  0  0  0
   46.4930   33.5230   44.7700 C   0  0  0  0  0  0  0  0  0  0  0  0
   45.4180   34.3750   44.4350 C   0  0  0  0  0  0  0  0  0  0  0  0
   46.0570   35.1280   42.8260 S   0  0  0  0  0  0  0  0  0  0  0  0
   47.6510   34.1270   42.9490 C   0  0  0  0  0  0  0  0  0  0  0  0
   47.4810   33.5630   43.8980 N   0  0  0  0  0  0  0  0  0  0  0  0
   47.1330   30.9240   47.2430 C   0  0  0  0  0  0  0  0  0  0  0  0
   46.2050   31.2460   48.2790 C   0  0  0  0  0  0  0  0  0  0  0  0
   45.3820   32.3430   48.1110 C   0  0  0  0  0  0  0  0  0  0  0  0
   45.5190   33.0460   46.9520 N   0  0  0  0  0  0  0  0  0  0  0  0
   46.3960   32.7280   45.9890 C   0  0  0  0  0  0  0  0  0  0  0  0
   47.2070   31.6730   46.1220 N   0  0  0  0  0  0  0  0  0  0  0  0
   49.0390   32.8460   41.4290 C   0  0  0  0  0  0  0  0  0  0  0  0
   49.9540   34.8840   42.5470 C   0  0  0  0  0  0  0  0  0  0  0  0
   48.2930   35.0570   40.7610 C   0  0  0  0  0  0  0  0  0  0  0  0
   47.7480   34.3190   39.6340 C   0  0  0  0  0  0  0  0  0  0  0  0
   46.7030   33.4310   39.5240 C   0  0  0  0  0  0  0  0  0  0  0  0
   46.3540   32.8320   38.3340 C   0  0  0  0  0  0  0  0  0  0  0  0
   47.0690   33.1210   37.1900 C   0  0  0  0  0  0  0  0  0  0  0  0
   48.1120   34.0110   37.3140 C   0  0  0  0  0  0  0  0  0  0  0  0
   48.4420   34.5900   38.4880 N   0  0  0  0  0  0  0  0  0  0  0  0
   44.4703   34.5513   44.9649 H   0  0  0  0  0  0  0  0  0  0  0  0
   47.7964   30.0543   47.3595 H   0  0  0  0  0  0  0  0  0  0  0  0
   46.1465   30.6340   49.1912 H   0  0  0  0  0  0  0  0  0  0  0  0
   44.6497   32.6354   48.8779 H   0  0  0  0  0  0  0  0  0  0  0  0
   49.1872   32.1614   42.2771 H   0  0  0  0  0  0  0  0  0  0  0  0
   48.1964   32.4934   40.8161 H   0  0  0  0  0  0  0  0  0  0  0  0
   49.9520   32.8735   40.8161 H   0  0  0  0  0  0  0  0  0  0  0  0
   49.8827   34.8439   43.6440 H   0  0  0  0  0  0  0  0  0  0  0  0
   50.8688   34.3681   42.2199 H   0  0  0  0  0  0  0  0  0  0  0  0
   49.9882   35.9337   42.2199 H   0  0  0  0  0  0  0  0  0  0  0  0
   47.5178   35.7495   41.1211 H   0  0  0  0  0  0  0  0  0  0  0  0
   49.1951   35.5630   40.3867 H   0  0  0  0  0  0  0  0  0  0  0  0
   46.1210   33.1889   40.4255 H   0  0  0  0  0  0  0  0  0  0  0  0
   45.5102   32.1273   38.2959 H   0  0  0  0  0  0  0  0  0  0  0  0
   46.8172   32.6613   36.2229 H   0  0  0  0  0  0  0  0  0  0  0  0
   48.7010   34.2607   36.4192 H   0  0  0  0  0  0  0  0  0  0  0  0
  1 14  1  0
  1  5  1  0
  2 11  1  0
  3  2  2  0
  4  5  1  0
  4  3  1  0
  5  6  2  0
  6  2  1  0
  7  8  2  0
  9  8  1  0
 10  9  2  0
 11 12  2  0
 11 10  1  0
 12  7  1  0
 13  1  1  0
 15  1  1  0
 16 15  1  0
 17 16  2  0
 18 17  1  0
 19 20  1  0
 19 18  2  0
 20 21  2  0
 21 16  1  0
  3 22  1  0
  7 23  1  0
  8 24  1  0
  9 25  1  0
 13 26  1  0
 13 27  1  0
 13 28  1  0
 14 29  1  0
 14 30  1  0
 14 31  1  0
 15 32  1  0
 15 33  1  0
 17 34  1  0
 18 35  1  0
 19 36  1  0
 20 37  1  0
M  ISO  8  22  14  23  14  24  14  25  14  26   8  27   8  28   8  29   8
M  ISO  8  30   8  31   8  32   8  33   8  34  14  35  14  36  14  37  14
M  END
>  <minimizedAffinity>  (1) 
-5.58872223

>  <minimizedRMSD>  (1) 
1.95139253

$$$$
