
     RDKit          3D

 39 42  0  0  0  0  0  0  0  0999 V2000
   48.1850   33.8800   42.3270 C   0  0  0  0  0  0  0  0  0  0  0  0
   46.3510   33.3260   45.4630 C   0  0  0  0  0  0  0  0  0  0  0  0
   45.2810   34.2140   45.2790 C   0  0  0  0  0  0  0  0  0  0  0  0
   45.7150   34.9180   43.5840 S   0  0  0  0  0  0  0  0  0  0  0  0
   47.2740   33.8420   43.4890 C   0  0  0  0  0  0  0  0  0  0  0  0
   47.2090   33.3090   44.4550 N   0  0  0  0  0  0  0  0  0  0  0  0
   47.4880   30.9090   47.9570 C   0  0  0  0  0  0  0  0  0  0  0  0
   46.5270   31.0730   48.9990 C   0  0  0  0  0  0  0  0  0  0  0  0
   45.5000   32.0110   48.8350 C   0  0  0  0  0  0  0  0  0  0  0  0
   45.5000   32.7100   47.6630 N   0  0  0  0  0  0  0  0  0  0  0  0
   46.4010   32.5470   46.6980 C   0  0  0  0  0  0  0  0  0  0  0  0
   47.3740   31.6590   46.8530 N   0  0  0  0  0  0  0  0  0  0  0  0
   48.2840   32.5250   41.7450 C   0  0  0  0  0  0  0  0  0  0  0  0
   49.5540   34.4090   42.7700 C   0  0  0  0  0  0  0  0  0  0  0  0
   47.6780   34.8470   41.2670 C   0  0  0  0  0  0  0  0  0  0  0  0
   47.3460   34.1980   40.0400 N   0  0  0  0  0  0  0  0  0  0  0  0
   48.1140   34.0410   38.9320 C   0  0  0  0  0  0  0  0  0  0  0  0
   47.4880   33.3820   37.9640 N   0  0  0  0  0  0  0  0  0  0  0  0
   46.2560   33.0650   38.3870 C   0  0  0  0  0  0  0  0  0  0  0  0
   45.1740   32.4040   37.8530 C   0  0  0  0  0  0  0  0  0  0  0  0
   44.0360   32.2490   38.5710 N   0  0  0  0  0  0  0  0  0  0  0  0
   43.9610   32.7510   39.8380 C   0  0  0  0  0  0  0  0  0  0  0  0
   45.0340   33.3990   40.3530 N   0  0  0  0  0  0  0  0  0  0  0  0
   46.1840   33.5780   39.6780 C   0  0  0  0  0  0  0  0  0  0  0  0
   44.4288   34.4370   45.9378 H   0  0  0  0  0  0  0  0  0  0  0  0
   48.3064   30.1810   48.0584 H   0  0  0  0  0  0  0  0  0  0  0  0
   46.5919   30.4715   49.9177 H   0  0  0  0  0  0  0  0  0  0  0  0
   44.7353   32.1753   49.6085 H   0  0  0  0  0  0  0  0  0  0  0  0
   48.3383   31.7816   42.5539 H   0  0  0  0  0  0  0  0  0  0  0  0
   47.3979   32.3270   41.1240 H   0  0  0  0  0  0  0  0  0  0  0  0
   49.1894   32.4579   41.1240 H   0  0  0  0  0  0  0  0  0  0  0  0
   49.6019   34.4275   43.8688 H   0  0  0  0  0  0  0  0  0  0  0  0
   50.3449   33.7518   42.3795 H   0  0  0  0  0  0  0  0  0  0  0  0
   49.6975   35.4273   42.3795 H   0  0  0  0  0  0  0  0  0  0  0  0
   46.7795   35.3513   41.6522 H   0  0  0  0  0  0  0  0  0  0  0  0
   48.4876   35.5610   41.0556 H   0  0  0  0  0  0  0  0  0  0  0  0
   49.1435   34.4187   38.8453 H   0  0  0  0  0  0  0  0  0  0  0  0
   45.2337   31.9973   36.8327 H   0  0  0  0  0  0  0  0  0  0  0  0
   43.0431   32.6314   40.4323 H   0  0  0  0  0  0  0  0  0  0  0  0
  1 14  1  0
  1  5  1  0
  2 11  1  0
  3  2  2  0
  4  3  1  0
  5  4  1  0
  5  6  2  0
  6  2  1  0
  7  8  2  0
  9  8  1  0
 10  9  2  0
 11 12  2  0
 11 10  1  0
 12  7  1  0
 13  1  1  0
 15  1  1  0
 16 15  1  0
 17 16  1  0
 18 19  1  0
 18 17  2  0
 19 24  2  0
 20 19  1  0
 20 21  2  0
 21 22  1  0
 22 23  2  0
 24 16  1  0
 24 23  1  0
  3 25  1  0
  7 26  1  0
  8 27  1  0
  9 28  1  0
 13 29  1  0
 13 30  1  0
 13 31  1  0
 14 32  1  0
 14 33  1  0
 14 34  1  0
 15 35  1  0
 15 36  1  0
 17 37  1  0
 20 38  1  0
 22 39  1  0
M  ISO  8  25  14  26  14  27  14  28  14  29   8  30   8  31   8  32   8
M  ISO  7  33   8  34   8  35   8  36   8  37  14  38  14  39  14
M  END
>  <minimizedAffinity>  (1) 
-5.45869732

>  <minimizedRMSD>  (1) 
3.12954378

$$$$
