
     RDKit          3D

 36 38  0  0  0  0  0  0  0  0999 V2000
   48.5390   34.1060   42.1290 C   0  0  0  0  0  0  0  0  0  0  0  0
   46.4350   33.4120   45.0790 C   0  0  0  0  0  0  0  0  0  0  0  0
   45.3480   34.2560   44.7950 C   0  0  0  0  0  0  0  0  0  0  0  0
   45.9120   35.0070   43.1560 S   0  0  0  0  0  0  0  0  0  0  0  0
   47.5120   34.0090   43.2060 C   0  0  0  0  0  0  0  0  0  0  0  0
   47.3920   33.4440   44.1630 N   0  0  0  0  0  0  0  0  0  0  0  0
   47.2960   30.8760   47.5700 C   0  0  0  0  0  0  0  0  0  0  0  0
   46.3540   31.1460   48.6050 C   0  0  0  0  0  0  0  0  0  0  0  0
   45.4510   32.1770   48.4380 C   0  0  0  0  0  0  0  0  0  0  0  0
   45.5170   32.8820   47.2740 N   0  0  0  0  0  0  0  0  0  0  0  0
   46.4110   32.6150   46.3080 C   0  0  0  0  0  0  0  0  0  0  0  0
   47.2860   31.6290   46.4500 N   0  0  0  0  0  0  0  0  0  0  0  0
   48.7920   32.7310   41.5950 C   0  0  0  0  0  0  0  0  0  0  0  0
   49.7980   34.7440   42.6950 C   0  0  0  0  0  0  0  0  0  0  0  0
   48.0450   34.9720   41.0000 C   0  0  0  0  0  0  0  0  0  0  0  0
   47.4830   34.2400   39.8710 C   0  0  0  0  0  0  0  0  0  0  0  0
   46.3750   33.4330   39.7290 C   0  0  0  0  0  0  0  0  0  0  0  0
   46.0610   32.8500   38.5300 C   0  0  0  0  0  0  0  0  0  0  0  0
   46.8440   33.0630   37.4590 N   0  0  0  0  0  0  0  0  0  0  0  0
   47.9340   33.8480   37.5690 C   0  0  0  0  0  0  0  0  0  0  0  0
   48.2570   34.4330   38.7590 N   0  0  0  0  0  0  0  0  0  0  0  0
   44.4253   34.4308   45.3678 H   0  0  0  0  0  0  0  0  0  0  0  0
   48.0254   30.0604   47.6832 H   0  0  0  0  0  0  0  0  0  0  0  0
   46.3465   30.5414   49.5239 H   0  0  0  0  0  0  0  0  0  0  0  0
   44.7088   32.4193   49.2129 H   0  0  0  0  0  0  0  0  0  0  0  0
   48.9209   32.0302   42.4330 H   0  0  0  0  0  0  0  0  0  0  0  0
   47.9372   32.4136   40.9798 H   0  0  0  0  0  0  0  0  0  0  0  0
   49.7038   32.7386   40.9798 H   0  0  0  0  0  0  0  0  0  0  0  0
   49.7572   34.7233   43.7941 H   0  0  0  0  0  0  0  0  0  0  0  0
   50.6797   34.1839   42.3502 H   0  0  0  0  0  0  0  0  0  0  0  0
   49.8677   35.7862   42.3502 H   0  0  0  0  0  0  0  0  0  0  0  0
   47.2666   35.6406   41.3964 H   0  0  0  0  0  0  0  0  0  0  0  0
   48.9233   35.5106   40.6146 H   0  0  0  0  0  0  0  0  0  0  0  0
   45.7272   33.2527   40.5995 H   0  0  0  0  0  0  0  0  0  0  0  0
   45.1708   32.2096   38.4441 H   0  0  0  0  0  0  0  0  0  0  0  0
   48.5711   34.0193   36.6888 H   0  0  0  0  0  0  0  0  0  0  0  0
  1 14  1  0
  1  5  1  0
  2 11  1  0
  3  2  2  0
  4  5  1  0
  4  3  1  0
  5  6  2  0
  6  2  1  0
  7  8  2  0
  9  8  1  0
 10  9  2  0
 11 12  2  0
 11 10  1  0
 12  7  1  0
 13  1  1  0
 15  1  1  0
 16 15  1  0
 17 16  2  0
 18 17  1  0
 19 20  1  0
 19 18  2  0
 20 21  2  0
 21 16  1  0
  3 22  1  0
  7 23  1  0
  8 24  1  0
  9 25  1  0
 13 26  1  0
 13 27  1  0
 13 28  1  0
 14 29  1  0
 14 30  1  0
 14 31  1  0
 15 32  1  0
 15 33  1  0
 17 34  1  0
 18 35  1  0
 20 36  1  0
M  ISO  8  22  14  23  14  24  14  25  14  26   8  27   8  28   8  29   8
M  ISO  7  30   8  31   8  32   8  33   8  34  14  35  14  36  14
M  END
>  <minimizedAffinity>  (1) 
-5.46279478

>  <minimizedRMSD>  (1) 
2.11808467

$$$$
