
     RDKit          3D

 32 33  0  0  0  0  0  0  0  0999 V2000
   46.4970   33.6580   44.5960 C   0  0  0  0  0  0  0  0  0  0  0  0
   45.3960   34.4300   44.1930 C   0  0  0  0  0  0  0  0  0  0  0  0
   46.0690   35.2080   42.6140 S   0  0  0  0  0  0  0  0  0  0  0  0
   47.7300   34.3130   42.8270 C   0  0  0  0  0  0  0  0  0  0  0  0
   47.5160   33.7660   43.7680 N   0  0  0  0  0  0  0  0  0  0  0  0
   47.0830   31.0520   47.0640 C   0  0  0  0  0  0  0  0  0  0  0  0
   46.1760   31.3990   48.1110 C   0  0  0  0  0  0  0  0  0  0  0  0
   45.3910   32.5100   47.9470 C   0  0  0  0  0  0  0  0  0  0  0  0
   45.5390   33.2010   46.7870 N   0  0  0  0  0  0  0  0  0  0  0  0
   46.3890   32.8770   45.8060 C   0  0  0  0  0  0  0  0  0  0  0  0
   47.1620   31.8040   45.9410 N   0  0  0  0  0  0  0  0  0  0  0  0
   48.8390   34.4690   41.8710 C   0  0  0  0  0  0  0  0  0  0  0  0
   50.0600   33.8360   42.4430 C   0  0  0  0  0  0  0  0  0  0  0  0
   49.0380   35.9330   41.5550 C   0  0  0  0  0  0  0  0  0  0  0  0
   48.5140   33.7780   40.5440 C   0  0  0  0  0  0  0  0  0  0  0  0
   48.1350   34.6550   39.5660 O   0  0  0  0  0  0  0  0  0  0  0  0
   48.0780   33.9170   38.3690 C   0  0  0  0  0  0  0  0  0  0  0  0
   44.4111   34.5483   44.6683 H   0  0  0  0  0  0  0  0  0  0  0  0
   47.7241   30.1646   47.1711 H   0  0  0  0  0  0  0  0  0  0  0  0
   46.1093   30.7905   49.0249 H   0  0  0  0  0  0  0  0  0  0  0  0
   44.6744   32.8275   48.7188 H   0  0  0  0  0  0  0  0  0  0  0  0
   50.0070   33.8635   43.5414 H   0  0  0  0  0  0  0  0  0  0  0  0
   50.1240   32.7912   42.1050 H   0  0  0  0  0  0  0  0  0  0  0  0
   50.9507   34.3859   42.1050 H   0  0  0  0  0  0  0  0  0  0  0  0
   49.1155   36.5032   42.4925 H   0  0  0  0  0  0  0  0  0  0  0  0
   49.9616   36.0599   40.9712 H   0  0  0  0  0  0  0  0  0  0  0  0
   48.1817   36.3018   40.9712 H   0  0  0  0  0  0  0  0  0  0  0  0
   49.4082   33.2362   40.2022 H   0  0  0  0  0  0  0  0  0  0  0  0
   47.6677   33.0988   40.7242 H   0  0  0  0  0  0  0  0  0  0  0  0
   47.9952   32.8453   38.6026 H   0  0  0  0  0  0  0  0  0  0  0  0
   47.2016   34.2336   37.7844 H   0  0  0  0  0  0  0  0  0  0  0  0
   48.9926   34.0953   37.7844 H   0  0  0  0  0  0  0  0  0  0  0  0
  1 10  1  0
  2  1  2  0
  3  4  1  0
  3  2  1  0
  4  5  2  0
  5  1  1  0
  6  7  2  0
  8  7  1  0
  9  8  2  0
 10 11  2  0
 10  9  1  0
 11  6  1  0
 12 13  1  0
 12  4  1  0
 14 12  1  0
 15 12  1  0
 16 15  1  0
 17 16  1  0
  2 18  1  0
  6 19  1  0
  7 20  1  0
  8 21  1  0
 13 22  1  0
 13 23  1  0
 13 24  1  0
 14 25  1  0
 14 26  1  0
 14 27  1  0
 15 28  1  0
 15 29  1  0
 17 30  1  0
 17 31  1  0
 17 32  1  0
M  ISO  8  18  14  19  14  20  14  21  14  22   8  23   8  24   8  25   8
M  ISO  7  26   8  27   8  28   8  29   8  30   8  31   8  32   8
M  END
>  <minimizedAffinity>  (1) 
-4.91959095

>  <minimizedRMSD>  (1) 
0.951067746

$$$$
