
     RDKit          3D

 38 39  0  0  0  0  0  0  0  0999 V2000
   48.2450   34.4390   41.5410 C   0  0  0  0  0  0  0  0  0  0  0  0
   46.2860   33.8070   44.6070 C   0  0  0  0  0  0  0  0  0  0  0  0
   45.2400   34.7010   44.3960 C   0  0  0  0  0  0  0  0  0  0  0  0
   45.7410   35.4440   42.7410 S   0  0  0  0  0  0  0  0  0  0  0  0
   47.3040   34.3630   42.6730 C   0  0  0  0  0  0  0  0  0  0  0  0
   47.1830   33.8080   43.6350 N   0  0  0  0  0  0  0  0  0  0  0  0
   47.1880   31.2160   47.0150 C   0  0  0  0  0  0  0  0  0  0  0  0
   46.3060   31.4750   48.0910 C   0  0  0  0  0  0  0  0  0  0  0  0
   45.4220   32.5260   47.9760 C   0  0  0  0  0  0  0  0  0  0  0  0
   45.4490   33.2530   46.8340 N   0  0  0  0  0  0  0  0  0  0  0  0
   46.2980   32.9930   45.8140 C   0  0  0  0  0  0  0  0  0  0  0  0
   47.1770   31.9770   45.8880 N   0  0  0  0  0  0  0  0  0  0  0  0
   49.2350   33.3470   41.6660 C   0  0  0  0  0  0  0  0  0  0  0  0
   48.9310   35.8060   41.5600 C   0  0  0  0  0  0  0  0  0  0  0  0
   47.5320   34.3180   40.2070 C   0  0  0  0  0  0  0  0  0  0  0  0
   48.3250   34.6390   39.1420 O   0  0  0  0  0  0  0  0  0  0  0  0
   47.9820   34.0870   37.9300 C   0  0  0  0  0  0  0  0  0  0  0  0
   46.7520   33.2520   37.9410 C   0  0  0  0  0  0  0  0  0  0  0  0
   49.1090   33.2820   37.3160 C   0  0  0  0  0  0  0  0  0  0  0  0
   44.3623   34.9144   45.0237 H   0  0  0  0  0  0  0  0  0  0  0  0
   47.8987   30.3800   47.0920 H   0  0  0  0  0  0  0  0  0  0  0  0
   46.3256   30.8523   48.9975 H   0  0  0  0  0  0  0  0  0  0  0  0
   44.7173   32.7665   48.7857 H   0  0  0  0  0  0  0  0  0  0  0  0
   49.4215   33.1413   42.7304 H   0  0  0  0  0  0  0  0  0  0  0  0
   48.8444   32.4406   41.1803 H   0  0  0  0  0  0  0  0  0  0  0  0
   50.1752   33.6471   41.1803 H   0  0  0  0  0  0  0  0  0  0  0  0
   49.0897   36.1222   42.6016 H   0  0  0  0  0  0  0  0  0  0  0  0
   49.9011   35.7366   41.0460 H   0  0  0  0  0  0  0  0  0  0  0  0
   48.2956   36.5423   41.0460 H   0  0  0  0  0  0  0  0  0  0  0  0
   47.1887   33.2799   40.0869 H   0  0  0  0  0  0  0  0  0  0  0  0
   46.6947   35.0314   40.2179 H   0  0  0  0  0  0  0  0  0  0  0  0
   47.7697   34.9717   37.3117 H   0  0  0  0  0  0  0  0  0  0  0  0
   46.4550   33.0504   38.9808 H   0  0  0  0  0  0  0  0  0  0  0  0
   45.9410   33.7870   37.4252 H   0  0  0  0  0  0  0  0  0  0  0  0
   46.9499   32.3008   37.4252 H   0  0  0  0  0  0  0  0  0  0  0  0
   49.7238   32.8429   38.1155 H   0  0  0  0  0  0  0  0  0  0  0  0
   48.6887   32.4785   36.6933 H   0  0  0  0  0  0  0  0  0  0  0  0
   49.7328   33.9402   36.6933 H   0  0  0  0  0  0  0  0  0  0  0  0
  1 14  1  0
  1 13  1  0
  1  5  1  0
  2 11  1  0
  3  2  2  0
  4  3  1  0
  5  4  1  0
  5  6  2  0
  6  2  1  0
  7  8  2  0
  9  8  1  0
 10  9  2  0
 11 12  2  0
 11 10  1  0
 12  7  1  0
 15  1  1  0
 16 15  1  0
 17 18  1  0
 17 16  1  0
 19 17  1  0
  3 20  1  0
  7 21  1  0
  8 22  1  0
  9 23  1  0
 13 24  1  0
 13 25  1  0
 13 26  1  0
 14 27  1  0
 14 28  1  0
 14 29  1  0
 15 30  1  0
 15 31  1  0
 17 32  1  0
 18 33  1  0
 18 34  1  0
 18 35  1  0
 19 36  1  0
 19 37  1  0
 19 38  1  0
M  ISO  8  20  14  21  14  22  14  23  14  24   8  25   8  26   8  27   8
M  ISO  8  28   8  29   8  30   8  31   8  32   8  33   8  34   8  35   8
M  ISO  3  36   8  37   8  38   8
M  END
>  <minimizedAffinity>  (1) 
-4.93844509

>  <minimizedRMSD>  (1) 
1.34127808

$$$$
