
     RDKit          3D

 36 38  0  0  0  0  0  0  0  0999 V2000
   48.1690   34.0390   42.1540 C   0  0  0  0  0  0  0  0  0  0  0  0
   46.3170   33.4460   45.2770 C   0  0  0  0  0  0  0  0  0  0  0  0
   45.2340   34.3290   45.0780 C   0  0  0  0  0  0  0  0  0  0  0  0
   45.6660   35.0500   43.3910 S   0  0  0  0  0  0  0  0  0  0  0  0
   47.2480   33.9900   43.3030 C   0  0  0  0  0  0  0  0  0  0  0  0
   47.1790   33.4450   44.2790 N   0  0  0  0  0  0  0  0  0  0  0  0
   47.3980   31.0520   47.7850 C   0  0  0  0  0  0  0  0  0  0  0  0
   46.4370   31.2050   48.8140 C   0  0  0  0  0  0  0  0  0  0  0  0
   45.4390   32.1250   48.6290 C   0  0  0  0  0  0  0  0  0  0  0  0
   45.4450   32.8280   47.4630 N   0  0  0  0  0  0  0  0  0  0  0  0
   46.3490   32.6830   46.4940 C   0  0  0  0  0  0  0  0  0  0  0  0
   47.3450   31.7890   46.6380 N   0  0  0  0  0  0  0  0  0  0  0  0
   48.7700   32.7110   41.9440 C   0  0  0  0  0  0  0  0  0  0  0  0
   49.2140   35.1100   42.3980 C   0  0  0  0  0  0  0  0  0  0  0  0
   47.4310   34.4500   40.8750 C   0  0  0  0  0  0  0  0  0  0  0  0
   48.2630   34.6680   39.8110 O   0  0  0  0  0  0  0  0  0  0  0  0
   47.8590   34.0460   38.6420 C   0  0  0  0  0  0  0  0  0  0  0  0
   48.7840   33.1770   37.8620 C   0  0  0  0  0  0  0  0  0  0  0  0
   48.2890   34.4660   37.3070 C   0  0  0  0  0  0  0  0  0  0  0  0
   44.3730   34.5390   45.7296 H   0  0  0  0  0  0  0  0  0  0  0  0
   48.2086   30.3196   47.9139 H   0  0  0  0  0  0  0  0  0  0  0  0
   46.4903   30.6036   49.7335 H   0  0  0  0  0  0  0  0  0  0  0  0
   44.6638   32.2892   49.3919 H   0  0  0  0  0  0  0  0  0  0  0  0
   48.9806   32.2456   42.9182 H   0  0  0  0  0  0  0  0  0  0  0  0
   48.0709   32.0774   41.3785 H   0  0  0  0  0  0  0  0  0  0  0  0
   49.7074   32.8180   41.3785 H   0  0  0  0  0  0  0  0  0  0  0  0
   49.3502   35.2496   43.4806 H   0  0  0  0  0  0  0  0  0  0  0  0
   50.1679   34.8015   41.9452 H   0  0  0  0  0  0  0  0  0  0  0  0
   48.8822   36.0560   41.9452 H   0  0  0  0  0  0  0  0  0  0  0  0
   46.7259   33.6493   40.6073 H   0  0  0  0  0  0  0  0  0  0  0  0
   46.9210   35.4013   41.0872 H   0  0  0  0  0  0  0  0  0  0  0  0
   46.8775   33.9217   39.1228 H   0  0  0  0  0  0  0  0  0  0  0  0
   49.8356   33.0740   38.1677 H   0  0  0  0  0  0  0  0  0  0  0  0
   48.7821   32.1281   37.5305 H   0  0  0  0  0  0  0  0  0  0  0  0
   48.9786   35.3157   37.1951 H   0  0  0  0  0  0  0  0  0  0  0  0
   47.7695   34.7630   36.3840 H   0  0  0  0  0  0  0  0  0  0  0  0
  1 14  1  0
  1  5  1  0
  2 11  1  0
  3  2  2  0
  4  3  1  0
  5  4  1  0
  5  6  2  0
  6  2  1  0
  7  8  2  0
  9  8  1  0
 10  9  2  0
 11 12  2  0
 11 10  1  0
 12  7  1  0
 13  1  1  0
 15  1  1  0
 16 15  1  0
 17 16  1  0
 18 17  1  0
 19 18  1  0
 19 17  1  0
  3 20  1  0
  7 21  1  0
  8 22  1  0
  9 23  1  0
 13 24  1  0
 13 25  1  0
 13 26  1  0
 14 27  1  0
 14 28  1  0
 14 29  1  0
 15 30  1  0
 15 31  1  0
 17 32  1  0
 18 33  1  0
 18 34  1  0
 19 35  1  0
 19 36  1  0
M  ISO  8  20  14  21  14  22  14  23  14  24   8  25   8  26   8  27   8
M  ISO  8  28   8  29   8  30   8  31   8  32  13  33  13  34  13  35  13
M  ISO  1  36  13
M  END
>  <minimizedAffinity>  (1) 
-4.99895763

>  <minimizedRMSD>  (1) 
1.25148606

$$$$
