
     RDKit          3D

 43 45  0  0  1  0  0  0  0  0999 V2000
   48.1790   34.3950   41.4040 C   0  0  0  0  0  0  0  0  0  0  0  0
   46.2800   33.8160   44.5050 C   0  0  0  0  0  0  0  0  0  0  0  0
   45.2420   34.7390   44.3200 C   0  0  0  0  0  0  0  0  0  0  0  0
   45.7150   35.4770   42.6420 S   0  0  0  0  0  0  0  0  0  0  0  0
   47.2500   34.3550   42.5440 C   0  0  0  0  0  0  0  0  0  0  0  0
   47.1490   33.7980   43.5110 N   0  0  0  0  0  0  0  0  0  0  0  0
   47.1580   31.2230   46.9070 C   0  0  0  0  0  0  0  0  0  0  0  0
   46.2930   31.4920   47.9960 C   0  0  0  0  0  0  0  0  0  0  0  0
   45.4260   32.5610   47.8830 C   0  0  0  0  0  0  0  0  0  0  0  0
   45.4610   33.2810   46.7320 N   0  0  0  0  0  0  0  0  0  0  0  0
   46.2740   33.0280   45.7090 C   0  0  0  0  0  0  0  0  0  0  0  0
   47.1400   31.9890   45.7810 N   0  0  0  0  0  0  0  0  0  0  0  0
   49.1360   33.2490   41.5160 C   0  0  0  0  0  0  0  0  0  0  0  0
   48.8610   35.7170   41.3570 C   0  0  0  0  0  0  0  0  0  0  0  0
   47.4030   34.1970   40.0660 C   0  0  0  0  0  0  0  0  0  0  0  0
   48.2970   34.3360   39.0030 O   0  0  0  0  0  0  0  0  0  0  0  0
   48.0610   33.4020   38.0340 C   0  0  2  0  0  0  0  0  0  0  0  0
   49.2180   32.5210   37.6010 C   0  0  0  0  0  0  0  0  0  0  0  0
   48.5440   33.4450   36.6710 C   0  0  1  0  0  0  0  0  0  0  0  0
   47.6960   32.9980   35.6020 N   0  0  0  0  0  0  0  0  0  0  0  0
   48.3150   32.9420   34.3020 C   0  0  0  0  0  0  0  0  0  0  0  0
   49.5920   32.6750   34.1840 N   0  0  0  0  0  0  0  0  0  0  0  0
   47.6520   33.1570   33.0600 N   0  0  0  0  0  0  0  0  0  0  0  0
   50.1560   32.5050   35.0490 H   0  0  0  0  0  0  0  0  0  0  0  0
   44.3866   34.9712   44.9714 H   0  0  0  0  0  0  0  0  0  0  0  0
   47.8589   30.3777   46.9721 H   0  0  0  0  0  0  0  0  0  0  0  0
   46.3113   30.8694   48.9026 H   0  0  0  0  0  0  0  0  0  0  0  0
   44.7319   32.8200   48.6961 H   0  0  0  0  0  0  0  0  0  0  0  0
   49.3206   33.0279   42.5776 H   0  0  0  0  0  0  0  0  0  0  0  0
   48.7058   32.3629   41.0263 H   0  0  0  0  0  0  0  0  0  0  0  0
   50.0846   33.5143   41.0263 H   0  0  0  0  0  0  0  0  0  0  0  0
   49.0440   36.0718   42.3820 H   0  0  0  0  0  0  0  0  0  0  0  0
   49.8197   35.6164   40.8271 H   0  0  0  0  0  0  0  0  0  0  0  0
   48.2233   36.4399   40.8271 H   0  0  0  0  0  0  0  0  0  0  0  0
   46.9551   33.1926   40.0435 H   0  0  0  0  0  0  0  0  0  0  0  0
   46.6035   34.9480   39.9828 H   0  0  0  0  0  0  0  0  0  0  0  0
   47.0474   33.2961   38.4480 H   0  0  0  0  0  0  0  0  0  0  0  0
   50.2390   32.7319   37.9518 H   0  0  0  0  0  0  0  0  0  0  0  0
   49.4424   31.4443   37.6215 H   0  0  0  0  0  0  0  0  0  0  0  0
   48.9227   34.2295   35.9994 H   0  0  0  0  0  0  0  0  0  0  0  0
   46.7118   32.7352   35.7541 H   0  0  0  0  0  0  0  0  0  0  0  0
   48.1794   33.0960   32.1774 H   0  0  0  0  0  0  0  0  0  0  0  0
   46.6451   33.3734   33.0444 H   0  0  0  0  0  0  0  0  0  0  0  0
  1 13  1  0
  1  5  1  0
  2 11  1  0
  3  2  2  0
  4  3  1  0
  5  4  1  0
  5  6  2  0
  6  2  1  0
  7  8  2  0
  9  8  1  0
 10  9  2  0
 11 12  2  0
 11 10  1  0
 12  7  1  0
 14  1  1  0
 15  1  1  0
 16 15  1  0
 17 16  1  0
 18 17  1  0
 19 18  1  0
 19 17  1  0
 20 19  1  0
 21 20  1  0
 22 21  2  0
 22 24  1  0
 23 21  1  0
  3 25  1  0
  7 26  1  0
  8 27  1  0
  9 28  1  0
 13 29  1  0
 13 30  1  0
 13 31  1  0
 14 32  1  0
 14 33  1  0
 14 34  1  0
 15 35  1  0
 15 36  1  0
 17 37  1  6
 18 38  1  0
 18 39  1  0
 19 40  1  6
 20 41  1  0
 23 42  1  0
 23 43  1  0
M  ISO  8  25  14  26  14  27  14  28  14  29   8  30   8  31   8  32   8
M  ISO  8  33   8  34   8  35   8  36   8  37  13  38  13  39  13  40  13
M  END
>  <minimizedAffinity>  (1) 
-6.01786757

>  <minimizedRMSD>  (1) 
1.11486566

$$$$
