
     RDKit          3D

 45 47  0  0  1  0  0  0  0  0999 V2000
   48.8160   34.4270   41.9170 C   0  0  0  0  0  0  0  0  0  0  0  0
   46.5110   33.6430   44.6650 C   0  0  0  0  0  0  0  0  0  0  0  0
   45.4110   34.4500   44.2640 C   0  0  0  0  0  0  0  0  0  0  0  0
   46.1020   35.2140   42.6760 S   0  0  0  0  0  0  0  0  0  0  0  0
   47.7380   34.2760   42.8910 C   0  0  0  0  0  0  0  0  0  0  0  0
   47.5280   33.7240   43.8380 N   0  0  0  0  0  0  0  0  0  0  0  0
   47.0530   31.0360   47.1310 C   0  0  0  0  0  0  0  0  0  0  0  0
   46.1340   31.3700   48.1610 C   0  0  0  0  0  0  0  0  0  0  0  0
   45.3450   32.4890   47.9890 C   0  0  0  0  0  0  0  0  0  0  0  0
   45.5100   33.1910   46.8350 N   0  0  0  0  0  0  0  0  0  0  0  0
   46.3700   32.8800   45.8670 C   0  0  0  0  0  0  0  0  0  0  0  0
   47.1620   31.7870   46.0030 N   0  0  0  0  0  0  0  0  0  0  0  0
   50.1080   33.9860   42.5640 C   0  0  0  0  0  0  0  0  0  0  0  0
   48.9360   35.8670   41.4940 C   0  0  0  0  0  0  0  0  0  0  0  0
   48.6470   33.5700   40.6940 C   0  0  0  0  0  0  0  0  0  0  0  0
   47.9260   34.1890   39.6900 O   0  0  0  0  0  0  0  0  0  0  0  0
   48.2160   33.6800   38.4520 C   0  0  2  0  0  0  0  0  0  0  0  0
   48.4950   34.6510   37.3270 C   0  0  0  0  0  0  0  0  0  0  0  0
   47.3720   33.6940   37.2770 C   0  0  1  0  0  0  0  0  0  0  0  0
   47.4640   32.5270   36.3220 C   0  0  0  0  0  0  0  0  0  0  0  0
   47.6040   31.2110   37.0560 C   0  0  0  0  0  0  0  0  0  0  0  0
   48.5460   32.7330   35.3070 C   0  0  0  0  0  0  0  0  0  0  0  0
   44.4310   34.5911   44.7433 H   0  0  0  0  0  0  0  0  0  0  0  0
   47.6919   30.1484   47.2487 H   0  0  0  0  0  0  0  0  0  0  0  0
   46.0535   30.7547   49.0693 H   0  0  0  0  0  0  0  0  0  0  0  0
   44.6150   32.7998   48.7510 H   0  0  0  0  0  0  0  0  0  0  0  0
   50.0012   34.0224   43.6582 H   0  0  0  0  0  0  0  0  0  0  0  0
   50.3416   32.9572   42.2524 H   0  0  0  0  0  0  0  0  0  0  0  0
   50.9219   34.6572   42.2524 H   0  0  0  0  0  0  0  0  0  0  0  0
   48.9894   36.5080   42.3863 H   0  0  0  0  0  0  0  0  0  0  0  0
   49.8482   35.9979   40.8933 H   0  0  0  0  0  0  0  0  0  0  0  0
   48.0581   36.1471   40.8933 H   0  0  0  0  0  0  0  0  0  0  0  0
   49.6439   33.3176   40.3036 H   0  0  0  0  0  0  0  0  0  0  0  0
   48.0830   32.6756   40.9973 H   0  0  0  0  0  0  0  0  0  0  0  0
   48.7104   32.8513   38.9801 H   0  0  0  0  0  0  0  0  0  0  0  0
   48.3036   35.7260   37.4604 H   0  0  0  0  0  0  0  0  0  0  0  0
   49.3566   34.8921   36.6870 H   0  0  0  0  0  0  0  0  0  0  0  0
   46.2893   33.7972   37.1122 H   0  0  0  0  0  0  0  0  0  0  0  0
   46.5147   32.4761   35.7687 H   0  0  0  0  0  0  0  0  0  0  0  0
   47.5847   31.3923   38.1408 H   0  0  0  0  0  0  0  0  0  0  0  0
   46.7714   30.5470   36.7804 H   0  0  0  0  0  0  0  0  0  0  0  0
   48.5576   30.7371   36.7804 H   0  0  0  0  0  0  0  0  0  0  0  0
   49.5013   32.9149   35.8212 H   0  0  0  0  0  0  0  0  0  0  0  0
   48.6337   31.8354   34.6772 H   0  0  0  0  0  0  0  0  0  0  0  0
   48.2977   33.6000   34.6772 H   0  0  0  0  0  0  0  0  0  0  0  0
  1 13  1  0
  1  5  1  0
  2 11  1  0
  3  2  2  0
  4  5  1  0
  4  3  1  0
  5  6  2  0
  6  2  1  0
  7  8  2  0
  9  8  1  0
 10  9  2  0
 11 12  2  0
 11 10  1  0
 12  7  1  0
 14  1  1  0
 15  1  1  0
 16 15  1  0
 17 16  1  0
 18 17  1  0
 19 18  1  0
 19 17  1  0
 20 21  1  0
 20 19  1  0
 22 20  1  0
  3 23  1  0
  7 24  1  0
  8 25  1  0
  9 26  1  0
 13 27  1  0
 13 28  1  0
 13 29  1  0
 14 30  1  0
 14 31  1  0
 14 32  1  0
 15 33  1  0
 15 34  1  0
 17 35  1  1
 18 36  1  0
 18 37  1  0
 19 38  1  1
 20 39  1  0
 21 40  1  0
 21 41  1  0
 21 42  1  0
 22 43  1  0
 22 44  1  0
 22 45  1  0
M  ISO  8  23  14  24  14  25  14  26  14  27   8  28   8  29   8  30   8
M  ISO  8  31   8  32   8  33   8  34   8  35  13  36  13  37  13  38  13
M  ISO  7  39   8  40   8  41   8  42   8  43   8  44   8  45   8
M  END
>  <minimizedAffinity>  (1) 
-5.55177689

>  <minimizedRMSD>  (1) 
1.50042033

$$$$
