
     RDKit          3D

 37 39  0  0  1  0  0  0  0  0999 V2000
   48.1390   33.9610   42.3080 C   0  0  0  0  0  0  0  0  0  0  0  0
   46.2990   33.3870   45.4310 C   0  0  0  0  0  0  0  0  0  0  0  0
   45.2240   34.2930   45.2170 C   0  0  0  0  0  0  0  0  0  0  0  0
   45.6860   34.9920   43.5240 S   0  0  0  0  0  0  0  0  0  0  0  0
   47.2420   33.9060   43.4600 C   0  0  0  0  0  0  0  0  0  0  0  0
   47.1490   33.3790   44.4360 N   0  0  0  0  0  0  0  0  0  0  0  0
   47.3310   30.9930   47.9530 C   0  0  0  0  0  0  0  0  0  0  0  0
   46.3500   31.1400   48.9640 C   0  0  0  0  0  0  0  0  0  0  0  0
   45.3510   32.0650   48.7600 C   0  0  0  0  0  0  0  0  0  0  0  0
   45.3770   32.7750   47.5970 N   0  0  0  0  0  0  0  0  0  0  0  0
   46.3000   32.6360   46.6460 C   0  0  0  0  0  0  0  0  0  0  0  0
   47.2980   31.7330   46.8160 N   0  0  0  0  0  0  0  0  0  0  0  0
   48.6520   32.5640   42.0320 C   0  0  0  0  0  0  0  0  0  0  0  0
   49.3090   34.8680   42.6160 C   0  0  0  0  0  0  0  0  0  0  0  0
   47.4870   34.4340   41.0510 C   0  0  0  0  0  0  0  0  0  0  0  0
   48.3460   34.4860   39.9730 O   0  0  0  0  0  0  0  0  0  0  0  0
   47.7710   34.0350   38.8170 C   0  0  2  0  0  0  0  0  0  0  0  0
   48.2670   32.7310   38.2350 C   0  0  0  0  0  0  0  0  0  0  0  0
   48.3960   34.0100   37.5060 C   0  0  2  0  0  0  0  0  0  0  0  0
   49.6200   34.6020   37.2530 O   0  0  0  0  0  0  0  0  0  0  0  0
   44.3616   34.5232   45.8598 H   0  0  0  0  0  0  0  0  0  0  0  0
   48.1398   30.2607   48.0930 H   0  0  0  0  0  0  0  0  0  0  0  0
   46.3852   30.5350   49.8820 H   0  0  0  0  0  0  0  0  0  0  0  0
   44.5608   32.2252   49.5083 H   0  0  0  0  0  0  0  0  0  0  0  0
   48.8415   32.0481   42.9848 H   0  0  0  0  0  0  0  0  0  0  0  0
   47.9006   32.0047   41.4553 H   0  0  0  0  0  0  0  0  0  0  0  0
   49.5868   32.6239   41.4553 H   0  0  0  0  0  0  0  0  0  0  0  0
   49.4258   34.9585   43.7060 H   0  0  0  0  0  0  0  0  0  0  0  0
   50.2265   34.4428   42.1830 H   0  0  0  0  0  0  0  0  0  0  0  0
   49.1259   35.8625   42.1830 H   0  0  0  0  0  0  0  0  0  0  0  0
   46.6625   33.7481   40.8067 H   0  0  0  0  0  0  0  0  0  0  0  0
   47.1348   35.4598   41.2347 H   0  0  0  0  0  0  0  0  0  0  0  0
   46.8272   34.4754   39.1711 H   0  0  0  0  0  0  0  0  0  0  0  0
   49.1569   32.2388   38.6543 H   0  0  0  0  0  0  0  0  0  0  0  0
   47.8291   31.7441   38.0247 H   0  0  0  0  0  0  0  0  0  0  0  0
   48.0933   34.3562   36.5068 H   0  0  0  0  0  0  0  0  0  0  0  0
   50.0658   34.8176   38.1103 H   0  0  0  0  0  0  0  0  0  0  0  0
  1 14  1  0
  1  5  1  0
  2 11  1  0
  3  2  2  0
  4  3  1  0
  5  4  1  0
  5  6  2  0
  6  2  1  0
  7  8  2  0
  9  8  1  0
 10  9  2  0
 11 12  2  0
 11 10  1  0
 12  7  1  0
 13  1  1  0
 15  1  1  0
 16 15  1  0
 17 16  1  0
 18 17  1  0
 19 18  1  0
 19 17  1  0
 20 19  1  0
  3 21  1  0
  7 22  1  0
  8 23  1  0
  9 24  1  0
 13 25  1  0
 13 26  1  0
 13 27  1  0
 14 28  1  0
 14 29  1  0
 14 30  1  0
 15 31  1  0
 15 32  1  0
 17 33  1  6
 18 34  1  0
 18 35  1  0
 19 36  1  6
 20 37  1  0
M  ISO  8  21  14  22  14  23  14  24  14  25   8  26   8  27   8  28   8
M  ISO  8  29   8  30   8  31   8  32   8  33  13  34  13  35  13  36  13
M  ISO  1  37   3
M  END
>  <minimizedAffinity>  (1) 
-5.32056999

>  <minimizedRMSD>  (1) 
0.36543268

$$$$
