
     RDKit          3D

 38 40  0  0  1  0  0  0  0  0999 V2000
   48.1930   33.9690   42.3210 C   0  0  0  0  0  0  0  0  0  0  0  0
   46.3140   33.3720   45.4160 C   0  0  0  0  0  0  0  0  0  0  0  0
   45.2430   34.2640   45.2030 C   0  0  0  0  0  0  0  0  0  0  0  0
   45.7210   34.9730   43.5250 S   0  0  0  0  0  0  0  0  0  0  0  0
   47.2840   33.9010   43.4630 C   0  0  0  0  0  0  0  0  0  0  0  0
   47.1790   33.3700   44.4320 N   0  0  0  0  0  0  0  0  0  0  0  0
   47.3620   30.9690   47.9400 C   0  0  0  0  0  0  0  0  0  0  0  0
   46.4070   31.1400   48.9680 C   0  0  0  0  0  0  0  0  0  0  0  0
   45.4140   32.0800   48.7700 C   0  0  0  0  0  0  0  0  0  0  0  0
   45.4330   32.7680   47.6010 N   0  0  0  0  0  0  0  0  0  0  0  0
   46.3440   32.5980   46.6330 C   0  0  0  0  0  0  0  0  0  0  0  0
   47.3210   31.6980   46.7860 N   0  0  0  0  0  0  0  0  0  0  0  0
   48.7180   32.5870   42.0380 C   0  0  0  0  0  0  0  0  0  0  0  0
   49.3530   34.8950   42.6350 C   0  0  0  0  0  0  0  0  0  0  0  0
   47.5440   34.4570   41.0590 C   0  0  0  0  0  0  0  0  0  0  0  0
   48.3520   34.3450   39.9450 O   0  0  0  0  0  0  0  0  0  0  0  0
   47.6600   33.9310   38.8360 C   0  0  2  0  0  0  0  0  0  0  0  0
   48.0930   32.6580   38.1490 C   0  0  0  0  0  0  0  0  0  0  0  0
   48.1380   33.9700   37.4710 C   0  0  2  0  0  0  0  0  0  0  0  0
   49.4730   34.5310   37.2870 N   0  0  0  0  0  0  0  0  0  0  0  0
   44.3726   34.4840   45.8385 H   0  0  0  0  0  0  0  0  0  0  0  0
   48.1623   30.2263   48.0736 H   0  0  0  0  0  0  0  0  0  0  0  0
   46.4528   30.5459   49.8926 H   0  0  0  0  0  0  0  0  0  0  0  0
   44.6395   32.2631   49.5294 H   0  0  0  0  0  0  0  0  0  0  0  0
   48.9151   32.0681   42.9877 H   0  0  0  0  0  0  0  0  0  0  0  0
   47.9717   32.0225   41.4598 H   0  0  0  0  0  0  0  0  0  0  0  0
   49.6509   32.6604   41.4598 H   0  0  0  0  0  0  0  0  0  0  0  0
   49.4656   34.9849   43.7255 H   0  0  0  0  0  0  0  0  0  0  0  0
   50.2776   34.4838   42.2036 H   0  0  0  0  0  0  0  0  0  0  0  0
   49.1569   35.8877   42.2036 H   0  0  0  0  0  0  0  0  0  0  0  0
   46.6307   33.8685   40.8872 H   0  0  0  0  0  0  0  0  0  0  0  0
   47.3310   35.5272   41.1978 H   0  0  0  0  0  0  0  0  0  0  0  0
   46.7577   34.3445   39.3102 H   0  0  0  0  0  0  0  0  0  0  0  0
   49.0244   32.1546   38.4476 H   0  0  0  0  0  0  0  0  0  0  0  0
   47.6385   31.6777   37.9431 H   0  0  0  0  0  0  0  0  0  0  0  0
   47.7289   34.3620   36.5281 H   0  0  0  0  0  0  0  0  0  0  0  0
   49.8998   34.7104   38.2071 H   0  0  0  0  0  0  0  0  0  0  0  0
   50.0564   33.8639   36.7620 H   0  0  0  0  0  0  0  0  0  0  0  0
  1 14  1  0
  1  5  1  0
  2 11  1  0
  3  2  2  0
  4  3  1  0
  5  4  1  0
  5  6  2  0
  6  2  1  0
  7  8  2  0
  9  8  1  0
 10  9  2  0
 11 12  2  0
 11 10  1  0
 12  7  1  0
 13  1  1  0
 15  1  1  0
 16 15  1  0
 17 16  1  0
 18 17  1  0
 19 18  1  0
 19 17  1  0
 20 19  1  0
  3 21  1  0
  7 22  1  0
  8 23  1  0
  9 24  1  0
 13 25  1  0
 13 26  1  0
 13 27  1  0
 14 28  1  0
 14 29  1  0
 14 30  1  0
 15 31  1  0
 15 32  1  0
 17 33  1  6
 18 34  1  0
 18 35  1  0
 19 36  1  6
 20 37  1  0
 20 38  1  0
M  ISO  8  21  14  22  14  23  14  24  14  25   8  26   8  27   8  28   8
M  ISO  8  29   8  30   8  31   8  32   8  33  13  34  13  35  13  36  13
M  ISO  2  37   5  38   5
M  END
>  <minimizedAffinity>  (1) 
-5.27201986

>  <minimizedRMSD>  (1) 
0.376965195

$$$$
