
     RDKit          3D

 38 40  0  0  1  0  0  0  0  0999 V2000
   47.5060   34.2020   41.9850 C   0  0  0  0  0  0  0  0  0  0  0  0
   46.0600   33.6500   45.3200 C   0  0  0  0  0  0  0  0  0  0  0  0
   45.0430   34.6100   45.2760 C   0  0  0  0  0  0  0  0  0  0  0  0
   45.3090   35.3360   43.5500 S   0  0  0  0  0  0  0  0  0  0  0  0
   46.7700   34.1640   43.2480 C   0  0  0  0  0  0  0  0  0  0  0  0
   46.7630   33.6250   44.2170 N   0  0  0  0  0  0  0  0  0  0  0  0
   47.4490   31.3360   47.7380 C   0  0  0  0  0  0  0  0  0  0  0  0
   46.5170   31.3770   48.8000 C   0  0  0  0  0  0  0  0  0  0  0  0
   45.4310   32.1910   48.6580 C   0  0  0  0  0  0  0  0  0  0  0  0
   45.3100   32.9110   47.5130 N   0  0  0  0  0  0  0  0  0  0  0  0
   46.1940   32.8730   46.5090 C   0  0  0  0  0  0  0  0  0  0  0  0
   47.2880   32.0750   46.6070 N   0  0  0  0  0  0  0  0  0  0  0  0
   48.4350   33.0160   41.9440 C   0  0  0  0  0  0  0  0  0  0  0  0
   48.3120   35.4810   41.8920 C   0  0  0  0  0  0  0  0  0  0  0  0
   46.6320   34.1120   40.7720 C   0  0  0  0  0  0  0  0  0  0  0  0
   47.0540   33.1630   39.8610 O   0  0  0  0  0  0  0  0  0  0  0  0
   46.2710   33.1270   38.7360 C   0  0  2  0  0  0  0  0  0  0  0  0
   46.4520   31.9710   37.7730 C   0  0  0  0  0  0  0  0  0  0  0  0
   46.7270   33.3700   37.3830 C   0  0  2  0  0  0  0  0  0  0  0  0
   48.1800   33.7650   37.2630 C   0  0  0  0  0  0  0  0  0  0  0  0
   48.6620   34.8680   37.5140 O   0  0  0  0  0  0  0  0  0  0  0  0
   44.2934   34.8712   46.0375 H   0  0  0  0  0  0  0  0  0  0  0  0
   48.3320   30.6863   47.8288 H   0  0  0  0  0  0  0  0  0  0  0  0
   46.6620   30.7742   49.7086 H   0  0  0  0  0  0  0  0  0  0  0  0
   44.6724   32.2622   49.4514 H   0  0  0  0  0  0  0  0  0  0  0  0
   48.6784   32.7052   42.9707 H   0  0  0  0  0  0  0  0  0  0  0  0
   47.9453   32.1847   41.4157 H   0  0  0  0  0  0  0  0  0  0  0  0
   49.3594   33.2924   41.4157 H   0  0  0  0  0  0  0  0  0  0  0  0
   48.5411   35.8445   42.9046 H   0  0  0  0  0  0  0  0  0  0  0  0
   49.2500   35.2848   41.3519 H   0  0  0  0  0  0  0  0  0  0  0  0
   47.7303   36.2425   41.3519 H   0  0  0  0  0  0  0  0  0  0  0  0
   45.6122   33.8559   41.0952 H   0  0  0  0  0  0  0  0  0  0  0  0
   46.6752   35.0885   40.2674 H   0  0  0  0  0  0  0  0  0  0  0  0
   45.4678   33.5814   39.3346 H   0  0  0  0  0  0  0  0  0  0  0  0
   47.2793   31.2589   37.9086 H   0  0  0  0  0  0  0  0  0  0  0  0
   45.8219   31.1538   37.3921 H   0  0  0  0  0  0  0  0  0  0  0  0
   46.3844   34.0037   36.5517 H   0  0  0  0  0  0  0  0  0  0  0  0
   48.8770   32.9878   36.9162 H   0  0  0  0  0  0  0  0  0  0  0  0
  1  5  1  0
  2 11  1  0
  3  2  2  0
  4  3  1  0
  5  4  1  0
  5  6  2  0
  6  2  1  0
  7  8  2  0
  9  8  1  0
 10  9  2  0
 11 12  2  0
 11 10  1  0
 12  7  1  0
 13  1  1  0
 14  1  1  0
 15  1  1  0
 16 15  1  0
 17 16  1  0
 18 17  1  0
 19 18  1  0
 19 17  1  0
 20 19  1  0
 20 21  2  0
  3 22  1  0
  7 23  1  0
  8 24  1  0
  9 25  1  0
 13 26  1  0
 13 27  1  0
 13 28  1  0
 14 29  1  0
 14 30  1  0
 14 31  1  0
 15 32  1  0
 15 33  1  0
 17 34  1  1
 18 35  1  0
 18 36  1  0
 19 37  1  6
 20 38  1  0
M  ISO  8  22  14  23  14  24  14  25  14  26   8  27   8  28   8  29   8
M  ISO  8  30   8  31   8  32   8  33   8  34  13  35  13  36  13  37  13
M  ISO  1  38   6
M  END
>  <minimizedAffinity>  (1) 
-4.93481684

>  <minimizedRMSD>  (1) 
1.18978536

$$$$
