
     RDKit          3D

 47 50  0  0  1  0  0  0  0  0999 V2000
   48.7500   34.4170   41.8310 C   0  0  0  0  0  0  0  0  0  0  0  0
   46.5060   33.6540   44.6210 C   0  0  0  0  0  0  0  0  0  0  0  0
   45.4120   34.4700   44.2320 C   0  0  0  0  0  0  0  0  0  0  0  0
   46.1000   35.2080   42.6290 S   0  0  0  0  0  0  0  0  0  0  0  0
   47.7190   34.2550   42.8320 C   0  0  0  0  0  0  0  0  0  0  0  0
   47.5240   33.7070   43.7850 N   0  0  0  0  0  0  0  0  0  0  0  0
   47.0580   31.0500   47.1020 C   0  0  0  0  0  0  0  0  0  0  0  0
   46.1430   31.3960   48.1400 C   0  0  0  0  0  0  0  0  0  0  0  0
   45.3680   32.5150   47.9550 C   0  0  0  0  0  0  0  0  0  0  0  0
   45.5230   33.2160   46.7990 N   0  0  0  0  0  0  0  0  0  0  0  0
   46.3840   32.8780   45.8350 C   0  0  0  0  0  0  0  0  0  0  0  0
   47.1660   31.7950   45.9670 N   0  0  0  0  0  0  0  0  0  0  0  0
   50.0850   33.9240   42.4570 C   0  0  0  0  0  0  0  0  0  0  0  0
   48.9570   35.8700   41.5000 C   0  0  0  0  0  0  0  0  0  0  0  0
   48.6210   33.5990   40.6210 C   0  0  0  0  0  0  0  0  0  0  0  0
   47.9470   34.1980   39.5830 O   0  0  0  0  0  0  0  0  0  0  0  0
   48.2900   33.6430   38.3680 C   0  0  2  0  0  0  0  0  0  0  0  0
   48.4090   34.5730   37.2100 C   0  0  0  0  0  0  0  0  0  0  0  0
   47.3600   33.5680   37.2220 C   0  0  1  0  0  0  0  0  0  0  0  0
   47.6050   32.4290   36.2480 C   0  0  0  0  0  0  0  0  0  0  0  0
   48.5240   31.5340   36.4370 O   0  0  0  0  0  0  0  0  0  0  0  0
   46.8270   32.2990   35.0950 O   0  0  0  0  0  0  0  0  0  0  0  0
   47.3670   31.8660   33.8910 C   0  0  0  0  0  0  0  0  0  0  0  0
   47.2970   30.6510   33.2030 C   0  0  0  0  0  0  0  0  0  0  0  0
   47.9760   30.5880   32.0080 C   0  0  0  0  0  0  0  0  0  0  0  0
   48.6790   31.5990   31.4900 N   0  0  0  0  0  0  0  0  0  0  0  0
   48.7380   32.7600   32.1620 C   0  0  0  0  0  0  0  0  0  0  0  0
   48.0900   32.8890   33.3470 N   0  0  0  0  0  0  0  0  0  0  0  0
   44.4402   34.6288   44.7223 H   0  0  0  0  0  0  0  0  0  0  0  0
   47.6923   30.1592   47.2212 H   0  0  0  0  0  0  0  0  0  0  0  0
   46.0610   30.7897   49.0541 H   0  0  0  0  0  0  0  0  0  0  0  0
   44.6437   32.8349   48.7186 H   0  0  0  0  0  0  0  0  0  0  0  0
   50.0081   33.9524   43.5539 H   0  0  0  0  0  0  0  0  0  0  0  0
   50.2846   32.8929   42.1300 H   0  0  0  0  0  0  0  0  0  0  0  0
   50.9068   34.5779   42.1300 H   0  0  0  0  0  0  0  0  0  0  0  0
   49.0396   36.4500   42.4310 H   0  0  0  0  0  0  0  0  0  0  0  0
   49.8805   35.9845   40.9135 H   0  0  0  0  0  0  0  0  0  0  0  0
   48.1022   36.2378   40.9135 H   0  0  0  0  0  0  0  0  0  0  0  0
   49.6326   33.3467   40.2704 H   0  0  0  0  0  0  0  0  0  0  0  0
   48.0255   32.7195   40.9069 H   0  0  0  0  0  0  0  0  0  0  0  0
   48.9046   32.8915   38.8852 H   0  0  0  0  0  0  0  0  0  0  0  0
   49.2542   34.4765   36.5126 H   0  0  0  0  0  0  0  0  0  0  0  0
   48.4352   35.6663   37.0920 H   0  0  0  0  0  0  0  0  0  0  0  0
   46.2638   33.5735   37.1308 H   0  0  0  0  0  0  0  0  0  0  0  0
   46.7307   29.7933   33.5951 H   0  0  0  0  0  0  0  0  0  0  0  0
   47.9375   29.6449   31.4431 H   0  0  0  0  0  0  0  0  0  0  0  0
   49.3108   33.6051   31.7524 H   0  0  0  0  0  0  0  0  0  0  0  0
  1 13  1  0
  1  5  1  0
  2 11  1  0
  3  2  2  0
  4  5  1  0
  4  3  1  0
  5  6  2  0
  6  2  1  0
  7  8  2  0
  9  8  1  0
 10  9  2  0
 11 12  2  0
 11 10  1  0
 12  7  1  0
 14  1  1  0
 15  1  1  0
 16 15  1  0
 17 16  1  0
 18 19  1  0
 18 17  1  0
 19 17  1  0
 20 21  2  0
 20 19  1  0
 22 20  1  0
 23 22  1  0
 24 23  2  0
 25 24  1  0
 26 25  2  0
 26 27  1  0
 27 28  2  0
 28 23  1  0
  3 29  1  0
  7 30  1  0
  8 31  1  0
  9 32  1  0
 13 33  1  0
 13 34  1  0
 13 35  1  0
 14 36  1  0
 14 37  1  0
 14 38  1  0
 15 39  1  0
 15 40  1  0
 17 41  1  1
 18 42  1  0
 18 43  1  0
 19 44  1  1
 24 45  1  0
 25 46  1  0
 27 47  1  0
M  ISO  8  29  14  30  14  31  14  32  14  33   8  34   8  35   8  36   8
M  ISO  8  37   8  38   8  39   8  40   8  41  13  42  13  43  13  44  13
M  ISO  3  45  14  46  14  47  14
M  END
>  <minimizedAffinity>  (1) 
-6.24444532

>  <minimizedRMSD>  (1) 
2.49050093

$$$$
