
     RDKit          3D

 45 47  0  0  1  0  0  0  0  0999 V2000
   48.7620   34.4000   41.8730 C   0  0  0  0  0  0  0  0  0  0  0  0
   46.5070   33.6350   44.6630 C   0  0  0  0  0  0  0  0  0  0  0  0
   45.4180   34.4640   44.2680 C   0  0  0  0  0  0  0  0  0  0  0  0
   46.1130   35.2040   42.6760 S   0  0  0  0  0  0  0  0  0  0  0  0
   47.7270   34.2430   42.8720 C   0  0  0  0  0  0  0  0  0  0  0  0
   47.5210   33.6960   43.8200 N   0  0  0  0  0  0  0  0  0  0  0  0
   47.0960   31.0750   47.1530 C   0  0  0  0  0  0  0  0  0  0  0  0
   46.1690   31.3980   48.1900 C   0  0  0  0  0  0  0  0  0  0  0  0
   45.3550   32.5040   47.9940 C   0  0  0  0  0  0  0  0  0  0  0  0
   45.5010   33.2080   46.8180 N   0  0  0  0  0  0  0  0  0  0  0  0
   46.3880   32.8730   45.8660 C   0  0  0  0  0  0  0  0  0  0  0  0
   47.1800   31.8140   46.0300 N   0  0  0  0  0  0  0  0  0  0  0  0
   50.1050   33.9660   42.5240 C   0  0  0  0  0  0  0  0  0  0  0  0
   48.9200   35.8370   41.4870 C   0  0  0  0  0  0  0  0  0  0  0  0
   48.6610   33.5360   40.6900 C   0  0  0  0  0  0  0  0  0  0  0  0
   47.8510   34.0090   39.6890 O   0  0  0  0  0  0  0  0  0  0  0  0
   48.2900   33.6070   38.4440 C   0  0  2  0  0  0  0  0  0  0  0  0
   48.4840   34.6780   37.4230 C   0  0  0  0  0  0  0  0  0  0  0  0
   47.4480   33.6800   37.2310 C   0  0  1  0  0  0  0  0  0  0  0  0
   47.7660   32.6660   36.1520 C   0  0  0  0  0  0  0  0  0  0  0  0
   48.7540   32.8170   35.3240 O   0  0  0  0  0  0  0  0  0  0  0  0
   47.0050   31.5090   36.0010 O   0  0  0  0  0  0  0  0  0  0  0  0
   46.4400   31.2340   34.7210 C   0  0  0  0  0  0  0  0  0  0  0  0
   45.3230   32.1970   34.3800 C   0  0  0  0  0  0  0  0  0  0  0  0
   44.4449   34.6273   44.7542 H   0  0  0  0  0  0  0  0  0  0  0  0
   47.7561   30.2034   47.2739 H   0  0  0  0  0  0  0  0  0  0  0  0
   46.1031   30.7942   49.1071 H   0  0  0  0  0  0  0  0  0  0  0  0
   44.6179   32.8089   48.7515 H   0  0  0  0  0  0  0  0  0  0  0  0
   50.0085   33.9972   43.6193 H   0  0  0  0  0  0  0  0  0  0  0  0
   50.3523   32.9422   42.2067 H   0  0  0  0  0  0  0  0  0  0  0  0
   50.9047   34.6515   42.2067 H   0  0  0  0  0  0  0  0  0  0  0  0
   48.9880   36.4551   42.3944 H   0  0  0  0  0  0  0  0  0  0  0  0
   49.8369   35.9580   40.8914 H   0  0  0  0  0  0  0  0  0  0  0  0
   48.0513   36.1543   40.8914 H   0  0  0  0  0  0  0  0  0  0  0  0
   49.6720   33.4054   40.2766 H   0  0  0  0  0  0  0  0  0  0  0  0
   48.2031   32.5974   41.0355 H   0  0  0  0  0  0  0  0  0  0  0  0
   48.8711   32.7953   38.9060 H   0  0  0  0  0  0  0  0  0  0  0  0
   48.2091   35.7169   37.6578 H   0  0  0  0  0  0  0  0  0  0  0  0
   49.3360   35.0370   36.8269 H   0  0  0  0  0  0  0  0  0  0  0  0
   46.3622   33.7027   37.0563 H   0  0  0  0  0  0  0  0  0  0  0  0
   47.2282   31.3188   33.9584 H   0  0  0  0  0  0  0  0  0  0  0  0
   46.0196   30.2178   34.7444 H   0  0  0  0  0  0  0  0  0  0  0  0
   44.8755   32.5828   35.3078 H   0  0  0  0  0  0  0  0  0  0  0  0
   45.7274   33.0342   33.7922 H   0  0  0  0  0  0  0  0  0  0  0  0
   44.5544   31.6737   33.7922 H   0  0  0  0  0  0  0  0  0  0  0  0
  1 13  1  0
  1  5  1  0
  2 11  1  0
  3  2  2  0
  4  5  1  0
  4  3  1  0
  5  6  2  0
  6  2  1  0
  7  8  2  0
  9  8  1  0
 10  9  2  0
 11 12  2  0
 11 10  1  0
 12  7  1  0
 14  1  1  0
 15  1  1  0
 16 15  1  0
 17 16  1  0
 18 17  1  0
 19 18  1  0
 19 17  1  0
 20 19  1  0
 21 20  2  0
 22 20  1  0
 23 22  1  0
 24 23  1  0
  3 25  1  0
  7 26  1  0
  8 27  1  0
  9 28  1  0
 13 29  1  0
 13 30  1  0
 13 31  1  0
 14 32  1  0
 14 33  1  0
 14 34  1  0
 15 35  1  0
 15 36  1  0
 17 37  1  1
 18 38  1  0
 18 39  1  0
 19 40  1  1
 23 41  1  0
 23 42  1  0
 24 43  1  0
 24 44  1  0
 24 45  1  0
M  ISO  8  25  14  26  14  27  14  28  14  29   8  30   8  31   8  32   8
M  ISO  8  33   8  34   8  35   8  36   8  37  13  38  13  39  13  40  13
M  ISO  5  41   8  42   8  43   8  44   8  45   8
M  END
>  <minimizedAffinity>  (1) 
-5.44779301

>  <minimizedRMSD>  (1) 
1.29037011

$$$$
