
     RDKit          3D

 48 50  0  0  1  0  0  0  0  0999 V2000
   48.7550   34.3690   41.8310 C   0  0  0  0  0  0  0  0  0  0  0  0
   46.5070   33.6380   44.6340 C   0  0  0  0  0  0  0  0  0  0  0  0
   45.4250   34.4660   44.2430 C   0  0  0  0  0  0  0  0  0  0  0  0
   46.1200   35.1920   42.6410 S   0  0  0  0  0  0  0  0  0  0  0  0
   47.7270   34.2220   42.8380 C   0  0  0  0  0  0  0  0  0  0  0  0
   47.5280   33.6780   43.7930 N   0  0  0  0  0  0  0  0  0  0  0  0
   47.0690   31.0560   47.1360 C   0  0  0  0  0  0  0  0  0  0  0  0
   46.1490   31.4060   48.1510 C   0  0  0  0  0  0  0  0  0  0  0  0
   45.3580   32.5110   47.9760 C   0  0  0  0  0  0  0  0  0  0  0  0
   45.5170   33.2050   46.8130 N   0  0  0  0  0  0  0  0  0  0  0  0
   46.3950   32.8660   45.8470 C   0  0  0  0  0  0  0  0  0  0  0  0
   47.1770   31.7920   45.9970 N   0  0  0  0  0  0  0  0  0  0  0  0
   50.1000   33.9230   42.4760 C   0  0  0  0  0  0  0  0  0  0  0  0
   48.9320   35.8090   41.4480 C   0  0  0  0  0  0  0  0  0  0  0  0
   48.6520   33.5010   40.6560 C   0  0  0  0  0  0  0  0  0  0  0  0
   47.8170   33.9530   39.6630 O   0  0  0  0  0  0  0  0  0  0  0  0
   48.2740   33.5760   38.4150 C   0  0  2  0  0  0  0  0  0  0  0  0
   48.4540   34.6560   37.4040 C   0  0  0  0  0  0  0  0  0  0  0  0
   47.4340   33.6390   37.2010 C   0  0  1  0  0  0  0  0  0  0  0  0
   47.7810   32.6490   36.1040 C   0  0  0  0  0  0  0  0  0  0  0  0
   48.6950   32.8790   35.2150 O   0  0  0  0  0  0  0  0  0  0  0  0
   47.1190   31.4240   36.0130 O   0  0  0  0  0  0  0  0  0  0  0  0
   46.2060   31.1050   35.0030 C   0  0  0  0  0  0  0  0  0  0  0  0
   46.8650   30.4300   33.8160 C   0  0  0  0  0  0  0  0  0  0  0  0
   45.4180   32.2820   34.5070 C   0  0  0  0  0  0  0  0  0  0  0  0
   44.4552   34.6377   44.7329 H   0  0  0  0  0  0  0  0  0  0  0  0
   47.7096   30.1718   47.2699 H   0  0  0  0  0  0  0  0  0  0  0  0
   46.0696   30.8010   49.0663 H   0  0  0  0  0  0  0  0  0  0  0  0
   44.6289   32.8237   48.7380 H   0  0  0  0  0  0  0  0  0  0  0  0
   50.0089   33.9532   43.5718 H   0  0  0  0  0  0  0  0  0  0  0  0
   50.3380   32.8978   42.1560 H   0  0  0  0  0  0  0  0  0  0  0  0
   50.9034   34.6028   42.1560 H   0  0  0  0  0  0  0  0  0  0  0  0
   49.0075   36.4236   42.3572 H   0  0  0  0  0  0  0  0  0  0  0  0
   49.8505   35.9199   40.8530 H   0  0  0  0  0  0  0  0  0  0  0  0
   48.0677   36.1391   40.8530 H   0  0  0  0  0  0  0  0  0  0  0  0
   49.6589   33.3879   40.2279 H   0  0  0  0  0  0  0  0  0  0  0  0
   48.2160   32.5564   41.0132 H   0  0  0  0  0  0  0  0  0  0  0  0
   48.8730   32.7757   38.8740 H   0  0  0  0  0  0  0  0  0  0  0  0
   48.1603   35.6884   37.6447 H   0  0  0  0  0  0  0  0  0  0  0  0
   49.3020   35.0339   36.8140 H   0  0  0  0  0  0  0  0  0  0  0  0
   46.3477   33.6359   37.0281 H   0  0  0  0  0  0  0  0  0  0  0  0
   45.5103   30.4035   35.4867 H   0  0  0  0  0  0  0  0  0  0  0  0
   47.5915   29.6858   34.1742 H   0  0  0  0  0  0  0  0  0  0  0  0
   46.0981   29.9298   33.2063 H   0  0  0  0  0  0  0  0  0  0  0  0
   47.3834   31.1847   33.2063 H   0  0  0  0  0  0  0  0  0  0  0  0
   45.0348   32.8544   35.3646 H   0  0  0  0  0  0  0  0  0  0  0  0
   46.0671   32.9268   33.8964 H   0  0  0  0  0  0  0  0  0  0  0  0
   44.5745   31.9275   33.8964 H   0  0  0  0  0  0  0  0  0  0  0  0
  1 13  1  0
  1  5  1  0
  2 11  1  0
  3  2  2  0
  4  5  1  0
  4  3  1  0
  5  6  2  0
  6  2  1  0
  7  8  2  0
  9  8  1  0
 10  9  2  0
 11 12  2  0
 11 10  1  0
 12  7  1  0
 14  1  1  0
 15  1  1  0
 16 15  1  0
 17 16  1  0
 18 17  1  0
 19 18  1  0
 19 17  1  0
 20 19  1  0
 21 20  2  0
 22 20  1  0
 23 22  1  0
 24 23  1  0
 25 23  1  0
  3 26  1  0
  7 27  1  0
  8 28  1  0
  9 29  1  0
 13 30  1  0
 13 31  1  0
 13 32  1  0
 14 33  1  0
 14 34  1  0
 14 35  1  0
 15 36  1  0
 15 37  1  0
 17 38  1  1
 18 39  1  0
 18 40  1  0
 19 41  1  1
 23 42  1  0
 24 43  1  0
 24 44  1  0
 24 45  1  0
 25 46  1  0
 25 47  1  0
 25 48  1  0
M  ISO  8  26  14  27  14  28  14  29  14  30   8  31   8  32   8  33   8
M  ISO  8  34   8  35   8  36   8  37   8  38  13  39  13  40  13  41  13
M  ISO  7  42   8  43   8  44   8  45   8  46   8  47   8  48   8
M  END
>  <minimizedAffinity>  (1) 
-5.54160738

>  <minimizedRMSD>  (1) 
1.56852043

$$$$
