
     RDKit          3D

 29 31  0  0  0  0  0  0  0  0999 V2000
   46.5860   33.9710   43.2890 C   0  0  0  0  0  0  0  0  0  0  0  0
   45.3680   34.5790   43.5760 C   0  0  0  0  0  0  0  0  0  0  0  0
   44.9370   34.5020   44.9040 C   0  0  0  0  0  0  0  0  0  0  0  0
   45.7020   33.8590   45.8270 N   0  0  0  0  0  0  0  0  0  0  0  0
   46.8660   33.2890   45.5050 C   0  0  0  0  0  0  0  0  0  0  0  0
   47.2980   33.3500   44.2400 N   0  0  0  0  0  0  0  0  0  0  0  0
   47.0500   34.0350   41.9380 N   0  0  0  0  0  0  0  0  0  0  0  0
   47.9600   35.0320   41.7170 C   0  0  0  0  0  0  0  0  0  0  0  0
   48.3260   34.9980   40.4140 N   0  0  0  0  0  0  0  0  0  0  0  0
   47.6320   33.9840   39.8720 C   0  0  0  0  0  0  0  0  0  0  0  0
   46.8510   33.3950   40.8080 N   0  0  0  0  0  0  0  0  0  0  0  0
   44.6260   35.2380   42.5330 C   0  0  0  0  0  0  0  0  0  0  0  0
   43.4990   34.2990   42.0840 C   0  0  0  0  0  0  0  0  0  0  0  0
   42.7040   34.7880   40.9920 C   0  0  0  0  0  0  0  0  0  0  0  0
   42.9450   34.8380   39.6150 C   0  0  0  0  0  0  0  0  0  0  0  0
   42.0070   35.3680   38.7860 C   0  0  0  0  0  0  0  0  0  0  0  0
   40.7660   35.8750   39.3280 C   0  0  0  0  0  0  0  0  0  0  0  0
   41.0560   35.5250   41.1750 S   0  0  0  0  0  0  0  0  0  0  0  0
   43.9822   34.9600   45.2015 H   0  0  0  0  0  0  0  0  0  0  0  0
   47.4636   32.7745   46.2719 H   0  0  0  0  0  0  0  0  0  0  0  0
   48.3317   35.7417   42.4708 H   0  0  0  0  0  0  0  0  0  0  0  0
   47.6899   33.6759   38.8176 H   0  0  0  0  0  0  0  0  0  0  0  0
   44.1990   36.1769   42.9153 H   0  0  0  0  0  0  0  0  0  0  0  0
   45.2866   35.4732   41.6855 H   0  0  0  0  0  0  0  0  0  0  0  0
   43.9514   33.3445   41.7769 H   0  0  0  0  0  0  0  0  0  0  0  0
   42.8180   34.2016   42.9423 H   0  0  0  0  0  0  0  0  0  0  0  0
   43.8892   34.4502   39.2049 H   0  0  0  0  0  0  0  0  0  0  0  0
   42.1921   35.4112   37.7025 H   0  0  0  0  0  0  0  0  0  0  0  0
   39.9038   36.3311   38.8194 H   0  0  0  0  0  0  0  0  0  0  0  0
  1  2  1  0
  1  6  2  0
  2  3  2  0
  3  4  1  0
  5  4  2  0
  6  5  1  0
  7  1  1  0
  8  7  1  0
  9  8  2  0
 10  9  1  0
 10 11  2  0
 11  7  1  0
 12  2  1  0
 13 12  1  0
 14 18  1  0
 14 13  1  0
 15 14  2  0
 16 17  2  0
 16 15  1  0
 17 18  1  0
  3 19  1  0
  5 20  1  0
  8 21  1  0
 10 22  1  0
 12 23  1  0
 12 24  1  0
 13 25  1  0
 13 26  1  0
 15 27  1  0
 16 28  1  0
 17 29  1  0
M  ISO  8  19  14  20  14  21  14  22  14  23   8  24   8  25   8  26   8
M  ISO  3  27  14  28  14  29  14
M  END
>  <minimizedAffinity>  (1) 
-4.59426498

>  <minimizedRMSD>  (1) 
1.15636837

$$$$
