
     RDKit          3D

 29 31  0  0  0  0  0  0  0  0999 V2000
   46.5570   34.2540   43.4580 C   0  0  0  0  0  0  0  0  0  0  0  0
   45.4480   35.0370   43.7640 C   0  0  0  0  0  0  0  0  0  0  0  0
   44.8950   34.8670   45.0390 C   0  0  0  0  0  0  0  0  0  0  0  0
   45.4680   33.9590   45.8920 N   0  0  0  0  0  0  0  0  0  0  0  0
   46.5280   33.2330   45.5510 C   0  0  0  0  0  0  0  0  0  0  0  0
   47.0560   33.3910   44.3430 N   0  0  0  0  0  0  0  0  0  0  0  0
   47.1320   34.4140   42.1670 N   0  0  0  0  0  0  0  0  0  0  0  0
   48.2150   35.2350   42.1250 C   0  0  0  0  0  0  0  0  0  0  0  0
   48.6780   35.3170   40.8640 N   0  0  0  0  0  0  0  0  0  0  0  0
   47.8570   34.5280   40.1360 C   0  0  0  0  0  0  0  0  0  0  0  0
   46.9170   33.9810   40.9330 N   0  0  0  0  0  0  0  0  0  0  0  0
   44.9180   35.9720   42.7870 C   0  0  0  0  0  0  0  0  0  0  0  0
   43.5580   35.4280   42.3130 C   0  0  0  0  0  0  0  0  0  0  0  0
   43.5960   35.3690   40.8210 C   0  0  0  0  0  0  0  0  0  0  0  0
   43.3470   33.9910   40.2360 C   0  0  0  0  0  0  0  0  0  0  0  0
   42.3850   35.1510   40.0070 C   0  0  0  0  0  0  0  0  0  0  0  0
   44.0167   35.4513   45.3508 H   0  0  0  0  0  0  0  0  0  0  0  0
   46.9615   32.5117   46.2594 H   0  0  0  0  0  0  0  0  0  0  0  0
   48.6481   35.7547   42.9924 H   0  0  0  0  0  0  0  0  0  0  0  0
   47.9430   34.3572   39.0527 H   0  0  0  0  0  0  0  0  0  0  0  0
   44.7860   36.9619   43.2482 H   0  0  0  0  0  0  0  0  0  0  0  0
   45.6094   36.0772   41.9380 H   0  0  0  0  0  0  0  0  0  0  0  0
   43.3913   34.4218   42.7249 H   0  0  0  0  0  0  0  0  0  0  0  0
   42.7391   36.0778   42.6553 H   0  0  0  0  0  0  0  0  0  0  0  0
   44.3708   36.1484   40.7737 H   0  0  0  0  0  0  0  0  0  0  0  0
   43.9716   33.6164   39.4116 H   0  0  0  0  0  0  0  0  0  0  0  0
   43.2694   32.9677   40.6320 H   0  0  0  0  0  0  0  0  0  0  0  0
   42.3056   35.6082   39.0097 H   0  0  0  0  0  0  0  0  0  0  0  0
   41.3077   35.3053   40.1668 H   0  0  0  0  0  0  0  0  0  0  0  0
  1  2  1  0
  1  6  2  0
  2  3  2  0
  3  4  1  0
  5  4  2  0
  6  5  1  0
  7  1  1  0
  8  7  1  0
  9  8  2  0
 10  9  1  0
 10 11  2  0
 11  7  1  0
 12  2  1  0
 13 12  1  0
 14 13  1  0
 15 14  1  0
 16 15  1  0
 16 14  1  0
  3 17  1  0
  5 18  1  0
  8 19  1  0
 10 20  1  0
 12 21  1  0
 12 22  1  0
 13 23  1  0
 13 24  1  0
 14 25  1  0
 15 26  1  0
 15 27  1  0
 16 28  1  0
 16 29  1  0
M  ISO  8  17  14  18  14  19  14  20  14  21   8  22   8  23   8  24   8
M  ISO  5  25  13  26  13  27  13  28  13  29  13
M  END
>  <minimizedAffinity>  (1) 
-4.78284311

>  <minimizedRMSD>  (1) 
0.773204863

$$$$
