
     RDKit          3D

 23 24  0  0  0  0  0  0  0  0999 V2000
   46.5620   34.2220   43.4540 C   0  0  0  0  0  0  0  0  0  0  0  0
   45.4570   35.0130   43.7590 C   0  0  0  0  0  0  0  0  0  0  0  0
   44.9200   34.8510   45.0350 C   0  0  0  0  0  0  0  0  0  0  0  0
   45.4860   33.9530   45.8970 N   0  0  0  0  0  0  0  0  0  0  0  0
   46.5400   33.2210   45.5580 C   0  0  0  0  0  0  0  0  0  0  0  0
   47.0600   33.3690   44.3420 N   0  0  0  0  0  0  0  0  0  0  0  0
   47.1340   34.3700   42.1460 N   0  0  0  0  0  0  0  0  0  0  0  0
   48.1910   35.2320   42.0900 C   0  0  0  0  0  0  0  0  0  0  0  0
   48.6420   35.2900   40.8180 N   0  0  0  0  0  0  0  0  0  0  0  0
   47.8340   34.4500   40.1200 C   0  0  0  0  0  0  0  0  0  0  0  0
   46.9200   33.8950   40.9370 N   0  0  0  0  0  0  0  0  0  0  0  0
   44.9350   35.9380   42.7660 C   0  0  0  0  0  0  0  0  0  0  0  0
   43.5430   35.4550   42.3730 C   0  0  0  0  0  0  0  0  0  0  0  0
   43.4280   34.9960   40.6320 S   0  0  0  0  0  0  0  0  0  0  0  0
   44.0462   35.4420   45.3467 H   0  0  0  0  0  0  0  0  0  0  0  0
   46.9761   32.5045   46.2697 H   0  0  0  0  0  0  0  0  0  0  0  0
   48.6078   35.7889   42.9422 H   0  0  0  0  0  0  0  0  0  0  0  0
   47.9153   34.2518   39.0411 H   0  0  0  0  0  0  0  0  0  0  0  0
   44.8745   36.9505   43.1917 H   0  0  0  0  0  0  0  0  0  0  0  0
   45.5945   35.9732   41.8863 H   0  0  0  0  0  0  0  0  0  0  0  0
   43.2897   34.5771   42.9854 H   0  0  0  0  0  0  0  0  0  0  0  0
   42.8435   36.2867   42.5432 H   0  0  0  0  0  0  0  0  0  0  0  0
   43.0960   33.6708   40.5301 H   0  0  0  0  0  0  0  0  0  0  0  0
  1  2  2  0
  1  6  1  0
  2  3  1  0
  3  4  2  0
  5  4  1  0
  6  5  2  0
  7  1  1  0
  8  7  1  0
  9  8  2  0
 10  9  1  0
 10 11  2  0
 11  7  1  0
 12  2  1  0
 13 12  1  0
 14 13  1  0
  3 15  1  0
  5 16  1  0
  8 17  1  0
 10 18  1  0
 12 19  1  0
 12 20  1  0
 13 21  1  0
 13 22  1  0
 14 23  1  0
M  ISO  8  15  14  16  14  17  14  18  14  19   8  20   8  21   8  22   8
M  ISO  1  23  11
M  END
>  <minimizedAffinity>  (1) 
-4.06783867

>  <minimizedRMSD>  (1) 
0.449261963

$$$$
