
     RDKit          3D

 48 51  0  0  1  0  0  0  0  0999 V2000
   43.1410   35.0080   41.8050 C   0  0  0  0  0  0  0  0  0  0  0  0
   42.3160   35.6230   40.7330 C   0  0  2  0  0  0  0  0  0  0  0  0
   40.9650   36.0760   41.2250 C   0  0  0  0  0  0  0  0  0  0  0  0
   39.9990   35.4930   40.2330 C   0  0  0  0  0  0  0  0  0  0  0  0
   40.8040   35.5050   38.9700 C   0  0  0  0  0  0  0  0  0  0  0  0
   42.1360   34.9440   39.4810 C   0  0  2  0  0  0  0  0  0  0  0  0
   42.1810   33.4480   39.3360 C   0  0  0  0  0  0  0  0  0  0  0  0
   41.2690   33.0400   38.1500 C   0  0  0  0  0  0  0  0  0  0  0  0
   41.7490   31.6290   37.8590 C   0  0  0  0  0  0  0  0  0  0  0  0
   43.2280   31.9330   37.6980 C   0  0  0  0  0  0  0  0  0  0  0  0
   43.5080   32.9720   38.7920 C   0  0  0  0  0  0  0  0  0  0  0  0
   44.3950   35.8040   42.1660 C   0  0  0  0  0  0  0  0  0  0  0  0
   46.1030   34.3880   43.2410 C   0  0  0  0  0  0  0  0  0  0  0  0
   44.9540   35.1730   43.3650 C   0  0  0  0  0  0  0  0  0  0  0  0
   44.4210   35.2960   44.6450 C   0  0  0  0  0  0  0  0  0  0  0  0
   45.0340   34.6600   45.6740 N   0  0  0  0  0  0  0  0  0  0  0  0
   46.1320   33.9180   45.5230 C   0  0  0  0  0  0  0  0  0  0  0  0
   46.6600   33.7860   44.3080 N   0  0  0  0  0  0  0  0  0  0  0  0
   46.6740   34.2420   41.9410 N   0  0  0  0  0  0  0  0  0  0  0  0
   47.7140   35.0600   41.6840 C   0  0  0  0  0  0  0  0  0  0  0  0
   48.1640   34.8270   40.4310 N   0  0  0  0  0  0  0  0  0  0  0  0
   47.3660   33.8470   39.9470 C   0  0  0  0  0  0  0  0  0  0  0  0
   46.4660   33.5040   40.8770 N   0  0  0  0  0  0  0  0  0  0  0  0
   43.4522   34.0077   41.4696 H   0  0  0  0  0  0  0  0  0  0  0  0
   42.5143   34.9791   42.7085 H   0  0  0  0  0  0  0  0  0  0  0  0
   42.9827   36.4611   40.4819 H   0  0  0  0  0  0  0  0  0  0  0  0
   40.7677   35.6892   42.2357 H   0  0  0  0  0  0  0  0  0  0  0  0
   40.8872   37.1709   41.2964 H   0  0  0  0  0  0  0  0  0  0  0  0
   39.7086   34.4694   40.5121 H   0  0  0  0  0  0  0  0  0  0  0  0
   39.0509   36.0459   40.1598 H   0  0  0  0  0  0  0  0  0  0  0  0
   40.9188   36.5238   38.5715 H   0  0  0  0  0  0  0  0  0  0  0  0
   40.3585   34.9405   38.1376 H   0  0  0  0  0  0  0  0  0  0  0  0
   43.0552   35.1449   38.9112 H   0  0  0  0  0  0  0  0  0  0  0  0
   41.9299   33.0457   40.3285 H   0  0  0  0  0  0  0  0  0  0  0  0
   40.2077   33.0502   38.4391 H   0  0  0  0  0  0  0  0  0  0  0  0
   41.3316   33.7185   37.2864 H   0  0  0  0  0  0  0  0  0  0  0  0
   41.5542   30.9425   38.6961 H   0  0  0  0  0  0  0  0  0  0  0  0
   41.2668   31.1223   37.0100 H   0  0  0  0  0  0  0  0  0  0  0  0
   43.8335   31.0278   37.8528 H   0  0  0  0  0  0  0  0  0  0  0  0
   43.4810   32.2961   36.6910 H   0  0  0  0  0  0  0  0  0  0  0  0
   44.0994   32.5143   39.5987 H   0  0  0  0  0  0  0  0  0  0  0  0
   44.0766   33.8180   38.3784 H   0  0  0  0  0  0  0  0  0  0  0  0
   45.1216   35.7642   41.3411 H   0  0  0  0  0  0  0  0  0  0  0  0
   44.1574   36.8628   42.3462 H   0  0  0  0  0  0  0  0  0  0  0  0
   43.5176   35.8990   44.8190 H   0  0  0  0  0  0  0  0  0  0  0  0
   46.5944   33.4225   46.3894 H   0  0  0  0  0  0  0  0  0  0  0  0
   48.1305   35.8000   42.3833 H   0  0  0  0  0  0  0  0  0  0  0  0
   47.4446   33.4012   38.9445 H   0  0  0  0  0  0  0  0  0  0  0  0
  1 12  1  0
  2  3  1  0
  2  1  1  0
  4  3  1  0
  5  6  1  0
  5  4  1  0
  6  2  1  0
  7  6  1  0
  8  7  1  0
  9  8  1  0
 10  9  1  0
 10 11  1  0
 11  7  1  0
 12 14  1  0
 13 14  1  0
 13 18  2  0
 14 15  2  0
 15 16  1  0
 17 16  2  0
 18 17  1  0
 19 13  1  0
 20 19  1  0
 21 20  2  0
 22 21  1  0
 22 23  2  0
 23 19  1  0
  1 24  1  0
  1 25  1  0
  2 26  1  6
  3 27  1  0
  3 28  1  0
  4 29  1  0
  4 30  1  0
  5 31  1  0
  5 32  1  0
  6 33  1  6
  7 34  1  0
  8 35  1  0
  8 36  1  0
  9 37  1  0
  9 38  1  0
 10 39  1  0
 10 40  1  0
 11 41  1  0
 11 42  1  0
 12 43  1  0
 12 44  1  0
 15 45  1  0
 17 46  1  0
 20 47  1  0
 22 48  1  0
M  ISO  8  24   8  25   8  26  13  27  13  28  13  29  13  30  13  31  13
M  ISO  8  32  13  33  13  34  13  35  13  36  13  37  13  38  13  39  13
M  ISO  8  40  13  41  13  42  13  43   8  44   8  45  14  46  14  47  14
M  ISO  1  48  14
M  END
>  <minimizedAffinity>  (1) 
-6.00050116

>  <minimizedRMSD>  (1) 
0.908965528

$$$$
