
     RDKit          3D

 40 43  0  0  1  0  0  0  0  0999 V2000
   43.3890   34.9230   41.5610 C   0  0  0  0  0  0  0  0  0  0  0  0
   42.2690   35.7050   40.9040 C   0  0  2  0  0  0  0  0  0  0  0  0
   40.9590   35.5510   41.5830 C   0  0  0  0  0  0  0  0  0  0  0  0
   39.9980   35.0240   40.5480 C   0  0  0  0  0  0  0  0  0  0  0  0
   40.5810   35.5240   39.2560 C   0  0  0  0  0  0  0  0  0  0  0  0
   42.0620   35.3260   39.4750 C   0  0  2  0  0  0  0  0  0  0  0  0
   42.5390   33.9710   39.1660 C   0  0  0  0  0  0  0  0  0  0  0  0
   43.6910   33.6460   38.5490 N   0  0  0  0  0  0  0  0  0  0  0  0
   43.7540   32.3400   38.4590 O   0  0  0  0  0  0  0  0  0  0  0  0
   42.6860   31.7910   38.9950 C   0  0  0  0  0  0  0  0  0  0  0  0
   41.9310   32.7990   39.4340 N   0  0  0  0  0  0  0  0  0  0  0  0
   44.4630   35.8210   42.1450 C   0  0  0  0  0  0  0  0  0  0  0  0
   46.1480   34.4160   43.2350 C   0  0  0  0  0  0  0  0  0  0  0  0
   44.9970   35.1840   43.3280 C   0  0  0  0  0  0  0  0  0  0  0  0
   44.4300   35.2840   44.5910 C   0  0  0  0  0  0  0  0  0  0  0  0
   45.0170   34.6430   45.6350 N   0  0  0  0  0  0  0  0  0  0  0  0
   46.1190   33.9160   45.5070 C   0  0  0  0  0  0  0  0  0  0  0  0
   46.6760   33.8070   44.3110 N   0  0  0  0  0  0  0  0  0  0  0  0
   46.7610   34.2910   41.9420 N   0  0  0  0  0  0  0  0  0  0  0  0
   47.8110   35.1340   41.7300 C   0  0  0  0  0  0  0  0  0  0  0  0
   48.3030   34.9310   40.4990 N   0  0  0  0  0  0  0  0  0  0  0  0
   47.5250   33.9370   39.9610 C   0  0  0  0  0  0  0  0  0  0  0  0
   46.5930   33.5660   40.8650 N   0  0  0  0  0  0  0  0  0  0  0  0
   43.8496   34.2670   40.8077 H   0  0  0  0  0  0  0  0  0  0  0  0
   42.9512   34.3456   42.3886 H   0  0  0  0  0  0  0  0  0  0  0  0
   42.6069   36.7488   40.9830 H   0  0  0  0  0  0  0  0  0  0  0  0
   41.0453   34.8401   42.4179 H   0  0  0  0  0  0  0  0  0  0  0  0
   40.6111   36.5090   41.9967 H   0  0  0  0  0  0  0  0  0  0  0  0
   39.9621   33.9247   40.5658 H   0  0  0  0  0  0  0  0  0  0  0  0
   38.9618   35.3550   40.7117 H   0  0  0  0  0  0  0  0  0  0  0  0
   40.3403   36.5851   39.0943 H   0  0  0  0  0  0  0  0  0  0  0  0
   40.1933   35.0049   38.3671 H   0  0  0  0  0  0  0  0  0  0  0  0
   42.6558   35.9425   38.7842 H   0  0  0  0  0  0  0  0  0  0  0  0
   42.4607   30.7167   39.0668 H   0  0  0  0  0  0  0  0  0  0  0  0
   45.2659   35.9678   41.4076 H   0  0  0  0  0  0  0  0  0  0  0  0
   44.0364   36.8014   42.4036 H   0  0  0  0  0  0  0  0  0  0  0  0
   43.5155   35.8757   44.7448 H   0  0  0  0  0  0  0  0  0  0  0  0
   46.5621   33.4127   46.3790 H   0  0  0  0  0  0  0  0  0  0  0  0
   48.1949   35.8665   42.4554 H   0  0  0  0  0  0  0  0  0  0  0  0
   47.6419   33.5104   38.9539 H   0  0  0  0  0  0  0  0  0  0  0  0
  1 12  1  0
  2  1  1  0
  2  3  1  0
  4  3  1  0
  5  6  1  0
  5  4  1  0
  6  2  1  0
  7 11  1  0
  7  6  1  0
  8  7  2  0
  9  8  1  0
  9 10  1  0
 10 11  2  0
 12 14  1  0
 13 14  1  0
 13 18  2  0
 14 15  2  0
 15 16  1  0
 17 16  2  0
 18 17  1  0
 19 13  1  0
 20 19  1  0
 21 20  2  0
 22 21  1  0
 22 23  2  0
 23 19  1  0
  1 24  1  0
  1 25  1  0
  2 26  1  6
  3 27  1  0
  3 28  1  0
  4 29  1  0
  4 30  1  0
  5 31  1  0
  5 32  1  0
  6 33  1  6
 10 34  1  0
 12 35  1  0
 12 36  1  0
 15 37  1  0
 17 38  1  0
 20 39  1  0
 22 40  1  0
M  ISO  8  24   8  25   8  26  13  27  13  28  13  29  13  30  13  31  13
M  ISO  8  32  13  33  13  34  14  35   8  36   8  37  14  38  14  39  14
M  ISO  1  40  14
M  END
>  <minimizedAffinity>  (1) 
-5.77446461

>  <minimizedRMSD>  (1) 
0.700864315

$$$$
