
     RDKit          3D

 42 45  0  0  1  0  0  0  0  0999 V2000
   43.6010   34.8750   41.1000 C   0  0  0  0  0  0  0  0  0  0  0  0
   42.2160   35.3840   40.7840 C   0  0  2  0  0  0  0  0  0  0  0  0
   41.3520   35.4740   42.0050 C   0  0  0  0  0  0  0  0  0  0  0  0
   40.1280   34.6100   41.6960 C   0  0  0  0  0  0  0  0  0  0  0  0
   40.0240   34.8040   40.2050 C   0  0  0  0  0  0  0  0  0  0  0  0
   41.4850   34.5590   39.7980 C   0  0  1  0  0  0  0  0  0  0  0  0
   41.7180   34.9220   38.3600 C   0  0  0  0  0  0  0  0  0  0  0  0
   41.3370   36.2430   37.8190 C   0  0  0  0  0  0  0  0  0  0  0  0
   40.4370   35.0540   37.5410 C   0  0  0  0  0  0  0  0  0  0  0  0
   44.4560   35.8990   41.8250 C   0  0  0  0  0  0  0  0  0  0  0  0
   46.1010   34.5550   43.0540 C   0  0  0  0  0  0  0  0  0  0  0  0
   44.9360   35.3080   43.0620 C   0  0  0  0  0  0  0  0  0  0  0  0
   44.2940   35.4480   44.2830 C   0  0  0  0  0  0  0  0  0  0  0  0
   44.8240   34.8550   45.3870 N   0  0  0  0  0  0  0  0  0  0  0  0
   45.9450   34.1370   45.3490 C   0  0  0  0  0  0  0  0  0  0  0  0
   46.5740   33.9910   44.1850 N   0  0  0  0  0  0  0  0  0  0  0  0
   46.7860   34.3900   41.8160 N   0  0  0  0  0  0  0  0  0  0  0  0
   47.8390   35.2320   41.6250 C   0  0  0  0  0  0  0  0  0  0  0  0
   48.4010   34.9820   40.4310 N   0  0  0  0  0  0  0  0  0  0  0  0
   47.6570   33.9600   39.8990 C   0  0  0  0  0  0  0  0  0  0  0  0
   46.6850   33.6130   40.7480 N   0  0  0  0  0  0  0  0  0  0  0  0
   44.0996   34.6059   40.1571 H   0  0  0  0  0  0  0  0  0  0  0  0
   43.4895   34.0070   41.7665 H   0  0  0  0  0  0  0  0  0  0  0  0
   42.3988   36.3812   40.3571 H   0  0  0  0  0  0  0  0  0  0  0  0
   41.8860   35.0855   42.8847 H   0  0  0  0  0  0  0  0  0  0  0  0
   41.0738   36.5129   42.2356 H   0  0  0  0  0  0  0  0  0  0  0  0
   40.2990   33.5553   41.9573 H   0  0  0  0  0  0  0  0  0  0  0  0
   39.2220   34.8811   42.2578 H   0  0  0  0  0  0  0  0  0  0  0  0
   39.3444   34.0715   39.7450 H   0  0  0  0  0  0  0  0  0  0  0  0
   39.6143   35.7760   39.8930 H   0  0  0  0  0  0  0  0  0  0  0  0
   41.8148   33.5100   39.8267 H   0  0  0  0  0  0  0  0  0  0  0  0
   42.6648   34.3635   38.3184 H   0  0  0  0  0  0  0  0  0  0  0  0
   40.9990   37.0364   38.5019 H   0  0  0  0  0  0  0  0  0  0  0  0
   41.8402   36.9920   37.1898 H   0  0  0  0  0  0  0  0  0  0  0  0
   39.4548   34.9748   38.0299 H   0  0  0  0  0  0  0  0  0  0  0  0
   40.0211   34.5722   36.6439 H   0  0  0  0  0  0  0  0  0  0  0  0
   45.3108   36.1823   41.1933 H   0  0  0  0  0  0  0  0  0  0  0  0
   43.8616   36.7984   42.0436 H   0  0  0  0  0  0  0  0  0  0  0  0
   43.3653   36.0327   44.3584 H   0  0  0  0  0  0  0  0  0  0  0  0
   46.3439   33.6730   46.2631 H   0  0  0  0  0  0  0  0  0  0  0  0
   48.1770   35.9983   42.3382 H   0  0  0  0  0  0  0  0  0  0  0  0
   47.8342   33.4946   38.9182 H   0  0  0  0  0  0  0  0  0  0  0  0
  1 10  1  0
  2  1  1  0
  2  3  1  0
  4  3  1  0
  5  4  1  0
  6  5  1  0
  6  2  1  0
  7  6  1  0
  8  7  1  0
  9  8  1  0
  9  7  1  0
 10 12  1  0
 11 12  1  0
 11 16  2  0
 12 13  2  0
 13 14  1  0
 15 14  2  0
 16 15  1  0
 17 11  1  0
 18 17  1  0
 19 18  2  0
 20 19  1  0
 20 21  2  0
 21 17  1  0
  1 22  1  0
  1 23  1  0
  2 24  1  6
  3 25  1  0
  3 26  1  0
  4 27  1  0
  4 28  1  0
  5 29  1  0
  5 30  1  0
  6 31  1  6
  7 32  1  0
  8 33  1  0
  8 34  1  0
  9 35  1  0
  9 36  1  0
 10 37  1  0
 10 38  1  0
 13 39  1  0
 15 40  1  0
 18 41  1  0
 20 42  1  0
M  ISO  8  22   8  23   8  24  13  25  13  26  13  27  13  28  13  29  13
M  ISO  8  30  13  31  13  32  13  33  13  34  13  35  13  36  13  37   8
M  ISO  5  38   8  39  14  40  14  41  14  42  14
M  END
>  <minimizedAffinity>  (1) 
-5.81565762

>  <minimizedRMSD>  (1) 
1.2370882

$$$$
