
     RDKit          3D

 43 46  0  0  1  0  0  0  0  0999 V2000
   42.8170   33.7330   41.2690 C   0  0  0  0  0  0  0  0  0  0  0  0
   41.5820   34.0110   40.4400 C   0  0  2  0  0  0  0  0  0  0  0  0
   41.5990   35.3600   39.8090 C   0  0  0  0  0  0  0  0  0  0  0  0
   40.3100   36.0200   40.2440 C   0  0  0  0  0  0  0  0  0  0  0  0
   39.3950   34.8250   40.3930 C   0  0  0  0  0  0  0  0  0  0  0  0
   40.3290   33.9240   41.2280 C   0  0  1  0  0  0  0  0  0  0  0  0
   39.7620   32.5850   41.4080 C   0  0  0  0  0  0  0  0  0  0  0  0
   40.3900   31.5440   42.1010 C   0  0  0  0  0  0  0  0  0  0  0  0
   39.7170   30.3590   42.1710 C   0  0  0  0  0  0  0  0  0  0  0  0
   38.5060   30.1660   41.6120 N   0  0  0  0  0  0  0  0  0  0  0  0
   37.9100   31.1630   40.9510 C   0  0  0  0  0  0  0  0  0  0  0  0
   38.5350   32.3540   40.8550 N   0  0  0  0  0  0  0  0  0  0  0  0
   44.0150   34.5700   40.8270 C   0  0  0  0  0  0  0  0  0  0  0  0
   46.1760   33.6120   41.4870 C   0  0  0  0  0  0  0  0  0  0  0  0
   45.0760   34.3920   41.8110 C   0  0  0  0  0  0  0  0  0  0  0  0
   45.0730   34.9530   43.0720 C   0  0  0  0  0  0  0  0  0  0  0  0
   46.1080   34.7250   43.9080 N   0  0  0  0  0  0  0  0  0  0  0  0
   47.1570   33.9670   43.5690 C   0  0  0  0  0  0  0  0  0  0  0  0
   47.1850   33.4130   42.3580 N   0  0  0  0  0  0  0  0  0  0  0  0
   46.2160   33.0100   40.1830 N   0  0  0  0  0  0  0  0  0  0  0  0
   46.9550   33.6920   39.2670 C   0  0  0  0  0  0  0  0  0  0  0  0
   46.9170   33.0330   38.0870 N   0  0  0  0  0  0  0  0  0  0  0  0
   46.1370   31.9430   38.3250 C   0  0  0  0  0  0  0  0  0  0  0  0
   45.7100   31.9350   39.6100 N   0  0  0  0  0  0  0  0  0  0  0  0
   42.5949   33.9623   42.3217 H   0  0  0  0  0  0  0  0  0  0  0  0
   43.0800   32.6734   41.1342 H   0  0  0  0  0  0  0  0  0  0  0  0
   41.6026   33.2288   39.6669 H   0  0  0  0  0  0  0  0  0  0  0  0
   41.6363   35.2724   38.7131 H   0  0  0  0  0  0  0  0  0  0  0  0
   42.4810   35.9434   40.1118 H   0  0  0  0  0  0  0  0  0  0  0  0
   40.4335   36.5530   41.1983 H   0  0  0  0  0  0  0  0  0  0  0  0
   39.9394   36.7844   39.5452 H   0  0  0  0  0  0  0  0  0  0  0  0
   38.4700   35.0761   40.9327 H   0  0  0  0  0  0  0  0  0  0  0  0
   39.0235   34.3880   39.4544 H   0  0  0  0  0  0  0  0  0  0  0  0
   40.4911   34.2229   42.2741 H   0  0  0  0  0  0  0  0  0  0  0  0
   41.3780   31.6746   42.5666 H   0  0  0  0  0  0  0  0  0  0  0  0
   40.1851   29.5216   42.7092 H   0  0  0  0  0  0  0  0  0  0  0  0
   36.9220   31.0139   40.4910 H   0  0  0  0  0  0  0  0  0  0  0  0
   44.3617   34.2331   39.8390 H   0  0  0  0  0  0  0  0  0  0  0  0
   43.7343   35.6312   40.7551 H   0  0  0  0  0  0  0  0  0  0  0  0
   44.2309   35.5831   43.3943 H   0  0  0  0  0  0  0  0  0  0  0  0
   47.9821   33.8041   44.2780 H   0  0  0  0  0  0  0  0  0  0  0  0
   47.4972   34.6302   39.4561 H   0  0  0  0  0  0  0  0  0  0  0  0
   45.8882   31.1754   37.5774 H   0  0  0  0  0  0  0  0  0  0  0  0
  2  6  1  0
  2  1  1  0
  3  4  1  0
  3  2  1  0
  4  5  1  0
  5  6  1  0
  6  7  1  0
  7  8  2  0
  8  9  1  0
 10  9  2  0
 11 10  1  0
 12 11  2  0
 12  7  1  0
 13  1  1  0
 13 15  1  0
 14 15  1  0
 14 19  2  0
 15 16  2  0
 16 17  1  0
 18 17  2  0
 19 18  1  0
 20 14  1  0
 21 20  1  0
 22 23  1  0
 22 21  2  0
 23 24  2  0
 24 20  1  0
  1 25  1  0
  1 26  1  0
  2 27  1  6
  3 28  1  0
  3 29  1  0
  4 30  1  0
  4 31  1  0
  5 32  1  0
  5 33  1  0
  6 34  1  1
  8 35  1  0
  9 36  1  0
 11 37  1  0
 13 38  1  0
 13 39  1  0
 16 40  1  0
 18 41  1  0
 21 42  1  0
 23 43  1  0
M  ISO  8  25   8  26   8  27  13  28  13  29  13  30  13  31  13  32  13
M  ISO  8  33  13  34  13  35  14  36  14  37  14  38   8  39   8  40  14
M  ISO  3  41  14  42  14  43  14
M  END
>  <minimizedAffinity>  (1) 
-5.47038603

>  <minimizedRMSD>  (1) 
4.56457376

$$$$
