
     RDKit          3D

 45 48  0  0  1  0  0  0  0  0999 V2000
   42.9510   34.1530   40.9340 C   0  0  0  0  0  0  0  0  0  0  0  0
   41.8370   34.6650   40.0520 C   0  0  2  0  0  0  0  0  0  0  0  0
   41.5780   36.1280   40.2480 C   0  0  0  0  0  0  0  0  0  0  0  0
   40.1300   36.2330   40.6590 C   0  0  0  0  0  0  0  0  0  0  0  0
   39.5170   35.0490   39.9720 C   0  0  0  0  0  0  0  0  0  0  0  0
   40.5480   33.9580   40.2530 C   0  0  1  0  0  0  0  0  0  0  0  0
   40.2490   32.8930   39.2580 C   0  0  0  0  0  0  0  0  0  0  0  0
   41.1850   32.1570   38.5630 C   0  0  0  0  0  0  0  0  0  0  0  0
   40.7820   31.1930   37.6620 C   0  0  0  0  0  0  0  0  0  0  0  0
   39.4590   30.9070   37.4030 C   0  0  0  0  0  0  0  0  0  0  0  0
   38.5130   31.6360   38.0930 C   0  0  0  0  0  0  0  0  0  0  0  0
   38.9010   32.6090   39.0010 C   0  0  0  0  0  0  0  0  0  0  0  0
   44.0720   35.1460   41.1170 C   0  0  0  0  0  0  0  0  0  0  0  0
   45.8720   34.2360   42.5190 C   0  0  0  0  0  0  0  0  0  0  0  0
   44.6780   34.9340   42.4150 C   0  0  0  0  0  0  0  0  0  0  0  0
   44.1340   35.3930   43.6070 C   0  0  0  0  0  0  0  0  0  0  0  0
   44.7730   35.1480   44.7780 N   0  0  0  0  0  0  0  0  0  0  0  0
   45.9220   34.4730   44.8350 C   0  0  0  0  0  0  0  0  0  0  0  0
   46.4660   34.0200   43.7030 N   0  0  0  0  0  0  0  0  0  0  0  0
   46.4640   33.7460   41.3060 N   0  0  0  0  0  0  0  0  0  0  0  0
   47.4440   34.5270   40.7960 C   0  0  0  0  0  0  0  0  0  0  0  0
   47.9250   33.9700   39.6610 N   0  0  0  0  0  0  0  0  0  0  0  0
   47.1940   32.8210   39.5080 C   0  0  0  0  0  0  0  0  0  0  0  0
   46.3060   32.7000   40.5210 N   0  0  0  0  0  0  0  0  0  0  0  0
   43.3640   33.2400   40.4802 H   0  0  0  0  0  0  0  0  0  0  0  0
   42.5187   33.9632   41.9275 H   0  0  0  0  0  0  0  0  0  0  0  0
   42.2015   34.4722   39.0322 H   0  0  0  0  0  0  0  0  0  0  0  0
   42.2309   36.5312   41.0361 H   0  0  0  0  0  0  0  0  0  0  0  0
   41.7840   36.7036   39.3335 H   0  0  0  0  0  0  0  0  0  0  0  0
   40.0195   36.1613   41.7511 H   0  0  0  0  0  0  0  0  0  0  0  0
   39.6629   37.1911   40.3870 H   0  0  0  0  0  0  0  0  0  0  0  0
   39.4050   35.2259   38.8921 H   0  0  0  0  0  0  0  0  0  0  0  0
   38.5032   34.8055   40.3227 H   0  0  0  0  0  0  0  0  0  0  0  0
   40.5554   33.4814   41.2444 H   0  0  0  0  0  0  0  0  0  0  0  0
   42.2573   32.3391   38.7275 H   0  0  0  0  0  0  0  0  0  0  0  0
   41.5549   30.6246   37.1238 H   0  0  0  0  0  0  0  0  0  0  0  0
   39.1702   30.1317   36.6781 H   0  0  0  0  0  0  0  0  0  0  0  0
   37.4435   31.4440   37.9216 H   0  0  0  0  0  0  0  0  0  0  0  0
   38.1259   33.1764   39.5370 H   0  0  0  0  0  0  0  0  0  0  0  0
   44.8260   35.0013   40.3292 H   0  0  0  0  0  0  0  0  0  0  0  0
   43.6770   36.1706   41.0525 H   0  0  0  0  0  0  0  0  0  0  0  0
   43.1876   35.9537   43.6017 H   0  0  0  0  0  0  0  0  0  0  0  0
   46.4148   34.2920   45.8017 H   0  0  0  0  0  0  0  0  0  0  0  0
   47.7960   35.4712   41.2371 H   0  0  0  0  0  0  0  0  0  0  0  0
   47.3120   32.1030   38.6830 H   0  0  0  0  0  0  0  0  0  0  0  0
  1 13  1  0
  2  3  1  0
  2  6  1  0
  2  1  1  0
  3  4  1  0
  5  6  1  0
  5  4  1  0
  7  6  1  0
  8  7  2  0
  9  8  1  0
 10  9  2  0
 10 11  1  0
 11 12  2  0
 12  7  1  0
 13 15  1  0
 14 19  2  0
 15 14  1  0
 15 16  2  0
 16 17  1  0
 17 18  2  0
 19 18  1  0
 20 14  1  0
 21 20  1  0
 22 21  2  0
 23 22  1  0
 23 24  2  0
 24 20  1  0
  1 25  1  0
  1 26  1  0
  2 27  1  6
  3 28  1  0
  3 29  1  0
  4 30  1  0
  4 31  1  0
  5 32  1  0
  5 33  1  0
  6 34  1  1
  8 35  1  0
  9 36  1  0
 10 37  1  0
 11 38  1  0
 12 39  1  0
 13 40  1  0
 13 41  1  0
 16 42  1  0
 18 43  1  0
 21 44  1  0
 23 45  1  0
M  ISO  8  25   8  26   8  27  13  28  13  29  13  30  13  31  13  32  13
M  ISO  8  33  13  34  13  35  14  36  14  37  14  38  14  39  14  40   8
M  ISO  5  41   8  42  14  43  14  44  14  45  14
M  END
>  <minimizedAffinity>  (1) 
-5.48639059

>  <minimizedRMSD>  (1) 
3.49167347

$$$$
