
     RDKit          3D

 24 26  0  0  0  0  0  0  0  0999 V2000
   46.2680   32.4990   45.3930 C   0  0  0  0  0  0  0  0  0  0  0  0
   47.2100   31.6470   44.8200 C   0  0  0  0  0  0  0  0  0  0  0  0
   47.5860   30.7960   45.7870 N   0  0  0  0  0  0  0  0  0  0  0  0
   46.9300   31.0730   46.9280 C   0  0  0  0  0  0  0  0  0  0  0  0
   46.9950   30.4610   48.1840 C   0  0  0  0  0  0  0  0  0  0  0  0
   46.2180   30.9170   49.2340 C   0  0  0  0  0  0  0  0  0  0  0  0
   45.3820   31.9800   49.0260 C   0  0  0  0  0  0  0  0  0  0  0  0
   45.2980   32.6100   47.7790 C   0  0  0  0  0  0  0  0  0  0  0  0
   46.0720   32.1560   46.7310 C   0  0  0  0  0  0  0  0  0  0  0  0
   44.5740   35.7110   44.8870 C   0  0  0  0  0  0  0  0  0  0  0  0
   44.2490   35.6890   43.5030 C   0  0  0  0  0  0  0  0  0  0  0  0
   44.6210   34.5640   42.7660 C   0  0  0  0  0  0  0  0  0  0  0  0
   45.2690   33.5600   43.4090 N   0  0  0  0  0  0  0  0  0  0  0  0
   45.5710   33.5960   44.7280 C   0  0  0  0  0  0  0  0  0  0  0  0
   45.2160   34.6810   45.4600 N   0  0  0  0  0  0  0  0  0  0  0  0
   47.5731   31.6679   43.7819 H   0  0  0  0  0  0  0  0  0  0  0  0
   48.2766   30.0405   45.6721 H   0  0  0  0  0  0  0  0  0  0  0  0
   47.6715   29.6075   48.3387 H   0  0  0  0  0  0  0  0  0  0  0  0
   46.2715   30.4327   50.2202 H   0  0  0  0  0  0  0  0  0  0  0  0
   44.7623   32.3476   49.8572 H   0  0  0  0  0  0  0  0  0  0  0  0
   44.6183   33.4628   47.6352 H   0  0  0  0  0  0  0  0  0  0  0  0
   44.2956   36.5836   45.4961 H   0  0  0  0  0  0  0  0  0  0  0  0
   43.7221   36.5304   43.0292 H   0  0  0  0  0  0  0  0  0  0  0  0
   44.3949   34.4929   41.6918 H   0  0  0  0  0  0  0  0  0  0  0  0
  1  9  1  0
  2  1  2  0
  2  3  1  0
  3  4  1  0
  4  5  2  0
  5  6  1  0
  7  6  2  0
  8  7  1  0
  9  4  1  0
  9  8  2  0
 10 15  2  0
 11 10  1  0
 12 13  1  0
 12 11  2  0
 13 14  2  0
 14  1  1  0
 14 15  1  0
  2 16  1  0
  3 17  1  0
  5 18  1  0
  6 19  1  0
  7 20  1  0
  8 21  1  0
 10 22  1  0
 11 23  1  0
 12 24  1  0
M  ISO  8  16  14  17   9  18  14  19  14  20  14  21  14  22  14  23  14
M  ISO  1  24  14
M  END
>  <minimizedAffinity>  (1) 
-4.78326225

>  <minimizedRMSD>  (1) 
2.35106778

$$$$
