
     RDKit          3D

 43 46  0  0  1  0  0  0  0  0999 V2000
   43.1970   34.1520   41.5350 C   0  0  0  0  0  0  0  0  0  0  0  0
   42.2370   34.6800   40.5120 C   0  0  2  0  0  0  0  0  0  0  0  0
   41.8260   36.0990   40.7690 C   0  0  0  0  0  0  0  0  0  0  0  0
   40.3190   36.0820   40.7960 C   0  0  0  0  0  0  0  0  0  0  0  0
   40.0310   34.9620   39.7990 C   0  0  0  0  0  0  0  0  0  0  0  0
   40.9830   33.9040   40.3960 C   0  0  1  0  0  0  0  0  0  0  0  0
   41.0270   32.6940   39.5820 C   0  0  0  0  0  0  0  0  0  0  0  0
   41.6970   32.7730   38.3610 C   0  0  0  0  0  0  0  0  0  0  0  0
   41.7260   31.6070   37.5970 C   0  0  0  0  0  0  0  0  0  0  0  0
   41.1510   30.4490   37.9850 N   0  0  0  0  0  0  0  0  0  0  0  0
   40.5140   30.4450   39.1880 C   0  0  0  0  0  0  0  0  0  0  0  0
   40.4460   31.5490   39.9860 N   0  0  0  0  0  0  0  0  0  0  0  0
   44.4370   35.0270   41.6960 C   0  0  0  0  0  0  0  0  0  0  0  0
   46.4240   33.8830   42.5800 C   0  0  0  0  0  0  0  0  0  0  0  0
   45.2100   34.5100   42.8150 C   0  0  0  0  0  0  0  0  0  0  0  0
   44.8080   34.6030   44.1430 C   0  0  0  0  0  0  0  0  0  0  0  0
   45.6060   34.0870   45.1140 N   0  0  0  0  0  0  0  0  0  0  0  0
   46.7620   33.4930   44.8550 C   0  0  0  0  0  0  0  0  0  0  0  0
   47.1760   33.3890   43.5830 N   0  0  0  0  0  0  0  0  0  0  0  0
   46.8650   33.7720   41.2250 N   0  0  0  0  0  0  0  0  0  0  0  0
   47.7620   34.7240   40.8360 C   0  0  0  0  0  0  0  0  0  0  0  0
   48.1040   34.5190   39.5470 N   0  0  0  0  0  0  0  0  0  0  0  0
   47.3890   33.4180   39.1720 C   0  0  0  0  0  0  0  0  0  0  0  0
   46.6410   32.9690   40.1910 N   0  0  0  0  0  0  0  0  0  0  0  0
   43.5160   33.1446   41.2294 H   0  0  0  0  0  0  0  0  0  0  0  0
   42.6739   34.1410   42.5026 H   0  0  0  0  0  0  0  0  0  0  0  0
   42.8155   34.5965   39.5801 H   0  0  0  0  0  0  0  0  0  0  0  0
   42.2241   36.4460   41.7339 H   0  0  0  0  0  0  0  0  0  0  0  0
   42.2131   36.7823   39.9988 H   0  0  0  0  0  0  0  0  0  0  0  0
   39.9342   35.8416   41.7981 H   0  0  0  0  0  0  0  0  0  0  0  0
   39.8469   37.0447   40.5503 H   0  0  0  0  0  0  0  0  0  0  0  0
   40.3052   35.2377   38.7700 H   0  0  0  0  0  0  0  0  0  0  0  0
   38.9774   34.6636   39.6948 H   0  0  0  0  0  0  0  0  0  0  0  0
   40.6905   33.4773   41.3668 H   0  0  0  0  0  0  0  0  0  0  0  0
   42.1756   33.7029   38.0201 H   0  0  0  0  0  0  0  0  0  0  0  0
   42.2446   31.6321   36.6273 H   0  0  0  0  0  0  0  0  0  0  0  0
   40.0355   29.5153   39.5298 H   0  0  0  0  0  0  0  0  0  0  0  0
   45.0408   34.9915   40.7772 H   0  0  0  0  0  0  0  0  0  0  0  0
   44.1461   36.0713   41.8826 H   0  0  0  0  0  0  0  0  0  0  0  0
   43.8559   35.0882   44.4040 H   0  0  0  0  0  0  0  0  0  0  0  0
   47.3755   33.0896   45.6741 H   0  0  0  0  0  0  0  0  0  0  0  0
   48.1466   35.5331   41.4743 H   0  0  0  0  0  0  0  0  0  0  0  0
   47.4218   32.9618   38.1716 H   0  0  0  0  0  0  0  0  0  0  0  0
  1 13  1  0
  2  3  1  0
  2  1  1  0
  3  4  1  0
  5  6  1  0
  5  4  1  0
  6  2  1  0
  7 12  1  0
  7  6  1  0
  8  7  2  0
  9 10  2  0
  9  8  1  0
 10 11  1  0
 11 12  2  0
 13 15  1  0
 14 15  1  0
 14 19  2  0
 15 16  2  0
 16 17  1  0
 18 17  2  0
 19 18  1  0
 20 14  1  0
 21 20  1  0
 22 21  2  0
 23 22  1  0
 23 24  2  0
 24 20  1  0
  1 25  1  0
  1 26  1  0
  2 27  1  6
  3 28  1  0
  3 29  1  0
  4 30  1  0
  4 31  1  0
  5 32  1  0
  5 33  1  0
  6 34  1  1
  8 35  1  0
  9 36  1  0
 11 37  1  0
 13 38  1  0
 13 39  1  0
 16 40  1  0
 18 41  1  0
 21 42  1  0
 23 43  1  0
M  ISO  8  25   8  26   8  27  13  28  13  29  13  30  13  31  13  32  13
M  ISO  8  33  13  34  13  35  14  36  14  37  14  38   8  39   8  40  14
M  ISO  3  41  14  42  14  43  14
M  END
>  <minimizedAffinity>  (1) 
-5.15385389

>  <minimizedRMSD>  (1) 
3.03122306

$$$$
