
     RDKit          3D

 38 42  0  0  0  0  0  0  0  0999 V2000
   44.6980   35.6170   44.6040 C   0  0  0  0  0  0  0  0  0  0  0  0
   44.1870   35.4180   43.2830 C   0  0  0  0  0  0  0  0  0  0  0  0
   44.4010   34.1830   42.6920 C   0  0  0  0  0  0  0  0  0  0  0  0
   45.0760   33.2340   43.3850 N   0  0  0  0  0  0  0  0  0  0  0  0
   45.5540   33.4390   44.6370 C   0  0  0  0  0  0  0  0  0  0  0  0
   45.3590   34.6420   45.2420 N   0  0  0  0  0  0  0  0  0  0  0  0
   46.2770   32.4070   45.3660 C   0  0  0  0  0  0  0  0  0  0  0  0
   47.2650   31.5640   44.8530 C   0  0  0  0  0  0  0  0  0  0  0  0
   47.6560   30.7730   45.8680 N   0  0  0  0  0  0  0  0  0  0  0  0
   46.9600   31.0860   46.9790 C   0  0  0  0  0  0  0  0  0  0  0  0
   47.0190   30.5390   48.2730 C   0  0  0  0  0  0  0  0  0  0  0  0
   46.2020   31.0150   49.2840 C   0  0  0  0  0  0  0  0  0  0  0  0
   45.3340   32.0290   49.0080 C   0  0  0  0  0  0  0  0  0  0  0  0
   45.2550   32.5910   47.7310 C   0  0  0  0  0  0  0  0  0  0  0  0
   46.0710   32.1180   46.7120 C   0  0  0  0  0  0  0  0  0  0  0  0
   43.9030   33.9640   41.3820 N   0  0  0  0  0  0  0  0  0  0  0  0
   44.6760   34.0040   40.2900 C   0  0  0  0  0  0  0  0  0  0  0  0
   43.8690   33.7520   39.2440 N   0  0  0  0  0  0  0  0  0  0  0  0
   42.6050   33.5560   39.6670 C   0  0  0  0  0  0  0  0  0  0  0  0
   41.4230   33.2680   38.9750 C   0  0  0  0  0  0  0  0  0  0  0  0
   41.4130   33.1460   37.7240 O   0  0  0  0  0  0  0  0  0  0  0  0
   40.3170   33.1340   39.7300 N   0  0  0  0  0  0  0  0  0  0  0  0
   40.3240   33.2640   41.0690 C   0  0  0  0  0  0  0  0  0  0  0  0
   39.1640   33.1250   41.8850 N   0  0  0  0  0  0  0  0  0  0  0  0
   41.4720   33.5440   41.7480 N   0  0  0  0  0  0  0  0  0  0  0  0
   42.6320   33.6940   41.0560 C   0  0  0  0  0  0  0  0  0  0  0  0
   44.5459   36.5852   45.1036 H   0  0  0  0  0  0  0  0  0  0  0  0
   43.6440   36.2161   42.7555 H   0  0  0  0  0  0  0  0  0  0  0  0
   47.6480   31.5497   43.8219 H   0  0  0  0  0  0  0  0  0  0  0  0
   48.3770   30.0401   45.8058 H   0  0  0  0  0  0  0  0  0  0  0  0
   47.7240   29.7216   48.4848 H   0  0  0  0  0  0  0  0  0  0  0  0
   46.2525   30.5819   50.2939 H   0  0  0  0  0  0  0  0  0  0  0  0
   44.6824   32.4128   49.8068 H   0  0  0  0  0  0  0  0  0  0  0  0
   44.5461   33.4084   47.5330 H   0  0  0  0  0  0  0  0  0  0  0  0
   45.7572   34.2035   40.2550 H   0  0  0  0  0  0  0  0  0  0  0  0
   39.4246   32.9223   39.2613 H   0  0  0  0  0  0  0  0  0  0  0  0
   39.2364   33.2367   42.9064 H   0  0  0  0  0  0  0  0  0  0  0  0
   38.2532   32.9128   41.4534 H   0  0  0  0  0  0  0  0  0  0  0  0
  1  6  2  0
  2  1  1  0
  3  2  2  0
  3  4  1  0
  4  5  2  0
  5  6  1  0
  5  7  1  0
  7 15  1  0
  8  7  2  0
  8  9  1  0
  9 10  1  0
 10 11  2  0
 11 12  1  0
 13 12  2  0
 14 13  1  0
 15 10  1  0
 15 14  2  0
 16  3  1  0
 17 16  1  0
 18 19  1  0
 18 17  2  0
 19 26  2  0
 20 19  1  0
 20 22  1  0
 21 20  2  0
 22 23  1  0
 23 25  2  0
 23 24  1  0
 26 16  1  0
 26 25  1  0
  1 27  1  0
  2 28  1  0
  8 29  1  0
  9 30  1  0
 11 31  1  0
 12 32  1  0
 13 33  1  0
 14 34  1  0
 17 35  1  0
 22 36  1  0
 24 37  1  0
 24 38  1  0
M  ISO  8  27  14  28  14  29  14  30   9  31  14  32  14  33  14  34  14
M  ISO  2  35  14  36   9
M  END
>  <minimizedAffinity>  (1) 
-6.57633543

>  <minimizedRMSD>  (1) 
0.652437985

$$$$
