
     RDKit          3D

 35 38  0  0  0  0  0  0  0  0999 V2000
   44.7000   35.8030   44.8490 C   0  0  0  0  0  0  0  0  0  0  0  0
   44.1350   35.7050   43.5590 C   0  0  0  0  0  0  0  0  0  0  0  0
   44.2860   34.5010   42.8890 C   0  0  0  0  0  0  0  0  0  0  0  0
   44.9600   33.5040   43.5060 N   0  0  0  0  0  0  0  0  0  0  0  0
   45.5000   33.6090   44.7490 C   0  0  0  0  0  0  0  0  0  0  0  0
   45.3620   34.7840   45.4270 N   0  0  0  0  0  0  0  0  0  0  0  0
   46.2180   32.5180   45.3840 C   0  0  0  0  0  0  0  0  0  0  0  0
   47.1580   31.6800   44.7800 C   0  0  0  0  0  0  0  0  0  0  0  0
   47.5590   30.8240   45.7310 N   0  0  0  0  0  0  0  0  0  0  0  0
   46.9160   31.0870   46.8940 C   0  0  0  0  0  0  0  0  0  0  0  0
   47.0060   30.4680   48.1430 C   0  0  0  0  0  0  0  0  0  0  0  0
   46.2480   30.9060   49.2060 C   0  0  0  0  0  0  0  0  0  0  0  0
   45.4030   31.9560   49.0280 C   0  0  0  0  0  0  0  0  0  0  0  0
   45.3010   32.5870   47.7810 C   0  0  0  0  0  0  0  0  0  0  0  0
   46.0520   32.1580   46.7180 C   0  0  0  0  0  0  0  0  0  0  0  0
   43.7370   34.3580   41.5920 N   0  0  0  0  0  0  0  0  0  0  0  0
   42.9690   35.3520   41.0930 C   0  0  0  0  0  0  0  0  0  0  0  0
   42.4540   35.1560   39.8120 C   0  0  0  0  0  0  0  0  0  0  0  0
   42.7620   33.9890   39.1700 C   0  0  0  0  0  0  0  0  0  0  0  0
   42.2000   33.8640   37.8710 N   0  0  0  0  0  0  0  0  0  0  0  0
   43.5280   33.0050   39.6760 N   0  0  0  0  0  0  0  0  0  0  0  0
   44.0120   33.2250   40.9210 C   0  0  0  0  0  0  0  0  0  0  0  0
   44.7370   32.3140   41.4230 O   0  0  0  0  0  0  0  0  0  0  0  0
   44.5951   36.7478   45.4024 H   0  0  0  0  0  0  0  0  0  0  0  0
   43.5969   36.5497   43.1041 H   0  0  0  0  0  0  0  0  0  0  0  0
   47.5002   31.7151   43.7352 H   0  0  0  0  0  0  0  0  0  0  0  0
   48.2542   30.0759   45.5969 H   0  0  0  0  0  0  0  0  0  0  0  0
   47.6919   29.6189   48.2793 H   0  0  0  0  0  0  0  0  0  0  0  0
   46.3252   30.4128   50.1862 H   0  0  0  0  0  0  0  0  0  0  0  0
   44.7935   32.3137   49.8710 H   0  0  0  0  0  0  0  0  0  0  0  0
   44.6116   33.4347   47.6542 H   0  0  0  0  0  0  0  0  0  0  0  0
   42.7612   36.2671   41.6670 H   0  0  0  0  0  0  0  0  0  0  0  0
   41.8198   35.9166   39.3331 H   0  0  0  0  0  0  0  0  0  0  0  0
   41.6144   34.6200   37.4883 H   0  0  0  0  0  0  0  0  0  0  0  0
   42.3782   33.0174   37.3121 H   0  0  0  0  0  0  0  0  0  0  0  0
  1  6  2  0
  2  1  1  0
  3  4  1  0
  3  2  2  0
  4  5  2  0
  5  7  1  0
  5  6  1  0
  7 15  1  0
  8  7  2  0
  8  9  1  0
  9 10  1  0
 10 11  2  0
 11 12  1  0
 13 12  2  0
 14 13  1  0
 15 10  1  0
 15 14  2  0
 16  3  1  0
 17 16  1  0
 18 17  2  0
 19 21  2  0
 19 18  1  0
 20 19  1  0
 21 22  1  0
 22 23  2  0
 22 16  1  0
  1 24  1  0
  2 25  1  0
  8 26  1  0
  9 27  1  0
 11 28  1  0
 12 29  1  0
 13 30  1  0
 14 31  1  0
 17 32  1  0
 18 33  1  0
 20 34  1  0
 20 35  1  0
M  ISO  8  24  14  25  14  26  14  27   9  28  14  29  14  30  14  31  14
M  ISO  2  32  14  33  14
M  END
>  <minimizedAffinity>  (1) 
-6.14361286

>  <minimizedRMSD>  (1) 
0.579774916

$$$$
