
     RDKit          3D

 38 41  0  0  1  0  0  0  0  0999 V2000
   45.8410   34.1000   41.4710 N   0  0  0  0  0  0  0  0  0  0  0  0
   45.1100   33.5380   40.4550 C   0  0  0  0  0  0  0  0  0  0  0  0
   45.9000   33.3510   39.3900 N   0  0  0  0  0  0  0  0  0  0  0  0
   47.1330   33.7920   39.7290 C   0  0  0  0  0  0  0  0  0  0  0  0
   47.0640   34.2370   40.9850 N   0  0  0  0  0  0  0  0  0  0  0  0
   45.0180   35.8240   42.9280 C   0  0  0  0  0  0  0  0  0  0  0  0
   45.4780   34.4880   42.7750 C   0  0  0  0  0  0  0  0  0  0  0  0
   45.5340   33.6870   43.8920 C   0  0  0  0  0  0  0  0  0  0  0  0
   45.1410   34.2370   45.0800 N   0  0  0  0  0  0  0  0  0  0  0  0
   44.7130   35.4910   45.2010 C   0  0  0  0  0  0  0  0  0  0  0  0
   44.6550   36.2720   44.1290 N   0  0  0  0  0  0  0  0  0  0  0  0
   48.3800   33.8200   38.9180 C   0  0  2  0  0  0  0  0  0  0  0  0
   48.2940   34.5040   37.5370 C   0  0  0  0  0  0  0  0  0  0  0  0
   48.4610   32.9920   37.6670 C   0  0  1  0  0  0  0  0  0  0  0  0
   49.7330   32.4020   37.3570 N   0  0  0  0  0  0  0  0  0  0  0  0
   49.6490   31.3590   36.3660 C   0  0  0  0  0  0  0  0  0  0  0  0
   51.0180   30.8290   36.0610 C   0  0  0  0  0  0  0  0  0  0  0  0
   51.8000   30.4550   37.2880 C   0  0  0  0  0  0  0  0  0  0  0  0
   51.6770   31.4090   38.4300 C   0  0  0  0  0  0  0  0  0  0  0  0
   50.2230   31.7890   38.5780 C   0  0  0  0  0  0  0  0  0  0  0  0
   44.0417   33.2811   40.5071 H   0  0  0  0  0  0  0  0  0  0  0  0
   44.9616   36.4890   42.0536 H   0  0  0  0  0  0  0  0  0  0  0  0
   45.8813   32.6450   43.8315 H   0  0  0  0  0  0  0  0  0  0  0  0
   44.4087   35.8787   46.1844 H   0  0  0  0  0  0  0  0  0  0  0  0
   49.0147   33.9158   39.8113 H   0  0  0  0  0  0  0  0  0  0  0  0
   49.1266   35.1239   37.1732 H   0  0  0  0  0  0  0  0  0  0  0  0
   47.5818   35.1759   37.0356 H   0  0  0  0  0  0  0  0  0  0  0  0
   47.9103   32.1303   37.2618 H   0  0  0  0  0  0  0  0  0  0  0  0
   49.0194   30.5424   36.7492 H   0  0  0  0  0  0  0  0  0  0  0  0
   49.2081   31.7702   35.4459 H   0  0  0  0  0  0  0  0  0  0  0  0
   50.9129   29.9351   35.4286 H   0  0  0  0  0  0  0  0  0  0  0  0
   51.5724   31.6333   35.5553 H   0  0  0  0  0  0  0  0  0  0  0  0
   51.4505   29.4690   37.6280 H   0  0  0  0  0  0  0  0  0  0  0  0
   52.8594   30.4648   36.9921 H   0  0  0  0  0  0  0  0  0  0  0  0
   52.0319   30.9299   39.3544 H   0  0  0  0  0  0  0  0  0  0  0  0
   52.2851   32.3059   38.2409 H   0  0  0  0  0  0  0  0  0  0  0  0
   50.1176   32.5020   39.4090 H   0  0  0  0  0  0  0  0  0  0  0  0
   49.6361   30.8812   38.7817 H   0  0  0  0  0  0  0  0  0  0  0  0
  1  7  1  0
  2  1  1  0
  3  4  1  0
  3  2  2  0
  4  5  2  0
  5  1  1  0
  6 11  2  0
  7  6  1  0
  7  8  2  0
  8  9  1  0
  9 10  2  0
 11 10  1  0
 12  4  1  0
 13 14  1  0
 13 12  1  0
 14 12  1  0
 15 14  1  0
 15 20  1  0
 16 15  1  0
 17 16  1  0
 17 18  1  0
 18 19  1  0
 19 20  1  0
  2 21  1  0
  6 22  1  0
  8 23  1  0
 10 24  1  0
 12 25  1  1
 13 26  1  0
 13 27  1  0
 14 28  1  1
 16 29  1  0
 16 30  1  0
 17 31  1  0
 17 32  1  0
 18 33  1  0
 18 34  1  0
 19 35  1  0
 19 36  1  0
 20 37  1  0
 20 38  1  0
M  ISO  8  21  14  22  14  23  14  24  14  25  13  26  13  27  13  28  13
M  ISO  8  29  13  30  13  31  13  32  13  33  13  34  13  35  13  36  13
M  ISO  2  37  13  38  13
M  END
>  <minimizedAffinity>  (1) 
-4.65472937

>  <minimizedRMSD>  (1) 
0.616331279

$$$$
