
     RDKit          3D

 33 36  0  0  0  0  0  0  0  0999 V2000
   46.2140   32.5390   45.3630 C   0  0  0  0  0  0  0  0  0  0  0  0
   47.1340   31.6980   44.7580 C   0  0  0  0  0  0  0  0  0  0  0  0
   47.5280   30.8310   45.7000 N   0  0  0  0  0  0  0  0  0  0  0  0
   46.9060   31.0840   46.8590 C   0  0  0  0  0  0  0  0  0  0  0  0
   46.9930   30.4540   48.1080 C   0  0  0  0  0  0  0  0  0  0  0  0
   46.2380   30.9000   49.1870 C   0  0  0  0  0  0  0  0  0  0  0  0
   45.4100   31.9620   49.0110 C   0  0  0  0  0  0  0  0  0  0  0  0
   45.3010   32.6120   47.7780 C   0  0  0  0  0  0  0  0  0  0  0  0
   46.0410   32.1800   46.7070 C   0  0  0  0  0  0  0  0  0  0  0  0
   44.6250   35.8210   44.9300 C   0  0  0  0  0  0  0  0  0  0  0  0
   44.1550   35.7700   43.5920 C   0  0  0  0  0  0  0  0  0  0  0  0
   44.3940   34.6130   42.8710 C   0  0  0  0  0  0  0  0  0  0  0  0
   45.0550   33.6060   43.4740 N   0  0  0  0  0  0  0  0  0  0  0  0
   45.5000   33.6540   44.7420 C   0  0  0  0  0  0  0  0  0  0  0  0
   45.2790   34.7750   45.4690 N   0  0  0  0  0  0  0  0  0  0  0  0
   43.9770   34.4030   41.4910 C   0  0  0  0  0  0  0  0  0  0  0  0
   43.0330   35.1840   40.8550 C   0  0  0  0  0  0  0  0  0  0  0  0
   42.6160   35.0120   39.5520 C   0  0  0  0  0  0  0  0  0  0  0  0
   43.1710   33.9910   38.8090 C   0  0  0  0  0  0  0  0  0  0  0  0
   44.1080   33.2230   39.4490 C   0  0  0  0  0  0  0  0  0  0  0  0
   44.4830   33.4250   40.7180 N   0  0  0  0  0  0  0  0  0  0  0  0
   47.4733   31.7349   43.7123 H   0  0  0  0  0  0  0  0  0  0  0  0
   48.2130   30.0759   45.5537 H   0  0  0  0  0  0  0  0  0  0  0  0
   47.6679   29.5949   48.2364 H   0  0  0  0  0  0  0  0  0  0  0  0
   46.3100   30.4019   50.1651 H   0  0  0  0  0  0  0  0  0  0  0  0
   44.8097   32.3200   49.8604 H   0  0  0  0  0  0  0  0  0  0  0  0
   44.6217   33.4700   47.6668 H   0  0  0  0  0  0  0  0  0  0  0  0
   44.4531   36.7247   45.5331 H   0  0  0  0  0  0  0  0  0  0  0  0
   43.6197   36.6200   43.1437 H   0  0  0  0  0  0  0  0  0  0  0  0
   42.5797   36.0046   41.4305 H   0  0  0  0  0  0  0  0  0  0  0  0
   41.8560   35.6757   39.1139 H   0  0  0  0  0  0  0  0  0  0  0  0
   42.8788   33.8045   37.7650 H   0  0  0  0  0  0  0  0  0  0  0  0
   44.5760   32.3983   38.8915 H   0  0  0  0  0  0  0  0  0  0  0  0
  1  9  1  0
  2  1  2  0
  2  3  1  0
  3  4  1  0
  4  5  2  0
  5  6  1  0
  7  6  2  0
  8  7  1  0
  9  4  1  0
  9  8  2  0
 10 15  2  0
 11 10  1  0
 12 13  1  0
 12 11  2  0
 13 14  2  0
 14  1  1  0
 14 15  1  0
 16 12  1  0
 17 16  2  0
 18 17  1  0
 19 20  1  0
 19 18  2  0
 20 21  2  0
 21 16  1  0
  2 22  1  0
  3 23  1  0
  5 24  1  0
  6 25  1  0
  7 26  1  0
  8 27  1  0
 10 28  1  0
 11 29  1  0
 17 30  1  0
 18 31  1  0
 19 32  1  0
 20 33  1  0
M  ISO  8  22  14  23   9  24  14  25  14  26  14  27  14  28  14  29  14
M  ISO  4  30  14  31  14  32  14  33  14
M  END
>  <minimizedAffinity>  (1) 
-5.83684063

>  <minimizedRMSD>  (1) 
0.595995247

$$$$
