
     RDKit          3D

 34 37  0  0  0  0  0  0  0  0999 V2000
   44.6200   35.8190   44.9280 C   0  0  0  0  0  0  0  0  0  0  0  0
   44.1510   35.7660   43.5810 C   0  0  0  0  0  0  0  0  0  0  0  0
   44.3890   34.6120   42.8510 C   0  0  0  0  0  0  0  0  0  0  0  0
   45.0510   33.6170   43.4740 N   0  0  0  0  0  0  0  0  0  0  0  0
   45.4950   33.6600   44.7410 C   0  0  0  0  0  0  0  0  0  0  0  0
   45.2740   34.7820   45.4810 N   0  0  0  0  0  0  0  0  0  0  0  0
   46.2080   32.5490   45.3660 C   0  0  0  0  0  0  0  0  0  0  0  0
   47.1320   31.7090   44.7540 C   0  0  0  0  0  0  0  0  0  0  0  0
   47.5280   30.8390   45.6960 N   0  0  0  0  0  0  0  0  0  0  0  0
   46.9080   31.0900   46.8520 C   0  0  0  0  0  0  0  0  0  0  0  0
   46.9880   30.4650   48.1110 C   0  0  0  0  0  0  0  0  0  0  0  0
   46.2390   30.9050   49.1810 C   0  0  0  0  0  0  0  0  0  0  0  0
   45.4070   31.9660   49.0120 C   0  0  0  0  0  0  0  0  0  0  0  0
   45.3030   32.6090   47.7750 C   0  0  0  0  0  0  0  0  0  0  0  0
   46.0450   32.1790   46.7050 C   0  0  0  0  0  0  0  0  0  0  0  0
   43.9670   34.4360   41.4860 C   0  0  0  0  0  0  0  0  0  0  0  0
   42.9150   35.2020   41.0300 C   0  0  0  0  0  0  0  0  0  0  0  0
   42.4820   35.0590   39.7220 C   0  0  0  0  0  0  0  0  0  0  0  0
   43.0700   34.1650   38.8320 C   0  0  0  0  0  0  0  0  0  0  0  0
   44.1260   33.3920   39.2800 C   0  0  0  0  0  0  0  0  0  0  0  0
   44.5290   33.5690   40.6050 C   0  0  0  0  0  0  0  0  0  0  0  0
   44.4431   36.7255   45.5254 H   0  0  0  0  0  0  0  0  0  0  0  0
   43.6157   36.6171   43.1347 H   0  0  0  0  0  0  0  0  0  0  0  0
   47.4703   31.7495   43.7081 H   0  0  0  0  0  0  0  0  0  0  0  0
   48.2133   30.0843   45.5483 H   0  0  0  0  0  0  0  0  0  0  0  0
   47.6631   29.6067   48.2436 H   0  0  0  0  0  0  0  0  0  0  0  0
   46.3136   30.4045   50.1577 H   0  0  0  0  0  0  0  0  0  0  0  0
   44.8064   32.3243   49.8611 H   0  0  0  0  0  0  0  0  0  0  0  0
   44.6219   33.4650   47.6593 H   0  0  0  0  0  0  0  0  0  0  0  0
   42.4229   35.9219   41.7005 H   0  0  0  0  0  0  0  0  0  0  0  0
   41.6408   35.6760   39.3732 H   0  0  0  0  0  0  0  0  0  0  0  0
   42.7042   34.0754   37.7985 H   0  0  0  0  0  0  0  0  0  0  0  0
   44.6271   32.6684   38.6202 H   0  0  0  0  0  0  0  0  0  0  0  0
   45.3694   32.9568   40.9641 H   0  0  0  0  0  0  0  0  0  0  0  0
  1  6  2  0
  2  1  1  0
  3  4  1  0
  3  2  2  0
  4  5  2  0
  5  7  1  0
  5  6  1  0
  7 15  1  0
  8  7  2  0
  8  9  1  0
  9 10  1  0
 10 11  2  0
 11 12  1  0
 13 12  2  0
 14 13  1  0
 15 10  1  0
 15 14  2  0
 16  3  1  0
 17 16  2  0
 18 17  1  0
 19 20  1  0
 19 18  2  0
 20 21  2  0
 21 16  1  0
  1 22  1  0
  2 23  1  0
  8 24  1  0
  9 25  1  0
 11 26  1  0
 12 27  1  0
 13 28  1  0
 14 29  1  0
 17 30  1  0
 18 31  1  0
 19 32  1  0
 20 33  1  0
 21 34  1  0
M  ISO  8  22  14  23  14  24  14  25   9  26  14  27  14  28  14  29  14
M  ISO  5  30  14  31  14  32  14  33  14  34  14
M  END
>  <minimizedAffinity>  (1) 
-5.94521046

>  <minimizedRMSD>  (1) 
0.668299794

$$$$
