
     RDKit          3D

 37 40  0  0  0  0  0  0  0  0999 V2000
   46.2180   32.5730   45.3790 C   0  0  0  0  0  0  0  0  0  0  0  0
   47.1150   31.7300   44.7490 C   0  0  0  0  0  0  0  0  0  0  0  0
   47.4940   30.8360   45.6640 N   0  0  0  0  0  0  0  0  0  0  0  0
   46.8870   31.0690   46.8310 C   0  0  0  0  0  0  0  0  0  0  0  0
   46.9700   30.4040   48.0540 C   0  0  0  0  0  0  0  0  0  0  0  0
   46.2350   30.8300   49.1440 C   0  0  0  0  0  0  0  0  0  0  0  0
   45.4190   31.9150   49.0180 C   0  0  0  0  0  0  0  0  0  0  0  0
   45.3050   32.6130   47.8080 C   0  0  0  0  0  0  0  0  0  0  0  0
   46.0430   32.1830   46.7160 C   0  0  0  0  0  0  0  0  0  0  0  0
   44.5190   35.8170   45.0690 C   0  0  0  0  0  0  0  0  0  0  0  0
   44.1730   35.8610   43.6900 C   0  0  0  0  0  0  0  0  0  0  0  0
   44.5340   34.7770   42.9080 C   0  0  0  0  0  0  0  0  0  0  0  0
   45.1890   33.7360   43.4680 N   0  0  0  0  0  0  0  0  0  0  0  0
   45.5100   33.7160   44.7960 C   0  0  0  0  0  0  0  0  0  0  0  0
   45.1720   34.7660   45.5990 N   0  0  0  0  0  0  0  0  0  0  0  0
   44.2500   34.6680   41.4690 C   0  0  0  0  0  0  0  0  0  0  0  0
   42.9620   35.3470   41.0610 C   0  0  0  0  0  0  0  0  0  0  0  0
   42.8340   34.8580   39.6130 C   0  0  0  0  0  0  0  0  0  0  0  0
   43.4960   33.4980   39.5940 C   0  0  0  0  0  0  0  0  0  0  0  0
   44.0040   33.2500   41.0000 C   0  0  0  0  0  0  0  0  0  0  0  0
   47.4493   31.7854   43.7025 H   0  0  0  0  0  0  0  0  0  0  0  0
   48.1627   30.0713   45.4940 H   0  0  0  0  0  0  0  0  0  0  0  0
   47.6292   29.5289   48.1523 H   0  0  0  0  0  0  0  0  0  0  0  0
   46.3076   30.2986   50.1044 H   0  0  0  0  0  0  0  0  0  0  0  0
   44.8355   32.2510   49.8879 H   0  0  0  0  0  0  0  0  0  0  0  0
   44.6416   33.4866   47.7262 H   0  0  0  0  0  0  0  0  0  0  0  0
   44.2464   36.6623   45.7180 H   0  0  0  0  0  0  0  0  0  0  0  0
   43.6396   36.7224   43.2617 H   0  0  0  0  0  0  0  0  0  0  0  0
   45.1513   35.1220   41.0314 H   0  0  0  0  0  0  0  0  0  0  0  0
   42.1145   35.0143   41.6783 H   0  0  0  0  0  0  0  0  0  0  0  0
   42.9642   36.4409   41.1766 H   0  0  0  0  0  0  0  0  0  0  0  0
   41.7754   34.7758   39.3257 H   0  0  0  0  0  0  0  0  0  0  0  0
   43.3026   35.5535   38.9011 H   0  0  0  0  0  0  0  0  0  0  0  0
   42.7674   32.7241   39.3107 H   0  0  0  0  0  0  0  0  0  0  0  0
   44.3161   33.4638   38.8617 H   0  0  0  0  0  0  0  0  0  0  0  0
   43.2488   32.7443   41.6196 H   0  0  0  0  0  0  0  0  0  0  0  0
   44.8847   32.5933   41.0560 H   0  0  0  0  0  0  0  0  0  0  0  0
  1  9  1  0
  2  1  2  0
  2  3  1  0
  3  4  1  0
  4  5  2  0
  5  6  1  0
  7  6  2  0
  8  7  1  0
  9  4  1  0
  9  8  2  0
 10 15  2  0
 11 10  1  0
 12 13  1  0
 12 11  2  0
 13 14  2  0
 14  1  1  0
 14 15  1  0
 16 12  1  0
 17 16  1  0
 18 17  1  0
 19 18  1  0
 19 20  1  0
 20 16  1  0
  2 21  1  0
  3 22  1  0
  5 23  1  0
  6 24  1  0
  7 25  1  0
  8 26  1  0
 10 27  1  0
 11 28  1  0
 16 29  1  0
 17 30  1  0
 17 31  1  0
 18 32  1  0
 18 33  1  0
 19 34  1  0
 19 35  1  0
 20 36  1  0
 20 37  1  0
M  ISO  8  21  14  22   9  23  14  24  14  25  14  26  14  27  14  28  14
M  ISO  8  29  13  30  13  31  13  32  13  33  13  34  13  35  13  36  13
M  ISO  1  37  13
M  END
>  <minimizedAffinity>  (1) 
-5.79386902

>  <minimizedRMSD>  (1) 
0.954765558

$$$$
