
     RDKit          3D

 31 34  0  0  0  0  0  0  0  0999 V2000
   46.2860   32.5120   45.4950 C   0  0  0  0  0  0  0  0  0  0  0  0
   47.2050   31.6550   44.8740 C   0  0  0  0  0  0  0  0  0  0  0  0
   47.5650   30.7570   45.7970 N   0  0  0  0  0  0  0  0  0  0  0  0
   46.9250   31.0020   46.9650 C   0  0  0  0  0  0  0  0  0  0  0  0
   46.9780   30.3460   48.1930 C   0  0  0  0  0  0  0  0  0  0  0  0
   46.2310   30.7710   49.2650 C   0  0  0  0  0  0  0  0  0  0  0  0
   45.4300   31.8600   49.0990 C   0  0  0  0  0  0  0  0  0  0  0  0
   45.3490   32.5450   47.8860 C   0  0  0  0  0  0  0  0  0  0  0  0
   46.1020   32.1110   46.8130 C   0  0  0  0  0  0  0  0  0  0  0  0
   44.5080   35.6910   45.1590 C   0  0  0  0  0  0  0  0  0  0  0  0
   44.3430   35.8310   43.7630 C   0  0  0  0  0  0  0  0  0  0  0  0
   44.8500   34.8230   42.9570 C   0  0  0  0  0  0  0  0  0  0  0  0
   45.4670   33.7730   43.5490 N   0  0  0  0  0  0  0  0  0  0  0  0
   45.6210   33.6470   44.8790 C   0  0  0  0  0  0  0  0  0  0  0  0
   45.1310   34.6210   45.6790 N   0  0  0  0  0  0  0  0  0  0  0  0
   44.7300   34.8730   41.4670 C   0  0  0  0  0  0  0  0  0  0  0  0
   43.4700   35.3460   40.8450 C   0  0  0  0  0  0  0  0  0  0  0  0
   43.8730   33.9000   40.7390 C   0  0  0  0  0  0  0  0  0  0  0  0
   47.5595   31.7102   43.8342 H   0  0  0  0  0  0  0  0  0  0  0  0
   48.2334   29.9889   45.6418 H   0  0  0  0  0  0  0  0  0  0  0  0
   47.6320   29.4689   48.3068 H   0  0  0  0  0  0  0  0  0  0  0  0
   46.2786   30.2463   50.2306 H   0  0  0  0  0  0  0  0  0  0  0  0
   44.8270   32.2112   49.9493 H   0  0  0  0  0  0  0  0  0  0  0  0
   44.6921   33.4216   47.7856 H   0  0  0  0  0  0  0  0  0  0  0  0
   44.1200   36.4709   45.8308 H   0  0  0  0  0  0  0  0  0  0  0  0
   43.8325   36.7051   43.3324 H   0  0  0  0  0  0  0  0  0  0  0  0
   45.7888   35.1631   41.3985 H   0  0  0  0  0  0  0  0  0  0  0  0
   42.6181   35.6354   41.4778 H   0  0  0  0  0  0  0  0  0  0  0  0
   43.2035   36.1357   40.1271 H   0  0  0  0  0  0  0  0  0  0  0  0
   43.3175   33.1303   41.2949 H   0  0  0  0  0  0  0  0  0  0  0  0
   44.0254   33.1900   39.9128 H   0  0  0  0  0  0  0  0  0  0  0  0
  1  9  1  0
  2  1  2  0
  2  3  1  0
  3  4  1  0
  4  5  2  0
  5  6  1  0
  7  6  2  0
  8  7  1  0
  9  4  1  0
  9  8  2  0
 10 15  2  0
 11 10  1  0
 12 13  1  0
 12 11  2  0
 13 14  2  0
 14  1  1  0
 14 15  1  0
 16 12  1  0
 17 16  1  0
 18 17  1  0
 18 16  1  0
  2 19  1  0
  3 20  1  0
  5 21  1  0
  6 22  1  0
  7 23  1  0
  8 24  1  0
 10 25  1  0
 11 26  1  0
 16 27  1  0
 17 28  1  0
 17 29  1  0
 18 30  1  0
 18 31  1  0
M  ISO  8  19  14  20   9  21  14  22  14  23  14  24  14  25  14  26  14
M  ISO  5  27  13  28  13  29  13  30  13  31  13
M  END
>  <minimizedAffinity>  (1) 
-5.51816463

>  <minimizedRMSD>  (1) 
0.357299358

$$$$
