
     RDKit          3D

 27 29  0  0  0  0  0  0  0  0999 V2000
   46.2960   32.5250   45.3910 C   0  0  0  0  0  0  0  0  0  0  0  0
   47.2170   31.6620   44.8140 C   0  0  0  0  0  0  0  0  0  0  0  0
   47.5710   30.7950   45.7750 N   0  0  0  0  0  0  0  0  0  0  0  0
   46.9240   31.0700   46.9100 C   0  0  0  0  0  0  0  0  0  0  0  0
   46.9710   30.4450   48.1630 C   0  0  0  0  0  0  0  0  0  0  0  0
   46.2010   30.9100   49.2130 C   0  0  0  0  0  0  0  0  0  0  0  0
   45.3890   31.9920   49.0130 C   0  0  0  0  0  0  0  0  0  0  0  0
   45.3130   32.6430   47.7810 C   0  0  0  0  0  0  0  0  0  0  0  0
   46.0890   32.1710   46.7290 C   0  0  0  0  0  0  0  0  0  0  0  0
   44.5440   35.7170   44.9250 C   0  0  0  0  0  0  0  0  0  0  0  0
   44.3390   35.7690   43.5290 C   0  0  0  0  0  0  0  0  0  0  0  0
   44.8060   34.7070   42.7730 C   0  0  0  0  0  0  0  0  0  0  0  0
   45.4250   33.6940   43.4090 N   0  0  0  0  0  0  0  0  0  0  0  0
   45.6170   33.6490   44.7400 C   0  0  0  0  0  0  0  0  0  0  0  0
   45.1710   34.6710   45.4940 N   0  0  0  0  0  0  0  0  0  0  0  0
   44.6680   34.6140   41.2970 C   0  0  0  0  0  0  0  0  0  0  0  0
   47.5833   31.6842   43.7770 H   0  0  0  0  0  0  0  0  0  0  0  0
   48.2460   30.0265   45.6542 H   0  0  0  0  0  0  0  0  0  0  0  0
   47.6274   29.5752   48.3130 H   0  0  0  0  0  0  0  0  0  0  0  0
   46.2410   30.4166   50.1953 H   0  0  0  0  0  0  0  0  0  0  0  0
   44.7767   32.3606   49.8492 H   0  0  0  0  0  0  0  0  0  0  0  0
   44.6524   33.5120   47.6453 H   0  0  0  0  0  0  0  0  0  0  0  0
   44.1860   36.5434   45.5566 H   0  0  0  0  0  0  0  0  0  0  0  0
   43.8271   36.6218   43.0592 H   0  0  0  0  0  0  0  0  0  0  0  0
   43.7793   34.0151   41.0488 H   0  0  0  0  0  0  0  0  0  0  0  0
   44.5593   35.6238   40.8745 H   0  0  0  0  0  0  0  0  0  0  0  0
   45.5632   34.1342   40.8745 H   0  0  0  0  0  0  0  0  0  0  0  0
  1  9  1  0
  2  1  2  0
  2  3  1  0
  3  4  1  0
  4  5  2  0
  5  6  1  0
  7  6  2  0
  8  7  1  0
  9  4  1  0
  9  8  2  0
 10 15  2  0
 11 10  1  0
 12 13  1  0
 12 11  2  0
 13 14  2  0
 14  1  1  0
 14 15  1  0
 16 12  1  0
  2 17  1  0
  3 18  1  0
  5 19  1  0
  6 20  1  0
  7 21  1  0
  8 22  1  0
 10 23  1  0
 11 24  1  0
 16 25  1  0
 16 26  1  0
 16 27  1  0
M  ISO  8  17  14  18   9  19  14  20  14  21  14  22  14  23  14  24  14
M  ISO  3  25   8  26   8  27   8
M  END
>  <minimizedAffinity>  (1) 
-5.16317177

>  <minimizedRMSD>  (1) 
0.128015339

$$$$
