
     RDKit          3D

 31 34  0  0  0  0  0  0  0  0999 V2000
   46.2260   32.5200   45.3960 C   0  0  0  0  0  0  0  0  0  0  0  0
   47.1600   31.6780   44.7930 C   0  0  0  0  0  0  0  0  0  0  0  0
   47.5490   30.8160   45.7460 N   0  0  0  0  0  0  0  0  0  0  0  0
   46.9140   31.0770   46.8970 C   0  0  0  0  0  0  0  0  0  0  0  0
   47.0080   30.4440   48.1300 C   0  0  0  0  0  0  0  0  0  0  0  0
   46.2450   30.8870   49.2080 C   0  0  0  0  0  0  0  0  0  0  0  0
   45.3970   31.9590   49.0330 C   0  0  0  0  0  0  0  0  0  0  0  0
   45.3000   32.5960   47.7920 C   0  0  0  0  0  0  0  0  0  0  0  0
   46.0540   32.1620   46.7240 C   0  0  0  0  0  0  0  0  0  0  0  0
   44.6340   35.7910   44.9230 C   0  0  0  0  0  0  0  0  0  0  0  0
   44.1700   35.7460   43.5910 C   0  0  0  0  0  0  0  0  0  0  0  0
   44.4190   34.5800   42.8840 C   0  0  0  0  0  0  0  0  0  0  0  0
   45.0810   33.5470   43.4700 N   0  0  0  0  0  0  0  0  0  0  0  0
   45.5180   33.6210   44.7590 C   0  0  0  0  0  0  0  0  0  0  0  0
   45.2820   34.7550   45.4670 N   0  0  0  0  0  0  0  0  0  0  0  0
   43.9920   34.4280   41.5270 N   0  0  0  0  0  0  0  0  0  0  0  0
   42.9870   35.1330   40.9400 C   0  0  0  0  0  0  0  0  0  0  0  0
   42.8200   34.7540   39.6300 C   0  0  0  0  0  0  0  0  0  0  0  0
   43.7380   33.8070   39.4190 N   0  0  0  0  0  0  0  0  0  0  0  0
   44.4330   33.6160   40.5510 C   0  0  0  0  0  0  0  0  0  0  0  0
   47.5071   31.7130   43.7498 H   0  0  0  0  0  0  0  0  0  0  0  0
   48.2373   30.0616   45.6117 H   0  0  0  0  0  0  0  0  0  0  0  0
   47.6883   29.5888   48.2557 H   0  0  0  0  0  0  0  0  0  0  0  0
   46.3184   30.3879   50.1855 H   0  0  0  0  0  0  0  0  0  0  0  0
   44.7904   32.3171   49.8779 H   0  0  0  0  0  0  0  0  0  0  0  0
   44.6171   33.4493   47.6678 H   0  0  0  0  0  0  0  0  0  0  0  0
   44.4595   36.6949   45.5251 H   0  0  0  0  0  0  0  0  0  0  0  0
   43.6372   36.5942   43.1364 H   0  0  0  0  0  0  0  0  0  0  0  0
   42.3879   35.9038   41.4469 H   0  0  0  0  0  0  0  0  0  0  0  0
   42.0873   35.1464   38.9094 H   0  0  0  0  0  0  0  0  0  0  0  0
   45.2534   32.8921   40.6648 H   0  0  0  0  0  0  0  0  0  0  0  0
  1  9  1  0
  2  1  2  0
  2  3  1  0
  3  4  1  0
  4  5  2  0
  5  6  1  0
  7  6  2  0
  8  7  1  0
  9  4  1  0
  9  8  2  0
 10 15  2  0
 11 10  1  0
 12 13  1  0
 12 11  2  0
 13 14  2  0
 14  1  1  0
 14 15  1  0
 16 12  1  0
 17 16  1  0
 18 17  2  0
 19 18  1  0
 19 20  2  0
 20 16  1  0
  2 21  1  0
  3 22  1  0
  5 23  1  0
  6 24  1  0
  7 25  1  0
  8 26  1  0
 10 27  1  0
 11 28  1  0
 17 29  1  0
 18 30  1  0
 20 31  1  0
M  ISO  8  21  14  22   9  23  14  24  14  25  14  26  14  27  14  28  14
M  ISO  3  29  14  30  14  31  14
M  END
>  <minimizedAffinity>  (1) 
-5.53213739

>  <minimizedRMSD>  (1) 
0.35555774

$$$$
