
     RDKit          3D

 26 28  0  0  0  0  0  0  0  0999 V2000
   46.3020   32.5200   45.3880 C   0  0  0  0  0  0  0  0  0  0  0  0
   47.2220   31.6560   44.8130 C   0  0  0  0  0  0  0  0  0  0  0  0
   47.5780   30.7880   45.7730 N   0  0  0  0  0  0  0  0  0  0  0  0
   46.9280   31.0680   46.9080 C   0  0  0  0  0  0  0  0  0  0  0  0
   46.9760   30.4450   48.1550 C   0  0  0  0  0  0  0  0  0  0  0  0
   46.2050   30.9100   49.2080 C   0  0  0  0  0  0  0  0  0  0  0  0
   45.3820   32.0000   49.0190 C   0  0  0  0  0  0  0  0  0  0  0  0
   45.3170   32.6410   47.7760 C   0  0  0  0  0  0  0  0  0  0  0  0
   46.0860   32.1770   46.7290 C   0  0  0  0  0  0  0  0  0  0  0  0
   44.5470   35.7120   44.9190 C   0  0  0  0  0  0  0  0  0  0  0  0
   44.3440   35.7550   43.5190 C   0  0  0  0  0  0  0  0  0  0  0  0
   44.8120   34.6920   42.7620 C   0  0  0  0  0  0  0  0  0  0  0  0
   45.4390   33.6620   43.3930 N   0  0  0  0  0  0  0  0  0  0  0  0
   45.6260   33.6370   44.7410 C   0  0  0  0  0  0  0  0  0  0  0  0
   45.1750   34.6670   45.4890 N   0  0  0  0  0  0  0  0  0  0  0  0
   44.6800   34.5980   41.3470 N   0  0  0  0  0  0  0  0  0  0  0  0
   47.5875   31.6777   43.7757 H   0  0  0  0  0  0  0  0  0  0  0  0
   48.2528   30.0191   45.6532 H   0  0  0  0  0  0  0  0  0  0  0  0
   47.6329   29.5753   48.3040 H   0  0  0  0  0  0  0  0  0  0  0  0
   46.2491   30.4129   50.1883 H   0  0  0  0  0  0  0  0  0  0  0  0
   44.7695   32.3702   49.8544 H   0  0  0  0  0  0  0  0  0  0  0  0
   44.6567   33.5094   47.6351 H   0  0  0  0  0  0  0  0  0  0  0  0
   44.1881   36.5406   45.5472 H   0  0  0  0  0  0  0  0  0  0  0  0
   43.8309   36.6054   43.0462 H   0  0  0  0  0  0  0  0  0  0  0  0
   44.2133   35.3514   40.8221 H   0  0  0  0  0  0  0  0  0  0  0  0
   45.0513   33.7767   40.8486 H   0  0  0  0  0  0  0  0  0  0  0  0
  1  9  1  0
  2  1  2  0
  2  3  1  0
  3  4  1  0
  4  5  2  0
  5  6  1  0
  7  6  2  0
  8  7  1  0
  9  4  1  0
  9  8  2  0
 10 15  2  0
 11 10  1  0
 12 13  1  0
 12 11  2  0
 13 14  2  0
 14  1  1  0
 14 15  1  0
 16 12  1  0
  2 17  1  0
  3 18  1  0
  5 19  1  0
  6 20  1  0
  7 21  1  0
  8 22  1  0
 10 23  1  0
 11 24  1  0
 16 25  1  0
 16 26  1  0
M  ISO  8  17  14  18   9  19  14  20  14  21  14  22  14  23  14  24  14
M  END
>  <minimizedAffinity>  (1) 
-5.07735205

>  <minimizedRMSD>  (1) 
0.132156923

$$$$
