
     RDKit          3D

 25 27  0  0  0  0  0  0  0  0999 V2000
   46.2710   32.5180   45.4050 C   0  0  0  0  0  0  0  0  0  0  0  0
   47.2050   31.6600   44.8260 C   0  0  0  0  0  0  0  0  0  0  0  0
   47.5770   30.7980   45.7810 N   0  0  0  0  0  0  0  0  0  0  0  0
   46.9290   31.0660   46.9260 C   0  0  0  0  0  0  0  0  0  0  0  0
   46.9900   30.4450   48.1690 C   0  0  0  0  0  0  0  0  0  0  0  0
   46.2150   30.9020   49.2260 C   0  0  0  0  0  0  0  0  0  0  0  0
   45.3920   31.9690   49.0290 C   0  0  0  0  0  0  0  0  0  0  0  0
   45.3010   32.6200   47.7940 C   0  0  0  0  0  0  0  0  0  0  0  0
   46.0740   32.1640   46.7440 C   0  0  0  0  0  0  0  0  0  0  0  0
   44.5640   35.7220   44.9200 C   0  0  0  0  0  0  0  0  0  0  0  0
   44.2730   35.7310   43.5400 C   0  0  0  0  0  0  0  0  0  0  0  0
   44.6710   34.6290   42.7990 C   0  0  0  0  0  0  0  0  0  0  0  0
   45.3100   33.6210   43.4370 N   0  0  0  0  0  0  0  0  0  0  0  0
   45.5810   33.6250   44.7550 C   0  0  0  0  0  0  0  0  0  0  0  0
   45.2010   34.6910   45.5030 N   0  0  0  0  0  0  0  0  0  0  0  0
   44.3750   34.4960   41.0440 S   0  0  0  0  0  0  0  0  0  0  0  0
   47.5660   31.6860   43.7872 H   0  0  0  0  0  0  0  0  0  0  0  0
   48.2616   30.0388   45.6553 H   0  0  0  0  0  0  0  0  0  0  0  0
   47.6585   29.5839   48.3158 H   0  0  0  0  0  0  0  0  0  0  0  0
   46.2649   30.4095   50.2083 H   0  0  0  0  0  0  0  0  0  0  0  0
   44.7791   32.3306   49.8678 H   0  0  0  0  0  0  0  0  0  0  0  0
   44.6266   33.4788   47.6616 H   0  0  0  0  0  0  0  0  0  0  0  0
   44.2617   36.5816   45.5362 H   0  0  0  0  0  0  0  0  0  0  0  0
   43.7514   36.5781   43.0707 H   0  0  0  0  0  0  0  0  0  0  0  0
   43.1407   33.9414   40.8298 H   0  0  0  0  0  0  0  0  0  0  0  0
  1  9  1  0
  2  1  2  0
  2  3  1  0
  3  4  1  0
  4  5  2  0
  5  6  1  0
  7  6  2  0
  8  7  1  0
  9  4  1  0
  9  8  2  0
 10 15  2  0
 11 10  1  0
 12 13  1  0
 12 11  2  0
 13 14  2  0
 14  1  1  0
 14 15  1  0
 16 12  1  0
  2 17  1  0
  3 18  1  0
  5 19  1  0
  6 20  1  0
  7 21  1  0
  8 22  1  0
 10 23  1  0
 11 24  1  0
 16 25  1  0
M  ISO  8  17  14  18   9  19  14  20  14  21  14  22  14  23  14  24  14
M  ISO  1  25  11
M  END
>  <minimizedAffinity>  (1) 
-5.09120989

>  <minimizedRMSD>  (1) 
0.0485518053

$$$$
