
     RDKit          3D

 40 44  0  0  0  0  0  0  0  0999 V2000
   44.8370   35.9510   44.1460 C   0  0  0  0  0  0  0  0  0  0  0  0
   44.0210   35.7640   43.0120 C   0  0  0  0  0  0  0  0  0  0  0  0
   43.9580   34.4820   42.5270 C   0  0  0  0  0  0  0  0  0  0  0  0
   44.6350   33.4960   43.1120 N   0  0  0  0  0  0  0  0  0  0  0  0
   45.4200   33.6910   44.2080 C   0  0  0  0  0  0  0  0  0  0  0  0
   45.5110   34.9480   44.7210 N   0  0  0  0  0  0  0  0  0  0  0  0
   46.1540   32.6150   44.8390 C   0  0  0  0  0  0  0  0  0  0  0  0
   47.0060   31.6970   44.2290 C   0  0  0  0  0  0  0  0  0  0  0  0
   47.4650   30.8900   45.1780 N   0  0  0  0  0  0  0  0  0  0  0  0
   46.9570   31.2360   46.3560 C   0  0  0  0  0  0  0  0  0  0  0  0
   47.1360   30.7000   47.6330 C   0  0  0  0  0  0  0  0  0  0  0  0
   46.4910   31.2330   48.7560 C   0  0  0  0  0  0  0  0  0  0  0  0
   45.6730   32.3040   48.5710 C   0  0  0  0  0  0  0  0  0  0  0  0
   45.4630   32.8770   47.3060 C   0  0  0  0  0  0  0  0  0  0  0  0
   46.1050   32.3400   46.2130 C   0  0  0  0  0  0  0  0  0  0  0  0
   43.1410   34.3000   41.3900 C   0  0  0  0  0  0  0  0  0  0  0  0
   43.3570   34.8370   40.1540 C   0  0  0  0  0  0  0  0  0  0  0  0
   42.5750   34.6610   39.0620 C   0  0  0  0  0  0  0  0  0  0  0  0
   41.4240   33.7800   39.4180 C   0  0  0  0  0  0  0  0  0  0  0  0
   41.6630   33.3550   41.2550 S   0  0  0  0  0  0  0  0  0  0  0  0
   40.3160   33.2830   38.6610 C   0  0  0  0  0  0  0  0  0  0  0  0
   40.3070   31.9350   38.4910 C   0  0  0  0  0  0  0  0  0  0  0  0
   39.2520   31.3830   37.7600 C   0  0  0  0  0  0  0  0  0  0  0  0
   38.3000   32.2600   37.2680 C   0  0  0  0  0  0  0  0  0  0  0  0
   38.3660   33.6230   37.4740 C   0  0  0  0  0  0  0  0  0  0  0  0
   39.4180   34.1150   38.1950 N   0  0  0  0  0  0  0  0  0  0  0  0
   44.9231   36.9603   44.5749 H   0  0  0  0  0  0  0  0  0  0  0  0
   43.4695   36.5935   42.5453 H   0  0  0  0  0  0  0  0  0  0  0  0
   47.2530   31.6495   43.1581 H   0  0  0  0  0  0  0  0  0  0  0  0
   48.1193   30.1097   45.0236 H   0  0  0  0  0  0  0  0  0  0  0  0
   47.8027   29.8344   47.7605 H   0  0  0  0  0  0  0  0  0  0  0  0
   46.6411   30.7994   49.7558 H   0  0  0  0  0  0  0  0  0  0  0  0
   45.1584   32.7361   49.4419 H   0  0  0  0  0  0  0  0  0  0  0  0
   44.7947   33.7430   47.1902 H   0  0  0  0  0  0  0  0  0  0  0  0
   44.2479   35.4709   40.0335 H   0  0  0  0  0  0  0  0  0  0  0  0
   42.7592   35.0983   38.0696 H   0  0  0  0  0  0  0  0  0  0  0  0
   41.1010   31.3016   38.9133 H   0  0  0  0  0  0  0  0  0  0  0  0
   39.1808   30.2996   37.5831 H   0  0  0  0  0  0  0  0  0  0  0  0
   37.4571   31.8539   36.6896 H   0  0  0  0  0  0  0  0  0  0  0  0
   37.5941   34.2943   37.0696 H   0  0  0  0  0  0  0  0  0  0  0  0
  1  6  2  0
  2  1  1  0
  3  2  2  0
  3  4  1  0
  4  5  2  0
  5  6  1  0
  5  7  1  0
  7 15  1  0
  8  7  2  0
  8  9  1  0
  9 10  1  0
 10 11  2  0
 11 12  1  0
 13 12  2  0
 14 13  1  0
 15 10  1  0
 15 14  2  0
 16  3  1  0
 17 16  2  0
 18 19  2  0
 18 17  1  0
 19 20  1  0
 20 16  1  0
 21 19  1  0
 22 21  2  0
 23 22  1  0
 24 25  1  0
 24 23  2  0
 25 26  2  0
 26 21  1  0
  1 27  1  0
  2 28  1  0
  8 29  1  0
  9 30  1  0
 11 31  1  0
 12 32  1  0
 13 33  1  0
 14 34  1  0
 17 35  1  0
 18 36  1  0
 22 37  1  0
 23 38  1  0
 24 39  1  0
 25 40  1  0
M  ISO  8  27  14  28  14  29  14  30   9  31  14  32  14  33  14  34  14
M  ISO  6  35  14  36  14  37  14  38  14  39  14  40  14
M  END
>  <minimizedAffinity>  (1) 
-6.35818481

>  <minimizedRMSD>  (1) 
2.23803282

$$$$
