
     RDKit          3D

 38 42  0  0  0  0  0  0  0  0999 V2000
   44.8170   35.7620   44.4230 C   0  0  0  0  0  0  0  0  0  0  0  0
   44.1010   35.5540   43.2260 C   0  0  0  0  0  0  0  0  0  0  0  0
   44.1300   34.2870   42.7210 C   0  0  0  0  0  0  0  0  0  0  0  0
   44.8050   33.3020   43.3370 N   0  0  0  0  0  0  0  0  0  0  0  0
   45.4940   33.5150   44.4950 C   0  0  0  0  0  0  0  0  0  0  0  0
   45.4890   34.7780   45.0360 N   0  0  0  0  0  0  0  0  0  0  0  0
   46.2250   32.4670   45.1680 C   0  0  0  0  0  0  0  0  0  0  0  0
   47.1600   31.5980   44.6080 C   0  0  0  0  0  0  0  0  0  0  0  0
   47.5820   30.8000   45.5840 N   0  0  0  0  0  0  0  0  0  0  0  0
   46.9650   31.1170   46.7270 C   0  0  0  0  0  0  0  0  0  0  0  0
   47.0870   30.5590   48.0030 C   0  0  0  0  0  0  0  0  0  0  0  0
   46.3450   31.0440   49.0770 C   0  0  0  0  0  0  0  0  0  0  0  0
   45.4910   32.0810   48.8520 C   0  0  0  0  0  0  0  0  0  0  0  0
   45.3450   32.6640   47.5810 C   0  0  0  0  0  0  0  0  0  0  0  0
   46.0860   32.1770   46.5260 C   0  0  0  0  0  0  0  0  0  0  0  0
   43.4170   34.0820   41.5190 C   0  0  0  0  0  0  0  0  0  0  0  0
   43.9580   34.0610   40.2690 C   0  0  0  0  0  0  0  0  0  0  0  0
   43.3190   33.8590   39.1050 C   0  0  0  0  0  0  0  0  0  0  0  0
   41.8560   33.6530   39.3970 C   0  0  0  0  0  0  0  0  0  0  0  0
   41.6970   33.7900   41.2950 S   0  0  0  0  0  0  0  0  0  0  0  0
   40.6240   33.3990   38.6910 C   0  0  0  0  0  0  0  0  0  0  0  0
   39.8600   34.4330   38.2690 C   0  0  0  0  0  0  0  0  0  0  0  0
   38.7160   34.1650   37.6150 C   0  0  0  0  0  0  0  0  0  0  0  0
   38.3810   32.8340   37.4080 C   0  0  0  0  0  0  0  0  0  0  0  0
   39.8480   31.9600   38.2330 S   0  0  0  0  0  0  0  0  0  0  0  0
   44.8241   36.7674   44.8692 H   0  0  0  0  0  0  0  0  0  0  0  0
   43.5510   36.3663   42.7283 H   0  0  0  0  0  0  0  0  0  0  0  0
   47.4867   31.5766   43.5578 H   0  0  0  0  0  0  0  0  0  0  0  0
   48.2796   30.0500   45.4758 H   0  0  0  0  0  0  0  0  0  0  0  0
   47.7820   29.7213   48.1616 H   0  0  0  0  0  0  0  0  0  0  0  0
   46.4458   30.6019   50.0792 H   0  0  0  0  0  0  0  0  0  0  0  0
   44.8974   32.4744   49.6904 H   0  0  0  0  0  0  0  0  0  0  0  0
   44.6465   33.5003   47.4302 H   0  0  0  0  0  0  0  0  0  0  0  0
   45.0433   34.2288   40.2056 H   0  0  0  0  0  0  0  0  0  0  0  0
   43.7847   33.8462   38.1085 H   0  0  0  0  0  0  0  0  0  0  0  0
   40.1685   35.4719   38.4571 H   0  0  0  0  0  0  0  0  0  0  0  0
   38.0656   34.9758   37.2551 H   0  0  0  0  0  0  0  0  0  0  0  0
   37.5037   32.4035   36.9030 H   0  0  0  0  0  0  0  0  0  0  0  0
  1  6  2  0
  2  1  1  0
  3  2  2  0
  3  4  1  0
  4  5  2  0
  5  6  1  0
  5  7  1  0
  7 15  1  0
  8  7  2  0
  8  9  1  0
  9 10  1  0
 10 11  2  0
 11 12  1  0
 13 12  2  0
 14 13  1  0
 15 10  1  0
 15 14  2  0
 16  3  1  0
 17 16  2  0
 18 19  2  0
 18 17  1  0
 19 20  1  0
 20 16  1  0
 21 19  1  0
 22 21  2  0
 23 22  1  0
 24 23  2  0
 24 25  1  0
 25 21  1  0
  1 26  1  0
  2 27  1  0
  8 28  1  0
  9 29  1  0
 11 30  1  0
 12 31  1  0
 13 32  1  0
 14 33  1  0
 17 34  1  0
 18 35  1  0
 22 36  1  0
 23 37  1  0
 24 38  1  0
M  ISO  8  26  14  27  14  28  14  29   9  30  14  31  14  32  14  33  14
M  ISO  5  34  14  35  14  36  14  37  14  38  14
M  END
>  <minimizedAffinity>  (1) 
-6.4747529

>  <minimizedRMSD>  (1) 
2.04291224

$$$$
