
     RDKit          3D

 38 42  0  0  0  0  0  0  0  0999 V2000
   44.7880   35.2970   44.2270 C   0  0  0  0  0  0  0  0  0  0  0  0
   44.5170   35.0710   42.8630 C   0  0  0  0  0  0  0  0  0  0  0  0
   44.9080   33.8520   42.3640 C   0  0  0  0  0  0  0  0  0  0  0  0
   45.5070   32.9530   43.1450 N   0  0  0  0  0  0  0  0  0  0  0  0
   45.7680   33.1770   44.4620 C   0  0  0  0  0  0  0  0  0  0  0  0
   45.3920   34.3830   44.9990 N   0  0  0  0  0  0  0  0  0  0  0  0
   46.4200   32.2070   45.3090 C   0  0  0  0  0  0  0  0  0  0  0  0
   47.4190   31.3110   44.9450 C   0  0  0  0  0  0  0  0  0  0  0  0
   47.7310   30.6080   46.0250 N   0  0  0  0  0  0  0  0  0  0  0  0
   46.9900   31.0060   47.0570 C   0  0  0  0  0  0  0  0  0  0  0  0
   46.9450   30.5760   48.4070 C   0  0  0  0  0  0  0  0  0  0  0  0
   46.0780   31.1470   49.3140 C   0  0  0  0  0  0  0  0  0  0  0  0
   45.2540   32.1410   48.8920 C   0  0  0  0  0  0  0  0  0  0  0  0
   45.2540   32.6030   47.5790 C   0  0  0  0  0  0  0  0  0  0  0  0
   46.1180   32.0380   46.6670 C   0  0  0  0  0  0  0  0  0  0  0  0
   44.6350   33.6410   40.9980 C   0  0  0  0  0  0  0  0  0  0  0  0
   43.5940   34.1730   40.2960 C   0  0  0  0  0  0  0  0  0  0  0  0
   43.3320   33.9860   38.9830 C   0  0  0  0  0  0  0  0  0  0  0  0
   44.3770   33.0860   38.3980 C   0  0  0  0  0  0  0  0  0  0  0  0
   45.5460   32.6730   39.8450 S   0  0  0  0  0  0  0  0  0  0  0  0
   44.6110   32.5520   37.1070 C   0  0  0  0  0  0  0  0  0  0  0  0
   44.2120   31.3710   36.6060 C   0  0  0  0  0  0  0  0  0  0  0  0
   44.6970   31.3510   35.3300 N   0  0  0  0  0  0  0  0  0  0  0  0
   45.3690   32.5050   35.0940 C   0  0  0  0  0  0  0  0  0  0  0  0
   45.3120   33.2690   36.2270 N   0  0  0  0  0  0  0  0  0  0  0  0
   44.4934   36.2578   44.6742 H   0  0  0  0  0  0  0  0  0  0  0  0
   44.0217   35.8259   42.2347 H   0  0  0  0  0  0  0  0  0  0  0  0
   47.8674   31.2050   43.9461 H   0  0  0  0  0  0  0  0  0  0  0  0
   48.4420   29.8636   46.0604 H   0  0  0  0  0  0  0  0  0  0  0  0
   47.6161   29.7697   48.7378 H   0  0  0  0  0  0  0  0  0  0  0  0
   46.0539   30.8044   50.3590 H   0  0  0  0  0  0  0  0  0  0  0  0
   44.5614   32.5976   49.6144 H   0  0  0  0  0  0  0  0  0  0  0  0
   44.5719   33.4100   47.2732 H   0  0  0  0  0  0  0  0  0  0  0  0
   42.8987   34.8181   40.8532 H   0  0  0  0  0  0  0  0  0  0  0  0
   42.4868   34.4245   38.4323 H   0  0  0  0  0  0  0  0  0  0  0  0
   43.6239   30.5916   37.1125 H   0  0  0  0  0  0  0  0  0  0  0  0
   45.8722   32.7789   34.1550 H   0  0  0  0  0  0  0  0  0  0  0  0
   45.7238   34.2021   36.3707 H   0  0  0  0  0  0  0  0  0  0  0  0
  1  6  2  0
  2  1  1  0
  3  2  2  0
  3  4  1  0
  4  5  2  0
  5  6  1  0
  5  7  1  0
  7 15  1  0
  8  7  2  0
  8  9  1  0
  9 10  1  0
 10 11  2  0
 11 12  1  0
 13 12  2  0
 14 13  1  0
 15 10  1  0
 15 14  2  0
 16  3  1  0
 17 16  2  0
 18 17  1  0
 19 18  2  0
 19 20  1  0
 20 16  1  0
 21 19  1  0
 22 21  2  0
 23 22  1  0
 24 23  2  0
 24 25  1  0
 25 21  1  0
  1 26  1  0
  2 27  1  0
  8 28  1  0
  9 29  1  0
 11 30  1  0
 12 31  1  0
 13 32  1  0
 14 33  1  0
 17 34  1  0
 18 35  1  0
 22 36  1  0
 24 37  1  0
 25 38  1  0
M  ISO  8  26  14  27  14  28  14  29   9  30  14  31  14  32  14  33  14
M  ISO  5  34  14  35  14  36  14  37  14  38   9
M  END
>  <minimizedAffinity>  (1) 
-5.75098991

>  <minimizedRMSD>  (1) 
1.14050817

$$$$
