
     RDKit          3D

 40 43  0  0  0  0  0  0  0  0999 V2000
   44.7430   35.8100   44.6230 C   0  0  0  0  0  0  0  0  0  0  0  0
   44.0500   35.6660   43.4020 C   0  0  0  0  0  0  0  0  0  0  0  0
   44.1100   34.4190   42.8230 C   0  0  0  0  0  0  0  0  0  0  0  0
   44.7850   33.4270   43.3980 N   0  0  0  0  0  0  0  0  0  0  0  0
   45.4500   33.5830   44.5800 C   0  0  0  0  0  0  0  0  0  0  0  0
   45.4180   34.8020   45.1880 N   0  0  0  0  0  0  0  0  0  0  0  0
   46.1850   32.5040   45.2040 C   0  0  0  0  0  0  0  0  0  0  0  0
   47.0940   31.6370   44.6020 C   0  0  0  0  0  0  0  0  0  0  0  0
   47.5280   30.8060   45.5290 N   0  0  0  0  0  0  0  0  0  0  0  0
   46.9440   31.0960   46.7060 C   0  0  0  0  0  0  0  0  0  0  0  0
   47.0870   30.4990   47.9630 C   0  0  0  0  0  0  0  0  0  0  0  0
   46.3780   30.9640   49.0580 C   0  0  0  0  0  0  0  0  0  0  0  0
   45.5300   32.0200   48.8940 C   0  0  0  0  0  0  0  0  0  0  0  0
   45.3690   32.6380   47.6380 C   0  0  0  0  0  0  0  0  0  0  0  0
   46.0780   32.1690   46.5550 C   0  0  0  0  0  0  0  0  0  0  0  0
   43.4220   34.2870   41.6020 C   0  0  0  0  0  0  0  0  0  0  0  0
   43.2880   35.2520   40.6420 C   0  0  0  0  0  0  0  0  0  0  0  0
   42.6450   35.1470   39.4660 C   0  0  0  0  0  0  0  0  0  0  0  0
   42.0730   33.7480   39.3660 C   0  0  0  0  0  0  0  0  0  0  0  0
   42.5780   32.8740   40.9770 S   0  0  0  0  0  0  0  0  0  0  0  0
   41.2910   33.0720   38.3330 C   0  0  0  0  0  0  0  0  0  0  0  0
   40.0790   33.8630   38.0110 C   0  0  0  0  0  0  0  0  0  0  0  0
   40.9260   31.6760   38.7990 C   0  0  0  0  0  0  0  0  0  0  0  0
   44.7277   36.7867   45.1288 H   0  0  0  0  0  0  0  0  0  0  0  0
   43.4967   36.4981   42.9421 H   0  0  0  0  0  0  0  0  0  0  0  0
   47.3953   31.6443   43.5441 H   0  0  0  0  0  0  0  0  0  0  0  0
   48.2103   30.0498   45.3756 H   0  0  0  0  0  0  0  0  0  0  0  0
   47.7729   29.6475   48.0835 H   0  0  0  0  0  0  0  0  0  0  0  0
   46.4966   30.4898   50.0434 H   0  0  0  0  0  0  0  0  0  0  0  0
   44.9618   32.3957   49.7577 H   0  0  0  0  0  0  0  0  0  0  0  0
   44.6817   33.4892   47.5236 H   0  0  0  0  0  0  0  0  0  0  0  0
   43.7591   36.2227   40.8561 H   0  0  0  0  0  0  0  0  0  0  0  0
   42.5507   35.9390   38.7085 H   0  0  0  0  0  0  0  0  0  0  0  0
   41.8926   32.9852   37.4162 H   0  0  0  0  0  0  0  0  0  0  0  0
   39.5907   34.1817   38.9437 H   0  0  0  0  0  0  0  0  0  0  0  0
   40.3645   34.7492   37.4252 H   0  0  0  0  0  0  0  0  0  0  0  0
   39.3827   33.2449   37.4252 H   0  0  0  0  0  0  0  0  0  0  0  0
   40.9184   31.6468   39.8986 H   0  0  0  0  0  0  0  0  0  0  0  0
   39.9285   31.4114   38.4182 H   0  0  0  0  0  0  0  0  0  0  0  0
   41.6664   30.9571   38.4182 H   0  0  0  0  0  0  0  0  0  0  0  0
  1  6  2  0
  2  1  1  0
  3  4  1  0
  3  2  2  0
  4  5  2  0
  5  6  1  0
  5  7  1  0
  7 15  1  0
  8  7  2  0
  8  9  1  0
  9 10  1  0
 10 11  2  0
 11 12  1  0
 13 12  2  0
 14 13  1  0
 15 10  1  0
 15 14  2  0
 16  3  1  0
 17 16  2  0
 18 17  1  0
 19 18  2  0
 19 20  1  0
 20 16  1  0
 21 23  1  0
 21 19  1  0
 22 21  1  0
  1 24  1  0
  2 25  1  0
  8 26  1  0
  9 27  1  0
 11 28  1  0
 12 29  1  0
 13 30  1  0
 14 31  1  0
 17 32  1  0
 18 33  1  0
 21 34  1  0
 22 35  1  0
 22 36  1  0
 22 37  1  0
 23 38  1  0
 23 39  1  0
 23 40  1  0
M  ISO  8  24  14  25  14  26  14  27   9  28  14  29  14  30  14  31  14
M  ISO  8  32  14  33  14  34   8  35   8  36   8  37   8  38   8  39   8
M  ISO  1  40   8
M  END
>  <minimizedAffinity>  (1) 
-5.89513063

>  <minimizedRMSD>  (1) 
1.04730749

$$$$
