
     RDKit          3D

 33 36  0  0  0  0  0  0  0  0999 V2000
   44.7490   35.7670   44.6180 C   0  0  0  0  0  0  0  0  0  0  0  0
   44.0800   35.6090   43.3880 C   0  0  0  0  0  0  0  0  0  0  0  0
   44.1610   34.3590   42.8130 C   0  0  0  0  0  0  0  0  0  0  0  0
   44.8400   33.3810   43.4100 N   0  0  0  0  0  0  0  0  0  0  0  0
   45.4830   33.5410   44.5970 C   0  0  0  0  0  0  0  0  0  0  0  0
   45.4250   34.7720   45.2010 N   0  0  0  0  0  0  0  0  0  0  0  0
   46.2200   32.4820   45.2460 C   0  0  0  0  0  0  0  0  0  0  0  0
   47.1470   31.6330   44.6630 C   0  0  0  0  0  0  0  0  0  0  0  0
   47.5890   30.8120   45.5990 N   0  0  0  0  0  0  0  0  0  0  0  0
   46.9820   31.1000   46.7620 C   0  0  0  0  0  0  0  0  0  0  0  0
   47.1080   30.5190   48.0520 C   0  0  0  0  0  0  0  0  0  0  0  0
   46.3730   30.9850   49.1210 C   0  0  0  0  0  0  0  0  0  0  0  0
   45.5100   32.0270   48.9200 C   0  0  0  0  0  0  0  0  0  0  0  0
   45.3570   32.6280   47.6670 C   0  0  0  0  0  0  0  0  0  0  0  0
   46.0920   32.1620   46.6000 C   0  0  0  0  0  0  0  0  0  0  0  0
   43.4930   34.2200   41.5850 C   0  0  0  0  0  0  0  0  0  0  0  0
   43.2750   35.2040   40.6680 C   0  0  0  0  0  0  0  0  0  0  0  0
   42.6410   35.0650   39.4790 C   0  0  0  0  0  0  0  0  0  0  0  0
   42.2020   33.6350   39.3170 C   0  0  0  0  0  0  0  0  0  0  0  0
   42.7860   32.7610   40.9070 S   0  0  0  0  0  0  0  0  0  0  0  0
   41.5080   32.9390   38.2900 C   0  0  0  0  0  0  0  0  0  0  0  0
   40.4150   33.3640   37.9190 O   0  0  0  0  0  0  0  0  0  0  0  0
   44.7136   36.7464   45.1175 H   0  0  0  0  0  0  0  0  0  0  0  0
   43.5264   36.4336   42.9152 H   0  0  0  0  0  0  0  0  0  0  0  0
   47.4594   31.6411   43.6083 H   0  0  0  0  0  0  0  0  0  0  0  0
   48.2883   30.0688   45.4590 H   0  0  0  0  0  0  0  0  0  0  0  0
   47.8053   29.6814   48.2008 H   0  0  0  0  0  0  0  0  0  0  0  0
   46.4784   30.5279   50.1160 H   0  0  0  0  0  0  0  0  0  0  0  0
   44.9194   32.4029   49.7685 H   0  0  0  0  0  0  0  0  0  0  0  0
   44.6560   33.4653   47.5348 H   0  0  0  0  0  0  0  0  0  0  0  0
   43.6499   36.2077   40.9172 H   0  0  0  0  0  0  0  0  0  0  0  0
   42.4737   35.8698   38.7480 H   0  0  0  0  0  0  0  0  0  0  0  0
   41.9410   32.0360   37.8350 H   0  0  0  0  0  0  0  0  0  0  0  0
  1  6  2  0
  2  1  1  0
  3  2  2  0
  3  4  1  0
  4  5  2  0
  5  6  1  0
  5  7  1  0
  7 15  1  0
  8  7  2  0
  8  9  1  0
  9 10  1  0
 10 11  2  0
 11 12  1  0
 13 12  2  0
 14 13  1  0
 15 10  1  0
 15 14  2  0
 16  3  1  0
 17 16  2  0
 18 17  1  0
 19 18  2  0
 19 20  1  0
 20 16  1  0
 21 19  1  0
 22 21  2  0
  1 23  1  0
  2 24  1  0
  8 25  1  0
  9 26  1  0
 11 27  1  0
 12 28  1  0
 13 29  1  0
 14 30  1  0
 17 31  1  0
 18 32  1  0
 21 33  1  0
M  ISO  8  23  14  24  14  25  14  26   9  27  14  28  14  29  14  30  14
M  ISO  3  31  14  32  14  33   6
M  END
>  <minimizedAffinity>  (1) 
-5.646451

>  <minimizedRMSD>  (1) 
0.75611937

$$$$
