
     RDKit          3D

 23 24  0  0  0  0  0  0  0  0999 V2000
   45.6970   35.1860   43.3850 C   0  0  0  0  0  0  0  0  0  0  0  0
   46.4930   34.6180   42.3620 C   0  0  0  0  0  0  0  0  0  0  0  0
   47.2270   33.4590   42.6570 C   0  0  0  0  0  0  0  0  0  0  0  0
   47.1390   32.9390   43.8980 N   0  0  0  0  0  0  0  0  0  0  0  0
   46.3570   33.5180   44.8600 C   0  0  0  0  0  0  0  0  0  0  0  0
   45.6490   34.6280   44.5970 N   0  0  0  0  0  0  0  0  0  0  0  0
   46.2440   32.9900   46.1870 N   0  0  0  0  0  0  0  0  0  0  0  0
   47.1490   32.0670   46.5400 C   0  0  0  0  0  0  0  0  0  0  0  0
   47.1560   31.4780   47.7850 C   0  0  0  0  0  0  0  0  0  0  0  0
   46.2020   31.8420   48.7070 C   0  0  0  0  0  0  0  0  0  0  0  0
   46.1020   31.3770   49.8770 O   0  0  0  0  0  0  0  0  0  0  0  0
   45.2990   32.7780   48.3240 N   0  0  0  0  0  0  0  0  0  0  0  0
   45.3100   33.3430   47.1000 C   0  0  0  0  0  0  0  0  0  0  0  0
   44.4830   34.1970   46.7540 O   0  0  0  0  0  0  0  0  0  0  0  0
   44.8910   36.4140   43.1510 C   0  0  0  0  0  0  0  0  0  0  0  0
   43.9450   36.4630   44.1570 F   0  0  0  0  0  0  0  0  0  0  0  0
   44.2560   36.2520   41.9570 F   0  0  0  0  0  0  0  0  0  0  0  0
   45.6470   37.5490   43.1420 F   0  0  0  0  0  0  0  0  0  0  0  0
   46.5352   35.0733   41.3615 H   0  0  0  0  0  0  0  0  0  0  0  0
   47.8603   32.9850   41.8926 H   0  0  0  0  0  0  0  0  0  0  0  0
   47.9145   31.7687   45.8085 H   0  0  0  0  0  0  0  0  0  0  0  0
   47.9162   30.7247   48.0394 H   0  0  0  0  0  0  0  0  0  0  0  0
   44.5747   33.0694   48.9959 H   0  0  0  0  0  0  0  0  0  0  0  0
  1  6  2  0
  2  3  2  0
  2  1  1  0
  3  4  1  0
  4  5  2  0
  5  7  1  0
  6  5  1  0
  7  8  1  0
  7 13  1  0
  8  9  2  0
  9 10  1  0
 10 11  2  0
 12 10  1  0
 13 12  1  0
 14 13  2  0
 15  1  1  0
 15 16  1  0
 17 15  1  0
 18 15  1  0
  2 19  1  0
  3 20  1  0
  8 21  1  0
  9 22  1  0
 12 23  1  0
M  ISO  5  19  14  20  14  21  14  22  14  23   9
M  END
>  <minimizedAffinity>  (1) 
-5.10987711

>  <minimizedRMSD>  (1) 
1.4064492

$$$$
