
     RDKit          3D

 42 44  0  0  1  0  0  0  0  0999 V2000
   45.2740   34.0400   42.8660 C   0  0  0  0  0  0  0  0  0  0  0  0
   45.5640   35.3870   43.1870 C   0  0  0  0  0  0  0  0  0  0  0  0
   44.7800   36.3990   42.5830 C   0  0  0  0  0  0  0  0  0  0  0  0
   43.7900   36.0300   41.7290 N   0  0  0  0  0  0  0  0  0  0  0  0
   43.5530   34.7120   41.4560 C   0  0  0  0  0  0  0  0  0  0  0  0
   44.2830   33.7430   42.0150 N   0  0  0  0  0  0  0  0  0  0  0  0
   42.5220   34.2900   40.5640 N   0  0  0  0  0  0  0  0  0  0  0  0
   42.0250   35.2210   39.7270 C   0  0  0  0  0  0  0  0  0  0  0  0
   41.0200   34.9520   38.8070 C   0  0  0  0  0  0  0  0  0  0  0  0
   40.5050   33.6630   38.7530 C   0  0  0  0  0  0  0  0  0  0  0  0
   39.5950   33.2980   37.9640 O   0  0  0  0  0  0  0  0  0  0  0  0
   41.0270   32.7340   39.6150 N   0  0  0  0  0  0  0  0  0  0  0  0
   42.0040   33.0500   40.4890 C   0  0  0  0  0  0  0  0  0  0  0  0
   42.4690   32.2170   41.2620 O   0  0  0  0  0  0  0  0  0  0  0  0
   46.0730   33.0270   43.5280 C   0  0  2  0  0  0  0  0  0  0  0  0
   45.3750   31.6560   43.4880 C   0  0  0  0  0  0  0  0  0  0  0  0
   46.7020   33.2890   44.7860 C   0  0  0  0  0  0  0  0  0  0  0  0
   46.5810   32.8440   46.0730 N   0  0  0  0  0  0  0  0  0  0  0  0
   47.1290   31.9290   46.8700 C   0  0  0  0  0  0  0  0  0  0  0  0
   46.8420   31.5490   48.1220 C   0  0  0  0  0  0  0  0  0  0  0  0
   47.6650   30.4630   48.7660 C   0  0  0  0  0  0  0  0  0  0  0  0
   45.7920   32.2090   48.7110 C   0  0  0  0  0  0  0  0  0  0  0  0
   45.5020   31.8660   49.8970 O   0  0  0  0  0  0  0  0  0  0  0  0
   45.1470   33.1610   48.0060 N   0  0  0  0  0  0  0  0  0  0  0  0
   45.5350   33.4620   46.7280 C   0  0  0  0  0  0  0  0  0  0  0  0
   44.7480   34.3720   46.3550 O   0  0  0  0  0  0  0  0  0  0  0  0
   46.3750   35.6405   43.8855 H   0  0  0  0  0  0  0  0  0  0  0  0
   44.9682   37.4608   42.8003 H   0  0  0  0  0  0  0  0  0  0  0  0
   42.4339   36.2411   39.7743 H   0  0  0  0  0  0  0  0  0  0  0  0
   40.6416   35.7393   38.1384 H   0  0  0  0  0  0  0  0  0  0  0  0
   40.6639   31.7703   39.5947 H   0  0  0  0  0  0  0  0  0  0  0  0
   46.9731   33.0416   42.8958 H   0  0  0  0  0  0  0  0  0  0  0  0
   45.1965   31.3053   44.5152 H   0  0  0  0  0  0  0  0  0  0  0  0
   44.4144   31.7489   42.9601 H   0  0  0  0  0  0  0  0  0  0  0  0
   46.0152   30.9339   42.9601 H   0  0  0  0  0  0  0  0  0  0  0  0
   47.7598   33.0826   44.5658 H   0  0  0  0  0  0  0  0  0  0  0  0
   46.1287   34.2099   44.9686 H   0  0  0  0  0  0  0  0  0  0  0  0
   47.9716   31.3857   46.4175 H   0  0  0  0  0  0  0  0  0  0  0  0
   47.5976   30.5520   49.8603 H   0  0  0  0  0  0  0  0  0  0  0  0
   47.2832   29.4797   48.4539 H   0  0  0  0  0  0  0  0  0  0  0  0
   48.7149   30.5647   48.4539 H   0  0  0  0  0  0  0  0  0  0  0  0
   44.3566   33.6653   48.4323 H   0  0  0  0  0  0  0  0  0  0  0  0
  1  2  2  0
  1 15  1  0
  3  2  1  0
  4  3  2  0
  5  4  1  0
  5  6  2  0
  6  1  1  0
  7  5  1  0
  8  7  1  0
  9  8  2  0
 10  9  1  0
 10 12  1  0
 11 10  2  0
 12 13  1  0
 13  7  1  0
 13 14  2  0
 15 17  1  0
 16 15  1  0
 17 18  1  0
 18 25  1  0
 18 19  1  0
 19 20  2  0
 20 22  1  0
 20 21  1  0
 22 23  2  0
 24 22  1  0
 25 24  1  0
 26 25  2  0
  2 27  1  0
  3 28  1  0
  8 29  1  0
  9 30  1  0
 12 31  1  0
 15 32  1  6
 16 33  1  0
 16 34  1  0
 16 35  1  0
 17 36  1  0
 17 37  1  0
 19 38  1  0
 21 39  1  0
 21 40  1  0
 21 41  1  0
 24 42  1  0
M  ISO  8  27  14  28  14  29  14  30  14  31   9  32   8  33   8  34   8
M  ISO  8  35   8  36   8  37   8  38  14  39   8  40   8  41   8  42   9
M  END
>  <minimizedAffinity>  (1) 
-6.47503281

>  <minimizedRMSD>  (1) 
7.02889872

$$$$
