
     RDKit          3D

 36 38  0  0  1  0  0  0  0  0999 V2000
   47.1950   33.5560   42.9840 C   0  0  0  0  0  0  0  0  0  0  0  0
   47.9010   32.5390   42.3410 C   0  0  0  0  0  0  0  0  0  0  0  0
   48.1880   31.3630   43.0610 C   0  0  0  0  0  0  0  0  0  0  0  0
   47.7600   31.2770   44.3480 N   0  0  0  0  0  0  0  0  0  0  0  0
   47.0640   32.3070   44.9430 C   0  0  0  0  0  0  0  0  0  0  0  0
   46.7970   33.4160   44.2580 N   0  0  0  0  0  0  0  0  0  0  0  0
   46.6050   32.2070   46.2750 N   0  0  0  0  0  0  0  0  0  0  0  0
   47.0980   31.2500   47.0550 C   0  0  0  0  0  0  0  0  0  0  0  0
   46.7240   31.0450   48.3690 C   0  0  0  0  0  0  0  0  0  0  0  0
   45.7740   31.8940   48.9080 C   0  0  0  0  0  0  0  0  0  0  0  0
   45.3400   31.8240   50.0890 O   0  0  0  0  0  0  0  0  0  0  0  0
   45.2700   32.8780   48.1030 N   0  0  0  0  0  0  0  0  0  0  0  0
   45.6670   33.0330   46.8320 C   0  0  0  0  0  0  0  0  0  0  0  0
   45.2000   33.9300   46.1140 O   0  0  0  0  0  0  0  0  0  0  0  0
   46.9200   34.7270   42.1660 C   0  0  2  0  0  0  0  0  0  0  0  0
   48.2060   35.4900   41.8100 C   0  0  0  0  0  0  0  0  0  0  0  0
   45.8800   35.6670   42.6540 C   0  0  0  0  0  0  0  0  0  0  0  0
   44.5420   35.3540   42.1070 C   0  0  0  0  0  0  0  0  0  0  0  0
   44.2630   34.7300   40.9190 C   0  0  0  0  0  0  0  0  0  0  0  0
   42.9220   34.6100   40.7440 N   0  0  0  0  0  0  0  0  0  0  0  0
   42.3770   35.1590   41.8210 C   0  0  0  0  0  0  0  0  0  0  0  0
   43.3480   35.6170   42.6630 N   0  0  0  0  0  0  0  0  0  0  0  0
   48.2259   32.6529   41.2963 H   0  0  0  0  0  0  0  0  0  0  0  0
   48.7436   30.5364   42.5942 H   0  0  0  0  0  0  0  0  0  0  0  0
   47.8542   30.5764   46.6255 H   0  0  0  0  0  0  0  0  0  0  0  0
   47.1665   30.2343   48.9664 H   0  0  0  0  0  0  0  0  0  0  0  0
   44.5623   33.5210   48.4858 H   0  0  0  0  0  0  0  0  0  0  0  0
   46.4751   34.2827   41.2634 H   0  0  0  0  0  0  0  0  0  0  0  0
   48.7193   35.7946   42.7340 H   0  0  0  0  0  0  0  0  0  0  0  0
   48.8678   34.8383   41.2206 H   0  0  0  0  0  0  0  0  0  0  0  0
   47.9512   36.3832   41.2206 H   0  0  0  0  0  0  0  0  0  0  0  0
   45.8365   35.6082   43.7516 H   0  0  0  0  0  0  0  0  0  0  0  0
   46.1541   36.6777   42.3174 H   0  0  0  0  0  0  0  0  0  0  0  0
   45.0213   34.3752   40.2055 H   0  0  0  0  0  0  0  0  0  0  0  0
   41.2958   35.2344   42.0089 H   0  0  0  0  0  0  0  0  0  0  0  0
   43.1924   36.0835   43.5680 H   0  0  0  0  0  0  0  0  0  0  0  0
  1  6  1  0
  2  1  2  0
  2  3  1  0
  3  4  2  0
  4  5  1  0
  5  7  1  0
  6  5  2  0
  7 13  1  0
  7  8  1  0
  8  9  2  0
  9 10  1  0
 10 11  2  0
 12 10  1  0
 13 12  1  0
 14 13  2  0
 15 17  1  0
 15  1  1  0
 16 15  1  0
 18 17  1  0
 18 22  1  0
 19 18  2  0
 20 19  1  0
 20 21  2  0
 21 22  1  0
  2 23  1  0
  3 24  1  0
  8 25  1  0
  9 26  1  0
 12 27  1  0
 15 28  1  6
 16 29  1  0
 16 30  1  0
 16 31  1  0
 17 32  1  0
 17 33  1  0
 19 34  1  0
 21 35  1  0
 22 36  1  0
M  ISO  8  23  14  24  14  25  14  26  14  27   9  28   8  29   8  30   8
M  ISO  6  31   8  32   8  33   8  34  14  35  14  36   9
M  END
>  <minimizedAffinity>  (1) 
-6.22054529

>  <minimizedRMSD>  (1) 
0.753641307

$$$$
