
     RDKit          3D

 35 37  0  0  1  0  0  0  0  0999 V2000
   47.3890   33.5520   42.9560 C   0  0  0  0  0  0  0  0  0  0  0  0
   48.1270   32.5610   42.3240 C   0  0  0  0  0  0  0  0  0  0  0  0
   48.3830   31.3730   43.0470 C   0  0  0  0  0  0  0  0  0  0  0  0
   47.8990   31.2690   44.3070 N   0  0  0  0  0  0  0  0  0  0  0  0
   47.1700   32.2850   44.8870 C   0  0  0  0  0  0  0  0  0  0  0  0
   46.9310   33.3970   44.2110 N   0  0  0  0  0  0  0  0  0  0  0  0
   46.6500   32.1830   46.2010 N   0  0  0  0  0  0  0  0  0  0  0  0
   47.0870   31.1790   46.9620 C   0  0  0  0  0  0  0  0  0  0  0  0
   46.6550   30.9550   48.2550 C   0  0  0  0  0  0  0  0  0  0  0  0
   45.7160   31.8180   48.7950 C   0  0  0  0  0  0  0  0  0  0  0  0
   45.2360   31.7300   49.9580 O   0  0  0  0  0  0  0  0  0  0  0  0
   45.2760   32.8460   48.0040 N   0  0  0  0  0  0  0  0  0  0  0  0
   45.7290   33.0170   46.7590 C   0  0  0  0  0  0  0  0  0  0  0  0
   45.3280   33.9490   46.0500 O   0  0  0  0  0  0  0  0  0  0  0  0
   47.1730   34.7790   42.1740 C   0  0  2  0  0  0  0  0  0  0  0  0
   48.4280   35.4760   41.7590 C   0  0  0  0  0  0  0  0  0  0  0  0
   46.0660   35.6690   42.6170 C   0  0  0  0  0  0  0  0  0  0  0  0
   44.7870   35.2710   42.0650 N   0  0  0  0  0  0  0  0  0  0  0  0
   43.4670   35.2850   42.2140 C   0  0  0  0  0  0  0  0  0  0  0  0
   42.8050   34.6480   41.2420 N   0  0  0  0  0  0  0  0  0  0  0  0
   43.7680   34.2010   40.4230 C   0  0  0  0  0  0  0  0  0  0  0  0
   44.9470   34.5760   40.9190 N   0  0  0  0  0  0  0  0  0  0  0  0
   48.4994   32.6949   41.2976 H   0  0  0  0  0  0  0  0  0  0  0  0
   48.9615   30.5531   42.5964 H   0  0  0  0  0  0  0  0  0  0  0  0
   47.8327   30.4911   46.5368 H   0  0  0  0  0  0  0  0  0  0  0  0
   47.0475   30.1113   48.8416 H   0  0  0  0  0  0  0  0  0  0  0  0
   44.5779   33.5041   48.3788 H   0  0  0  0  0  0  0  0  0  0  0  0
   46.7593   34.3861   41.2335 H   0  0  0  0  0  0  0  0  0  0  0  0
   48.9877   35.7869   42.6535 H   0  0  0  0  0  0  0  0  0  0  0  0
   49.0461   34.7919   41.1590 H   0  0  0  0  0  0  0  0  0  0  0  0
   48.1740   36.3623   41.1590 H   0  0  0  0  0  0  0  0  0  0  0  0
   46.0033   35.6362   43.7147 H   0  0  0  0  0  0  0  0  0  0  0  0
   46.2864   36.6850   42.2577 H   0  0  0  0  0  0  0  0  0  0  0  0
   42.9640   35.7760   43.0601 H   0  0  0  0  0  0  0  0  0  0  0  0
   43.6118   33.6237   39.4998 H   0  0  0  0  0  0  0  0  0  0  0  0
  1  6  1  0
  2  1  2  0
  2  3  1  0
  3  4  2  0
  4  5  1  0
  5  7  1  0
  6  5  2  0
  7 13  1  0
  7  8  1  0
  8  9  2  0
  9 10  1  0
 10 11  2  0
 12 10  1  0
 13 12  1  0
 14 13  2  0
 15 17  1  0
 15  1  1  0
 16 15  1  0
 18 19  1  0
 18 17  1  0
 20 19  2  0
 21 22  2  0
 21 20  1  0
 22 18  1  0
  2 23  1  0
  3 24  1  0
  8 25  1  0
  9 26  1  0
 12 27  1  0
 15 28  1  6
 16 29  1  0
 16 30  1  0
 16 31  1  0
 17 32  1  0
 17 33  1  0
 19 34  1  0
 21 35  1  0
M  ISO  8  23  14  24  14  25  14  26  14  27   9  28   8  29   8  30   8
M  ISO  5  31   8  32   8  33   8  34  14  35  14
M  END
>  <minimizedAffinity>  (1) 
-5.89277649

>  <minimizedRMSD>  (1) 
0.404879749

$$$$
