
     RDKit          3D

 33 36  0  0  1  0  0  0  0  0999 V2000
   45.7500   34.1590   41.6170 N   0  0  0  0  0  0  0  0  0  0  0  0
   44.9650   33.8490   40.5550 C   0  0  0  0  0  0  0  0  0  0  0  0
   45.7380   33.6300   39.4850 N   0  0  0  0  0  0  0  0  0  0  0  0
   47.0070   33.8030   39.8670 C   0  0  0  0  0  0  0  0  0  0  0  0
   46.9810   34.1210   41.1630 N   0  0  0  0  0  0  0  0  0  0  0  0
   44.8220   35.7160   43.2060 C   0  0  0  0  0  0  0  0  0  0  0  0
   45.4230   34.4720   42.9630 C   0  0  0  0  0  0  0  0  0  0  0  0
   45.6590   33.6390   44.0470 C   0  0  0  0  0  0  0  0  0  0  0  0
   45.3040   34.0580   45.2790 N   0  0  0  0  0  0  0  0  0  0  0  0
   44.7260   35.2630   45.4740 C   0  0  0  0  0  0  0  0  0  0  0  0
   44.4950   36.0700   44.4450 N   0  0  0  0  0  0  0  0  0  0  0  0
   48.2450   33.6940   39.0730 C   0  0  2  0  0  0  0  0  0  0  0  0
   48.3240   34.5020   37.7600 C   0  0  0  0  0  0  0  0  0  0  0  0
   48.2710   32.9920   37.7440 C   0  0  2  0  0  0  0  0  0  0  0  0
   47.0420   32.3060   37.3390 C   0  0  0  0  0  0  0  0  0  0  0  0
   46.9890   30.9920   37.8200 C   0  0  0  0  0  0  0  0  0  0  0  0
   45.9140   30.1430   37.5360 C   0  0  0  0  0  0  0  0  0  0  0  0
   44.8610   30.5870   36.7630 C   0  0  0  0  0  0  0  0  0  0  0  0
   44.9210   31.8810   36.2950 C   0  0  0  0  0  0  0  0  0  0  0  0
   45.9770   32.7240   36.5690 C   0  0  0  0  0  0  0  0  0  0  0  0
   43.8668   33.7874   40.5709 H   0  0  0  0  0  0  0  0  0  0  0  0
   44.6207   36.4006   42.3689 H   0  0  0  0  0  0  0  0  0  0  0  0
   46.1274   32.6540   43.9043 H   0  0  0  0  0  0  0  0  0  0  0  0
   44.4453   35.5774   46.4900 H   0  0  0  0  0  0  0  0  0  0  0  0
   48.8384   33.5937   39.9938 H   0  0  0  0  0  0  0  0  0  0  0  0
   47.4585   35.0893   37.4193 H   0  0  0  0  0  0  0  0  0  0  0  0
   48.9995   35.2671   37.3498 H   0  0  0  0  0  0  0  0  0  0  0  0
   48.9016   32.2258   37.2694 H   0  0  0  0  0  0  0  0  0  0  0  0
   47.8169   30.6163   38.4393 H   0  0  0  0  0  0  0  0  0  0  0  0
   45.9083   29.1164   37.9309 H   0  0  0  0  0  0  0  0  0  0  0  0
   44.0074   29.9335   36.5297 H   0  0  0  0  0  0  0  0  0  0  0  0
   44.0923   32.2573   35.6772 H   0  0  0  0  0  0  0  0  0  0  0  0
   45.9699   33.7477   36.1665 H   0  0  0  0  0  0  0  0  0  0  0  0
  1  7  1  0
  2  1  1  0
  3  4  1  0
  3  2  2  0
  4  5  2  0
  5  1  1  0
  6 11  2  0
  7  6  1  0
  7  8  2  0
  8  9  1  0
  9 10  2  0
 11 10  1  0
 12  4  1  0
 13 12  1  0
 14 13  1  0
 14 12  1  0
 15 14  1  0
 15 16  2  0
 17 16  1  0
 18 17  2  0
 19 20  2  0
 19 18  1  0
 20 15  1  0
  2 21  1  0
  6 22  1  0
  8 23  1  0
 10 24  1  0
 12 25  1  1
 13 26  1  0
 13 27  1  0
 14 28  1  1
 16 29  1  0
 17 30  1  0
 18 31  1  0
 19 32  1  0
 20 33  1  0
M  ISO  8  21  14  22  14  23  14  24  14  25  13  26  13  27  13  28  13
M  ISO  5  29  14  30  14  31  14  32  14  33  14
M  END
>  <minimizedAffinity>  (1) 
-4.4522047

>  <minimizedRMSD>  (1) 
0.488179833

$$$$
