
     RDKit          3D

 31 32  0  0  1  0  0  0  0  0999 V2000
   47.3260   33.5950   42.9450 C   0  0  0  0  0  0  0  0  0  0  0  0
   48.0110   32.5810   42.2830 C   0  0  0  0  0  0  0  0  0  0  0  0
   48.2490   31.3780   42.9960 C   0  0  0  0  0  0  0  0  0  0  0  0
   47.7980   31.2830   44.2720 N   0  0  0  0  0  0  0  0  0  0  0  0
   47.1240   32.3220   44.8780 C   0  0  0  0  0  0  0  0  0  0  0  0
   46.9060   33.4380   44.2130 N   0  0  0  0  0  0  0  0  0  0  0  0
   46.6380   32.2070   46.2000 N   0  0  0  0  0  0  0  0  0  0  0  0
   47.0900   31.2160   46.9600 C   0  0  0  0  0  0  0  0  0  0  0  0
   46.6720   30.9980   48.2620 C   0  0  0  0  0  0  0  0  0  0  0  0
   45.7320   31.8570   48.8080 C   0  0  0  0  0  0  0  0  0  0  0  0
   45.2790   31.7570   49.9770 O   0  0  0  0  0  0  0  0  0  0  0  0
   45.2800   32.8650   48.0220 N   0  0  0  0  0  0  0  0  0  0  0  0
   45.7110   33.0440   46.7560 C   0  0  0  0  0  0  0  0  0  0  0  0
   45.2890   33.9760   46.0420 O   0  0  0  0  0  0  0  0  0  0  0  0
   47.0900   34.7970   42.1490 C   0  0  2  0  0  0  0  0  0  0  0  0
   48.3980   35.5140   41.7820 C   0  0  0  0  0  0  0  0  0  0  0  0
   46.0890   35.7690   42.6560 C   0  0  0  0  0  0  0  0  0  0  0  0
   44.7450   35.1830   42.6900 N   0  0  0  0  0  0  0  0  0  0  0  0
   48.3550   32.7074   41.2459 H   0  0  0  0  0  0  0  0  0  0  0  0
   48.7867   30.5417   42.5253 H   0  0  0  0  0  0  0  0  0  0  0  0
   47.8369   30.5313   46.5319 H   0  0  0  0  0  0  0  0  0  0  0  0
   47.0773   30.1613   48.8499 H   0  0  0  0  0  0  0  0  0  0  0  0
   44.5819   33.5182   48.4054 H   0  0  0  0  0  0  0  0  0  0  0  0
   46.6180   34.3808   41.2468 H   0  0  0  0  0  0  0  0  0  0  0  0
   48.9275   35.8042   42.7015 H   0  0  0  0  0  0  0  0  0  0  0  0
   49.0333   34.8380   41.1909 H   0  0  0  0  0  0  0  0  0  0  0  0
   48.1699   36.4132   41.1909 H   0  0  0  0  0  0  0  0  0  0  0  0
   46.3716   36.0760   43.6738 H   0  0  0  0  0  0  0  0  0  0  0  0
   46.0725   36.6350   41.9780 H   0  0  0  0  0  0  0  0  0  0  0  0
   44.4510   35.0548   43.6688 H   0  0  0  0  0  0  0  0  0  0  0  0
   44.0839   35.8122   42.2125 H   0  0  0  0  0  0  0  0  0  0  0  0
  1  6  2  0
  2  1  1  0
  2  3  2  0
  3  4  1  0
  4  5  2  0
  5  7  1  0
  6  5  1  0
  7 13  1  0
  7  8  1  0
  8  9  2  0
  9 10  1  0
 10 11  2  0
 12 10  1  0
 13 12  1  0
 14 13  2  0
 15 17  1  0
 15  1  1  0
 16 15  1  0
 17 18  1  0
  2 19  1  0
  3 20  1  0
  8 21  1  0
  9 22  1  0
 12 23  1  0
 15 24  1  6
 16 25  1  0
 16 26  1  0
 16 27  1  0
 17 28  1  0
 17 29  1  0
 18 30  1  0
 18 31  1  0
M  ISO  8  19  14  20  14  21  14  22  14  23   9  24   8  25   8  26   8
M  ISO  5  27   8  28   8  29   8  30   5  31   5
M  END
>  <minimizedAffinity>  (1) 
-5.19031143

>  <minimizedRMSD>  (1) 
0.541732848

$$$$
