
     RDKit          3D

 42 44  0  0  1  0  0  0  0  0999 V2000
   47.3910   33.2630   42.8290 C   0  0  0  0  0  0  0  0  0  0  0  0
   48.1410   32.2350   42.2690 C   0  0  0  0  0  0  0  0  0  0  0  0
   48.4360   31.1120   43.0850 C   0  0  0  0  0  0  0  0  0  0  0  0
   47.9730   31.0930   44.3660 N   0  0  0  0  0  0  0  0  0  0  0  0
   47.2310   32.1420   44.8720 C   0  0  0  0  0  0  0  0  0  0  0  0
   46.9580   33.1980   44.0970 N   0  0  0  0  0  0  0  0  0  0  0  0
   46.7310   32.1320   46.2000 N   0  0  0  0  0  0  0  0  0  0  0  0
   47.2230   31.2120   47.0340 C   0  0  0  0  0  0  0  0  0  0  0  0
   46.8200   31.0910   48.3510 C   0  0  0  0  0  0  0  0  0  0  0  0
   45.8560   31.9690   48.8240 C   0  0  0  0  0  0  0  0  0  0  0  0
   45.3920   31.9790   49.9950 O   0  0  0  0  0  0  0  0  0  0  0  0
   45.3710   32.8990   47.9530 N   0  0  0  0  0  0  0  0  0  0  0  0
   45.7900   32.9840   46.6770 C   0  0  0  0  0  0  0  0  0  0  0  0
   45.3400   33.8360   45.8910 O   0  0  0  0  0  0  0  0  0  0  0  0
   47.1040   34.3730   41.9270 C   0  0  2  0  0  0  0  0  0  0  0  0
   48.2520   35.3940   41.8980 C   0  0  0  0  0  0  0  0  0  0  0  0
   45.8060   35.0740   42.0980 C   0  0  0  0  0  0  0  0  0  0  0  0
   44.6670   34.2380   42.2710 N   0  0  0  0  0  0  0  0  0  0  0  0
   44.4020   33.3220   41.1940 C   0  0  0  0  0  0  0  0  0  0  0  0
   43.9310   33.9860   39.9240 C   0  0  0  0  0  0  0  0  0  0  0  0
   42.8410   34.7910   40.1480 O   0  0  0  0  0  0  0  0  0  0  0  0
   43.0640   35.7410   41.1450 C   0  0  0  0  0  0  0  0  0  0  0  0
   43.4900   35.0690   42.4400 C   0  0  0  0  0  0  0  0  0  0  0  0
   48.4938   32.2902   41.2286 H   0  0  0  0  0  0  0  0  0  0  0  0
   49.0274   30.2726   42.6905 H   0  0  0  0  0  0  0  0  0  0  0  0
   47.9861   30.5166   46.6545 H   0  0  0  0  0  0  0  0  0  0  0  0
   47.2519   30.3197   49.0056 H   0  0  0  0  0  0  0  0  0  0  0  0
   44.6561   33.5623   48.2845 H   0  0  0  0  0  0  0  0  0  0  0  0
   47.0092   33.8631   40.9569 H   0  0  0  0  0  0  0  0  0  0  0  0
   48.5406   35.6506   42.9280 H   0  0  0  0  0  0  0  0  0  0  0  0
   49.1155   34.9600   41.3726 H   0  0  0  0  0  0  0  0  0  0  0  0
   47.9217   36.3022   41.3726 H   0  0  0  0  0  0  0  0  0  0  0  0
   45.8866   35.7216   42.9835 H   0  0  0  0  0  0  0  0  0  0  0  0
   45.6356   35.6192   41.1580 H   0  0  0  0  0  0  0  0  0  0  0  0
   45.3281   32.7710   40.9731 H   0  0  0  0  0  0  0  0  0  0  0  0
   43.5868   32.6642   41.5298 H   0  0  0  0  0  0  0  0  0  0  0  0
   43.6570   33.2088   39.1954 H   0  0  0  0  0  0  0  0  0  0  0  0
   44.7489   34.6136   39.5404 H   0  0  0  0  0  0  0  0  0  0  0  0
   43.8569   36.4294   40.8173 H   0  0  0  0  0  0  0  0  0  0  0  0
   42.1296   36.2933   41.3233 H   0  0  0  0  0  0  0  0  0  0  0  0
   42.6625   34.4402   42.8005 H   0  0  0  0  0  0  0  0  0  0  0  0
   43.7393   35.8604   43.1622 H   0  0  0  0  0  0  0  0  0  0  0  0
  1  6  1  0
  2  1  2  0
  2  3  1  0
  3  4  2  0
  4  5  1  0
  5  7  1  0
  6  5  2  0
  7 13  1  0
  7  8  1  0
  8  9  2  0
  9 10  1  0
 10 11  2  0
 12 10  1  0
 13 12  1  0
 14 13  2  0
 15 17  1  0
 15  1  1  0
 16 15  1  0
 17 18  1  0
 18 23  1  0
 19 18  1  0
 20 21  1  0
 20 19  1  0
 21 22  1  0
 22 23  1  0
  2 24  1  0
  3 25  1  0
  8 26  1  0
  9 27  1  0
 12 28  1  0
 15 29  1  6
 16 30  1  0
 16 31  1  0
 16 32  1  0
 17 33  1  0
 17 34  1  0
 19 35  1  0
 19 36  1  0
 20 37  1  0
 20 38  1  0
 22 39  1  0
 22 40  1  0
 23 41  1  0
 23 42  1  0
M  ISO  8  24  14  25  14  26  14  27  14  28   9  29   8  30   8  31   8
M  ISO  8  32   8  33   8  34   8  35  13  36  13  37  13  38  13  39  13
M  ISO  3  40  13  41  13  42  13
M  END
>  <minimizedAffinity>  (1) 
-5.47492313

>  <minimizedRMSD>  (1) 
0.618238509

$$$$
