
     RDKit          3D

 36 38  0  0  1  0  0  0  0  0999 V2000
   47.3720   33.5290   42.9430 C   0  0  0  0  0  0  0  0  0  0  0  0
   48.1030   32.5260   42.3130 C   0  0  0  0  0  0  0  0  0  0  0  0
   48.3700   31.3390   43.0590 C   0  0  0  0  0  0  0  0  0  0  0  0
   47.9020   31.2470   44.3320 N   0  0  0  0  0  0  0  0  0  0  0  0
   47.1800   32.2760   44.9040 C   0  0  0  0  0  0  0  0  0  0  0  0
   46.9360   33.3800   44.2050 N   0  0  0  0  0  0  0  0  0  0  0  0
   46.6790   32.1810   46.2230 N   0  0  0  0  0  0  0  0  0  0  0  0
   47.1440   31.2100   47.0010 C   0  0  0  0  0  0  0  0  0  0  0  0
   46.7320   31.0060   48.3060 C   0  0  0  0  0  0  0  0  0  0  0  0
   45.7780   31.8660   48.8280 C   0  0  0  0  0  0  0  0  0  0  0  0
   45.3160   31.7970   49.9940 O   0  0  0  0  0  0  0  0  0  0  0  0
   45.3100   32.8570   48.0210 N   0  0  0  0  0  0  0  0  0  0  0  0
   45.7400   33.0150   46.7650 C   0  0  0  0  0  0  0  0  0  0  0  0
   45.3110   33.9240   46.0210 O   0  0  0  0  0  0  0  0  0  0  0  0
   47.1070   34.7000   42.1210 C   0  0  2  0  0  0  0  0  0  0  0  0
   48.3770   35.5180   41.8540 C   0  0  0  0  0  0  0  0  0  0  0  0
   45.9900   35.5870   42.5340 C   0  0  0  0  0  0  0  0  0  0  0  0
   44.6530   34.9370   42.3140 C   0  0  0  0  0  0  0  0  0  0  0  0
   43.6440   35.7440   41.4880 C   0  0  0  0  0  0  0  0  0  0  0  0
   44.3290   34.4990   40.9340 C   0  0  0  0  0  0  0  0  0  0  0  0
   48.4612   32.6437   41.2796 H   0  0  0  0  0  0  0  0  0  0  0  0
   48.9439   30.5138   42.6122 H   0  0  0  0  0  0  0  0  0  0  0  0
   47.9002   30.5288   46.5837 H   0  0  0  0  0  0  0  0  0  0  0  0
   47.1485   30.1869   48.9106 H   0  0  0  0  0  0  0  0  0  0  0  0
   44.6011   33.5067   48.3901 H   0  0  0  0  0  0  0  0  0  0  0  0
   46.7469   34.2449   41.1865 H   0  0  0  0  0  0  0  0  0  0  0  0
   48.8323   35.8113   42.8114 H   0  0  0  0  0  0  0  0  0  0  0  0
   49.0910   34.9096   41.2796 H   0  0  0  0  0  0  0  0  0  0  0  0
   48.1183   36.4197   41.2796 H   0  0  0  0  0  0  0  0  0  0  0  0
   46.0995   35.8240   43.6026 H   0  0  0  0  0  0  0  0  0  0  0  0
   46.0324   36.4995   41.9212 H   0  0  0  0  0  0  0  0  0  0  0  0
   44.6431   34.4437   43.2971 H   0  0  0  0  0  0  0  0  0  0  0  0
   42.5741   35.7224   41.7427 H   0  0  0  0  0  0  0  0  0  0  0  0
   43.5404   36.7933   41.1745 H   0  0  0  0  0  0  0  0  0  0  0  0
   43.7463   33.5797   40.7751 H   0  0  0  0  0  0  0  0  0  0  0  0
   44.9243   34.2831   40.0346 H   0  0  0  0  0  0  0  0  0  0  0  0
  1  6  1  0
  2  1  2  0
  2  3  1  0
  3  4  2  0
  4  5  1  0
  5  7  1  0
  6  5  2  0
  7 13  1  0
  7  8  1  0
  8  9  2  0
  9 10  1  0
 10 11  2  0
 12 10  1  0
 13 12  1  0
 14 13  2  0
 15 17  1  0
 15  1  1  0
 16 15  1  0
 18 17  1  0
 19 18  1  0
 20 19  1  0
 20 18  1  0
  2 21  1  0
  3 22  1  0
  8 23  1  0
  9 24  1  0
 12 25  1  0
 15 26  1  6
 16 27  1  0
 16 28  1  0
 16 29  1  0
 17 30  1  0
 17 31  1  0
 18 32  1  0
 19 33  1  0
 19 34  1  0
 20 35  1  0
 20 36  1  0
M  ISO  8  21  14  22  14  23  14  24  14  25   9  26   8  27   8  28   8
M  ISO  8  29   8  30   8  31   8  32  13  33  13  34  13  35  13  36  13
M  END
>  <minimizedAffinity>  (1) 
-5.69676208

>  <minimizedRMSD>  (1) 
0.238698021

$$$$
