
     RDKit          3D

 28 31  0  0  1  0  0  0  0  0999 V2000
   45.8100   34.1760   41.6840 N   0  0  0  0  0  0  0  0  0  0  0  0
   45.0530   33.7950   40.6200 C   0  0  0  0  0  0  0  0  0  0  0  0
   45.8530   33.6300   39.5600 N   0  0  0  0  0  0  0  0  0  0  0  0
   47.1020   33.9030   39.9430 C   0  0  0  0  0  0  0  0  0  0  0  0
   47.0560   34.2310   41.2330 N   0  0  0  0  0  0  0  0  0  0  0  0
   44.8410   35.7380   43.2520 C   0  0  0  0  0  0  0  0  0  0  0  0
   45.4630   34.4810   43.0260 C   0  0  0  0  0  0  0  0  0  0  0  0
   45.6790   33.6620   44.1090 C   0  0  0  0  0  0  0  0  0  0  0  0
   45.2880   34.0980   45.3320 N   0  0  0  0  0  0  0  0  0  0  0  0
   44.7070   35.2820   45.5170 C   0  0  0  0  0  0  0  0  0  0  0  0
   44.4840   36.1020   44.4720 N   0  0  0  0  0  0  0  0  0  0  0  0
   48.3390   33.8740   39.1450 C   0  0  2  0  0  0  0  0  0  0  0  0
   48.3020   34.5110   37.7360 C   0  0  0  0  0  0  0  0  0  0  0  0
   48.4800   32.9960   37.9400 C   0  0  2  0  0  0  0  0  0  0  0  0
   47.3490   32.2290   37.3700 C   0  0  0  0  0  0  0  0  0  0  0  0
   46.7590   31.0210   37.5530 N   0  0  0  0  0  0  0  0  0  0  0  0
   45.7730   30.8300   36.7660 O   0  0  0  0  0  0  0  0  0  0  0  0
   45.6580   31.9000   36.0170 C   0  0  0  0  0  0  0  0  0  0  0  0
   46.6100   32.7700   36.3670 N   0  0  0  0  0  0  0  0  0  0  0  0
   43.9630   33.6469   40.6293 H   0  0  0  0  0  0  0  0  0  0  0  0
   44.6547   36.4144   42.4047 H   0  0  0  0  0  0  0  0  0  0  0  0
   46.1566   32.6787   43.9865 H   0  0  0  0  0  0  0  0  0  0  0  0
   44.4075   35.5920   46.5290 H   0  0  0  0  0  0  0  0  0  0  0  0
   48.9388   33.9945   40.0592 H   0  0  0  0  0  0  0  0  0  0  0  0
   49.1426   35.1262   37.3825 H   0  0  0  0  0  0  0  0  0  0  0  0
   47.6058   35.1558   37.1797 H   0  0  0  0  0  0  0  0  0  0  0  0
   49.2124   32.2042   37.7240 H   0  0  0  0  0  0  0  0  0  0  0  0
   44.9037   32.0556   35.2316 H   0  0  0  0  0  0  0  0  0  0  0  0
  1  7  1  0
  2  1  1  0
  3  4  1  0
  3  2  2  0
  4  5  2  0
  5  1  1  0
  6 11  2  0
  7  6  1  0
  7  8  2  0
  8  9  1  0
  9 10  2  0
 11 10  1  0
 12  4  1  0
 13 14  1  0
 13 12  1  0
 14 12  1  0
 15 16  2  0
 15 14  1  0
 17 16  1  0
 18 19  2  0
 18 17  1  0
 19 15  1  0
  2 20  1  0
  6 21  1  0
  8 22  1  0
 10 23  1  0
 12 24  1  1
 13 25  1  0
 13 26  1  0
 14 27  1  1
 18 28  1  0
M  ISO  8  20  14  21  14  22  14  23  14  24  13  25  13  26  13  27  13
M  ISO  1  28  14
M  END
>  <minimizedAffinity>  (1) 
-4.42540359

>  <minimizedRMSD>  (1) 
0.714767814

$$$$
