
     RDKit          3D

 23 24  0  0  0  0  0  0  0  0999 V2000
   44.4220   36.1690   44.6770 C   0  0  0  0  0  0  0  0  0  0  0  0
   45.1640   36.0760   43.4850 C   0  0  0  0  0  0  0  0  0  0  0  0
   46.0560   34.9930   43.3300 C   0  0  0  0  0  0  0  0  0  0  0  0
   46.1460   34.1030   44.3430 N   0  0  0  0  0  0  0  0  0  0  0  0
   45.4200   34.2270   45.4660 C   0  0  0  0  0  0  0  0  0  0  0  0
   44.5600   35.2400   45.6580 N   0  0  0  0  0  0  0  0  0  0  0  0
   45.5620   33.2730   46.4710 N   0  0  0  0  0  0  0  0  0  0  0  0
   46.8250   34.8580   42.1430 N   0  0  0  0  0  0  0  0  0  0  0  0
   48.0580   35.3580   41.9470 C   0  0  0  0  0  0  0  0  0  0  0  0
   48.6580   35.1280   40.7210 C   0  0  0  0  0  0  0  0  0  0  0  0
   47.9820   34.3990   39.7450 C   0  0  0  0  0  0  0  0  0  0  0  0
   48.5740   34.1420   38.4660 N   0  0  0  0  0  0  0  0  0  0  0  0
   46.7360   33.8940   39.9460 N   0  0  0  0  0  0  0  0  0  0  0  0
   46.1930   34.1510   41.1690 C   0  0  0  0  0  0  0  0  0  0  0  0
   45.0250   33.6590   41.3100 O   0  0  0  0  0  0  0  0  0  0  0  0
   43.7209   37.0052   44.8161 H   0  0  0  0  0  0  0  0  0  0  0  0
   45.0515   36.8300   42.6921 H   0  0  0  0  0  0  0  0  0  0  0  0
   45.0127   33.3532   47.3386 H   0  0  0  0  0  0  0  0  0  0  0  0
   46.2163   32.4873   46.3465 H   0  0  0  0  0  0  0  0  0  0  0  0
   48.5719   35.9299   42.7337 H   0  0  0  0  0  0  0  0  0  0  0  0
   49.6656   35.5197   40.5179 H   0  0  0  0  0  0  0  0  0  0  0  0
   49.5166   34.4988   38.2538 H   0  0  0  0  0  0  0  0  0  0  0  0
   48.0570   33.6004   37.7587 H   0  0  0  0  0  0  0  0  0  0  0  0
  1  6  2  0
  2  1  1  0
  3  2  2  0
  3  4  1  0
  4  5  2  0
  5  6  1  0
  5  7  1  0
  8  3  1  0
  9  8  1  0
 10  9  2  0
 11 13  2  0
 11 10  1  0
 12 11  1  0
 13 14  1  0
 14 15  2  0
 14  8  1  0
  1 16  1  0
  2 17  1  0
  7 18  1  0
  7 19  1  0
  9 20  1  0
 10 21  1  0
 12 22  1  0
 12 23  1  0
M  ISO  4  16  14  17  14  20  14  21  14
M  END
>  <minimizedAffinity>  (1) 
-5.50496864

>  <minimizedRMSD>  (1) 
1.47222114

$$$$
