
     RDKit          3D

 26 28  0  0  0  0  0  0  0  0999 V2000
   47.1950   33.3320   43.1850 N   0  0  0  0  0  0  0  0  0  0  0  0
   47.6250   32.2860   43.8870 C   0  0  0  0  0  0  0  0  0  0  0  0
   48.4950   31.5780   43.1400 N   0  0  0  0  0  0  0  0  0  0  0  0
   48.6030   32.1940   41.9620 C   0  0  0  0  0  0  0  0  0  0  0  0
   49.3160   31.9590   40.8150 C   0  0  0  0  0  0  0  0  0  0  0  0
   50.0610   30.9620   40.7790 O   0  0  0  0  0  0  0  0  0  0  0  0
   49.2440   32.7630   39.7300 N   0  0  0  0  0  0  0  0  0  0  0  0
   48.4280   33.8510   39.7790 C   0  0  0  0  0  0  0  0  0  0  0  0
   48.3390   34.7020   38.6550 N   0  0  0  0  0  0  0  0  0  0  0  0
   47.7140   34.1070   40.8930 N   0  0  0  0  0  0  0  0  0  0  0  0
   47.7860   33.3060   41.9780 C   0  0  0  0  0  0  0  0  0  0  0  0
   45.0020   36.3150   43.3530 C   0  0  0  0  0  0  0  0  0  0  0  0
   45.9190   35.3710   42.8670 C   0  0  0  0  0  0  0  0  0  0  0  0
   46.2640   34.2900   43.6770 C   0  0  0  0  0  0  0  0  0  0  0  0
   45.6860   34.2060   44.9050 N   0  0  0  0  0  0  0  0  0  0  0  0
   44.8070   35.1340   45.3380 C   0  0  0  0  0  0  0  0  0  0  0  0
   44.4500   36.1890   44.5890 N   0  0  0  0  0  0  0  0  0  0  0  0
   44.2640   34.9700   46.6070 N   0  0  0  0  0  0  0  0  0  0  0  0
   47.3187   32.0387   44.9141 H   0  0  0  0  0  0  0  0  0  0  0  0
   49.7950   32.5563   38.8846 H   0  0  0  0  0  0  0  0  0  0  0  0
   47.7243   35.5281   38.6819 H   0  0  0  0  0  0  0  0  0  0  0  0
   48.8888   34.4964   37.8086 H   0  0  0  0  0  0  0  0  0  0  0  0
   44.7246   37.1727   42.7226 H   0  0  0  0  0  0  0  0  0  0  0  0
   46.3580   35.4818   41.8645 H   0  0  0  0  0  0  0  0  0  0  0  0
   43.5897   35.6580   46.9715 H   0  0  0  0  0  0  0  0  0  0  0  0
   44.5359   34.1604   47.1828 H   0  0  0  0  0  0  0  0  0  0  0  0
  1 14  1  0
  1  2  1  0
  3  2  2  0
  4 11  2  0
  4  3  1  0
  5  4  1  0
  6  5  2  0
  7  8  1  0
  7  5  1  0
  8 10  2  0
  9  8  1  0
 10 11  1  0
 11  1  1  0
 12 17  2  0
 13 12  1  0
 13 14  2  0
 14 15  1  0
 15 16  2  0
 16 18  1  0
 17 16  1  0
  2 19  1  0
  7 20  1  0
  9 21  1  0
  9 22  1  0
 12 23  1  0
 13 24  1  0
 18 25  1  0
 18 26  1  0
M  ISO  4  19  14  20   9  23  14  24  14
M  END
>  <minimizedAffinity>  (1) 
-5.88989067

>  <minimizedRMSD>  (1) 
1.83456898

$$$$
