
     RDKit          3D

 28 30  0  0  0  0  0  0  0  0999 V2000
   44.9710   36.2930   43.4130 C   0  0  0  0  0  0  0  0  0  0  0  0
   45.7880   35.2750   42.9190 C   0  0  0  0  0  0  0  0  0  0  0  0
   46.1070   34.1700   43.6870 C   0  0  0  0  0  0  0  0  0  0  0  0
   45.5640   34.1860   44.9170 N   0  0  0  0  0  0  0  0  0  0  0  0
   44.7850   35.1420   45.4100 C   0  0  0  0  0  0  0  0  0  0  0  0
   44.4870   36.1970   44.6600 N   0  0  0  0  0  0  0  0  0  0  0  0
   44.2890   35.0240   46.7160 N   0  0  0  0  0  0  0  0  0  0  0  0
   46.9830   33.0700   43.3790 C   0  0  0  0  0  0  0  0  0  0  0  0
   46.4060   31.7890   43.4480 C   0  0  0  0  0  0  0  0  0  0  0  0
   47.0660   30.6200   43.1830 C   0  0  0  0  0  0  0  0  0  0  0  0
   48.3820   30.6550   42.8200 C   0  0  0  0  0  0  0  0  0  0  0  0
   49.0040   31.8590   42.7300 C   0  0  0  0  0  0  0  0  0  0  0  0
   50.3200   31.9500   42.3360 C   0  0  0  0  0  0  0  0  0  0  0  0
   50.9990   33.1670   42.1910 C   0  0  0  0  0  0  0  0  0  0  0  0
   50.2500   34.3060   42.4730 C   0  0  0  0  0  0  0  0  0  0  0  0
   48.9400   34.1950   42.8670 C   0  0  0  0  0  0  0  0  0  0  0  0
   48.2940   32.9970   43.0070 C   0  0  0  0  0  0  0  0  0  0  0  0
   44.7269   37.1639   42.7869 H   0  0  0  0  0  0  0  0  0  0  0  0
   46.1868   35.3532   41.8968 H   0  0  0  0  0  0  0  0  0  0  0  0
   43.6842   35.7610   47.1058 H   0  0  0  0  0  0  0  0  0  0  0  0
   44.5294   34.2003   47.2857 H   0  0  0  0  0  0  0  0  0  0  0  0
   45.3465   31.7221   43.7361 H   0  0  0  0  0  0  0  0  0  0  0  0
   46.5395   29.6574   43.2619 H   0  0  0  0  0  0  0  0  0  0  0  0
   48.9284   29.7249   42.6044 H   0  0  0  0  0  0  0  0  0  0  0  0
   50.8666   31.0192   42.1241 H   0  0  0  0  0  0  0  0  0  0  0  0
   52.0516   33.2189   41.8760 H   0  0  0  0  0  0  0  0  0  0  0  0
   50.7106   35.3005   42.3795 H   0  0  0  0  0  0  0  0  0  0  0  0
   48.3802   35.1173   43.0814 H   0  0  0  0  0  0  0  0  0  0  0  0
  1  6  2  0
  2  1  1  0
  2  3  2  0
  3  4  1  0
  4  5  2  0
  5  7  1  0
  6  5  1  0
  8  9  2  0
  8  3  1  0
 10  9  1  0
 11 10  2  0
 12 11  1  0
 12 17  2  0
 13 12  1  0
 14 13  2  0
 14 15  1  0
 15 16  2  0
 16 17  1  0
 17  8  1  0
  1 18  1  0
  2 19  1  0
  7 20  1  0
  7 21  1  0
  9 22  1  0
 10 23  1  0
 11 24  1  0
 13 25  1  0
 14 26  1  0
 15 27  1  0
 16 28  1  0
M  ISO  8  18  14  19  14  22  14  23  14  24  14  25  14  26  14  27  14
M  ISO  1  28  14
M  END
>  <minimizedAffinity>  (1) 
-5.98756218

>  <minimizedRMSD>  (1) 
2.19885254

$$$$
