
     RDKit          3D

 25 27  0  0  0  0  0  0  0  0999 V2000
   46.9070   34.8650   41.9610 N   0  0  0  0  0  0  0  0  0  0  0  0
   48.1560   35.4000   41.9370 C   0  0  0  0  0  0  0  0  0  0  0  0
   48.6940   35.1100   40.7260 N   0  0  0  0  0  0  0  0  0  0  0  0
   47.7940   34.4070   40.0100 C   0  0  0  0  0  0  0  0  0  0  0  0
   47.7750   33.8420   38.7290 C   0  0  0  0  0  0  0  0  0  0  0  0
   46.6670   33.1950   38.3520 N   0  0  0  0  0  0  0  0  0  0  0  0
   45.5750   33.0550   39.1250 C   0  0  0  0  0  0  0  0  0  0  0  0
   45.5610   33.5890   40.3720 N   0  0  0  0  0  0  0  0  0  0  0  0
   46.6530   34.2480   40.7930 C   0  0  0  0  0  0  0  0  0  0  0  0
   44.5120   36.0960   44.5690 C   0  0  0  0  0  0  0  0  0  0  0  0
   45.2410   36.0890   43.3720 C   0  0  0  0  0  0  0  0  0  0  0  0
   46.1040   35.0180   43.1200 C   0  0  0  0  0  0  0  0  0  0  0  0
   46.1920   34.0270   44.0570 N   0  0  0  0  0  0  0  0  0  0  0  0
   45.4810   34.0680   45.1880 C   0  0  0  0  0  0  0  0  0  0  0  0
   44.6420   35.0810   45.4660 N   0  0  0  0  0  0  0  0  0  0  0  0
   45.6170   33.0260   46.1050 N   0  0  0  0  0  0  0  0  0  0  0  0
   48.9240   34.0000   37.9340 N   0  0  0  0  0  0  0  0  0  0  0  0
   48.6404   35.9632   42.7483 H   0  0  0  0  0  0  0  0  0  0  0  0
   44.6972   32.5099   38.7476 H   0  0  0  0  0  0  0  0  0  0  0  0
   43.8282   36.9300   44.7855 H   0  0  0  0  0  0  0  0  0  0  0  0
   45.1365   36.9088   42.6460 H   0  0  0  0  0  0  0  0  0  0  0  0
   45.0780   33.0387   46.9826 H   0  0  0  0  0  0  0  0  0  0  0  0
   46.2565   32.2438   45.9046 H   0  0  0  0  0  0  0  0  0  0  0  0
   48.9527   33.6003   36.9852 H   0  0  0  0  0  0  0  0  0  0  0  0
   49.7369   34.5155   38.3005 H   0  0  0  0  0  0  0  0  0  0  0  0
  1 12  1  0
  2  1  1  0
  3  2  2  0
  4  3  1  0
  4  9  2  0
  5  4  1  0
  6  5  2  0
  6  7  1  0
  7  8  2  0
  8  9  1  0
  9  1  1  0
 10 15  2  0
 11 10  1  0
 12 11  2  0
 12 13  1  0
 13 14  2  0
 14 15  1  0
 14 16  1  0
 17  5  1  0
  2 18  1  0
  7 19  1  0
 10 20  1  0
 11 21  1  0
 16 22  1  0
 16 23  1  0
 17 24  1  0
 17 25  1  0
M  ISO  4  18  14  19  14  20  14  21  14
M  END
>  <minimizedAffinity>  (1) 
-5.68390989

>  <minimizedRMSD>  (1) 
1.69113922

$$$$
