
     RDKit          3D

 26 28  0  0  0  0  0  0  0  0999 V2000
   44.5950   36.1110   44.3290 C   0  0  0  0  0  0  0  0  0  0  0  0
   45.4520   36.0780   43.1980 C   0  0  0  0  0  0  0  0  0  0  0  0
   46.3370   35.0120   43.0560 C   0  0  0  0  0  0  0  0  0  0  0  0
   46.3340   34.0560   44.0070 N   0  0  0  0  0  0  0  0  0  0  0  0
   45.5150   34.1080   45.0690 C   0  0  0  0  0  0  0  0  0  0  0  0
   44.6490   35.1080   45.2520 N   0  0  0  0  0  0  0  0  0  0  0  0
   45.5930   33.0690   45.9930 N   0  0  0  0  0  0  0  0  0  0  0  0
   47.2190   34.9550   41.9140 C   0  0  0  0  0  0  0  0  0  0  0  0
   48.4770   35.5030   41.7820 C   0  0  0  0  0  0  0  0  0  0  0  0
   48.9880   35.2360   40.5610 N   0  0  0  0  0  0  0  0  0  0  0  0
   48.0670   34.5160   39.9020 C   0  0  0  0  0  0  0  0  0  0  0  0
   47.9850   33.9500   38.6490 C   0  0  0  0  0  0  0  0  0  0  0  0
   46.9120   33.2310   38.1640 C   0  0  0  0  0  0  0  0  0  0  0  0
   45.8170   33.0570   39.0020 C   0  0  0  0  0  0  0  0  0  0  0  0
   45.8600   33.6160   40.2790 C   0  0  0  0  0  0  0  0  0  0  0  0
   46.9610   34.3280   40.7160 C   0  0  0  0  0  0  0  0  0  0  0  0
   43.8886   36.9438   44.4610 H   0  0  0  0  0  0  0  0  0  0  0  0
   45.4178   36.8806   42.4465 H   0  0  0  0  0  0  0  0  0  0  0  0
   44.9821   33.0703   46.8223 H   0  0  0  0  0  0  0  0  0  0  0  0
   46.2616   32.2992   45.8471 H   0  0  0  0  0  0  0  0  0  0  0  0
   48.9936   36.0788   42.5640 H   0  0  0  0  0  0  0  0  0  0  0  0
   49.9086   35.5289   40.2037 H   0  0  0  0  0  0  0  0  0  0  0  0
   48.8472   34.0823   37.9789 H   0  0  0  0  0  0  0  0  0  0  0  0
   46.9228   32.8095   37.1480 H   0  0  0  0  0  0  0  0  0  0  0  0
   44.9359   32.4909   38.6655 H   0  0  0  0  0  0  0  0  0  0  0  0
   44.9997   33.4875   40.9524 H   0  0  0  0  0  0  0  0  0  0  0  0
  1  6  2  0
  2  1  1  0
  3  2  2  0
  3  4  1  0
  4  5  2  0
  5  6  1  0
  5  7  1  0
  8  3  1  0
  9  8  2  0
 10  9  1  0
 11 10  1  0
 11 16  2  0
 12 11  1  0
 13 12  2  0
 13 14  1  0
 14 15  2  0
 15 16  1  0
 16  8  1  0
  1 17  1  0
  2 18  1  0
  7 19  1  0
  7 20  1  0
  9 21  1  0
 10 22  1  0
 12 23  1  0
 13 24  1  0
 14 25  1  0
 15 26  1  0
M  ISO  8  17  14  18  14  21  14  22   9  23  14  24  14  25  14  26  14
M  END
>  <minimizedAffinity>  (1) 
-5.96630526

>  <minimizedRMSD>  (1) 
2.49438977

$$$$
