
     RDKit          3D

 35 37  0  0  1  0  0  0  0  0999 V2000
   45.4540   34.0210   41.5860 N   0  0  0  0  0  0  0  0  0  0  0  0
   44.5700   33.8270   40.5570 C   0  0  0  0  0  0  0  0  0  0  0  0
   45.2420   33.5150   39.4410 N   0  0  0  0  0  0  0  0  0  0  0  0
   46.5620   33.5110   39.7650 C   0  0  0  0  0  0  0  0  0  0  0  0
   46.6470   33.8210   41.0610 N   0  0  0  0  0  0  0  0  0  0  0  0
   44.6820   35.6410   43.1910 C   0  0  0  0  0  0  0  0  0  0  0  0
   45.2480   34.3630   42.9400 C   0  0  0  0  0  0  0  0  0  0  0  0
   45.5470   33.5660   44.0210 C   0  0  0  0  0  0  0  0  0  0  0  0
   45.2830   34.0530   45.2600 N   0  0  0  0  0  0  0  0  0  0  0  0
   44.7510   35.2590   45.4750 C   0  0  0  0  0  0  0  0  0  0  0  0
   44.4520   36.0490   44.4360 N   0  0  0  0  0  0  0  0  0  0  0  0
   47.7480   33.2340   38.9060 C   0  0  2  0  0  0  0  0  0  0  0  0
   48.2270   34.3990   38.0100 C   0  0  0  0  0  0  0  0  0  0  0  0
   47.5650   33.1450   37.4180 C   0  0  1  0  0  0  0  0  0  0  0  0
   48.4210   32.2900   36.5630 C   0  0  0  0  0  0  0  0  0  0  0  0
   47.7890   30.9030   36.4970 C   0  0  0  0  0  0  0  0  0  0  0  0
   48.6170   32.7630   35.1580 C   0  0  0  0  0  0  0  0  0  0  0  0
   49.7700   32.1350   37.2720 C   0  0  0  0  0  0  0  0  0  0  0  0
   43.4763   33.9141   40.6354 H   0  0  0  0  0  0  0  0  0  0  0  0
   44.4312   36.3004   42.3471 H   0  0  0  0  0  0  0  0  0  0  0  0
   45.9858   32.5665   43.8854 H   0  0  0  0  0  0  0  0  0  0  0  0
   44.5591   35.6022   46.5023 H   0  0  0  0  0  0  0  0  0  0  0  0
   48.2058   32.5709   39.6548 H   0  0  0  0  0  0  0  0  0  0  0  0
   47.6906   35.3594   38.0151 H   0  0  0  0  0  0  0  0  0  0  0  0
   49.1744   34.9364   37.8565 H   0  0  0  0  0  0  0  0  0  0  0  0
   46.6868   32.9133   36.7974 H   0  0  0  0  0  0  0  0  0  0  0  0
   47.6185   30.5288   37.5173 H   0  0  0  0  0  0  0  0  0  0  0  0
   46.8291   30.9625   35.9631 H   0  0  0  0  0  0  0  0  0  0  0  0
   48.4637   30.2177   35.9631 H   0  0  0  0  0  0  0  0  0  0  0  0
   49.0381   33.7792   35.1686 H   0  0  0  0  0  0  0  0  0  0  0  0
   49.3083   32.0851   34.6359 H   0  0  0  0  0  0  0  0  0  0  0  0
   47.6488   32.7727   34.6359 H   0  0  0  0  0  0  0  0  0  0  0  0
   49.6160   32.1527   38.3610 H   0  0  0  0  0  0  0  0  0  0  0  0
   50.2288   31.1782   36.9821 H   0  0  0  0  0  0  0  0  0  0  0  0
   50.4339   32.9628   36.9821 H   0  0  0  0  0  0  0  0  0  0  0  0
  1  7  1  0
  2  1  1  0
  3  4  1  0
  3  2  2  0
  4  5  2  0
  5  1  1  0
  6 11  2  0
  7  6  1  0
  7  8  2  0
  8  9  1  0
  9 10  2  0
 11 10  1  0
 12  4  1  0
 13 12  1  0
 14 13  1  0
 14 12  1  0
 15 18  1  0
 15 14  1  0
 16 15  1  0
 17 15  1  0
  2 19  1  0
  6 20  1  0
  8 21  1  0
 10 22  1  0
 12 23  1  1
 13 24  1  0
 13 25  1  0
 14 26  1  1
 16 27  1  0
 16 28  1  0
 16 29  1  0
 17 30  1  0
 17 31  1  0
 17 32  1  0
 18 33  1  0
 18 34  1  0
 18 35  1  0
M  ISO  8  19  14  20  14  21  14  22  14  23  13  24  13  25  13  26  13
M  ISO  8  27   8  28   8  29   8  30   8  31   8  32   8  33   8  34   8
M  ISO  1  35   8
M  END
>  <minimizedAffinity>  (1) 
-4.22726059

>  <minimizedRMSD>  (1) 
0.651014149

$$$$
