
     RDKit          3D

 19 20  0  0  0  0  0  0  0  0999 V2000
   44.5740   36.1160   44.3630 C   0  0  0  0  0  0  0  0  0  0  0  0
   45.4030   36.1150   43.2300 C   0  0  0  0  0  0  0  0  0  0  0  0
   46.3010   35.0650   43.0380 C   0  0  0  0  0  0  0  0  0  0  0  0
   46.3180   34.0920   43.9780 N   0  0  0  0  0  0  0  0  0  0  0  0
   45.5200   34.1100   45.0520 C   0  0  0  0  0  0  0  0  0  0  0  0
   44.6410   35.1150   45.2620 N   0  0  0  0  0  0  0  0  0  0  0  0
   45.5990   33.0700   45.9740 N   0  0  0  0  0  0  0  0  0  0  0  0
   47.2020   34.9790   41.8900 C   0  0  0  0  0  0  0  0  0  0  0  0
   46.8990   34.2080   40.7750 C   0  0  0  0  0  0  0  0  0  0  0  0
   47.9660   34.3720   39.9130 C   0  0  0  0  0  0  0  0  0  0  0  0
   48.8640   35.1950   40.4770 N   0  0  0  0  0  0  0  0  0  0  0  0
   48.3940   35.5580   41.6730 N   0  0  0  0  0  0  0  0  0  0  0  0
   43.8635   36.9414   44.5180 H   0  0  0  0  0  0  0  0  0  0  0  0
   45.3449   36.9355   42.4997 H   0  0  0  0  0  0  0  0  0  0  0  0
   44.9906   33.0713   46.8051 H   0  0  0  0  0  0  0  0  0  0  0  0
   46.2658   32.2992   45.8250 H   0  0  0  0  0  0  0  0  0  0  0  0
   45.9994   33.5961   40.6127 H   0  0  0  0  0  0  0  0  0  0  0  0
   48.0640   33.9031   38.9228 H   0  0  0  0  0  0  0  0  0  0  0  0
   49.7576   35.4937   40.0608 H   0  0  0  0  0  0  0  0  0  0  0  0
  1  6  2  0
  2  1  1  0
  3  2  2  0
  3  4  1  0
  4  5  2  0
  5  6  1  0
  5  7  1  0
  8  3  1  0
  9  8  1  0
 10 11  1  0
 10  9  2  0
 11 12  1  0
 12  8  2  0
  1 13  1  0
  2 14  1  0
  7 15  1  0
  7 16  1  0
  9 17  1  0
 10 18  1  0
 11 19  1  0
M  ISO  5  13  14  14  14  17  14  18  14  19   9
M  END
>  <minimizedAffinity>  (1) 
-4.84665203

>  <minimizedRMSD>  (1) 
1.37013936

$$$$
