
     RDKit          3D

 19 20  0  0  0  0  0  0  0  0999 V2000
   44.4770   36.0840   44.6460 C   0  0  0  0  0  0  0  0  0  0  0  0
   45.2440   35.8560   43.4910 C   0  0  0  0  0  0  0  0  0  0  0  0
   46.0970   34.7420   43.4350 C   0  0  0  0  0  0  0  0  0  0  0  0
   46.1280   33.9410   44.5180 N   0  0  0  0  0  0  0  0  0  0  0  0
   45.3900   34.1770   45.6040 C   0  0  0  0  0  0  0  0  0  0  0  0
   44.5710   35.2280   45.6840 N   0  0  0  0  0  0  0  0  0  0  0  0
   45.4840   33.2860   46.6910 N   0  0  0  0  0  0  0  0  0  0  0  0
   46.9260   34.4060   42.3210 C   0  0  0  0  0  0  0  0  0  0  0  0
   47.7920   35.2120   41.5960 C   0  0  0  0  0  0  0  0  0  0  0  0
   48.4980   34.7130   40.5650 C   0  0  0  0  0  0  0  0  0  0  0  0
   48.2640   33.2990   40.3060 C   0  0  0  0  0  0  0  0  0  0  0  0
   47.0500   32.8100   41.5650 S   0  0  0  0  0  0  0  0  0  0  0  0
   43.8055   36.9534   44.7031 H   0  0  0  0  0  0  0  0  0  0  0  0
   45.1767   36.5455   42.6365 H   0  0  0  0  0  0  0  0  0  0  0  0
   44.9236   33.4482   47.5398 H   0  0  0  0  0  0  0  0  0  0  0  0
   46.1131   32.4723   46.6370 H   0  0  0  0  0  0  0  0  0  0  0  0
   47.9028   36.2722   41.8675 H   0  0  0  0  0  0  0  0  0  0  0  0
   49.1932   35.3216   39.9681 H   0  0  0  0  0  0  0  0  0  0  0  0
   48.7187   32.6707   39.5259 H   0  0  0  0  0  0  0  0  0  0  0  0
  1  6  2  0
  2  1  1  0
  3  2  2  0
  3  4  1  0
  4  5  2  0
  5  6  1  0
  5  7  1  0
  8  3  1  0
  9  8  2  0
 10  9  1  0
 11 10  2  0
 11 12  1  0
 12  8  1  0
  1 13  1  0
  2 14  1  0
  7 15  1  0
  7 16  1  0
  9 17  1  0
 10 18  1  0
 11 19  1  0
M  ISO  5  13  14  14  14  17  14  18  14  19  14
M  END
>  <minimizedAffinity>  (1) 
-4.53021002

>  <minimizedRMSD>  (1) 
0.795227289

$$$$
