
     RDKit          3D

 19 20  0  0  0  0  0  0  0  0999 V2000
   44.5060   36.1390   44.5890 C   0  0  0  0  0  0  0  0  0  0  0  0
   45.2390   36.0930   43.3900 C   0  0  0  0  0  0  0  0  0  0  0  0
   46.0840   35.0070   43.1620 C   0  0  0  0  0  0  0  0  0  0  0  0
   46.1640   34.0310   44.1150 N   0  0  0  0  0  0  0  0  0  0  0  0
   45.4450   34.1140   45.2490 C   0  0  0  0  0  0  0  0  0  0  0  0
   44.6230   35.1420   45.5020 N   0  0  0  0  0  0  0  0  0  0  0  0
   45.5790   33.0820   46.1750 N   0  0  0  0  0  0  0  0  0  0  0  0
   46.8800   34.8400   41.9930 N   0  0  0  0  0  0  0  0  0  0  0  0
   46.4690   34.1680   40.9310 N   0  0  0  0  0  0  0  0  0  0  0  0
   47.4330   34.1770   39.9810 C   0  0  0  0  0  0  0  0  0  0  0  0
   48.4770   34.9100   40.5430 C   0  0  0  0  0  0  0  0  0  0  0  0
   48.1210   35.3320   41.8270 C   0  0  0  0  0  0  0  0  0  0  0  0
   43.8345   36.9873   44.7878 H   0  0  0  0  0  0  0  0  0  0  0  0
   45.1478   36.8981   42.6460 H   0  0  0  0  0  0  0  0  0  0  0  0
   45.0458   33.1080   47.0558 H   0  0  0  0  0  0  0  0  0  0  0  0
   46.2113   32.2930   45.9789 H   0  0  0  0  0  0  0  0  0  0  0  0
   47.3999   33.7095   38.9859 H   0  0  0  0  0  0  0  0  0  0  0  0
   49.4368   35.1241   40.0500 H   0  0  0  0  0  0  0  0  0  0  0  0
   48.7160   35.9269   42.5356 H   0  0  0  0  0  0  0  0  0  0  0  0
  1  6  2  0
  2  1  1  0
  3  2  2  0
  3  4  1  0
  4  5  2  0
  5  6  1  0
  5  7  1  0
  8  3  1  0
  9  8  1  0
 10 11  1  0
 10  9  2  0
 11 12  2  0
 12  8  1  0
  1 13  1  0
  2 14  1  0
  7 15  1  0
  7 16  1  0
 10 17  1  0
 11 18  1  0
 12 19  1  0
M  ISO  5  13  14  14  14  17  14  18  14  19  14
M  END
>  <minimizedAffinity>  (1) 
-4.62518167

>  <minimizedRMSD>  (1) 
1.32348585

$$$$
