
     RDKit          3D

 17 18  0  0  0  0  0  0  0  0999 V2000
   44.4500   36.2020   44.6610 C   0  0  0  0  0  0  0  0  0  0  0  0
   45.1560   36.0290   43.4550 C   0  0  0  0  0  0  0  0  0  0  0  0
   45.9880   34.9130   43.3110 C   0  0  0  0  0  0  0  0  0  0  0  0
   46.0670   34.0470   44.3560 N   0  0  0  0  0  0  0  0  0  0  0  0
   45.3840   34.2390   45.4890 C   0  0  0  0  0  0  0  0  0  0  0  0
   44.5770   35.3010   45.6610 N   0  0  0  0  0  0  0  0  0  0  0  0
   45.5200   33.3060   46.5120 N   0  0  0  0  0  0  0  0  0  0  0  0
   46.6970   34.7630   42.0650 C   0  0  0  0  0  0  0  0  0  0  0  0
   46.4410   34.2180   40.8560 N   0  0  0  0  0  0  0  0  0  0  0  0
   47.4720   34.3700   40.0690 O   0  0  0  0  0  0  0  0  0  0  0  0
   48.4220   35.0030   40.7080 C   0  0  0  0  0  0  0  0  0  0  0  0
   47.9530   35.2530   41.9440 N   0  0  0  0  0  0  0  0  0  0  0  0
   43.7922   37.0741   44.7901 H   0  0  0  0  0  0  0  0  0  0  0  0
   45.0551   36.7596   42.6389 H   0  0  0  0  0  0  0  0  0  0  0  0
   45.0045   33.4310   47.3949 H   0  0  0  0  0  0  0  0  0  0  0  0
   46.1362   32.4902   46.3865 H   0  0  0  0  0  0  0  0  0  0  0  0
   49.4110   35.2772   40.3121 H   0  0  0  0  0  0  0  0  0  0  0  0
  1  6  2  0
  2  1  1  0
  3  2  2  0
  3  4  1  0
  4  5  2  0
  5  6  1  0
  5  7  1  0
  8  3  1  0
  9  8  2  0
 10 11  1  0
 10  9  1  0
 11 12  2  0
 12  8  1  0
  1 13  1  0
  2 14  1  0
  7 15  1  0
  7 16  1  0
 11 17  1  0
M  ISO  3  13  14  14  14  17  14
M  END
>  <minimizedAffinity>  (1) 
-4.5610528

>  <minimizedRMSD>  (1) 
0.988510072

$$$$
