
     RDKit          3D

 20 21  0  0  0  0  0  0  0  0999 V2000
   44.6140   36.0830   44.3360 C   0  0  0  0  0  0  0  0  0  0  0  0
   45.4530   35.7290   43.2680 C   0  0  0  0  0  0  0  0  0  0  0  0
   46.2550   34.5980   43.3870 C   0  0  0  0  0  0  0  0  0  0  0  0
   46.1830   33.8930   44.5340 N   0  0  0  0  0  0  0  0  0  0  0  0
   45.3700   34.2480   45.5500 C   0  0  0  0  0  0  0  0  0  0  0  0
   44.5800   35.3320   45.4760 N   0  0  0  0  0  0  0  0  0  0  0  0
   45.3590   33.4630   46.6980 N   0  0  0  0  0  0  0  0  0  0  0  0
   47.1690   34.1230   42.3550 C   0  0  0  0  0  0  0  0  0  0  0  0
   47.0900   34.5380   41.0420 C   0  0  0  0  0  0  0  0  0  0  0  0
   47.9480   34.1020   40.0390 C   0  0  0  0  0  0  0  0  0  0  0  0
   48.9110   33.2160   40.3960 N   0  0  0  0  0  0  0  0  0  0  0  0
   48.9950   32.8040   41.6790 C   0  0  0  0  0  0  0  0  0  0  0  0
   48.1530   33.2450   42.6200 N   0  0  0  0  0  0  0  0  0  0  0  0
   43.9765   36.9757   44.2538 H   0  0  0  0  0  0  0  0  0  0  0  0
   45.4763   36.3362   42.3511 H   0  0  0  0  0  0  0  0  0  0  0  0
   44.7466   33.7136   47.4874 H   0  0  0  0  0  0  0  0  0  0  0  0
   45.9632   32.6311   46.7588 H   0  0  0  0  0  0  0  0  0  0  0  0
   46.3016   35.2563   40.7727 H   0  0  0  0  0  0  0  0  0  0  0  0
   47.8505   34.4592   39.0032 H   0  0  0  0  0  0  0  0  0  0  0  0
   49.7788   32.0846   41.9586 H   0  0  0  0  0  0  0  0  0  0  0  0
  1  6  2  0
  2  3  2  0
  2  1  1  0
  3  4  1  0
  4  5  2  0
  5  7  1  0
  6  5  1  0
  8 13  1  0
  8  3  1  0
  9  8  2  0
 10 11  2  0
 10  9  1  0
 11 12  1  0
 12 13  2  0
  1 14  1  0
  2 15  1  0
  7 16  1  0
  7 17  1  0
  9 18  1  0
 10 19  1  0
 12 20  1  0
M  ISO  5  14  14  15  14  18  14  19  14  20  14
M  END
>  <minimizedAffinity>  (1) 
-4.59915543

>  <minimizedRMSD>  (1) 
0.572549284

$$$$
