
     RDKit          3D

 20 21  0  0  0  0  0  0  0  0999 V2000
   44.6060   36.0820   44.3560 C   0  0  0  0  0  0  0  0  0  0  0  0
   45.4420   35.7400   43.2730 C   0  0  0  0  0  0  0  0  0  0  0  0
   46.2420   34.6060   43.3960 C   0  0  0  0  0  0  0  0  0  0  0  0
   46.1760   33.8950   44.5400 N   0  0  0  0  0  0  0  0  0  0  0  0
   45.3660   34.2490   45.5550 C   0  0  0  0  0  0  0  0  0  0  0  0
   44.5790   35.3340   45.4810 N   0  0  0  0  0  0  0  0  0  0  0  0
   45.3590   33.4590   46.7020 N   0  0  0  0  0  0  0  0  0  0  0  0
   47.1530   34.1320   42.3600 C   0  0  0  0  0  0  0  0  0  0  0  0
   47.0780   34.5330   41.0430 C   0  0  0  0  0  0  0  0  0  0  0  0
   47.9420   34.0820   40.0650 C   0  0  0  0  0  0  0  0  0  0  0  0
   48.9120   33.2130   40.3680 N   0  0  0  0  0  0  0  0  0  0  0  0
   48.9860   32.8170   41.6680 C   0  0  0  0  0  0  0  0  0  0  0  0
   48.1440   33.2560   42.6210 N   0  0  0  0  0  0  0  0  0  0  0  0
   43.9649   36.9729   44.2837 H   0  0  0  0  0  0  0  0  0  0  0  0
   45.4619   36.3505   42.3582 H   0  0  0  0  0  0  0  0  0  0  0  0
   44.7489   33.7065   47.4941 H   0  0  0  0  0  0  0  0  0  0  0  0
   45.9640   32.6273   46.7582 H   0  0  0  0  0  0  0  0  0  0  0  0
   46.2915   35.2471   40.7575 H   0  0  0  0  0  0  0  0  0  0  0  0
   47.8317   34.4396   39.0306 H   0  0  0  0  0  0  0  0  0  0  0  0
   49.7727   32.1031   41.9534 H   0  0  0  0  0  0  0  0  0  0  0  0
  1  6  2  0
  2  3  2  0
  2  1  1  0
  3  4  1  0
  4  5  2  0
  5  7  1  0
  6  5  1  0
  8 13  1  0
  8  3  1  0
  9  8  2  0
 10 11  2  0
 10  9  1  0
 11 12  1  0
 12 13  2  0
  1 14  1  0
  2 15  1  0
  7 16  1  0
  7 17  1  0
  9 18  1  0
 10 19  1  0
 12 20  1  0
M  ISO  5  14  14  15  14  18  14  19  14  20  14
M  END
>  <minimizedAffinity>  (1) 
-4.60669661

>  <minimizedRMSD>  (1) 
0.895124733

$$$$
