
     RDKit          3D

 15 15  0  0  0  0  0  0  0  0999 V2000
   44.6670   36.0280   44.2860 C   0  0  0  0  0  0  0  0  0  0  0  0
   45.5320   35.5880   43.2680 C   0  0  0  0  0  0  0  0  0  0  0  0
   46.2970   34.4400   43.4880 C   0  0  0  0  0  0  0  0  0  0  0  0
   46.1560   33.8150   44.6830 N   0  0  0  0  0  0  0  0  0  0  0  0
   45.3240   34.2560   45.6340 C   0  0  0  0  0  0  0  0  0  0  0  0
   44.5640   35.3630   45.4650 N   0  0  0  0  0  0  0  0  0  0  0  0
   45.2460   33.5460   46.8310 N   0  0  0  0  0  0  0  0  0  0  0  0
   47.2470   33.8680   42.5030 C   0  0  0  0  0  0  0  0  0  0  0  0
   44.0604   36.9311   44.1232 H   0  0  0  0  0  0  0  0  0  0  0  0
   45.6047   36.1369   42.3175 H   0  0  0  0  0  0  0  0  0  0  0  0
   44.6133   33.8648   47.5786 H   0  0  0  0  0  0  0  0  0  0  0  0
   45.8211   32.7025   46.9679 H   0  0  0  0  0  0  0  0  0  0  0  0
   48.0719   33.3713   43.0349 H   0  0  0  0  0  0  0  0  0  0  0  0
   46.7236   33.1348   41.8718 H   0  0  0  0  0  0  0  0  0  0  0  0
   47.6501   34.6737   41.8718 H   0  0  0  0  0  0  0  0  0  0  0  0
  1  6  2  0
  2  3  2  0
  2  1  1  0
  3  4  1  0
  4  5  2  0
  5  7  1  0
  6  5  1  0
  8  3  1  0
  1  9  1  0
  2 10  1  0
  7 11  1  0
  7 12  1  0
  8 13  1  0
  8 14  1  0
  8 15  1  0
M  ISO  5   9  14  10  14  13   8  14   8  15   8
M  END
>  <minimizedAffinity>  (1) 
-3.5816164

>  <minimizedRMSD>  (1) 
0.121452108

$$$$
