
     RDKit          3D

 21 21  0  0  0  0  0  0  0  0999 V2000
   44.5660   36.1450   44.4250 C   0  0  0  0  0  0  0  0  0  0  0  0
   45.3360   35.8330   43.2910 C   0  0  0  0  0  0  0  0  0  0  0  0
   46.1380   34.6780   43.3220 C   0  0  0  0  0  0  0  0  0  0  0  0
   46.1130   33.9350   44.4520 N   0  0  0  0  0  0  0  0  0  0  0  0
   45.3660   34.2550   45.5260 C   0  0  0  0  0  0  0  0  0  0  0  0
   44.5900   35.3550   45.5220 N   0  0  0  0  0  0  0  0  0  0  0  0
   45.4110   33.4240   46.6410 N   0  0  0  0  0  0  0  0  0  0  0  0
   46.9560   34.3340   42.1350 C   0  0  0  0  0  0  0  0  0  0  0  0
   46.0210   34.2570   40.9490 C   0  0  0  0  0  0  0  0  0  0  0  0
   48.0950   35.2770   41.8880 C   0  0  0  0  0  0  0  0  0  0  0  0
   43.9344   37.0456   44.4198 H   0  0  0  0  0  0  0  0  0  0  0  0
   45.3118   36.4774   42.3998 H   0  0  0  0  0  0  0  0  0  0  0  0
   44.8482   33.6488   47.4739 H   0  0  0  0  0  0  0  0  0  0  0  0
   46.0071   32.5841   46.6336 H   0  0  0  0  0  0  0  0  0  0  0  0
   47.4467   33.3656   42.3120 H   0  0  0  0  0  0  0  0  0  0  0  0
   44.9837   34.1716   41.3048 H   0  0  0  0  0  0  0  0  0  0  0  0
   46.1259   35.1668   40.3397 H   0  0  0  0  0  0  0  0  0  0  0  0
   46.2733   33.3766   40.3397 H   0  0  0  0  0  0  0  0  0  0  0  0
   48.5052   35.6166   42.8505 H   0  0  0  0  0  0  0  0  0  0  0  0
   48.8805   34.7613   41.3161 H   0  0  0  0  0  0  0  0  0  0  0  0
   47.7350   36.1450   41.3161 H   0  0  0  0  0  0  0  0  0  0  0  0
  1  6  2  0
  2  3  2  0
  2  1  1  0
  3  4  1  0
  4  5  2  0
  5  7  1  0
  6  5  1  0
  8  3  1  0
  9  8  1  0
 10  8  1  0
  1 11  1  0
  2 12  1  0
  7 13  1  0
  7 14  1  0
  8 15  1  0
  9 16  1  0
  9 17  1  0
  9 18  1  0
 10 19  1  0
 10 20  1  0
 10 21  1  0
M  ISO  8  11  14  12  14  15   8  16   8  17   8  18   8  19   8  20   8
M  ISO  1  21   8
M  END
>  <minimizedAffinity>  (1) 
-4.27619314

>  <minimizedRMSD>  (1) 
0.907024562

$$$$
