
     RDKit          3D

 25 27  0  0  1  0  0  0  0  0999 V2000
   45.7980   34.1390   41.6710 N   0  0  0  0  0  0  0  0  0  0  0  0
   45.0300   33.7190   40.6120 C   0  0  0  0  0  0  0  0  0  0  0  0
   45.8150   33.5290   39.5450 N   0  0  0  0  0  0  0  0  0  0  0  0
   47.0850   33.8310   39.9310 C   0  0  0  0  0  0  0  0  0  0  0  0
   47.0450   34.1950   41.2130 N   0  0  0  0  0  0  0  0  0  0  0  0
   44.8370   35.7220   43.2110 C   0  0  0  0  0  0  0  0  0  0  0  0
   45.4510   34.4710   43.0010 C   0  0  0  0  0  0  0  0  0  0  0  0
   45.6680   33.6660   44.0950 C   0  0  0  0  0  0  0  0  0  0  0  0
   45.2720   34.1380   45.3140 N   0  0  0  0  0  0  0  0  0  0  0  0
   44.6940   35.3250   45.4860 C   0  0  0  0  0  0  0  0  0  0  0  0
   44.4860   36.0980   44.4290 N   0  0  0  0  0  0  0  0  0  0  0  0
   48.3440   33.8010   39.1360 C   0  0  2  0  0  0  0  0  0  0  0  0
   48.3080   34.5070   37.7620 C   0  0  0  0  0  0  0  0  0  0  0  0
   48.4110   32.9800   37.8810 C   0  0  1  0  0  0  0  0  0  0  0  0
   49.6190   32.3140   37.5010 N   0  0  0  0  0  0  0  0  0  0  0  0
   43.9413   33.5634   40.6372 H   0  0  0  0  0  0  0  0  0  0  0  0
   44.6488   36.3892   42.3570 H   0  0  0  0  0  0  0  0  0  0  0  0
   46.1427   32.6791   43.9920 H   0  0  0  0  0  0  0  0  0  0  0  0
   44.3935   35.6594   46.4899 H   0  0  0  0  0  0  0  0  0  0  0  0
   48.9690   33.8540   40.0396 H   0  0  0  0  0  0  0  0  0  0  0  0
   49.1712   35.0959   37.4183 H   0  0  0  0  0  0  0  0  0  0  0  0
   47.6330   35.2138   37.2573 H   0  0  0  0  0  0  0  0  0  0  0  0
   47.8321   32.1296   37.4915 H   0  0  0  0  0  0  0  0  0  0  0  0
   50.1347   32.0297   38.3460 H   0  0  0  0  0  0  0  0  0  0  0  0
   49.3899   31.4800   36.9417 H   0  0  0  0  0  0  0  0  0  0  0  0
  1  7  1  0
  2  1  1  0
  3  4  1  0
  3  2  2  0
  4  5  2  0
  5  1  1  0
  6 11  2  0
  7  6  1  0
  7  8  2  0
  8  9  1  0
  9 10  2  0
 11 10  1  0
 12  4  1  0
 13 14  1  0
 13 12  1  0
 14 12  1  0
 15 14  1  0
  2 16  1  0
  6 17  1  0
  8 18  1  0
 10 19  1  0
 12 20  1  1
 13 21  1  0
 13 22  1  0
 14 23  1  6
 15 24  1  0
 15 25  1  0
M  ISO  8  16  14  17  14  18  14  19  14  20  13  21  13  22  13  23  13
M  ISO  2  24   5  25   5
M  END
>  <minimizedAffinity>  (1) 
-4.13413763

>  <minimizedRMSD>  (1) 
0.188521966

$$$$
