
     RDKit          3D

 15 15  0  0  0  0  0  0  0  0999 V2000
   44.6050   36.0920   44.3630 C   0  0  0  0  0  0  0  0  0  0  0  0
   45.4310   35.7260   43.2730 C   0  0  0  0  0  0  0  0  0  0  0  0
   46.2180   34.5790   43.3890 C   0  0  0  0  0  0  0  0  0  0  0  0
   46.1450   33.8830   44.5430 N   0  0  0  0  0  0  0  0  0  0  0  0
   45.3530   34.2550   45.5600 C   0  0  0  0  0  0  0  0  0  0  0  0
   44.5750   35.3560   45.4890 N   0  0  0  0  0  0  0  0  0  0  0  0
   45.3360   33.4790   46.7210 N   0  0  0  0  0  0  0  0  0  0  0  0
   47.0840   34.1580   42.2980 C   0  0  0  0  0  0  0  0  0  0  0  0
   47.2240   32.9080   42.0910 O   0  0  0  0  0  0  0  0  0  0  0  0
   47.7270   35.0800   41.5220 O   0  0  0  0  0  0  0  0  0  0  0  0
   43.9777   36.9925   44.2882 H   0  0  0  0  0  0  0  0  0  0  0  0
   45.4521   36.3320   42.3552 H   0  0  0  0  0  0  0  0  0  0  0  0
   44.7342   33.7490   47.5121 H   0  0  0  0  0  0  0  0  0  0  0  0
   45.9252   32.6367   46.7861 H   0  0  0  0  0  0  0  0  0  0  0  0
   48.3137   34.7817   40.7825 H   0  0  0  0  0  0  0  0  0  0  0  0
  1  6  2  0
  2  3  2  0
  2  1  1  0
  3  4  1  0
  4  5  2  0
  5  7  1  0
  6  5  1  0
  8  3  1  0
  9  8  2  0
 10  8  1  0
  1 11  1  0
  2 12  1  0
  7 13  1  0
  7 14  1  0
 10 15  1  0
M  ISO  3  11  14  12  14  15   3
M  END
>  <minimizedAffinity>  (1) 
-3.81611776

>  <minimizedRMSD>  (1) 
0.323164374

$$$$
