
     RDKit          3D

 31 33  0  0  0  0  0  0  0  0999 V2000
   47.5340   33.1910   43.6750 C   0  0  0  0  0  0  0  0  0  0  0  0
   47.3610   32.0030   44.0710 O   0  0  0  0  0  0  0  0  0  0  0  0
   45.0990   36.0180   43.2420 C   0  0  0  0  0  0  0  0  0  0  0  0
   46.1300   35.0970   42.9450 C   0  0  0  0  0  0  0  0  0  0  0  0
   46.4750   34.1650   43.9320 C   0  0  0  0  0  0  0  0  0  0  0  0
   45.8170   34.1830   45.1190 N   0  0  0  0  0  0  0  0  0  0  0  0
   44.8410   35.0900   45.3420 C   0  0  0  0  0  0  0  0  0  0  0  0
   44.4690   36.0070   44.4280 N   0  0  0  0  0  0  0  0  0  0  0  0
   44.2050   35.0620   46.5740 N   0  0  0  0  0  0  0  0  0  0  0  0
   48.6720   33.5430   43.0320 O   0  0  0  0  0  0  0  0  0  0  0  0
   49.1950   32.7260   42.0370 C   0  0  0  0  0  0  0  0  0  0  0  0
   49.9750   31.6710   42.5010 C   0  0  0  0  0  0  0  0  0  0  0  0
   50.5310   30.8150   41.5670 C   0  0  0  0  0  0  0  0  0  0  0  0
   50.3130   31.0110   40.2340 C   0  0  0  0  0  0  0  0  0  0  0  0
   49.5500   32.0410   39.7710 C   0  0  0  0  0  0  0  0  0  0  0  0
   49.2970   32.2850   38.4260 C   0  0  0  0  0  0  0  0  0  0  0  0
   48.5010   33.3710   38.0570 C   0  0  0  0  0  0  0  0  0  0  0  0
   47.9420   34.2300   38.9800 C   0  0  0  0  0  0  0  0  0  0  0  0
   48.2070   33.9690   40.3050 C   0  0  0  0  0  0  0  0  0  0  0  0
   48.9910   32.9010   40.6840 C   0  0  0  0  0  0  0  0  0  0  0  0
   44.8064   36.7601   42.4846 H   0  0  0  0  0  0  0  0  0  0  0  0
   46.6434   35.1120   41.9723 H   0  0  0  0  0  0  0  0  0  0  0  0
   43.4557   35.7373   46.7822 H   0  0  0  0  0  0  0  0  0  0  0  0
   44.4820   34.3659   47.2809 H   0  0  0  0  0  0  0  0  0  0  0  0
   50.1443   31.5222   43.5777 H   0  0  0  0  0  0  0  0  0  0  0  0
   51.1527   29.9712   41.9009 H   0  0  0  0  0  0  0  0  0  0  0  0
   50.7668   30.3167   39.5115 H   0  0  0  0  0  0  0  0  0  0  0  0
   49.7223   31.6250   37.6555 H   0  0  0  0  0  0  0  0  0  0  0  0
   48.3122   33.5486   36.9880 H   0  0  0  0  0  0  0  0  0  0  0  0
   47.3160   35.0807   38.6726 H   0  0  0  0  0  0  0  0  0  0  0  0
   47.7839   34.6271   41.0782 H   0  0  0  0  0  0  0  0  0  0  0  0
  1  5  1  0
  1  2  2  0
  3  8  2  0
  4  3  1  0
  4  5  2  0
  5  6  1  0
  6  7  2  0
  7  9  1  0
  8  7  1  0
 10  1  1  0
 11 12  2  0
 11 10  1  0
 13 12  1  0
 14 13  2  0
 15 14  1  0
 15 20  2  0
 16 15  1  0
 17 16  2  0
 17 18  1  0
 18 19  2  0
 19 20  1  0
 20 11  1  0
  3 21  1  0
  4 22  1  0
  9 23  1  0
  9 24  1  0
 12 25  1  0
 13 26  1  0
 14 27  1  0
 16 28  1  0
 17 29  1  0
 18 30  1  0
 19 31  1  0
M  ISO  8  21  14  22  14  25  14  26  14  27  14  28  14  29  14  30  14
M  ISO  1  31  14
M  END
>  <minimizedAffinity>  (1) 
-5.60113621

>  <minimizedRMSD>  (1) 
2.20601177

$$$$
