
     RDKit          3D

 24 25  0  0  0  0  0  0  0  0999 V2000
   44.8230   35.9830   43.9080 C   0  0  0  0  0  0  0  0  0  0  0  0
   45.8480   35.1840   43.3640 C   0  0  0  0  0  0  0  0  0  0  0  0
   46.3510   34.1330   44.1380 C   0  0  0  0  0  0  0  0  0  0  0  0
   45.8290   33.9340   45.3700 N   0  0  0  0  0  0  0  0  0  0  0  0
   44.8470   34.7290   45.8480 C   0  0  0  0  0  0  0  0  0  0  0  0
   44.3300   35.7530   45.1410 N   0  0  0  0  0  0  0  0  0  0  0  0
   44.3560   34.4710   47.1190 N   0  0  0  0  0  0  0  0  0  0  0  0
   47.4100   33.2800   43.6190 C   0  0  0  0  0  0  0  0  0  0  0  0
   47.3680   32.0370   43.9020 O   0  0  0  0  0  0  0  0  0  0  0  0
   48.4140   33.8130   42.8510 O   0  0  0  0  0  0  0  0  0  0  0  0
   48.4790   33.5630   41.4740 C   0  0  0  0  0  0  0  0  0  0  0  0
   48.0500   34.5360   40.5690 C   0  0  0  0  0  0  0  0  0  0  0  0
   48.0920   34.3450   39.2030 C   0  0  0  0  0  0  0  0  0  0  0  0
   48.5760   33.1460   38.7090 C   0  0  0  0  0  0  0  0  0  0  0  0
   48.9970   32.1920   39.6240 C   0  0  0  0  0  0  0  0  0  0  0  0
   48.9530   32.3860   40.9720 N   0  0  0  0  0  0  0  0  0  0  0  0
   44.4158   36.8136   43.3127 H   0  0  0  0  0  0  0  0  0  0  0  0
   46.2426   35.3816   42.3564 H   0  0  0  0  0  0  0  0  0  0  0  0
   43.6072   35.0596   47.5111 H   0  0  0  0  0  0  0  0  0  0  0  0
   44.7401   33.6908   47.6709 H   0  0  0  0  0  0  0  0  0  0  0  0
   47.6645   35.4895   40.9592 H   0  0  0  0  0  0  0  0  0  0  0  0
   47.7464   35.1330   38.5177 H   0  0  0  0  0  0  0  0  0  0  0  0
   48.6252   32.9559   37.6267 H   0  0  0  0  0  0  0  0  0  0  0  0
   49.3841   31.2351   39.2439 H   0  0  0  0  0  0  0  0  0  0  0  0
  1  6  2  0
  2  1  1  0
  2  3  2  0
  3  4  1  0
  4  5  2  0
  5  7  1  0
  6  5  1  0
  8  9  2  0
  8  3  1  0
 10  8  1  0
 11 10  1  0
 12 11  2  0
 13 12  1  0
 14 13  2  0
 14 15  1  0
 15 16  2  0
 16 11  1  0
  1 17  1  0
  2 18  1  0
  7 19  1  0
  7 20  1  0
 12 21  1  0
 13 22  1  0
 14 23  1  0
 15 24  1  0
M  ISO  6  17  14  18  14  21  14  22  14  23  14  24  14
M  END
>  <minimizedAffinity>  (1) 
-4.990839

>  <minimizedRMSD>  (1) 
1.42163873

$$$$
