
     RDKit          3D

 22 23  0  0  0  0  0  0  0  0999 V2000
   44.7660   35.7950   44.2570 C   0  0  0  0  0  0  0  0  0  0  0  0
   45.7660   35.0370   43.5890 C   0  0  0  0  0  0  0  0  0  0  0  0
   46.3250   33.9700   44.2810 C   0  0  0  0  0  0  0  0  0  0  0  0
   45.8950   33.7120   45.5360 N   0  0  0  0  0  0  0  0  0  0  0  0
   44.9430   34.4580   46.1300 C   0  0  0  0  0  0  0  0  0  0  0  0
   44.3670   35.5010   45.5090 N   0  0  0  0  0  0  0  0  0  0  0  0
   44.5490   34.1350   47.4210 N   0  0  0  0  0  0  0  0  0  0  0  0
   47.3550   33.1490   43.6610 C   0  0  0  0  0  0  0  0  0  0  0  0
   47.1830   31.8960   43.6110 O   0  0  0  0  0  0  0  0  0  0  0  0
   48.4810   33.7000   43.1410 O   0  0  0  0  0  0  0  0  0  0  0  0
   48.9930   35.6700   40.3120 N   0  0  0  0  0  0  0  0  0  0  0  0
   49.1090   35.3550   41.5900 N   0  0  0  0  0  0  0  0  0  0  0  0
   48.4730   34.2000   41.8450 C   0  0  0  0  0  0  0  0  0  0  0  0
   47.9160   33.7420   40.6700 C   0  0  0  0  0  0  0  0  0  0  0  0
   48.2650   34.6970   39.7160 C   0  0  0  0  0  0  0  0  0  0  0  0
   44.3046   36.6467   43.7358 H   0  0  0  0  0  0  0  0  0  0  0  0
   46.0842   35.2853   42.5657 H   0  0  0  0  0  0  0  0  0  0  0  0
   43.8228   34.6928   47.8926 H   0  0  0  0  0  0  0  0  0  0  0  0
   44.9828   33.3375   47.9075 H   0  0  0  0  0  0  0  0  0  0  0  0
   49.3853   36.5044   39.8528 H   0  0  0  0  0  0  0  0  0  0  0  0
   47.3265   32.8257   40.5186 H   0  0  0  0  0  0  0  0  0  0  0  0
   47.9926   34.6649   38.6507 H   0  0  0  0  0  0  0  0  0  0  0  0
  1  6  2  0
  2  1  1  0
  2  3  2  0
  3  4  1  0
  4  5  2  0
  5  7  1  0
  6  5  1  0
  8  3  1  0
  9  8  2  0
 10  8  1  0
 11 12  1  0
 12 13  2  0
 13 10  1  0
 14 13  1  0
 15 11  1  0
 15 14  2  0
  1 16  1  0
  2 17  1  0
  7 18  1  0
  7 19  1  0
 11 20  1  0
 14 21  1  0
 15 22  1  0
M  ISO  5  16  14  17  14  20   9  21  14  22  14
M  END
>  <minimizedAffinity>  (1) 
-5.05636454

>  <minimizedRMSD>  (1) 
1.5101645

$$$$
