
     RDKit          3D

 25 26  0  0  0  0  0  0  0  0999 V2000
   44.8190   35.7860   44.1090 C   0  0  0  0  0  0  0  0  0  0  0  0
   45.8450   35.0340   43.5140 C   0  0  0  0  0  0  0  0  0  0  0  0
   46.4180   33.9980   44.2360 C   0  0  0  0  0  0  0  0  0  0  0  0
   45.9650   33.7500   45.4880 N   0  0  0  0  0  0  0  0  0  0  0  0
   44.9770   34.4930   46.0260 C   0  0  0  0  0  0  0  0  0  0  0  0
   44.3940   35.5150   45.3470 N   0  0  0  0  0  0  0  0  0  0  0  0
   44.5520   34.1880   47.3250 N   0  0  0  0  0  0  0  0  0  0  0  0
   47.4890   33.1880   43.6590 C   0  0  0  0  0  0  0  0  0  0  0  0
   47.4510   31.9240   43.8140 O   0  0  0  0  0  0  0  0  0  0  0  0
   48.5080   33.8020   42.9690 O   0  0  0  0  0  0  0  0  0  0  0  0
   48.5050   33.6500   41.5870 C   0  0  0  0  0  0  0  0  0  0  0  0
   47.9660   34.5360   40.6820 C   0  0  0  0  0  0  0  0  0  0  0  0
   48.0230   34.2770   39.3240 C   0  0  0  0  0  0  0  0  0  0  0  0
   48.6230   33.1190   38.8470 C   0  0  0  0  0  0  0  0  0  0  0  0
   49.1690   32.2240   39.7650 C   0  0  0  0  0  0  0  0  0  0  0  0
   49.1090   32.4890   41.1230 C   0  0  0  0  0  0  0  0  0  0  0  0
   44.3576   36.6115   43.5471 H   0  0  0  0  0  0  0  0  0  0  0  0
   46.1878   35.2626   42.4941 H   0  0  0  0  0  0  0  0  0  0  0  0
   43.7991   34.7378   47.7630 H   0  0  0  0  0  0  0  0  0  0  0  0
   44.9923   33.4139   47.8425 H   0  0  0  0  0  0  0  0  0  0  0  0
   47.4857   35.4580   41.0415 H   0  0  0  0  0  0  0  0  0  0  0  0
   47.5882   34.9963   38.6144 H   0  0  0  0  0  0  0  0  0  0  0  0
   48.6663   32.9126   37.7674 H   0  0  0  0  0  0  0  0  0  0  0  0
   49.6506   31.3014   39.4088 H   0  0  0  0  0  0  0  0  0  0  0  0
   49.5427   31.7751   41.8387 H   0  0  0  0  0  0  0  0  0  0  0  0
  1  6  2  0
  2  1  1  0
  2  3  2  0
  3  4  1  0
  4  5  2  0
  5  7  1  0
  6  5  1  0
  8  9  2  0
  8  3  1  0
 10  8  1  0
 11 10  1  0
 12 11  2  0
 13 12  1  0
 14 13  2  0
 14 15  1  0
 15 16  2  0
 16 11  1  0
  1 17  1  0
  2 18  1  0
  7 19  1  0
  7 20  1  0
 12 21  1  0
 13 22  1  0
 14 23  1  0
 15 24  1  0
 16 25  1  0
M  ISO  7  17  14  18  14  21  14  22  14  23  14  24  14  25  14
M  END
>  <minimizedAffinity>  (1) 
-4.97235107

>  <minimizedRMSD>  (1) 
1.37287807

$$$$
