
     RDKit          3D

 23 24  0  0  0  0  0  0  0  0999 V2000
   44.8870   36.1340   43.4430 C   0  0  0  0  0  0  0  0  0  0  0  0
   45.9710   35.3730   42.9510 C   0  0  0  0  0  0  0  0  0  0  0  0
   46.4790   34.3540   43.7770 C   0  0  0  0  0  0  0  0  0  0  0  0
   45.8980   34.1830   44.9700 N   0  0  0  0  0  0  0  0  0  0  0  0
   44.8720   34.9240   45.4050 C   0  0  0  0  0  0  0  0  0  0  0  0
   44.3480   35.9090   44.6560 N   0  0  0  0  0  0  0  0  0  0  0  0
   44.3340   34.6690   46.6630 N   0  0  0  0  0  0  0  0  0  0  0  0
   47.5880   33.5460   43.3140 C   0  0  0  0  0  0  0  0  0  0  0  0
   47.6070   32.3160   43.6800 O   0  0  0  0  0  0  0  0  0  0  0  0
   48.5720   34.0470   42.5290 O   0  0  0  0  0  0  0  0  0  0  0  0
   48.6480   33.6220   41.1890 C   0  0  0  0  0  0  0  0  0  0  0  0
   48.0670   34.4780   40.2470 C   0  0  0  0  0  0  0  0  0  0  0  0
   48.1110   34.1090   38.9110 C   0  0  0  0  0  0  0  0  0  0  0  0
   48.7050   32.9630   38.6130 N   0  0  0  0  0  0  0  0  0  0  0  0
   49.2570   32.1520   39.5250 C   0  0  0  0  0  0  0  0  0  0  0  0
   49.2330   32.4790   40.8350 N   0  0  0  0  0  0  0  0  0  0  0  0
   44.4704   36.9355   42.8153 H   0  0  0  0  0  0  0  0  0  0  0  0
   46.4019   35.5702   41.9583 H   0  0  0  0  0  0  0  0  0  0  0  0
   43.5442   35.2323   47.0092 H   0  0  0  0  0  0  0  0  0  0  0  0
   44.7256   33.9170   47.2478 H   0  0  0  0  0  0  0  0  0  0  0  0
   47.5882   35.4183   40.5578 H   0  0  0  0  0  0  0  0  0  0  0  0
   47.6695   34.7437   38.1285 H   0  0  0  0  0  0  0  0  0  0  0  0
   49.7330   31.2134   39.2048 H   0  0  0  0  0  0  0  0  0  0  0  0
  1  6  2  0
  2  1  1  0
  2  3  2  0
  3  4  1  0
  4  5  2  0
  5  7  1  0
  6  5  1  0
  8  9  2  0
  8  3  1  0
 10  8  1  0
 11 10  1  0
 12 11  2  0
 13 12  1  0
 14 13  2  0
 14 15  1  0
 15 16  2  0
 16 11  1  0
  1 17  1  0
  2 18  1  0
  7 19  1  0
  7 20  1  0
 12 21  1  0
 13 22  1  0
 15 23  1  0
M  ISO  5  17  14  18  14  21  14  22  14  23  14
M  END
>  <minimizedAffinity>  (1) 
-4.92217112

>  <minimizedRMSD>  (1) 
1.25041425

$$$$
