
     RDKit          3D

 27 27  0  0  0  0  0  0  0  0999 V2000
   45.0370   36.2070   43.2390 C   0  0  0  0  0  0  0  0  0  0  0  0
   45.9840   35.2410   42.8110 C   0  0  0  0  0  0  0  0  0  0  0  0
   46.3260   34.2090   43.6840 C   0  0  0  0  0  0  0  0  0  0  0  0
   45.7390   34.1750   44.8980 N   0  0  0  0  0  0  0  0  0  0  0  0
   44.8440   35.1080   45.2730 C   0  0  0  0  0  0  0  0  0  0  0  0
   44.4820   36.1220   44.4670 N   0  0  0  0  0  0  0  0  0  0  0  0
   44.2800   35.0050   46.5460 N   0  0  0  0  0  0  0  0  0  0  0  0
   47.2960   33.2020   43.2730 C   0  0  0  0  0  0  0  0  0  0  0  0
   46.8350   32.0760   42.8640 O   0  0  0  0  0  0  0  0  0  0  0  0
   48.6410   33.4440   43.3200 O   0  0  0  0  0  0  0  0  0  0  0  0
   49.3620   33.9520   42.2460 C   0  0  0  0  0  0  0  0  0  0  0  0
   48.7320   33.4660   40.9360 C   0  0  0  0  0  0  0  0  0  0  0  0
   49.5280   35.4260   42.1910 C   0  0  0  0  0  0  0  0  0  0  0  0
   50.7430   33.2990   42.2830 C   0  0  0  0  0  0  0  0  0  0  0  0
   44.7533   37.0300   42.5665 H   0  0  0  0  0  0  0  0  0  0  0  0
   46.4388   35.3049   41.8115 H   0  0  0  0  0  0  0  0  0  0  0  0
   43.5921   35.7032   46.8625 H   0  0  0  0  0  0  0  0  0  0  0  0
   44.5518   34.2308   47.1686 H   0  0  0  0  0  0  0  0  0  0  0  0
   47.8795   32.8083   41.1610 H   0  0  0  0  0  0  0  0  0  0  0  0
   48.3836   34.3316   40.3534 H   0  0  0  0  0  0  0  0  0  0  0  0
   49.4808   32.9093   40.3534 H   0  0  0  0  0  0  0  0  0  0  0  0
   49.5733   35.8283   43.2138 H   0  0  0  0  0  0  0  0  0  0  0  0
   50.4594   35.6705   41.6592 H   0  0  0  0  0  0  0  0  0  0  0  0
   48.6744   35.8715   41.6592 H   0  0  0  0  0  0  0  0  0  0  0  0
   51.0517   33.1530   43.3287 H   0  0  0  0  0  0  0  0  0  0  0  0
   50.7018   32.3250   41.7735 H   0  0  0  0  0  0  0  0  0  0  0  0
   51.4697   33.9489   41.7735 H   0  0  0  0  0  0  0  0  0  0  0  0
  1  6  2  0
  2  1  1  0
  2  3  2  0
  3  4  1  0
  4  5  2  0
  5  7  1  0
  6  5  1  0
  8 10  1  0
  8  3  1  0
  9  8  2  0
 11 14  1  0
 11 10  1  0
 12 11  1  0
 13 11  1  0
  1 15  1  0
  2 16  1  0
  7 17  1  0
  7 18  1  0
 12 19  1  0
 12 20  1  0
 12 21  1  0
 13 22  1  0
 13 23  1  0
 13 24  1  0
 14 25  1  0
 14 26  1  0
 14 27  1  0
M  ISO  8  15  14  16  14  19   8  20   8  21   8  22   8  23   8  24   8
M  ISO  3  25   8  26   8  27   8
M  END
>  <minimizedAffinity>  (1) 
-5.00777864

>  <minimizedRMSD>  (1) 
1.62925637

$$$$
