
     RDKit          3D

 29 31  0  0  1  0  0  0  0  0999 V2000
   45.7880   34.1310   41.6770 N   0  0  0  0  0  0  0  0  0  0  0  0
   45.0160   33.7390   40.6280 C   0  0  0  0  0  0  0  0  0  0  0  0
   45.7870   33.5390   39.5490 N   0  0  0  0  0  0  0  0  0  0  0  0
   47.0650   33.8060   39.9210 C   0  0  0  0  0  0  0  0  0  0  0  0
   47.0160   34.1600   41.2120 N   0  0  0  0  0  0  0  0  0  0  0  0
   44.8350   35.7230   43.2170 C   0  0  0  0  0  0  0  0  0  0  0  0
   45.4480   34.4580   43.0090 C   0  0  0  0  0  0  0  0  0  0  0  0
   45.6630   33.6520   44.1050 C   0  0  0  0  0  0  0  0  0  0  0  0
   45.2710   34.1290   45.3230 N   0  0  0  0  0  0  0  0  0  0  0  0
   44.6980   35.3190   45.4920 C   0  0  0  0  0  0  0  0  0  0  0  0
   44.4830   36.1070   44.4410 N   0  0  0  0  0  0  0  0  0  0  0  0
   48.3220   33.7540   39.1300 C   0  0  2  0  0  0  0  0  0  0  0  0
   48.3090   34.5010   37.7820 C   0  0  0  0  0  0  0  0  0  0  0  0
   48.3450   32.9640   37.8520 C   0  0  1  0  0  0  0  0  0  0  0  0
   49.6170   32.2420   37.5620 C   0  0  0  0  0  0  0  0  0  0  0  0
   50.1020   31.6570   38.8920 C   0  0  0  0  0  0  0  0  0  0  0  0
   43.9245   33.6061   40.6598 H   0  0  0  0  0  0  0  0  0  0  0  0
   44.6505   36.3886   42.3609 H   0  0  0  0  0  0  0  0  0  0  0  0
   46.1323   32.6624   44.0031 H   0  0  0  0  0  0  0  0  0  0  0  0
   44.4028   35.6503   46.4985 H   0  0  0  0  0  0  0  0  0  0  0  0
   48.9548   33.7586   40.0297 H   0  0  0  0  0  0  0  0  0  0  0  0
   49.1953   35.0618   37.4504 H   0  0  0  0  0  0  0  0  0  0  0  0
   47.6627   35.2523   37.3046 H   0  0  0  0  0  0  0  0  0  0  0  0
   47.7295   32.1778   37.3905 H   0  0  0  0  0  0  0  0  0  0  0  0
   49.4384   31.4356   36.8355 H   0  0  0  0  0  0  0  0  0  0  0  0
   50.3679   32.9198   37.1298 H   0  0  0  0  0  0  0  0  0  0  0  0
   49.6434   32.2102   39.7249 H   0  0  0  0  0  0  0  0  0  0  0  0
   49.8140   30.5971   38.9531 H   0  0  0  0  0  0  0  0  0  0  0  0
   51.1969   31.7436   38.9531 H   0  0  0  0  0  0  0  0  0  0  0  0
  1  7  1  0
  2  1  1  0
  3  4  1  0
  3  2  2  0
  4  5  2  0
  5  1  1  0
  6 11  2  0
  7  6  1  0
  7  8  2  0
  8  9  1  0
  9 10  2  0
 11 10  1  0
 12  4  1  0
 13 14  1  0
 13 12  1  0
 14 12  1  0
 15 14  1  0
 15 16  1  0
  2 17  1  0
  6 18  1  0
  8 19  1  0
 10 20  1  0
 12 21  1  1
 13 22  1  0
 13 23  1  0
 14 24  1  6
 15 25  1  0
 15 26  1  0
 16 27  1  0
 16 28  1  0
 16 29  1  0
M  ISO  8  17  14  18  14  19  14  20  14  21  13  22  13  23  13  24  13
M  ISO  5  25   8  26   8  27   8  28   8  29   8
M  END
>  <minimizedAffinity>  (1) 
-4.07747269

>  <minimizedRMSD>  (1) 
0.460150033

$$$$
