
     RDKit          3D

 18 18  0  0  0  0  0  0  0  0999 V2000
   44.6110   36.0850   44.3730 C   0  0  0  0  0  0  0  0  0  0  0  0
   45.4260   35.6980   43.2930 C   0  0  0  0  0  0  0  0  0  0  0  0
   46.2050   34.5380   43.4170 C   0  0  0  0  0  0  0  0  0  0  0  0
   46.1300   33.8460   44.5820 N   0  0  0  0  0  0  0  0  0  0  0  0
   45.3350   34.2520   45.5930 C   0  0  0  0  0  0  0  0  0  0  0  0
   44.5700   35.3660   45.5060 N   0  0  0  0  0  0  0  0  0  0  0  0
   45.3120   33.4910   46.7550 N   0  0  0  0  0  0  0  0  0  0  0  0
   47.0670   34.0880   42.3340 C   0  0  0  0  0  0  0  0  0  0  0  0
   47.2590   32.8490   42.1820 O   0  0  0  0  0  0  0  0  0  0  0  0
   47.6510   35.0160   41.5080 O   0  0  0  0  0  0  0  0  0  0  0  0
   48.1440   34.6420   40.2520 C   0  0  0  0  0  0  0  0  0  0  0  0
   43.9963   36.9932   44.2873 H   0  0  0  0  0  0  0  0  0  0  0  0
   45.4517   36.2940   42.3688 H   0  0  0  0  0  0  0  0  0  0  0  0
   44.7150   33.7750   47.5449 H   0  0  0  0  0  0  0  0  0  0  0  0
   45.8919   32.6428   46.8267 H   0  0  0  0  0  0  0  0  0  0  0  0
   49.0143   33.9818   40.3814 H   0  0  0  0  0  0  0  0  0  0  0  0
   47.3597   34.1096   39.6939 H   0  0  0  0  0  0  0  0  0  0  0  0
   48.4453   35.5407   39.6939 H   0  0  0  0  0  0  0  0  0  0  0  0
  1  6  2  0
  2  3  2  0
  2  1  1  0
  3  4  1  0
  4  5  2  0
  5  7  1  0
  6  5  1  0
  8  3  1  0
  9  8  2  0
 10  8  1  0
 11 10  1  0
  1 12  1  0
  2 13  1  0
  7 14  1  0
  7 15  1  0
 11 16  1  0
 11 17  1  0
 11 18  1  0
M  ISO  5  12  14  13  14  16   8  17   8  18   8
M  END
>  <minimizedAffinity>  (1) 
-3.9496932

>  <minimizedRMSD>  (1) 
0.156038016

$$$$
