
     RDKit          3D

 41 44  0  0  1  0  0  0  0  0999 V2000
   49.4970   33.8580   42.1600 C   0  0  2  0  0  0  0  0  0  0  0  0
   49.8810   35.1330   42.3040 C   0  0  0  0  0  0  0  0  0  0  0  0
   48.8310   35.7220   41.3840 C   0  0  0  0  0  0  0  0  0  0  0  0
   47.6490   34.8220   41.3370 C   0  0  0  0  0  0  0  0  0  0  0  0
   48.0910   33.5320   42.0680 C   0  0  2  0  0  0  0  0  0  0  0  0
   47.3400   33.5130   43.3040 N   0  0  0  0  0  0  0  0  0  0  0  0
   47.3970   32.6700   44.3370 C   0  0  0  0  0  0  0  0  0  0  0  0
   46.4870   33.0700   45.2690 N   0  0  0  0  0  0  0  0  0  0  0  0
   45.8730   34.1610   44.8000 C   0  0  0  0  0  0  0  0  0  0  0  0
   44.8850   35.0010   45.2710 C   0  0  0  0  0  0  0  0  0  0  0  0
   44.4270   36.0710   44.5790 N   0  0  0  0  0  0  0  0  0  0  0  0
   44.9640   36.3310   43.3650 C   0  0  0  0  0  0  0  0  0  0  0  0
   45.9300   35.5250   42.8850 N   0  0  0  0  0  0  0  0  0  0  0  0
   46.4020   34.4510   43.5590 C   0  0  0  0  0  0  0  0  0  0  0  0
   44.2940   34.7700   46.5320 N   0  0  0  0  0  0  0  0  0  0  0  0
   50.0510   32.9720   43.0960 O   0  0  0  0  0  0  0  0  0  0  0  0
   50.6020   32.0200   42.3330 C   0  0  0  0  0  0  0  0  0  0  0  0
   51.2680   32.4390   41.3590 O   0  0  0  0  0  0  0  0  0  0  0  0
   49.0780   28.6420   42.6870 C   0  0  0  0  0  0  0  0  0  0  0  0
   49.2100   30.0360   42.4940 C   0  0  0  0  0  0  0  0  0  0  0  0
   50.4590   30.6110   42.5740 C   0  0  0  0  0  0  0  0  0  0  0  0
   51.4750   29.8150   42.8320 N   0  0  0  0  0  0  0  0  0  0  0  0
   51.3670   28.4970   43.0150 C   0  0  0  0  0  0  0  0  0  0  0  0
   50.1840   27.8930   42.9480 N   0  0  0  0  0  0  0  0  0  0  0  0
   52.5260   27.7640   43.2740 N   0  0  0  0  0  0  0  0  0  0  0  0
   49.9099   33.7230   41.1494 H   0  0  0  0  0  0  0  0  0  0  0  0
   49.7865   35.4905   43.3400 H   0  0  0  0  0  0  0  0  0  0  0  0
   50.9320   35.3680   42.0800 H   0  0  0  0  0  0  0  0  0  0  0  0
   48.5251   36.7088   41.7617 H   0  0  0  0  0  0  0  0  0  0  0  0
   49.2496   35.8289   40.3724 H   0  0  0  0  0  0  0  0  0  0  0  0
   46.7929   35.2827   41.8516 H   0  0  0  0  0  0  0  0  0  0  0  0
   47.3276   34.6196   40.3047 H   0  0  0  0  0  0  0  0  0  0  0  0
   47.9309   32.5308   41.6414 H   0  0  0  0  0  0  0  0  0  0  0  0
   48.0650   31.8002   44.4217 H   0  0  0  0  0  0  0  0  0  0  0  0
   44.6151   37.1920   42.7760 H   0  0  0  0  0  0  0  0  0  0  0  0
   43.5568   35.4004   46.8785 H   0  0  0  0  0  0  0  0  0  0  0  0
   44.5999   33.9710   47.1056 H   0  0  0  0  0  0  0  0  0  0  0  0
   48.0882   28.1658   42.6267 H   0  0  0  0  0  0  0  0  0  0  0  0
   48.3253   30.6545   42.2823 H   0  0  0  0  0  0  0  0  0  0  0  0
   52.4698   26.7458   43.4189 H   0  0  0  0  0  0  0  0  0  0  0  0
   53.4376   28.2412   43.3203 H   0  0  0  0  0  0  0  0  0  0  0  0
  1  2  1  0
  1 16  1  0
  3  2  1  0
  4  3  1  0
  4  5  1  0
  5  1  1  0
  5  6  1  0
  6 14  1  0
  6  7  1  0
  7  8  2  0
  9  8  1  0
  9 10  2  0
 10 15  1  0
 11 10  1  0
 12 11  2  0
 13 12  1  0
 13 14  2  0
 14  9  1  0
 17 21  1  0
 17 16  1  0
 18 17  2  0
 19 24  2  0
 20 21  2  0
 20 19  1  0
 21 22  1  0
 22 23  2  0
 23 25  1  0
 24 23  1  0
  1 26  1  6
  2 27  1  0
  2 28  1  0
  3 29  1  0
  3 30  1  0
  4 31  1  0
  4 32  1  0
  5 33  1  6
  7 34  1  0
 12 35  1  0
 15 36  1  0
 15 37  1  0
 19 38  1  0
 20 39  1  0
 25 40  1  0
 25 41  1  0
M  ISO  8  26  13  27  13  28  13  29  13  30  13  31  13  32  13  33  13
M  ISO  4  34  14  35  14  38  14  39  14
M  END
>  <minimizedAffinity>  (1) 
-5.96573305

>  <minimizedRMSD>  (1) 
6.60015249

$$$$
