
     RDKit          3D

 37 38  0  0  1  0  0  0  0  0999 V2000
   47.7170   32.9710   41.6770 C   0  0  2  0  0  0  0  0  0  0  0  0
   48.6310   32.2220   41.0470 C   0  0  0  0  0  0  0  0  0  0  0  0
   48.6720   33.0360   39.7730 C   0  0  0  0  0  0  0  0  0  0  0  0
   48.1280   34.3900   40.0020 C   0  0  0  0  0  0  0  0  0  0  0  0
   47.7410   34.4070   41.5260 C   0  0  2  0  0  0  0  0  0  0  0  0
   48.9070   35.1290   42.1520 C   0  0  0  0  0  0  0  0  0  0  0  0
   49.3540   36.3700   41.4650 C   0  0  0  0  0  0  0  0  0  0  0  0
   50.0780   34.1880   42.3350 C   0  0  0  0  0  0  0  0  0  0  0  0
   47.5900   32.7330   43.0500 O   0  0  0  0  0  0  0  0  0  0  0  0
   46.2740   32.8330   43.2670 C   0  0  0  0  0  0  0  0  0  0  0  0
   45.5680   32.0260   42.6180 O   0  0  0  0  0  0  0  0  0  0  0  0
   44.5960   35.9060   44.5250 C   0  0  0  0  0  0  0  0  0  0  0  0
   45.2420   34.9880   43.6650 C   0  0  0  0  0  0  0  0  0  0  0  0
   45.6620   33.7730   44.1560 C   0  0  0  0  0  0  0  0  0  0  0  0
   45.4360   33.5300   45.4330 N   0  0  0  0  0  0  0  0  0  0  0  0
   44.8270   34.3880   46.2570 C   0  0  0  0  0  0  0  0  0  0  0  0
   44.4000   35.5750   45.8270 N   0  0  0  0  0  0  0  0  0  0  0  0
   44.6440   33.9990   47.5860 N   0  0  0  0  0  0  0  0  0  0  0  0
   46.8569   32.5964   41.1027 H   0  0  0  0  0  0  0  0  0  0  0  0
   49.5985   32.2067   41.5702 H   0  0  0  0  0  0  0  0  0  0  0  0
   48.4092   31.1495   40.9443 H   0  0  0  0  0  0  0  0  0  0  0  0
   48.0714   32.5310   39.0021 H   0  0  0  0  0  0  0  0  0  0  0  0
   49.7177   33.1256   39.4435 H   0  0  0  0  0  0  0  0  0  0  0  0
   48.8873   35.1558   39.7852 H   0  0  0  0  0  0  0  0  0  0  0  0
   47.2699   34.6115   39.3503 H   0  0  0  0  0  0  0  0  0  0  0  0
   46.8356   34.8821   41.9317 H   0  0  0  0  0  0  0  0  0  0  0  0
   48.5205   35.4710   43.1234 H   0  0  0  0  0  0  0  0  0  0  0  0
   49.6265   37.1267   42.2154 H   0  0  0  0  0  0  0  0  0  0  0  0
   50.2280   36.1462   40.8357 H   0  0  0  0  0  0  0  0  0  0  0  0
   48.5380   36.7550   40.8357 H   0  0  0  0  0  0  0  0  0  0  0  0
   50.2640   34.0386   43.4088 H   0  0  0  0  0  0  0  0  0  0  0  0
   49.8480   33.2206   41.8646 H   0  0  0  0  0  0  0  0  0  0  0  0
   50.9732   34.6208   41.8646 H   0  0  0  0  0  0  0  0  0  0  0  0
   44.2554   36.8795   44.1425 H   0  0  0  0  0  0  0  0  0  0  0  0
   45.4081   35.2440   42.6082 H   0  0  0  0  0  0  0  0  0  0  0  0
   44.1785   34.6348   48.2493 H   0  0  0  0  0  0  0  0  0  0  0  0
   44.9746   33.0763   47.9027 H   0  0  0  0  0  0  0  0  0  0  0  0
  1  9  1  0
  2  1  1  0
  3  4  1  0
  3  2  1  0
  4  5  1  0
  5  1  1  0
  5  6  1  0
  6  8  1  0
  7  6  1  0
  9 10  1  0
 10 14  1  0
 11 10  2  0
 12 17  2  0
 13 14  2  0
 13 12  1  0
 14 15  1  0
 15 16  2  0
 16 18  1  0
 17 16  1  0
  1 19  1  6
  2 20  1  0
  2 21  1  0
  3 22  1  0
  3 23  1  0
  4 24  1  0
  4 25  1  0
  5 26  1  6
  6 27  1  0
  7 28  1  0
  7 29  1  0
  7 30  1  0
  8 31  1  0
  8 32  1  0
  8 33  1  0
 12 34  1  0
 13 35  1  0
 18 36  1  0
 18 37  1  0
M  ISO  8  19  13  20  13  21  13  22  13  23  13  24  13  25  13  26  13
M  ISO  8  27   8  28   8  29   8  30   8  31   8  32   8  33   8  34  14
M  ISO  1  35  14
M  END
>  <minimizedAffinity>  (1) 
-5.40085888

>  <minimizedRMSD>  (1) 
1.11189079

$$$$
