
     RDKit          3D

 37 39  0  0  1  0  0  0  0  0999 V2000
   47.7220   31.5260   42.3540 C   0  0  2  0  0  0  0  0  0  0  0  0
   48.7970   30.7540   42.1350 C   0  0  0  0  0  0  0  0  0  0  0  0
   48.1040   29.7520   41.2380 C   0  0  0  0  0  0  0  0  0  0  0  0
   46.9060   30.3680   40.6200 C   0  0  0  0  0  0  0  0  0  0  0  0
   46.7820   31.7700   41.2850 C   0  0  2  0  0  0  0  0  0  0  0  0
   47.3370   32.7100   40.2820 C   0  0  0  0  0  0  0  0  0  0  0  0
   47.7980   33.9740   40.5450 C   0  0  0  0  0  0  0  0  0  0  0  0
   48.3090   34.8210   39.5880 C   0  0  0  0  0  0  0  0  0  0  0  0
   48.3730   34.3950   38.2680 C   0  0  0  0  0  0  0  0  0  0  0  0
   47.8990   33.1220   38.0630 C   0  0  0  0  0  0  0  0  0  0  0  0
   47.4030   32.3070   39.0120 N   0  0  0  0  0  0  0  0  0  0  0  0
   48.0020   32.7720   42.9270 O   0  0  0  0  0  0  0  0  0  0  0  0
   47.2500   32.7830   44.0330 C   0  0  0  0  0  0  0  0  0  0  0  0
   47.4080   31.8020   44.7950 O   0  0  0  0  0  0  0  0  0  0  0  0
   45.0510   35.7700   43.7110 C   0  0  0  0  0  0  0  0  0  0  0  0
   46.0010   34.7650   43.4120 C   0  0  0  0  0  0  0  0  0  0  0  0
   46.3150   33.8190   44.3620 C   0  0  0  0  0  0  0  0  0  0  0  0
   45.7080   33.8890   45.5320 N   0  0  0  0  0  0  0  0  0  0  0  0
   44.8030   34.8430   45.8250 C   0  0  0  0  0  0  0  0  0  0  0  0
   44.4620   35.7850   44.9380 N   0  0  0  0  0  0  0  0  0  0  0  0
   44.2160   34.8300   47.0970 N   0  0  0  0  0  0  0  0  0  0  0  0
   47.2246   30.8397   43.0551 H   0  0  0  0  0  0  0  0  0  0  0  0
   49.6074   31.2923   41.6218 H   0  0  0  0  0  0  0  0  0  0  0  0
   49.3136   30.3561   43.0209 H   0  0  0  0  0  0  0  0  0  0  0  0
   48.7975   29.4307   40.4469 H   0  0  0  0  0  0  0  0  0  0  0  0
   47.7944   28.8837   41.8383 H   0  0  0  0  0  0  0  0  0  0  0  0
   47.0400   30.4668   39.5327 H   0  0  0  0  0  0  0  0  0  0  0  0
   46.0035   29.7580   40.7731 H   0  0  0  0  0  0  0  0  0  0  0  0
   45.8035   32.1557   41.6070 H   0  0  0  0  0  0  0  0  0  0  0  0
   47.7570   34.3331   41.5839 H   0  0  0  0  0  0  0  0  0  0  0  0
   48.6629   35.8247   39.8659 H   0  0  0  0  0  0  0  0  0  0  0  0
   48.7692   35.0228   37.4563 H   0  0  0  0  0  0  0  0  0  0  0  0
   47.9274   32.7353   37.0336 H   0  0  0  0  0  0  0  0  0  0  0  0
   44.7913   36.5308   42.9602 H   0  0  0  0  0  0  0  0  0  0  0  0
   46.4865   34.7395   42.4252 H   0  0  0  0  0  0  0  0  0  0  0  0
   43.5207   35.5463   47.3507 H   0  0  0  0  0  0  0  0  0  0  0  0
   44.4798   34.1041   47.7785 H   0  0  0  0  0  0  0  0  0  0  0  0
  1 12  1  0
  2  1  1  0
  3  2  1  0
  4  3  1  0
  4  5  1  0
  5  1  1  0
  6  7  2  0
  6  5  1  0
  8  7  1  0
  9  8  2  0
 10  9  1  0
 10 11  2  0
 11  6  1  0
 12 13  1  0
 13 17  1  0
 13 14  2  0
 15 20  2  0
 16 15  1  0
 16 17  2  0
 17 18  1  0
 18 19  2  0
 19 21  1  0
 20 19  1  0
  1 22  1  1
  2 23  1  0
  2 24  1  0
  3 25  1  0
  3 26  1  0
  4 27  1  0
  4 28  1  0
  5 29  1  1
  7 30  1  0
  8 31  1  0
  9 32  1  0
 10 33  1  0
 15 34  1  0
 16 35  1  0
 21 36  1  0
 21 37  1  0
M  ISO  8  22  13  23  13  24  13  25  13  26  13  27  13  28  13  29  13
M  ISO  6  30  14  31  14  32  14  33  14  34  14  35  14
M  END
>  <minimizedAffinity>  (1) 
-4.96148539

>  <minimizedRMSD>  (1) 
2.81246567

$$$$
