
     RDKit          3D

 40 41  0  0  1  0  0  0  0  0999 V2000
   46.1510   32.3980   40.5790 C   0  0  2  0  0  0  0  0  0  0  0  0
   46.4380   31.1830   40.0700 C   0  0  0  0  0  0  0  0  0  0  0  0
   46.1550   31.5390   38.6220 C   0  0  0  0  0  0  0  0  0  0  0  0
   46.1980   33.0040   38.4400 C   0  0  0  0  0  0  0  0  0  0  0  0
   46.5380   33.5800   39.8700 C   0  0  2  0  0  0  0  0  0  0  0  0
   48.0000   33.9350   39.7660 C   0  0  0  0  0  0  0  0  0  0  0  0
   48.9840   32.8480   40.0350 C   0  0  0  0  0  0  0  0  0  0  0  0
   48.4090   35.0770   40.7030 C   0  0  0  0  0  0  0  0  0  0  0  0
   48.3310   34.3860   38.3290 C   0  0  0  0  0  0  0  0  0  0  0  0
   46.5130   32.5960   41.9140 O   0  0  0  0  0  0  0  0  0  0  0  0
   45.3710   32.9610   42.5050 C   0  0  0  0  0  0  0  0  0  0  0  0
   44.4250   32.1500   42.3800 O   0  0  0  0  0  0  0  0  0  0  0  0
   45.0070   36.5840   43.2650 C   0  0  0  0  0  0  0  0  0  0  0  0
   45.2320   35.3750   42.5640 C   0  0  0  0  0  0  0  0  0  0  0  0
   45.1780   34.1740   43.2360 C   0  0  0  0  0  0  0  0  0  0  0  0
   44.9140   34.2130   44.5290 N   0  0  0  0  0  0  0  0  0  0  0  0
   44.6990   35.3460   45.2050 C   0  0  0  0  0  0  0  0  0  0  0  0
   44.7400   36.5400   44.5970 N   0  0  0  0  0  0  0  0  0  0  0  0
   44.4230   35.2650   46.5720 N   0  0  0  0  0  0  0  0  0  0  0  0
   45.0620   32.3010   40.4578 H   0  0  0  0  0  0  0  0  0  0  0  0
   47.4849   30.8897   40.2376 H   0  0  0  0  0  0  0  0  0  0  0  0
   45.8925   30.3246   40.4889 H   0  0  0  0  0  0  0  0  0  0  0  0
   46.9133   31.0702   37.9776 H   0  0  0  0  0  0  0  0  0  0  0  0
   45.1539   31.1725   38.3510 H   0  0  0  0  0  0  0  0  0  0  0  0
   46.9777   33.2814   37.7154 H   0  0  0  0  0  0  0  0  0  0  0  0
   45.2501   33.4010   38.0478 H   0  0  0  0  0  0  0  0  0  0  0  0
   46.0844   34.4756   40.3197 H   0  0  0  0  0  0  0  0  0  0  0  0
   49.1004   32.7194   41.1212 H   0  0  0  0  0  0  0  0  0  0  0  0
   48.6230   31.9085   39.5911 H   0  0  0  0  0  0  0  0  0  0  0  0
   49.9547   33.1140   39.5911 H   0  0  0  0  0  0  0  0  0  0  0  0
   48.2931   34.7533   41.7479 H   0  0  0  0  0  0  0  0  0  0  0  0
   49.4593   35.3458   40.5168 H   0  0  0  0  0  0  0  0  0  0  0  0
   47.7682   35.9514   40.5168 H   0  0  0  0  0  0  0  0  0  0  0  0
   48.9815   35.2724   38.3636 H   0  0  0  0  0  0  0  0  0  0  0  0
   48.8479   33.5723   37.7992 H   0  0  0  0  0  0  0  0  0  0  0  0
   47.3997   34.6351   37.7992 H   0  0  0  0  0  0  0  0  0  0  0  0
   45.0478   37.5485   42.7376 H   0  0  0  0  0  0  0  0  0  0  0  0
   45.4493   35.3946   41.4859 H   0  0  0  0  0  0  0  0  0  0  0  0
   44.2537   36.1237   47.1150 H   0  0  0  0  0  0  0  0  0  0  0  0
   44.3888   34.3465   47.0369 H   0  0  0  0  0  0  0  0  0  0  0  0
  1 10  1  0
  2  1  1  0
  3  2  1  0
  4  3  1  0
  4  5  1  0
  5  1  1  0
  6  5  1  0
  6  7  1  0
  6  8  1  0
  9  6  1  0
 10 11  1  0
 11 15  1  0
 12 11  2  0
 13 18  2  0
 14 15  2  0
 14 13  1  0
 15 16  1  0
 16 17  2  0
 17 19  1  0
 18 17  1  0
  1 20  1  1
  2 21  1  0
  2 22  1  0
  3 23  1  0
  3 24  1  0
  4 25  1  0
  4 26  1  0
  5 27  1  1
  7 28  1  0
  7 29  1  0
  7 30  1  0
  8 31  1  0
  8 32  1  0
  8 33  1  0
  9 34  1  0
  9 35  1  0
  9 36  1  0
 13 37  1  0
 14 38  1  0
 19 39  1  0
 19 40  1  0
M  ISO  8  20  13  21  13  22  13  23  13  24  13  25  13  26  13  27  13
M  ISO  8  28   8  29   8  30   8  31   8  32   8  33   8  34   8  35   8
M  ISO  3  36   8  37  14  38  14
M  END
>  <minimizedAffinity>  (1) 
-4.96912336

>  <minimizedRMSD>  (1) 
2.16975999

$$$$
