
     RDKit          3D

 34 36  0  0  1  0  0  0  0  0999 V2000
   47.4870   33.3390   43.2070 C   0  0  2  0  0  0  0  0  0  0  0  0
   48.5080   34.0790   42.7540 C   0  0  0  0  0  0  0  0  0  0  0  0
   47.9530   34.2750   41.3570 C   0  0  0  0  0  0  0  0  0  0  0  0
   46.4630   34.2250   41.4140 C   0  0  0  0  0  0  0  0  0  0  0  0
   46.1310   33.6560   42.8090 C   0  0  2  0  0  0  0  0  0  0  0  0
   45.5240   34.7420   43.5430 N   0  0  0  0  0  0  0  0  0  0  0  0
   45.3600   36.0250   43.2710 C   0  0  0  0  0  0  0  0  0  0  0  0
   44.7200   36.6260   44.3050 N   0  0  0  0  0  0  0  0  0  0  0  0
   44.4930   35.6670   45.2250 C   0  0  0  0  0  0  0  0  0  0  0  0
   44.9910   34.5150   44.7490 N   0  0  0  0  0  0  0  0  0  0  0  0
   47.4570   33.1750   44.5980 O   0  0  0  0  0  0  0  0  0  0  0  0
   47.3800   31.8450   44.7480 C   0  0  0  0  0  0  0  0  0  0  0  0
   47.9050   31.1710   43.8300 O   0  0  0  0  0  0  0  0  0  0  0  0
   45.0880   29.6580   46.6980 C   0  0  0  0  0  0  0  0  0  0  0  0
   45.6890   30.3430   45.6170 C   0  0  0  0  0  0  0  0  0  0  0  0
   46.7500   31.1890   45.8570 C   0  0  0  0  0  0  0  0  0  0  0  0
   47.1650   31.3280   47.1020 N   0  0  0  0  0  0  0  0  0  0  0  0
   46.5900   30.6730   48.1360 C   0  0  0  0  0  0  0  0  0  0  0  0
   45.5650   29.8440   47.9540 N   0  0  0  0  0  0  0  0  0  0  0  0
   47.1120   30.8960   49.4160 N   0  0  0  0  0  0  0  0  0  0  0  0
   47.7624   32.4182   42.6720 H   0  0  0  0  0  0  0  0  0  0  0  0
   48.6231   35.0256   43.3024 H   0  0  0  0  0  0  0  0  0  0  0  0
   49.5165   33.6479   42.8377 H   0  0  0  0  0  0  0  0  0  0  0  0
   48.3237   33.4764   40.6976 H   0  0  0  0  0  0  0  0  0  0  0  0
   48.2770   35.2492   40.9621 H   0  0  0  0  0  0  0  0  0  0  0  0
   46.0384   35.2330   41.2974 H   0  0  0  0  0  0  0  0  0  0  0  0
   46.0410   33.6080   40.6070 H   0  0  0  0  0  0  0  0  0  0  0  0
   45.4419   32.8062   42.9233 H   0  0  0  0  0  0  0  0  0  0  0  0
   45.6909   36.5270   42.3499 H   0  0  0  0  0  0  0  0  0  0  0  0
   43.9894   35.8042   46.1933 H   0  0  0  0  0  0  0  0  0  0  0  0
   44.2403   28.9796   46.5218 H   0  0  0  0  0  0  0  0  0  0  0  0
   45.3128   30.2018   44.5930 H   0  0  0  0  0  0  0  0  0  0  0  0
   46.7022   30.4162   50.2301 H   0  0  0  0  0  0  0  0  0  0  0  0
   47.9058   31.5398   49.5435 H   0  0  0  0  0  0  0  0  0  0  0  0
  1 11  1  0
  2  1  1  0
  3  4  1  0
  3  2  1  0
  4  5  1  0
  5  1  1  0
  5  6  1  0
  6 10  1  0
  7  6  1  0
  7  8  2  0
  8  9  1  0
 10  9  2  0
 11 12  1  0
 12 16  1  0
 13 12  2  0
 14 19  2  0
 15 16  2  0
 15 14  1  0
 16 17  1  0
 17 18  2  0
 18 20  1  0
 19 18  1  0
  1 21  1  6
  2 22  1  0
  2 23  1  0
  3 24  1  0
  3 25  1  0
  4 26  1  0
  4 27  1  0
  5 28  1  6
  7 29  1  0
  9 30  1  0
 14 31  1  0
 15 32  1  0
 20 33  1  0
 20 34  1  0
M  ISO  8  21  13  22  13  23  13  24  13  25  13  26  13  27  13  28  13
M  ISO  4  29  14  30  14  31  14  32  14
M  END
>  <minimizedAffinity>  (1) 
-4.97400808

>  <minimizedRMSD>  (1) 
4.31103373

$$$$
