
     RDKit          3D

 23 25  0  0  0  0  0  0  0  0999 V2000
   45.3270   36.1920   43.1720 C   0  0  0  0  0  0  0  0  0  0  0  0
   45.9140   34.9410   42.9340 C   0  0  0  0  0  0  0  0  0  0  0  0
   45.8310   33.9540   43.9110 C   0  0  0  0  0  0  0  0  0  0  0  0
   45.1680   34.2810   45.0640 N   0  0  0  0  0  0  0  0  0  0  0  0
   44.6080   35.4980   45.2750 C   0  0  0  0  0  0  0  0  0  0  0  0
   44.6990   36.4360   44.3190 N   0  0  0  0  0  0  0  0  0  0  0  0
   46.3760   32.6570   43.7960 N   0  0  0  0  0  0  0  0  0  0  0  0
   45.9150   31.4470   43.4670 C   0  0  0  0  0  0  0  0  0  0  0  0
   46.8840   30.5290   43.5210 N   0  0  0  0  0  0  0  0  0  0  0  0
   47.9920   31.1980   43.9010 C   0  0  0  0  0  0  0  0  0  0  0  0
   47.6870   32.5130   44.0740 N   0  0  0  0  0  0  0  0  0  0  0  0
   46.5840   34.6400   41.7440 N   0  0  0  0  0  0  0  0  0  0  0  0
   47.8340   34.9130   41.4090 N   0  0  0  0  0  0  0  0  0  0  0  0
   48.1050   34.4510   40.1600 C   0  0  0  0  0  0  0  0  0  0  0  0
   46.9620   33.8510   39.6800 C   0  0  0  0  0  0  0  0  0  0  0  0
   46.0350   33.9900   40.7000 C   0  0  0  0  0  0  0  0  0  0  0  0
   45.3863   36.9776   42.4043 H   0  0  0  0  0  0  0  0  0  0  0  0
   44.0853   35.7140   46.2185 H   0  0  0  0  0  0  0  0  0  0  0  0
   44.8725   31.2342   43.1878 H   0  0  0  0  0  0  0  0  0  0  0  0
   48.9862   30.7508   44.0480 H   0  0  0  0  0  0  0  0  0  0  0  0
   49.0639   34.5401   39.6285 H   0  0  0  0  0  0  0  0  0  0  0  0
   46.8171   33.3680   38.7024 H   0  0  0  0  0  0  0  0  0  0  0  0
   44.9990   33.6222   40.6626 H   0  0  0  0  0  0  0  0  0  0  0  0
  1  6  2  0
  2  1  1  0
  2  3  2  0
  3  4  1  0
  4  5  2  0
  6  5  1  0
  7  3  1  0
  7 11  1  0
  8  9  2  0
  8  7  1  0
  9 10  1  0
 10 11  2  0
 12  2  1  0
 13 12  1  0
 14 13  2  0
 15 14  1  0
 15 16  2  0
 16 12  1  0
  1 17  1  0
  5 18  1  0
  8 19  1  0
 10 20  1  0
 14 21  1  0
 15 22  1  0
 16 23  1  0
M  ISO  7  17  14  18  14  19  14  20  14  21  14  22  14  23  14
M  END
>  <minimizedAffinity>  (1) 
-4.19468546

>  <minimizedRMSD>  (1) 
3.50718069

$$$$
