
     RDKit          3D

 19 20  0  0  0  0  0  0  0  0999 V2000
   45.2340   34.1460   45.6740 C   0  0  0  0  0  0  0  0  0  0  0  0
   45.5640   34.5110   44.3570 C   0  0  0  0  0  0  0  0  0  0  0  0
   46.6330   33.8620   43.7200 C   0  0  0  0  0  0  0  0  0  0  0  0
   47.2970   32.9020   44.4290 N   0  0  0  0  0  0  0  0  0  0  0  0
   46.9560   32.5710   45.7000 C   0  0  0  0  0  0  0  0  0  0  0  0
   45.9350   33.1930   46.3050 N   0  0  0  0  0  0  0  0  0  0  0  0
   47.0570   34.1410   42.4030 N   0  0  0  0  0  0  0  0  0  0  0  0
   46.6130   33.7910   41.1700 C   0  0  0  0  0  0  0  0  0  0  0  0
   47.3950   34.3380   40.2170 N   0  0  0  0  0  0  0  0  0  0  0  0
   48.3300   35.0310   40.8830 C   0  0  0  0  0  0  0  0  0  0  0  0
   48.1300   34.9150   42.2400 N   0  0  0  0  0  0  0  0  0  0  0  0
   44.8340   35.5500   43.6060 C   0  0  0  0  0  0  0  0  0  0  0  0
   44.1240   34.9370   42.5810 F   0  0  0  0  0  0  0  0  0  0  0  0
   43.8960   36.1800   44.3930 F   0  0  0  0  0  0  0  0  0  0  0  0
   45.6970   36.4430   43.0510 F   0  0  0  0  0  0  0  0  0  0  0  0
   44.3985   34.6436   46.1881 H   0  0  0  0  0  0  0  0  0  0  0  0
   47.5184   31.7911   46.2343 H   0  0  0  0  0  0  0  0  0  0  0  0
   45.7392   33.1518   40.9751 H   0  0  0  0  0  0  0  0  0  0  0  0
   49.1396   35.6086   40.4130 H   0  0  0  0  0  0  0  0  0  0  0  0
  1  6  2  0
  2  1  1  0
  3  2  2  0
  3  4  1  0
  4  5  2  0
  5  6  1  0
  7  3  1  0
  8  7  1  0
  9 10  1  0
  9  8  2  0
 10 11  2  0
 11  7  1  0
 12  2  1  0
 12 14  1  0
 13 12  1  0
 15 12  1  0
  1 16  1  0
  5 17  1  0
  8 18  1  0
 10 19  1  0
M  ISO  4  16  14  17  14  18  14  19  14
M  END
>  <minimizedAffinity>  (1) 
-4.42931032

>  <minimizedRMSD>  (1) 
1.72284484

$$$$
