
     RDKit          3D

 23 25  0  0  0  0  0  0  0  0999 V2000
   45.3310   36.2000   43.1730 C   0  0  0  0  0  0  0  0  0  0  0  0
   45.9080   34.9440   42.9690 C   0  0  0  0  0  0  0  0  0  0  0  0
   45.8250   33.9600   43.9470 C   0  0  0  0  0  0  0  0  0  0  0  0
   45.1630   34.2860   45.0910 N   0  0  0  0  0  0  0  0  0  0  0  0
   44.6030   35.5120   45.2840 C   0  0  0  0  0  0  0  0  0  0  0  0
   44.6950   36.4500   44.3230 N   0  0  0  0  0  0  0  0  0  0  0  0
   46.3760   32.6650   43.8320 N   0  0  0  0  0  0  0  0  0  0  0  0
   45.9120   31.4510   43.4740 C   0  0  0  0  0  0  0  0  0  0  0  0
   46.8910   30.5280   43.5400 N   0  0  0  0  0  0  0  0  0  0  0  0
   47.9770   31.1900   43.9470 C   0  0  0  0  0  0  0  0  0  0  0  0
   47.6710   32.5070   44.1300 N   0  0  0  0  0  0  0  0  0  0  0  0
   46.5950   34.6310   41.7640 N   0  0  0  0  0  0  0  0  0  0  0  0
   45.7830   34.0470   40.8350 C   0  0  0  0  0  0  0  0  0  0  0  0
   46.5200   33.7750   39.7000 C   0  0  0  0  0  0  0  0  0  0  0  0
   47.7830   34.2050   39.9670 N   0  0  0  0  0  0  0  0  0  0  0  0
   47.8150   34.7180   41.2100 C   0  0  0  0  0  0  0  0  0  0  0  0
   45.3990   36.9755   42.3958 H   0  0  0  0  0  0  0  0  0  0  0  0
   44.0764   35.7355   46.2235 H   0  0  0  0  0  0  0  0  0  0  0  0
   44.8757   31.2426   43.1696 H   0  0  0  0  0  0  0  0  0  0  0  0
   48.9681   30.7415   44.1100 H   0  0  0  0  0  0  0  0  0  0  0  0
   44.7134   33.8283   40.9693 H   0  0  0  0  0  0  0  0  0  0  0  0
   46.1605   33.3073   38.7715 H   0  0  0  0  0  0  0  0  0  0  0  0
   48.7043   35.1436   41.6979 H   0  0  0  0  0  0  0  0  0  0  0  0
  1  6  2  0
  2  1  1  0
  2  3  2  0
  3  4  1  0
  4  5  2  0
  6  5  1  0
  7  3  1  0
  7 11  1  0
  8  9  2  0
  8  7  1  0
  9 10  1  0
 10 11  2  0
 12  2  1  0
 13 12  1  0
 14 15  1  0
 14 13  2  0
 15 16  2  0
 16 12  1  0
  1 17  1  0
  5 18  1  0
  8 19  1  0
 10 20  1  0
 13 21  1  0
 14 22  1  0
 16 23  1  0
M  ISO  7  17  14  18  14  19  14  20  14  21  14  22  14  23  14
M  END
>  <minimizedAffinity>  (1) 
-4.03108978

>  <minimizedRMSD>  (1) 
3.46606898

$$$$
