
     RDKit          3D

 32 34  0  0  0  0  0  0  0  0999 V2000
   45.4850   33.6050   46.0550 C   0  0  0  0  0  0  0  0  0  0  0  0
   46.0740   33.5330   44.7880 C   0  0  0  0  0  0  0  0  0  0  0  0
   47.1240   32.6490   44.5780 C   0  0  0  0  0  0  0  0  0  0  0  0
   47.5200   31.8910   45.6550 N   0  0  0  0  0  0  0  0  0  0  0  0
   46.9350   31.9790   46.8680 C   0  0  0  0  0  0  0  0  0  0  0  0
   45.9160   32.8400   47.0580 N   0  0  0  0  0  0  0  0  0  0  0  0
   47.8120   32.4720   43.3560 N   0  0  0  0  0  0  0  0  0  0  0  0
   47.7520   31.5860   42.3460 C   0  0  0  0  0  0  0  0  0  0  0  0
   48.6530   31.8780   41.3980 N   0  0  0  0  0  0  0  0  0  0  0  0
   49.2860   32.9790   41.8400 C   0  0  0  0  0  0  0  0  0  0  0  0
   48.7750   33.3580   43.0530 N   0  0  0  0  0  0  0  0  0  0  0  0
   45.6350   34.3510   43.6560 C   0  0  0  0  0  0  0  0  0  0  0  0
   44.5560   33.5590   42.9150 C   0  0  0  0  0  0  0  0  0  0  0  0
   43.7870   34.4100   41.9390 C   0  0  0  0  0  0  0  0  0  0  0  0
   44.2960   35.8120   41.7910 C   0  0  0  0  0  0  0  0  0  0  0  0
   44.6290   36.4960   43.0680 C   0  0  0  0  0  0  0  0  0  0  0  0
   44.9120   35.5650   44.2210 C   0  0  0  0  0  0  0  0  0  0  0  0
   44.6531   34.3040   46.2262 H   0  0  0  0  0  0  0  0  0  0  0  0
   47.2887   31.3503   47.6984 H   0  0  0  0  0  0  0  0  0  0  0  0
   47.0561   30.7351   42.3037 H   0  0  0  0  0  0  0  0  0  0  0  0
   50.0951   33.4988   41.3060 H   0  0  0  0  0  0  0  0  0  0  0  0
   46.4882   34.6210   43.0163 H   0  0  0  0  0  0  0  0  0  0  0  0
   45.0367   32.7369   42.3644 H   0  0  0  0  0  0  0  0  0  0  0  0
   43.8441   33.1810   43.6636 H   0  0  0  0  0  0  0  0  0  0  0  0
   43.8305   33.9242   40.9530 H   0  0  0  0  0  0  0  0  0  0  0  0
   42.7650   34.4919   42.3376 H   0  0  0  0  0  0  0  0  0  0  0  0
   45.2052   35.7817   41.1726 H   0  0  0  0  0  0  0  0  0  0  0  0
   43.4783   36.3902   41.3360 H   0  0  0  0  0  0  0  0  0  0  0  0
   45.5207   37.1184   42.9021 H   0  0  0  0  0  0  0  0  0  0  0  0
   43.7418   37.0821   43.3496 H   0  0  0  0  0  0  0  0  0  0  0  0
   43.9688   35.2547   44.6944 H   0  0  0  0  0  0  0  0  0  0  0  0
   45.5279   36.0651   44.9830 H   0  0  0  0  0  0  0  0  0  0  0  0
  1  6  2  0
  2  1  1  0
  3  2  2  0
  3  4  1  0
  4  5  2  0
  5  6  1  0
  7  3  1  0
  8  7  1  0
  9 10  1  0
  9  8  2  0
 10 11  2  0
 11  7  1  0
 12 17  1  0
 12  2  1  0
 13 12  1  0
 14 13  1  0
 15 14  1  0
 15 16  1  0
 16 17  1  0
  1 18  1  0
  5 19  1  0
  8 20  1  0
 10 21  1  0
 12 22  1  0
 13 23  1  0
 13 24  1  0
 14 25  1  0
 14 26  1  0
 15 27  1  0
 15 28  1  0
 16 29  1  0
 16 30  1  0
 17 31  1  0
 17 32  1  0
M  ISO  8  18  14  19  14  20  14  21  14  22  13  23  13  24  13  25  13
M  ISO  7  26  13  27  13  28  13  29  13  30  13  31  13  32  13
M  END
>  <minimizedAffinity>  (1) 
-3.97920728

>  <minimizedRMSD>  (1) 
3.05458283

$$$$
