
     RDKit          3D

 27 30  0  0  0  0  0  0  0  0999 V2000
   44.9400   34.2480   43.8420 C   0  0  0  0  0  0  0  0  0  0  0  0
   44.9900   33.9500   42.4740 C   0  0  0  0  0  0  0  0  0  0  0  0
   46.1170   33.3430   41.9310 C   0  0  0  0  0  0  0  0  0  0  0  0
   47.1460   33.0640   42.7950 N   0  0  0  0  0  0  0  0  0  0  0  0
   47.0850   33.3590   44.1180 C   0  0  0  0  0  0  0  0  0  0  0  0
   45.9780   33.9480   44.6230 N   0  0  0  0  0  0  0  0  0  0  0  0
   43.9150   34.2460   41.5950 N   0  0  0  0  0  0  0  0  0  0  0  0
   43.5820   35.2920   40.8130 C   0  0  0  0  0  0  0  0  0  0  0  0
   42.4320   35.0290   40.1830 N   0  0  0  0  0  0  0  0  0  0  0  0
   42.0070   33.8070   40.5520 C   0  0  0  0  0  0  0  0  0  0  0  0
   40.8620   33.1510   40.1350 C   0  0  0  0  0  0  0  0  0  0  0  0
   40.6900   31.9160   40.6800 N   0  0  0  0  0  0  0  0  0  0  0  0
   41.5760   31.4120   41.5420 C   0  0  0  0  0  0  0  0  0  0  0  0
   42.6800   32.0730   41.9300 N   0  0  0  0  0  0  0  0  0  0  0  0
   42.9420   33.3120   41.4430 C   0  0  0  0  0  0  0  0  0  0  0  0
   46.2770   32.9970   40.5720 N   0  0  0  0  0  0  0  0  0  0  0  0
   45.9240   31.9400   39.8150 C   0  0  0  0  0  0  0  0  0  0  0  0
   46.3410   32.1370   38.5410 N   0  0  0  0  0  0  0  0  0  0  0  0
   46.9500   33.3240   38.5310 C   0  0  0  0  0  0  0  0  0  0  0  0
   46.9140   33.8570   39.7790 N   0  0  0  0  0  0  0  0  0  0  0  0
   44.0475   34.7278   44.2702 H   0  0  0  0  0  0  0  0  0  0  0  0
   47.9328   33.1199   44.7769 H   0  0  0  0  0  0  0  0  0  0  0  0
   44.1657   36.2185   40.7090 H   0  0  0  0  0  0  0  0  0  0  0  0
   40.1497   33.5915   39.4219 H   0  0  0  0  0  0  0  0  0  0  0  0
   41.3939   30.4085   41.9541 H   0  0  0  0  0  0  0  0  0  0  0  0
   45.3811   31.0539   40.1755 H   0  0  0  0  0  0  0  0  0  0  0  0
   47.4091   33.7965   37.6501 H   0  0  0  0  0  0  0  0  0  0  0  0
  1  6  2  0
  2  1  1  0
  3  2  2  0
  3  4  1  0
  4  5  2  0
  5  6  1  0
  7  2  1  0
  8  7  1  0
  9 10  1  0
  9  8  2  0
 10 15  2  0
 11 10  1  0
 11 12  2  0
 12 13  1  0
 13 14  2  0
 15  7  1  0
 15 14  1  0
 16  3  1  0
 17 16  1  0
 18 17  2  0
 19 18  1  0
 19 20  2  0
 20 16  1  0
  1 21  1  0
  5 22  1  0
  8 23  1  0
 11 24  1  0
 13 25  1  0
 17 26  1  0
 19 27  1  0
M  ISO  7  21  14  22  14  23  14  24  14  25  14  26  14  27  14
M  END
>  <minimizedAffinity>  (1) 
-3.94303679

>  <minimizedRMSD>  (1) 
3.50144196

$$$$
