
     RDKit          3D

 17 18  0  0  0  0  0  0  0  0999 V2000
   45.1760   34.4320   45.3390 C   0  0  0  0  0  0  0  0  0  0  0  0
   45.6610   34.7950   44.0730 C   0  0  0  0  0  0  0  0  0  0  0  0
   46.7360   34.1200   43.5140 C   0  0  0  0  0  0  0  0  0  0  0  0
   47.2790   33.1040   44.2490 N   0  0  0  0  0  0  0  0  0  0  0  0
   46.7920   32.7650   45.4810 C   0  0  0  0  0  0  0  0  0  0  0  0
   45.7540   33.4340   45.9980 N   0  0  0  0  0  0  0  0  0  0  0  0
   47.2980   34.4060   42.2510 N   0  0  0  0  0  0  0  0  0  0  0  0
   47.0410   34.0270   40.9890 C   0  0  0  0  0  0  0  0  0  0  0  0
   47.9140   34.6180   40.1370 N   0  0  0  0  0  0  0  0  0  0  0  0
   48.7140   35.3720   40.9070 C   0  0  0  0  0  0  0  0  0  0  0  0
   48.3460   35.2490   42.2140 N   0  0  0  0  0  0  0  0  0  0  0  0
   44.9290   36.1220   43.1410 S   0  0  0  0  0  0  0  0  0  0  0  0
   44.3244   34.9694   45.7818 H   0  0  0  0  0  0  0  0  0  0  0  0
   47.2532   31.9425   46.0473 H   0  0  0  0  0  0  0  0  0  0  0  0
   46.2384   33.3369   40.6898 H   0  0  0  0  0  0  0  0  0  0  0  0
   49.5421   35.9955   40.5389 H   0  0  0  0  0  0  0  0  0  0  0  0
   44.4143   37.0551   44.0020 H   0  0  0  0  0  0  0  0  0  0  0  0
  1  6  2  0
  2  1  1  0
  3  2  2  0
  3  4  1  0
  4  5  2  0
  5  6  1  0
  7  3  1  0
  8  7  1  0
  9 10  1  0
  9  8  2  0
 10 11  2  0
 11  7  1  0
 12  2  1  0
  1 13  1  0
  5 14  1  0
  8 15  1  0
 10 16  1  0
 12 17  1  0
M  ISO  5  13  14  14  14  15  14  16  14  17  11
M  END
>  <minimizedAffinity>  (1) 
-3.71122217

>  <minimizedRMSD>  (1) 
1.28999794

$$$$
