
     RDKit          3D

 24 26  0  0  0  0  0  0  0  0999 V2000
   45.2610   33.4700   46.4660 C   0  0  0  0  0  0  0  0  0  0  0  0
   45.7800   33.4280   45.1760 C   0  0  0  0  0  0  0  0  0  0  0  0
   46.9240   32.6710   44.9470 C   0  0  0  0  0  0  0  0  0  0  0  0
   47.4870   32.0000   46.0060 N   0  0  0  0  0  0  0  0  0  0  0  0
   46.9390   32.0730   47.2480 C   0  0  0  0  0  0  0  0  0  0  0  0
   45.8370   32.8030   47.4670 N   0  0  0  0  0  0  0  0  0  0  0  0
   47.5610   32.5420   43.6750 N   0  0  0  0  0  0  0  0  0  0  0  0
   47.5640   31.6150   42.7050 C   0  0  0  0  0  0  0  0  0  0  0  0
   48.3590   32.0010   41.6880 N   0  0  0  0  0  0  0  0  0  0  0  0
   48.8490   33.1890   42.0520 C   0  0  0  0  0  0  0  0  0  0  0  0
   48.3610   33.5260   43.2740 N   0  0  0  0  0  0  0  0  0  0  0  0
   45.2110   34.1280   44.0300 C   0  0  0  0  0  0  0  0  0  0  0  0
   45.3150   35.4910   43.8570 C   0  0  0  0  0  0  0  0  0  0  0  0
   44.7920   36.1920   42.7890 C   0  0  0  0  0  0  0  0  0  0  0  0
   44.1270   35.5040   41.8340 N   0  0  0  0  0  0  0  0  0  0  0  0
   44.0220   34.1550   42.0030 C   0  0  0  0  0  0  0  0  0  0  0  0
   44.5450   33.5020   43.0560 N   0  0  0  0  0  0  0  0  0  0  0  0
   44.3575   34.0652   46.6644 H   0  0  0  0  0  0  0  0  0  0  0  0
   47.4050   31.5272   48.0816 H   0  0  0  0  0  0  0  0  0  0  0  0
   46.9973   30.6727   42.7357 H   0  0  0  0  0  0  0  0  0  0  0  0
   49.5411   33.8003   41.4543 H   0  0  0  0  0  0  0  0  0  0  0  0
   45.8545   36.0626   44.6266 H   0  0  0  0  0  0  0  0  0  0  0  0
   44.9133   37.2829   42.7168 H   0  0  0  0  0  0  0  0  0  0  0  0
   43.4833   33.5725   41.2410 H   0  0  0  0  0  0  0  0  0  0  0  0
  1  6  2  0
  2  1  1  0
  3  2  2  0
  3  4  1  0
  4  5  2  0
  5  6  1  0
  7  3  1  0
  8  7  1  0
  9 10  1  0
  9  8  2  0
 10 11  2  0
 11  7  1  0
 12  2  1  0
 13 12  2  0
 14 13  1  0
 15 16  1  0
 15 14  2  0
 16 17  2  0
 17 12  1  0
  1 18  1  0
  5 19  1  0
  8 20  1  0
 10 21  1  0
 13 22  1  0
 14 23  1  0
 16 24  1  0
M  ISO  7  18  14  19  14  20  14  21  14  22  14  23  14  24  14
M  END
>  <minimizedAffinity>  (1) 
-3.75769424

>  <minimizedRMSD>  (1) 
3.20725131

$$$$
