
     RDKit          3D

 31 34  0  0  0  0  0  0  0  0999 V2000
   45.3200   33.4730   46.2810 C   0  0  0  0  0  0  0  0  0  0  0  0
   45.8050   33.5410   44.9830 C   0  0  0  0  0  0  0  0  0  0  0  0
   46.9450   32.7970   44.6620 C   0  0  0  0  0  0  0  0  0  0  0  0
   47.5210   32.0350   45.6600 N   0  0  0  0  0  0  0  0  0  0  0  0
   47.0000   32.0120   46.9050 C   0  0  0  0  0  0  0  0  0  0  0  0
   45.9070   32.7260   47.2110 N   0  0  0  0  0  0  0  0  0  0  0  0
   45.2180   34.3320   43.9180 C   0  0  0  0  0  0  0  0  0  0  0  0
   45.4460   35.6840   43.7680 C   0  0  0  0  0  0  0  0  0  0  0  0
   44.9070   36.4750   42.7690 C   0  0  0  0  0  0  0  0  0  0  0  0
   44.0940   35.8840   41.8620 N   0  0  0  0  0  0  0  0  0  0  0  0
   43.8630   34.5540   41.9990 C   0  0  0  0  0  0  0  0  0  0  0  0
   44.4020   33.8100   42.9840 N   0  0  0  0  0  0  0  0  0  0  0  0
   43.0180   33.8480   41.0890 N   0  0  0  0  0  0  0  0  0  0  0  0
   42.9220   34.2470   39.8430 N   0  0  0  0  0  0  0  0  0  0  0  0
   42.0790   33.4550   39.1450 C   0  0  0  0  0  0  0  0  0  0  0  0
   41.6660   32.5330   40.0800 C   0  0  0  0  0  0  0  0  0  0  0  0
   42.2380   32.7510   41.3160 C   0  0  0  0  0  0  0  0  0  0  0  0
   47.5490   32.7710   43.3790 N   0  0  0  0  0  0  0  0  0  0  0  0
   47.4360   32.0030   42.2900 C   0  0  0  0  0  0  0  0  0  0  0  0
   48.2690   32.4280   41.3170 N   0  0  0  0  0  0  0  0  0  0  0  0
   48.8980   33.4770   41.8310 C   0  0  0  0  0  0  0  0  0  0  0  0
   48.4660   33.6970   43.0960 N   0  0  0  0  0  0  0  0  0  0  0  0
   44.4246   34.0534   46.5482 H   0  0  0  0  0  0  0  0  0  0  0  0
   47.4798   31.3976   47.6811 H   0  0  0  0  0  0  0  0  0  0  0  0
   46.1077   36.1711   44.4993 H   0  0  0  0  0  0  0  0  0  0  0  0
   45.1320   37.5503   42.7134 H   0  0  0  0  0  0  0  0  0  0  0  0
   41.7920   33.5290   38.0857 H   0  0  0  0  0  0  0  0  0  0  0  0
   40.9609   31.7163   39.8660 H   0  0  0  0  0  0  0  0  0  0  0  0
   42.1004   32.1843   42.2487 H   0  0  0  0  0  0  0  0  0  0  0  0
   46.7568   31.1424   42.1997 H   0  0  0  0  0  0  0  0  0  0  0  0
   49.6566   34.0781   41.3083 H   0  0  0  0  0  0  0  0  0  0  0  0
  1  6  2  0
  2  1  1  0
  3  2  2  0
  3  4  1  0
  4  5  2  0
  5  6  1  0
  7  2  1  0
  8  7  2  0
  9  8  1  0
 10 11  1  0
 10  9  2  0
 11 12  2  0
 12  7  1  0
 13 17  1  0
 13 11  1  0
 14 13  1  0
 15 14  2  0
 15 16  1  0
 16 17  2  0
 18  3  1  0
 19 18  1  0
 20 21  1  0
 20 19  2  0
 21 22  2  0
 22 18  1  0
  1 23  1  0
  5 24  1  0
  8 25  1  0
  9 26  1  0
 15 27  1  0
 16 28  1  0
 17 29  1  0
 19 30  1  0
 21 31  1  0
M  ISO  8  23  14  24  14  25  14  26  14  27  14  28  14  29  14  30  14
M  ISO  1  31  14
M  END
>  <minimizedAffinity>  (1) 
-4.60416126

>  <minimizedRMSD>  (1) 
0.477538615

$$$$
