
     RDKit          3D

 31 33  0  0  0  0  0  0  0  0999 V2000
   45.2270   34.1490   44.0310 C   0  0  0  0  0  0  0  0  0  0  0  0
   45.3180   35.5060   43.8740 C   0  0  0  0  0  0  0  0  0  0  0  0
   44.8120   36.2110   42.8030 C   0  0  0  0  0  0  0  0  0  0  0  0
   44.1780   35.5400   41.8290 N   0  0  0  0  0  0  0  0  0  0  0  0
   44.0830   34.1770   41.9780 C   0  0  0  0  0  0  0  0  0  0  0  0
   44.5890   33.5280   43.0350 N   0  0  0  0  0  0  0  0  0  0  0  0
   43.4230   33.3940   40.9820 N   0  0  0  0  0  0  0  0  0  0  0  0
   42.8440   33.9810   39.8090 C   0  0  0  0  0  0  0  0  0  0  0  0
   43.0380   35.2510   39.6190 N   0  0  0  0  0  0  0  0  0  0  0  0
   42.1060   33.1130   38.9580 N   0  0  0  0  0  0  0  0  0  0  0  0
   42.6070   35.6550   38.7580 H   0  0  0  0  0  0  0  0  0  0  0  0
   45.2380   33.4880   46.4680 C   0  0  0  0  0  0  0  0  0  0  0  0
   45.7780   33.4390   45.1820 C   0  0  0  0  0  0  0  0  0  0  0  0
   46.9080   32.6710   44.9750 C   0  0  0  0  0  0  0  0  0  0  0  0
   47.4540   31.9900   46.0370 N   0  0  0  0  0  0  0  0  0  0  0  0
   46.8870   32.0730   47.2670 C   0  0  0  0  0  0  0  0  0  0  0  0
   45.7990   32.8080   47.4770 N   0  0  0  0  0  0  0  0  0  0  0  0
   47.5590   32.5360   43.7100 N   0  0  0  0  0  0  0  0  0  0  0  0
   47.5790   31.5900   42.7460 C   0  0  0  0  0  0  0  0  0  0  0  0
   48.3810   31.9820   41.7340 N   0  0  0  0  0  0  0  0  0  0  0  0
   48.8530   33.1780   42.0870 C   0  0  0  0  0  0  0  0  0  0  0  0
   48.3500   33.5200   43.3000 N   0  0  0  0  0  0  0  0  0  0  0  0
   45.8332   36.0761   44.6611 H   0  0  0  0  0  0  0  0  0  0  0  0
   44.9258   37.3037   42.7477 H   0  0  0  0  0  0  0  0  0  0  0  0
   43.3610   32.3740   41.1108 H   0  0  0  0  0  0  0  0  0  0  0  0
   41.6683   33.4812   38.1014 H   0  0  0  0  0  0  0  0  0  0  0  0
   42.0091   32.1161   39.1982 H   0  0  0  0  0  0  0  0  0  0  0  0
   44.3391   34.0935   46.6559 H   0  0  0  0  0  0  0  0  0  0  0  0
   47.3360   31.5217   48.1064 H   0  0  0  0  0  0  0  0  0  0  0  0
   47.0239   30.6410   42.7807 H   0  0  0  0  0  0  0  0  0  0  0  0
   49.5424   33.7916   41.4885 H   0  0  0  0  0  0  0  0  0  0  0  0
  1 13  1  0
  2  1  2  0
  3  2  1  0
  4  5  1  0
  4  3  2  0
  5  6  2  0
  6  1  1  0
  7  5  1  0
  8  7  1  0
  9  8  2  0
 10  8  1  0
 11  9  1  0
 12 17  2  0
 13 12  1  0
 14 13  2  0
 14 15  1  0
 15 16  2  0
 16 17  1  0
 18 14  1  0
 19 18  1  0
 20 21  1  0
 20 19  2  0
 21 22  2  0
 22 18  1  0
  2 23  1  0
  3 24  1  0
  7 25  1  0
 10 26  1  0
 10 27  1  0
 12 28  1  0
 16 29  1  0
 19 30  1  0
 21 31  1  0
M  ISO  6  23  14  24  14  28  14  29  14  30  14  31  14
M  END
>  <minimizedAffinity>  (1) 
-4.77803802

>  <minimizedRMSD>  (1) 
0.0686635002

$$$$
