
     RDKit          3D

 31 34  0  0  0  0  0  0  0  0999 V2000
   45.3640   33.4760   46.3550 C   0  0  0  0  0  0  0  0  0  0  0  0
   45.8130   33.4860   45.0330 C   0  0  0  0  0  0  0  0  0  0  0  0
   46.9070   32.7070   44.7140 C   0  0  0  0  0  0  0  0  0  0  0  0
   47.5040   31.9590   45.7020 N   0  0  0  0  0  0  0  0  0  0  0  0
   47.0190   31.9910   46.9770 C   0  0  0  0  0  0  0  0  0  0  0  0
   45.9630   32.7440   47.2840 N   0  0  0  0  0  0  0  0  0  0  0  0
   45.2110   34.2620   43.9590 C   0  0  0  0  0  0  0  0  0  0  0  0
   45.5120   35.5930   43.7350 C   0  0  0  0  0  0  0  0  0  0  0  0
   44.9640   36.3560   42.7330 C   0  0  0  0  0  0  0  0  0  0  0  0
   44.0670   35.7780   41.8990 N   0  0  0  0  0  0  0  0  0  0  0  0
   43.7730   34.4740   42.1200 C   0  0  0  0  0  0  0  0  0  0  0  0
   44.3170   33.7490   43.1010 N   0  0  0  0  0  0  0  0  0  0  0  0
   42.8020   33.8490   41.2180 C   0  0  0  0  0  0  0  0  0  0  0  0
   42.8410   33.7950   39.8380 C   0  0  0  0  0  0  0  0  0  0  0  0
   41.7690   33.1350   39.3620 N   0  0  0  0  0  0  0  0  0  0  0  0
   41.0580   32.7740   40.4450 C   0  0  0  0  0  0  0  0  0  0  0  0
   41.6730   33.2010   41.5650 N   0  0  0  0  0  0  0  0  0  0  0  0
   47.4740   32.6200   43.4030 N   0  0  0  0  0  0  0  0  0  0  0  0
   47.2600   31.8380   42.3270 C   0  0  0  0  0  0  0  0  0  0  0  0
   48.0860   32.1820   41.3280 N   0  0  0  0  0  0  0  0  0  0  0  0
   48.8240   33.1960   41.8010 C   0  0  0  0  0  0  0  0  0  0  0  0
   48.4400   33.4620   43.0850 N   0  0  0  0  0  0  0  0  0  0  0  0
   44.4938   34.0892   46.6319 H   0  0  0  0  0  0  0  0  0  0  0  0
   47.5045   31.3892   47.7594 H   0  0  0  0  0  0  0  0  0  0  0  0
   46.2401   36.0735   44.4051 H   0  0  0  0  0  0  0  0  0  0  0  0
   45.2471   37.4119   42.6107 H   0  0  0  0  0  0  0  0  0  0  0  0
   43.6366   34.2304   39.2156 H   0  0  0  0  0  0  0  0  0  0  0  0
   40.1126   32.2122   40.4200 H   0  0  0  0  0  0  0  0  0  0  0  0
   41.3358   33.0560   42.5274 H   0  0  0  0  0  0  0  0  0  0  0  0
   46.5136   31.0317   42.2752 H   0  0  0  0  0  0  0  0  0  0  0  0
   49.6109   33.7276   41.2458 H   0  0  0  0  0  0  0  0  0  0  0  0
  1  6  2  0
  2  1  1  0
  3  2  2  0
  3  4  1  0
  4  5  2  0
  5  6  1  0
  7  2  1  0
  8  7  2  0
  9  8  1  0
 10 11  1  0
 10  9  2  0
 11 12  2  0
 12  7  1  0
 13 17  1  0
 13 11  1  0
 14 13  2  0
 15 14  1  0
 15 16  2  0
 16 17  1  0
 18  3  1  0
 19 18  1  0
 20 21  1  0
 20 19  2  0
 21 22  2  0
 22 18  1  0
  1 23  1  0
  5 24  1  0
  8 25  1  0
  9 26  1  0
 14 27  1  0
 16 28  1  0
 17 29  1  0
 19 30  1  0
 21 31  1  0
M  ISO  8  23  14  24  14  25  14  26  14  27  14  28  14  29   9  30  14
M  ISO  1  31  14
M  END
>  <minimizedAffinity>  (1) 
-4.50674629

>  <minimizedRMSD>  (1) 
0.531349003

$$$$
