
     RDKit          3D

 31 34  0  0  0  0  0  0  0  0999 V2000
   45.3100   33.5130   46.2700 C   0  0  0  0  0  0  0  0  0  0  0  0
   45.8010   33.5680   44.9680 C   0  0  0  0  0  0  0  0  0  0  0  0
   46.9200   32.8210   44.6440 C   0  0  0  0  0  0  0  0  0  0  0  0
   47.5070   32.0510   45.6190 N   0  0  0  0  0  0  0  0  0  0  0  0
   46.9860   32.0320   46.8800 C   0  0  0  0  0  0  0  0  0  0  0  0
   45.9110   32.7510   47.1900 N   0  0  0  0  0  0  0  0  0  0  0  0
   45.2070   34.3750   43.8940 C   0  0  0  0  0  0  0  0  0  0  0  0
   45.4680   35.7090   43.7370 C   0  0  0  0  0  0  0  0  0  0  0  0
   44.9290   36.5030   42.7380 C   0  0  0  0  0  0  0  0  0  0  0  0
   44.0830   35.9240   41.8490 N   0  0  0  0  0  0  0  0  0  0  0  0
   43.8250   34.6000   42.0040 C   0  0  0  0  0  0  0  0  0  0  0  0
   44.3680   33.8600   42.9880 N   0  0  0  0  0  0  0  0  0  0  0  0
   42.9400   33.8310   41.1350 C   0  0  0  0  0  0  0  0  0  0  0  0
   42.7700   34.3150   39.8400 C   0  0  0  0  0  0  0  0  0  0  0  0
   41.8950   33.4390   39.1850 C   0  0  0  0  0  0  0  0  0  0  0  0
   41.5940   32.4720   40.1500 C   0  0  0  0  0  0  0  0  0  0  0  0
   42.2300   32.7430   41.2790 O   0  0  0  0  0  0  0  0  0  0  0  0
   47.5240   32.7910   43.3410 N   0  0  0  0  0  0  0  0  0  0  0  0
   47.3690   32.0340   42.2450 C   0  0  0  0  0  0  0  0  0  0  0  0
   48.2050   32.4370   41.2740 N   0  0  0  0  0  0  0  0  0  0  0  0
   48.8890   33.4690   41.7940 C   0  0  0  0  0  0  0  0  0  0  0  0
   48.4610   33.6800   43.0740 N   0  0  0  0  0  0  0  0  0  0  0  0
   44.4213   34.1007   46.5437 H   0  0  0  0  0  0  0  0  0  0  0  0
   47.4631   31.4117   47.6530 H   0  0  0  0  0  0  0  0  0  0  0  0
   46.1537   36.1840   44.4541 H   0  0  0  0  0  0  0  0  0  0  0  0
   45.1795   37.5718   42.6674 H   0  0  0  0  0  0  0  0  0  0  0  0
   43.2352   35.2154   39.4123 H   0  0  0  0  0  0  0  0  0  0  0  0
   41.5286   33.4979   38.1495 H   0  0  0  0  0  0  0  0  0  0  0  0
   40.9263   31.6119   39.9935 H   0  0  0  0  0  0  0  0  0  0  0  0
   46.6573   31.2002   42.1540 H   0  0  0  0  0  0  0  0  0  0  0  0
   49.6661   34.0490   41.2747 H   0  0  0  0  0  0  0  0  0  0  0  0
  1  6  2  0
  2  1  1  0
  3  2  2  0
  3  4  1  0
  4  5  2  0
  5  6  1  0
  7  2  1  0
  8  7  2  0
  9  8  1  0
 10 11  1  0
 10  9  2  0
 11 12  2  0
 12  7  1  0
 13 17  1  0
 13 11  1  0
 14 13  2  0
 15 14  1  0
 15 16  2  0
 16 17  1  0
 18  3  1  0
 19 18  1  0
 20 21  1  0
 20 19  2  0
 21 22  2  0
 22 18  1  0
  1 23  1  0
  5 24  1  0
  8 25  1  0
  9 26  1  0
 14 27  1  0
 15 28  1  0
 16 29  1  0
 19 30  1  0
 21 31  1  0
M  ISO  8  23  14  24  14  25  14  26  14  27  14  28  14  29  14  30  14
M  ISO  1  31  14
M  END
>  <minimizedAffinity>  (1) 
-4.38033152

>  <minimizedRMSD>  (1) 
0.60616976

$$$$
