
     RDKit          3D

 27 29  0  0  0  0  0  0  0  0999 V2000
   45.2930   33.4420   46.4660 C   0  0  0  0  0  0  0  0  0  0  0  0
   45.7960   33.3790   45.1620 C   0  0  0  0  0  0  0  0  0  0  0  0
   46.9180   32.6030   44.9320 C   0  0  0  0  0  0  0  0  0  0  0  0
   47.4980   31.9260   45.9780 N   0  0  0  0  0  0  0  0  0  0  0  0
   46.9650   32.0250   47.2300 C   0  0  0  0  0  0  0  0  0  0  0  0
   45.8800   32.7710   47.4670 N   0  0  0  0  0  0  0  0  0  0  0  0
   45.2160   34.0770   44.0220 C   0  0  0  0  0  0  0  0  0  0  0  0
   45.3490   35.4420   43.8530 C   0  0  0  0  0  0  0  0  0  0  0  0
   44.8190   36.1510   42.7920 C   0  0  0  0  0  0  0  0  0  0  0  0
   44.1260   35.4750   41.8540 N   0  0  0  0  0  0  0  0  0  0  0  0
   43.9980   34.1360   42.0230 C   0  0  0  0  0  0  0  0  0  0  0  0
   44.5240   33.4650   43.0670 N   0  0  0  0  0  0  0  0  0  0  0  0
   43.2260   33.3940   40.9740 C   0  0  0  0  0  0  0  0  0  0  0  0
   47.5350   32.4510   43.6440 N   0  0  0  0  0  0  0  0  0  0  0  0
   47.4900   31.5320   42.6750 C   0  0  0  0  0  0  0  0  0  0  0  0
   48.2790   31.8840   41.6530 N   0  0  0  0  0  0  0  0  0  0  0  0
   48.8250   33.0590   42.0110 C   0  0  0  0  0  0  0  0  0  0  0  0
   48.3630   33.4100   43.2460 N   0  0  0  0  0  0  0  0  0  0  0  0
   44.4014   34.0520   46.6732 H   0  0  0  0  0  0  0  0  0  0  0  0
   47.4368   31.4805   48.0612 H   0  0  0  0  0  0  0  0  0  0  0  0
   45.9141   36.0011   44.6133 H   0  0  0  0  0  0  0  0  0  0  0  0
   44.9590   37.2393   42.7148 H   0  0  0  0  0  0  0  0  0  0  0  0
   42.5139   32.7096   41.4582 H   0  0  0  0  0  0  0  0  0  0  0  0
   42.6764   34.1115   40.3470 H   0  0  0  0  0  0  0  0  0  0  0  0
   43.9212   32.8164   40.3470 H   0  0  0  0  0  0  0  0  0  0  0  0
   46.8873   30.6126   42.7122 H   0  0  0  0  0  0  0  0  0  0  0  0
   49.5319   33.6445   41.4047 H   0  0  0  0  0  0  0  0  0  0  0  0
  1  6  2  0
  2  1  1  0
  3  2  2  0
  3  4  1  0
  4  5  2  0
  5  6  1  0
  7  2  1  0
  8  7  2  0
  9  8  1  0
 10 11  1  0
 10  9  2  0
 11 12  2  0
 12  7  1  0
 13 11  1  0
 14  3  1  0
 15 14  1  0
 16 17  1  0
 16 15  2  0
 17 18  2  0
 18 14  1  0
  1 19  1  0
  5 20  1  0
  8 21  1  0
  9 22  1  0
 13 23  1  0
 13 24  1  0
 13 25  1  0
 15 26  1  0
 17 27  1  0
M  ISO  8  19  14  20  14  21  14  22  14  23   8  24   8  25   8  26  14
M  ISO  1  27  14
M  END
>  <minimizedAffinity>  (1) 
-3.90775251

>  <minimizedRMSD>  (1) 
0.0806296915

$$$$
