
     RDKit          3D

 43 46  0  0  0  0  0  0  0  0999 V2000
   45.0830   33.5860   47.0380 C   0  0  0  0  0  0  0  0  0  0  0  0
   45.5900   33.4200   45.7390 C   0  0  0  0  0  0  0  0  0  0  0  0
   46.5520   32.4610   45.5300 C   0  0  0  0  0  0  0  0  0  0  0  0
   46.9880   31.6970   46.5860 N   0  0  0  0  0  0  0  0  0  0  0  0
   46.4720   31.8870   47.8310 C   0  0  0  0  0  0  0  0  0  0  0  0
   45.5340   32.8210   48.0450 N   0  0  0  0  0  0  0  0  0  0  0  0
   45.1580   34.2080   44.5890 C   0  0  0  0  0  0  0  0  0  0  0  0
   45.2800   35.5680   44.5370 C   0  0  0  0  0  0  0  0  0  0  0  0
   44.8840   36.3510   43.4660 C   0  0  0  0  0  0  0  0  0  0  0  0
   44.3310   35.7390   42.3800 N   0  0  0  0  0  0  0  0  0  0  0  0
   44.2160   34.3930   42.4430 C   0  0  0  0  0  0  0  0  0  0  0  0
   44.6090   33.6350   43.4990 N   0  0  0  0  0  0  0  0  0  0  0  0
   43.6240   33.7210   41.2850 C   0  0  0  0  0  0  0  0  0  0  0  0
   43.2960   34.3090   40.0610 C   0  0  0  0  0  0  0  0  0  0  0  0
   42.7730   33.3080   39.2820 C   0  0  0  0  0  0  0  0  0  0  0  0
   42.7760   32.1630   39.9800 N   0  0  0  0  0  0  0  0  0  0  0  0
   43.2860   32.4270   41.1700 N   0  0  0  0  0  0  0  0  0  0  0  0
   47.1540   32.1900   44.2480 N   0  0  0  0  0  0  0  0  0  0  0  0
   47.1110   31.1840   43.3730 C   0  0  0  0  0  0  0  0  0  0  0  0
   47.8830   31.4450   42.3010 N   0  0  0  0  0  0  0  0  0  0  0  0
   48.4120   32.6540   42.5380 C   0  0  0  0  0  0  0  0  0  0  0  0
   47.9590   33.1130   43.7420 N   0  0  0  0  0  0  0  0  0  0  0  0
   49.3480   33.4120   41.6570 C   0  0  0  0  0  0  0  0  0  0  0  0
   50.7090   33.5710   42.3220 C   0  0  0  0  0  0  0  0  0  0  0  0
   49.5260   32.6440   40.3570 C   0  0  0  0  0  0  0  0  0  0  0  0
   48.8170   34.7830   41.3610 C   0  0  0  0  0  0  0  0  0  0  0  0
   44.3124   34.3467   47.2315 H   0  0  0  0  0  0  0  0  0  0  0  0
   46.8275   31.2691   48.6688 H   0  0  0  0  0  0  0  0  0  0  0  0
   45.7235   36.0758   45.4061 H   0  0  0  0  0  0  0  0  0  0  0  0
   45.0127   37.4432   43.4906 H   0  0  0  0  0  0  0  0  0  0  0  0
   43.4302   35.3636   39.7783 H   0  0  0  0  0  0  0  0  0  0  0  0
   42.4096   33.4258   38.2505 H   0  0  0  0  0  0  0  0  0  0  0  0
   42.4422   31.2464   39.6493 H   0  0  0  0  0  0  0  0  0  0  0  0
   46.5234   30.2641   43.5090 H   0  0  0  0  0  0  0  0  0  0  0  0
   50.5869   33.5567   43.4151 H   0  0  0  0  0  0  0  0  0  0  0  0
   51.3657   32.7435   42.0156 H   0  0  0  0  0  0  0  0  0  0  0  0
   51.1573   34.5276   42.0156 H   0  0  0  0  0  0  0  0  0  0  0  0
   49.7691   31.5949   40.5812 H   0  0  0  0  0  0  0  0  0  0  0  0
   48.5939   32.6879   39.7746 H   0  0  0  0  0  0  0  0  0  0  0  0
   50.3438   33.0935   39.7746 H   0  0  0  0  0  0  0  0  0  0  0  0
   48.6133   35.3091   42.3053 H   0  0  0  0  0  0  0  0  0  0  0  0
   49.5617   35.3471   40.7803 H   0  0  0  0  0  0  0  0  0  0  0  0
   47.8866   34.6984   40.7803 H   0  0  0  0  0  0  0  0  0  0  0  0
  1  6  2  0
  2  1  1  0
  3  2  2  0
  3  4  1  0
  4  5  2  0
  5  6  1  0
  7  2  1  0
  8  7  2  0
  9  8  1  0
 10 11  1  0
 10  9  2  0
 11 12  2  0
 12  7  1  0
 13 11  1  0
 14 13  1  0
 15 16  1  0
 15 14  2  0
 16 17  1  0
 17 13  2  0
 18  3  1  0
 19 18  1  0
 20 21  1  0
 20 19  2  0
 21 22  2  0
 22 18  1  0
 23 24  1  0
 23 21  1  0
 25 23  1  0
 26 23  1  0
  1 27  1  0
  5 28  1  0
  8 29  1  0
  9 30  1  0
 14 31  1  0
 15 32  1  0
 16 33  1  0
 19 34  1  0
 24 35  1  0
 24 36  1  0
 24 37  1  0
 25 38  1  0
 25 39  1  0
 25 40  1  0
 26 41  1  0
 26 42  1  0
 26 43  1  0
M  ISO  8  27  14  28  14  29  14  30  14  31  14  32  14  33   9  34  14
M  ISO  8  35   8  36   8  37   8  38   8  39   8  40   8  41   8  42   8
M  ISO  1  43   8
M  END
>  <minimizedAffinity>  (1) 
-5.18451452

>  <minimizedRMSD>  (1) 
1.04624844

$$$$
