
     RDKit          3D

 33 35  0  0  1  0  0  0  0  0999 V2000
   46.0120   33.8210   45.5510 C   0  0  2  0  0  0  0  0  0  0  0  0
   44.8270   34.7370   45.7150 C   0  0  0  0  0  0  0  0  0  0  0  0
   44.5410   35.6520   44.6310 C   0  0  0  0  0  0  0  0  0  0  0  0
   45.3790   35.6650   43.4360 C   0  0  0  0  0  0  0  0  0  0  0  0
   46.5620   34.7890   43.4300 C   0  0  1  0  0  0  0  0  0  0  0  0
   46.2440   33.4830   44.1070 C   0  0  0  0  0  0  0  0  0  0  0  0
   45.2270   32.8220   47.6630 C   0  0  0  0  0  0  0  0  0  0  0  0
   45.8850   32.6690   46.4450 C   0  0  0  0  0  0  0  0  0  0  0  0
   46.4160   31.4020   46.1440 C   0  0  0  0  0  0  0  0  0  0  0  0
   46.2690   30.3950   47.0420 N   0  0  0  0  0  0  0  0  0  0  0  0
   45.6300   30.5760   48.2080 C   0  0  0  0  0  0  0  0  0  0  0  0
   45.1100   31.7850   48.5200 N   0  0  0  0  0  0  0  0  0  0  0  0
   47.0310   34.6160   42.0340 C   0  0  0  0  0  0  0  0  0  0  0  0
   48.1750   35.2760   41.6360 C   0  0  0  0  0  0  0  0  0  0  0  0
   48.6310   35.1280   40.3360 C   0  0  0  0  0  0  0  0  0  0  0  0
   47.8790   34.3060   39.5200 C   0  0  0  0  0  0  0  0  0  0  0  0
   46.7390   33.6450   39.9020 C   0  0  0  0  0  0  0  0  0  0  0  0
   46.3410   33.8260   41.1870 N   0  0  0  0  0  0  0  0  0  0  0  0
   46.9318   34.3384   45.8612 H   0  0  0  0  0  0  0  0  0  0  0  0
   44.2047   34.7113   46.6217 H   0  0  0  0  0  0  0  0  0  0  0  0
   43.6874   36.3415   44.7080 H   0  0  0  0  0  0  0  0  0  0  0  0
   44.7461   35.3710   42.5857 H   0  0  0  0  0  0  0  0  0  0  0  0
   45.7844   36.6864   43.3872 H   0  0  0  0  0  0  0  0  0  0  0  0
   47.3824   35.2462   44.0026 H   0  0  0  0  0  0  0  0  0  0  0  0
   45.3410   33.0333   43.6683 H   0  0  0  0  0  0  0  0  0  0  0  0
   47.0586   32.7537   43.9862 H   0  0  0  0  0  0  0  0  0  0  0  0
   44.7976   33.7989   47.9299 H   0  0  0  0  0  0  0  0  0  0  0  0
   46.9431   31.2296   45.1940 H   0  0  0  0  0  0  0  0  0  0  0  0
   45.5287   29.7377   48.9130 H   0  0  0  0  0  0  0  0  0  0  0  0
   48.7212   35.9151   42.3454 H   0  0  0  0  0  0  0  0  0  0  0  0
   49.5381   35.6351   39.9754 H   0  0  0  0  0  0  0  0  0  0  0  0
   48.2205   34.1707   38.4832 H   0  0  0  0  0  0  0  0  0  0  0  0
   46.1787   33.0039   39.2055 H   0  0  0  0  0  0  0  0  0  0  0  0
  1  2  1  0
  1  8  1  0
  3  2  2  0
  4  3  1  0
  5  4  1  0
  5  6  1  0
  6  1  1  0
  7 12  2  0
  8  7  1  0
  9  8  2  0
  9 10  1  0
 10 11  2  0
 11 12  1  0
 13  5  1  0
 14 13  2  0
 15 14  1  0
 16 17  1  0
 16 15  2  0
 17 18  2  0
 18 13  1  0
  1 19  1  1
  2 20  1  0
  3 21  1  0
  4 22  1  0
  4 23  1  0
  5 24  1  1
  6 25  1  0
  6 26  1  0
  7 27  1  0
  9 28  1  0
 11 29  1  0
 14 30  1  0
 15 31  1  0
 16 32  1  0
 17 33  1  0
M  ISO  8  19  13  20  13  21  13  22  13  23  13  24  13  25  13  26  13
M  ISO  7  27  14  28  14  29  14  30  14  31  14  32  14  33  14
M  END
>  <minimizedAffinity>  (1) 
-5.83133173

>  <minimizedRMSD>  (1) 
0.592955351

$$$$
