
     RDKit          3D

 33 36  0  0  1  0  0  0  0  0999 V2000
   47.5880   33.7520   42.8160 C   0  0  2  0  0  0  0  0  0  0  0  0
   46.7990   35.0290   42.4190 C   0  0  0  0  0  0  0  0  0  0  0  0
   47.2030   33.9510   41.3950 C   0  0  1  0  0  0  0  0  0  0  0  0
   46.0750   31.8220   45.4800 N   0  0  0  0  0  0  0  0  0  0  0  0
   45.6600   31.1230   44.4040 C   0  0  0  0  0  0  0  0  0  0  0  0
   46.1210   31.6790   43.2690 N   0  0  0  0  0  0  0  0  0  0  0  0
   46.8540   32.7670   43.6560 C   0  0  0  0  0  0  0  0  0  0  0  0
   46.7960   32.8090   44.9820 N   0  0  0  0  0  0  0  0  0  0  0  0
   45.3580   30.3800   47.2740 C   0  0  0  0  0  0  0  0  0  0  0  0
   45.8600   31.6490   46.8640 C   0  0  0  0  0  0  0  0  0  0  0  0
   46.0830   32.5730   47.8430 C   0  0  0  0  0  0  0  0  0  0  0  0
   45.8150   32.2250   49.1210 N   0  0  0  0  0  0  0  0  0  0  0  0
   45.3460   31.0310   49.4840 C   0  0  0  0  0  0  0  0  0  0  0  0
   45.1130   30.0900   48.5390 N   0  0  0  0  0  0  0  0  0  0  0  0
   48.2540   34.1880   40.4310 C   0  0  0  0  0  0  0  0  0  0  0  0
   48.6100   35.4160   40.2570 O   0  0  0  0  0  0  0  0  0  0  0  0
   48.8530   33.1660   39.7260 O   0  0  0  0  0  0  0  0  0  0  0  0
   48.6930   33.1260   38.3460 C   0  0  0  0  0  0  0  0  0  0  0  0
   47.6210   33.5180   37.5720 C   0  0  0  0  0  0  0  0  0  0  0  0
   48.0290   33.2440   36.2640 C   0  0  0  0  0  0  0  0  0  0  0  0
   49.2870   32.7150   36.2730 N   0  0  0  0  0  0  0  0  0  0  0  0
   49.6650   32.6540   37.5410 N   0  0  0  0  0  0  0  0  0  0  0  0
   48.5459   33.5282   43.3082 H   0  0  0  0  0  0  0  0  0  0  0  0
   45.7467   35.1485   42.7162 H   0  0  0  0  0  0  0  0  0  0  0  0
   46.9421   36.1144   42.5256 H   0  0  0  0  0  0  0  0  0  0  0  0
   46.6352   33.3788   40.6465 H   0  0  0  0  0  0  0  0  0  0  0  0
   45.0308   30.2218   44.4483 H   0  0  0  0  0  0  0  0  0  0  0  0
   45.1674   29.6134   46.5085 H   0  0  0  0  0  0  0  0  0  0  0  0
   46.4701   33.5732   47.5987 H   0  0  0  0  0  0  0  0  0  0  0  0
   45.1497   30.8119   50.5439 H   0  0  0  0  0  0  0  0  0  0  0  0
   46.6653   33.9473   37.9071 H   0  0  0  0  0  0  0  0  0  0  0  0
   47.4265   33.4272   35.3621 H   0  0  0  0  0  0  0  0  0  0  0  0
   49.8360   32.4203   35.4528 H   0  0  0  0  0  0  0  0  0  0  0  0
  1  7  1  0
  2  1  1  0
  3  2  1  0
  3  1  1  0
  4 10  1  0
  5  4  1  0
  6  7  1  0
  6  5  2  0
  7  8  2  0
  8  4  1  0
  9 14  2  0
 10  9  1  0
 10 11  2  0
 11 12  1  0
 12 13  2  0
 14 13  1  0
 15  3  1  0
 16 15  2  0
 17 15  1  0
 18 17  1  0
 19 18  1  0
 20 21  1  0
 20 19  2  0
 21 22  1  0
 22 18  2  0
  1 23  1  6
  2 24  1  0
  2 25  1  0
  3 26  1  6
  5 27  1  0
  9 28  1  0
 11 29  1  0
 13 30  1  0
 19 31  1  0
 20 32  1  0
 21 33  1  0
M  ISO  8  23  13  24  13  25  13  26  13  27  14  28  14  29  14  30  14
M  ISO  3  31  14  32  14  33   9
M  END
>  <minimizedAffinity>  (1) 
-4.90569448

>  <minimizedRMSD>  (1) 
4.93106651

$$$$
