
     RDKit          3D

 35 38  0  0  1  0  0  0  0  0999 V2000
   46.0160   33.5870   45.7100 C   0  0  2  0  0  0  0  0  0  0  0  0
   44.9240   34.6080   45.8890 C   0  0  0  0  0  0  0  0  0  0  0  0
   44.6260   35.4960   44.7820 C   0  0  0  0  0  0  0  0  0  0  0  0
   45.3790   35.3880   43.5310 C   0  0  0  0  0  0  0  0  0  0  0  0
   46.5300   34.4420   43.5250 C   0  0  1  0  0  0  0  0  0  0  0  0
   46.1720   33.1940   44.2760 C   0  0  0  0  0  0  0  0  0  0  0  0
   46.7970   34.0620   42.1490 N   0  0  0  0  0  0  0  0  0  0  0  0
   46.0140   34.2560   41.0730 C   0  0  0  0  0  0  0  0  0  0  0  0
   46.6060   33.7640   39.9660 N   0  0  0  0  0  0  0  0  0  0  0  0
   47.7860   33.2440   40.3190 C   0  0  0  0  0  0  0  0  0  0  0  0
   48.7770   32.6210   39.5790 C   0  0  0  0  0  0  0  0  0  0  0  0
   49.8670   32.2050   40.2600 N   0  0  0  0  0  0  0  0  0  0  0  0
   49.9710   32.3910   41.5820 C   0  0  0  0  0  0  0  0  0  0  0  0
   49.0110   32.9970   42.3130 N   0  0  0  0  0  0  0  0  0  0  0  0
   47.8920   33.4380   41.6880 C   0  0  0  0  0  0  0  0  0  0  0  0
   45.2930   32.6820   47.9110 C   0  0  0  0  0  0  0  0  0  0  0  0
   45.7600   32.4300   46.6080 C   0  0  0  0  0  0  0  0  0  0  0  0
   45.9690   31.0840   46.2180 C   0  0  0  0  0  0  0  0  0  0  0  0
   45.7100   30.1100   47.1160 N   0  0  0  0  0  0  0  0  0  0  0  0
   45.2610   30.3820   48.3670 C   0  0  0  0  0  0  0  0  0  0  0  0
   45.0580   31.6650   48.7500 N   0  0  0  0  0  0  0  0  0  0  0  0
   46.9814   34.0288   45.9977 H   0  0  0  0  0  0  0  0  0  0  0  0
   44.3668   34.6785   46.8348 H   0  0  0  0  0  0  0  0  0  0  0  0
   43.8331   36.2518   44.8823 H   0  0  0  0  0  0  0  0  0  0  0  0
   44.6784   35.0662   42.7464 H   0  0  0  0  0  0  0  0  0  0  0  0
   45.8203   36.3829   43.3712 H   0  0  0  0  0  0  0  0  0  0  0  0
   47.4013   34.9251   43.9913 H   0  0  0  0  0  0  0  0  0  0  0  0
   45.2290   32.7775   43.8921 H   0  0  0  0  0  0  0  0  0  0  0  0
   46.9489   32.4242   44.1584 H   0  0  0  0  0  0  0  0  0  0  0  0
   45.0297   34.7467   41.0931 H   0  0  0  0  0  0  0  0  0  0  0  0
   48.6816   32.4726   38.4932 H   0  0  0  0  0  0  0  0  0  0  0  0
   50.8770   32.0350   42.0942 H   0  0  0  0  0  0  0  0  0  0  0  0
   45.1205   33.7169   48.2414 H   0  0  0  0  0  0  0  0  0  0  0  0
   46.3330   30.8390   45.2093 H   0  0  0  0  0  0  0  0  0  0  0  0
   45.0618   29.5601   49.0705 H   0  0  0  0  0  0  0  0  0  0  0  0
  1  2  1  0
  1 17  1  0
  3  2  2  0
  4  3  1  0
  5  4  1  0
  5  6  1  0
  6  1  1  0
  7  5  1  0
  8  7  1  0
  9 10  1  0
  9  8  2  0
 10 15  2  0
 11 12  2  0
 11 10  1  0
 12 13  1  0
 13 14  2  0
 15  7  1  0
 15 14  1  0
 16 21  2  0
 17 16  1  0
 18 17  2  0
 18 19  1  0
 19 20  2  0
 20 21  1  0
  1 22  1  1
  2 23  1  0
  3 24  1  0
  4 25  1  0
  4 26  1  0
  5 27  1  1
  6 28  1  0
  6 29  1  0
  8 30  1  0
 11 31  1  0
 13 32  1  0
 16 33  1  0
 18 34  1  0
 20 35  1  0
M  ISO  8  22  13  23  13  24  13  25  13  26  13  27  13  28  13  29  13
M  ISO  6  30  14  31  14  32  14  33  14  34  14  35  14
M  END
>  <minimizedAffinity>  (1) 
-5.68208504

>  <minimizedRMSD>  (1) 
0.767313361

$$$$
