
     RDKit          3D

 31 33  0  0  1  0  0  0  0  0999 V2000
   46.0080   34.0150   45.1780 C   0  0  2  0  0  0  0  0  0  0  0  0
   44.8260   34.9370   45.3380 C   0  0  0  0  0  0  0  0  0  0  0  0
   44.5480   35.8510   44.2520 C   0  0  0  0  0  0  0  0  0  0  0  0
   45.3930   35.8600   43.0600 C   0  0  0  0  0  0  0  0  0  0  0  0
   46.5800   34.9880   43.0560 C   0  0  1  0  0  0  0  0  0  0  0  0
   46.2700   33.6840   43.7410 C   0  0  0  0  0  0  0  0  0  0  0  0
   45.3240   33.0250   47.3270 C   0  0  0  0  0  0  0  0  0  0  0  0
   45.8510   32.8460   46.0470 C   0  0  0  0  0  0  0  0  0  0  0  0
   46.2160   31.5410   45.6740 C   0  0  0  0  0  0  0  0  0  0  0  0
   46.0460   30.5230   46.5570 N   0  0  0  0  0  0  0  0  0  0  0  0
   45.5310   30.7340   47.7940 C   0  0  0  0  0  0  0  0  0  0  0  0
   45.1730   31.9800   48.1760 N   0  0  0  0  0  0  0  0  0  0  0  0
   46.9080   34.6510   41.6250 C   0  0  0  0  0  0  0  0  0  0  0  0
   48.1640   34.8330   41.0690 C   0  0  0  0  0  0  0  0  0  0  0  0
   47.9970   34.3980   39.7720 C   0  0  0  0  0  0  0  0  0  0  0  0
   46.7370   33.9830   39.5490 N   0  0  0  0  0  0  0  0  0  0  0  0
   46.0690   34.1420   40.7000 N   0  0  0  0  0  0  0  0  0  0  0  0
   46.9198   34.5336   45.5092 H   0  0  0  0  0  0  0  0  0  0  0  0
   44.2010   34.9155   46.2430 H   0  0  0  0  0  0  0  0  0  0  0  0
   43.6959   36.5430   44.3238 H   0  0  0  0  0  0  0  0  0  0  0  0
   44.7634   35.5619   42.2087 H   0  0  0  0  0  0  0  0  0  0  0  0
   45.7982   36.8816   43.0140 H   0  0  0  0  0  0  0  0  0  0  0  0
   47.4051   35.5054   43.5674 H   0  0  0  0  0  0  0  0  0  0  0  0
   45.3815   33.2185   43.2894 H   0  0  0  0  0  0  0  0  0  0  0  0
   47.1025   32.9721   43.6404 H   0  0  0  0  0  0  0  0  0  0  0  0
   45.0259   34.0326   47.6523 H   0  0  0  0  0  0  0  0  0  0  0  0
   46.6355   31.3458   44.6760 H   0  0  0  0  0  0  0  0  0  0  0  0
   45.4045   29.8895   48.4874 H   0  0  0  0  0  0  0  0  0  0  0  0
   49.0728   35.2283   41.5464 H   0  0  0  0  0  0  0  0  0  0  0  0
   48.7942   34.3910   39.0141 H   0  0  0  0  0  0  0  0  0  0  0  0
   46.3588   33.6144   38.6647 H   0  0  0  0  0  0  0  0  0  0  0  0
  1  2  1  0
  1  8  1  0
  3  2  2  0
  4  3  1  0
  5  4  1  0
  5  6  1  0
  6  1  1  0
  7 12  2  0
  8  7  1  0
  9  8  2  0
  9 10  1  0
 10 11  2  0
 11 12  1  0
 13  5  1  0
 14 13  1  0
 15 14  2  0
 16 15  1  0
 16 17  1  0
 17 13  2  0
  1 18  1  1
  2 19  1  0
  3 20  1  0
  4 21  1  0
  4 22  1  0
  5 23  1  1
  6 24  1  0
  6 25  1  0
  7 26  1  0
  9 27  1  0
 11 28  1  0
 14 29  1  0
 15 30  1  0
 16 31  1  0
M  ISO  8  18  13  19  13  20  13  21  13  22  13  23  13  24  13  25  13
M  ISO  6  26  14  27  14  28  14  29  14  30  14  31   9
M  END
>  <minimizedAffinity>  (1) 
-5.59237289

>  <minimizedRMSD>  (1) 
0.381344616

$$$$
