
     RDKit          3D

 26 27  0  0  1  0  0  0  0  0999 V2000
   45.8210   33.8320   44.9810 C   0  0  2  0  0  0  0  0  0  0  0  0
   44.9610   34.9860   45.4350 C   0  0  0  0  0  0  0  0  0  0  0  0
   44.4040   35.8350   44.4040 C   0  0  0  0  0  0  0  0  0  0  0  0
   44.6640   35.5840   42.9900 C   0  0  0  0  0  0  0  0  0  0  0  0
   45.6020   34.4760   42.6740 C   0  0  2  0  0  0  0  0  0  0  0  0
   45.3960   33.3360   43.6340 C   0  0  0  0  0  0  0  0  0  0  0  0
   45.3310   33.0880   47.2780 C   0  0  0  0  0  0  0  0  0  0  0  0
   45.8530   32.7920   46.0200 C   0  0  0  0  0  0  0  0  0  0  0  0
   46.3970   31.5110   45.8160 C   0  0  0  0  0  0  0  0  0  0  0  0
   46.3910   30.6250   46.8470 N   0  0  0  0  0  0  0  0  0  0  0  0
   45.8760   30.9430   48.0610 C   0  0  0  0  0  0  0  0  0  0  0  0
   45.3490   32.1690   48.2750 N   0  0  0  0  0  0  0  0  0  0  0  0
   47.0260   34.8330   42.6430 C   0  0  0  0  0  0  0  0  0  0  0  0
   47.8350   35.4020   41.9050 O   0  0  0  0  0  0  0  0  0  0  0  0
   46.8580   34.1734   44.8468 H   0  0  0  0  0  0  0  0  0  0  0  0
   44.7664   35.1733   46.5013 H   0  0  0  0  0  0  0  0  0  0  0  0
   43.7713   36.6875   44.6921 H   0  0  0  0  0  0  0  0  0  0  0  0
   43.7017   35.3544   42.5091 H   0  0  0  0  0  0  0  0  0  0  0  0
   45.1551   36.4955   42.6185 H   0  0  0  0  0  0  0  0  0  0  0  0
   45.3514   34.1885   41.6422 H   0  0  0  0  0  0  0  0  0  0  0  0
   44.3359   33.0431   43.6541 H   0  0  0  0  0  0  0  0  0  0  0  0
   45.9788   32.4528   43.3334 H   0  0  0  0  0  0  0  0  0  0  0  0
   44.8980   34.0818   47.4649 H   0  0  0  0  0  0  0  0  0  0  0  0
   46.8197   31.2312   44.8398 H   0  0  0  0  0  0  0  0  0  0  0  0
   45.8873   30.2012   48.8732 H   0  0  0  0  0  0  0  0  0  0  0  0
   47.5254   34.4866   43.5599 H   0  0  0  0  0  0  0  0  0  0  0  0
  1  2  1  0
  1  8  1  0
  3  2  2  0
  4  3  1  0
  5  4  1  0
  5  6  1  0
  6  1  1  0
  7 12  2  0
  8  7  1  0
  9  8  2  0
  9 10  1  0
 10 11  2  0
 11 12  1  0
 13  5  1  0
 14 13  2  0
  1 15  1  6
  2 16  1  0
  3 17  1  0
  4 18  1  0
  4 19  1  0
  5 20  1  6
  6 21  1  0
  6 22  1  0
  7 23  1  0
  9 24  1  0
 11 25  1  0
 13 26  1  0
M  ISO  8  15  13  16  13  17  13  18  13  19  13  20  13  21  13  22  13
M  ISO  4  23  14  24  14  25  14  26   6
M  END
>  <minimizedAffinity>  (1) 
-4.29643726

>  <minimizedRMSD>  (1) 
0.72802794

$$$$
