
     RDKit          3D

 26 27  0  0  1  0  0  0  0  0999 V2000
   45.9550   33.9060   45.2740 C   0  0  2  0  0  0  0  0  0  0  0  0
   44.8530   34.9110   45.5320 C   0  0  0  0  0  0  0  0  0  0  0  0
   44.5460   35.8450   44.4750 C   0  0  0  0  0  0  0  0  0  0  0  0
   45.2900   35.8020   43.2070 C   0  0  0  0  0  0  0  0  0  0  0  0
   46.3990   34.8370   43.1030 C   0  0  1  0  0  0  0  0  0  0  0  0
   46.0360   33.5590   43.8170 C   0  0  0  0  0  0  0  0  0  0  0  0
   45.2750   32.9660   47.4460 C   0  0  0  0  0  0  0  0  0  0  0  0
   45.7960   32.7580   46.1690 C   0  0  0  0  0  0  0  0  0  0  0  0
   46.1620   31.4430   45.8050 C   0  0  0  0  0  0  0  0  0  0  0  0
   45.9900   30.4450   46.7150 N   0  0  0  0  0  0  0  0  0  0  0  0
   45.4800   30.6830   47.9490 C   0  0  0  0  0  0  0  0  0  0  0  0
   45.1240   31.9380   48.3120 N   0  0  0  0  0  0  0  0  0  0  0  0
   46.6150   34.5010   41.6930 N   0  0  0  0  0  0  0  0  0  0  0  0
   46.9348   34.3459   45.5115 H   0  0  0  0  0  0  0  0  0  0  0  0
   44.3077   34.9290   46.4871 H   0  0  0  0  0  0  0  0  0  0  0  0
   43.7518   36.5924   44.6186 H   0  0  0  0  0  0  0  0  0  0  0  0
   44.5700   35.5642   42.4101 H   0  0  0  0  0  0  0  0  0  0  0  0
   45.7684   36.7894   43.1283 H   0  0  0  0  0  0  0  0  0  0  0  0
   47.2992   35.2859   43.5481 H   0  0  0  0  0  0  0  0  0  0  0  0
   45.0658   33.1840   43.4592 H   0  0  0  0  0  0  0  0  0  0  0  0
   46.7798   32.7699   43.6323 H   0  0  0  0  0  0  0  0  0  0  0  0
   44.9826   33.9809   47.7533 H   0  0  0  0  0  0  0  0  0  0  0  0
   46.5767   31.2301   44.8086 H   0  0  0  0  0  0  0  0  0  0  0  0
   45.3549   29.8520   48.6588 H   0  0  0  0  0  0  0  0  0  0  0  0
   47.1708   33.6363   41.6274 H   0  0  0  0  0  0  0  0  0  0  0  0
   45.7056   34.3605   41.2303 H   0  0  0  0  0  0  0  0  0  0  0  0
  1  2  1  0
  1  8  1  0
  3  2  2  0
  4  3  1  0
  5  4  1  0
  5  6  1  0
  6  1  1  0
  7 12  2  0
  8  7  1  0
  9  8  2  0
  9 10  1  0
 10 11  2  0
 11 12  1  0
 13  5  1  0
  1 14  1  1
  2 15  1  0
  3 16  1  0
  4 17  1  0
  4 18  1  0
  5 19  1  1
  6 20  1  0
  6 21  1  0
  7 22  1  0
  9 23  1  0
 11 24  1  0
 13 25  1  0
 13 26  1  0
M  ISO  8  14  13  15  13  16  13  17  13  18  13  19  13  20  13  21  13
M  ISO  5  22  14  23  14  24  14  25   5  26   5
M  END
>  <minimizedAffinity>  (1) 
-4.31556511

>  <minimizedRMSD>  (1) 
0.0548320152

$$$$
