
     RDKit          3D

 27 28  0  0  1  0  0  0  0  0999 V2000
   45.9840   33.9600   45.2570 C   0  0  2  0  0  0  0  0  0  0  0  0
   44.8520   34.9360   45.4910 C   0  0  0  0  0  0  0  0  0  0  0  0
   44.5420   35.8600   44.4160 C   0  0  0  0  0  0  0  0  0  0  0  0
   45.2980   35.8370   43.1660 C   0  0  0  0  0  0  0  0  0  0  0  0
   46.4220   34.8690   43.0710 C   0  0  1  0  0  0  0  0  0  0  0  0
   46.0920   33.6090   43.8080 C   0  0  0  0  0  0  0  0  0  0  0  0
   45.2740   32.9860   47.4070 C   0  0  0  0  0  0  0  0  0  0  0  0
   45.8010   32.7810   46.1300 C   0  0  0  0  0  0  0  0  0  0  0  0
   46.1440   31.4550   45.7500 C   0  0  0  0  0  0  0  0  0  0  0  0
   45.9410   30.4630   46.6500 N   0  0  0  0  0  0  0  0  0  0  0  0
   45.4280   30.6910   47.8840 C   0  0  0  0  0  0  0  0  0  0  0  0
   45.0980   31.9470   48.2580 N   0  0  0  0  0  0  0  0  0  0  0  0
   46.6000   34.4910   41.6120 C   0  0  0  0  0  0  0  0  0  0  0  0
   45.4540   34.7240   40.8830 F   0  0  0  0  0  0  0  0  0  0  0  0
   47.6970   35.1360   41.0670 F   0  0  0  0  0  0  0  0  0  0  0  0
   46.8640   33.1350   41.5770 F   0  0  0  0  0  0  0  0  0  0  0  0
   46.9440   34.4247   45.5261 H   0  0  0  0  0  0  0  0  0  0  0  0
   44.2882   34.9448   46.4355 H   0  0  0  0  0  0  0  0  0  0  0  0
   43.7269   36.5875   44.5439 H   0  0  0  0  0  0  0  0  0  0  0  0
   44.5913   35.6044   42.3558 H   0  0  0  0  0  0  0  0  0  0  0  0
   45.7705   36.8282   43.1015 H   0  0  0  0  0  0  0  0  0  0  0  0
   47.3250   35.3311   43.4965 H   0  0  0  0  0  0  0  0  0  0  0  0
   45.1367   33.2004   43.4470 H   0  0  0  0  0  0  0  0  0  0  0  0
   46.8695   32.8476   43.6475 H   0  0  0  0  0  0  0  0  0  0  0  0
   44.9988   34.0024   47.7252 H   0  0  0  0  0  0  0  0  0  0  0  0
   46.5617   31.2408   44.7552 H   0  0  0  0  0  0  0  0  0  0  0  0
   45.2803   29.8531   48.5813 H   0  0  0  0  0  0  0  0  0  0  0  0
  1  2  1  0
  1  8  1  0
  3  2  2  0
  4  3  1  0
  5  4  1  0
  5  6  1  0
  6  1  1  0
  7 12  2  0
  8  7  1  0
  9  8  2  0
  9 10  1  0
 10 11  2  0
 11 12  1  0
 13  5  1  0
 14 13  1  0
 15 13  1  0
 16 13  1  0
  1 17  1  1
  2 18  1  0
  3 19  1  0
  4 20  1  0
  4 21  1  0
  5 22  1  1
  6 23  1  0
  6 24  1  0
  7 25  1  0
  9 26  1  0
 11 27  1  0
M  ISO  8  17  13  18  13  19  13  20  13  21  13  22  13  23  13  24  13
M  ISO  3  25  14  26  14  27  14
M  END
>  <minimizedAffinity>  (1) 
-5.07003307

>  <minimizedRMSD>  (1) 
0.106081262

$$$$
