
     RDKit          3D

 27 28  0  0  1  0  0  0  0  0999 V2000
   45.9670   33.9250   45.2530 C   0  0  2  0  0  0  0  0  0  0  0  0
   44.8610   34.9260   45.5060 C   0  0  0  0  0  0  0  0  0  0  0  0
   44.5420   35.8490   44.4330 C   0  0  0  0  0  0  0  0  0  0  0  0
   45.2700   35.8000   43.1640 C   0  0  0  0  0  0  0  0  0  0  0  0
   46.4250   34.8590   43.0900 C   0  0  1  0  0  0  0  0  0  0  0  0
   46.0570   33.5820   43.7970 C   0  0  0  0  0  0  0  0  0  0  0  0
   45.2710   32.9780   47.4210 C   0  0  0  0  0  0  0  0  0  0  0  0
   45.7930   32.7720   46.1430 C   0  0  0  0  0  0  0  0  0  0  0  0
   46.1380   31.4570   45.7920 C   0  0  0  0  0  0  0  0  0  0  0  0
   45.9560   30.4540   46.6880 N   0  0  0  0  0  0  0  0  0  0  0  0
   45.4460   30.6920   47.9220 C   0  0  0  0  0  0  0  0  0  0  0  0
   45.1070   31.9480   48.2810 N   0  0  0  0  0  0  0  0  0  0  0  0
   46.6170   34.4950   41.6150 C   0  0  0  0  0  0  0  0  0  0  0  0
   46.9458   34.3630   45.4980 H   0  0  0  0  0  0  0  0  0  0  0  0
   44.3210   34.9529   46.4640 H   0  0  0  0  0  0  0  0  0  0  0  0
   43.7447   36.5935   44.5746 H   0  0  0  0  0  0  0  0  0  0  0  0
   44.5543   35.5115   42.3801 H   0  0  0  0  0  0  0  0  0  0  0  0
   45.7058   36.8026   43.0419 H   0  0  0  0  0  0  0  0  0  0  0  0
   47.3212   35.3156   43.5353 H   0  0  0  0  0  0  0  0  0  0  0  0
   45.0888   33.2088   43.4320 H   0  0  0  0  0  0  0  0  0  0  0  0
   46.8012   32.7927   43.6150 H   0  0  0  0  0  0  0  0  0  0  0  0
   44.9887   33.9943   47.7332 H   0  0  0  0  0  0  0  0  0  0  0  0
   46.5534   31.2410   44.7966 H   0  0  0  0  0  0  0  0  0  0  0  0
   45.3087   29.8615   48.6301 H   0  0  0  0  0  0  0  0  0  0  0  0
   47.1290   33.5243   41.5405 H   0  0  0  0  0  0  0  0  0  0  0  0
   45.6355   34.4306   41.1225 H   0  0  0  0  0  0  0  0  0  0  0  0
   47.2244   35.2686   41.1225 H   0  0  0  0  0  0  0  0  0  0  0  0
  1  2  1  0
  1  8  1  0
  3  2  2  0
  4  3  1  0
  5  4  1  0
  5  6  1  0
  6  1  1  0
  7 12  2  0
  8  7  1  0
  9  8  2  0
  9 10  1  0
 10 11  2  0
 11 12  1  0
 13  5  1  0
  1 14  1  1
  2 15  1  0
  3 16  1  0
  4 17  1  0
  4 18  1  0
  5 19  1  1
  6 20  1  0
  6 21  1  0
  7 22  1  0
  9 23  1  0
 11 24  1  0
 13 25  1  0
 13 26  1  0
 13 27  1  0
M  ISO  8  14  13  15  13  16  13  17  13  18  13  19  13  20  13  21  13
M  ISO  6  22  14  23  14  24  14  25   8  26   8  27   8
M  END
>  <minimizedAffinity>  (1) 
-4.50235128

>  <minimizedRMSD>  (1) 
0.0613902994

$$$$
