
     RDKit          3D

 30 32  0  0  1  0  0  0  0  0999 V2000
   46.0310   33.9530   45.3230 C   0  0  2  0  0  0  0  0  0  0  0  0
   44.8600   34.8880   45.4680 C   0  0  0  0  0  0  0  0  0  0  0  0
   44.5530   35.7750   44.3620 C   0  0  0  0  0  0  0  0  0  0  0  0
   45.3690   35.7500   43.1500 C   0  0  0  0  0  0  0  0  0  0  0  0
   46.5740   34.8760   43.1770 C   0  0  1  0  0  0  0  0  0  0  0  0
   46.2530   33.5920   43.8870 C   0  0  0  0  0  0  0  0  0  0  0  0
   45.2730   32.9440   47.4750 C   0  0  0  0  0  0  0  0  0  0  0  0
   45.8180   32.7730   46.1960 C   0  0  0  0  0  0  0  0  0  0  0  0
   46.1470   31.4540   45.7940 C   0  0  0  0  0  0  0  0  0  0  0  0
   45.9190   30.4420   46.6540 N   0  0  0  0  0  0  0  0  0  0  0  0
   45.3900   30.6410   47.8830 C   0  0  0  0  0  0  0  0  0  0  0  0
   45.0740   31.8980   48.2750 N   0  0  0  0  0  0  0  0  0  0  0  0
   46.8320   34.4820   41.7820 N   0  0  0  0  0  0  0  0  0  0  0  0
   47.9480   34.7680   41.0860 C   0  0  0  0  0  0  0  0  0  0  0  0
   47.8700   34.2680   39.8500 N   0  0  0  0  0  0  0  0  0  0  0  0
   46.6870   33.6580   39.7630 C   0  0  0  0  0  0  0  0  0  0  0  0
   46.0490   33.7870   40.9440 N   0  0  0  0  0  0  0  0  0  0  0  0
   46.9558   34.4501   45.6510 H   0  0  0  0  0  0  0  0  0  0  0  0
   44.2545   34.8983   46.3863 H   0  0  0  0  0  0  0  0  0  0  0  0
   43.7028   36.4690   44.4359 H   0  0  0  0  0  0  0  0  0  0  0  0
   45.7066   36.7783   42.9534 H   0  0  0  0  0  0  0  0  0  0  0  0
   44.7191   35.3250   42.3709 H   0  0  0  0  0  0  0  0  0  0  0  0
   47.4087   35.4031   43.6622 H   0  0  0  0  0  0  0  0  0  0  0  0
   45.3449   33.1385   43.4630 H   0  0  0  0  0  0  0  0  0  0  0  0
   47.0668   32.8599   43.7789 H   0  0  0  0  0  0  0  0  0  0  0  0
   45.0065   33.9531   47.8224 H   0  0  0  0  0  0  0  0  0  0  0  0
   46.5792   31.2607   44.8011 H   0  0  0  0  0  0  0  0  0  0  0  0
   45.2181   29.7895   48.5578 H   0  0  0  0  0  0  0  0  0  0  0  0
   48.8046   35.3344   41.4801 H   0  0  0  0  0  0  0  0  0  0  0  0
   46.2971   33.1369   38.8762 H   0  0  0  0  0  0  0  0  0  0  0  0
  1  2  1  0
  1  8  1  0
  3  2  2  0
  4  5  1  0
  4  3  1  0
  5  6  1  0
  6  1  1  0
  7 12  2  0
  8  7  1  0
  9  8  2  0
  9 10  1  0
 10 11  2  0
 11 12  1  0
 13  5  1  0
 14 13  1  0
 15 14  2  0
 16 15  1  0
 16 17  2  0
 17 13  1  0
  1 18  1  1
  2 19  1  0
  3 20  1  0
  4 21  1  0
  4 22  1  0
  5 23  1  1
  6 24  1  0
  6 25  1  0
  7 26  1  0
  9 27  1  0
 11 28  1  0
 14 29  1  0
 16 30  1  0
M  ISO  8  18  13  19  13  20  13  21  13  22  13  23  13  24  13  25  13
M  ISO  5  26  14  27  14  28  14  29  14  30  14
M  END
>  <minimizedAffinity>  (1) 
-5.06456566

>  <minimizedRMSD>  (1) 
0.412239999

$$$$
