
     RDKit          3D

 25 26  0  0  1  0  0  0  0  0999 V2000
   45.8300   33.8320   44.9110 C   0  0  2  0  0  0  0  0  0  0  0  0
   45.0150   35.0420   45.3030 C   0  0  0  0  0  0  0  0  0  0  0  0
   44.2920   35.7300   44.2580 C   0  0  0  0  0  0  0  0  0  0  0  0
   44.3550   35.2630   42.8690 C   0  0  0  0  0  0  0  0  0  0  0  0
   45.3220   34.1660   42.5950 C   0  0  2  0  0  0  0  0  0  0  0  0
   45.2230   33.1610   43.7180 C   0  0  0  0  0  0  0  0  0  0  0  0
   45.2730   33.1870   47.2310 C   0  0  0  0  0  0  0  0  0  0  0  0
   46.0330   32.9780   46.0820 C   0  0  0  0  0  0  0  0  0  0  0  0
   46.9830   31.9510   46.1090 C   0  0  0  0  0  0  0  0  0  0  0  0
   47.1290   31.2040   47.2420 N   0  0  0  0  0  0  0  0  0  0  0  0
   46.3700   31.4390   48.3400 C   0  0  0  0  0  0  0  0  0  0  0  0
   45.4440   32.4270   48.3330 N   0  0  0  0  0  0  0  0  0  0  0  0
   47.0280   34.7920   42.5650 S   0  0  0  0  0  0  0  0  0  0  0  0
   46.8391   34.1208   44.5819 H   0  0  0  0  0  0  0  0  0  0  0  0
   44.9734   35.3870   46.3467 H   0  0  0  0  0  0  0  0  0  0  0  0
   43.6872   36.6144   44.5071 H   0  0  0  0  0  0  0  0  0  0  0  0
   43.3530   34.9070   42.5874 H   0  0  0  0  0  0  0  0  0  0  0  0
   44.7073   36.1237   42.2815 H   0  0  0  0  0  0  0  0  0  0  0  0
   45.0828   33.7198   41.6184 H   0  0  0  0  0  0  0  0  0  0  0  0
   44.1710   32.9063   43.9142 H   0  0  0  0  0  0  0  0  0  0  0  0
   45.7399   32.2218   43.4715 H   0  0  0  0  0  0  0  0  0  0  0  0
   44.5186   33.9875   47.2400 H   0  0  0  0  0  0  0  0  0  0  0  0
   47.6062   31.7476   45.2256 H   0  0  0  0  0  0  0  0  0  0  0  0
   46.5069   30.8239   49.2416 H   0  0  0  0  0  0  0  0  0  0  0  0
   47.4767   34.9566   43.8489 H   0  0  0  0  0  0  0  0  0  0  0  0
  1  2  1  0
  1  8  1  0
  3  2  2  0
  4  3  1  0
  5  4  1  0
  5  6  1  0
  6  1  1  0
  7 12  2  0
  8  9  2  0
  8  7  1  0
  9 10  1  0
 10 11  2  0
 12 11  1  0
 13  5  1  0
  1 14  1  6
  2 15  1  0
  3 16  1  0
  4 17  1  0
  4 18  1  0
  5 19  1  6
  6 20  1  0
  6 21  1  0
  7 22  1  0
  9 23  1  0
 11 24  1  0
 13 25  1  0
M  ISO  8  14  13  15  13  16  13  17  13  18  13  19  13  20  13  21  13
M  ISO  4  22  14  23  14  24  14  25  11
M  END
>  <minimizedAffinity>  (1) 
-4.05078745

>  <minimizedRMSD>  (1) 
1.0125463

$$$$
