
     RDKit          3D

 53 57  0  0  1  0  0  0  0  0999 V2000
   46.4410   33.5980   44.8580 C   0  0  2  0  0  0  0  0  0  0  0  0
   45.0760   34.2780   44.9420 C   0  0  0  0  0  0  0  0  0  0  0  0
   44.8300   35.3360   43.9920 C   0  0  0  0  0  0  0  0  0  0  0  0
   45.8380   35.7410   43.0120 C   0  0  0  0  0  0  0  0  0  0  0  0
   47.1020   34.9750   43.0190 C   0  0  1  0  0  0  0  0  0  0  0  0
   46.9420   33.5800   43.4470 C   0  0  0  0  0  0  0  0  0  0  0  0
   47.6860   34.9740   41.6620 C   0  0  0  0  0  0  0  0  0  0  0  0
   48.8240   35.6640   41.2420 C   0  0  0  0  0  0  0  0  0  0  0  0
   48.9420   35.3370   39.9510 N   0  0  0  0  0  0  0  0  0  0  0  0
   47.9760   34.5060   39.5280 C   0  0  0  0  0  0  0  0  0  0  0  0
   47.7780   33.9580   38.2620 C   0  0  0  0  0  0  0  0  0  0  0  0
   46.6860   33.1350   38.1580 C   0  0  0  0  0  0  0  0  0  0  0  0
   45.8180   32.8370   39.1870 C   0  0  0  0  0  0  0  0  0  0  0  0
   46.0980   33.4300   40.4090 C   0  0  0  0  0  0  0  0  0  0  0  0
   47.1600   34.2700   40.6400 C   0  0  0  0  0  0  0  0  0  0  0  0
   46.7140   32.0970   46.8130 C   0  0  0  0  0  0  0  0  0  0  0  0
   46.3320   32.2560   45.4780 C   0  0  0  0  0  0  0  0  0  0  0  0
   45.8540   31.1060   44.7620 C   0  0  0  0  0  0  0  0  0  0  0  0
   45.8050   29.9240   45.4310 N   0  0  0  0  0  0  0  0  0  0  0  0
   46.1810   29.8210   46.7090 C   0  0  0  0  0  0  0  0  0  0  0  0
   46.6320   30.8810   47.4030 N   0  0  0  0  0  0  0  0  0  0  0  0
   46.1130   28.5670   47.3770 N   0  0  0  0  0  0  0  0  0  0  0  0
   44.9660   28.1020   48.1010 C   0  0  0  0  0  0  0  0  0  0  0  0
   44.4550   26.7720   47.5800 C   0  0  0  0  0  0  0  0  0  0  0  0
   45.5490   25.7580   47.4570 C   0  0  0  0  0  0  0  0  0  0  0  0
   46.7480   26.3170   46.7610 C   0  0  0  0  0  0  0  0  0  0  0  0
   47.2080   27.6260   47.3920 C   0  0  0  0  0  0  0  0  0  0  0  0
   47.1989   34.1636   45.4199 H   0  0  0  0  0  0  0  0  0  0  0  0
   44.3225   33.9780   45.6851 H   0  0  0  0  0  0  0  0  0  0  0  0
   43.8585   35.8518   44.0050 H   0  0  0  0  0  0  0  0  0  0  0  0
   46.0844   36.7963   43.2010 H   0  0  0  0  0  0  0  0  0  0  0  0
   45.3844   35.5501   42.0282 H   0  0  0  0  0  0  0  0  0  0  0  0
   47.7580   35.4740   43.7475 H   0  0  0  0  0  0  0  0  0  0  0  0
   46.2167   33.0684   42.7972 H   0  0  0  0  0  0  0  0  0  0  0  0
   47.8993   33.0421   43.3821 H   0  0  0  0  0  0  0  0  0  0  0  0
   49.4735   36.3241   41.8357 H   0  0  0  0  0  0  0  0  0  0  0  0
   49.6965   35.6867   39.3433 H   0  0  0  0  0  0  0  0  0  0  0  0
   48.4450   34.1690   37.4131 H   0  0  0  0  0  0  0  0  0  0  0  0
   46.4872   32.6772   37.1778 H   0  0  0  0  0  0  0  0  0  0  0  0
   44.9553   32.1691   39.0471 H   0  0  0  0  0  0  0  0  0  0  0  0
   45.4237   33.2129   41.2506 H   0  0  0  0  0  0  0  0  0  0  0  0
   47.0819   32.9613   47.3854 H   0  0  0  0  0  0  0  0  0  0  0  0
   45.5391   31.1794   43.7106 H   0  0  0  0  0  0  0  0  0  0  0  0
   45.2399   27.9852   49.1599 H   0  0  0  0  0  0  0  0  0  0  0  0
   44.1640   28.8438   47.9722 H   0  0  0  0  0  0  0  0  0  0  0  0
   43.6923   26.3886   48.2738 H   0  0  0  0  0  0  0  0  0  0  0  0
   44.0342   26.9398   46.5776 H   0  0  0  0  0  0  0  0  0  0  0  0
   45.8435   25.4280   48.4641 H   0  0  0  0  0  0  0  0  0  0  0  0
   45.1690   24.9156   46.8604 H   0  0  0  0  0  0  0  0  0  0  0  0
   46.4948   26.4995   45.7062 H   0  0  0  0  0  0  0  0  0  0  0  0
   47.5666   25.5877   46.8499 H   0  0  0  0  0  0  0  0  0  0  0  0
   48.0530   28.0347   46.8184 H   0  0  0  0  0  0  0  0  0  0  0  0
   47.5281   27.4457   48.4288 H   0  0  0  0  0  0  0  0  0  0  0  0
  1  2  1  0
  1 17  1  0
  3  2  2  0
  4  5  1  0
  4  3  1  0
  5  6  1  0
  6  1  1  0
  7  5  1  0
  8  7  2  0
  9  8  1  0
 10  9  1  0
 10 15  2  0
 11 10  1  0
 12 11  2  0
 12 13  1  0
 13 14  2  0
 14 15  1  0
 15  7  1  0
 16 21  2  0
 17 16  1  0
 18 19  1  0
 18 17  2  0
 19 20  2  0
 20 22  1  0
 20 21  1  0
 22 27  1  0
 22 23  1  0
 24 23  1  0
 25 24  1  0
 26 27  1  0
 26 25  1  0
  1 28  1  1
  2 29  1  0
  3 30  1  0
  4 31  1  0
  4 32  1  0
  5 33  1  1
  6 34  1  0
  6 35  1  0
  8 36  1  0
  9 37  1  0
 11 38  1  0
 12 39  1  0
 13 40  1  0
 14 41  1  0
 16 42  1  0
 18 43  1  0
 23 44  1  0
 23 45  1  0
 24 46  1  0
 24 47  1  0
 25 48  1  0
 25 49  1  0
 26 50  1  0
 26 51  1  0
 27 52  1  0
 27 53  1  0
M  ISO  8  28  13  29  13  30  13  31  13  32  13  33  13  34  13  35  13
M  ISO  8  36  14  37   9  38  14  39  14  40  14  41  14  42  14  43  14
M  ISO  8  44  13  45  13  46  13  47  13  48  13  49  13  50  13  51  13
M  ISO  2  52  13  53  13
M  END
>  <minimizedAffinity>  (1) 
-6.8448143

>  <minimizedRMSD>  (1) 
1.17614257

$$$$
