
     RDKit          3D

 51 55  0  0  1  0  0  0  0  0999 V2000
   46.4450   33.6040   44.8590 C   0  0  2  0  0  0  0  0  0  0  0  0
   45.0670   34.2610   44.9440 C   0  0  0  0  0  0  0  0  0  0  0  0
   44.8130   35.3200   43.9960 C   0  0  0  0  0  0  0  0  0  0  0  0
   45.8270   35.7360   43.0110 C   0  0  0  0  0  0  0  0  0  0  0  0
   47.0920   34.9850   43.0250 C   0  0  1  0  0  0  0  0  0  0  0  0
   46.9540   33.5910   43.4620 C   0  0  0  0  0  0  0  0  0  0  0  0
   47.6830   34.9820   41.6630 C   0  0  0  0  0  0  0  0  0  0  0  0
   48.8210   35.6640   41.2410 C   0  0  0  0  0  0  0  0  0  0  0  0
   48.9410   35.3360   39.9520 N   0  0  0  0  0  0  0  0  0  0  0  0
   47.9680   34.5030   39.5350 C   0  0  0  0  0  0  0  0  0  0  0  0
   47.7740   33.9500   38.2650 C   0  0  0  0  0  0  0  0  0  0  0  0
   46.6850   33.1290   38.1670 C   0  0  0  0  0  0  0  0  0  0  0  0
   45.8130   32.8350   39.1990 C   0  0  0  0  0  0  0  0  0  0  0  0
   46.0950   33.4340   40.4160 C   0  0  0  0  0  0  0  0  0  0  0  0
   47.1580   34.2760   40.6410 C   0  0  0  0  0  0  0  0  0  0  0  0
   46.6770   32.1570   46.8620 C   0  0  0  0  0  0  0  0  0  0  0  0
   46.3620   32.2750   45.5080 C   0  0  0  0  0  0  0  0  0  0  0  0
   45.9900   31.1040   44.7770 C   0  0  0  0  0  0  0  0  0  0  0  0
   45.9660   29.9210   45.4590 N   0  0  0  0  0  0  0  0  0  0  0  0
   46.2770   29.8420   46.7650 C   0  0  0  0  0  0  0  0  0  0  0  0
   46.6240   30.9460   47.4450 N   0  0  0  0  0  0  0  0  0  0  0  0
   46.2280   28.5680   47.4000 N   0  0  0  0  0  0  0  0  0  0  0  0
   47.4220   27.7420   47.4090 C   0  0  0  0  0  0  0  0  0  0  0  0
   46.9860   26.3670   46.9180 C   0  0  0  0  0  0  0  0  0  0  0  0
   45.6720   26.3580   46.4600 O   0  0  0  0  0  0  0  0  0  0  0  0
   44.7760   26.6950   47.4780 C   0  0  0  0  0  0  0  0  0  0  0  0
   45.0130   28.0820   48.0300 C   0  0  0  0  0  0  0  0  0  0  0  0
   47.1996   34.1883   45.4060 H   0  0  0  0  0  0  0  0  0  0  0  0
   44.3149   33.9461   45.6824 H   0  0  0  0  0  0  0  0  0  0  0  0
   43.8380   35.8291   44.0094 H   0  0  0  0  0  0  0  0  0  0  0  0
   46.0626   36.7940   43.1982 H   0  0  0  0  0  0  0  0  0  0  0  0
   45.3787   35.5396   42.0259 H   0  0  0  0  0  0  0  0  0  0  0  0
   47.7366   35.4971   43.7546 H   0  0  0  0  0  0  0  0  0  0  0  0
   46.2438   33.0622   42.8093 H   0  0  0  0  0  0  0  0  0  0  0  0
   47.9229   33.0729   43.4096 H   0  0  0  0  0  0  0  0  0  0  0  0
   49.4726   36.3227   41.8339 H   0  0  0  0  0  0  0  0  0  0  0  0
   49.6958   35.6824   39.3427 H   0  0  0  0  0  0  0  0  0  0  0  0
   48.4417   34.1582   37.4160 H   0  0  0  0  0  0  0  0  0  0  0  0
   46.4868   32.6655   37.1893 H   0  0  0  0  0  0  0  0  0  0  0  0
   44.9495   32.1674   39.0623 H   0  0  0  0  0  0  0  0  0  0  0  0
   45.4223   33.2213   41.2599 H   0  0  0  0  0  0  0  0  0  0  0  0
   46.9652   33.0437   47.4458 H   0  0  0  0  0  0  0  0  0  0  0  0
   45.7335   31.1538   43.7085 H   0  0  0  0  0  0  0  0  0  0  0  0
   48.1836   28.1640   46.7368 H   0  0  0  0  0  0  0  0  0  0  0  0
   47.8669   27.6884   48.4136 H   0  0  0  0  0  0  0  0  0  0  0  0
   47.6486   26.0594   46.0956 H   0  0  0  0  0  0  0  0  0  0  0  0
   47.0489   25.6723   47.7686 H   0  0  0  0  0  0  0  0  0  0  0  0
   43.7531   26.6464   47.0765 H   0  0  0  0  0  0  0  0  0  0  0  0
   44.9251   25.9806   48.3010 H   0  0  0  0  0  0  0  0  0  0  0  0
   45.1400   28.0411   49.1219 H   0  0  0  0  0  0  0  0  0  0  0  0
   44.1612   28.7464   47.8226 H   0  0  0  0  0  0  0  0  0  0  0  0
  1  2  1  0
  1 17  1  0
  3  2  2  0
  4  5  1  0
  4  3  1  0
  5  6  1  0
  6  1  1  0
  7  5  1  0
  8  7  2  0
  9  8  1  0
 10  9  1  0
 10 15  2  0
 11 10  1  0
 12 11  2  0
 12 13  1  0
 13 14  2  0
 14 15  1  0
 15  7  1  0
 16 21  2  0
 17 16  1  0
 18 19  1  0
 18 17  2  0
 19 20  2  0
 20 22  1  0
 20 21  1  0
 22 23  1  0
 22 27  1  0
 24 23  1  0
 25 24  1  0
 25 26  1  0
 26 27  1  0
  1 28  1  1
  2 29  1  0
  3 30  1  0
  4 31  1  0
  4 32  1  0
  5 33  1  1
  6 34  1  0
  6 35  1  0
  8 36  1  0
  9 37  1  0
 11 38  1  0
 12 39  1  0
 13 40  1  0
 14 41  1  0
 16 42  1  0
 18 43  1  0
 23 44  1  0
 23 45  1  0
 24 46  1  0
 24 47  1  0
 26 48  1  0
 26 49  1  0
 27 50  1  0
 27 51  1  0
M  ISO  8  28  13  29  13  30  13  31  13  32  13  33  13  34  13  35  13
M  ISO  8  36  14  37   9  38  14  39  14  40  14  41  14  42  14  43  14
M  ISO  8  44  13  45  13  46  13  47  13  48  13  49  13  50  13  51  13
M  END
>  <minimizedAffinity>  (1) 
-6.74591303

>  <minimizedRMSD>  (1) 
1.14040124

$$$$
