
     RDKit          3D

 40 43  0  0  1  0  0  0  0  0999 V2000
   46.1400   34.0900   45.1350 C   0  0  2  0  0  0  0  0  0  0  0  0
   44.8130   34.8370   45.1120 C   0  0  0  0  0  0  0  0  0  0  0  0
   44.5920   35.7200   43.9870 C   0  0  0  0  0  0  0  0  0  0  0  0
   45.5990   35.8940   42.9410 C   0  0  0  0  0  0  0  0  0  0  0  0
   46.8310   35.0850   43.0760 C   0  0  1  0  0  0  0  0  0  0  0  0
   46.6180   33.7990   43.7460 C   0  0  0  0  0  0  0  0  0  0  0  0
   47.3930   34.8190   41.7330 C   0  0  0  0  0  0  0  0  0  0  0  0
   48.6610   35.1720   41.2760 C   0  0  0  0  0  0  0  0  0  0  0  0
   48.6940   34.7100   40.0210 N   0  0  0  0  0  0  0  0  0  0  0  0
   47.5520   34.0990   39.6610 C   0  0  0  0  0  0  0  0  0  0  0  0
   47.2230   33.4950   38.4400 C   0  0  0  0  0  0  0  0  0  0  0  0
   45.9680   32.9560   38.3960 C   0  0  0  0  0  0  0  0  0  0  0  0
   45.0570   32.9710   39.4310 C   0  0  0  0  0  0  0  0  0  0  0  0
   45.4750   33.5910   40.5970 C   0  0  0  0  0  0  0  0  0  0  0  0
   46.7110   34.1700   40.7660 C   0  0  0  0  0  0  0  0  0  0  0  0
   45.3790   33.0170   47.2390 C   0  0  0  0  0  0  0  0  0  0  0  0
   45.9780   32.8790   45.9860 C   0  0  0  0  0  0  0  0  0  0  0  0
   46.4240   31.5790   45.5700 C   0  0  0  0  0  0  0  0  0  0  0  0
   46.2310   30.5470   46.4330 N   0  0  0  0  0  0  0  0  0  0  0  0
   45.6510   30.7260   47.6230 C   0  0  0  0  0  0  0  0  0  0  0  0
   45.2230   31.9430   48.0390 N   0  0  0  0  0  0  0  0  0  0  0  0
   45.4690   29.6140   48.4950 N   0  0  0  0  0  0  0  0  0  0  0  0
   46.9323   34.7100   45.5799 H   0  0  0  0  0  0  0  0  0  0  0  0
   44.0633   34.7121   45.9072 H   0  0  0  0  0  0  0  0  0  0  0  0
   43.6440   36.2735   43.9170 H   0  0  0  0  0  0  0  0  0  0  0  0
   45.8933   36.9539   42.9320 H   0  0  0  0  0  0  0  0  0  0  0  0
   45.1208   35.5477   42.0129 H   0  0  0  0  0  0  0  0  0  0  0  0
   47.5200   35.6732   43.6999 H   0  0  0  0  0  0  0  0  0  0  0  0
   45.8614   33.2133   43.2032 H   0  0  0  0  0  0  0  0  0  0  0  0
   47.5502   33.2155   43.7709 H   0  0  0  0  0  0  0  0  0  0  0  0
   49.4524   35.7071   41.8213 H   0  0  0  0  0  0  0  0  0  0  0  0
   49.5074   34.8116   39.3973 H   0  0  0  0  0  0  0  0  0  0  0  0
   47.9174   33.4578   37.5877 H   0  0  0  0  0  0  0  0  0  0  0  0
   45.6593   32.4706   37.4584 H   0  0  0  0  0  0  0  0  0  0  0  0
   44.0590   32.5181   39.3365 H   0  0  0  0  0  0  0  0  0  0  0  0
   44.7726   33.6223   41.4429 H   0  0  0  0  0  0  0  0  0  0  0  0
   45.0329   34.0056   47.5751 H   0  0  0  0  0  0  0  0  0  0  0  0
   46.9028   31.4246   44.5918 H   0  0  0  0  0  0  0  0  0  0  0  0
   45.0223   29.7475   49.4134 H   0  0  0  0  0  0  0  0  0  0  0  0
   45.7842   28.6767   48.2069 H   0  0  0  0  0  0  0  0  0  0  0  0
  1 17  1  0
  2  1  1  0
  3  2  2  0
  4  5  1  0
  4  3  1  0
  5  6  1  0
  6  1  1  0
  7  5  1  0
  8  7  2  0
  9  8  1  0
 10  9  1  0
 10 15  2  0
 11 10  1  0
 12 11  2  0
 12 13  1  0
 13 14  2  0
 14 15  1  0
 15  7  1  0
 16 21  2  0
 17 16  1  0
 18 17  2  0
 18 19  1  0
 19 20  2  0
 20 21  1  0
 20 22  1  0
  1 23  1  1
  2 24  1  0
  3 25  1  0
  4 26  1  0
  4 27  1  0
  5 28  1  1
  6 29  1  0
  6 30  1  0
  8 31  1  0
  9 32  1  0
 11 33  1  0
 12 34  1  0
 13 35  1  0
 14 36  1  0
 16 37  1  0
 18 38  1  0
 22 39  1  0
 22 40  1  0
M  ISO  8  23  13  24  13  25  13  26  13  27  13  28  13  29  13  30  13
M  ISO  8  31  14  32   9  33  14  34  14  35  14  36  14  37  14  38  14
M  END
>  <minimizedAffinity>  (1) 
-6.59031868

>  <minimizedRMSD>  (1) 
0.0917039439

$$$$
