
     RDKit          3D

 39 42  0  0  1  0  0  0  0  0999 V2000
   46.3030   34.0730   45.1080 C   0  0  2  0  0  0  0  0  0  0  0  0
   44.8950   34.6650   45.0880 C   0  0  0  0  0  0  0  0  0  0  0  0
   44.5940   35.5310   43.9670 C   0  0  0  0  0  0  0  0  0  0  0  0
   45.5830   35.8200   42.9270 C   0  0  0  0  0  0  0  0  0  0  0  0
   46.8900   35.1580   43.0660 C   0  0  1  0  0  0  0  0  0  0  0  0
   46.8260   33.8530   43.7350 C   0  0  0  0  0  0  0  0  0  0  0  0
   47.4920   34.9580   41.7280 C   0  0  0  0  0  0  0  0  0  0  0  0
   48.7210   35.4380   41.2820 C   0  0  0  0  0  0  0  0  0  0  0  0
   48.8100   34.9920   40.0240 N   0  0  0  0  0  0  0  0  0  0  0  0
   47.7360   34.2710   39.6490 C   0  0  0  0  0  0  0  0  0  0  0  0
   47.4810   33.6510   38.4250 C   0  0  0  0  0  0  0  0  0  0  0  0
   46.2870   32.9880   38.3630 C   0  0  0  0  0  0  0  0  0  0  0  0
   45.3730   32.9030   39.3900 C   0  0  0  0  0  0  0  0  0  0  0  0
   45.7160   33.5520   40.5650 C   0  0  0  0  0  0  0  0  0  0  0  0
   46.8900   34.2520   40.7490 C   0  0  0  0  0  0  0  0  0  0  0  0
   45.5080   32.8770   47.1240 C   0  0  0  0  0  0  0  0  0  0  0  0
   46.2750   32.8580   45.9590 C   0  0  0  0  0  0  0  0  0  0  0  0
   47.0240   31.6760   45.6430 C   0  0  0  0  0  0  0  0  0  0  0  0
   46.9450   30.6290   46.5030 N   0  0  0  0  0  0  0  0  0  0  0  0
   46.1950   30.6760   47.6210 C   0  0  0  0  0  0  0  0  0  0  0  0
   45.4780   31.7900   47.9340 N   0  0  0  0  0  0  0  0  0  0  0  0
   46.2180   29.5240   48.3980 O   0  0  0  0  0  0  0  0  0  0  0  0
   47.0204   34.7793   45.5513 H   0  0  0  0  0  0  0  0  0  0  0  0
   44.1573   34.4475   45.8744 H   0  0  0  0  0  0  0  0  0  0  0  0
   43.5943   35.9843   43.8949 H   0  0  0  0  0  0  0  0  0  0  0  0
   45.7566   36.9062   42.9226 H   0  0  0  0  0  0  0  0  0  0  0  0
   45.1522   35.4243   41.9955 H   0  0  0  0  0  0  0  0  0  0  0  0
   47.4990   35.8240   43.6949 H   0  0  0  0  0  0  0  0  0  0  0  0
   46.1536   33.1811   43.1814 H   0  0  0  0  0  0  0  0  0  0  0  0
   47.8234   33.3907   43.7727 H   0  0  0  0  0  0  0  0  0  0  0  0
   49.4513   36.0450   41.8372 H   0  0  0  0  0  0  0  0  0  0  0  0
   49.6139   35.1799   39.4080 H   0  0  0  0  0  0  0  0  0  0  0  0
   48.1832   33.6924   37.5793 H   0  0  0  0  0  0  0  0  0  0  0  0
   46.0365   32.4826   37.4186 H   0  0  0  0  0  0  0  0  0  0  0  0
   44.4267   32.3524   39.2835 H   0  0  0  0  0  0  0  0  0  0  0  0
   45.0068   33.5061   41.4046 H   0  0  0  0  0  0  0  0  0  0  0  0
   44.9274   33.7739   47.3856 H   0  0  0  0  0  0  0  0  0  0  0  0
   47.6415   31.6201   44.7344 H   0  0  0  0  0  0  0  0  0  0  0  0
   45.6919   29.4813   49.2356 H   0  0  0  0  0  0  0  0  0  0  0  0
  1 17  1  0
  2  1  1  0
  3  2  2  0
  4  5  1  0
  4  3  1  0
  5  6  1  0
  6  1  1  0
  7  5  1  0
  8  7  2  0
  9  8  1  0
 10  9  1  0
 10 15  2  0
 11 10  1  0
 12 11  2  0
 12 13  1  0
 13 14  2  0
 14 15  1  0
 15  7  1  0
 16 21  2  0
 17 16  1  0
 18 17  2  0
 18 19  1  0
 19 20  2  0
 20 21  1  0
 20 22  1  0
  1 23  1  1
  2 24  1  0
  3 25  1  0
  4 26  1  0
  4 27  1  0
  5 28  1  1
  6 29  1  0
  6 30  1  0
  8 31  1  0
  9 32  1  0
 11 33  1  0
 12 34  1  0
 13 35  1  0
 14 36  1  0
 16 37  1  0
 18 38  1  0
 22 39  1  0
M  ISO  8  23  13  24  13  25  13  26  13  27  13  28  13  29  13  30  13
M  ISO  8  31  14  32   9  33  14  34  14  35  14  36  14  37  14  38  14
M  ISO  1  39   3
M  END
>  <minimizedAffinity>  (1) 
-6.53056288

>  <minimizedRMSD>  (1) 
0.346543193

$$$$
