
     RDKit          3D

 50 53  0  0  1  0  0  0  0  0999 V2000
   46.2360   33.8520   44.6970 C   0  0  2  0  0  0  0  0  0  0  0  0
   44.9270   34.6350   44.7440 C   0  0  0  0  0  0  0  0  0  0  0  0
   44.7920   35.6940   43.7650 C   0  0  0  0  0  0  0  0  0  0  0  0
   45.8520   35.9900   42.8000 C   0  0  0  0  0  0  0  0  0  0  0  0
   47.0460   35.1280   42.8570 C   0  0  1  0  0  0  0  0  0  0  0  0
   46.7690   33.7620   43.3110 C   0  0  0  0  0  0  0  0  0  0  0  0
   47.6640   35.0470   41.5140 C   0  0  0  0  0  0  0  0  0  0  0  0
   48.8360   35.6740   41.0940 C   0  0  0  0  0  0  0  0  0  0  0  0
   48.9720   35.2910   39.8200 N   0  0  0  0  0  0  0  0  0  0  0  0
   47.9830   34.4780   39.4090 C   0  0  0  0  0  0  0  0  0  0  0  0
   47.7920   33.8840   38.1580 C   0  0  0  0  0  0  0  0  0  0  0  0
   46.6750   33.1010   38.0650 C   0  0  0  0  0  0  0  0  0  0  0  0
   45.7740   32.8780   39.0860 C   0  0  0  0  0  0  0  0  0  0  0  0
   46.0490   33.5110   40.2870 C   0  0  0  0  0  0  0  0  0  0  0  0
   47.1400   34.3220   40.5040 C   0  0  0  0  0  0  0  0  0  0  0  0
   45.9270   32.4790   46.7380 C   0  0  0  0  0  0  0  0  0  0  0  0
   46.0040   32.5330   45.3450 C   0  0  0  0  0  0  0  0  0  0  0  0
   45.8710   31.3120   44.6040 C   0  0  0  0  0  0  0  0  0  0  0  0
   45.6770   30.1670   45.3000 N   0  0  0  0  0  0  0  0  0  0  0  0
   45.6080   30.1500   46.6410 C   0  0  0  0  0  0  0  0  0  0  0  0
   45.7310   31.2940   47.3620 N   0  0  0  0  0  0  0  0  0  0  0  0
   45.3940   28.8540   47.3370 C   0  0  0  0  0  0  0  0  0  0  0  0
   46.6880   28.0720   47.3720 C   0  0  0  0  0  0  0  0  0  0  0  0
   44.3030   28.0800   46.6320 C   0  0  0  0  0  0  0  0  0  0  0  0
   44.9820   29.1640   48.7580 C   0  0  0  0  0  0  0  0  0  0  0  0
   47.0253   34.3746   45.2573 H   0  0  0  0  0  0  0  0  0  0  0  0
   44.1363   34.4096   45.4748 H   0  0  0  0  0  0  0  0  0  0  0  0
   43.8686   36.2915   43.7463 H   0  0  0  0  0  0  0  0  0  0  0  0
   46.1787   37.0268   42.9685 H   0  0  0  0  0  0  0  0  0  0  0  0
   45.4067   35.8094   41.8105 H   0  0  0  0  0  0  0  0  0  0  0  0
   47.7189   35.5926   43.5927 H   0  0  0  0  0  0  0  0  0  0  0  0
   46.0249   33.2907   42.6521 H   0  0  0  0  0  0  0  0  0  0  0  0
   47.6840   33.1520   43.2862 H   0  0  0  0  0  0  0  0  0  0  0  0
   49.4970   36.3325   41.6766 H   0  0  0  0  0  0  0  0  0  0  0  0
   49.7525   35.5876   39.2168 H   0  0  0  0  0  0  0  0  0  0  0  0
   48.4843   34.0344   37.3165 H   0  0  0  0  0  0  0  0  0  0  0  0
   46.4792   32.6102   37.1002 H   0  0  0  0  0  0  0  0  0  0  0  0
   44.8905   32.2361   38.9541 H   0  0  0  0  0  0  0  0  0  0  0  0
   45.3499   33.3555   41.1219 H   0  0  0  0  0  0  0  0  0  0  0  0
   46.0258   33.4012   47.3295 H   0  0  0  0  0  0  0  0  0  0  0  0
   45.9249   31.3061   43.5053 H   0  0  0  0  0  0  0  0  0  0  0  0
   46.9812   27.8948   48.4173 H   0  0  0  0  0  0  0  0  0  0  0  0
   46.5475   27.1075   46.8621 H   0  0  0  0  0  0  0  0  0  0  0  0
   47.4765   28.6449   46.8621 H   0  0  0  0  0  0  0  0  0  0  0  0
   43.6441   27.6125   47.3785 H   0  0  0  0  0  0  0  0  0  0  0  0
   43.7159   28.7647   46.0023 H   0  0  0  0  0  0  0  0  0  0  0  0
   44.7553   27.2997   46.0023 H   0  0  0  0  0  0  0  0  0  0  0  0
   45.6611   28.6530   49.4564 H   0  0  0  0  0  0  0  0  0  0  0  0
   45.0326   30.2499   48.9258 H   0  0  0  0  0  0  0  0  0  0  0  0
   43.9526   28.8146   48.9258 H   0  0  0  0  0  0  0  0  0  0  0  0
  1  2  1  0
  1 17  1  0
  3  2  2  0
  4  5  1  0
  4  3  1  0
  5  6  1  0
  6  1  1  0
  7  5  1  0
  8  7  2  0
  9  8  1  0
 10  9  1  0
 10 15  2  0
 11 10  1  0
 12 11  2  0
 12 13  1  0
 13 14  2  0
 14 15  1  0
 15  7  1  0
 16 21  2  0
 17 16  1  0
 18 19  1  0
 18 17  2  0
 19 20  2  0
 20 22  1  0
 20 21  1  0
 22 23  1  0
 22 25  1  0
 24 22  1  0
  1 26  1  1
  2 27  1  0
  3 28  1  0
  4 29  1  0
  4 30  1  0
  5 31  1  1
  6 32  1  0
  6 33  1  0
  8 34  1  0
  9 35  1  0
 11 36  1  0
 12 37  1  0
 13 38  1  0
 14 39  1  0
 16 40  1  0
 18 41  1  0
 23 42  1  0
 23 43  1  0
 23 44  1  0
 24 45  1  0
 24 46  1  0
 24 47  1  0
 25 48  1  0
 25 49  1  0
 25 50  1  0
M  ISO  8  26  13  27  13  28  13  29  13  30  13  31  13  32  13  33  13
M  ISO  8  34  14  35   9  36  14  37  14  38  14  39  14  40  14  41  14
M  ISO  8  42   8  43   8  44   8  45   8  46   8  47   8  48   8  49   8
M  ISO  1  50   8
M  END
>  <minimizedAffinity>  (1) 
-6.24794817

>  <minimizedRMSD>  (1) 
0.822749078

$$$$
