
     RDKit          3D

 40 43  0  0  1  0  0  0  0  0999 V2000
   46.0770   34.1470   44.9980 C   0  0  2  0  0  0  0  0  0  0  0  0
   44.7760   34.9400   44.9680 C   0  0  0  0  0  0  0  0  0  0  0  0
   44.6310   35.8660   43.8690 C   0  0  0  0  0  0  0  0  0  0  0  0
   45.6740   36.0300   42.8520 C   0  0  0  0  0  0  0  0  0  0  0  0
   46.8650   35.1750   42.9930 C   0  0  1  0  0  0  0  0  0  0  0  0
   46.5970   33.8800   43.6300 C   0  0  0  0  0  0  0  0  0  0  0  0
   47.4500   34.9080   41.6550 C   0  0  0  0  0  0  0  0  0  0  0  0
   48.7020   35.3040   41.1980 C   0  0  0  0  0  0  0  0  0  0  0  0
   48.7610   34.8290   39.9500 N   0  0  0  0  0  0  0  0  0  0  0  0
   47.6470   34.1690   39.5910 C   0  0  0  0  0  0  0  0  0  0  0  0
   47.3530   33.5420   38.3780 C   0  0  0  0  0  0  0  0  0  0  0  0
   46.1170   32.9480   38.3320 C   0  0  0  0  0  0  0  0  0  0  0  0
   45.1980   32.9390   39.3690 C   0  0  0  0  0  0  0  0  0  0  0  0
   45.5880   33.5900   40.5290 C   0  0  0  0  0  0  0  0  0  0  0  0
   46.8010   34.2220   40.6970 C   0  0  0  0  0  0  0  0  0  0  0  0
   45.4080   33.0910   47.1330 C   0  0  0  0  0  0  0  0  0  0  0  0
   45.8670   32.9420   45.8260 C   0  0  0  0  0  0  0  0  0  0  0  0
   46.1420   31.6180   45.3480 C   0  0  0  0  0  0  0  0  0  0  0  0
   45.9430   30.5810   46.1900 N   0  0  0  0  0  0  0  0  0  0  0  0
   45.4970   30.7600   47.4530 C   0  0  0  0  0  0  0  0  0  0  0  0
   45.2360   31.9960   47.9110 N   0  0  0  0  0  0  0  0  0  0  0  0
   45.2890   29.6250   48.3480 C   0  0  0  0  0  0  0  0  0  0  0  0
   45.0010   28.4840   47.9050 O   0  0  0  0  0  0  0  0  0  0  0  0
   46.8786   34.7360   45.4676 H   0  0  0  0  0  0  0  0  0  0  0  0
   43.9970   34.8151   45.7345 H   0  0  0  0  0  0  0  0  0  0  0  0
   43.7117   36.4653   43.7930 H   0  0  0  0  0  0  0  0  0  0  0  0
   46.0084   37.0775   42.8812 H   0  0  0  0  0  0  0  0  0  0  0  0
   45.2074   35.7277   41.9029 H   0  0  0  0  0  0  0  0  0  0  0  0
   47.5552   35.7317   43.6439 H   0  0  0  0  0  0  0  0  0  0  0  0
   45.8485   33.3236   43.0468 H   0  0  0  0  0  0  0  0  0  0  0  0
   47.5159   33.2773   43.6783 H   0  0  0  0  0  0  0  0  0  0  0  0
   49.4688   35.8772   41.7397 H   0  0  0  0  0  0  0  0  0  0  0  0
   49.5736   34.9554   39.3298 H   0  0  0  0  0  0  0  0  0  0  0  0
   48.0539   33.5258   37.5303 H   0  0  0  0  0  0  0  0  0  0  0  0
   45.8335   32.4391   37.3989 H   0  0  0  0  0  0  0  0  0  0  0  0
   44.2191   32.4456   39.2773 H   0  0  0  0  0  0  0  0  0  0  0  0
   44.8817   33.6030   41.3722 H   0  0  0  0  0  0  0  0  0  0  0  0
   45.1866   34.0924   47.5307 H   0  0  0  0  0  0  0  0  0  0  0  0
   46.5052   31.4517   44.3231 H   0  0  0  0  0  0  0  0  0  0  0  0
   45.3864   29.7715   49.4338 H   0  0  0  0  0  0  0  0  0  0  0  0
  1 17  1  0
  2  1  1  0
  3  2  2  0
  4  5  1  0
  4  3  1  0
  5  6  1  0
  6  1  1  0
  7  5  1  0
  8  7  2  0
  9  8  1  0
 10  9  1  0
 10 15  2  0
 11 10  1  0
 12 11  2  0
 12 13  1  0
 13 14  2  0
 14 15  1  0
 15  7  1  0
 16 21  2  0
 17 16  1  0
 18 17  2  0
 18 19  1  0
 19 20  2  0
 20 21  1  0
 20 22  1  0
 23 22  2  0
  1 24  1  1
  2 25  1  0
  3 26  1  0
  4 27  1  0
  4 28  1  0
  5 29  1  1
  6 30  1  0
  6 31  1  0
  8 32  1  0
  9 33  1  0
 11 34  1  0
 12 35  1  0
 13 36  1  0
 14 37  1  0
 16 38  1  0
 18 39  1  0
 22 40  1  0
M  ISO  8  24  13  25  13  26  13  27  13  28  13  29  13  30  13  31  13
M  ISO  8  32  14  33   9  34  14  35  14  36  14  37  14  38  14  39  14
M  ISO  1  40   6
M  END
>  <minimizedAffinity>  (1) 
-6.27300024

>  <minimizedRMSD>  (1) 
0.148825511

$$$$
