
     RDKit          3D

 45 49  0  0  1  0  0  0  0  0999 V2000
   46.3840   33.5500   44.8020 C   0  0  2  0  0  0  0  0  0  0  0  0
   45.0350   34.2620   44.8990 C   0  0  0  0  0  0  0  0  0  0  0  0
   44.8340   35.3590   43.9860 C   0  0  0  0  0  0  0  0  0  0  0  0
   45.8680   35.7630   43.0240 C   0  0  0  0  0  0  0  0  0  0  0  0
   47.1030   34.9650   43.0230 C   0  0  1  0  0  0  0  0  0  0  0  0
   46.9080   33.5610   43.4090 C   0  0  0  0  0  0  0  0  0  0  0  0
   47.7060   34.9850   41.6680 C   0  0  0  0  0  0  0  0  0  0  0  0
   48.8420   35.6860   41.2680 C   0  0  0  0  0  0  0  0  0  0  0  0
   48.9730   35.3760   39.9770 N   0  0  0  0  0  0  0  0  0  0  0  0
   48.0160   34.5420   39.5360 C   0  0  0  0  0  0  0  0  0  0  0  0
   47.8430   34.0120   38.2550 C   0  0  0  0  0  0  0  0  0  0  0  0
   46.7530   33.1800   38.1340 C   0  0  0  0  0  0  0  0  0  0  0  0
   45.8790   32.8640   39.1490 C   0  0  0  0  0  0  0  0  0  0  0  0
   46.1410   33.4430   40.3810 C   0  0  0  0  0  0  0  0  0  0  0  0
   47.1950   34.2900   40.6330 C   0  0  0  0  0  0  0  0  0  0  0  0
   46.0760   32.0760   46.7750 C   0  0  0  0  0  0  0  0  0  0  0  0
   46.2310   32.1910   45.3940 C   0  0  0  0  0  0  0  0  0  0  0  0
   46.2520   31.0040   44.5870 C   0  0  0  0  0  0  0  0  0  0  0  0
   46.1160   29.8120   45.2340 N   0  0  0  0  0  0  0  0  0  0  0  0
   45.9690   29.7460   46.5610 C   0  0  0  0  0  0  0  0  0  0  0  0
   45.9470   30.8490   47.3260 N   0  0  0  0  0  0  0  0  0  0  0  0
   45.8260   28.4370   47.1980 C   0  0  0  0  0  0  0  0  0  0  0  0
   44.7700   27.8970   47.8440 C   0  0  0  0  0  0  0  0  0  0  0  0
   44.8490   26.6450   48.3700 C   0  0  0  0  0  0  0  0  0  0  0  0
   46.1280   25.9790   48.1740 C   0  0  0  0  0  0  0  0  0  0  0  0
   47.1130   27.2830   47.2140 S   0  0  0  0  0  0  0  0  0  0  0  0
   47.1535   34.0832   45.3795 H   0  0  0  0  0  0  0  0  0  0  0  0
   44.2643   33.9558   45.6217 H   0  0  0  0  0  0  0  0  0  0  0  0
   43.8812   35.9082   44.0102 H   0  0  0  0  0  0  0  0  0  0  0  0
   45.4301   35.7044   42.0166 H   0  0  0  0  0  0  0  0  0  0  0  0
   46.1726   36.7753   43.3280 H   0  0  0  0  0  0  0  0  0  0  0  0
   47.7584   35.4275   43.7757 H   0  0  0  0  0  0  0  0  0  0  0  0
   46.1855   33.0820   42.7319 H   0  0  0  0  0  0  0  0  0  0  0  0
   47.8558   33.0063   43.3466 H   0  0  0  0  0  0  0  0  0  0  0  0
   49.4821   36.3425   41.8756 H   0  0  0  0  0  0  0  0  0  0  0  0
   49.7298   35.7386   39.3798 H   0  0  0  0  0  0  0  0  0  0  0  0
   48.5182   34.2395   37.4170 H   0  0  0  0  0  0  0  0  0  0  0  0
   46.5656   32.7319   37.1471 H   0  0  0  0  0  0  0  0  0  0  0  0
   45.0228   32.1915   38.9919 H   0  0  0  0  0  0  0  0  0  0  0  0
   45.4603   33.2094   41.2129 H   0  0  0  0  0  0  0  0  0  0  0  0
   46.0589   32.9747   47.4091 H   0  0  0  0  0  0  0  0  0  0  0  0
   46.3725   31.0541   43.4948 H   0  0  0  0  0  0  0  0  0  0  0  0
   43.8390   28.4740   47.9456 H   0  0  0  0  0  0  0  0  0  0  0  0
   44.0106   26.1723   48.9026 H   0  0  0  0  0  0  0  0  0  0  0  0
   46.4423   24.9764   48.4994 H   0  0  0  0  0  0  0  0  0  0  0  0
  1  2  1  0
  1 17  1  0
  3  2  2  0
  4  3  1  0
  5  4  1  0
  5  6  1  0
  6  1  1  0
  7  5  1  0
  8  7  2  0
  9  8  1  0
 10  9  1  0
 10 15  2  0
 11 10  1  0
 12 11  2  0
 12 13  1  0
 13 14  2  0
 14 15  1  0
 15  7  1  0
 16 21  2  0
 17 16  1  0
 18 19  1  0
 18 17  2  0
 19 20  2  0
 20 22  1  0
 20 21  1  0
 22 26  1  0
 22 23  2  0
 23 24  1  0
 25 24  2  0
 26 25  1  0
  1 27  1  1
  2 28  1  0
  3 29  1  0
  4 30  1  0
  4 31  1  0
  5 32  1  1
  6 33  1  0
  6 34  1  0
  8 35  1  0
  9 36  1  0
 11 37  1  0
 12 38  1  0
 13 39  1  0
 14 40  1  0
 16 41  1  0
 18 42  1  0
 23 43  1  0
 24 44  1  0
 25 45  1  0
M  ISO  8  27  13  28  13  29  13  30  13  31  13  32  13  33  13  34  13
M  ISO  8  35  14  36   9  37  14  38  14  39  14  40  14  41  14  42  14
M  ISO  3  43  14  44  14  45  14
M  END
>  <minimizedAffinity>  (1) 
-6.47462702

>  <minimizedRMSD>  (1) 
1.2007724

$$$$
