
     RDKit          3D

 30 32  0  0  1  0  0  0  0  0999 V2000
   45.6600   34.0620   41.4350 N   0  0  0  0  0  0  0  0  0  0  0  0
   44.8680   33.6930   40.4050 C   0  0  0  0  0  0  0  0  0  0  0  0
   45.6080   33.4120   39.3200 N   0  0  0  0  0  0  0  0  0  0  0  0
   46.9130   33.6120   39.6850 C   0  0  0  0  0  0  0  0  0  0  0  0
   46.8880   33.9990   40.9550 N   0  0  0  0  0  0  0  0  0  0  0  0
   44.9160   35.7870   42.9420 C   0  0  0  0  0  0  0  0  0  0  0  0
   45.3740   34.4500   42.7640 C   0  0  0  0  0  0  0  0  0  0  0  0
   45.4970   33.6680   43.8800 C   0  0  0  0  0  0  0  0  0  0  0  0
   45.1700   34.2320   45.0740 N   0  0  0  0  0  0  0  0  0  0  0  0
   44.7450   35.4750   45.2210 C   0  0  0  0  0  0  0  0  0  0  0  0
   44.6180   36.2620   44.1360 N   0  0  0  0  0  0  0  0  0  0  0  0
   48.1530   33.4590   38.8780 C   0  0  2  0  0  0  0  0  0  0  0  0
   48.4380   34.6050   37.8640 C   0  0  0  0  0  0  0  0  0  0  0  0
   48.0590   33.1820   37.4200 C   0  0  1  0  0  0  0  0  0  0  0  0
   49.0420   32.2960   36.8340 C   0  0  0  0  0  0  0  0  0  0  0  0
   49.1230   32.3050   35.5480 O   0  0  0  0  0  0  0  0  0  0  0  0
   49.8510   31.4830   37.6000 O   0  0  0  0  0  0  0  0  0  0  0  0
   51.2010   31.4020   37.2930 C   0  0  0  0  0  0  0  0  0  0  0  0
   52.0220   32.4330   37.8020 N   0  0  0  0  0  0  0  0  0  0  0  0
   51.7190   30.4850   36.6070 O   0  0  0  0  0  0  0  0  0  0  0  0
   43.7706   33.6313   40.4487 H   0  0  0  0  0  0  0  0  0  0  0  0
   44.8082   36.4390   42.0627 H   0  0  0  0  0  0  0  0  0  0  0  0
   45.8457   32.6268   43.8145 H   0  0  0  0  0  0  0  0  0  0  0  0
   44.4975   35.8627   46.2202 H   0  0  0  0  0  0  0  0  0  0  0  0
   48.6920   32.9661   39.7005 H   0  0  0  0  0  0  0  0  0  0  0  0
   47.7247   35.4340   37.7455 H   0  0  0  0  0  0  0  0  0  0  0  0
   49.2659   35.3023   37.6681 H   0  0  0  0  0  0  0  0  0  0  0  0
   47.2848   32.7911   36.7434 H   0  0  0  0  0  0  0  0  0  0  0  0
   53.0336   32.4288   37.6083 H   0  0  0  0  0  0  0  0  0  0  0  0
   51.6089   33.1889   38.3668 H   0  0  0  0  0  0  0  0  0  0  0  0
  1  7  1  0
  2  1  1  0
  3  4  1  0
  3  2  2  0
  4  5  2  0
  5  1  1  0
  6 11  2  0
  7  6  1  0
  7  8  2  0
  8  9  1  0
  9 10  2  0
 11 10  1  0
 12  4  1  0
 13 12  1  0
 14 13  1  0
 14 12  1  0
 15 14  1  0
 15 17  1  0
 16 15  2  0
 18 17  1  0
 18 19  1  0
 20 18  2  0
  2 21  1  0
  6 22  1  0
  8 23  1  0
 10 24  1  0
 12 25  1  1
 13 26  1  0
 13 27  1  0
 14 28  1  1
 19 29  1  0
 19 30  1  0
M  ISO  8  21  14  22  14  23  14  24  14  25  13  26  13  27  13  28  13
M  END
>  <minimizedAffinity>  (1) 
-4.59424257

>  <minimizedRMSD>  (1) 
0.585840225

$$$$
