
     RDKit          3D

 42 45  0  0  0  0  0  0  0  0999 V2000
   44.5010   35.8610   44.8620 C   0  0  0  0  0  0  0  0  0  0  0  0
   45.0590   35.8620   43.6040 C   0  0  0  0  0  0  0  0  0  0  0  0
   45.9720   34.8870   43.1620 C   0  0  0  0  0  0  0  0  0  0  0  0
   46.2180   33.9760   44.1510 N   0  0  0  0  0  0  0  0  0  0  0  0
   45.6920   33.9580   45.3640 C   0  0  0  0  0  0  0  0  0  0  0  0
   44.8340   34.9070   45.7030 N   0  0  0  0  0  0  0  0  0  0  0  0
   46.0330   32.8840   46.2480 N   0  0  0  0  0  0  0  0  0  0  0  0
   45.3360   32.7680   47.4130 C   0  0  0  0  0  0  0  0  0  0  0  0
   45.6920   31.7220   48.2500 C   0  0  0  0  0  0  0  0  0  0  0  0
   46.7140   30.8760   47.8600 C   0  0  0  0  0  0  0  0  0  0  0  0
   47.0460   29.9180   48.6280 O   0  0  0  0  0  0  0  0  0  0  0  0
   47.3600   31.0520   46.6900 N   0  0  0  0  0  0  0  0  0  0  0  0
   47.0070   32.0600   45.8970 C   0  0  0  0  0  0  0  0  0  0  0  0
   47.6390   32.1760   44.8210 O   0  0  0  0  0  0  0  0  0  0  0  0
   46.6620   34.7550   41.9400 C   0  0  0  0  0  0  0  0  0  0  0  0
   47.8890   35.3680   41.8560 C   0  0  0  0  0  0  0  0  0  0  0  0
   48.7010   35.3290   40.7400 C   0  0  0  0  0  0  0  0  0  0  0  0
   48.2620   34.6370   39.6390 C   0  0  0  0  0  0  0  0  0  0  0  0
   47.0250   33.9980   39.6630 C   0  0  0  0  0  0  0  0  0  0  0  0
   46.5740   33.3380   38.5600 C   0  0  0  0  0  0  0  0  0  0  0  0
   45.3400   32.7220   38.5410 C   0  0  0  0  0  0  0  0  0  0  0  0
   44.6250   32.8280   39.7020 C   0  0  0  0  0  0  0  0  0  0  0  0
   45.0680   33.4880   40.8180 C   0  0  0  0  0  0  0  0  0  0  0  0
   46.2790   34.0820   40.8080 C   0  0  0  0  0  0  0  0  0  0  0  0
   44.1010   33.4780   41.9510 C   0  0  0  0  0  0  0  0  0  0  0  0
   44.9990   31.4980   49.5420 C   0  0  0  0  0  0  0  0  0  0  0  0
   43.7887   36.6449   45.1587 H   0  0  0  0  0  0  0  0  0  0  0  0
   44.7768   36.6662   42.9085 H   0  0  0  0  0  0  0  0  0  0  0  0
   44.5307   33.4696   47.6763 H   0  0  0  0  0  0  0  0  0  0  0  0
   48.1187   30.4129   46.4130 H   0  0  0  0  0  0  0  0  0  0  0  0
   48.2472   35.9254   42.7341 H   0  0  0  0  0  0  0  0  0  0  0  0
   49.6752   35.8397   40.7334 H   0  0  0  0  0  0  0  0  0  0  0  0
   48.8884   34.5871   38.7361 H   0  0  0  0  0  0  0  0  0  0  0  0
   47.2092   33.2953   37.6629 H   0  0  0  0  0  0  0  0  0  0  0  0
   44.9598   32.1861   37.6588 H   0  0  0  0  0  0  0  0  0  0  0  0
   43.6331   32.3542   39.7423 H   0  0  0  0  0  0  0  0  0  0  0  0
   44.6518   33.4837   42.9032 H   0  0  0  0  0  0  0  0  0  0  0  0
   43.4593   34.3696   41.8932 H   0  0  0  0  0  0  0  0  0  0  0  0
   43.4779   32.5734   41.8932 H   0  0  0  0  0  0  0  0  0  0  0  0
   45.6873   31.7205   50.3707 H   0  0  0  0  0  0  0  0  0  0  0  0
   44.1216   32.1583   49.6068 H   0  0  0  0  0  0  0  0  0  0  0  0
   44.6741   30.4491   49.6068 H   0  0  0  0  0  0  0  0  0  0  0  0
  1  6  2  0
  2  1  1  0
  3  2  2  0
  3  4  1  0
  4  5  2  0
  5  6  1  0
  5  7  1  0
  7  8  1  0
  8  9  2  0
  9 26  1  0
 10  9  1  0
 10 11  2  0
 12 10  1  0
 13  7  1  0
 13 12  1  0
 14 13  2  0
 15  3  1  0
 16 15  2  0
 17 16  1  0
 18 19  1  0
 18 17  2  0
 19 24  2  0
 20 19  1  0
 21 20  2  0
 21 22  1  0
 22 23  2  0
 23 25  1  0
 24 23  1  0
 24 15  1  0
  1 27  1  0
  2 28  1  0
  8 29  1  0
 12 30  1  0
 16 31  1  0
 17 32  1  0
 18 33  1  0
 20 34  1  0
 21 35  1  0
 22 36  1  0
 25 37  1  0
 25 38  1  0
 25 39  1  0
 26 40  1  0
 26 41  1  0
 26 42  1  0
M  ISO  8  27  14  28  14  29  14  30   9  31  14  32  14  33  14  34  14
M  ISO  8  35  14  36  14  37   8  38   8  39   8  40   8  41   8  42   8
M  END
>  <minimizedAffinity>  (1) 
-8.11530399

>  <minimizedRMSD>  (1) 
0.0278984159

$$$$
