
     RDKit          3D

 29 31  0  0  1  0  0  0  0  0999 V2000
   42.9790   34.7670   41.0670 C   0  0  2  0  0  0  0  0  0  0  0  0
   42.6990   35.2120   39.6400 C   0  0  0  0  0  0  0  0  0  0  0  0
   41.6410   35.2560   40.6910 C   0  0  1  0  0  0  0  0  0  0  0  0
   40.5100   34.3040   40.6990 C   0  0  0  0  0  0  0  0  0  0  0  0
   39.4290   34.5860   39.8760 C   0  0  0  0  0  0  0  0  0  0  0  0
   38.3560   33.6940   39.8760 C   0  0  0  0  0  0  0  0  0  0  0  0
   38.3780   32.5550   40.6840 C   0  0  0  0  0  0  0  0  0  0  0  0
   39.4900   32.3190   41.4940 C   0  0  0  0  0  0  0  0  0  0  0  0
   40.5000   33.1860   41.4730 N   0  0  0  0  0  0  0  0  0  0  0  0
   43.9250   35.6340   41.8350 C   0  0  0  0  0  0  0  0  0  0  0  0
   44.3490   35.7960   44.2610 C   0  0  0  0  0  0  0  0  0  0  0  0
   44.4370   35.0590   43.0720 C   0  0  0  0  0  0  0  0  0  0  0  0
   45.0170   33.7910   43.1130 C   0  0  0  0  0  0  0  0  0  0  0  0
   45.4820   33.3010   44.3070 N   0  0  0  0  0  0  0  0  0  0  0  0
   45.3680   34.0650   45.4270 C   0  0  0  0  0  0  0  0  0  0  0  0
   44.8170   35.2830   45.4220 N   0  0  0  0  0  0  0  0  0  0  0  0
   43.3260   33.8580   41.5802 H   0  0  0  0  0  0  0  0  0  0  0  0
   42.6440   34.4706   38.8292 H   0  0  0  0  0  0  0  0  0  0  0  0
   43.1431   35.9356   38.9406 H   0  0  0  0  0  0  0  0  0  0  0  0
   40.9669   36.0512   41.0421 H   0  0  0  0  0  0  0  0  0  0  0  0
   39.4183   35.4854   39.2428 H   0  0  0  0  0  0  0  0  0  0  0  0
   37.4847   33.8897   39.2337 H   0  0  0  0  0  0  0  0  0  0  0  0
   37.5307   31.8536   40.6821 H   0  0  0  0  0  0  0  0  0  0  0  0
   39.5312   31.4297   42.1402 H   0  0  0  0  0  0  0  0  0  0  0  0
   44.7833   35.8587   41.1847 H   0  0  0  0  0  0  0  0  0  0  0  0
   43.3488   36.5232   42.1303 H   0  0  0  0  0  0  0  0  0  0  0  0
   43.8963   36.7985   44.2500 H   0  0  0  0  0  0  0  0  0  0  0  0
   45.1008   33.1893   42.1960 H   0  0  0  0  0  0  0  0  0  0  0  0
   45.7459   33.6628   46.3785 H   0  0  0  0  0  0  0  0  0  0  0  0
  1 10  1  0
  2  3  1  0
  2  1  1  0
  3  4  1  0
  3  1  1  0
  4  9  2  0
  5  6  2  0
  5  4  1  0
  6  7  1  0
  7  8  2  0
  9  8  1  0
 10 12  1  0
 11 16  2  0
 12 13  2  0
 12 11  1  0
 13 14  1  0
 14 15  2  0
 16 15  1  0
  1 17  1  6
  2 18  1  0
  2 19  1  0
  3 20  1  1
  5 21  1  0
  6 22  1  0
  7 23  1  0
  8 24  1  0
 10 25  1  0
 10 26  1  0
 11 27  1  0
 13 28  1  0
 15 29  1  0
M  ISO  8  17  13  18  13  19  13  20  13  21  14  22  14  23  14  24  14
M  ISO  5  25   8  26   8  27  14  28  14  29  14
M  END
>  <minimizedAffinity>  (1) 
-5.26944399

>  <minimizedRMSD>  (1) 
0.92936635

$$$$
