
     RDKit          3D

 34 37  0  0  1  0  0  0  0  0999 V2000
   43.2060   34.5780   41.5050 C   0  0  2  0  0  0  0  0  0  0  0  0
   43.0600   34.9520   40.0340 C   0  0  0  0  0  0  0  0  0  0  0  0
   41.8960   35.0080   40.9990 C   0  0  1  0  0  0  0  0  0  0  0  0
   40.7940   34.0180   40.8780 C   0  0  0  0  0  0  0  0  0  0  0  0
   40.5080   33.1370   41.8780 N   0  0  0  0  0  0  0  0  0  0  0  0
   39.5430   32.2320   41.8360 C   0  0  0  0  0  0  0  0  0  0  0  0
   38.7710   32.1480   40.7450 N   0  0  0  0  0  0  0  0  0  0  0  0
   38.9770   32.9790   39.7010 C   0  0  0  0  0  0  0  0  0  0  0  0
   38.1710   32.8820   38.5800 C   0  0  0  0  0  0  0  0  0  0  0  0
   38.4240   33.7560   37.5380 C   0  0  0  0  0  0  0  0  0  0  0  0
   39.4150   34.7030   37.5520 C   0  0  0  0  0  0  0  0  0  0  0  0
   40.2150   34.7880   38.6850 C   0  0  0  0  0  0  0  0  0  0  0  0
   39.9940   33.9330   39.7460 C   0  0  0  0  0  0  0  0  0  0  0  0
   44.0740   35.4830   42.3170 C   0  0  0  0  0  0  0  0  0  0  0  0
   45.2120   34.1890   44.1000 C   0  0  0  0  0  0  0  0  0  0  0  0
   45.2800   34.8650   42.8750 C   0  0  0  0  0  0  0  0  0  0  0  0
   46.5130   34.9390   42.1960 C   0  0  0  0  0  0  0  0  0  0  0  0
   47.5940   34.3310   42.7930 N   0  0  0  0  0  0  0  0  0  0  0  0
   47.4870   33.6930   43.9690 C   0  0  0  0  0  0  0  0  0  0  0  0
   46.3260   33.6120   44.6260 N   0  0  0  0  0  0  0  0  0  0  0  0
   43.5177   33.7014   42.0918 H   0  0  0  0  0  0  0  0  0  0  0  0
   43.1005   34.1752   39.2562 H   0  0  0  0  0  0  0  0  0  0  0  0
   43.5500   35.6557   39.3450 H   0  0  0  0  0  0  0  0  0  0  0  0
   41.1766   35.7868   41.2920 H   0  0  0  0  0  0  0  0  0  0  0  0
   39.3770   31.5563   42.6880 H   0  0  0  0  0  0  0  0  0  0  0  0
   37.3616   32.1396   38.5200 H   0  0  0  0  0  0  0  0  0  0  0  0
   37.7900   33.6867   36.6417 H   0  0  0  0  0  0  0  0  0  0  0  0
   39.5718   35.3737   36.6944 H   0  0  0  0  0  0  0  0  0  0  0  0
   41.0217   35.5341   38.7363 H   0  0  0  0  0  0  0  0  0  0  0  0
   44.3876   36.3188   41.6743 H   0  0  0  0  0  0  0  0  0  0  0  0
   43.4655   35.7921   43.1797 H   0  0  0  0  0  0  0  0  0  0  0  0
   44.2549   34.1245   44.6383 H   0  0  0  0  0  0  0  0  0  0  0  0
   46.6072   35.4596   41.2316 H   0  0  0  0  0  0  0  0  0  0  0  0
   48.3810   33.2231   44.4048 H   0  0  0  0  0  0  0  0  0  0  0  0
  1 14  1  0
  2  3  1  0
  2  1  1  0
  3  1  1  0
  4  3  1  0
  4  5  2  0
  6  5  1  0
  7  6  2  0
  8 13  2  0
  8  7  1  0
  9  8  1  0
 10 11  1  0
 10  9  2  0
 11 12  2  0
 12 13  1  0
 13  4  1  0
 14 16  1  0
 15 20  2  0
 16 15  1  0
 17 18  1  0
 17 16  2  0
 18 19  2  0
 19 20  1  0
  1 21  1  6
  2 22  1  0
  2 23  1  0
  3 24  1  1
  6 25  1  0
  9 26  1  0
 10 27  1  0
 11 28  1  0
 12 29  1  0
 14 30  1  0
 14 31  1  0
 15 32  1  0
 17 33  1  0
 19 34  1  0
M  ISO  8  21  13  22  13  23  13  24  13  25  14  26  14  27  14  28  14
M  ISO  6  29  14  30   8  31   8  32  14  33  14  34  14
M  END
>  <minimizedAffinity>  (1) 
-5.81722593

>  <minimizedRMSD>  (1) 
1.67705905

$$$$
