
     RDKit          3D

 36 38  0  0  1  0  0  0  0  0999 V2000
   43.1750   34.6710   41.3570 C   0  0  2  0  0  0  0  0  0  0  0  0
   42.8430   35.1120   39.9240 C   0  0  0  0  0  0  0  0  0  0  0  0
   42.0200   35.5310   41.0940 C   0  0  1  0  0  0  0  0  0  0  0  0
   40.6160   35.0720   41.3210 C   0  0  0  0  0  0  0  0  0  0  0  0
   40.4340   33.6140   41.5470 C   0  0  0  0  0  0  0  0  0  0  0  0
   40.4650   32.7430   40.3410 C   0  0  0  0  0  0  0  0  0  0  0  0
   40.2750   33.5330   39.0830 C   0  0  0  0  0  0  0  0  0  0  0  0
   39.2060   34.5580   39.2950 C   0  0  0  0  0  0  0  0  0  0  0  0
   39.6530   35.5870   40.2780 C   0  0  0  0  0  0  0  0  0  0  0  0
   44.4590   35.2310   41.9120 C   0  0  0  0  0  0  0  0  0  0  0  0
   44.3890   35.7100   44.3330 C   0  0  0  0  0  0  0  0  0  0  0  0
   44.7560   34.8250   43.2840 C   0  0  0  0  0  0  0  0  0  0  0  0
   45.3810   33.6110   43.6010 C   0  0  0  0  0  0  0  0  0  0  0  0
   45.6130   33.3310   44.9190 N   0  0  0  0  0  0  0  0  0  0  0  0
   45.2460   34.2030   45.8810 C   0  0  0  0  0  0  0  0  0  0  0  0
   44.6440   35.3780   45.6170 N   0  0  0  0  0  0  0  0  0  0  0  0
   43.2903   33.7319   41.9180 H   0  0  0  0  0  0  0  0  0  0  0  0
   42.4474   34.3875   39.1970 H   0  0  0  0  0  0  0  0  0  0  0  0
   43.3783   35.6235   39.1105 H   0  0  0  0  0  0  0  0  0  0  0  0
   41.6859   36.5089   41.4711 H   0  0  0  0  0  0  0  0  0  0  0  0
   40.3654   35.5368   42.2860 H   0  0  0  0  0  0  0  0  0  0  0  0
   41.2355   33.2784   42.2215 H   0  0  0  0  0  0  0  0  0  0  0  0
   39.4176   33.5087   41.9542 H   0  0  0  0  0  0  0  0  0  0  0  0
   41.4370   32.2300   40.2965 H   0  0  0  0  0  0  0  0  0  0  0  0
   39.6407   32.0189   40.4193 H   0  0  0  0  0  0  0  0  0  0  0  0
   39.9788   32.8575   38.2669 H   0  0  0  0  0  0  0  0  0  0  0  0
   41.2175   34.0351   38.8192 H   0  0  0  0  0  0  0  0  0  0  0  0
   38.9797   35.0479   38.3365 H   0  0  0  0  0  0  0  0  0  0  0  0
   38.3084   34.0582   39.6881 H   0  0  0  0  0  0  0  0  0  0  0  0
   40.1460   36.4003   39.7254 H   0  0  0  0  0  0  0  0  0  0  0  0
   38.7536   35.9204   40.8165 H   0  0  0  0  0  0  0  0  0  0  0  0
   45.2859   34.8964   41.2684 H   0  0  0  0  0  0  0  0  0  0  0  0
   44.3411   36.3245   41.9287 H   0  0  0  0  0  0  0  0  0  0  0  0
   43.8971   36.6657   44.0994 H   0  0  0  0  0  0  0  0  0  0  0  0
   45.6764   32.9038   42.8119 H   0  0  0  0  0  0  0  0  0  0  0  0
   45.4481   33.9417   46.9302 H   0  0  0  0  0  0  0  0  0  0  0  0
  1 10  1  0
  2  3  1  0
  2  1  1  0
  3  4  1  0
  3  1  1  0
  4  5  1  0
  6  5  1  0
  7  8  1  0
  7  6  1  0
  8  9  1  0
  9  4  1  0
 10 12  1  0
 11 16  2  0
 12 13  2  0
 12 11  1  0
 13 14  1  0
 14 15  2  0
 16 15  1  0
  1 17  1  6
  2 18  1  0
  2 19  1  0
  3 20  1  1
  4 21  1  0
  5 22  1  0
  5 23  1  0
  6 24  1  0
  6 25  1  0
  7 26  1  0
  7 27  1  0
  8 28  1  0
  8 29  1  0
  9 30  1  0
  9 31  1  0
 10 32  1  0
 10 33  1  0
 11 34  1  0
 13 35  1  0
 15 36  1  0
M  ISO  8  17  13  18  13  19  13  20  13  21  13  22  13  23  13  24  13
M  ISO  8  25  13  26  13  27  13  28  13  29  13  30  13  31  13  32   8
M  ISO  4  33   8  34  14  35  14  36  14
M  END
>  <minimizedAffinity>  (1) 
-5.17128229

>  <minimizedRMSD>  (1) 
0.489265203

$$$$
