
     RDKit          3D

 28 30  0  0  1  0  0  0  0  0999 V2000
   42.9840   34.7780   41.3020 C   0  0  2  0  0  0  0  0  0  0  0  0
   42.7100   35.2200   39.8540 C   0  0  0  0  0  0  0  0  0  0  0  0
   41.6920   35.3560   40.9730 C   0  0  1  0  0  0  0  0  0  0  0  0
   40.5090   34.4790   40.7960 C   0  0  0  0  0  0  0  0  0  0  0  0
   39.4750   34.7580   39.9230 C   0  0  0  0  0  0  0  0  0  0  0  0
   38.4170   33.8470   39.8520 C   0  0  0  0  0  0  0  0  0  0  0  0
   38.4130   32.7500   40.6050 N   0  0  0  0  0  0  0  0  0  0  0  0
   39.4270   32.4850   41.4560 C   0  0  0  0  0  0  0  0  0  0  0  0
   40.4740   33.3490   41.5520 N   0  0  0  0  0  0  0  0  0  0  0  0
   44.0800   35.5460   41.9650 C   0  0  0  0  0  0  0  0  0  0  0  0
   44.3250   35.7440   44.4160 C   0  0  0  0  0  0  0  0  0  0  0  0
   44.5440   35.0020   43.2460 C   0  0  0  0  0  0  0  0  0  0  0  0
   45.1930   33.7790   43.3450 C   0  0  0  0  0  0  0  0  0  0  0  0
   45.5880   33.3570   44.5780 N   0  0  0  0  0  0  0  0  0  0  0  0
   45.3610   34.0940   45.6770 C   0  0  0  0  0  0  0  0  0  0  0  0
   44.7330   35.2870   45.6160 N   0  0  0  0  0  0  0  0  0  0  0  0
   43.2387   33.8618   41.8549 H   0  0  0  0  0  0  0  0  0  0  0  0
   42.5698   34.4730   39.0588 H   0  0  0  0  0  0  0  0  0  0  0  0
   43.1843   35.8912   39.1229 H   0  0  0  0  0  0  0  0  0  0  0  0
   41.1192   36.1670   41.4465 H   0  0  0  0  0  0  0  0  0  0  0  0
   39.4840   35.6673   39.3040 H   0  0  0  0  0  0  0  0  0  0  0  0
   37.5787   34.0392   39.1662 H   0  0  0  0  0  0  0  0  0  0  0  0
   39.4069   31.5728   42.0704 H   0  0  0  0  0  0  0  0  0  0  0  0
   44.9383   35.5745   41.2776 H   0  0  0  0  0  0  0  0  0  0  0  0
   43.6613   36.5378   42.1908 H   0  0  0  0  0  0  0  0  0  0  0  0
   43.8118   36.7149   44.3528 H   0  0  0  0  0  0  0  0  0  0  0  0
   45.3832   33.1669   42.4511 H   0  0  0  0  0  0  0  0  0  0  0  0
   45.6960   33.7151   46.6538 H   0  0  0  0  0  0  0  0  0  0  0  0
  1 10  1  0
  2  3  1  0
  2  1  1  0
  3  1  1  0
  4  3  1  0
  4  9  1  0
  5  4  2  0
  6  5  1  0
  6  7  2  0
  7  8  1  0
  8  9  2  0
 10 12  1  0
 11 16  2  0
 12 13  2  0
 12 11  1  0
 13 14  1  0
 14 15  2  0
 16 15  1  0
  1 17  1  6
  2 18  1  0
  2 19  1  0
  3 20  1  1
  5 21  1  0
  6 22  1  0
  8 23  1  0
 10 24  1  0
 10 25  1  0
 11 26  1  0
 13 27  1  0
 15 28  1  0
M  ISO  8  17  13  18  13  19  13  20  13  21  14  22  14  23  14  24   8
M  ISO  4  25   8  26  14  27  14  28  14
M  END
>  <minimizedAffinity>  (1) 
-5.14378262

>  <minimizedRMSD>  (1) 
0.412693888

$$$$
