
     RDKit          3D

 27 29  0  0  1  0  0  0  0  0999 V2000
   42.8270   34.7940   41.1830 C   0  0  2  0  0  0  0  0  0  0  0  0
   42.6730   35.0970   39.6860 C   0  0  0  0  0  0  0  0  0  0  0  0
   41.5940   35.4430   40.7020 C   0  0  1  0  0  0  0  0  0  0  0  0
   40.3780   34.6850   40.5250 N   0  0  0  0  0  0  0  0  0  0  0  0
   40.1510   33.6250   41.3180 N   0  0  0  0  0  0  0  0  0  0  0  0
   38.9840   33.0410   41.0190 C   0  0  0  0  0  0  0  0  0  0  0  0
   38.4700   33.7790   39.9930 C   0  0  0  0  0  0  0  0  0  0  0  0
   39.3430   34.8220   39.6730 C   0  0  0  0  0  0  0  0  0  0  0  0
   43.9070   35.5810   41.8510 C   0  0  0  0  0  0  0  0  0  0  0  0
   44.2800   35.8080   44.2640 C   0  0  0  0  0  0  0  0  0  0  0  0
   44.4190   35.0320   43.1000 C   0  0  0  0  0  0  0  0  0  0  0  0
   45.0340   33.7800   43.1790 C   0  0  0  0  0  0  0  0  0  0  0  0
   45.4770   33.3660   44.3960 N   0  0  0  0  0  0  0  0  0  0  0  0
   45.3350   34.1260   45.5050 C   0  0  0  0  0  0  0  0  0  0  0  0
   44.7410   35.3420   45.4560 N   0  0  0  0  0  0  0  0  0  0  0  0
   42.9881   33.9167   41.8267 H   0  0  0  0  0  0  0  0  0  0  0  0
   42.5178   34.2799   38.9660 H   0  0  0  0  0  0  0  0  0  0  0  0
   43.2494   35.6451   38.9262 H   0  0  0  0  0  0  0  0  0  0  0  0
   41.0642   36.3415   41.0515 H   0  0  0  0  0  0  0  0  0  0  0  0
   38.5363   32.1573   41.4971 H   0  0  0  0  0  0  0  0  0  0  0  0
   37.5107   33.5821   39.4921 H   0  0  0  0  0  0  0  0  0  0  0  0
   39.2135   35.5884   38.8947 H   0  0  0  0  0  0  0  0  0  0  0  0
   44.7494   35.6603   41.1481 H   0  0  0  0  0  0  0  0  0  0  0  0
   43.4497   36.5455   42.1167 H   0  0  0  0  0  0  0  0  0  0  0  0
   43.7971   36.7949   44.2107 H   0  0  0  0  0  0  0  0  0  0  0  0
   45.1558   33.1497   42.2857 H   0  0  0  0  0  0  0  0  0  0  0  0
   45.7100   33.7486   46.4678 H   0  0  0  0  0  0  0  0  0  0  0  0
  1  9  1  0
  2  3  1  0
  2  1  1  0
  3  1  1  0
  4  3  1  0
  4  5  1  0
  6  5  2  0
  7  6  1  0
  8  7  2  0
  8  4  1  0
  9 11  1  0
 10 15  2  0
 11 12  2  0
 11 10  1  0
 12 13  1  0
 13 14  2  0
 15 14  1  0
  1 16  1  6
  2 17  1  0
  2 18  1  0
  3 19  1  1
  6 20  1  0
  7 21  1  0
  8 22  1  0
  9 23  1  0
  9 24  1  0
 10 25  1  0
 12 26  1  0
 14 27  1  0
M  ISO  8  16  13  17  13  18  13  19  13  20  14  21  14  22  14  23   8
M  ISO  4  24   8  25  14  26  14  27  14
M  END
>  <minimizedAffinity>  (1) 
-4.79304981

>  <minimizedRMSD>  (1) 
0.600050032

$$$$
