
     RDKit          3D

 23 24  0  0  1  0  0  0  0  0999 V2000
   43.5910   35.6560   41.4880 C   0  0  0  0  0  0  0  0  0  0  0  0
   44.2420   35.9090   43.8610 C   0  0  0  0  0  0  0  0  0  0  0  0
   44.1850   35.1270   42.7000 C   0  0  0  0  0  0  0  0  0  0  0  0
   44.7190   33.8320   42.7610 C   0  0  0  0  0  0  0  0  0  0  0  0
   45.2640   33.4070   43.9420 N   0  0  0  0  0  0  0  0  0  0  0  0
   45.2950   34.1950   45.0310 C   0  0  0  0  0  0  0  0  0  0  0  0
   44.7950   35.4350   45.0090 N   0  0  0  0  0  0  0  0  0  0  0  0
   42.7140   34.6940   40.7330 C   0  0  2  0  0  0  0  0  0  0  0  0
   42.3450   35.1340   39.3220 C   0  0  0  0  0  0  0  0  0  0  0  0
   41.3150   34.9790   40.4260 C   0  0  2  0  0  0  0  0  0  0  0  0
   40.6650   36.2250   40.9830 C   0  0  0  0  0  0  0  0  0  0  0  0
   42.9816   36.5301   41.7609 H   0  0  0  0  0  0  0  0  0  0  0  0
   44.4286   35.8974   40.8171 H   0  0  0  0  0  0  0  0  0  0  0  0
   43.8303   36.9289   43.8434 H   0  0  0  0  0  0  0  0  0  0  0  0
   44.7003   33.1732   41.8803 H   0  0  0  0  0  0  0  0  0  0  0  0
   45.7414   33.8113   45.9602 H   0  0  0  0  0  0  0  0  0  0  0  0
   43.1888   33.8302   41.2212 H   0  0  0  0  0  0  0  0  0  0  0  0
   42.3798   34.4176   38.4880 H   0  0  0  0  0  0  0  0  0  0  0  0
   42.6558   35.9344   38.6344 H   0  0  0  0  0  0  0  0  0  0  0  0
   40.3794   34.4121   40.5413 H   0  0  0  0  0  0  0  0  0  0  0  0
   40.6841   36.1884   42.0822 H   0  0  0  0  0  0  0  0  0  0  0  0
   41.2153   37.1120   40.6360 H   0  0  0  0  0  0  0  0  0  0  0  0
   39.6227   36.2812   40.6360 H   0  0  0  0  0  0  0  0  0  0  0  0
  1  3  1  0
  2  7  2  0
  3  4  2  0
  3  2  1  0
  4  5  1  0
  5  6  2  0
  7  6  1  0
  8  1  1  0
  9 10  1  0
  9  8  1  0
 10  8  1  0
 10 11  1  0
  1 12  1  0
  1 13  1  0
  2 14  1  0
  4 15  1  0
  6 16  1  0
  8 17  1  6
  9 18  1  0
  9 19  1  0
 10 20  1  6
 11 21  1  0
 11 22  1  0
 11 23  1  0
M  ISO  8  12   8  13   8  14  14  15  14  16  14  17  13  18  13  19  13
M  ISO  4  20  13  21   8  22   8  23   8
M  END
>  <minimizedAffinity>  (1) 
-3.75866175

>  <minimizedRMSD>  (1) 
0.684740841

$$$$
