
     RDKit          3D

 26 27  0  0  1  0  0  0  0  0999 V2000
   44.0950   35.5290   41.7880 C   0  0  0  0  0  0  0  0  0  0  0  0
   44.3140   35.8260   44.2360 C   0  0  0  0  0  0  0  0  0  0  0  0
   44.5210   35.0270   43.0790 C   0  0  0  0  0  0  0  0  0  0  0  0
   45.1370   33.7780   43.2410 C   0  0  0  0  0  0  0  0  0  0  0  0
   45.5080   33.3820   44.4940 N   0  0  0  0  0  0  0  0  0  0  0  0
   45.2860   34.1840   45.5600 C   0  0  0  0  0  0  0  0  0  0  0  0
   44.7000   35.3900   45.4610 N   0  0  0  0  0  0  0  0  0  0  0  0
   43.3570   34.5240   40.9360 C   0  0  2  0  0  0  0  0  0  0  0  0
   42.6700   35.1430   39.7100 C   0  0  0  0  0  0  0  0  0  0  0  0
   41.9030   34.4940   40.8270 C   0  0  2  0  0  0  0  0  0  0  0  0
   41.0060   35.4110   41.6110 C   0  0  0  0  0  0  0  0  0  0  0  0
   40.2660   36.2890   40.6150 C   0  0  0  0  0  0  0  0  0  0  0  0
   43.4310   36.3896   41.9564 H   0  0  0  0  0  0  0  0  0  0  0  0
   45.0105   35.7922   41.2379 H   0  0  0  0  0  0  0  0  0  0  0  0
   43.8344   36.8110   44.1367 H   0  0  0  0  0  0  0  0  0  0  0  0
   45.3185   33.1276   42.3727 H   0  0  0  0  0  0  0  0  0  0  0  0
   45.5995   33.8333   46.5544 H   0  0  0  0  0  0  0  0  0  0  0  0
   44.0812   33.7298   41.1701 H   0  0  0  0  0  0  0  0  0  0  0  0
   42.7411   34.6558   38.7263 H   0  0  0  0  0  0  0  0  0  0  0  0
   42.6689   36.1242   39.2128 H   0  0  0  0  0  0  0  0  0  0  0  0
   41.1910   33.6635   40.9421 H   0  0  0  0  0  0  0  0  0  0  0  0
   40.2869   34.8210   42.1982 H   0  0  0  0  0  0  0  0  0  0  0  0
   41.5948   36.0266   42.3070 H   0  0  0  0  0  0  0  0  0  0  0  0
   39.6496   37.0204   41.1582 H   0  0  0  0  0  0  0  0  0  0  0  0
   40.9932   36.8198   39.9830 H   0  0  0  0  0  0  0  0  0  0  0  0
   39.6197   35.6622   39.9830 H   0  0  0  0  0  0  0  0  0  0  0  0
  1  3  1  0
  2  7  2  0
  3  4  2  0
  3  2  1  0
  4  5  1  0
  5  6  2  0
  7  6  1  0
  8  1  1  0
  9 10  1  0
  9  8  1  0
 10  8  1  0
 10 11  1  0
 12 11  1  0
  1 13  1  0
  1 14  1  0
  2 15  1  0
  4 16  1  0
  6 17  1  0
  8 18  1  6
  9 19  1  0
  9 20  1  0
 10 21  1  6
 11 22  1  0
 11 23  1  0
 12 24  1  0
 12 25  1  0
 12 26  1  0
M  ISO  8  13   8  14   8  15  14  16  14  17  14  18  13  19  13  20  13
M  ISO  6  21  13  22   8  23   8  24   8  25   8  26   8
M  END
>  <minimizedAffinity>  (1) 
-4.10807991

>  <minimizedRMSD>  (1) 
0.729443133

$$$$
