
     RDKit          3D

 21 22  0  0  1  0  0  0  0  0999 V2000
   44.1170   35.3880   41.8090 C   0  0  0  0  0  0  0  0  0  0  0  0
   44.3110   35.7770   44.2450 C   0  0  0  0  0  0  0  0  0  0  0  0
   44.5350   34.9530   43.1280 C   0  0  0  0  0  0  0  0  0  0  0  0
   45.1650   33.7130   43.3310 C   0  0  0  0  0  0  0  0  0  0  0  0
   45.5250   33.3800   44.6030 N   0  0  0  0  0  0  0  0  0  0  0  0
   45.2910   34.2020   45.6470 C   0  0  0  0  0  0  0  0  0  0  0  0
   44.6940   35.3860   45.4870 N   0  0  0  0  0  0  0  0  0  0  0  0
   43.0030   34.6180   41.1750 C   0  0  2  0  0  0  0  0  0  0  0  0
   42.5450   35.1790   39.8360 C   0  0  0  0  0  0  0  0  0  0  0  0
   41.6380   35.1430   41.0520 C   0  0  2  0  0  0  0  0  0  0  0  0
   41.3560   36.3290   41.7070 O   0  0  0  0  0  0  0  0  0  0  0  0
   43.7951   36.4368   41.8893 H   0  0  0  0  0  0  0  0  0  0  0  0
   44.9896   35.2267   41.1589 H   0  0  0  0  0  0  0  0  0  0  0  0
   43.8188   36.7515   44.1105 H   0  0  0  0  0  0  0  0  0  0  0  0
   45.3615   33.0323   42.4895 H   0  0  0  0  0  0  0  0  0  0  0  0
   45.5997   33.8891   46.6554 H   0  0  0  0  0  0  0  0  0  0  0  0
   43.3747   33.6685   41.5876 H   0  0  0  0  0  0  0  0  0  0  0  0
   42.3612   34.5068   38.9849 H   0  0  0  0  0  0  0  0  0  0  0  0
   42.9019   35.9508   39.1382 H   0  0  0  0  0  0  0  0  0  0  0  0
   40.6297   34.7447   41.2380 H   0  0  0  0  0  0  0  0  0  0  0  0
   41.3909   36.1820   42.6854 H   0  0  0  0  0  0  0  0  0  0  0  0
  1  3  1  0
  2  7  2  0
  3  4  2  0
  3  2  1  0
  4  5  1  0
  5  6  2  0
  7  6  1  0
  8  1  1  0
  9 10  1  0
  9  8  1  0
 10  8  1  0
 10 11  1  0
  1 12  1  0
  1 13  1  0
  2 14  1  0
  4 15  1  0
  6 16  1  0
  8 17  1  6
  9 18  1  0
  9 19  1  0
 10 20  1  6
 11 21  1  0
M  ISO  8  12   8  13   8  14  14  15  14  16  14  17  13  18  13  19  13
M  ISO  2  20  13  21   3
M  END
>  <minimizedAffinity>  (1) 
-3.82646441

>  <minimizedRMSD>  (1) 
0.235293761

$$$$
