
     RDKit          3D

 22 23  0  0  1  0  0  0  0  0999 V2000
   44.2140   35.3910   41.8230 C   0  0  0  0  0  0  0  0  0  0  0  0
   44.3210   35.7720   44.2330 C   0  0  0  0  0  0  0  0  0  0  0  0
   44.5980   34.9370   43.1400 C   0  0  0  0  0  0  0  0  0  0  0  0
   45.2270   33.7230   43.3920 C   0  0  0  0  0  0  0  0  0  0  0  0
   45.5420   33.4090   44.6780 N   0  0  0  0  0  0  0  0  0  0  0  0
   45.2690   34.2240   45.7080 C   0  0  0  0  0  0  0  0  0  0  0  0
   44.6550   35.4200   45.5100 N   0  0  0  0  0  0  0  0  0  0  0  0
   43.2290   34.5050   41.1040 C   0  0  2  0  0  0  0  0  0  0  0  0
   42.7000   35.1180   39.7950 C   0  0  0  0  0  0  0  0  0  0  0  0
   41.8240   34.8700   40.9950 C   0  0  2  0  0  0  0  0  0  0  0  0
   41.3200   36.0140   41.7320 N   0  0  0  0  0  0  0  0  0  0  0  0
   43.7636   36.3894   41.9245 H   0  0  0  0  0  0  0  0  0  0  0  0
   45.1318   35.3845   41.2167 H   0  0  0  0  0  0  0  0  0  0  0  0
   43.8214   36.7361   44.0569 H   0  0  0  0  0  0  0  0  0  0  0  0
   45.4647   33.0317   42.5701 H   0  0  0  0  0  0  0  0  0  0  0  0
   45.5463   33.9196   46.7280 H   0  0  0  0  0  0  0  0  0  0  0  0
   43.7195   33.5794   41.4395 H   0  0  0  0  0  0  0  0  0  0  0  0
   42.5964   34.4995   38.8913 H   0  0  0  0  0  0  0  0  0  0  0  0
   42.9546   35.9808   39.1620 H   0  0  0  0  0  0  0  0  0  0  0  0
   40.8858   34.3207   41.1623 H   0  0  0  0  0  0  0  0  0  0  0  0
   41.3996   35.8333   42.7429 H   0  0  0  0  0  0  0  0  0  0  0  0
   41.8710   36.8494   41.4881 H   0  0  0  0  0  0  0  0  0  0  0  0
  1  3  1  0
  2  7  2  0
  3  4  2  0
  3  2  1  0
  4  5  1  0
  5  6  2  0
  7  6  1  0
  8  1  1  0
  9 10  1  0
  9  8  1  0
 10  8  1  0
 10 11  1  0
  1 12  1  0
  1 13  1  0
  2 14  1  0
  4 15  1  0
  6 16  1  0
  8 17  1  6
  9 18  1  0
  9 19  1  0
 10 20  1  6
 11 21  1  0
 11 22  1  0
M  ISO  8  12   8  13   8  14  14  15  14  16  14  17  13  18  13  19  13
M  ISO  3  20  13  21   5  22   5
M  END
>  <minimizedAffinity>  (1) 
-3.81209517

>  <minimizedRMSD>  (1) 
0.431404769

$$$$
