
     RDKit          3D

 34 36  0  0  1  0  0  0  0  0999 V2000
   43.3010   34.5780   41.0770 C   0  0  2  0  0  0  0  0  0  0  0  0
   43.9450   33.8610   39.8720 C   0  0  0  0  0  0  0  0  0  0  0  0
   42.8610   34.8960   39.7200 C   0  0  1  0  0  0  0  0  0  0  0  0
   41.5560   34.4440   39.1880 C   0  0  2  0  0  0  0  0  0  0  0  0
   40.7700   35.2790   38.1940 C   0  0  0  0  0  0  0  0  0  0  0  0
   40.3290   35.2470   39.6230 C   0  0  1  0  0  0  0  0  0  0  0  0
   39.1530   34.5590   40.0310 N   0  0  0  0  0  0  0  0  0  0  0  0
   39.1270   33.6590   41.1520 C   0  0  0  0  0  0  0  0  0  0  0  0
   39.8790   33.9930   42.1590 N   0  0  0  0  0  0  0  0  0  0  0  0
   38.2890   32.4870   41.0680 N   0  0  0  0  0  0  0  0  0  0  0  0
   39.9390   33.4110   43.0330 H   0  0  0  0  0  0  0  0  0  0  0  0
   44.2440   35.4550   41.8530 C   0  0  0  0  0  0  0  0  0  0  0  0
   44.3630   35.7900   44.2950 C   0  0  0  0  0  0  0  0  0  0  0  0
   44.6040   34.9760   43.1660 C   0  0  0  0  0  0  0  0  0  0  0  0
   45.1930   33.7140   43.3590 C   0  0  0  0  0  0  0  0  0  0  0  0
   45.5060   33.3320   44.6370 N   0  0  0  0  0  0  0  0  0  0  0  0
   45.2530   34.1520   45.6900 C   0  0  0  0  0  0  0  0  0  0  0  0
   44.6880   35.3700   45.5340 N   0  0  0  0  0  0  0  0  0  0  0  0
   42.7352   34.3222   41.9850 H   0  0  0  0  0  0  0  0  0  0  0  0
   44.9793   34.0893   39.5751 H   0  0  0  0  0  0  0  0  0  0  0  0
   44.0959   32.8179   39.5572 H   0  0  0  0  0  0  0  0  0  0  0  0
   42.7511   35.8536   39.1899 H   0  0  0  0  0  0  0  0  0  0  0  0
   41.8889   33.3956   39.1965 H   0  0  0  0  0  0  0  0  0  0  0  0
   41.2131   36.1960   37.7785 H   0  0  0  0  0  0  0  0  0  0  0  0
   40.2806   35.0741   37.2304 H   0  0  0  0  0  0  0  0  0  0  0  0
   40.1165   36.0236   40.3725 H   0  0  0  0  0  0  0  0  0  0  0  0
   38.2832   34.7119   39.5010 H   0  0  0  0  0  0  0  0  0  0  0  0
   38.2500   31.8242   41.8555 H   0  0  0  0  0  0  0  0  0  0  0  0
   37.7299   32.3133   40.2206 H   0  0  0  0  0  0  0  0  0  0  0  0
   45.1684   35.5604   41.2661 H   0  0  0  0  0  0  0  0  0  0  0  0
   43.7091   36.4025   42.0148 H   0  0  0  0  0  0  0  0  0  0  0  0
   43.9037   36.7805   44.1613 H   0  0  0  0  0  0  0  0  0  0  0  0
   45.3973   33.0504   42.5058 H   0  0  0  0  0  0  0  0  0  0  0  0
   45.5166   33.8137   46.7030 H   0  0  0  0  0  0  0  0  0  0  0  0
  1 12  1  0
  2  1  1  0
  3  2  1  0
  3  1  1  0
  4  6  1  0
  4  3  1  0
  5  4  1  0
  5  6  1  0
  6  7  1  0
  7  8  1  0
  8  9  2  0
  9 11  1  0
 10  8  1  0
 12 14  1  0
 13 18  2  0
 14 15  2  0
 14 13  1  0
 15 16  1  0
 16 17  2  0
 18 17  1  0
  1 19  1  1
  2 20  1  0
  2 21  1  0
  3 22  1  6
  4 23  1  6
  5 24  1  0
  5 25  1  0
  6 26  1  1
  7 27  1  0
 10 28  1  0
 10 29  1  0
 12 30  1  0
 12 31  1  0
 13 32  1  0
 15 33  1  0
 17 34  1  0
M  ISO  8  19  13  20  13  21  13  22  13  23  13  24  13  25  13  26  13
M  ISO  5  30   8  31   8  32  14  33  14  34  14
M  END
>  <minimizedAffinity>  (1) 
-5.60432816

>  <minimizedRMSD>  (1) 
2.91533017

$$$$
