
     RDKit          3D

 34 37  0  0  1  0  0  0  0  0999 V2000
   43.0970   35.0560   41.3360 C   0  0  2  0  0  0  0  0  0  0  0  0
   43.3200   33.9820   40.2640 C   0  0  0  0  0  0  0  0  0  0  0  0
   42.7270   35.3080   39.9370 C   0  0  1  0  0  0  0  0  0  0  0  0
   41.2960   35.3650   39.5180 C   0  0  2  0  0  0  0  0  0  0  0  0
   40.1890   35.5550   40.5050 C   0  0  0  0  0  0  0  0  0  0  0  0
   40.4430   34.1770   39.9630 C   0  0  1  0  0  0  0  0  0  0  0  0
   39.5910   33.6220   38.9440 N   0  0  0  0  0  0  0  0  0  0  0  0
   39.4560   32.2940   38.7650 C   0  0  0  0  0  0  0  0  0  0  0  0
   38.5790   32.0770   37.7220 C   0  0  0  0  0  0  0  0  0  0  0  0
   38.1850   33.2810   37.2710 N   0  0  0  0  0  0  0  0  0  0  0  0
   38.8180   34.2120   38.0340 C   0  0  0  0  0  0  0  0  0  0  0  0
   44.3130   35.6290   41.9750 C   0  0  0  0  0  0  0  0  0  0  0  0
   44.3610   35.8260   44.4500 C   0  0  0  0  0  0  0  0  0  0  0  0
   44.6550   35.0910   43.2780 C   0  0  0  0  0  0  0  0  0  0  0  0
   45.2820   33.8380   43.4060 C   0  0  0  0  0  0  0  0  0  0  0  0
   45.5840   33.3760   44.6520 N   0  0  0  0  0  0  0  0  0  0  0  0
   45.2740   34.1310   45.7540 C   0  0  0  0  0  0  0  0  0  0  0  0
   44.6720   35.3380   45.6620 N   0  0  0  0  0  0  0  0  0  0  0  0
   42.5470   35.1673   42.2821 H   0  0  0  0  0  0  0  0  0  0  0  0
   44.3385   33.7322   39.9319 H   0  0  0  0  0  0  0  0  0  0  0  0
   43.0254   32.9310   40.1273 H   0  0  0  0  0  0  0  0  0  0  0  0
   42.9710   36.1170   39.2328 H   0  0  0  0  0  0  0  0  0  0  0  0
   41.5532   35.8866   38.5843 H   0  0  0  0  0  0  0  0  0  0  0  0
   40.4262   35.7813   41.5550 H   0  0  0  0  0  0  0  0  0  0  0  0
   39.3080   36.2116   40.5569 H   0  0  0  0  0  0  0  0  0  0  0  0
   40.5948   33.1977   40.4405 H   0  0  0  0  0  0  0  0  0  0  0  0
   39.9607   31.5127   39.3523 H   0  0  0  0  0  0  0  0  0  0  0  0
   38.2608   31.0992   37.3314 H   0  0  0  0  0  0  0  0  0  0  0  0
   38.7071   35.3000   37.9160 H   0  0  0  0  0  0  0  0  0  0  0  0
   45.1643   35.4496   41.3018 H   0  0  0  0  0  0  0  0  0  0  0  0
   44.0899   36.6933   42.1406 H   0  0  0  0  0  0  0  0  0  0  0  0
   43.8723   36.8081   44.3680 H   0  0  0  0  0  0  0  0  0  0  0  0
   45.5246   33.2408   42.5146 H   0  0  0  0  0  0  0  0  0  0  0  0
   45.5247   33.7396   46.7510 H   0  0  0  0  0  0  0  0  0  0  0  0
  1 12  1  0
  2  1  1  0
  3  2  1  0
  3  1  1  0
  4  3  1  0
  4  6  1  0
  4  5  1  0
  6  5  1  0
  7  6  1  0
  8  7  1  0
  9  8  2  0
 10  9  1  0
 10 11  2  0
 11  7  1  0
 12 14  1  0
 13 18  2  0
 14 15  2  0
 14 13  1  0
 15 16  1  0
 16 17  2  0
 18 17  1  0
  1 19  1  1
  2 20  1  0
  2 21  1  0
  3 22  1  6
  4 23  1  6
  5 24  1  0
  5 25  1  0
  6 26  1  1
  8 27  1  0
  9 28  1  0
 11 29  1  0
 12 30  1  0
 12 31  1  0
 13 32  1  0
 15 33  1  0
 17 34  1  0
M  ISO  8  19  13  20  13  21  13  22  13  23  13  24  13  25  13  26  13
M  ISO  8  27  14  28  14  29  14  30   8  31   8  32  14  33  14  34  14
M  END
>  <minimizedAffinity>  (1) 
-5.11723757

>  <minimizedRMSD>  (1) 
2.77711058

$$$$
