
     RDKit          3D

 33 36  0  0  1  0  0  0  0  0999 V2000
   44.8790   34.6900   42.0030 C   0  0  2  0  0  0  0  0  0  0  0  0
   45.8070   34.7560   43.2250 C   0  0  0  0  0  0  0  0  0  0  0  0
   46.2920   35.0240   41.8340 C   0  0  1  0  0  0  0  0  0  0  0  0
   47.2630   34.0890   41.2290 C   0  0  2  0  0  0  0  0  0  0  0  0
   48.7530   34.2410   41.4630 C   0  0  0  0  0  0  0  0  0  0  0  0
   48.1750   34.6840   40.1450 C   0  0  1  0  0  0  0  0  0  0  0  0
   48.3160   33.7490   38.9700 C   0  0  0  0  0  0  0  0  0  0  0  0
   48.9690   32.5210   39.1270 C   0  0  0  0  0  0  0  0  0  0  0  0
   48.8550   31.8110   37.4260 S   0  0  0  0  0  0  0  0  0  0  0  0
   47.9220   33.3460   36.8030 C   0  0  0  0  0  0  0  0  0  0  0  0
   47.8200   34.0860   37.7710 N   0  0  0  0  0  0  0  0  0  0  0  0
   43.8010   35.7320   41.9530 C   0  0  0  0  0  0  0  0  0  0  0  0
   42.8200   34.9490   39.8300 C   0  0  0  0  0  0  0  0  0  0  0  0
   42.6410   35.3880   41.1610 C   0  0  0  0  0  0  0  0  0  0  0  0
   41.3320   35.4730   41.6610 C   0  0  0  0  0  0  0  0  0  0  0  0
   40.2910   35.1290   40.8470 N   0  0  0  0  0  0  0  0  0  0  0  0
   40.5120   34.7110   39.5720 C   0  0  0  0  0  0  0  0  0  0  0  0
   41.7630   34.6220   39.0690 N   0  0  0  0  0  0  0  0  0  0  0  0
   44.2286   33.9528   41.5095 H   0  0  0  0  0  0  0  0  0  0  0  0
   45.7146   35.5779   43.9502 H   0  0  0  0  0  0  0  0  0  0  0  0
   46.0870   34.0771   44.0439 H   0  0  0  0  0  0  0  0  0  0  0  0
   46.7992   35.8571   41.3254 H   0  0  0  0  0  0  0  0  0  0  0  0
   46.5685   33.2427   41.3360 H   0  0  0  0  0  0  0  0  0  0  0  0
   49.1204   34.9911   42.1788 H   0  0  0  0  0  0  0  0  0  0  0  0
   49.5609   33.5558   41.7594 H   0  0  0  0  0  0  0  0  0  0  0  0
   48.2584   35.6178   39.5697 H   0  0  0  0  0  0  0  0  0  0  0  0
   49.4299   32.0910   40.0285 H   0  0  0  0  0  0  0  0  0  0  0  0
   47.5512   33.5300   35.7839 H   0  0  0  0  0  0  0  0  0  0  0  0
   43.4644   35.9216   42.9829 H   0  0  0  0  0  0  0  0  0  0  0  0
   44.2507   36.6097   41.4658 H   0  0  0  0  0  0  0  0  0  0  0  0
   43.8352   34.8743   39.4130 H   0  0  0  0  0  0  0  0  0  0  0  0
   41.1479   35.8111   42.6914 H   0  0  0  0  0  0  0  0  0  0  0  0
   39.6553   34.4399   38.9375 H   0  0  0  0  0  0  0  0  0  0  0  0
  1  2  1  0
  3  1  1  0
  3  2  1  0
  4  5  1  0
  4  3  1  0
  6  4  1  0
  6  5  1  0
  7  8  2  0
  7  6  1  0
  9  8  1  0
 10  9  1  0
 10 11  2  0
 11  7  1  0
 12  1  1  0
 13 14  2  0
 14 15  1  0
 14 12  1  0
 16 15  2  0
 17 16  1  0
 18 17  2  0
 18 13  1  0
  1 19  1  6
  2 20  1  0
  2 21  1  0
  3 22  1  1
  4 23  1  6
  5 24  1  0
  5 25  1  0
  6 26  1  6
  8 27  1  0
 10 28  1  0
 12 29  1  0
 12 30  1  0
 13 31  1  0
 15 32  1  0
 17 33  1  0
M  ISO  8  19  13  20  13  21  13  22  13  23  13  24  13  25  13  26  13
M  ISO  7  27  14  28  14  29   8  30   8  31  14  32  14  33  14
M  END
>  <minimizedAffinity>  (1) 
-4.66918993

>  <minimizedRMSD>  (1) 
7.13102579

$$$$
