
     RDKit          3D

 38 41  0  0  1  0  0  0  0  0999 V2000
   43.8490   35.2830   42.3850 C   0  0  2  0  0  0  0  0  0  0  0  0
   43.9160   34.4420   41.1010 C   0  0  0  0  0  0  0  0  0  0  0  0
   43.1340   35.7070   41.1620 C   0  0  1  0  0  0  0  0  0  0  0  0
   41.6460   35.6160   41.0830 C   0  0  2  0  0  0  0  0  0  0  0  0
   40.8730   34.7030   41.9880 C   0  0  0  0  0  0  0  0  0  0  0  0
   41.1090   34.2960   40.5490 C   0  0  1  0  0  0  0  0  0  0  0  0
   40.0880   34.4560   39.5680 N   0  0  0  0  0  0  0  0  0  0  0  0
   40.5030   34.3500   38.2160 C   0  0  0  0  0  0  0  0  0  0  0  0
   39.2370   34.4570   37.3580 C   0  0  0  0  0  0  0  0  0  0  0  0
   38.5760   33.2600   37.5660 O   0  0  0  0  0  0  0  0  0  0  0  0
   38.0640   33.2160   38.8320 C   0  0  0  0  0  0  0  0  0  0  0  0
   38.8280   33.8960   39.9010 C   0  0  0  0  0  0  0  0  0  0  0  0
   45.1500   35.9060   42.8030 C   0  0  0  0  0  0  0  0  0  0  0  0
   46.2660   34.0200   43.9520 C   0  0  0  0  0  0  0  0  0  0  0  0
   46.2590   34.9950   42.9440 C   0  0  0  0  0  0  0  0  0  0  0  0
   47.3540   35.0680   42.0770 C   0  0  0  0  0  0  0  0  0  0  0  0
   48.3950   34.1880   42.2370 N   0  0  0  0  0  0  0  0  0  0  0  0
   48.3450   33.2580   43.2390 C   0  0  0  0  0  0  0  0  0  0  0  0
   47.2930   33.1620   44.0990 N   0  0  0  0  0  0  0  0  0  0  0  0
   43.5270   35.1666   43.4304 H   0  0  0  0  0  0  0  0  0  0  0  0
   43.3986   33.4729   41.0458 H   0  0  0  0  0  0  0  0  0  0  0  0
   44.7185   34.0434   40.4629 H   0  0  0  0  0  0  0  0  0  0  0  0
   43.1245   36.6451   40.5877 H   0  0  0  0  0  0  0  0  0  0  0  0
   41.5487   36.6870   40.8519 H   0  0  0  0  0  0  0  0  0  0  0  0
   41.3893   34.1702   42.8001 H   0  0  0  0  0  0  0  0  0  0  0  0
   39.9829   34.8158   42.6244 H   0  0  0  0  0  0  0  0  0  0  0  0
   41.4939   33.3710   40.0949 H   0  0  0  0  0  0  0  0  0  0  0  0
   41.1993   35.1647   37.9680 H   0  0  0  0  0  0  0  0  0  0  0  0
   41.0248   33.3986   38.0352 H   0  0  0  0  0  0  0  0  0  0  0  0
   39.4962   34.5787   36.2959 H   0  0  0  0  0  0  0  0  0  0  0  0
   38.6210   35.3275   37.6277 H   0  0  0  0  0  0  0  0  0  0  0  0
   37.1197   32.6948   39.0482 H   0  0  0  0  0  0  0  0  0  0  0  0
   38.4305   33.9653   40.9243 H   0  0  0  0  0  0  0  0  0  0  0  0
   45.4233   36.6580   42.0482 H   0  0  0  0  0  0  0  0  0  0  0  0
   44.9752   36.3254   43.8048 H   0  0  0  0  0  0  0  0  0  0  0  0
   45.4104   33.9546   44.6402 H   0  0  0  0  0  0  0  0  0  0  0  0
   47.3806   35.8218   41.2763 H   0  0  0  0  0  0  0  0  0  0  0  0
   49.1875   32.5603   43.3548 H   0  0  0  0  0  0  0  0  0  0  0  0
  1 13  1  0
  2  3  1  0
  2  1  1  0
  3  1  1  0
  4  3  1  0
  4  5  1  0
  6  4  1  0
  6  5  1  0
  7 12  1  0
  7  6  1  0
  8  7  1  0
  9 10  1  0
  9  8  1  0
 10 11  1  0
 11 12  2  0
 13 15  1  0
 14 19  2  0
 15 14  1  0
 16 17  1  0
 16 15  2  0
 17 18  2  0
 18 19  1  0
  1 20  1  1
  2 21  1  0
  2 22  1  0
  3 23  1  6
  4 24  1  6
  5 25  1  0
  5 26  1  0
  6 27  1  1
  8 28  1  0
  8 29  1  0
  9 30  1  0
  9 31  1  0
 11 32  1  0
 12 33  1  0
 13 34  1  0
 13 35  1  0
 14 36  1  0
 16 37  1  0
 18 38  1  0
M  ISO  8  20  13  21  13  22  13  23  13  24  13  25  13  26  13  27  13
M  ISO  8  28  13  29  13  30  13  31  13  32  13  33  13  34   8  35   8
M  ISO  3  36  14  37  14  38  14
M  END
>  <minimizedAffinity>  (1) 
-4.73048544

>  <minimizedRMSD>  (1) 
3.65211844

$$$$
