
     RDKit          3D

 52 57  0  0  1  0  0  0  0  0999 V2000
   42.7750   34.7740   41.6250 C   0  0  2  0  0  0  0  0  0  0  0  0
   42.4420   35.3160   40.2190 C   0  0  0  0  0  0  0  0  0  0  0  0
   41.4440   35.2760   41.2810 C   0  0  1  0  0  0  0  0  0  0  0  0
   40.2660   34.3580   41.1800 C   0  0  2  0  0  0  0  0  0  0  0  0
   40.3430   32.9730   41.7180 C   0  0  0  0  0  0  0  0  0  0  0  0
   40.4620   33.2220   40.2350 C   0  0  1  0  0  0  0  0  0  0  0  0
   39.4990   32.8510   39.2840 N   0  0  0  0  0  0  0  0  0  0  0  0
   39.0380   33.8170   38.3750 C   0  0  0  0  0  0  0  0  0  0  0  0
   37.9600   33.2360   37.4980 C   0  0  0  0  0  0  0  0  0  0  0  0
   38.4570   32.0780   36.8940 O   0  0  0  0  0  0  0  0  0  0  0  0
   38.5780   31.1240   37.8940 C   0  0  0  0  0  0  0  0  0  0  0  0
   39.1240   31.5160   39.1800 C   0  0  0  0  0  0  0  0  0  0  0  0
   43.7920   35.5700   42.3770 C   0  0  0  0  0  0  0  0  0  0  0  0
   45.8230   34.8440   43.5940 C   0  0  0  0  0  0  0  0  0  0  0  0
   45.1380   35.0390   42.3840 C   0  0  0  0  0  0  0  0  0  0  0  0
   45.7940   34.7050   41.1970 C   0  0  0  0  0  0  0  0  0  0  0  0
   47.0680   34.2040   41.2440 N   0  0  0  0  0  0  0  0  0  0  0  0
   47.6820   34.0370   42.4580 C   0  0  0  0  0  0  0  0  0  0  0  0
   47.0750   34.3510   43.6300 N   0  0  0  0  0  0  0  0  0  0  0  0
   49.0350   33.5030   42.4660 C   0  0  0  0  0  0  0  0  0  0  0  0
   50.1990   34.2210   42.4530 C   0  0  0  0  0  0  0  0  0  0  0  0
   51.2370   33.3340   42.4680 N   0  0  0  0  0  0  0  0  0  0  0  0
   50.7570   32.0590   42.4910 C   0  0  0  0  0  0  0  0  0  0  0  0
   51.3490   30.8140   42.5120 C   0  0  0  0  0  0  0  0  0  0  0  0
   50.5920   29.6520   42.5330 C   0  0  0  0  0  0  0  0  0  0  0  0
   49.2170   29.7430   42.5320 C   0  0  0  0  0  0  0  0  0  0  0  0
   48.6500   30.9950   42.5110 C   0  0  0  0  0  0  0  0  0  0  0  0
   49.3820   32.1690   42.4890 C   0  0  0  0  0  0  0  0  0  0  0  0
   43.1113   33.8463   42.1112 H   0  0  0  0  0  0  0  0  0  0  0  0
   42.3687   34.6293   39.3628 H   0  0  0  0  0  0  0  0  0  0  0  0
   42.8549   36.0895   39.5548 H   0  0  0  0  0  0  0  0  0  0  0  0
   40.7875   36.0316   41.7372 H   0  0  0  0  0  0  0  0  0  0  0  0
   39.5380   35.1682   41.3337 H   0  0  0  0  0  0  0  0  0  0  0  0
   41.2233   32.6545   42.2955 H   0  0  0  0  0  0  0  0  0  0  0  0
   39.7005   32.3468   42.3545 H   0  0  0  0  0  0  0  0  0  0  0  0
   41.1977   32.9490   39.4641 H   0  0  0  0  0  0  0  0  0  0  0  0
   38.6307   34.6740   38.9315 H   0  0  0  0  0  0  0  0  0  0  0  0
   39.8770   34.1432   37.7428 H   0  0  0  0  0  0  0  0  0  0  0  0
   37.0789   32.9876   38.1080 H   0  0  0  0  0  0  0  0  0  0  0  0
   37.6650   33.9655   36.7294 H   0  0  0  0  0  0  0  0  0  0  0  0
   38.2644   30.0850   37.7145 H   0  0  0  0  0  0  0  0  0  0  0  0
   39.2335   30.8070   40.0139 H   0  0  0  0  0  0  0  0  0  0  0  0
   43.8294   36.5747   41.9307 H   0  0  0  0  0  0  0  0  0  0  0  0
   43.4627   35.5540   43.4264 H   0  0  0  0  0  0  0  0  0  0  0  0
   45.3225   35.1013   44.5391 H   0  0  0  0  0  0  0  0  0  0  0  0
   45.2900   34.8436   40.2291 H   0  0  0  0  0  0  0  0  0  0  0  0
   50.2838   35.3176   42.4339 H   0  0  0  0  0  0  0  0  0  0  0  0
   52.2345   33.5906   42.4627 H   0  0  0  0  0  0  0  0  0  0  0  0
   52.4465   30.7406   42.5121 H   0  0  0  0  0  0  0  0  0  0  0  0
   51.0840   28.6683   42.5503 H   0  0  0  0  0  0  0  0  0  0  0  0
   48.5906   28.8389   42.5476 H   0  0  0  0  0  0  0  0  0  0  0  0
   47.5524   31.0677   42.5117 H   0  0  0  0  0  0  0  0  0  0  0  0
  1 13  1  0
  2  3  1  0
  2  1  1  0
  3  1  1  0
  4  3  1  0
  4  5  1  0
  6  4  1  0
  6  5  1  0
  7  6  1  0
  8  7  1  0
  9  8  1  0
 10  9  1  0
 10 11  1  0
 11 12  2  0
 12  7  1  0
 13 15  1  0
 14 19  2  0
 15 14  1  0
 16 17  1  0
 16 15  2  0
 17 18  2  0
 18 20  1  0
 18 19  1  0
 20 28  1  0
 21 20  2  0
 21 22  1  0
 22 23  1  0
 23 24  2  0
 24 25  1  0
 26 25  2  0
 27 26  1  0
 28 23  1  0
 28 27  2  0
  1 29  1  6
  2 30  1  0
  2 31  1  0
  3 32  1  1
  4 33  1  6
  5 34  1  0
  5 35  1  0
  6 36  1  6
  8 37  1  0
  8 38  1  0
  9 39  1  0
  9 40  1  0
 11 41  1  0
 12 42  1  0
 13 43  1  0
 13 44  1  0
 14 45  1  0
 16 46  1  0
 21 47  1  0
 22 48  1  0
 24 49  1  0
 25 50  1  0
 26 51  1  0
 27 52  1  0
M  ISO  8  29  13  30  13  31  13  32  13  33  13  34  13  35  13  36  13
M  ISO  8  37  13  38  13  39  13  40  13  41  13  42  13  43   8  44   8
M  ISO  8  45  14  46  14  47  14  48   9  49  14  50  14  51  14  52  14
M  END
>  <minimizedAffinity>  (1) 
-6.11524343

>  <minimizedRMSD>  (1) 
1.66703856

$$$$
