
     RDKit          3D

 52 57  0  0  1  0  0  0  0  0999 V2000
   42.8290   34.7610   41.2820 C   0  0  2  0  0  0  0  0  0  0  0  0
   42.5830   35.3450   39.8730 C   0  0  0  0  0  0  0  0  0  0  0  0
   41.6350   35.5450   40.9620 C   0  0  1  0  0  0  0  0  0  0  0  0
   40.2780   34.9140   40.9140 C   0  0  2  0  0  0  0  0  0  0  0  0
   39.9290   33.8090   41.8500 C   0  0  0  0  0  0  0  0  0  0  0  0
   40.2800   33.5090   40.4170 C   0  0  1  0  0  0  0  0  0  0  0  0
   39.3700   33.0420   39.4550 N   0  0  0  0  0  0  0  0  0  0  0  0
   39.0210   33.8910   38.3910 C   0  0  0  0  0  0  0  0  0  0  0  0
   37.9930   33.2380   37.5070 C   0  0  0  0  0  0  0  0  0  0  0  0
   38.4780   31.9890   37.1100 O   0  0  0  0  0  0  0  0  0  0  0  0
   38.4710   31.1780   38.2370 C   0  0  0  0  0  0  0  0  0  0  0  0
   38.9370   31.7270   39.4980 C   0  0  0  0  0  0  0  0  0  0  0  0
   44.0250   35.3340   41.9800 C   0  0  0  0  0  0  0  0  0  0  0  0
   45.2270   33.2090   41.5550 C   0  0  0  0  0  0  0  0  0  0  0  0
   45.2510   34.5680   41.8660 C   0  0  0  0  0  0  0  0  0  0  0  0
   46.4890   35.1720   42.0630 C   0  0  0  0  0  0  0  0  0  0  0  0
   47.6380   34.4240   41.9470 N   0  0  0  0  0  0  0  0  0  0  0  0
   47.5420   33.1030   41.6400 C   0  0  0  0  0  0  0  0  0  0  0  0
   46.3500   32.4820   41.4410 N   0  0  0  0  0  0  0  0  0  0  0  0
   48.8190   32.4710   41.5560 N   0  0  0  0  0  0  0  0  0  0  0  0
   49.6510   31.9170   42.4560 C   0  0  0  0  0  0  0  0  0  0  0  0
   50.7560   31.4540   41.8220 N   0  0  0  0  0  0  0  0  0  0  0  0
   50.6180   31.7230   40.4900 C   0  0  0  0  0  0  0  0  0  0  0  0
   51.4640   31.4560   39.4200 C   0  0  0  0  0  0  0  0  0  0  0  0
   52.5570   30.8870   39.5390 O   0  0  0  0  0  0  0  0  0  0  0  0
   51.0960   31.8290   38.1630 N   0  0  0  0  0  0  0  0  0  0  0  0
   49.9010   32.4520   38.0270 C   0  0  0  0  0  0  0  0  0  0  0  0
   49.3310   32.9220   36.8010 N   0  0  0  0  0  0  0  0  0  0  0  0
   49.1040   32.6980   39.0770 N   0  0  0  0  0  0  0  0  0  0  0  0
   49.3870   32.3660   40.3400 C   0  0  0  0  0  0  0  0  0  0  0  0
   42.9616   33.7894   41.7805 H   0  0  0  0  0  0  0  0  0  0  0  0
   42.3312   34.6805   39.0333 H   0  0  0  0  0  0  0  0  0  0  0  0
   43.1383   35.9965   39.1822 H   0  0  0  0  0  0  0  0  0  0  0  0
   41.1792   36.4360   41.4185 H   0  0  0  0  0  0  0  0  0  0  0  0
   39.7735   35.8603   40.6691 H   0  0  0  0  0  0  0  0  0  0  0  0
   40.6228   33.5308   42.6570 H   0  0  0  0  0  0  0  0  0  0  0  0
   39.0762   33.5841   42.5074 H   0  0  0  0  0  0  0  0  0  0  0  0
   41.0047   32.8443   39.9241 H   0  0  0  0  0  0  0  0  0  0  0  0
   38.6077   34.8266   38.7958 H   0  0  0  0  0  0  0  0  0  0  0  0
   39.9210   34.0993   37.7939 H   0  0  0  0  0  0  0  0  0  0  0  0
   37.0524   33.1111   38.0631 H   0  0  0  0  0  0  0  0  0  0  0  0
   37.8019   33.8658   36.6242 H   0  0  0  0  0  0  0  0  0  0  0  0
   38.1186   30.1378   38.1757 H   0  0  0  0  0  0  0  0  0  0  0  0
   38.9456   31.1372   40.4265 H   0  0  0  0  0  0  0  0  0  0  0  0
   44.2122   36.3342   41.5622 H   0  0  0  0  0  0  0  0  0  0  0  0
   43.7729   35.3355   43.0507 H   0  0  0  0  0  0  0  0  0  0  0  0
   44.2561   32.7163   41.3979 H   0  0  0  0  0  0  0  0  0  0  0  0
   46.5488   36.2422   42.3102 H   0  0  0  0  0  0  0  0  0  0  0  0
   49.4639   31.8501   43.5379 H   0  0  0  0  0  0  0  0  0  0  0  0
   51.7009   31.6451   37.3499 H   0  0  0  0  0  0  0  0  0  0  0  0
   48.4111   33.3854   36.8050 H   0  0  0  0  0  0  0  0  0  0  0  0
   49.8407   32.7968   35.9148 H   0  0  0  0  0  0  0  0  0  0  0  0
  1 13  1  0
  2  3  1  0
  2  1  1  0
  3  1  1  0
  4  3  1  0
  4  5  1  0
  6  4  1  0
  6  5  1  0
  7 12  1  0
  7  6  1  0
  8  7  1  0
  9  8  1  0
 10  9  1  0
 10 11  1  0
 11 12  2  0
 14 15  2  0
 15 13  1  0
 15 16  1  0
 17 16  2  0
 18 17  1  0
 19 14  1  0
 19 18  2  0
 20 18  1  0
 20 21  1  0
 22 21  2  0
 23 22  1  0
 24 25  2  0
 24 23  1  0
 26 24  1  0
 27 26  1  0
 27 29  2  0
 28 27  1  0
 29 30  1  0
 30 23  2  0
 30 20  1  0
  1 31  1  6
  2 32  1  0
  2 33  1  0
  3 34  1  1
  4 35  1  6
  5 36  1  0
  5 37  1  0
  6 38  1  1
  8 39  1  0
  8 40  1  0
  9 41  1  0
  9 42  1  0
 11 43  1  0
 12 44  1  0
 13 45  1  0
 13 46  1  0
 14 47  1  0
 16 48  1  0
 21 49  1  0
 26 50  1  0
 28 51  1  0
 28 52  1  0
M  ISO  8  31  13  32  13  33  13  34  13  35  13  36  13  37  13  38  13
M  ISO  8  39  13  40  13  41  13  42  13  43  13  44  13  45   8  46   8
M  ISO  4  47  14  48  14  49  14  50   9
M  END
>  <minimizedAffinity>  (1) 
-6.19479275

>  <minimizedRMSD>  (1) 
2.57741308

$$$$
