
     RDKit          3D

 47 51  0  0  1  0  0  0  0  0999 V2000
   42.4480   34.9880   41.2160 C   0  0  2  0  0  0  0  0  0  0  0  0
   42.0940   35.5550   39.8270 C   0  0  0  0  0  0  0  0  0  0  0  0
   41.1290   35.5520   40.9200 C   0  0  1  0  0  0  0  0  0  0  0  0
   39.9100   34.6840   40.8590 C   0  0  2  0  0  0  0  0  0  0  0  0
   39.8080   33.4620   41.7040 C   0  0  0  0  0  0  0  0  0  0  0  0
   40.1560   33.3460   40.2430 C   0  0  1  0  0  0  0  0  0  0  0  0
   39.3130   32.7970   39.2630 N   0  0  0  0  0  0  0  0  0  0  0  0
   38.9380   33.5950   38.1680 C   0  0  0  0  0  0  0  0  0  0  0  0
   37.9840   32.8500   37.2740 C   0  0  0  0  0  0  0  0  0  0  0  0
   38.5690   31.6330   36.9190 O   0  0  0  0  0  0  0  0  0  0  0  0
   38.5900   30.8470   38.0650 C   0  0  0  0  0  0  0  0  0  0  0  0
   38.9760   31.4520   39.3240 C   0  0  0  0  0  0  0  0  0  0  0  0
   43.5240   35.7390   41.9320 C   0  0  0  0  0  0  0  0  0  0  0  0
   45.2000   34.2700   40.8530 C   0  0  0  0  0  0  0  0  0  0  0  0
   44.8470   35.1560   41.8770 C   0  0  0  0  0  0  0  0  0  0  0  0
   45.8120   35.4510   42.8330 C   0  0  0  0  0  0  0  0  0  0  0  0
   47.0540   34.8900   42.7660 N   0  0  0  0  0  0  0  0  0  0  0  0
   47.3370   34.0270   41.7340 C   0  0  0  0  0  0  0  0  0  0  0  0
   46.4210   33.7160   40.7820 N   0  0  0  0  0  0  0  0  0  0  0  0
   48.6460   33.3960   41.6050 C   0  0  0  0  0  0  0  0  0  0  0  0
   49.6860   33.8130   42.4310 C   0  0  0  0  0  0  0  0  0  0  0  0
   50.9390   33.2260   42.3240 C   0  0  0  0  0  0  0  0  0  0  0  0
   51.2020   32.2290   41.4160 C   0  0  0  0  0  0  0  0  0  0  0  0
   50.1380   31.8530   40.6220 C   0  0  0  0  0  0  0  0  0  0  0  0
   48.9030   32.4070   40.7030 N   0  0  0  0  0  0  0  0  0  0  0  0
   42.7570   34.0427   41.6860 H   0  0  0  0  0  0  0  0  0  0  0  0
   41.9623   34.8790   38.9693 H   0  0  0  0  0  0  0  0  0  0  0  0
   42.5198   36.3146   39.1549 H   0  0  0  0  0  0  0  0  0  0  0  0
   40.5209   36.3341   41.3980 H   0  0  0  0  0  0  0  0  0  0  0  0
   39.2287   35.5351   40.7125 H   0  0  0  0  0  0  0  0  0  0  0  0
   40.5707   33.2568   42.4696 H   0  0  0  0  0  0  0  0  0  0  0  0
   39.0365   33.0292   42.3577 H   0  0  0  0  0  0  0  0  0  0  0  0
   40.9727   32.8687   39.6816 H   0  0  0  0  0  0  0  0  0  0  0  0
   38.4494   34.5089   38.5368 H   0  0  0  0  0  0  0  0  0  0  0  0
   39.8384   33.8523   37.5909 H   0  0  0  0  0  0  0  0  0  0  0  0
   37.0406   32.6662   37.8091 H   0  0  0  0  0  0  0  0  0  0  0  0
   37.7708   33.4431   36.3725 H   0  0  0  0  0  0  0  0  0  0  0  0
   38.3179   29.7823   38.0171 H   0  0  0  0  0  0  0  0  0  0  0  0
   39.0003   30.8832   40.2652 H   0  0  0  0  0  0  0  0  0  0  0  0
   43.5812   36.7460   41.4930 H   0  0  0  0  0  0  0  0  0  0  0  0
   43.2381   35.7273   42.9941 H   0  0  0  0  0  0  0  0  0  0  0  0
   44.4550   34.0200   40.0833 H   0  0  0  0  0  0  0  0  0  0  0  0
   45.5718   36.1443   43.6525 H   0  0  0  0  0  0  0  0  0  0  0  0
   49.5143   34.6094   43.1701 H   0  0  0  0  0  0  0  0  0  0  0  0
   51.7468   33.5697   42.9868 H   0  0  0  0  0  0  0  0  0  0  0  0
   52.1940   31.7620   41.3279 H   0  0  0  0  0  0  0  0  0  0  0  0
   50.3011   31.0575   39.8801 H   0  0  0  0  0  0  0  0  0  0  0  0
  1 13  1  0
  2  3  1  0
  2  1  1  0
  3  1  1  0
  4  3  1  0
  4  5  1  0
  6  4  1  0
  6  5  1  0
  7 12  1  0
  7  6  1  0
  8  7  1  0
  9  8  1  0
 10  9  1  0
 10 11  1  0
 11 12  2  0
 14 15  2  0
 15 13  1  0
 15 16  1  0
 17 16  2  0
 18 17  1  0
 19 14  1  0
 19 18  2  0
 20 18  1  0
 20 21  2  0
 22 21  1  0
 23 22  2  0
 24 25  2  0
 24 23  1  0
 25 20  1  0
  1 26  1  6
  2 27  1  0
  2 28  1  0
  3 29  1  1
  4 30  1  6
  5 31  1  0
  5 32  1  0
  6 33  1  1
  8 34  1  0
  8 35  1  0
  9 36  1  0
  9 37  1  0
 11 38  1  0
 12 39  1  0
 13 40  1  0
 13 41  1  0
 14 42  1  0
 16 43  1  0
 21 44  1  0
 22 45  1  0
 23 46  1  0
 24 47  1  0
M  ISO  8  26  13  27  13  28  13  29  13  30  13  31  13  32  13  33  13
M  ISO  8  34  13  35  13  36  13  37  13  38  13  39  13  40   8  41   8
M  ISO  6  42  14  43  14  44  14  45  14  46  14  47  14
M  END
>  <minimizedAffinity>  (1) 
-5.75885057

>  <minimizedRMSD>  (1) 
2.28538847

$$$$
