
     RDKit          3D

 44 47  0  0  1  0  0  0  0  0999 V2000
   43.8010   35.2350   42.2780 C   0  0  2  0  0  0  0  0  0  0  0  0
   43.9050   34.5660   40.8890 C   0  0  0  0  0  0  0  0  0  0  0  0
   43.0730   35.7420   41.1110 C   0  0  1  0  0  0  0  0  0  0  0  0
   41.5800   35.6410   41.0200 C   0  0  2  0  0  0  0  0  0  0  0  0
   40.8080   34.9430   42.0810 C   0  0  0  0  0  0  0  0  0  0  0  0
   41.0780   34.2630   40.7640 C   0  0  1  0  0  0  0  0  0  0  0  0
   40.0980   33.9770   39.7980 N   0  0  0  0  0  0  0  0  0  0  0  0
   40.1520   34.6470   38.5640 C   0  0  0  0  0  0  0  0  0  0  0  0
   38.9750   34.2570   37.7090 C   0  0  0  0  0  0  0  0  0  0  0  0
   38.9520   32.8650   37.5980 O   0  0  0  0  0  0  0  0  0  0  0  0
   38.5960   32.3670   38.8450 C   0  0  0  0  0  0  0  0  0  0  0  0
   39.1890   32.9530   40.0330 C   0  0  0  0  0  0  0  0  0  0  0  0
   45.0840   35.8290   42.7660 C   0  0  0  0  0  0  0  0  0  0  0  0
   46.4340   33.9790   43.7110 C   0  0  0  0  0  0  0  0  0  0  0  0
   46.2420   34.9610   42.7330 C   0  0  0  0  0  0  0  0  0  0  0  0
   47.1980   35.0770   41.7250 C   0  0  0  0  0  0  0  0  0  0  0  0
   48.2860   34.2370   41.7200 N   0  0  0  0  0  0  0  0  0  0  0  0
   48.4120   33.3040   42.6990 C   0  0  0  0  0  0  0  0  0  0  0  0
   47.5020   33.1610   43.6970 N   0  0  0  0  0  0  0  0  0  0  0  0
   49.5970   32.4140   42.6640 C   0  0  0  0  0  0  0  0  0  0  0  0
   50.8320   33.1980   42.2910 C   0  0  0  0  0  0  0  0  0  0  0  0
   43.4798   35.0026   43.3041 H   0  0  0  0  0  0  0  0  0  0  0  0
   43.4415   33.5846   40.7101 H   0  0  0  0  0  0  0  0  0  0  0  0
   44.7224   34.2978   40.2035 H   0  0  0  0  0  0  0  0  0  0  0  0
   43.0149   36.7331   40.6373 H   0  0  0  0  0  0  0  0  0  0  0  0
   41.4754   36.6381   40.5675 H   0  0  0  0  0  0  0  0  0  0  0  0
   41.3148   34.5969   42.9939 H   0  0  0  0  0  0  0  0  0  0  0  0
   39.9077   35.1731   42.6697 H   0  0  0  0  0  0  0  0  0  0  0  0
   41.5206   33.3000   40.4695 H   0  0  0  0  0  0  0  0  0  0  0  0
   40.1304   35.7328   38.7387 H   0  0  0  0  0  0  0  0  0  0  0  0
   41.0810   34.3689   38.0447 H   0  0  0  0  0  0  0  0  0  0  0  0
   38.0434   34.6077   38.1772 H   0  0  0  0  0  0  0  0  0  0  0  0
   39.0643   34.7139   36.7124 H   0  0  0  0  0  0  0  0  0  0  0  0
   37.8752   31.5406   38.9308 H   0  0  0  0  0  0  0  0  0  0  0  0
   38.9366   32.6107   41.0475 H   0  0  0  0  0  0  0  0  0  0  0  0
   45.3054   36.7082   42.1431 H   0  0  0  0  0  0  0  0  0  0  0  0
   44.9174   36.0583   43.8289 H   0  0  0  0  0  0  0  0  0  0  0  0
   45.6903   33.8727   44.5145 H   0  0  0  0  0  0  0  0  0  0  0  0
   47.0823   35.8366   40.9379 H   0  0  0  0  0  0  0  0  0  0  0  0
   49.7405   31.9620   43.6565 H   0  0  0  0  0  0  0  0  0  0  0  0
   49.4318   31.6286   41.9118 H   0  0  0  0  0  0  0  0  0  0  0  0
   51.3483   33.5258   43.2053 H   0  0  0  0  0  0  0  0  0  0  0  0
   51.5052   32.5615   41.6979 H   0  0  0  0  0  0  0  0  0  0  0  0
   50.5424   34.0780   41.6979 H   0  0  0  0  0  0  0  0  0  0  0  0
  1 13  1  0
  2  3  1  0
  2  1  1  0
  3  1  1  0
  4  3  1  0
  4  5  1  0
  6  4  1  0
  6  5  1  0
  7 12  1  0
  7  6  1  0
  8  7  1  0
  9  8  1  0
 10  9  1  0
 10 11  1  0
 11 12  2  0
 15 13  1  0
 15 14  2  0
 16 15  1  0
 17 16  2  0
 17 18  1  0
 18 19  2  0
 19 14  1  0
 20 18  1  0
 21 20  1  0
  1 22  1  1
  2 23  1  0
  2 24  1  0
  3 25  1  6
  4 26  1  6
  5 27  1  0
  5 28  1  0
  6 29  1  1
  8 30  1  0
  8 31  1  0
  9 32  1  0
  9 33  1  0
 11 34  1  0
 12 35  1  0
 13 36  1  0
 13 37  1  0
 14 38  1  0
 16 39  1  0
 20 40  1  0
 20 41  1  0
 21 42  1  0
 21 43  1  0
 21 44  1  0
M  ISO  8  22  13  23  13  24  13  25  13  26  13  27  13  28  13  29  13
M  ISO  8  30  13  31  13  32  13  33  13  34  13  35  13  36   8  37   8
M  ISO  7  38  14  39  14  40   8  41   8  42   8  43   8  44   8
M  END
>  <minimizedAffinity>  (1) 
-4.98472261

>  <minimizedRMSD>  (1) 
0.565846026

$$$$
