
     RDKit          3D

 50 53  0  0  1  0  0  0  0  0999 V2000
   43.7610   35.0660   42.1280 C   0  0  2  0  0  0  0  0  0  0  0  0
   43.8590   34.6500   40.6460 C   0  0  0  0  0  0  0  0  0  0  0  0
   43.0070   35.7510   41.0780 C   0  0  1  0  0  0  0  0  0  0  0  0
   41.5170   35.6400   40.9870 C   0  0  2  0  0  0  0  0  0  0  0  0
   40.7470   34.9440   42.0530 C   0  0  0  0  0  0  0  0  0  0  0  0
   41.0250   34.2530   40.7460 C   0  0  1  0  0  0  0  0  0  0  0  0
   40.0520   33.9540   39.7770 N   0  0  0  0  0  0  0  0  0  0  0  0
   40.0960   34.6250   38.5430 C   0  0  0  0  0  0  0  0  0  0  0  0
   38.9350   34.2110   37.6780 C   0  0  0  0  0  0  0  0  0  0  0  0
   38.9340   32.8170   37.5750 O   0  0  0  0  0  0  0  0  0  0  0  0
   38.5740   32.3220   38.8210 C   0  0  0  0  0  0  0  0  0  0  0  0
   39.1520   32.9190   40.0080 C   0  0  0  0  0  0  0  0  0  0  0  0
   45.0360   35.5830   42.7090 C   0  0  0  0  0  0  0  0  0  0  0  0
   46.2650   33.4680   43.0430 C   0  0  0  0  0  0  0  0  0  0  0  0
   46.2070   34.7580   42.5120 C   0  0  0  0  0  0  0  0  0  0  0  0
   47.3020   35.2200   41.7950 C   0  0  0  0  0  0  0  0  0  0  0  0
   48.4020   34.4180   41.6220 N   0  0  0  0  0  0  0  0  0  0  0  0
   48.4000   33.1550   42.1700 C   0  0  0  0  0  0  0  0  0  0  0  0
   47.3410   32.6830   42.8740 N   0  0  0  0  0  0  0  0  0  0  0  0
   49.5950   32.2900   41.9800 C   0  0  0  0  0  0  0  0  0  0  0  0
   50.8620   33.0850   42.3150 C   0  0  0  0  0  0  0  0  0  0  0  0
   49.6040   31.0680   42.8410 C   0  0  0  0  0  0  0  0  0  0  0  0
   49.7640   31.9310   40.4980 C   0  0  0  0  0  0  0  0  0  0  0  0
   43.4575   34.6546   43.1020 H   0  0  0  0  0  0  0  0  0  0  0  0
   43.4128   33.7043   40.3047 H   0  0  0  0  0  0  0  0  0  0  0  0
   44.6717   34.5225   39.9157 H   0  0  0  0  0  0  0  0  0  0  0  0
   42.9219   36.8077   40.7844 H   0  0  0  0  0  0  0  0  0  0  0  0
   41.4061   36.6323   40.5255 H   0  0  0  0  0  0  0  0  0  0  0  0
   41.2542   34.6112   42.9706 H   0  0  0  0  0  0  0  0  0  0  0  0
   39.8430   35.1725   42.6366 H   0  0  0  0  0  0  0  0  0  0  0  0
   41.4736   33.2883   40.4665 H   0  0  0  0  0  0  0  0  0  0  0  0
   40.0483   35.7099   38.7186 H   0  0  0  0  0  0  0  0  0  0  0  0
   41.0336   34.3658   38.0294 H   0  0  0  0  0  0  0  0  0  0  0  0
   37.9931   34.5501   38.1339 H   0  0  0  0  0  0  0  0  0  0  0  0
   39.0288   34.6628   36.6795 H   0  0  0  0  0  0  0  0  0  0  0  0
   37.8606   31.4890   38.9059 H   0  0  0  0  0  0  0  0  0  0  0  0
   38.8966   32.5773   41.0219 H   0  0  0  0  0  0  0  0  0  0  0  0
   45.2372   36.5652   42.2565 H   0  0  0  0  0  0  0  0  0  0  0  0
   44.8745   35.6107   43.7967 H   0  0  0  0  0  0  0  0  0  0  0  0
   45.4068   33.0849   43.6147 H   0  0  0  0  0  0  0  0  0  0  0  0
   47.2880   36.2320   41.3642 H   0  0  0  0  0  0  0  0  0  0  0  0
   50.9731   33.1547   43.4072 H   0  0  0  0  0  0  0  0  0  0  0  0
   51.7384   32.5746   41.8891 H   0  0  0  0  0  0  0  0  0  0  0  0
   50.7837   34.0962   41.8891 H   0  0  0  0  0  0  0  0  0  0  0  0
   49.6018   31.3656   43.9000 H   0  0  0  0  0  0  0  0  0  0  0  0
   48.7103   30.4630   42.6283 H   0  0  0  0  0  0  0  0  0  0  0  0
   50.5065   30.4762   42.6283 H   0  0  0  0  0  0  0  0  0  0  0  0
   50.2311   30.9388   40.4120 H   0  0  0  0  0  0  0  0  0  0  0  0
   48.7784   31.9159   40.0097 H   0  0  0  0  0  0  0  0  0  0  0  0
   50.4037   32.6809   40.0097 H   0  0  0  0  0  0  0  0  0  0  0  0
  1 13  1  0
  2  3  1  0
  2  1  1  0
  3  1  1  0
  4  3  1  0
  4  5  1  0
  6  4  1  0
  6  5  1  0
  7 12  1  0
  7  6  1  0
  8  7  1  0
  9  8  1  0
 10  9  1  0
 10 11  1  0
 11 12  2  0
 15 13  1  0
 15 14  2  0
 16 15  1  0
 17 16  2  0
 17 18  1  0
 18 19  2  0
 19 14  1  0
 20 18  1  0
 20 21  1  0
 20 22  1  0
 23 20  1  0
  1 24  1  1
  2 25  1  0
  2 26  1  0
  3 27  1  6
  4 28  1  6
  5 29  1  0
  5 30  1  0
  6 31  1  1
  8 32  1  0
  8 33  1  0
  9 34  1  0
  9 35  1  0
 11 36  1  0
 12 37  1  0
 13 38  1  0
 13 39  1  0
 14 40  1  0
 16 41  1  0
 21 42  1  0
 21 43  1  0
 21 44  1  0
 22 45  1  0
 22 46  1  0
 22 47  1  0
 23 48  1  0
 23 49  1  0
 23 50  1  0
M  ISO  8  24  13  25  13  26  13  27  13  28  13  29  13  30  13  31  13
M  ISO  8  32  13  33  13  34  13  35  13  36  13  37  13  38   8  39   8
M  ISO  8  40  14  41  14  42   8  43   8  44   8  45   8  46   8  47   8
M  ISO  3  48   8  49   8  50   8
M  END
>  <minimizedAffinity>  (1) 
-5.05468702

>  <minimizedRMSD>  (1) 
0.919934869

$$$$
