
     RDKit          3D

 47 50  0  0  1  0  0  0  0  0999 V2000
   43.7650   35.2730   42.2940 C   0  0  2  0  0  0  0  0  0  0  0  0
   43.8800   34.6150   40.9010 C   0  0  0  0  0  0  0  0  0  0  0  0
   43.0220   35.7700   41.1360 C   0  0  1  0  0  0  0  0  0  0  0  0
   41.5320   35.6440   41.0520 C   0  0  2  0  0  0  0  0  0  0  0  0
   40.7790   34.9030   42.1010 C   0  0  0  0  0  0  0  0  0  0  0  0
   41.0600   34.2570   40.7710 C   0  0  1  0  0  0  0  0  0  0  0  0
   40.0860   33.9720   39.8000 N   0  0  0  0  0  0  0  0  0  0  0  0
   40.1400   34.6490   38.5690 C   0  0  0  0  0  0  0  0  0  0  0  0
   38.9800   34.2500   37.6990 C   0  0  0  0  0  0  0  0  0  0  0  0
   38.9690   32.8570   37.5870 O   0  0  0  0  0  0  0  0  0  0  0  0
   38.5980   32.3600   38.8280 C   0  0  0  0  0  0  0  0  0  0  0  0
   39.1760   32.9450   40.0240 C   0  0  0  0  0  0  0  0  0  0  0  0
   45.0390   35.8860   42.7830 C   0  0  0  0  0  0  0  0  0  0  0  0
   46.3950   34.0200   43.6880 C   0  0  0  0  0  0  0  0  0  0  0  0
   46.2090   35.0310   42.7420 C   0  0  0  0  0  0  0  0  0  0  0  0
   47.1800   35.1920   41.7600 C   0  0  0  0  0  0  0  0  0  0  0  0
   48.2800   34.3700   41.7430 N   0  0  0  0  0  0  0  0  0  0  0  0
   48.4010   33.4010   42.6950 C   0  0  0  0  0  0  0  0  0  0  0  0
   47.4730   33.2160   43.6690 N   0  0  0  0  0  0  0  0  0  0  0  0
   49.5610   32.4750   42.7390 C   0  0  0  0  0  0  0  0  0  0  0  0
   50.8460   33.1410   42.2860 C   0  0  0  0  0  0  0  0  0  0  0  0
   49.3520   31.2630   41.8440 C   0  0  0  0  0  0  0  0  0  0  0  0
   43.4511   35.0301   43.3199 H   0  0  0  0  0  0  0  0  0  0  0  0
   43.4388   33.6243   40.7172 H   0  0  0  0  0  0  0  0  0  0  0  0
   44.7004   34.3702   40.2103 H   0  0  0  0  0  0  0  0  0  0  0  0
   42.9392   36.7618   40.6676 H   0  0  0  0  0  0  0  0  0  0  0  0
   41.4028   36.6490   40.6238 H   0  0  0  0  0  0  0  0  0  0  0  0
   41.2970   34.5501   43.0050 H   0  0  0  0  0  0  0  0  0  0  0  0
   39.8752   35.0991   42.6965 H   0  0  0  0  0  0  0  0  0  0  0  0
   41.5223   33.3090   40.4588 H   0  0  0  0  0  0  0  0  0  0  0  0
   40.1011   35.7333   38.7499 H   0  0  0  0  0  0  0  0  0  0  0  0
   41.0770   34.3841   38.0573 H   0  0  0  0  0  0  0  0  0  0  0  0
   38.0393   34.5932   38.1543 H   0  0  0  0  0  0  0  0  0  0  0  0
   39.0801   34.7076   36.7037 H   0  0  0  0  0  0  0  0  0  0  0  0
   37.8757   31.5339   38.9045 H   0  0  0  0  0  0  0  0  0  0  0  0
   38.9130   32.6005   41.0350 H   0  0  0  0  0  0  0  0  0  0  0  0
   45.2465   36.7713   42.1640 H   0  0  0  0  0  0  0  0  0  0  0  0
   44.8720   36.1116   43.8466 H   0  0  0  0  0  0  0  0  0  0  0  0
   45.6369   33.8772   44.4721 H   0  0  0  0  0  0  0  0  0  0  0  0
   47.0673   35.9769   40.9976 H   0  0  0  0  0  0  0  0  0  0  0  0
   49.6429   32.1694   43.7925 H   0  0  0  0  0  0  0  0  0  0  0  0
   51.4317   33.4446   43.1662 H   0  0  0  0  0  0  0  0  0  0  0  0
   51.4325   32.4333   41.6816 H   0  0  0  0  0  0  0  0  0  0  0  0
   50.6059   34.0282   41.6816 H   0  0  0  0  0  0  0  0  0  0  0  0
   49.1979   30.3695   42.4668 H   0  0  0  0  0  0  0  0  0  0  0  0
   48.4684   31.4241   41.2090 H   0  0  0  0  0  0  0  0  0  0  0  0
   50.2385   31.1189   41.2090 H   0  0  0  0  0  0  0  0  0  0  0  0
  1 13  1  0
  2  3  1  0
  2  1  1  0
  3  1  1  0
  4  3  1  0
  4  5  1  0
  6  4  1  0
  6  5  1  0
  7 12  1  0
  7  6  1  0
  8  7  1  0
  9  8  1  0
 10  9  1  0
 10 11  1  0
 11 12  2  0
 15 13  1  0
 15 14  2  0
 16 15  1  0
 17 16  2  0
 17 18  1  0
 18 20  1  0
 18 19  2  0
 19 14  1  0
 21 20  1  0
 22 20  1  0
  1 23  1  1
  2 24  1  0
  2 25  1  0
  3 26  1  6
  4 27  1  6
  5 28  1  0
  5 29  1  0
  6 30  1  1
  8 31  1  0
  8 32  1  0
  9 33  1  0
  9 34  1  0
 11 35  1  0
 12 36  1  0
 13 37  1  0
 13 38  1  0
 14 39  1  0
 16 40  1  0
 20 41  1  0
 21 42  1  0
 21 43  1  0
 21 44  1  0
 22 45  1  0
 22 46  1  0
 22 47  1  0
M  ISO  8  23  13  24  13  25  13  26  13  27  13  28  13  29  13  30  13
M  ISO  8  31  13  32  13  33  13  34  13  35  13  36  13  37   8  38   8
M  ISO  8  39  14  40  14  41   8  42   8  43   8  44   8  45   8  46   8
M  ISO  1  47   8
M  END
>  <minimizedAffinity>  (1) 
-5.02543306

>  <minimizedRMSD>  (1) 
0.946865678

$$$$
