
     RDKit          3D

 27 29  0  0  1  0  0  0  0  0999 V2000
   46.2150   35.3430   42.2300 C   0  0  1  0  0  0  0  0  0  0  0  0
   45.4400   34.5430   41.2990 N   0  0  0  0  0  0  0  0  0  0  0  0
   45.9620   33.4860   40.6370 C   0  0  0  0  0  0  0  0  0  0  0  0
   45.0310   32.9090   39.8290 N   0  0  0  0  0  0  0  0  0  0  0  0
   43.8910   33.6080   39.9750 C   0  0  0  0  0  0  0  0  0  0  0  0
   42.6040   33.5430   39.4480 C   0  0  0  0  0  0  0  0  0  0  0  0
   41.6480   34.4280   39.8120 N   0  0  0  0  0  0  0  0  0  0  0  0
   41.9630   35.3990   40.7130 C   0  0  0  0  0  0  0  0  0  0  0  0
   43.2120   35.4970   41.2510 N   0  0  0  0  0  0  0  0  0  0  0  0
   44.1630   34.6080   40.8820 C   0  0  0  0  0  0  0  0  0  0  0  0
   45.9450   34.8170   43.5830 C   0  0  0  0  0  0  0  0  0  0  0  0
   44.9850   35.5870   44.2660 C   0  0  0  0  0  0  0  0  0  0  0  0
   44.6330   35.1930   45.5490 C   0  0  0  0  0  0  0  0  0  0  0  0
   45.2210   34.0950   46.0890 N   0  0  0  0  0  0  0  0  0  0  0  0
   46.1410   33.3740   45.4100 C   0  0  0  0  0  0  0  0  0  0  0  0
   46.4730   33.7610   44.1720 N   0  0  0  0  0  0  0  0  0  0  0  0
   47.6650   35.2110   41.8610 C   0  0  0  0  0  0  0  0  0  0  0  0
   45.9485   36.4098   42.1986 H   0  0  0  0  0  0  0  0  0  0  0  0
   47.0008   33.1386   40.7380 H   0  0  0  0  0  0  0  0  0  0  0  0
   42.3594   32.7553   38.7202 H   0  0  0  0  0  0  0  0  0  0  0  0
   41.1908   36.1222   41.0143 H   0  0  0  0  0  0  0  0  0  0  0  0
   44.5289   36.4719   43.7981 H   0  0  0  0  0  0  0  0  0  0  0  0
   43.8867   35.7633   46.1215 H   0  0  0  0  0  0  0  0  0  0  0  0
   46.6072   32.4877   45.8651 H   0  0  0  0  0  0  0  0  0  0  0  0
   48.2727   35.1557   42.7762 H   0  0  0  0  0  0  0  0  0  0  0  0
   47.8107   34.2959   41.2683 H   0  0  0  0  0  0  0  0  0  0  0  0
   47.9735   36.0848   41.2683 H   0  0  0  0  0  0  0  0  0  0  0  0
  1 11  1  0
  2  1  1  0
  3  2  1  0
  4  5  1  0
  4  3  2  0
  5 10  2  0
  6  7  2  0
  6  5  1  0
  7  8  1  0
  8  9  2  0
 10  9  1  0
 10  2  1  0
 11 16  1  0
 11 12  2  0
 12 13  1  0
 13 14  2  0
 15 14  1  0
 16 15  2  0
 17  1  1  0
  1 18  1  1
  3 19  1  0
  6 20  1  0
  8 21  1  0
 12 22  1  0
 13 23  1  0
 15 24  1  0
 17 25  1  0
 17 26  1  0
 17 27  1  0
M  ISO  8  18   8  19  14  20  14  21  14  22  14  23  14  24  14  25   8
M  ISO  2  26   8  27   8
M  END
>  <minimizedAffinity>  (1) 
-4.71151781

>  <minimizedRMSD>  (1) 
4.96765518

$$$$
