
     RDKit          3D

 23 23  0  0  1  0  0  0  0  0999 V2000
   48.3450   34.8210   40.9670 C   0  0  2  0  0  0  0  0  0  0  0  0
   47.1520   34.6400   41.7950 C   0  0  0  0  0  0  0  0  0  0  0  0
   46.0220   34.3330   41.0220 C   0  0  0  0  0  0  0  0  0  0  0  0
   44.7860   34.1010   41.6150 C   0  0  0  0  0  0  0  0  0  0  0  0
   44.7340   34.1850   42.9600 N   0  0  0  0  0  0  0  0  0  0  0  0
   45.8460   34.4870   43.7060 C   0  0  0  0  0  0  0  0  0  0  0  0
   47.0370   34.7090   43.1090 N   0  0  0  0  0  0  0  0  0  0  0  0
   49.2340   33.6960   41.3230 N   0  0  0  0  0  0  0  0  0  0  0  0
   50.3000   33.8610   42.2690 C   0  0  0  0  0  0  0  0  0  0  0  0
   50.2260   34.8330   43.1150 N   0  0  0  0  0  0  0  0  0  0  0  0
   51.4090   32.9390   42.2430 N   0  0  0  0  0  0  0  0  0  0  0  0
   51.0200   34.9360   43.8030 H   0  0  0  0  0  0  0  0  0  0  0  0
   49.0480   36.1150   41.2740 C   0  0  0  0  0  0  0  0  0  0  0  0
   48.0772   34.8473   39.9004 H   0  0  0  0  0  0  0  0  0  0  0  0
   46.1156   34.2748   39.9275 H   0  0  0  0  0  0  0  0  0  0  0  0
   43.8947   33.8608   41.0167 H   0  0  0  0  0  0  0  0  0  0  0  0
   45.7663   34.5488   44.8014 H   0  0  0  0  0  0  0  0  0  0  0  0
   49.0858   32.7761   40.8839 H   0  0  0  0  0  0  0  0  0  0  0  0
   52.1820   33.0441   42.9156 H   0  0  0  0  0  0  0  0  0  0  0  0
   51.4279   32.1755   41.5519 H   0  0  0  0  0  0  0  0  0  0  0  0
   49.1183   36.2444   42.3641 H   0  0  0  0  0  0  0  0  0  0  0  0
   50.0591   36.0946   40.8412 H   0  0  0  0  0  0  0  0  0  0  0  0
   48.4807   36.9522   40.8412 H   0  0  0  0  0  0  0  0  0  0  0  0
  1 13  1  0
  1  8  1  0
  1  2  1  0
  2  7  2  0
  3  4  2  0
  3  2  1  0
  4  5  1  0
  5  6  2  0
  7  6  1  0
  8  9  1  0
  9 10  2  0
 10 12  1  0
 11  9  1  0
  1 14  1  6
  3 15  1  0
  4 16  1  0
  6 17  1  0
  8 18  1  0
 11 19  1  0
 11 20  1  0
 13 21  1  0
 13 22  1  0
 13 23  1  0
M  ISO  7  14   8  15  14  16  14  17  14  21   8  22   8  23   8
M  END
>  <minimizedAffinity>  (1) 
-4.75266695

>  <minimizedRMSD>  (1) 
2.00042248

$$$$
