
     RDKit          3D

 25 26  0  0  1  0  0  0  0  0999 V2000
   47.7930   35.2790   41.8350 C   0  0  2  0  0  0  0  0  0  0  0  0
   47.0710   34.6550   42.9670 C   0  0  0  0  0  0  0  0  0  0  0  0
   45.8540   35.3070   43.2410 C   0  0  0  0  0  0  0  0  0  0  0  0
   45.0780   34.8160   44.2790 C   0  0  0  0  0  0  0  0  0  0  0  0
   45.5210   33.7470   44.9720 N   0  0  0  0  0  0  0  0  0  0  0  0
   46.6910   33.1320   44.6970 C   0  0  0  0  0  0  0  0  0  0  0  0
   47.4220   33.6130   43.7010 N   0  0  0  0  0  0  0  0  0  0  0  0
   47.4420   34.5260   40.6030 C   0  0  0  0  0  0  0  0  0  0  0  0
   48.2630   34.4830   39.4760 C   0  0  0  0  0  0  0  0  0  0  0  0
   47.9600   33.7990   38.3370 C   0  0  0  0  0  0  0  0  0  0  0  0
   46.7660   33.0940   38.2740 C   0  0  0  0  0  0  0  0  0  0  0  0
   45.9650   33.1430   39.3930 C   0  0  0  0  0  0  0  0  0  0  0  0
   46.2770   33.8220   40.5090 N   0  0  0  0  0  0  0  0  0  0  0  0
   49.2780   35.2150   42.0310 C   0  0  0  0  0  0  0  0  0  0  0  0
   47.5023   36.3374   41.7628 H   0  0  0  0  0  0  0  0  0  0  0  0
   45.5298   36.1770   42.6511 H   0  0  0  0  0  0  0  0  0  0  0  0
   44.1182   35.2895   44.5331 H   0  0  0  0  0  0  0  0  0  0  0  0
   47.0264   32.2613   45.2796 H   0  0  0  0  0  0  0  0  0  0  0  0
   49.2137   35.0354   39.5088 H   0  0  0  0  0  0  0  0  0  0  0  0
   48.6508   33.8055   37.4810 H   0  0  0  0  0  0  0  0  0  0  0  0
   46.4751   32.5263   37.3778 H   0  0  0  0  0  0  0  0  0  0  0  0
   45.0126   32.5931   39.3716 H   0  0  0  0  0  0  0  0  0  0  0  0
   49.5057   35.2052   43.1071 H   0  0  0  0  0  0  0  0  0  0  0  0
   49.6702   34.2991   41.5648 H   0  0  0  0  0  0  0  0  0  0  0  0
   49.7476   36.0937   41.5648 H   0  0  0  0  0  0  0  0  0  0  0  0
  1 14  1  0
  1  2  1  0
  2  3  2  0
  2  7  1  0
  3  4  1  0
  4  5  2  0
  6  5  1  0
  7  6  2  0
  8  1  1  0
  9  8  2  0
 10  9  1  0
 11 10  2  0
 11 12  1  0
 12 13  2  0
 13  8  1  0
  1 15  1  6
  3 16  1  0
  4 17  1  0
  6 18  1  0
  9 19  1  0
 10 20  1  0
 11 21  1  0
 12 22  1  0
 14 23  1  0
 14 24  1  0
 14 25  1  0
M  ISO  8  15   8  16  14  17  14  18  14  19  14  20  14  21  14  22  14
M  ISO  3  23   8  24   8  25   8
M  END
>  <minimizedAffinity>  (1) 
-4.38814259

>  <minimizedRMSD>  (1) 
1.51640952

$$$$
