
     RDKit          3D

 26 27  0  0  1  0  0  0  0  0999 V2000
   47.8530   35.3400   41.8420 C   0  0  2  0  0  0  0  0  0  0  0  0
   47.0580   34.7570   42.9510 C   0  0  0  0  0  0  0  0  0  0  0  0
   45.8570   35.4590   43.1320 C   0  0  0  0  0  0  0  0  0  0  0  0
   44.9800   35.0470   44.1290 C   0  0  0  0  0  0  0  0  0  0  0  0
   45.3190   33.9830   44.8870 N   0  0  0  0  0  0  0  0  0  0  0  0
   46.4940   33.3200   44.6890 C   0  0  0  0  0  0  0  0  0  0  0  0
   47.3200   33.7260   43.7320 N   0  0  0  0  0  0  0  0  0  0  0  0
   47.4820   34.5800   40.6150 C   0  0  0  0  0  0  0  0  0  0  0  0
   48.3460   34.6140   39.5170 C   0  0  0  0  0  0  0  0  0  0  0  0
   48.0190   33.9130   38.3670 C   0  0  0  0  0  0  0  0  0  0  0  0
   46.8290   33.1800   38.3080 C   0  0  0  0  0  0  0  0  0  0  0  0
   45.9460   33.1300   39.3920 C   0  0  0  0  0  0  0  0  0  0  0  0
   46.3210   33.8420   40.5070 C   0  0  0  0  0  0  0  0  0  0  0  0
   49.3220   35.1120   42.0630 C   0  0  0  0  0  0  0  0  0  0  0  0
   47.6557   36.4197   41.7692 H   0  0  0  0  0  0  0  0  0  0  0  0
   45.6130   36.3220   42.4950 H   0  0  0  0  0  0  0  0  0  0  0  0
   44.0305   35.5766   44.2964 H   0  0  0  0  0  0  0  0  0  0  0  0
   46.7555   32.4557   45.3171 H   0  0  0  0  0  0  0  0  0  0  0  0
   49.2797   35.1935   39.5652 H   0  0  0  0  0  0  0  0  0  0  0  0
   48.6957   33.9330   37.5000 H   0  0  0  0  0  0  0  0  0  0  0  0
   46.5818   32.6302   37.3879 H   0  0  0  0  0  0  0  0  0  0  0  0
   45.0085   32.5559   39.3546 H   0  0  0  0  0  0  0  0  0  0  0  0
   45.6467   33.8218   41.3758 H   0  0  0  0  0  0  0  0  0  0  0  0
   49.5297   35.0798   43.1427 H   0  0  0  0  0  0  0  0  0  0  0  0
   49.6180   34.1572   41.6040 H   0  0  0  0  0  0  0  0  0  0  0  0
   49.8935   35.9322   41.6040 H   0  0  0  0  0  0  0  0  0  0  0  0
  1 14  1  0
  1  2  1  0
  2  3  2  0
  2  7  1  0
  3  4  1  0
  4  5  2  0
  6  5  1  0
  7  6  2  0
  8  1  1  0
  9  8  2  0
 10  9  1  0
 11 10  2  0
 11 12  1  0
 12 13  2  0
 13  8  1  0
  1 15  1  6
  3 16  1  0
  4 17  1  0
  6 18  1  0
  9 19  1  0
 10 20  1  0
 11 21  1  0
 12 22  1  0
 13 23  1  0
 14 24  1  0
 14 25  1  0
 14 26  1  0
M  ISO  8  15   8  16  14  17  14  18  14  19  14  20  14  21  14  22  14
M  ISO  4  23  14  24   8  25   8  26   8
M  END
>  <minimizedAffinity>  (1) 
-4.56727076

>  <minimizedRMSD>  (1) 
1.58687186

$$$$
