
     RDKit          3D

 24 25  0  0  1  0  0  0  0  0999 V2000
   47.7030   35.3100   41.7800 C   0  0  0  0  0  0  0  0  0  0  0  0
   46.9650   34.7690   42.9400 C   0  0  0  0  0  0  0  0  0  0  0  0
   45.7770   35.4830   43.1820 C   0  0  0  0  0  0  0  0  0  0  0  0
   44.9760   35.0760   44.2400 C   0  0  0  0  0  0  0  0  0  0  0  0
   45.3580   34.0250   44.9950 N   0  0  0  0  0  0  0  0  0  0  0  0
   46.5180   33.3490   44.7410 C   0  0  0  0  0  0  0  0  0  0  0  0
   47.2690   33.7530   43.7230 N   0  0  0  0  0  0  0  0  0  0  0  0
   47.3320   34.4880   40.5960 C   0  0  0  0  0  0  0  0  0  0  0  0
   48.1790   34.3090   39.5040 C   0  0  0  0  0  0  0  0  0  0  0  0
   47.7470   33.5280   38.4500 C   0  0  0  0  0  0  0  0  0  0  0  0
   46.5150   32.9410   38.4720 N   0  0  0  0  0  0  0  0  0  0  0  0
   45.7010   33.1280   39.5490 C   0  0  0  0  0  0  0  0  0  0  0  0
   46.1120   33.8840   40.5750 N   0  0  0  0  0  0  0  0  0  0  0  0
   49.1860   35.2060   41.9760 C   0  0  0  0  0  0  0  0  0  0  0  0
   47.4449   36.3714   41.6507 H   0  0  0  0  0  0  0  0  0  0  0  0
   45.4916   36.3381   42.5516 H   0  0  0  0  0  0  0  0  0  0  0  0
   44.0377   35.6058   44.4611 H   0  0  0  0  0  0  0  0  0  0  0  0
   46.8214   32.4937   45.3626 H   0  0  0  0  0  0  0  0  0  0  0  0
   49.1725   34.7806   39.4819 H   0  0  0  0  0  0  0  0  0  0  0  0
   48.4046   33.3770   37.5812 H   0  0  0  0  0  0  0  0  0  0  0  0
   44.7068   32.6581   39.5754 H   0  0  0  0  0  0  0  0  0  0  0  0
   49.4134   35.1901   43.0521 H   0  0  0  0  0  0  0  0  0  0  0  0
   49.5534   34.2799   41.5098 H   0  0  0  0  0  0  0  0  0  0  0  0
   49.6791   36.0718   41.5098 H   0  0  0  0  0  0  0  0  0  0  0  0
  1 14  1  0
  1  2  1  0
  2  3  2  0
  2  7  1  0
  3  4  1  0
  4  5  2  0
  6  5  1  0
  7  6  2  0
  8  1  1  0
  9  8  2  0
 10 11  2  0
 10  9  1  0
 11 12  1  0
 12 13  2  0
 13  8  1  0
  1 15  1  0
  3 16  1  0
  4 17  1  0
  6 18  1  0
  9 19  1  0
 10 20  1  0
 12 21  1  0
 14 22  1  0
 14 23  1  0
 14 24  1  0
M  ISO  8  15   8  16  14  17  14  18  14  19  14  20  14  21  14  22   8
M  ISO  2  23   8  24   8
M  END
>  <minimizedAffinity>  (1) 
-4.27511024

>  <minimizedRMSD>  (1) 
1.52572358

$$$$
