
     RDKit          3D

 23 24  0  0  1  0  0  0  0  0999 V2000
   47.5120   35.1840   41.8770 C   0  0  2  0  0  0  0  0  0  0  0  0
   46.6780   34.8850   43.0520 C   0  0  0  0  0  0  0  0  0  0  0  0
   45.6130   35.7860   43.1870 C   0  0  0  0  0  0  0  0  0  0  0  0
   44.7390   35.6000   44.2770 C   0  0  0  0  0  0  0  0  0  0  0  0
   44.9620   34.5740   45.1350 N   0  0  0  0  0  0  0  0  0  0  0  0
   46.0140   33.7140   44.9690 C   0  0  0  0  0  0  0  0  0  0  0  0
   46.8420   33.9040   43.9230 N   0  0  0  0  0  0  0  0  0  0  0  0
   47.1750   34.4140   40.6970 N   0  0  0  0  0  0  0  0  0  0  0  0
   46.0400   33.7430   40.4510 C   0  0  0  0  0  0  0  0  0  0  0  0
   46.1310   33.1410   39.2040 C   0  0  0  0  0  0  0  0  0  0  0  0
   47.3370   33.4690   38.7210 N   0  0  0  0  0  0  0  0  0  0  0  0
   47.9690   34.2390   39.6260 C   0  0  0  0  0  0  0  0  0  0  0  0
   48.9750   35.0330   42.1860 C   0  0  0  0  0  0  0  0  0  0  0  0
   47.2928   36.2352   41.6384 H   0  0  0  0  0  0  0  0  0  0  0  0
   45.4649   36.6068   42.4698 H   0  0  0  0  0  0  0  0  0  0  0  0
   43.8868   36.2786   44.4297 H   0  0  0  0  0  0  0  0  0  0  0  0
   46.1798   32.8860   45.6740 H   0  0  0  0  0  0  0  0  0  0  0  0
   45.1759   33.6800   41.1288 H   0  0  0  0  0  0  0  0  0  0  0  0
   45.3678   32.5203   38.7118 H   0  0  0  0  0  0  0  0  0  0  0  0
   48.9784   34.6599   39.5079 H   0  0  0  0  0  0  0  0  0  0  0  0
   49.1198   35.0181   43.2763 H   0  0  0  0  0  0  0  0  0  0  0  0
   49.3458   34.0918   41.7539 H   0  0  0  0  0  0  0  0  0  0  0  0
   49.5302   35.8786   41.7539 H   0  0  0  0  0  0  0  0  0  0  0  0
  1 13  1  0
  1  2  1  0
  2  3  2  0
  2  7  1  0
  3  4  1  0
  4  5  2  0
  6  5  1  0
  7  6  2  0
  8  1  1  0
  9  8  1  0
 10  9  2  0
 11 10  1  0
 11 12  2  0
 12  8  1  0
  1 14  1  6
  3 15  1  0
  4 16  1  0
  6 17  1  0
  9 18  1  0
 10 19  1  0
 12 20  1  0
 13 21  1  0
 13 22  1  0
 13 23  1  0
M  ISO  8  14   8  15  14  16  14  17  14  18  14  19  14  20  14  21   8
M  ISO  2  22   8  23   8
M  END
>  <minimizedAffinity>  (1) 
-3.98698497

>  <minimizedRMSD>  (1) 
1.21734381

$$$$
