
     RDKit          3D

 44 48  0  0  1  0  0  0  0  0999 V2000
   47.6880   32.4840   39.2660 C   0  0  2  0  0  0  0  0  0  0  0  0
   49.0820   32.2950   38.6290 C   0  0  0  0  0  0  0  0  0  0  0  0
   47.9510   32.9320   37.8500 C   0  0  1  0  0  0  0  0  0  0  0  0
   46.9390   34.5000   42.1820 N   0  0  0  0  0  0  0  0  0  0  0  0
   47.9240   35.2520   41.6200 C   0  0  0  0  0  0  0  0  0  0  0  0
   48.3550   34.6740   40.4960 N   0  0  0  0  0  0  0  0  0  0  0  0
   47.6160   33.5200   40.3490 C   0  0  0  0  0  0  0  0  0  0  0  0
   46.8030   33.4870   41.3830 N   0  0  0  0  0  0  0  0  0  0  0  0
   45.3400   35.8460   43.3840 C   0  0  0  0  0  0  0  0  0  0  0  0
   46.1790   34.6850   43.3630 C   0  0  0  0  0  0  0  0  0  0  0  0
   46.1750   33.8730   44.4510 C   0  0  0  0  0  0  0  0  0  0  0  0
   45.3670   34.2280   45.4930 N   0  0  0  0  0  0  0  0  0  0  0  0
   44.5930   35.3150   45.4930 C   0  0  0  0  0  0  0  0  0  0  0  0
   44.5850   36.1290   44.4220 N   0  0  0  0  0  0  0  0  0  0  0  0
   47.2490   32.2330   36.7950 C   0  0  0  0  0  0  0  0  0  0  0  0
   47.7190   31.1160   36.4080 O   0  0  0  0  0  0  0  0  0  0  0  0
   46.1060   32.7380   36.2160 O   0  0  0  0  0  0  0  0  0  0  0  0
   42.9560   31.6200   37.2080 N   0  0  0  0  0  0  0  0  0  0  0  0
   44.0460   31.5740   36.4200 N   0  0  0  0  0  0  0  0  0  0  0  0
   44.8930   32.5430   36.8410 C   0  0  0  0  0  0  0  0  0  0  0  0
   44.3500   33.2150   37.9030 C   0  0  0  0  0  0  0  0  0  0  0  0
   43.1130   32.6010   38.1110 C   0  0  0  0  0  0  0  0  0  0  0  0
   42.1430   32.9200   39.0990 N   0  0  0  0  0  0  0  0  0  0  0  0
   42.5360   32.4720   40.3260 C   0  0  0  0  0  0  0  0  0  0  0  0
   41.7410   32.6740   41.4430 C   0  0  0  0  0  0  0  0  0  0  0  0
   40.5380   33.3380   41.2900 C   0  0  0  0  0  0  0  0  0  0  0  0
   39.7240   33.5450   42.4300 N   0  0  0  0  0  0  0  0  0  0  0  0
   40.2040   33.7540   40.0670 N   0  0  0  0  0  0  0  0  0  0  0  0
   40.9650   33.5620   38.9970 C   0  0  0  0  0  0  0  0  0  0  0  0
   40.7200   33.9210   37.8200 O   0  0  0  0  0  0  0  0  0  0  0  0
   46.9255   31.8430   39.7325 H   0  0  0  0  0  0  0  0  0  0  0  0
   49.9318   32.9056   38.9682 H   0  0  0  0  0  0  0  0  0  0  0  0
   49.7613   31.4446   38.4693 H   0  0  0  0  0  0  0  0  0  0  0  0
   47.8824   33.8720   37.2829 H   0  0  0  0  0  0  0  0  0  0  0  0
   48.3086   36.1970   42.0311 H   0  0  0  0  0  0  0  0  0  0  0  0
   45.3274   36.5159   42.5116 H   0  0  0  0  0  0  0  0  0  0  0  0
   46.7969   32.9666   44.4915 H   0  0  0  0  0  0  0  0  0  0  0  0
   43.9638   35.5446   46.3656 H   0  0  0  0  0  0  0  0  0  0  0  0
   42.1349   31.0030   37.1309 H   0  0  0  0  0  0  0  0  0  0  0  0
   44.7896   34.0513   38.4663 H   0  0  0  0  0  0  0  0  0  0  0  0
   43.4954   31.9441   40.4301 H   0  0  0  0  0  0  0  0  0  0  0  0
   42.0608   32.3132   42.4317 H   0  0  0  0  0  0  0  0  0  0  0  0
   38.8241   34.0374   42.3377 H   0  0  0  0  0  0  0  0  0  0  0  0
   40.0318   33.2032   43.3516 H   0  0  0  0  0  0  0  0  0  0  0  0
  1  7  1  0
  2  1  1  0
  3  2  1  0
  3  1  1  0
  4 10  1  0
  5  4  1  0
  6  5  2  0
  7  6  1  0
  7  8  2  0
  8  4  1  0
  9 14  2  0
 10  9  1  0
 10 11  2  0
 11 12  1  0
 13 12  2  0
 14 13  1  0
 15  3  1  0
 16 15  2  0
 17 15  1  0
 17 20  1  0
 18 22  1  0
 19 20  2  0
 19 18  1  0
 20 21  1  0
 21 22  2  0
 22 23  1  0
 23 24  1  0
 24 25  2  0
 26 25  1  0
 26 27  1  0
 28 26  2  0
 29 23  1  0
 29 28  1  0
 30 29  2  0
  1 31  1  6
  2 32  1  0
  2 33  1  0
  3 34  1  1
  5 35  1  0
  9 36  1  0
 11 37  1  0
 13 38  1  0
 18 39  1  0
 21 40  1  0
 24 41  1  0
 25 42  1  0
 27 43  1  0
 27 44  1  0
M  ISO  8  31  13  32  13  33  13  34  13  35  14  36  14  37  14  38  14
M  ISO  4  39   9  40  14  41  14  42  14
M  END
>  <minimizedAffinity>  (1) 
-6.07519388

>  <minimizedRMSD>  (1) 
7.81402493

$$$$
