
     RDKit          3D

 28 29  0  0  1  0  0  0  0  0999 V2000
   46.9460   35.0900   41.8100 C   0  0  2  0  0  0  0  0  0  0  0  0
   46.2640   34.9260   43.1030 C   0  0  0  0  0  0  0  0  0  0  0  0
   45.2970   35.9390   43.3650 C   0  0  0  0  0  0  0  0  0  0  0  0
   44.5720   35.9070   44.5480 C   0  0  0  0  0  0  0  0  0  0  0  0
   44.8280   34.8950   45.4040 N   0  0  0  0  0  0  0  0  0  0  0  0
   45.7500   33.9410   45.1400 C   0  0  0  0  0  0  0  0  0  0  0  0
   46.4410   33.9770   44.0060 N   0  0  0  0  0  0  0  0  0  0  0  0
   46.5560   34.0030   41.0120 N   0  0  0  0  0  0  0  0  0  0  0  0
   47.3220   32.8770   40.8280 C   0  0  0  0  0  0  0  0  0  0  0  0
   46.6710   32.2250   39.6030 C   0  0  0  0  0  0  0  0  0  0  0  0
   45.4250   33.0300   39.3010 C   0  0  0  0  0  0  0  0  0  0  0  0
   45.2400   33.8810   40.5420 C   0  0  0  0  0  0  0  0  0  0  0  0
   48.4480   35.1590   41.9970 C   0  0  0  0  0  0  0  0  0  0  0  0
   46.6650   36.0350   41.3220 H   0  0  0  0  0  0  0  0  0  0  0  0
   45.1259   36.7424   42.6334 H   0  0  0  0  0  0  0  0  0  0  0  0
   43.8192   36.6752   44.7788 H   0  0  0  0  0  0  0  0  0  0  0  0
   45.9279   33.1338   45.8658 H   0  0  0  0  0  0  0  0  0  0  0  0
   48.3713   33.1392   40.6275 H   0  0  0  0  0  0  0  0  0  0  0  0
   47.3513   32.2195   41.7093 H   0  0  0  0  0  0  0  0  0  0  0  0
   47.3596   32.2541   38.7457 H   0  0  0  0  0  0  0  0  0  0  0  0
   46.4268   31.1699   39.7957 H   0  0  0  0  0  0  0  0  0  0  0  0
   45.5707   33.6599   38.4111 H   0  0  0  0  0  0  0  0  0  0  0  0
   44.5513   32.3987   39.0819 H   0  0  0  0  0  0  0  0  0  0  0  0
   44.8121   34.8632   40.2927 H   0  0  0  0  0  0  0  0  0  0  0  0
   44.5454   33.4478   41.2768 H   0  0  0  0  0  0  0  0  0  0  0  0
   48.6836   35.1698   43.0714 H   0  0  0  0  0  0  0  0  0  0  0  0
   48.9166   34.2814   41.5277 H   0  0  0  0  0  0  0  0  0  0  0  0
   48.8342   36.0758   41.5277 H   0  0  0  0  0  0  0  0  0  0  0  0
  1 13  1  0
  1  2  1  0
  2  3  2  0
  2  7  1  0
  3  4  1  0
  4  5  2  0
  6  5  1  0
  7  6  2  0
  8  1  1  0
  9  8  1  0
 10  9  1  0
 11 10  1  0
 11 12  1  0
 12  8  1  0
  1 14  1  6
  3 15  1  0
  4 16  1  0
  6 17  1  0
  9 18  1  0
  9 19  1  0
 10 20  1  0
 10 21  1  0
 11 22  1  0
 11 23  1  0
 12 24  1  0
 12 25  1  0
 13 26  1  0
 13 27  1  0
 13 28  1  0
M  ISO  8  14   8  15  14  16  14  17  14  18  13  19  13  20  13  21  13
M  ISO  7  22  13  23  13  24  13  25  13  26   8  27   8  28   8
M  END
>  <minimizedAffinity>  (1) 
-3.85999489

>  <minimizedRMSD>  (1) 
1.59839261

$$$$
