
     RDKit          3D

 30 31  0  0  1  0  0  0  0  0999 V2000
   46.8220   34.7010   41.6920 C   0  0  1  0  0  0  0  0  0  0  0  0
   46.1950   34.7290   43.0100 C   0  0  0  0  0  0  0  0  0  0  0  0
   45.3230   35.8410   43.1560 C   0  0  0  0  0  0  0  0  0  0  0  0
   44.6300   36.0310   44.3390 C   0  0  0  0  0  0  0  0  0  0  0  0
   44.8230   35.1170   45.3420 N   0  0  0  0  0  0  0  0  0  0  0  0
   45.6600   34.0700   45.1730 C   0  0  0  0  0  0  0  0  0  0  0  0
   46.3340   33.8930   44.0050 N   0  0  0  0  0  0  0  0  0  0  0  0
   48.2070   35.3870   41.7490 C   0  0  0  0  0  0  0  0  0  0  0  0
   47.0350   33.0150   41.1240 S   0  0  0  0  0  0  0  0  0  0  0  0
   51.3290   31.6720   40.5430 C   0  0  0  0  0  0  0  0  0  0  0  0
   50.4070   31.7070   39.5080 C   0  0  0  0  0  0  0  0  0  0  0  0
   49.1240   32.1360   39.7890 C   0  0  0  0  0  0  0  0  0  0  0  0
   48.7440   32.5270   41.0660 C   0  0  0  0  0  0  0  0  0  0  0  0
   49.6900   32.4780   42.0690 C   0  0  0  0  0  0  0  0  0  0  0  0
   50.9680   32.0570   41.8190 C   0  0  0  0  0  0  0  0  0  0  0  0
   52.9590   31.1160   40.1640 S   0  0  0  0  0  0  0  0  0  0  0  0
   53.0120   29.6280   40.3380 O   0  0  0  0  0  0  0  0  0  0  0  0
   53.3150   31.4820   38.7500 O   0  0  0  0  0  0  0  0  0  0  0  0
   46.1649   35.2383   40.9924 H   0  0  0  0  0  0  0  0  0  0  0  0
   45.1982   36.5529   42.3267 H   0  0  0  0  0  0  0  0  0  0  0  0
   43.9489   36.8848   44.4695 H   0  0  0  0  0  0  0  0  0  0  0  0
   45.7985   33.3496   45.9927 H   0  0  0  0  0  0  0  0  0  0  0  0
   48.5011   35.5327   42.7989 H   0  0  0  0  0  0  0  0  0  0  0  0
   48.9511   34.7533   41.2443 H   0  0  0  0  0  0  0  0  0  0  0  0
   48.1538   36.3629   41.2443 H   0  0  0  0  0  0  0  0  0  0  0  0
   50.6896   31.4012   38.4898 H   0  0  0  0  0  0  0  0  0  0  0  0
   48.3821   32.1687   38.9775 H   0  0  0  0  0  0  0  0  0  0  0  0
   49.4119   32.7830   43.0886 H   0  0  0  0  0  0  0  0  0  0  0  0
   51.7067   32.0254   42.6335 H   0  0  0  0  0  0  0  0  0  0  0  0
   53.8592   31.7149   41.0054 H   0  0  0  0  0  0  0  0  0  0  0  0
  1  8  1  0
  1  2  1  0
  2  3  2  0
  2  7  1  0
  3  4  1  0
  4  5  2  0
  6  5  1  0
  7  6  2  0
  9  1  1  0
 10 15  2  0
 11 12  2  0
 11 10  1  0
 12 13  1  0
 13  9  1  0
 13 14  2  0
 15 14  1  0
 16 17  2  0
 16 10  1  0
 18 16  2  0
  1 19  1  6
  3 20  1  0
  4 21  1  0
  6 22  1  0
  8 23  1  0
  8 24  1  0
  8 25  1  0
 11 26  1  0
 12 27  1  0
 14 28  1  0
 15 29  1  0
 16 30  1  0
M  ISO  8  19   8  20  14  21  14  22  14  23   8  24   8  25   8  26  14
M  ISO  4  27  14  28  14  29  14  30  11
M  END
>  <minimizedAffinity>  (1) 
-4.56041527

>  <minimizedRMSD>  (1) 
2.43476963

$$$$
