
     RDKit          3D

 40 44  0  0  1  0  0  0  0  0999 V2000
   46.1370   32.7300   37.2650 C   0  0  2  0  0  0  0  0  0  0  0  0
   46.9300   31.4400   36.9780 C   0  0  0  0  0  0  0  0  0  0  0  0
   47.1380   32.2110   38.2660 C   0  0  1  0  0  0  0  0  0  0  0  0
   42.6920   32.9310   38.3670 N   0  0  0  0  0  0  0  0  0  0  0  0
   42.6310   31.8040   37.5910 C   0  0  0  0  0  0  0  0  0  0  0  0
   43.8340   31.5450   37.0760 N   0  0  0  0  0  0  0  0  0  0  0  0
   44.6740   32.5350   37.5400 C   0  0  0  0  0  0  0  0  0  0  0  0
   43.9330   33.3180   38.2960 N   0  0  0  0  0  0  0  0  0  0  0  0
   40.6480   34.2140   38.3420 C   0  0  0  0  0  0  0  0  0  0  0  0
   41.6960   33.6070   39.1140 C   0  0  0  0  0  0  0  0  0  0  0  0
   41.6470   33.7270   40.4650 C   0  0  0  0  0  0  0  0  0  0  0  0
   40.6130   34.4130   41.0050 N   0  0  0  0  0  0  0  0  0  0  0  0
   39.6350   34.9790   40.2690 C   0  0  0  0  0  0  0  0  0  0  0  0
   39.6730   34.8670   38.9380 N   0  0  0  0  0  0  0  0  0  0  0  0
   48.3260   33.0200   38.4930 C   0  0  0  0  0  0  0  0  0  0  0  0
   49.4490   32.5010   38.1890 O   0  0  0  0  0  0  0  0  0  0  0  0
   48.2610   34.2900   39.0040 O   0  0  0  0  0  0  0  0  0  0  0  0
   48.4520   34.6790   42.4660 N   0  0  0  0  0  0  0  0  0  0  0  0
   48.9960   34.5120   41.2530 N   0  0  0  0  0  0  0  0  0  0  0  0
   47.9960   34.4580   40.3460 C   0  0  0  0  0  0  0  0  0  0  0  0
   46.7900   34.5920   40.9800 C   0  0  0  0  0  0  0  0  0  0  0  0
   47.1170   34.7300   42.3300 C   0  0  0  0  0  0  0  0  0  0  0  0
   46.1590   34.9020   43.4040 C   0  0  0  0  0  0  0  0  0  0  0  0
   45.1910   35.8850   43.5020 C   0  0  0  0  0  0  0  0  0  0  0  0
   44.4800   35.7050   44.6740 C   0  0  0  0  0  0  0  0  0  0  0  0
   45.0690   34.6020   45.2310 C   0  0  0  0  0  0  0  0  0  0  0  0
   46.0480   34.1420   44.4820 O   0  0  0  0  0  0  0  0  0  0  0  0
   45.9856   33.7029   36.7746 H   0  0  0  0  0  0  0  0  0  0  0  0
   46.4223   30.4643   36.9940 H   0  0  0  0  0  0  0  0  0  0  0  0
   47.5795   31.0848   36.1644 H   0  0  0  0  0  0  0  0  0  0  0  0
   47.1261   31.9063   39.3229 H   0  0  0  0  0  0  0  0  0  0  0  0
   41.7261   31.2029   37.4184 H   0  0  0  0  0  0  0  0  0  0  0  0
   40.6603   34.1326   37.2451 H   0  0  0  0  0  0  0  0  0  0  0  0
   42.4245   33.2800   41.1020 H   0  0  0  0  0  0  0  0  0  0  0  0
   38.8159   35.5263   40.7584 H   0  0  0  0  0  0  0  0  0  0  0  0
   48.9702   34.7554   43.3529 H   0  0  0  0  0  0  0  0  0  0  0  0
   45.7876   34.5911   40.5269 H   0  0  0  0  0  0  0  0  0  0  0  0
   45.0149   36.6826   42.7652 H   0  0  0  0  0  0  0  0  0  0  0  0
   43.6435   36.3033   45.0644 H   0  0  0  0  0  0  0  0  0  0  0  0
   44.7614   34.1549   46.1878 H   0  0  0  0  0  0  0  0  0  0  0  0
  1  7  1  0
  1  3  1  0
  2  1  1  0
  2  3  1  0
  3 15  1  0
  4 10  1  0
  5  4  1  0
  6  7  1  0
  6  5  2  0
  7  8  2  0
  8  4  1  0
  9 14  2  0
  9 10  1  0
 10 11  2  0
 11 12  1  0
 13 12  2  0
 14 13  1  0
 15 17  1  0
 16 15  2  0
 17 20  1  0
 19 18  1  0
 20 21  1  0
 20 19  2  0
 21 22  2  0
 22 18  1  0
 22 23  1  0
 23 24  2  0
 23 27  1  0
 24 25  1  0
 25 26  2  0
 27 26  1  0
  1 28  1  6
  2 29  1  0
  2 30  1  0
  3 31  1  1
  5 32  1  0
  9 33  1  0
 11 34  1  0
 13 35  1  0
 18 36  1  0
 21 37  1  0
 24 38  1  0
 25 39  1  0
 26 40  1  0
M  ISO  8  28  13  29  13  30  13  31  13  32  14  33  14  34  14  35  14
M  ISO  5  36   9  37  14  38  14  39  14  40  14
M  END
>  <minimizedAffinity>  (1) 
-5.54798412

>  <minimizedRMSD>  (1) 
6.10005331

$$$$
