
     RDKit          3D

 31 33  0  0  1  0  0  0  0  0999 V2000
   46.4740   35.0180   41.8120 C   0  0  1  0  0  0  0  0  0  0  0  0
   46.0220   34.8030   43.1940 C   0  0  0  0  0  0  0  0  0  0  0  0
   45.0500   35.7510   43.5760 C   0  0  0  0  0  0  0  0  0  0  0  0
   44.5300   35.6580   44.8610 C   0  0  0  0  0  0  0  0  0  0  0  0
   44.9670   34.6780   45.6860 N   0  0  0  0  0  0  0  0  0  0  0  0
   45.9110   33.7790   45.2760 C   0  0  0  0  0  0  0  0  0  0  0  0
   46.4270   33.8570   44.0280 N   0  0  0  0  0  0  0  0  0  0  0  0
   48.0100   35.1390   41.7630 C   0  0  0  0  0  0  0  0  0  0  0  0
   45.9600   33.6590   40.7510 S   0  0  0  0  0  0  0  0  0  0  0  0
   44.4530   32.9080   41.2780 C   0  0  0  0  0  0  0  0  0  0  0  0
   44.3500   31.7820   42.0440 N   0  0  0  0  0  0  0  0  0  0  0  0
   43.1020   31.3310   42.3650 C   0  0  0  0  0  0  0  0  0  0  0  0
   41.9500   31.9130   41.9830 N   0  0  0  0  0  0  0  0  0  0  0  0
   42.0370   33.0360   41.2180 C   0  0  0  0  0  0  0  0  0  0  0  0
   40.8630   33.6510   40.8130 C   0  0  0  0  0  0  0  0  0  0  0  0
   40.9230   34.7890   40.0360 C   0  0  0  0  0  0  0  0  0  0  0  0
   42.1520   35.3050   39.6720 C   0  0  0  0  0  0  0  0  0  0  0  0
   43.2890   34.6700   40.0930 C   0  0  0  0  0  0  0  0  0  0  0  0
   43.2810   33.5190   40.8750 C   0  0  0  0  0  0  0  0  0  0  0  0
   46.0170   35.9511   41.4507 H   0  0  0  0  0  0  0  0  0  0  0  0
   44.7157   36.5358   42.8815 H   0  0  0  0  0  0  0  0  0  0  0  0
   43.7697   36.3747   45.2050 H   0  0  0  0  0  0  0  0  0  0  0  0
   46.2521   32.9900   45.9624 H   0  0  0  0  0  0  0  0  0  0  0  0
   48.4082   35.1704   42.7879 H   0  0  0  0  0  0  0  0  0  0  0  0
   48.4295   34.2711   41.2331 H   0  0  0  0  0  0  0  0  0  0  0  0
   48.2884   36.0619   41.2331 H   0  0  0  0  0  0  0  0  0  0  0  0
   43.0327   30.4233   42.9825 H   0  0  0  0  0  0  0  0  0  0  0  0
   39.8892   33.2341   41.1094 H   0  0  0  0  0  0  0  0  0  0  0  0
   39.9969   35.2834   39.7077 H   0  0  0  0  0  0  0  0  0  0  0  0
   42.2156   36.2123   39.0533 H   0  0  0  0  0  0  0  0  0  0  0  0
   44.2609   35.0920   39.7975 H   0  0  0  0  0  0  0  0  0  0  0  0
  1  2  1  0
  2  3  2  0
  2  7  1  0
  3  4  1  0
  4  5  2  0
  6  5  1  0
  7  6  2  0
  8  1  1  0
  9 10  1  0
  9  1  1  0
 10 11  2  0
 11 12  1  0
 13 12  2  0
 14 13  1  0
 15 14  2  0
 16 15  1  0
 17 16  2  0
 17 18  1  0
 18 19  2  0
 19 14  1  0
 19 10  1  0
  1 20  1  6
  3 21  1  0
  4 22  1  0
  6 23  1  0
  8 24  1  0
  8 25  1  0
  8 26  1  0
 12 27  1  0
 15 28  1  0
 16 29  1  0
 17 30  1  0
 18 31  1  0
M  ISO  8  20   8  21  14  22  14  23  14  24   8  25   8  26   8  27  14
M  ISO  4  28  14  29  14  30  14  31  14
M  END
>  <minimizedAffinity>  (1) 
-5.02914333

>  <minimizedRMSD>  (1) 
2.5598805

$$$$
