
     RDKit          3D

 33 35  0  0  1  0  0  0  0  0999 V2000
   46.4470   34.9620   41.8900 C   0  0  1  0  0  0  0  0  0  0  0  0
   45.9830   34.7950   43.2670 C   0  0  0  0  0  0  0  0  0  0  0  0
   45.0330   35.7830   43.6160 C   0  0  0  0  0  0  0  0  0  0  0  0
   44.4780   35.7810   44.8820 C   0  0  0  0  0  0  0  0  0  0  0  0
   44.8810   34.8040   45.7540 N   0  0  0  0  0  0  0  0  0  0  0  0
   45.7900   33.8730   45.3910 C   0  0  0  0  0  0  0  0  0  0  0  0
   46.3240   33.8920   44.1440 N   0  0  0  0  0  0  0  0  0  0  0  0
   47.9810   35.1160   41.8600 C   0  0  0  0  0  0  0  0  0  0  0  0
   46.0010   33.5380   40.8910 S   0  0  0  0  0  0  0  0  0  0  0  0
   44.3520   32.9550   41.2500 C   0  0  0  0  0  0  0  0  0  0  0  0
   44.3550   31.7860   41.9970 C   0  0  0  0  0  0  0  0  0  0  0  0
   43.1280   31.2140   42.3520 C   0  0  0  0  0  0  0  0  0  0  0  0
   41.9360   31.7950   41.9710 C   0  0  0  0  0  0  0  0  0  0  0  0
   41.9590   32.9670   41.2220 C   0  0  0  0  0  0  0  0  0  0  0  0
   40.7940   33.5920   40.8130 C   0  0  0  0  0  0  0  0  0  0  0  0
   40.9010   34.7500   40.0740 C   0  0  0  0  0  0  0  0  0  0  0  0
   42.1210   35.3270   39.7160 C   0  0  0  0  0  0  0  0  0  0  0  0
   43.2950   34.6980   40.1270 C   0  0  0  0  0  0  0  0  0  0  0  0
   43.1640   33.5420   40.8650 C   0  0  0  0  0  0  0  0  0  0  0  0
   45.9675   35.8638   41.4815 H   0  0  0  0  0  0  0  0  0  0  0  0
   44.7374   36.5489   42.8839 H   0  0  0  0  0  0  0  0  0  0  0  0
   43.7377   36.5383   45.1794 H   0  0  0  0  0  0  0  0  0  0  0  0
   46.0979   33.0978   46.1081 H   0  0  0  0  0  0  0  0  0  0  0  0
   48.3658   35.1546   42.8898 H   0  0  0  0  0  0  0  0  0  0  0  0
   48.4254   34.2580   41.3344 H   0  0  0  0  0  0  0  0  0  0  0  0
   48.2460   36.0453   41.3344 H   0  0  0  0  0  0  0  0  0  0  0  0
   45.3021   31.3183   42.3039 H   0  0  0  0  0  0  0  0  0  0  0  0
   43.1137   30.2869   42.9439 H   0  0  0  0  0  0  0  0  0  0  0  0
   40.9778   31.3364   42.2564 H   0  0  0  0  0  0  0  0  0  0  0  0
   39.8091   33.1755   41.0709 H   0  0  0  0  0  0  0  0  0  0  0  0
   39.9751   35.2468   39.7484 H   0  0  0  0  0  0  0  0  0  0  0  0
   42.1548   36.2540   39.1249 H   0  0  0  0  0  0  0  0  0  0  0  0
   44.2840   35.1071   39.8729 H   0  0  0  0  0  0  0  0  0  0  0  0
  1  2  1  0
  2  3  2  0
  2  7  1  0
  3  4  1  0
  4  5  2  0
  6  5  1  0
  7  6  2  0
  8  1  1  0
  9 10  1  0
  9  1  1  0
 10 11  2  0
 11 12  1  0
 13 12  2  0
 14 13  1  0
 15 14  2  0
 16 15  1  0
 17 16  2  0
 17 18  1  0
 18 19  2  0
 19 14  1  0
 19 10  1  0
  1 20  1  6
  3 21  1  0
  4 22  1  0
  6 23  1  0
  8 24  1  0
  8 25  1  0
  8 26  1  0
 11 27  1  0
 12 28  1  0
 13 29  1  0
 15 30  1  0
 16 31  1  0
 17 32  1  0
 18 33  1  0
M  ISO  8  20   8  21  14  22  14  23  14  24   8  25   8  26   8  27  14
M  ISO  6  28  14  29  14  30  14  31  14  32  14  33  14
M  END
>  <minimizedAffinity>  (1) 
-5.04541779

>  <minimizedRMSD>  (1) 
2.67444444

$$$$
