
     RDKit          3D

 26 27  0  0  1  0  0  0  0  0999 V2000
   46.7990   34.6810   41.6960 C   0  0  1  0  0  0  0  0  0  0  0  0
   46.1740   34.7290   43.0260 C   0  0  0  0  0  0  0  0  0  0  0  0
   45.3160   35.8470   43.1540 C   0  0  0  0  0  0  0  0  0  0  0  0
   44.6280   36.0410   44.3400 C   0  0  0  0  0  0  0  0  0  0  0  0
   44.8090   35.1430   45.3350 N   0  0  0  0  0  0  0  0  0  0  0  0
   45.6440   34.0700   45.1900 C   0  0  0  0  0  0  0  0  0  0  0  0
   46.3110   33.8950   44.0180 N   0  0  0  0  0  0  0  0  0  0  0  0
   48.1630   35.3930   41.7360 C   0  0  0  0  0  0  0  0  0  0  0  0
   47.0470   32.9780   41.1850 S   0  0  0  0  0  0  0  0  0  0  0  0
   48.7610   32.5090   41.1850 C   0  0  0  0  0  0  0  0  0  0  0  0
   49.5450   32.4570   42.3070 C   0  0  0  0  0  0  0  0  0  0  0  0
   50.8820   32.0810   42.3100 C   0  0  0  0  0  0  0  0  0  0  0  0
   51.4310   31.7440   41.0850 C   0  0  0  0  0  0  0  0  0  0  0  0
   50.6320   31.7970   39.9480 C   0  0  0  0  0  0  0  0  0  0  0  0
   49.3300   32.1730   40.0130 N   0  0  0  0  0  0  0  0  0  0  0  0
   46.1338   35.1843   40.9790 H   0  0  0  0  0  0  0  0  0  0  0  0
   45.1968   36.5545   42.3202 H   0  0  0  0  0  0  0  0  0  0  0  0
   43.9538   36.9005   44.4691 H   0  0  0  0  0  0  0  0  0  0  0  0
   45.7751   33.3541   46.0148 H   0  0  0  0  0  0  0  0  0  0  0  0
   48.4640   35.5501   42.7823 H   0  0  0  0  0  0  0  0  0  0  0  0
   48.9155   34.7727   41.2272 H   0  0  0  0  0  0  0  0  0  0  0  0
   48.0843   36.3651   41.2272 H   0  0  0  0  0  0  0  0  0  0  0  0
   49.0858   32.7309   43.2683 H   0  0  0  0  0  0  0  0  0  0  0  0
   51.4734   32.0525   43.2371 H   0  0  0  0  0  0  0  0  0  0  0  0
   52.4851   31.4384   41.0117 H   0  0  0  0  0  0  0  0  0  0  0  0
   51.0656   31.5279   38.9735 H   0  0  0  0  0  0  0  0  0  0  0  0
  1  8  1  0
  1  2  1  0
  2  3  2  0
  2  7  1  0
  3  4  1  0
  4  5  2  0
  6  5  1  0
  7  6  2  0
  9  1  1  0
 10  9  1  0
 10 11  2  0
 11 12  1  0
 13 12  2  0
 14 15  2  0
 14 13  1  0
 15 10  1  0
  1 16  1  6
  3 17  1  0
  4 18  1  0
  6 19  1  0
  8 20  1  0
  8 21  1  0
  8 22  1  0
 11 23  1  0
 12 24  1  0
 13 25  1  0
 14 26  1  0
M  ISO  8  16   8  17  14  18  14  19  14  20   8  21   8  22   8  23  14
M  ISO  3  24  14  25  14  26  14
M  END
>  <minimizedAffinity>  (1) 
-4.24670649

>  <minimizedRMSD>  (1) 
1.28219271

$$$$
