
     RDKit          3D

 27 28  0  0  1  0  0  0  0  0999 V2000
   46.8890   34.7140   41.7040 C   0  0  1  0  0  0  0  0  0  0  0  0
   46.2360   34.7340   43.0230 C   0  0  0  0  0  0  0  0  0  0  0  0
   45.3460   35.8330   43.1560 C   0  0  0  0  0  0  0  0  0  0  0  0
   44.6330   35.9940   44.3340 C   0  0  0  0  0  0  0  0  0  0  0  0
   44.8130   35.0900   45.3220 N   0  0  0  0  0  0  0  0  0  0  0  0
   45.6690   34.0520   45.1710 C   0  0  0  0  0  0  0  0  0  0  0  0
   46.3550   33.9060   44.0230 N   0  0  0  0  0  0  0  0  0  0  0  0
   48.2020   35.5100   41.7750 C   0  0  0  0  0  0  0  0  0  0  0  0
   47.2330   33.0320   41.2110 S   0  0  0  0  0  0  0  0  0  0  0  0
   48.9200   32.5370   41.2530 C   0  0  0  0  0  0  0  0  0  0  0  0
   49.3390   32.0800   39.9940 C   0  0  0  0  0  0  0  0  0  0  0  0
   50.6610   31.6460   39.8230 C   0  0  0  0  0  0  0  0  0  0  0  0
   51.5780   31.6470   40.8320 C   0  0  0  0  0  0  0  0  0  0  0  0
   51.1430   32.1010   42.0600 C   0  0  0  0  0  0  0  0  0  0  0  0
   49.8670   32.5260   42.2510 C   0  0  0  0  0  0  0  0  0  0  0  0
   46.2174   35.1707   40.9621 H   0  0  0  0  0  0  0  0  0  0  0  0
   45.2235   36.5504   42.3312 H   0  0  0  0  0  0  0  0  0  0  0  0
   43.9378   36.8369   44.4612 H   0  0  0  0  0  0  0  0  0  0  0  0
   45.8037   33.3275   45.9876 H   0  0  0  0  0  0  0  0  0  0  0  0
   48.4742   35.6750   42.8279 H   0  0  0  0  0  0  0  0  0  0  0  0
   49.0013   34.9443   41.2739 H   0  0  0  0  0  0  0  0  0  0  0  0
   48.0701   36.4803   41.2739 H   0  0  0  0  0  0  0  0  0  0  0  0
   48.6358   32.0625   39.1483 H   0  0  0  0  0  0  0  0  0  0  0  0
   50.9724   31.2887   38.8304 H   0  0  0  0  0  0  0  0  0  0  0  0
   52.6112   31.3036   40.6751 H   0  0  0  0  0  0  0  0  0  0  0  0
   51.8467   32.1193   42.9052 H   0  0  0  0  0  0  0  0  0  0  0  0
   49.5769   32.8783   43.2518 H   0  0  0  0  0  0  0  0  0  0  0  0
  1  8  1  0
  1  2  1  0
  2  3  2  0
  2  7  1  0
  3  4  1  0
  4  5  2  0
  6  5  1  0
  7  6  2  0
  9 10  1  0
  9  1  1  0
 10 15  1  0
 11 10  2  0
 12 11  1  0
 12 13  2  0
 13 14  1  0
 14 15  2  0
  1 16  1  6
  3 17  1  0
  4 18  1  0
  6 19  1  0
  8 20  1  0
  8 21  1  0
  8 22  1  0
 11 23  1  0
 12 24  1  0
 13 25  1  0
 14 26  1  0
 15 27  1  0
M  ISO  8  16   8  17  14  18  14  19  14  20   8  21   8  22   8  23  14
M  ISO  4  24  14  25  14  26  14  27  14
M  END
>  <minimizedAffinity>  (1) 
-4.26075411

>  <minimizedRMSD>  (1) 
1.14800119

$$$$
