
     RDKit          3D

 29 29  0  0  1  0  0  0  0  0999 V2000
   47.8090   34.8560   41.3230 C   0  0  1  0  0  0  0  0  0  0  0  0
   47.1130   34.5540   42.5800 C   0  0  0  0  0  0  0  0  0  0  0  0
   45.9480   35.3530   42.7350 C   0  0  0  0  0  0  0  0  0  0  0  0
   45.1640   35.2010   43.8600 C   0  0  0  0  0  0  0  0  0  0  0  0
   45.5440   34.2750   44.7920 N   0  0  0  0  0  0  0  0  0  0  0  0
   46.6540   33.5320   44.6160 C   0  0  0  0  0  0  0  0  0  0  0  0
   47.4260   33.6850   43.5050 N   0  0  0  0  0  0  0  0  0  0  0  0
   48.9810   35.8150   41.6100 C   0  0  0  0  0  0  0  0  0  0  0  0
   48.4280   33.3470   40.5840 S   0  0  0  0  0  0  0  0  0  0  0  0
   48.2060   33.2060   38.8340 C   0  0  0  0  0  0  0  0  0  0  0  0
   46.8330   32.6340   38.4490 C   0  0  0  0  0  0  0  0  0  0  0  0
   49.2080   32.1890   38.3160 C   0  0  0  0  0  0  0  0  0  0  0  0
   48.3790   34.4520   38.0270 C   0  0  0  0  0  0  0  0  0  0  0  0
   47.1058   35.3302   40.6225 H   0  0  0  0  0  0  0  0  0  0  0  0
   45.6733   36.0874   41.9635 H   0  0  0  0  0  0  0  0  0  0  0  0
   44.2580   35.8080   44.0035 H   0  0  0  0  0  0  0  0  0  0  0  0
   46.9400   32.7930   45.3790 H   0  0  0  0  0  0  0  0  0  0  0  0
   49.1104   35.9208   42.6972 H   0  0  0  0  0  0  0  0  0  0  0  0
   49.9033   35.4092   41.1688 H   0  0  0  0  0  0  0  0  0  0  0  0
   48.7658   36.7994   41.1688 H   0  0  0  0  0  0  0  0  0  0  0  0
   46.2654   32.3976   39.3611 H   0  0  0  0  0  0  0  0  0  0  0  0
   46.2799   33.3765   37.8551 H   0  0  0  0  0  0  0  0  0  0  0  0
   46.9707   31.7184   37.8551 H   0  0  0  0  0  0  0  0  0  0  0  0
   49.6982   31.6915   39.1658 H   0  0  0  0  0  0  0  0  0  0  0  0
   48.6860   31.4391   37.7035 H   0  0  0  0  0  0  0  0  0  0  0  0
   49.9656   32.6998   37.7035 H   0  0  0  0  0  0  0  0  0  0  0  0
   48.4985   35.3124   38.7019 H   0  0  0  0  0  0  0  0  0  0  0  0
   49.2725   34.3568   37.3926 H   0  0  0  0  0  0  0  0  0  0  0  0
   47.4933   34.6039   37.3926 H   0  0  0  0  0  0  0  0  0  0  0  0
  1  8  1  0
  1  2  1  0
  2  3  2  0
  2  7  1  0
  3  4  1  0
  4  5  2  0
  6  5  1  0
  7  6  2  0
  9  1  1  0
 10  9  1  0
 11 10  1  0
 12 10  1  0
 13 10  1  0
  1 14  1  6
  3 15  1  0
  4 16  1  0
  6 17  1  0
  8 18  1  0
  8 19  1  0
  8 20  1  0
 11 21  1  0
 11 22  1  0
 11 23  1  0
 12 24  1  0
 12 25  1  0
 12 26  1  0
 13 27  1  0
 13 28  1  0
 13 29  1  0
M  ISO  8  14   8  15  14  16  14  17  14  18   8  19   8  20   8  21   8
M  ISO  8  22   8  23   8  24   8  25   8  26   8  27   8  28   8  29   8
M  END
>  <minimizedAffinity>  (1) 
-3.80014324

>  <minimizedRMSD>  (1) 
0.859072745

$$$$
