
     RDKit          3D

 43 47  0  0  1  0  0  0  0  0999 V2000
   45.7990   32.8320   36.5110 C   0  0  2  0  0  0  0  0  0  0  0  0
   46.3150   31.6400   35.6830 C   0  0  0  0  0  0  0  0  0  0  0  0
   47.0400   32.0830   36.9380 C   0  0  1  0  0  0  0  0  0  0  0  0
   42.7980   33.0260   38.5320 N   0  0  0  0  0  0  0  0  0  0  0  0
   42.7240   31.7210   38.1160 C   0  0  0  0  0  0  0  0  0  0  0  0
   43.7690   31.4360   37.3370 N   0  0  0  0  0  0  0  0  0  0  0  0
   44.5230   32.5860   37.2590 C   0  0  0  0  0  0  0  0  0  0  0  0
   43.8830   33.4750   37.9900 N   0  0  0  0  0  0  0  0  0  0  0  0
   41.4910   33.1450   40.5560 C   0  0  0  0  0  0  0  0  0  0  0  0
   41.9390   33.7900   39.3570 C   0  0  0  0  0  0  0  0  0  0  0  0
   41.5150   35.0560   39.1120 C   0  0  0  0  0  0  0  0  0  0  0  0
   40.6830   35.6260   40.0340 N   0  0  0  0  0  0  0  0  0  0  0  0
   40.2770   35.0060   41.1450 C   0  0  0  0  0  0  0  0  0  0  0  0
   40.6910   33.7530   41.4010 N   0  0  0  0  0  0  0  0  0  0  0  0
   48.2960   32.8000   36.8910 C   0  0  0  0  0  0  0  0  0  0  0  0
   48.7150   33.1880   35.7540 O   0  0  0  0  0  0  0  0  0  0  0  0
   49.0280   33.0730   38.0260 O   0  0  0  0  0  0  0  0  0  0  0  0
   47.8440   32.5830   41.2710 N   0  0  0  0  0  0  0  0  0  0  0  0
   48.6130   32.2550   40.2170 N   0  0  0  0  0  0  0  0  0  0  0  0
   48.3750   33.1590   39.2370 C   0  0  0  0  0  0  0  0  0  0  0  0
   47.4480   34.0730   39.6600 C   0  0  0  0  0  0  0  0  0  0  0  0
   47.1310   33.6770   40.9600 C   0  0  0  0  0  0  0  0  0  0  0  0
   46.1580   34.3860   41.8150 C   0  0  0  0  0  0  0  0  0  0  0  0
   46.4390   34.6520   43.1430 C   0  0  0  0  0  0  0  0  0  0  0  0
   45.4440   35.3190   43.8260 C   0  0  0  0  0  0  0  0  0  0  0  0
   44.2340   35.7390   43.3450 C   0  0  0  0  0  0  0  0  0  0  0  0
   44.0150   35.4410   42.0010 C   0  0  0  0  0  0  0  0  0  0  0  0
   44.9580   34.7750   41.2430 C   0  0  0  0  0  0  0  0  0  0  0  0
   45.5730   33.8933   36.3304 H   0  0  0  0  0  0  0  0  0  0  0  0
   45.7572   30.6920   35.6732 H   0  0  0  0  0  0  0  0  0  0  0  0
   46.5969   31.4817   34.6316 H   0  0  0  0  0  0  0  0  0  0  0  0
   47.3773   31.5369   37.8313 H   0  0  0  0  0  0  0  0  0  0  0  0
   41.9236   31.0157   38.3843 H   0  0  0  0  0  0  0  0  0  0  0  0
   41.8243   32.1194   40.7727 H   0  0  0  0  0  0  0  0  0  0  0  0
   41.8281   35.6004   38.2089 H   0  0  0  0  0  0  0  0  0  0  0  0
   39.6055   35.5194   41.8489 H   0  0  0  0  0  0  0  0  0  0  0  0
   47.8082   32.0782   42.1681 H   0  0  0  0  0  0  0  0  0  0  0  0
   47.0432   34.9289   39.1000 H   0  0  0  0  0  0  0  0  0  0  0  0
   47.3851   34.3539   43.6185 H   0  0  0  0  0  0  0  0  0  0  0  0
   45.6474   35.5398   44.8842 H   0  0  0  0  0  0  0  0  0  0  0  0
   43.4961   36.2674   43.9665 H   0  0  0  0  0  0  0  0  0  0  0  0
   43.0671   35.7440   41.5323 H   0  0  0  0  0  0  0  0  0  0  0  0
   44.7560   34.5534   40.1847 H   0  0  0  0  0  0  0  0  0  0  0  0
  1  3  1  0
  1  7  1  0
  2  1  1  0
  2  3  1  0
  4 10  1  0
  5  4  1  0
  6  5  2  0
  7  6  1  0
  7  8  2  0
  8  4  1  0
  9 14  2  0
 10  9  1  0
 11 10  2  0
 11 12  1  0
 12 13  2  0
 13 14  1  0
 15  3  1  0
 15 17  1  0
 16 15  2  0
 17 20  1  0
 19 18  1  0
 20 21  1  0
 20 19  2  0
 21 22  2  0
 22 18  1  0
 22 23  1  0
 23 24  2  0
 24 25  1  0
 26 25  2  0
 27 26  1  0
 28 23  1  0
 28 27  2  0
  1 29  1  6
  2 30  1  0
  2 31  1  0
  3 32  1  1
  5 33  1  0
  9 34  1  0
 11 35  1  0
 13 36  1  0
 18 37  1  0
 21 38  1  0
 24 39  1  0
 25 40  1  0
 26 41  1  0
 27 42  1  0
 28 43  1  0
M  ISO  8  29  13  30  13  31  13  32  13  33  14  34  14  35  14  36  14
M  ISO  7  37   9  38  14  39  14  40  14  41  14  42  14  43  14
M  END
>  <minimizedAffinity>  (1) 
-5.32599449

>  <minimizedRMSD>  (1) 
6.0063796

$$$$
