
     RDKit          3D

 22 23  0  0  1  0  0  0  0  0999 V2000
   46.8390   34.6960   41.7420 C   0  0  1  0  0  0  0  0  0  0  0  0
   46.2000   34.7400   43.0510 C   0  0  0  0  0  0  0  0  0  0  0  0
   45.3300   35.8580   43.1610 C   0  0  0  0  0  0  0  0  0  0  0  0
   44.6190   36.0530   44.3330 C   0  0  0  0  0  0  0  0  0  0  0  0
   44.7830   35.1560   45.3470 N   0  0  0  0  0  0  0  0  0  0  0  0
   45.6310   34.0910   45.2070 C   0  0  0  0  0  0  0  0  0  0  0  0
   46.3160   33.9160   44.0560 N   0  0  0  0  0  0  0  0  0  0  0  0
   48.1940   35.4330   41.7830 C   0  0  0  0  0  0  0  0  0  0  0  0
   47.1260   32.9970   41.2300 S   0  0  0  0  0  0  0  0  0  0  0  0
   48.8350   32.5230   41.4140 C   0  0  0  0  0  0  0  0  0  0  0  0
   49.6310   32.2970   40.3300 N   0  0  0  0  0  0  0  0  0  0  0  0
   50.8170   31.9760   40.7290 O   0  0  0  0  0  0  0  0  0  0  0  0
   50.8600   31.9750   42.0350 C   0  0  0  0  0  0  0  0  0  0  0  0
   49.6220   32.3160   42.4640 N   0  0  0  0  0  0  0  0  0  0  0  0
   46.1662   35.1870   41.0235 H   0  0  0  0  0  0  0  0  0  0  0  0
   45.2223   36.5621   42.3228 H   0  0  0  0  0  0  0  0  0  0  0  0
   43.9387   36.9103   44.4435 H   0  0  0  0  0  0  0  0  0  0  0  0
   45.7551   33.3759   46.0336 H   0  0  0  0  0  0  0  0  0  0  0  0
   48.4918   35.5950   42.8295 H   0  0  0  0  0  0  0  0  0  0  0  0
   48.9572   34.8257   41.2744 H   0  0  0  0  0  0  0  0  0  0  0  0
   48.0990   36.4037   41.2744 H   0  0  0  0  0  0  0  0  0  0  0  0
   51.7323   31.7424   42.6635 H   0  0  0  0  0  0  0  0  0  0  0  0
  1  8  1  0
  1  2  1  0
  2  3  2  0
  2  7  1  0
  3  4  1  0
  4  5  2  0
  6  5  1  0
  7  6  2  0
  9 10  1  0
  9  1  1  0
 10 14  1  0
 11 12  1  0
 11 10  2  0
 12 13  1  0
 13 14  2  0
  1 15  1  6
  3 16  1  0
  4 17  1  0
  6 18  1  0
  8 19  1  0
  8 20  1  0
  8 21  1  0
 13 22  1  0
M  ISO  8  15   8  16  14  17  14  18  14  19   8  20   8  21   8  22  14
M  END
>  <minimizedAffinity>  (1) 
-3.99007726

>  <minimizedRMSD>  (1) 
1.12091923

$$$$
