
     RDKit          3D

 42 45  0  0  1  0  0  0  0  0999 V2000
   49.4130   33.4900   37.0310 N   0  0  0  0  0  0  0  0  0  0  0  0
   48.3020   34.2390   37.0920 C   0  0  0  0  0  0  0  0  0  0  0  0
   47.7000   34.0030   38.2670 N   0  0  0  0  0  0  0  0  0  0  0  0
   48.4200   33.1050   38.9650 C   0  0  0  0  0  0  0  0  0  0  0  0
   48.2630   32.5160   40.2100 C   0  0  0  0  0  0  0  0  0  0  0  0
   49.2310   31.6450   40.5480 N   0  0  0  0  0  0  0  0  0  0  0  0
   50.2730   31.3300   39.7990 C   0  0  0  0  0  0  0  0  0  0  0  0
   50.4420   31.8870   38.5970 N   0  0  0  0  0  0  0  0  0  0  0  0
   49.5110   32.7870   38.1610 C   0  0  0  0  0  0  0  0  0  0  0  0
   51.2280   30.3890   40.2800 N   0  0  0  0  0  0  0  0  0  0  0  0
   51.1180   29.7400   41.5720 C   0  0  0  0  0  0  0  0  0  0  0  0
   52.5400   29.3340   41.9460 C   0  0  0  0  0  0  0  0  0  0  0  0
   53.5060   30.3220   41.5810 N   0  0  0  0  0  0  0  0  0  0  0  0
   53.5620   30.6680   40.1990 C   0  0  0  0  0  0  0  0  0  0  0  0
   52.3840   30.0240   39.4800 C   0  0  0  0  0  0  0  0  0  0  0  0
   46.8640   32.9220   41.2410 S   0  0  0  0  0  0  0  0  0  0  0  0
   46.9100   34.6040   41.8430 C   0  0  1  0  0  0  0  0  0  0  0  0
   46.1890   34.7300   43.1220 C   0  0  0  0  0  0  0  0  0  0  0  0
   45.3510   35.8700   43.1530 C   0  0  0  0  0  0  0  0  0  0  0  0
   44.6100   36.0990   44.3160 C   0  0  0  0  0  0  0  0  0  0  0  0
   44.7270   35.2210   45.3610 N   0  0  0  0  0  0  0  0  0  0  0  0
   45.5360   34.1540   45.2810 C   0  0  0  0  0  0  0  0  0  0  0  0
   46.2620   33.9280   44.1440 N   0  0  0  0  0  0  0  0  0  0  0  0
   48.3780   35.0730   42.0250 C   0  0  0  0  0  0  0  0  0  0  0  0
   50.0780   33.4622   36.2449 H   0  0  0  0  0  0  0  0  0  0  0  0
   47.9458   34.9284   36.3123 H   0  0  0  0  0  0  0  0  0  0  0  0
   50.7080   30.4363   42.3184 H   0  0  0  0  0  0  0  0  0  0  0  0
   50.4417   28.8732   41.5372 H   0  0  0  0  0  0  0  0  0  0  0  0
   52.5879   29.1791   43.0340 H   0  0  0  0  0  0  0  0  0  0  0  0
   52.7801   28.4128   41.3949 H   0  0  0  0  0  0  0  0  0  0  0  0
   53.2942   31.1793   42.1112 H   0  0  0  0  0  0  0  0  0  0  0  0
   53.5081   31.7612   40.0898 H   0  0  0  0  0  0  0  0  0  0  0  0
   54.5058   30.3084   39.7632 H   0  0  0  0  0  0  0  0  0  0  0  0
   52.2896   30.4182   38.4574 H   0  0  0  0  0  0  0  0  0  0  0  0
   52.4982   28.9344   39.3816 H   0  0  0  0  0  0  0  0  0  0  0  0
   46.4137   35.2414   41.0964 H   0  0  0  0  0  0  0  0  0  0  0  0
   45.2851   36.5518   42.2923 H   0  0  0  0  0  0  0  0  0  0  0  0
   43.9433   36.9707   44.3909 H   0  0  0  0  0  0  0  0  0  0  0  0
   45.6156   33.4600   46.1307 H   0  0  0  0  0  0  0  0  0  0  0  0
   48.6090   35.1468   43.0979 H   0  0  0  0  0  0  0  0  0  0  0  0
   49.0561   34.3468   41.5530 H   0  0  0  0  0  0  0  0  0  0  0  0
   48.5095   36.0579   41.5530 H   0  0  0  0  0  0  0  0  0  0  0  0
  1  2  1  0
  1  9  1  0
  2  3  2  0
  3  4  1  0
  4  5  2  0
  5  6  1  0
  5 16  1  0
  7 10  1  0
  7  6  2  0
  8  7  1  0
  9  8  2  0
  9  4  1  0
 10 11  1  0
 11 12  1  0
 13 12  1  0
 14 13  1  0
 15 14  1  0
 15 10  1  0
 16 17  1  0
 17 24  1  0
 17 18  1  0
 18 19  2  0
 18 23  1  0
 19 20  1  0
 20 21  2  0
 22 21  1  0
 23 22  2  0
  1 25  1  0
  2 26  1  0
 11 27  1  0
 11 28  1  0
 12 29  1  0
 12 30  1  0
 13 31  1  0
 14 32  1  0
 14 33  1  0
 15 34  1  0
 15 35  1  0
 17 36  1  6
 19 37  1  0
 20 38  1  0
 22 39  1  0
 24 40  1  0
 24 41  1  0
 24 42  1  0
M  ISO  8  25   9  26  14  27  13  28  13  29  13  30  13  31   5  32  13
M  ISO  8  33  13  34  13  35  13  36   8  37  14  38  14  39  14  40   8
M  ISO  2  41   8  42   8
M  END
>  <minimizedAffinity>  (1) 
-5.68921423

>  <minimizedRMSD>  (1) 
0.598815739

$$$$
