
     RDKit          3D

 44 47  0  0  1  0  0  0  0  0999 V2000
   49.6510   33.0730   37.1780 N   0  0  0  0  0  0  0  0  0  0  0  0
   48.6280   33.9010   36.8810 C   0  0  0  0  0  0  0  0  0  0  0  0
   47.8010   33.9520   37.9400 N   0  0  0  0  0  0  0  0  0  0  0  0
   48.2890   33.1600   38.9200 C   0  0  0  0  0  0  0  0  0  0  0  0
   47.8450   32.8550   40.1930 C   0  0  0  0  0  0  0  0  0  0  0  0
   48.6390   32.0000   40.8720 N   0  0  0  0  0  0  0  0  0  0  0  0
   49.7550   31.4690   40.4140 C   0  0  0  0  0  0  0  0  0  0  0  0
   50.2040   31.7570   39.1710 N   0  0  0  0  0  0  0  0  0  0  0  0
   49.4670   32.6120   38.4080 C   0  0  0  0  0  0  0  0  0  0  0  0
   50.5360   30.5390   41.2740 C   0  0  0  0  0  0  0  0  0  0  0  0
   52.0110   30.8600   41.0080 C   0  0  0  0  0  0  0  0  0  0  0  0
   52.7990   29.6910   41.5540 C   0  0  0  0  0  0  0  0  0  0  0  0
   52.5900   29.6810   43.0500 C   0  0  0  0  0  0  0  0  0  0  0  0
   51.1360   29.6470   43.4290 C   0  0  0  0  0  0  0  0  0  0  0  0
   50.3140   30.7230   42.7390 C   0  0  0  0  0  0  0  0  0  0  0  0
   46.3440   33.5690   40.8240 S   0  0  0  0  0  0  0  0  0  0  0  0
   46.6350   35.0370   41.8160 C   0  0  1  0  0  0  0  0  0  0  0  0
   46.0580   34.9080   43.1550 C   0  0  0  0  0  0  0  0  0  0  0  0
   45.1340   35.9220   43.4590 C   0  0  0  0  0  0  0  0  0  0  0  0
   44.5160   35.9060   44.7040 C   0  0  0  0  0  0  0  0  0  0  0  0
   44.8330   34.8980   45.5850 N   0  0  0  0  0  0  0  0  0  0  0  0
   45.7230   33.9470   45.2540 C   0  0  0  0  0  0  0  0  0  0  0  0
   46.3220   33.9760   44.0260 N   0  0  0  0  0  0  0  0  0  0  0  0
   48.1580   35.3240   41.9170 C   0  0  0  0  0  0  0  0  0  0  0  0
   50.4387   32.8393   36.5569 H   0  0  0  0  0  0  0  0  0  0  0  0
   48.4933   34.4426   35.9331 H   0  0  0  0  0  0  0  0  0  0  0  0
   50.2265   29.5126   41.0278 H   0  0  0  0  0  0  0  0  0  0  0  0
   52.1892   30.9696   39.9281 H   0  0  0  0  0  0  0  0  0  0  0  0
   52.3095   31.8046   41.4862 H   0  0  0  0  0  0  0  0  0  0  0  0
   52.4341   28.7508   41.1148 H   0  0  0  0  0  0  0  0  0  0  0  0
   53.8665   29.7859   41.3063 H   0  0  0  0  0  0  0  0  0  0  0  0
   53.0844   28.7922   43.4691 H   0  0  0  0  0  0  0  0  0  0  0  0
   53.0182   30.6106   43.4530 H   0  0  0  0  0  0  0  0  0  0  0  0
   50.7259   28.6638   43.1551 H   0  0  0  0  0  0  0  0  0  0  0  0
   51.0752   29.8320   44.5116 H   0  0  0  0  0  0  0  0  0  0  0  0
   50.6514   31.7216   43.0537 H   0  0  0  0  0  0  0  0  0  0  0  0
   49.2478   30.6411   42.9970 H   0  0  0  0  0  0  0  0  0  0  0  0
   46.1381   35.8812   41.3156 H   0  0  0  0  0  0  0  0  0  0  0  0
   44.9047   36.7112   42.7278 H   0  0  0  0  0  0  0  0  0  0  0  0
   43.7882   36.6836   44.9792 H   0  0  0  0  0  0  0  0  0  0  0  0
   45.9685   33.1480   45.9691 H   0  0  0  0  0  0  0  0  0  0  0  0
   48.4513   35.3793   42.9757 H   0  0  0  0  0  0  0  0  0  0  0  0
   48.7170   34.5154   41.4234 H   0  0  0  0  0  0  0  0  0  0  0  0
   48.3844   36.2806   41.4234 H   0  0  0  0  0  0  0  0  0  0  0  0
  1  9  1  0
  2  1  1  0
  2  3  2  0
  3  4  1  0
  4  5  1  0
  5 16  1  0
  5  6  2  0
  7  6  1  0
  7 10  1  0
  8  7  2  0
  9  4  2  0
  9  8  1  0
 10 15  1  0
 11 10  1  0
 11 12  1  0
 12 13  1  0
 13 14  1  0
 15 14  1  0
 16 17  1  0
 17 24  1  0
 17 18  1  0
 18 19  2  0
 18 23  1  0
 19 20  1  0
 20 21  2  0
 22 21  1  0
 23 22  2  0
  1 25  1  0
  2 26  1  0
 10 27  1  0
 11 28  1  0
 11 29  1  0
 12 30  1  0
 12 31  1  0
 13 32  1  0
 13 33  1  0
 14 34  1  0
 14 35  1  0
 15 36  1  0
 15 37  1  0
 17 38  1  6
 19 39  1  0
 20 40  1  0
 22 41  1  0
 24 42  1  0
 24 43  1  0
 24 44  1  0
M  ISO  8  25   9  26  14  27  13  28  13  29  13  30  13  31  13  32  13
M  ISO  8  33  13  34  13  35  13  36  13  37  13  38   8  39  14  40  14
M  ISO  4  41  14  42   8  43   8  44   8
M  END
>  <minimizedAffinity>  (1) 
-5.34229326

>  <minimizedRMSD>  (1) 
0.504815996

$$$$
