
     RDKit          3D

 35 38  0  0  1  0  0  0  0  0999 V2000
   49.5900   33.1150   37.0560 N   0  0  0  0  0  0  0  0  0  0  0  0
   48.4140   33.7290   36.8740 C   0  0  0  0  0  0  0  0  0  0  0  0
   47.7200   33.6620   38.0310 N   0  0  0  0  0  0  0  0  0  0  0  0
   48.4630   33.0030   38.9410 C   0  0  0  0  0  0  0  0  0  0  0  0
   48.2340   32.6570   40.2710 C   0  0  0  0  0  0  0  0  0  0  0  0
   49.2380   31.9920   40.8390 N   0  0  0  0  0  0  0  0  0  0  0  0
   50.3850   31.6450   40.2770 C   0  0  0  0  0  0  0  0  0  0  0  0
   50.6070   31.9790   38.9910 N   0  0  0  0  0  0  0  0  0  0  0  0
   49.6420   32.6630   38.3120 C   0  0  0  0  0  0  0  0  0  0  0  0
   51.3980   30.9110   41.0370 C   0  0  0  0  0  0  0  0  0  0  0  0
   51.3720   30.0710   42.1470 C   0  0  0  0  0  0  0  0  0  0  0  0
   52.6600   29.6620   42.4230 C   0  0  0  0  0  0  0  0  0  0  0  0
   53.4430   30.2480   41.4930 N   0  0  0  0  0  0  0  0  0  0  0  0
   52.7120   30.9840   40.6730 N   0  0  0  0  0  0  0  0  0  0  0  0
   46.6940   33.1090   41.0720 S   0  0  0  0  0  0  0  0  0  0  0  0
   46.7360   34.7560   41.7600 C   0  0  1  0  0  0  0  0  0  0  0  0
   46.0960   34.7930   43.0880 C   0  0  0  0  0  0  0  0  0  0  0  0
   45.2320   35.8950   43.2470 C   0  0  0  0  0  0  0  0  0  0  0  0
   44.5590   36.0510   44.4560 C   0  0  0  0  0  0  0  0  0  0  0  0
   44.7680   35.1250   45.4340 N   0  0  0  0  0  0  0  0  0  0  0  0
   45.6060   34.0760   45.2500 C   0  0  0  0  0  0  0  0  0  0  0  0
   46.2580   33.9390   44.0580 N   0  0  0  0  0  0  0  0  0  0  0  0
   48.2000   35.2640   41.8780 C   0  0  0  0  0  0  0  0  0  0  0  0
   50.3297   33.0091   36.3471 H   0  0  0  0  0  0  0  0  0  0  0  0
   48.0722   34.2055   35.9433 H   0  0  0  0  0  0  0  0  0  0  0  0
   50.4729   29.7814   42.7107 H   0  0  0  0  0  0  0  0  0  0  0  0
   52.9831   28.9944   43.2354 H   0  0  0  0  0  0  0  0  0  0  0  0
   54.4652   30.1376   41.4308 H   0  0  0  0  0  0  0  0  0  0  0  0
   46.1772   35.4140   41.0782 H   0  0  0  0  0  0  0  0  0  0  0  0
   45.0918   36.6189   42.4307 H   0  0  0  0  0  0  0  0  0  0  0  0
   43.8770   36.8988   44.6174 H   0  0  0  0  0  0  0  0  0  0  0  0
   45.7597   33.3412   46.0540 H   0  0  0  0  0  0  0  0  0  0  0  0
   48.4710   35.3580   42.9399 H   0  0  0  0  0  0  0  0  0  0  0  0
   48.8770   34.5482   41.3888 H   0  0  0  0  0  0  0  0  0  0  0  0
   48.2882   36.2453   41.3888 H   0  0  0  0  0  0  0  0  0  0  0  0
  1  9  1  0
  2  1  1  0
  2  3  2  0
  3  4  1  0
  4  5  1  0
  5  6  2  0
  5 15  1  0
  7  6  1  0
  7 10  1  0
  8  7  2  0
  9  4  2  0
  9  8  1  0
 10 11  1  0
 11 12  2  0
 13 12  1  0
 14 10  2  0
 14 13  1  0
 15 16  1  0
 16 23  1  0
 16 17  1  0
 17 18  2  0
 17 22  1  0
 18 19  1  0
 19 20  2  0
 21 20  1  0
 22 21  2  0
  1 24  1  0
  2 25  1  0
 11 26  1  0
 12 27  1  0
 13 28  1  0
 16 29  1  6
 18 30  1  0
 19 31  1  0
 21 32  1  0
 23 33  1  0
 23 34  1  0
 23 35  1  0
M  ISO  8  24   9  25  14  26  14  27  14  28   9  29   8  30  14  31  14
M  ISO  4  32  14  33   8  34   8  35   8
M  END
>  <minimizedAffinity>  (1) 
-5.22500992

>  <minimizedRMSD>  (1) 
0.759857893

$$$$
