
     RDKit          3D

 35 38  0  0  1  0  0  0  0  0999 V2000
   46.3590   33.4960   40.8890 S   0  0  0  0  0  0  0  0  0  0  0  0
   49.6220   33.0960   37.1830 N   0  0  0  0  0  0  0  0  0  0  0  0
   48.5880   33.8910   36.9040 C   0  0  0  0  0  0  0  0  0  0  0  0
   47.7730   33.9230   37.9750 N   0  0  0  0  0  0  0  0  0  0  0  0
   48.2940   33.1450   38.9410 C   0  0  0  0  0  0  0  0  0  0  0  0
   47.8780   32.8210   40.2280 C   0  0  0  0  0  0  0  0  0  0  0  0
   48.6960   31.9930   40.8850 N   0  0  0  0  0  0  0  0  0  0  0  0
   49.8250   31.4810   40.4160 C   0  0  0  0  0  0  0  0  0  0  0  0
   50.2400   31.7830   39.1780 N   0  0  0  0  0  0  0  0  0  0  0  0
   49.4670   32.6240   38.4250 C   0  0  0  0  0  0  0  0  0  0  0  0
   50.6580   30.5680   41.2350 C   0  0  0  0  0  0  0  0  0  0  0  0
   51.0480   30.8560   42.5780 C   0  0  0  0  0  0  0  0  0  0  0  0
   51.8180   29.9040   43.1890 C   0  0  0  0  0  0  0  0  0  0  0  0
   52.1890   28.7570   42.5580 C   0  0  0  0  0  0  0  0  0  0  0  0
   51.4050   28.9420   40.8820 S   0  0  0  0  0  0  0  0  0  0  0  0
   46.6210   34.9990   41.8220 C   0  0  1  0  0  0  0  0  0  0  0  0
   46.0390   34.8930   43.1760 C   0  0  0  0  0  0  0  0  0  0  0  0
   45.1220   35.9390   43.4420 C   0  0  0  0  0  0  0  0  0  0  0  0
   44.5060   35.9290   44.7090 C   0  0  0  0  0  0  0  0  0  0  0  0
   44.8150   34.9330   45.6050 N   0  0  0  0  0  0  0  0  0  0  0  0
   45.6950   33.9710   45.2860 C   0  0  0  0  0  0  0  0  0  0  0  0
   46.2950   33.9730   44.0620 N   0  0  0  0  0  0  0  0  0  0  0  0
   48.1350   35.3170   41.9300 C   0  0  0  0  0  0  0  0  0  0  0  0
   50.4060   32.8820   36.5502 H   0  0  0  0  0  0  0  0  0  0  0  0
   48.4282   34.4296   35.9583 H   0  0  0  0  0  0  0  0  0  0  0  0
   50.7488   31.7833   43.0885 H   0  0  0  0  0  0  0  0  0  0  0  0
   52.1481   30.0716   44.2248 H   0  0  0  0  0  0  0  0  0  0  0  0
   52.8001   27.9274   42.9432 H   0  0  0  0  0  0  0  0  0  0  0  0
   46.1172   35.8164   41.2853 H   0  0  0  0  0  0  0  0  0  0  0  0
   44.9021   36.7188   42.6980 H   0  0  0  0  0  0  0  0  0  0  0  0
   43.7829   36.7126   44.9795 H   0  0  0  0  0  0  0  0  0  0  0  0
   45.9322   33.1803   46.0130 H   0  0  0  0  0  0  0  0  0  0  0  0
   48.4223   35.3773   42.9901 H   0  0  0  0  0  0  0  0  0  0  0  0
   48.7129   34.5206   41.4382 H   0  0  0  0  0  0  0  0  0  0  0  0
   48.3437   36.2786   41.4382 H   0  0  0  0  0  0  0  0  0  0  0  0
  1 16  1  0
  2 10  1  0
  3  2  1  0
  3  4  2  0
  4  5  1  0
  5  6  1  0
  6  7  2  0
  6  1  1  0
  8  7  1  0
  8 11  1  0
  9  8  2  0
 10  5  2  0
 10  9  1  0
 11 12  2  0
 12 13  1  0
 14 13  2  0
 15 11  1  0
 15 14  1  0
 16 23  1  0
 16 17  1  0
 17 18  2  0
 17 22  1  0
 18 19  1  0
 19 20  2  0
 21 20  1  0
 22 21  2  0
  2 24  1  0
  3 25  1  0
 12 26  1  0
 13 27  1  0
 14 28  1  0
 16 29  1  6
 18 30  1  0
 19 31  1  0
 21 32  1  0
 23 33  1  0
 23 34  1  0
 23 35  1  0
M  ISO  8  24   9  25  14  26  14  27  14  28  14  29   8  30  14  31  14
M  ISO  4  32  14  33   8  34   8  35   8
M  END
>  <minimizedAffinity>  (1) 
-5.15672302

>  <minimizedRMSD>  (1) 
0.507412016

$$$$
