
     RDKit          3D

 40 44  0  0  1  0  0  0  0  0999 V2000
   47.0070   32.8140   38.9880 C   0  0  2  0  0  0  0  0  0  0  0  0
   47.3860   31.5000   38.2730 C   0  0  0  0  0  0  0  0  0  0  0  0
   47.8860   31.7920   39.6700 C   0  0  1  0  0  0  0  0  0  0  0  0
   43.4500   33.4320   39.2780 N   0  0  0  0  0  0  0  0  0  0  0  0
   43.6780   32.8030   40.4640 C   0  0  0  0  0  0  0  0  0  0  0  0
   44.9680   32.4800   40.5650 N   0  0  0  0  0  0  0  0  0  0  0  0
   45.5720   32.9200   39.4080 C   0  0  0  0  0  0  0  0  0  0  0  0
   44.6120   33.4720   38.6960 N   0  0  0  0  0  0  0  0  0  0  0  0
   41.2030   33.0160   38.5060 C   0  0  0  0  0  0  0  0  0  0  0  0
   42.2630   33.9590   38.7080 C   0  0  0  0  0  0  0  0  0  0  0  0
   42.0470   35.2480   38.3430 C   0  0  0  0  0  0  0  0  0  0  0  0
   40.8330   35.5560   37.8080 N   0  0  0  0  0  0  0  0  0  0  0  0
   39.8560   34.6580   37.6270 C   0  0  0  0  0  0  0  0  0  0  0  0
   40.0530   33.3740   37.9830 N   0  0  0  0  0  0  0  0  0  0  0  0
   49.2540   32.1740   39.9410 C   0  0  0  0  0  0  0  0  0  0  0  0
   50.1460   31.8320   39.1020 O   0  0  0  0  0  0  0  0  0  0  0  0
   49.6050   32.8940   41.0630 O   0  0  0  0  0  0  0  0  0  0  0  0
   47.5680   32.5490   43.8730 N   0  0  0  0  0  0  0  0  0  0  0  0
   48.5330   32.1250   43.0360 N   0  0  0  0  0  0  0  0  0  0  0  0
   48.6790   33.0600   42.0700 C   0  0  0  0  0  0  0  0  0  0  0  0
   47.8050   34.0920   42.2820 C   0  0  0  0  0  0  0  0  0  0  0  0
   47.1120   33.7350   43.4390 C   0  0  0  0  0  0  0  0  0  0  0  0
   46.0910   34.4880   44.0680 N   0  0  0  0  0  0  0  0  0  0  0  0
   45.4310   35.5440   43.6180 N   0  0  0  0  0  0  0  0  0  0  0  0
   44.5380   35.9600   44.5300 C   0  0  0  0  0  0  0  0  0  0  0  0
   44.6110   35.1470   45.6280 C   0  0  0  0  0  0  0  0  0  0  0  0
   45.5980   34.2270   45.3100 C   0  0  0  0  0  0  0  0  0  0  0  0
   47.1031   33.8917   38.7896 H   0  0  0  0  0  0  0  0  0  0  0  0
   46.6264   30.7212   38.1100 H   0  0  0  0  0  0  0  0  0  0  0  0
   47.8552   31.2392   37.3129 H   0  0  0  0  0  0  0  0  0  0  0  0
   47.8597   31.2062   40.6007 H   0  0  0  0  0  0  0  0  0  0  0  0
   42.9123   32.5927   41.2253 H   0  0  0  0  0  0  0  0  0  0  0  0
   41.3566   31.9662   38.7963 H   0  0  0  0  0  0  0  0  0  0  0  0
   42.8237   36.0158   38.4744 H   0  0  0  0  0  0  0  0  0  0  0  0
   38.8958   34.9681   37.1890 H   0  0  0  0  0  0  0  0  0  0  0  0
   47.2345   32.0468   44.7082 H   0  0  0  0  0  0  0  0  0  0  0  0
   47.6775   35.0006   41.6752 H   0  0  0  0  0  0  0  0  0  0  0  0
   43.8574   36.8163   44.4133 H   0  0  0  0  0  0  0  0  0  0  0  0
   44.0201   35.2093   46.5537 H   0  0  0  0  0  0  0  0  0  0  0  0
   45.9330   33.4082   45.9637 H   0  0  0  0  0  0  0  0  0  0  0  0
  1  7  1  0
  1  3  1  0
  2  1  1  0
  2  3  1  0
  3 15  1  0
  4  5  1  0
  5  6  2  0
  7  6  1  0
  8  4  1  0
  8  7  2  0
  9 10  2  0
 10  4  1  0
 11 10  1  0
 12 11  2  0
 13 12  1  0
 13 14  2  0
 14  9  1  0
 15 17  1  0
 16 15  2  0
 17 20  1  0
 19 18  1  0
 20 21  1  0
 20 19  2  0
 21 22  2  0
 22 18  1  0
 22 23  1  0
 23 27  1  0
 24 23  1  0
 24 25  2  0
 25 26  1  0
 27 26  2  0
  1 28  1  6
  2 29  1  0
  2 30  1  0
  3 31  1  1
  5 32  1  0
  9 33  1  0
 11 34  1  0
 13 35  1  0
 18 36  1  0
 21 37  1  0
 25 38  1  0
 26 39  1  0
 27 40  1  0
M  ISO  8  28  13  29  13  30  13  31  13  32  14  33  14  34  14  35  14
M  ISO  5  36   9  37  14  38  14  39  14  40  14
M  END
>  <minimizedAffinity>  (1) 
-5.11172628

>  <minimizedRMSD>  (1) 
6.40465927

$$$$
