
     RDKit          3D

 31 33  0  0  1  0  0  0  0  0999 V2000
   46.7220   34.8040   41.8580 C   0  0  1  0  0  0  0  0  0  0  0  0
   46.0720   34.8210   43.1810 C   0  0  0  0  0  0  0  0  0  0  0  0
   45.2000   35.9140   43.3490 C   0  0  0  0  0  0  0  0  0  0  0  0
   44.5180   36.0500   44.5570 C   0  0  0  0  0  0  0  0  0  0  0  0
   44.7330   35.1030   45.5300 N   0  0  0  0  0  0  0  0  0  0  0  0
   45.5710   34.0800   45.3290 C   0  0  0  0  0  0  0  0  0  0  0  0
   46.2300   33.9590   44.1420 N   0  0  0  0  0  0  0  0  0  0  0  0
   48.2420   35.0800   42.0250 C   0  0  0  0  0  0  0  0  0  0  0  0
   46.4510   33.2480   41.0270 S   0  0  0  0  0  0  0  0  0  0  0  0
   49.5820   33.3270   37.1850 N   0  0  0  0  0  0  0  0  0  0  0  0
   48.5720   34.1980   37.0750 C   0  0  0  0  0  0  0  0  0  0  0  0
   47.7950   34.0850   38.1690 N   0  0  0  0  0  0  0  0  0  0  0  0
   48.3030   33.1460   38.9770 C   0  0  0  0  0  0  0  0  0  0  0  0
   47.9140   32.6380   40.2060 C   0  0  0  0  0  0  0  0  0  0  0  0
   48.7170   31.6760   40.7000 N   0  0  0  0  0  0  0  0  0  0  0  0
   49.8140   31.2070   40.1040 C   0  0  0  0  0  0  0  0  0  0  0  0
   50.1940   31.6990   38.9080 N   0  0  0  0  0  0  0  0  0  0  0  0
   49.4370   32.6740   38.3410 C   0  0  0  0  0  0  0  0  0  0  0  0
   50.6240   30.1370   40.7500 C   0  0  0  0  0  0  0  0  0  0  0  0
   46.2764   35.5932   41.2346 H   0  0  0  0  0  0  0  0  0  0  0  0
   45.0596   36.6474   42.5413 H   0  0  0  0  0  0  0  0  0  0  0  0
   43.8284   36.8900   44.7267 H   0  0  0  0  0  0  0  0  0  0  0  0
   45.7286   33.3351   46.1229 H   0  0  0  0  0  0  0  0  0  0  0  0
   48.4910   35.1252   43.0955 H   0  0  0  0  0  0  0  0  0  0  0  0
   48.8160   34.2714   41.5489 H   0  0  0  0  0  0  0  0  0  0  0  0
   48.4951   36.0388   41.5489 H   0  0  0  0  0  0  0  0  0  0  0  0
   50.3375   33.1853   36.4994 H   0  0  0  0  0  0  0  0  0  0  0  0
   48.4051   34.8881   36.2348 H   0  0  0  0  0  0  0  0  0  0  0  0
   50.5519   30.2322   41.8435 H   0  0  0  0  0  0  0  0  0  0  0  0
   50.2431   29.1522   40.4418 H   0  0  0  0  0  0  0  0  0  0  0  0
   51.6753   30.2364   40.4418 H   0  0  0  0  0  0  0  0  0  0  0  0
  1  8  1  0
  1  2  1  0
  2  3  2  0
  2  7  1  0
  3  4  1  0
  4  5  2  0
  6  5  1  0
  7  6  2  0
  9  1  1  0
 10 18  1  0
 11 10  1  0
 11 12  2  0
 12 13  1  0
 13 14  2  0
 14 15  1  0
 14  9  1  0
 16 15  2  0
 16 19  1  0
 17 16  1  0
 18 17  2  0
 18 13  1  0
  1 20  1  6
  3 21  1  0
  4 22  1  0
  6 23  1  0
  8 24  1  0
  8 25  1  0
  8 26  1  0
 10 27  1  0
 11 28  1  0
 19 29  1  0
 19 30  1  0
 19 31  1  0
M  ISO  8  20   8  21  14  22  14  23  14  24   8  25   8  26   8  27   9
M  ISO  4  28  14  29   8  30   8  31   8
M  END
>  <minimizedAffinity>  (1) 
-4.99282074

>  <minimizedRMSD>  (1) 
0.0165848862

$$$$
