
     RDKit          3D

 46 49  0  0  1  0  0  0  0  0999 V2000
   49.5720   33.3370   37.1870 N   0  0  0  0  0  0  0  0  0  0  0  0
   48.5620   34.2020   37.0740 C   0  0  0  0  0  0  0  0  0  0  0  0
   47.7940   34.0840   38.1710 N   0  0  0  0  0  0  0  0  0  0  0  0
   48.3180   33.1400   38.9850 C   0  0  0  0  0  0  0  0  0  0  0  0
   47.9330   32.6220   40.2250 C   0  0  0  0  0  0  0  0  0  0  0  0
   48.7340   31.6690   40.7100 N   0  0  0  0  0  0  0  0  0  0  0  0
   49.8340   31.2090   40.0950 C   0  0  0  0  0  0  0  0  0  0  0  0
   50.1900   31.7120   38.9150 N   0  0  0  0  0  0  0  0  0  0  0  0
   49.4540   32.6780   38.3320 C   0  0  0  0  0  0  0  0  0  0  0  0
   50.6290   30.1180   40.7630 C   0  0  0  0  0  0  0  0  0  0  0  0
   50.5200   30.2580   42.2870 C   0  0  0  0  0  0  0  0  0  0  0  0
   50.9470   29.1080   43.0000 N   0  0  0  0  0  0  0  0  0  0  0  0
   51.2080   29.2740   44.3920 C   0  0  0  0  0  0  0  0  0  0  0  0
   52.5600   29.9950   44.4280 C   0  0  0  0  0  0  0  0  0  0  0  0
   53.2900   29.3040   43.2860 C   0  0  0  0  0  0  0  0  0  0  0  0
   52.2050   28.6360   42.4660 C   0  0  0  0  0  0  0  0  0  0  0  0
   46.4610   33.2370   41.0350 S   0  0  0  0  0  0  0  0  0  0  0  0
   46.7240   34.7900   41.8570 C   0  0  1  0  0  0  0  0  0  0  0  0
   46.0650   34.8240   43.1800 C   0  0  0  0  0  0  0  0  0  0  0  0
   45.1940   35.9320   43.3250 C   0  0  0  0  0  0  0  0  0  0  0  0
   44.5220   36.0450   44.5530 C   0  0  0  0  0  0  0  0  0  0  0  0
   44.7290   35.1130   45.5270 N   0  0  0  0  0  0  0  0  0  0  0  0
   45.5690   34.0870   45.3260 C   0  0  0  0  0  0  0  0  0  0  0  0
   46.2250   33.9700   44.1360 N   0  0  0  0  0  0  0  0  0  0  0  0
   48.2500   35.0720   42.0320 C   0  0  0  0  0  0  0  0  0  0  0  0
   50.3233   33.2026   36.4954 H   0  0  0  0  0  0  0  0  0  0  0  0
   48.3888   34.8893   36.2328 H   0  0  0  0  0  0  0  0  0  0  0  0
   50.2343   29.1380   40.4567 H   0  0  0  0  0  0  0  0  0  0  0  0
   51.6843   30.2010   40.4640 H   0  0  0  0  0  0  0  0  0  0  0  0
   51.1390   31.1110   42.6020 H   0  0  0  0  0  0  0  0  0  0  0  0
   49.4546   30.4020   42.5200 H   0  0  0  0  0  0  0  0  0  0  0  0
   50.4258   29.8843   44.8671 H   0  0  0  0  0  0  0  0  0  0  0  0
   51.2206   28.3196   44.9388 H   0  0  0  0  0  0  0  0  0  0  0  0
   52.4476   31.0732   44.2415 H   0  0  0  0  0  0  0  0  0  0  0  0
   53.0779   29.9379   45.3968 H   0  0  0  0  0  0  0  0  0  0  0  0
   53.8363   30.0391   42.6768 H   0  0  0  0  0  0  0  0  0  0  0  0
   54.0329   28.5799   43.6519 H   0  0  0  0  0  0  0  0  0  0  0  0
   52.2735   27.5423   42.5618 H   0  0  0  0  0  0  0  0  0  0  0  0
   52.3032   28.8790   41.3977 H   0  0  0  0  0  0  0  0  0  0  0  0
   46.2777   35.5706   41.2234 H   0  0  0  0  0  0  0  0  0  0  0  0
   45.0515   36.6655   42.5178 H   0  0  0  0  0  0  0  0  0  0  0  0
   43.8309   36.8825   44.7287 H   0  0  0  0  0  0  0  0  0  0  0  0
   45.7285   33.3416   46.1191 H   0  0  0  0  0  0  0  0  0  0  0  0
   48.4940   35.1171   43.1036 H   0  0  0  0  0  0  0  0  0  0  0  0
   48.8286   34.2656   41.5578 H   0  0  0  0  0  0  0  0  0  0  0  0
   48.5022   36.0320   41.5578 H   0  0  0  0  0  0  0  0  0  0  0  0
  1  9  1  0
  2  1  1  0
  2  3  2  0
  3  4  1  0
  4  5  2  0
  5  6  1  0
  5 17  1  0
  7  6  2  0
  7 10  1  0
  8  7  1  0
  9  8  2  0
  9  4  1  0
 10 11  1  0
 11 12  1  0
 12 13  1  0
 13 14  1  0
 15 14  1  0
 16 12  1  0
 16 15  1  0
 17 18  1  0
 18 25  1  0
 18 19  1  0
 19 20  2  0
 19 24  1  0
 20 21  1  0
 21 22  2  0
 23 22  1  0
 24 23  2  0
  1 26  1  0
  2 27  1  0
 10 28  1  0
 10 29  1  0
 11 30  1  0
 11 31  1  0
 13 32  1  0
 13 33  1  0
 14 34  1  0
 14 35  1  0
 15 36  1  0
 15 37  1  0
 16 38  1  0
 16 39  1  0
 18 40  1  6
 20 41  1  0
 21 42  1  0
 23 43  1  0
 25 44  1  0
 25 45  1  0
 25 46  1  0
M  ISO  8  26   9  27  14  28   8  29   8  30   8  31   8  32  13  33  13
M  ISO  8  34  13  35  13  36  13  37  13  38  13  39  13  40   8  41  14
M  ISO  5  42  14  43  14  44   8  45   8  46   8
M  END
>  <minimizedAffinity>  (1) 
-4.8417592

>  <minimizedRMSD>  (1) 
1.79743648

$$$$
