
     RDKit          3D

 47 50  0  0  1  0  0  0  0  0999 V2000
   49.5880   33.3320   37.1500 N   0  0  0  0  0  0  0  0  0  0  0  0
   48.5960   34.2200   37.0670 C   0  0  0  0  0  0  0  0  0  0  0  0
   47.8450   34.0980   38.1800 N   0  0  0  0  0  0  0  0  0  0  0  0
   48.3590   33.1320   38.9730 C   0  0  0  0  0  0  0  0  0  0  0  0
   47.9930   32.6070   40.2030 C   0  0  0  0  0  0  0  0  0  0  0  0
   48.7850   31.6330   40.6620 N   0  0  0  0  0  0  0  0  0  0  0  0
   49.8610   31.1530   40.0350 C   0  0  0  0  0  0  0  0  0  0  0  0
   50.2140   31.6640   38.8400 N   0  0  0  0  0  0  0  0  0  0  0  0
   49.4730   32.6560   38.2920 C   0  0  0  0  0  0  0  0  0  0  0  0
   50.6570   30.0550   40.6720 C   0  0  0  0  0  0  0  0  0  0  0  0
   51.6330   30.6250   41.6820 C   0  0  0  0  0  0  0  0  0  0  0  0
   51.1940   30.4590   43.1100 C   0  0  0  0  0  0  0  0  0  0  0  0
   52.3890   29.9010   43.8550 C   0  0  0  0  0  0  0  0  0  0  0  0
   51.8170   29.2070   45.0490 C   0  0  0  0  0  0  0  0  0  0  0  0
   50.3070   29.1140   44.7980 C   0  0  0  0  0  0  0  0  0  0  0  0
   50.1650   29.3910   43.2970 C   0  0  0  0  0  0  0  0  0  0  0  0
   46.5520   33.2480   41.0440 S   0  0  0  0  0  0  0  0  0  0  0  0
   46.8780   34.7580   41.9270 C   0  0  1  0  0  0  0  0  0  0  0  0
   46.1600   34.8000   43.2250 C   0  0  0  0  0  0  0  0  0  0  0  0
   45.2760   35.9040   43.3050 C   0  0  0  0  0  0  0  0  0  0  0  0
   44.5500   36.0220   44.5060 C   0  0  0  0  0  0  0  0  0  0  0  0
   44.7270   35.0950   45.5050 N   0  0  0  0  0  0  0  0  0  0  0  0
   45.5890   34.0690   45.3520 C   0  0  0  0  0  0  0  0  0  0  0  0
   46.2940   33.9540   44.1870 N   0  0  0  0  0  0  0  0  0  0  0  0
   48.4090   34.9350   42.1770 C   0  0  0  0  0  0  0  0  0  0  0  0
   50.3248   33.1916   36.4441 H   0  0  0  0  0  0  0  0  0  0  0  0
   48.4222   34.9243   36.2401 H   0  0  0  0  0  0  0  0  0  0  0  0
   49.9729   29.3605   41.1816 H   0  0  0  0  0  0  0  0  0  0  0  0
   51.2219   29.5254   39.8907 H   0  0  0  0  0  0  0  0  0  0  0  0
   52.6001   30.1164   41.5551 H   0  0  0  0  0  0  0  0  0  0  0  0
   51.6977   31.7062   41.4902 H   0  0  0  0  0  0  0  0  0  0  0  0
   50.8015   31.4312   43.4430 H   0  0  0  0  0  0  0  0  0  0  0  0
   52.9401   29.1895   43.2225 H   0  0  0  0  0  0  0  0  0  0  0  0
   53.1011   30.6896   44.1397 H   0  0  0  0  0  0  0  0  0  0  0  0
   52.2505   28.2012   45.1510 H   0  0  0  0  0  0  0  0  0  0  0  0
   52.0391   29.7526   45.9780 H   0  0  0  0  0  0  0  0  0  0  0  0
   49.9297   28.1115   45.0484 H   0  0  0  0  0  0  0  0  0  0  0  0
   49.7301   29.8180   45.4157 H   0  0  0  0  0  0  0  0  0  0  0  0
   49.1568   29.7520   43.0457 H   0  0  0  0  0  0  0  0  0  0  0  0
   50.3039   28.5079   42.6560 H   0  0  0  0  0  0  0  0  0  0  0  0
   46.5121   35.5832   41.2984 H   0  0  0  0  0  0  0  0  0  0  0  0
   45.1637   36.6239   42.4809 H   0  0  0  0  0  0  0  0  0  0  0  0
   43.8434   36.8537   44.6440 H   0  0  0  0  0  0  0  0  0  0  0  0
   45.7233   33.3318   46.1573 H   0  0  0  0  0  0  0  0  0  0  0  0
   48.6036   34.9575   43.2594 H   0  0  0  0  0  0  0  0  0  0  0  0
   48.9542   34.0939   41.7239 H   0  0  0  0  0  0  0  0  0  0  0  0
   48.7479   35.8783   41.7239 H   0  0  0  0  0  0  0  0  0  0  0  0
  1  9  1  0
  2  1  1  0
  2  3  2  0
  3  4  1  0
  4  5  2  0
  5  6  1  0
  5 17  1  0
  7  6  2  0
  7 10  1  0
  8  7  1  0
  9  8  2  0
  9  4  1  0
 10 11  1  0
 11 12  1  0
 12 16  1  0
 12 13  1  0
 13 14  1  0
 15 14  1  0
 16 15  1  0
 17 18  1  0
 18 25  1  0
 18 19  1  0
 19 20  2  0
 19 24  1  0
 20 21  1  0
 21 22  2  0
 23 22  1  0
 24 23  2  0
  1 26  1  0
  2 27  1  0
 10 28  1  0
 10 29  1  0
 11 30  1  0
 11 31  1  0
 12 32  1  0
 13 33  1  0
 13 34  1  0
 14 35  1  0
 14 36  1  0
 15 37  1  0
 15 38  1  0
 16 39  1  0
 16 40  1  0
 18 41  1  6
 20 42  1  0
 21 43  1  0
 23 44  1  0
 25 45  1  0
 25 46  1  0
 25 47  1  0
M  ISO  8  26   9  27  14  28   8  29   8  30   8  31   8  32  13  33  13
M  ISO  8  34  13  35  13  36  13  37  13  38  13  39  13  40  13  41   8
M  ISO  6  42  14  43  14  44  14  45   8  46   8  47   8
M  END
>  <minimizedAffinity>  (1) 
-5.01242733

>  <minimizedRMSD>  (1) 
1.12000859

$$$$
