
     RDKit          3D

 34 37  0  0  0  0  0  0  0  0999 V2000
   46.7910   34.8110   42.0770 C   0  0  0  0  0  0  0  0  0  0  0  0
   48.0380   35.4240   42.0330 C   0  0  0  0  0  0  0  0  0  0  0  0
   48.8230   35.3650   40.8830 C   0  0  0  0  0  0  0  0  0  0  0  0
   48.3500   34.6790   39.7530 C   0  0  0  0  0  0  0  0  0  0  0  0
   47.0920   34.0620   39.8000 C   0  0  0  0  0  0  0  0  0  0  0  0
   46.3470   34.1450   40.9620 C   0  0  0  0  0  0  0  0  0  0  0  0
   46.5270   33.3290   38.6720 C   0  0  0  0  0  0  0  0  0  0  0  0
   45.2490   32.7890   38.7080 C   0  0  0  0  0  0  0  0  0  0  0  0
   44.9830   32.1660   37.5290 N   0  0  0  0  0  0  0  0  0  0  0  0
   46.0640   32.2910   36.7290 C   0  0  0  0  0  0  0  0  0  0  0  0
   46.4030   31.8920   35.4610 C   0  0  0  0  0  0  0  0  0  0  0  0
   47.6330   32.1800   34.8900 C   0  0  0  0  0  0  0  0  0  0  0  0
   48.5620   32.8880   35.5950 C   0  0  0  0  0  0  0  0  0  0  0  0
   48.2550   33.3120   36.8890 C   0  0  0  0  0  0  0  0  0  0  0  0
   47.0210   33.0060   37.4230 C   0  0  0  0  0  0  0  0  0  0  0  0
   44.4700   35.9200   44.8200 C   0  0  0  0  0  0  0  0  0  0  0  0
   45.1320   35.9350   43.5760 C   0  0  0  0  0  0  0  0  0  0  0  0
   46.0360   34.9210   43.3190 C   0  0  0  0  0  0  0  0  0  0  0  0
   46.2540   33.9550   44.2600 N   0  0  0  0  0  0  0  0  0  0  0  0
   45.5910   33.9780   45.4530 C   0  0  0  0  0  0  0  0  0  0  0  0
   44.7110   34.9510   45.7230 N   0  0  0  0  0  0  0  0  0  0  0  0
   48.4098   35.9625   42.9172 H   0  0  0  0  0  0  0  0  0  0  0  0
   49.8083   35.8535   40.8607 H   0  0  0  0  0  0  0  0  0  0  0  0
   48.9606   34.6262   38.8396 H   0  0  0  0  0  0  0  0  0  0  0  0
   45.3609   33.6587   40.9940 H   0  0  0  0  0  0  0  0  0  0  0  0
   44.5568   32.8549   39.5604 H   0  0  0  0  0  0  0  0  0  0  0  0
   44.1068   31.6815   37.2873 H   0  0  0  0  0  0  0  0  0  0  0  0
   45.6693   31.3205   34.8736 H   0  0  0  0  0  0  0  0  0  0  0  0
   47.8597   31.8380   33.8694 H   0  0  0  0  0  0  0  0  0  0  0  0
   49.5402   33.1217   35.1495 H   0  0  0  0  0  0  0  0  0  0  0  0
   48.9890   33.8836   37.4760 H   0  0  0  0  0  0  0  0  0  0  0  0
   43.7449   36.7125   45.0569 H   0  0  0  0  0  0  0  0  0  0  0  0
   44.9365   36.7251   42.8360 H   0  0  0  0  0  0  0  0  0  0  0  0
   45.7809   33.1915   46.1982 H   0  0  0  0  0  0  0  0  0  0  0  0
  1 18  1  0
  2  1  2  0
  3  2  1  0
  4  5  1  0
  4  3  2  0
  5  6  2  0
  6  1  1  0
  7  8  2  0
  7  5  1  0
  9  8  1  0
 10 15  2  0
 10  9  1  0
 11 10  1  0
 12 11  2  0
 12 13  1  0
 13 14  2  0
 14 15  1  0
 15  7  1  0
 16 21  2  0
 17 16  1  0
 18 17  2  0
 18 19  1  0
 19 20  2  0
 20 21  1  0
  2 22  1  0
  3 23  1  0
  4 24  1  0
  6 25  1  0
  8 26  1  0
  9 27  1  0
 11 28  1  0
 12 29  1  0
 13 30  1  0
 14 31  1  0
 16 32  1  0
 17 33  1  0
 20 34  1  0
M  ISO  8  22  14  23  14  24  14  25  14  26  14  27   9  28  14  29  14
M  ISO  5  30  14  31  14  32  14  33  14  34  14
M  END
>  <minimizedAffinity>  (1) 
-6.3656354

>  <minimizedRMSD>  (1) 
1.79605865

$$$$
