
     RDKit          3D

 30 32  0  0  0  0  0  0  0  0999 V2000
   46.9730   34.8660   41.9920 C   0  0  0  0  0  0  0  0  0  0  0  0
   48.1900   35.4980   41.9800 C   0  0  0  0  0  0  0  0  0  0  0  0
   49.0060   35.4810   40.8510 C   0  0  0  0  0  0  0  0  0  0  0  0
   48.5940   34.8160   39.7020 C   0  0  0  0  0  0  0  0  0  0  0  0
   47.3700   34.1750   39.7010 C   0  0  0  0  0  0  0  0  0  0  0  0
   46.5730   34.2060   40.8430 C   0  0  0  0  0  0  0  0  0  0  0  0
   44.5050   35.8180   44.6580 C   0  0  0  0  0  0  0  0  0  0  0  0
   45.2050   35.8900   43.4370 C   0  0  0  0  0  0  0  0  0  0  0  0
   46.1680   34.9230   43.2070 C   0  0  0  0  0  0  0  0  0  0  0  0
   46.4080   33.9540   44.1380 N   0  0  0  0  0  0  0  0  0  0  0  0
   45.6970   33.9330   45.3100 C   0  0  0  0  0  0  0  0  0  0  0  0
   44.7650   34.8510   45.5550 N   0  0  0  0  0  0  0  0  0  0  0  0
   46.7580   33.4440   38.6560 N   0  0  0  0  0  0  0  0  0  0  0  0
   45.8170   32.5330   38.9500 C   0  0  0  0  0  0  0  0  0  0  0  0
   45.2260   31.8260   37.9100 C   0  0  0  0  0  0  0  0  0  0  0  0
   45.6490   32.1050   36.6080 C   0  0  0  0  0  0  0  0  0  0  0  0
   45.1390   31.4870   35.6390 O   0  0  0  0  0  0  0  0  0  0  0  0
   46.6060   33.0390   36.3800 N   0  0  0  0  0  0  0  0  0  0  0  0
   47.1810   33.7280   37.3920 C   0  0  0  0  0  0  0  0  0  0  0  0
   48.0700   34.5980   37.2000 O   0  0  0  0  0  0  0  0  0  0  0  0
   48.5292   36.0298   42.8812 H   0  0  0  0  0  0  0  0  0  0  0  0
   49.9784   35.9949   40.8689 H   0  0  0  0  0  0  0  0  0  0  0  0
   49.2330   34.8003   38.8068 H   0  0  0  0  0  0  0  0  0  0  0  0
   45.6003   33.6925   40.8314 H   0  0  0  0  0  0  0  0  0  0  0  0
   43.7312   36.5672   44.8813 H   0  0  0  0  0  0  0  0  0  0  0  0
   44.9954   36.6792   42.7000 H   0  0  0  0  0  0  0  0  0  0  0  0
   45.8988   33.1496   46.0553 H   0  0  0  0  0  0  0  0  0  0  0  0
   45.5198   32.3499   39.9931 H   0  0  0  0  0  0  0  0  0  0  0  0
   44.4502   31.0711   38.1055 H   0  0  0  0  0  0  0  0  0  0  0  0
   46.9022   33.2283   35.4118 H   0  0  0  0  0  0  0  0  0  0  0  0
  1  9  1  0
  2  1  2  0
  3  2  1  0
  4  3  2  0
  5  4  1  0
  5  6  2  0
  6  1  1  0
  7 12  2  0
  8  7  1  0
  9  8  2  0
  9 10  1  0
 10 11  2  0
 11 12  1  0
 13 14  1  0
 13  5  1  0
 15 14  2  0
 16 15  1  0
 17 16  2  0
 18 16  1  0
 18 19  1  0
 19 13  1  0
 20 19  2  0
  2 21  1  0
  3 22  1  0
  4 23  1  0
  6 24  1  0
  7 25  1  0
  8 26  1  0
 11 27  1  0
 14 28  1  0
 15 29  1  0
 18 30  1  0
M  ISO  8  21  14  22  14  23  14  24  14  25  14  26  14  27  14  28  14
M  ISO  2  29  14  30   9
M  END
>  <minimizedAffinity>  (1) 
-6.06095076

>  <minimizedRMSD>  (1) 
0.922571123

$$$$
