
     RDKit          3D

 27 28  0  0  0  0  0  0  0  0999 V2000
   46.7310   34.7830   42.0330 C   0  0  0  0  0  0  0  0  0  0  0  0
   47.9910   35.3430   41.9510 C   0  0  0  0  0  0  0  0  0  0  0  0
   48.7430   35.2280   40.7770 C   0  0  0  0  0  0  0  0  0  0  0  0
   48.2320   34.5480   39.6770 C   0  0  0  0  0  0  0  0  0  0  0  0
   46.9510   33.9760   39.7500 C   0  0  0  0  0  0  0  0  0  0  0  0
   46.2640   34.1240   40.9290 C   0  0  0  0  0  0  0  0  0  0  0  0
   44.4650   36.0220   44.7560 C   0  0  0  0  0  0  0  0  0  0  0  0
   45.1130   36.0010   43.5140 C   0  0  0  0  0  0  0  0  0  0  0  0
   45.9910   34.9330   43.2750 C   0  0  0  0  0  0  0  0  0  0  0  0
   46.1720   33.9960   44.2230 N   0  0  0  0  0  0  0  0  0  0  0  0
   45.5170   34.0610   45.4190 C   0  0  0  0  0  0  0  0  0  0  0  0
   44.6770   35.0630   45.6740 N   0  0  0  0  0  0  0  0  0  0  0  0
   46.4440   33.2800   38.6210 N   0  0  0  0  0  0  0  0  0  0  0  0
   46.4160   33.8170   37.3010 C   0  0  0  0  0  0  0  0  0  0  0  0
   47.5050   34.4380   36.9430 N   0  0  0  0  0  0  0  0  0  0  0  0
   45.2220   33.6250   36.5150 N   0  0  0  0  0  0  0  0  0  0  0  0
   47.6510   34.8850   36.0190 H   0  0  0  0  0  0  0  0  0  0  0  0
   48.4060   35.8831   42.8148 H   0  0  0  0  0  0  0  0  0  0  0  0
   49.7451   35.6785   40.7237 H   0  0  0  0  0  0  0  0  0  0  0  0
   48.8267   34.4586   38.7560 H   0  0  0  0  0  0  0  0  0  0  0  0
   45.2603   33.6782   40.9909 H   0  0  0  0  0  0  0  0  0  0  0  0
   43.7675   36.8411   44.9850 H   0  0  0  0  0  0  0  0  0  0  0  0
   44.9415   36.7849   42.7616 H   0  0  0  0  0  0  0  0  0  0  0  0
   45.6839   33.2813   46.1767 H   0  0  0  0  0  0  0  0  0  0  0  0
   46.0741   32.3295   38.7646 H   0  0  0  0  0  0  0  0  0  0  0  0
   45.1699   34.0007   35.5574 H   0  0  0  0  0  0  0  0  0  0  0  0
   44.4215   33.1122   36.9113 H   0  0  0  0  0  0  0  0  0  0  0  0
  1  9  1  0
  2  1  2  0
  3  2  1  0
  4  5  1  0
  4  3  2  0
  5  6  2  0
  6  1  1  0
  7 12  2  0
  8  7  1  0
  9  8  2  0
  9 10  1  0
 10 11  2  0
 11 12  1  0
 13  5  1  0
 14 13  1  0
 15 14  2  0
 16 14  1  0
 17 15  1  0
  2 18  1  0
  3 19  1  0
  4 20  1  0
  6 21  1  0
  7 22  1  0
  8 23  1  0
 11 24  1  0
 13 25  1  0
 16 26  1  0
 16 27  1  0
M  ISO  7  18  14  19  14  20  14  21  14  22  14  23  14  24  14
M  END
>  <minimizedAffinity>  (1) 
-6.21092844

>  <minimizedRMSD>  (1) 
0.377287149

$$$$
