
     RDKit          3D

 34 37  0  0  0  0  0  0  0  0999 V2000
   46.5970   34.6950   42.0350 C   0  0  0  0  0  0  0  0  0  0  0  0
   47.8670   35.2260   41.9100 C   0  0  0  0  0  0  0  0  0  0  0  0
   48.5980   35.0950   40.7230 C   0  0  0  0  0  0  0  0  0  0  0  0
   48.0230   34.4050   39.6360 C   0  0  0  0  0  0  0  0  0  0  0  0
   46.7320   33.8680   39.7690 C   0  0  0  0  0  0  0  0  0  0  0  0
   46.0680   34.0320   40.9610 C   0  0  0  0  0  0  0  0  0  0  0  0
   46.2320   33.2040   38.5920 C   0  0  0  0  0  0  0  0  0  0  0  0
   44.9280   32.8170   38.7200 N   0  0  0  0  0  0  0  0  0  0  0  0
   44.3100   32.1750   37.6860 C   0  0  0  0  0  0  0  0  0  0  0  0
   44.8920   31.8710   36.4890 N   0  0  0  0  0  0  0  0  0  0  0  0
   46.1750   32.2560   36.3700 C   0  0  0  0  0  0  0  0  0  0  0  0
   46.8820   32.0210   35.2050 C   0  0  0  0  0  0  0  0  0  0  0  0
   48.2120   32.4480   35.1210 C   0  0  0  0  0  0  0  0  0  0  0  0
   48.8670   33.1090   36.1650 C   0  0  0  0  0  0  0  0  0  0  0  0
   48.1360   33.3260   37.3060 C   0  0  0  0  0  0  0  0  0  0  0  0
   46.8280   32.9040   37.3880 C   0  0  0  0  0  0  0  0  0  0  0  0
   44.4680   35.9710   44.8610 C   0  0  0  0  0  0  0  0  0  0  0  0
   45.0660   35.9200   43.5900 C   0  0  0  0  0  0  0  0  0  0  0  0
   45.9140   34.8680   43.3020 C   0  0  0  0  0  0  0  0  0  0  0  0
   46.1410   33.9180   44.2590 N   0  0  0  0  0  0  0  0  0  0  0  0
   45.5500   33.9880   45.4830 C   0  0  0  0  0  0  0  0  0  0  0  0
   44.7210   35.0070   45.7770 N   0  0  0  0  0  0  0  0  0  0  0  0
   48.3126   35.7626   42.7606 H   0  0  0  0  0  0  0  0  0  0  0  0
   49.6072   35.5246   40.6396 H   0  0  0  0  0  0  0  0  0  0  0  0
   48.5794   34.2886   38.6943 H   0  0  0  0  0  0  0  0  0  0  0  0
   45.0576   33.6078   41.0569 H   0  0  0  0  0  0  0  0  0  0  0  0
   43.2601   31.8792   37.8284 H   0  0  0  0  0  0  0  0  0  0  0  0
   46.4062   31.5063   34.3573 H   0  0  0  0  0  0  0  0  0  0  0  0
   48.7676   32.2549   34.1915 H   0  0  0  0  0  0  0  0  0  0  0  0
   49.9130   33.4377   36.0763 H   0  0  0  0  0  0  0  0  0  0  0  0
   48.5984   33.8407   38.1611 H   0  0  0  0  0  0  0  0  0  0  0  0
   43.7900   36.7997   45.1130 H   0  0  0  0  0  0  0  0  0  0  0  0
   44.8634   36.7001   42.8415 H   0  0  0  0  0  0  0  0  0  0  0  0
   45.7503   33.2097   46.2341 H   0  0  0  0  0  0  0  0  0  0  0  0
  1 19  1  0
  2  1  2  0
  3  2  1  0
  4  5  1  0
  4  3  2  0
  5  6  2  0
  6  1  1  0
  7  8  2  0
  7  5  1  0
  9  8  1  0
 10  9  2  0
 11 10  1  0
 11 16  2  0
 12 11  1  0
 13 12  2  0
 13 14  1  0
 14 15  2  0
 15 16  1  0
 16  7  1  0
 17 22  2  0
 18 17  1  0
 19 18  2  0
 19 20  1  0
 20 21  2  0
 21 22  1  0
  2 23  1  0
  3 24  1  0
  4 25  1  0
  6 26  1  0
  9 27  1  0
 12 28  1  0
 13 29  1  0
 14 30  1  0
 15 31  1  0
 17 32  1  0
 18 33  1  0
 21 34  1  0
M  ISO  8  23  14  24  14  25  14  26  14  27  14  28  14  29  14  30  14
M  ISO  4  31  14  32  14  33  14  34  14
M  END
>  <minimizedAffinity>  (1) 
-6.40601492

>  <minimizedRMSD>  (1) 
0.867237389

$$$$
