
     RDKit          3D

 27 29  0  0  0  0  0  0  0  0999 V2000
   46.7280   34.7550   42.0440 C   0  0  0  0  0  0  0  0  0  0  0  0
   47.9530   35.3580   41.9470 C   0  0  0  0  0  0  0  0  0  0  0  0
   48.7270   35.2750   40.7770 C   0  0  0  0  0  0  0  0  0  0  0  0
   48.2200   34.5490   39.6790 C   0  0  0  0  0  0  0  0  0  0  0  0
   46.9740   33.9340   39.7770 C   0  0  0  0  0  0  0  0  0  0  0  0
   46.2720   34.0590   40.9560 C   0  0  0  0  0  0  0  0  0  0  0  0
   44.4710   35.9550   44.7970 C   0  0  0  0  0  0  0  0  0  0  0  0
   45.1130   35.9300   43.5540 C   0  0  0  0  0  0  0  0  0  0  0  0
   46.0010   34.8940   43.2900 C   0  0  0  0  0  0  0  0  0  0  0  0
   46.2110   33.9450   44.2460 N   0  0  0  0  0  0  0  0  0  0  0  0
   45.5680   34.0010   45.4430 C   0  0  0  0  0  0  0  0  0  0  0  0
   44.7070   35.0000   45.7110 N   0  0  0  0  0  0  0  0  0  0  0  0
   46.4010   33.1700   38.6710 C   0  0  0  0  0  0  0  0  0  0  0  0
   46.6770   33.3200   37.3380 C   0  0  0  0  0  0  0  0  0  0  0  0
   45.9260   32.4030   36.6110 C   0  0  0  0  0  0  0  0  0  0  0  0
   45.2180   31.7310   37.5800 C   0  0  0  0  0  0  0  0  0  0  0  0
   45.5210   32.2050   38.7650 O   0  0  0  0  0  0  0  0  0  0  0  0
   48.3418   35.9224   42.8074 H   0  0  0  0  0  0  0  0  0  0  0  0
   49.7093   35.7667   40.7186 H   0  0  0  0  0  0  0  0  0  0  0  0
   48.8051   34.4690   38.7509 H   0  0  0  0  0  0  0  0  0  0  0  0
   45.2885   33.5716   41.0276 H   0  0  0  0  0  0  0  0  0  0  0  0
   43.7649   36.7662   45.0281 H   0  0  0  0  0  0  0  0  0  0  0  0
   44.9196   36.7112   42.8041 H   0  0  0  0  0  0  0  0  0  0  0  0
   45.7532   33.2232   46.1985 H   0  0  0  0  0  0  0  0  0  0  0  0
   47.3806   34.0496   36.9106 H   0  0  0  0  0  0  0  0  0  0  0  0
   45.9035   32.2513   35.5217 H   0  0  0  0  0  0  0  0  0  0  0  0
   44.5035   30.9167   37.3895 H   0  0  0  0  0  0  0  0  0  0  0  0
  1  9  1  0
  2  1  2  0
  3  2  1  0
  4  5  1  0
  4  3  2  0
  5  6  2  0
  6  1  1  0
  7 12  2  0
  8  7  1  0
  9  8  2  0
  9 10  1  0
 10 11  2  0
 11 12  1  0
 13 17  1  0
 13  5  1  0
 14 13  2  0
 15 14  1  0
 15 16  2  0
 16 17  1  0
  2 18  1  0
  3 19  1  0
  4 20  1  0
  6 21  1  0
  7 22  1  0
  8 23  1  0
 11 24  1  0
 14 25  1  0
 15 26  1  0
 16 27  1  0
M  ISO  8  18  14  19  14  20  14  21  14  22  14  23  14  24  14  25  14
M  ISO  2  26  14  27  14
M  END
>  <minimizedAffinity>  (1) 
-5.50649357

>  <minimizedRMSD>  (1) 
0.230659977

$$$$
