
     RDKit          3D

 28 30  0  0  0  0  0  0  0  0999 V2000
   46.7000   34.7440   42.0010 C   0  0  0  0  0  0  0  0  0  0  0  0
   47.9410   35.3330   41.8980 C   0  0  0  0  0  0  0  0  0  0  0  0
   48.6980   35.2230   40.7190 C   0  0  0  0  0  0  0  0  0  0  0  0
   48.1740   34.5000   39.6280 C   0  0  0  0  0  0  0  0  0  0  0  0
   46.9300   33.9120   39.7340 C   0  0  0  0  0  0  0  0  0  0  0  0
   46.2350   34.0530   40.9150 C   0  0  0  0  0  0  0  0  0  0  0  0
   44.4790   35.9820   44.7600 C   0  0  0  0  0  0  0  0  0  0  0  0
   45.1130   35.9450   43.5190 C   0  0  0  0  0  0  0  0  0  0  0  0
   45.9780   34.9010   43.2520 C   0  0  0  0  0  0  0  0  0  0  0  0
   46.1890   33.9410   44.2010 N   0  0  0  0  0  0  0  0  0  0  0  0
   45.5540   34.0040   45.4080 C   0  0  0  0  0  0  0  0  0  0  0  0
   44.7140   35.0070   45.6820 N   0  0  0  0  0  0  0  0  0  0  0  0
   46.3060   33.1470   38.6620 C   0  0  0  0  0  0  0  0  0  0  0  0
   46.6540   33.2680   37.3360 C   0  0  0  0  0  0  0  0  0  0  0  0
   46.0710   32.5480   36.3080 C   0  0  0  0  0  0  0  0  0  0  0  0
   45.1010   31.6780   36.6500 N   0  0  0  0  0  0  0  0  0  0  0  0
   44.7220   31.5240   37.9520 C   0  0  0  0  0  0  0  0  0  0  0  0
   45.3280   32.2520   38.9050 N   0  0  0  0  0  0  0  0  0  0  0  0
   48.3454   35.8977   42.7510 H   0  0  0  0  0  0  0  0  0  0  0  0
   49.6886   35.6959   40.6482 H   0  0  0  0  0  0  0  0  0  0  0  0
   48.7533   34.4051   38.6977 H   0  0  0  0  0  0  0  0  0  0  0  0
   45.2444   33.5807   40.9899 H   0  0  0  0  0  0  0  0  0  0  0  0
   43.7855   36.8026   44.9960 H   0  0  0  0  0  0  0  0  0  0  0  0
   44.9289   36.7289   42.7695 H   0  0  0  0  0  0  0  0  0  0  0  0
   45.7351   33.2230   46.1611 H   0  0  0  0  0  0  0  0  0  0  0  0
   47.4476   33.9840   37.0762 H   0  0  0  0  0  0  0  0  0  0  0  0
   46.3846   32.6798   35.2619 H   0  0  0  0  0  0  0  0  0  0  0  0
   43.9281   30.8108   38.2187 H   0  0  0  0  0  0  0  0  0  0  0  0
  1  9  1  0
  2  1  2  0
  3  2  1  0
  4  5  1  0
  4  3  2  0
  5  6  2  0
  6  1  1  0
  7 12  2  0
  8  7  1  0
  9  8  2  0
  9 10  1  0
 10 11  2  0
 11 12  1  0
 13 18  1  0
 13  5  1  0
 14 13  2  0
 15 16  2  0
 15 14  1  0
 16 17  1  0
 17 18  2  0
  2 19  1  0
  3 20  1  0
  4 21  1  0
  6 22  1  0
  7 23  1  0
  8 24  1  0
 11 25  1  0
 14 26  1  0
 15 27  1  0
 17 28  1  0
M  ISO  8  19  14  20  14  21  14  22  14  23  14  24  14  25  14  26  14
M  ISO  2  27  14  28  14
M  END
>  <minimizedAffinity>  (1) 
-5.63489246

>  <minimizedRMSD>  (1) 
0.520164073

$$$$
