
     RDKit          3D

 26 28  0  0  0  0  0  0  0  0999 V2000
   46.6730   34.7210   42.0490 C   0  0  0  0  0  0  0  0  0  0  0  0
   47.8990   35.3160   41.9160 C   0  0  0  0  0  0  0  0  0  0  0  0
   48.6500   35.2160   40.7400 C   0  0  0  0  0  0  0  0  0  0  0  0
   48.1470   34.4920   39.6660 C   0  0  0  0  0  0  0  0  0  0  0  0
   46.8940   33.8720   39.7740 C   0  0  0  0  0  0  0  0  0  0  0  0
   46.2240   34.0220   40.9650 C   0  0  0  0  0  0  0  0  0  0  0  0
   44.4710   35.9810   44.8070 C   0  0  0  0  0  0  0  0  0  0  0  0
   45.1020   35.9220   43.5660 C   0  0  0  0  0  0  0  0  0  0  0  0
   45.9650   34.8760   43.3000 C   0  0  0  0  0  0  0  0  0  0  0  0
   46.1700   33.9420   44.2550 N   0  0  0  0  0  0  0  0  0  0  0  0
   45.5480   34.0100   45.4670 C   0  0  0  0  0  0  0  0  0  0  0  0
   44.7050   35.0250   45.7360 N   0  0  0  0  0  0  0  0  0  0  0  0
   46.3050   33.0870   38.6620 C   0  0  0  0  0  0  0  0  0  0  0  0
   45.4440   32.0550   38.8910 C   0  0  0  0  0  0  0  0  0  0  0  0
   45.0230   31.4380   37.2230 S   0  0  0  0  0  0  0  0  0  0  0  0
   46.1500   32.7610   36.4540 C   0  0  0  0  0  0  0  0  0  0  0  0
   46.5250   33.2740   37.3800 N   0  0  0  0  0  0  0  0  0  0  0  0
   48.3064   35.8909   42.7607 H   0  0  0  0  0  0  0  0  0  0  0  0
   49.6316   35.7070   40.6661 H   0  0  0  0  0  0  0  0  0  0  0  0
   48.7285   34.4057   38.7363 H   0  0  0  0  0  0  0  0  0  0  0  0
   45.2407   33.5368   41.0525 H   0  0  0  0  0  0  0  0  0  0  0  0
   43.7805   36.8071   45.0323 H   0  0  0  0  0  0  0  0  0  0  0  0
   44.9157   36.6975   42.8084 H   0  0  0  0  0  0  0  0  0  0  0  0
   45.7351   33.2352   46.2251 H   0  0  0  0  0  0  0  0  0  0  0  0
   45.0842   31.6789   39.8601 H   0  0  0  0  0  0  0  0  0  0  0  0
   46.3729   32.9669   35.3967 H   0  0  0  0  0  0  0  0  0  0  0  0
  1  9  1  0
  2  1  2  0
  3  2  1  0
  4  5  1  0
  4  3  2  0
  5  6  2  0
  6  1  1  0
  7 12  2  0
  8  7  1  0
  9  8  2  0
  9 10  1  0
 10 11  2  0
 11 12  1  0
 13 14  2  0
 13  5  1  0
 15 14  1  0
 16 15  1  0
 16 17  2  0
 17 13  1  0
  2 18  1  0
  3 19  1  0
  4 20  1  0
  6 21  1  0
  7 22  1  0
  8 23  1  0
 11 24  1  0
 14 25  1  0
 16 26  1  0
M  ISO  8  18  14  19  14  20  14  21  14  22  14  23  14  24  14  25  14
M  ISO  1  26  14
M  END
>  <minimizedAffinity>  (1) 
-5.51178837

>  <minimizedRMSD>  (1) 
0.869732141

$$$$
