
     RDKit          3D

 33 35  0  0  0  0  0  0  0  0999 V2000
   46.7570   34.7310   42.0510 C   0  0  0  0  0  0  0  0  0  0  0  0
   47.9140   35.4450   41.8870 C   0  0  0  0  0  0  0  0  0  0  0  0
   48.6910   35.3520   40.7300 C   0  0  0  0  0  0  0  0  0  0  0  0
   48.2780   34.4990   39.7030 C   0  0  0  0  0  0  0  0  0  0  0  0
   47.0970   33.7600   39.8530 C   0  0  0  0  0  0  0  0  0  0  0  0
   46.3660   33.8940   41.0230 C   0  0  0  0  0  0  0  0  0  0  0  0
   44.4790   35.9770   44.7590 C   0  0  0  0  0  0  0  0  0  0  0  0
   45.1330   35.9410   43.5200 C   0  0  0  0  0  0  0  0  0  0  0  0
   46.0110   34.8940   43.2920 C   0  0  0  0  0  0  0  0  0  0  0  0
   46.2150   33.9450   44.2550 N   0  0  0  0  0  0  0  0  0  0  0  0
   45.5480   34.0320   45.4480 C   0  0  0  0  0  0  0  0  0  0  0  0
   44.6980   35.0320   45.6890 N   0  0  0  0  0  0  0  0  0  0  0  0
   46.6330   32.8460   38.7760 C   0  0  0  0  0  0  0  0  0  0  0  0
   45.1680   32.6030   38.9820 C   0  0  0  0  0  0  0  0  0  0  0  0
   44.4520   33.0270   37.7220 C   0  0  0  0  0  0  0  0  0  0  0  0
   45.5160   33.1870   36.6600 C   0  0  0  0  0  0  0  0  0  0  0  0
   46.8100   33.4450   37.3990 C   0  0  0  0  0  0  0  0  0  0  0  0
   48.2430   36.1153   42.6948 H   0  0  0  0  0  0  0  0  0  0  0  0
   49.6142   35.9414   40.6287 H   0  0  0  0  0  0  0  0  0  0  0  0
   48.8755   34.4084   38.7839 H   0  0  0  0  0  0  0  0  0  0  0  0
   45.4396   33.3121   41.1377 H   0  0  0  0  0  0  0  0  0  0  0  0
   43.7738   36.7934   44.9741 H   0  0  0  0  0  0  0  0  0  0  0  0
   44.9560   36.7143   42.7580 H   0  0  0  0  0  0  0  0  0  0  0  0
   45.7155   33.2658   46.2193 H   0  0  0  0  0  0  0  0  0  0  0  0
   47.2290   31.9230   38.8292 H   0  0  0  0  0  0  0  0  0  0  0  0
   44.9885   31.5348   39.1738 H   0  0  0  0  0  0  0  0  0  0  0  0
   44.7998   33.1754   39.8462 H   0  0  0  0  0  0  0  0  0  0  0  0
   43.7256   32.2581   37.4201 H   0  0  0  0  0  0  0  0  0  0  0  0
   43.8969   33.9643   37.8748 H   0  0  0  0  0  0  0  0  0  0  0  0
   45.2755   34.0361   36.0033 H   0  0  0  0  0  0  0  0  0  0  0  0
   45.5875   32.2920   36.0244 H   0  0  0  0  0  0  0  0  0  0  0  0
   47.6500   32.9625   36.8779 H   0  0  0  0  0  0  0  0  0  0  0  0
   47.0337   34.5206   37.4543 H   0  0  0  0  0  0  0  0  0  0  0  0
  1  9  1  0
  2  1  2  0
  3  2  1  0
  4  5  1  0
  4  3  2  0
  5  6  2  0
  6  1  1  0
  7 12  2  0
  8  7  1  0
  9  8  2  0
  9 10  1  0
 10 11  2  0
 11 12  1  0
 13 14  1  0
 13  5  1  0
 15 14  1  0
 16 17  1  0
 16 15  1  0
 17 13  1  0
  2 18  1  0
  3 19  1  0
  4 20  1  0
  6 21  1  0
  7 22  1  0
  8 23  1  0
 11 24  1  0
 13 25  1  0
 14 26  1  0
 14 27  1  0
 15 28  1  0
 15 29  1  0
 16 30  1  0
 16 31  1  0
 17 32  1  0
 17 33  1  0
M  ISO  8  18  14  19  14  20  14  21  14  22  14  23  14  24  14  25  13
M  ISO  8  26  13  27  13  28  13  29  13  30  13  31  13  32  13  33  13
M  END
>  <minimizedAffinity>  (1) 
-5.63331747

>  <minimizedRMSD>  (1) 
0.642973125

$$$$
