
     RDKit          3D

 46 50  0  0  1  0  0  0  0  0999 V2000
   48.0820   33.3640   39.1050 C   0  0  2  0  0  0  0  0  0  0  0  0
   48.2430   34.2740   37.8710 C   0  0  0  0  0  0  0  0  0  0  0  0
   47.9310   32.8000   37.7150 C   0  0  1  0  0  0  0  0  0  0  0  0
   45.6390   34.0750   41.6770 N   0  0  0  0  0  0  0  0  0  0  0  0
   44.8120   33.8740   40.6180 C   0  0  0  0  0  0  0  0  0  0  0  0
   45.5290   33.5850   39.5270 N   0  0  0  0  0  0  0  0  0  0  0  0
   46.8480   33.6080   39.9240 C   0  0  0  0  0  0  0  0  0  0  0  0
   46.8350   33.9040   41.2080 N   0  0  0  0  0  0  0  0  0  0  0  0
   44.7570   35.6790   43.2520 C   0  0  0  0  0  0  0  0  0  0  0  0
   45.3640   34.4000   43.0260 C   0  0  0  0  0  0  0  0  0  0  0  0
   45.6160   33.6250   44.1190 C   0  0  0  0  0  0  0  0  0  0  0  0
   45.2820   34.1040   45.3410 N   0  0  0  0  0  0  0  0  0  0  0  0
   44.7120   35.3140   45.5180 C   0  0  0  0  0  0  0  0  0  0  0  0
   44.4550   36.0930   44.4670 N   0  0  0  0  0  0  0  0  0  0  0  0
   48.9230   31.8430   37.2760 C   0  0  0  0  0  0  0  0  0  0  0  0
   48.5320   30.6580   37.0310 O   0  0  0  0  0  0  0  0  0  0  0  0
   50.2550   32.1910   37.1170 O   0  0  0  0  0  0  0  0  0  0  0  0
   53.1060   31.5190   39.0030 N   0  0  0  0  0  0  0  0  0  0  0  0
   52.4830   31.9300   37.8850 N   0  0  0  0  0  0  0  0  0  0  0  0
   51.1530   31.8360   38.0970 C   0  0  0  0  0  0  0  0  0  0  0  0
   50.9190   31.3600   39.3620 C   0  0  0  0  0  0  0  0  0  0  0  0
   52.1920   31.1720   39.9030 C   0  0  0  0  0  0  0  0  0  0  0  0
   52.3310   30.6700   41.2250 N   0  0  0  0  0  0  0  0  0  0  0  0
   51.3540   31.1390   42.1810 C   0  0  0  0  0  0  0  0  0  0  0  0
   51.1770   30.0310   43.2010 C   0  0  0  0  0  0  0  0  0  0  0  0
   52.4230   29.8420   43.7880 O   0  0  0  0  0  0  0  0  0  0  0  0
   53.3540   29.2710   42.9670 C   0  0  0  0  0  0  0  0  0  0  0  0
   53.3790   29.7610   41.5570 C   0  0  0  0  0  0  0  0  0  0  0  0
   48.6889   33.0829   39.9783 H   0  0  0  0  0  0  0  0  0  0  0  0
   47.4774   35.0285   37.6373 H   0  0  0  0  0  0  0  0  0  0  0  0
   49.0223   34.9535   37.4955 H   0  0  0  0  0  0  0  0  0  0  0  0
   47.1545   32.2632   37.1502 H   0  0  0  0  0  0  0  0  0  0  0  0
   43.7145   33.9394   40.6529 H   0  0  0  0  0  0  0  0  0  0  0  0
   44.5383   36.3297   42.3925 H   0  0  0  0  0  0  0  0  0  0  0  0
   46.0799   32.6335   44.0108 H   0  0  0  0  0  0  0  0  0  0  0  0
   44.4588   35.6585   46.5315 H   0  0  0  0  0  0  0  0  0  0  0  0
   54.1261   31.4795   39.1398 H   0  0  0  0  0  0  0  0  0  0  0  0
   49.9476   31.1695   39.8417 H   0  0  0  0  0  0  0  0  0  0  0  0
   51.7144   32.0541   42.6737 H   0  0  0  0  0  0  0  0  0  0  0  0
   50.4006   31.3791   41.6876 H   0  0  0  0  0  0  0  0  0  0  0  0
   50.4384   30.3264   43.9607 H   0  0  0  0  0  0  0  0  0  0  0  0
   50.8114   29.1068   42.7297 H   0  0  0  0  0  0  0  0  0  0  0  0
   54.3461   29.4567   43.4044 H   0  0  0  0  0  0  0  0  0  0  0  0
   53.0784   28.2079   42.9042 H   0  0  0  0  0  0  0  0  0  0  0  0
   53.3017   28.8899   40.8898 H   0  0  0  0  0  0  0  0  0  0  0  0
   54.3217   30.3149   41.4364 H   0  0  0  0  0  0  0  0  0  0  0  0
  1  7  1  0
  2  1  1  0
  3  2  1  0
  3  1  1  0
  4 10  1  0
  5  4  1  0
  6  7  1  0
  6  5  2  0
  7  8  2  0
  8  4  1  0
  9 14  2  0
 10  9  1  0
 10 11  2  0
 11 12  1  0
 12 13  2  0
 14 13  1  0
 15  3  1  0
 16 15  2  0
 17 15  1  0
 17 20  1  0
 18 22  1  0
 19 20  2  0
 19 18  1  0
 20 21  1  0
 21 22  2  0
 22 23  1  0
 23 28  1  0
 23 24  1  0
 24 25  1  0
 25 26  1  0
 27 26  1  0
 28 27  1  0
  1 29  1  1
  2 30  1  0
  2 31  1  0
  3 32  1  1
  5 33  1  0
  9 34  1  0
 11 35  1  0
 13 36  1  0
 18 37  1  0
 21 38  1  0
 24 39  1  0
 24 40  1  0
 25 41  1  0
 25 42  1  0
 27 43  1  0
 27 44  1  0
 28 45  1  0
 28 46  1  0
M  ISO  8  29  13  30  13  31  13  32  13  33  14  34  14  35  14  36  14
M  ISO  8  37   9  38  14  39  13  40  13  41  13  42  13  43  13  44  13
M  ISO  2  45  13  46  13
M  END
>  <minimizedAffinity>  (1) 
-4.95981884

>  <minimizedRMSD>  (1) 
0.44586134

$$$$
