
     RDKit          3D

 26 28  0  0  0  0  0  0  0  0999 V2000
   46.7030   34.7500   42.0140 C   0  0  0  0  0  0  0  0  0  0  0  0
   47.9370   35.3400   41.9010 C   0  0  0  0  0  0  0  0  0  0  0  0
   48.6920   35.2300   40.7220 C   0  0  0  0  0  0  0  0  0  0  0  0
   48.1840   34.5080   39.6450 C   0  0  0  0  0  0  0  0  0  0  0  0
   46.9400   33.9120   39.7530 C   0  0  0  0  0  0  0  0  0  0  0  0
   46.2270   34.0420   40.9300 C   0  0  0  0  0  0  0  0  0  0  0  0
   44.4760   35.9760   44.7750 C   0  0  0  0  0  0  0  0  0  0  0  0
   45.1090   35.9480   43.5260 C   0  0  0  0  0  0  0  0  0  0  0  0
   45.9800   34.9070   43.2620 C   0  0  0  0  0  0  0  0  0  0  0  0
   46.1900   33.9530   44.2170 N   0  0  0  0  0  0  0  0  0  0  0  0
   45.5490   34.0200   45.4240 C   0  0  0  0  0  0  0  0  0  0  0  0
   44.7020   35.0250   45.6950 N   0  0  0  0  0  0  0  0  0  0  0  0
   46.3040   33.1490   38.7330 N   0  0  0  0  0  0  0  0  0  0  0  0
   46.7090   33.3090   37.4390 C   0  0  0  0  0  0  0  0  0  0  0  0
   45.9730   32.4900   36.6370 N   0  0  0  0  0  0  0  0  0  0  0  0
   45.1130   31.8280   37.4560 C   0  0  0  0  0  0  0  0  0  0  0  0
   45.3220   32.2350   38.7210 N   0  0  0  0  0  0  0  0  0  0  0  0
   48.3424   35.9099   42.7501 H   0  0  0  0  0  0  0  0  0  0  0  0
   49.6785   35.7112   40.6497 H   0  0  0  0  0  0  0  0  0  0  0  0
   48.7665   34.4124   38.7168 H   0  0  0  0  0  0  0  0  0  0  0  0
   45.2403   33.5616   41.0053 H   0  0  0  0  0  0  0  0  0  0  0  0
   43.7789   36.7946   45.0070 H   0  0  0  0  0  0  0  0  0  0  0  0
   44.9189   36.7310   42.7772 H   0  0  0  0  0  0  0  0  0  0  0  0
   45.7299   33.2419   46.1802 H   0  0  0  0  0  0  0  0  0  0  0  0
   47.5027   33.9903   37.0985 H   0  0  0  0  0  0  0  0  0  0  0  0
   44.3694   31.0829   37.1370 H   0  0  0  0  0  0  0  0  0  0  0  0
  1  9  1  0
  2  1  2  0
  3  2  1  0
  4  5  1  0
  4  3  2  0
  5  6  2  0
  6  1  1  0
  7 12  2  0
  8  7  1  0
  9  8  2  0
  9 10  1  0
 10 11  2  0
 11 12  1  0
 13  5  1  0
 14 13  1  0
 15 14  2  0
 15 16  1  0
 16 17  2  0
 17 13  1  0
  2 18  1  0
  3 19  1  0
  4 20  1  0
  6 21  1  0
  7 22  1  0
  8 23  1  0
 11 24  1  0
 14 25  1  0
 16 26  1  0
M  ISO  8  18  14  19  14  20  14  21  14  22  14  23  14  24  14  25  14
M  ISO  1  26  14
M  END
>  <minimizedAffinity>  (1) 
-5.43991184

>  <minimizedRMSD>  (1) 
0.381421685

$$$$
