
     RDKit          3D

 23 24  0  0  0  0  0  0  0  0999 V2000
   46.7200   34.7480   41.9860 C   0  0  0  0  0  0  0  0  0  0  0  0
   47.9450   35.3740   41.8900 C   0  0  0  0  0  0  0  0  0  0  0  0
   48.7160   35.2780   40.7240 C   0  0  0  0  0  0  0  0  0  0  0  0
   48.2260   34.5310   39.6440 C   0  0  0  0  0  0  0  0  0  0  0  0
   46.9870   33.9010   39.7500 C   0  0  0  0  0  0  0  0  0  0  0  0
   46.2600   34.0230   40.9210 C   0  0  0  0  0  0  0  0  0  0  0  0
   44.4810   35.9680   44.7550 C   0  0  0  0  0  0  0  0  0  0  0  0
   45.1140   35.9510   43.4970 C   0  0  0  0  0  0  0  0  0  0  0  0
   45.9860   34.9060   43.2450 C   0  0  0  0  0  0  0  0  0  0  0  0
   46.1920   33.9580   44.2020 N   0  0  0  0  0  0  0  0  0  0  0  0
   45.5590   34.0150   45.4050 C   0  0  0  0  0  0  0  0  0  0  0  0
   44.7100   35.0150   45.6730 N   0  0  0  0  0  0  0  0  0  0  0  0
   46.4520   33.1060   38.6190 C   0  0  0  0  0  0  0  0  0  0  0  0
   45.0520   33.0410   38.6400 F   0  0  0  0  0  0  0  0  0  0  0  0
   47.0120   31.8480   38.5900 F   0  0  0  0  0  0  0  0  0  0  0  0
   46.7610   33.7030   37.3920 F   0  0  0  0  0  0  0  0  0  0  0  0
   48.3228   35.9579   42.7422 H   0  0  0  0  0  0  0  0  0  0  0  0
   49.6917   35.7816   40.6572 H   0  0  0  0  0  0  0  0  0  0  0  0
   48.8150   34.4425   38.7192 H   0  0  0  0  0  0  0  0  0  0  0  0
   45.2836   33.5223   40.9978 H   0  0  0  0  0  0  0  0  0  0  0  0
   43.7810   36.7829   44.9917 H   0  0  0  0  0  0  0  0  0  0  0  0
   44.9238   36.7336   42.7478 H   0  0  0  0  0  0  0  0  0  0  0  0
   45.7454   33.2369   46.1599 H   0  0  0  0  0  0  0  0  0  0  0  0
  1  9  1  0
  2  1  2  0
  3  2  1  0
  4  5  1  0
  4  3  2  0
  5  6  2  0
  6  1  1  0
  7 12  2  0
  8  7  1  0
  9  8  2  0
  9 10  1  0
 10 11  2  0
 11 12  1  0
 13 14  1  0
 13  5  1  0
 15 13  1  0
 16 13  1  0
  2 17  1  0
  3 18  1  0
  4 19  1  0
  6 20  1  0
  7 21  1  0
  8 22  1  0
 11 23  1  0
M  ISO  7  17  14  18  14  19  14  20  14  21  14  22  14  23  14
M  END
>  <minimizedAffinity>  (1) 
-5.35186386

>  <minimizedRMSD>  (1) 
0.317754567

$$$$
