
     RDKit          3D

 21 22  0  0  0  0  0  0  0  0999 V2000
   46.6780   34.7240   42.0090 C   0  0  0  0  0  0  0  0  0  0  0  0
   47.9030   35.3580   41.8860 C   0  0  0  0  0  0  0  0  0  0  0  0
   48.6630   35.2420   40.7170 C   0  0  0  0  0  0  0  0  0  0  0  0
   48.1660   34.4660   39.6500 C   0  0  0  0  0  0  0  0  0  0  0  0
   46.9430   33.8380   39.7850 C   0  0  0  0  0  0  0  0  0  0  0  0
   46.2160   33.9770   40.9610 C   0  0  0  0  0  0  0  0  0  0  0  0
   44.4790   35.9880   44.7810 C   0  0  0  0  0  0  0  0  0  0  0  0
   45.1040   35.9520   43.5220 C   0  0  0  0  0  0  0  0  0  0  0  0
   45.9610   34.8990   43.2620 C   0  0  0  0  0  0  0  0  0  0  0  0
   46.1640   33.9500   44.2240 N   0  0  0  0  0  0  0  0  0  0  0  0
   45.5370   34.0250   45.4320 C   0  0  0  0  0  0  0  0  0  0  0  0
   44.7050   35.0360   45.7010 N   0  0  0  0  0  0  0  0  0  0  0  0
   46.1980   32.8280   38.5170 S   0  0  0  0  0  0  0  0  0  0  0  0
   48.2850   35.9630   42.7215 H   0  0  0  0  0  0  0  0  0  0  0  0
   49.6352   35.7494   40.6316 H   0  0  0  0  0  0  0  0  0  0  0  0
   48.7454   34.3618   38.7208 H   0  0  0  0  0  0  0  0  0  0  0  0
   45.2427   33.4726   41.0513 H   0  0  0  0  0  0  0  0  0  0  0  0
   43.7907   36.8129   45.0173 H   0  0  0  0  0  0  0  0  0  0  0  0
   44.9177   36.7337   42.7709 H   0  0  0  0  0  0  0  0  0  0  0  0
   45.7168   33.2486   46.1902 H   0  0  0  0  0  0  0  0  0  0  0  0
   45.4624   31.8307   39.1011 H   0  0  0  0  0  0  0  0  0  0  0  0
  1  9  1  0
  2  1  2  0
  3  2  1  0
  4  5  1  0
  4  3  2  0
  5  6  2  0
  6  1  1  0
  7 12  2  0
  8  7  1  0
  9  8  2  0
  9 10  1  0
 10 11  2  0
 11 12  1  0
 13  5  1  0
  2 14  1  0
  3 15  1  0
  4 16  1  0
  6 17  1  0
  7 18  1  0
  8 19  1  0
 11 20  1  0
 13 21  1  0
M  ISO  8  14  14  15  14  16  14  17  14  18  14  19  14  20  14  21  11
M  END
>  <minimizedAffinity>  (1) 
-5.07564592

>  <minimizedRMSD>  (1) 
0.0102715483

$$$$
