
     RDKit          3D

 41 45  0  0  1  0  0  0  0  0999 V2000
   48.0940   33.3820   39.0960 C   0  0  2  0  0  0  0  0  0  0  0  0
   48.2650   34.3210   37.8870 C   0  0  0  0  0  0  0  0  0  0  0  0
   47.9400   32.8520   37.6930 C   0  0  1  0  0  0  0  0  0  0  0  0
   45.6410   34.0570   41.6760 N   0  0  0  0  0  0  0  0  0  0  0  0
   44.8160   33.8440   40.6140 C   0  0  0  0  0  0  0  0  0  0  0  0
   45.5420   33.5690   39.5300 N   0  0  0  0  0  0  0  0  0  0  0  0
   46.8610   33.6120   39.9230 C   0  0  0  0  0  0  0  0  0  0  0  0
   46.8530   33.9050   41.2070 N   0  0  0  0  0  0  0  0  0  0  0  0
   44.7630   35.6610   43.2520 C   0  0  0  0  0  0  0  0  0  0  0  0
   45.3690   34.3780   43.0300 C   0  0  0  0  0  0  0  0  0  0  0  0
   45.6230   33.6060   44.1160 C   0  0  0  0  0  0  0  0  0  0  0  0
   45.2860   34.0970   45.3380 N   0  0  0  0  0  0  0  0  0  0  0  0
   44.7200   35.3020   45.5200 C   0  0  0  0  0  0  0  0  0  0  0  0
   44.4580   36.0860   44.4560 N   0  0  0  0  0  0  0  0  0  0  0  0
   48.9350   31.9000   37.2320 C   0  0  0  0  0  0  0  0  0  0  0  0
   48.5330   30.7230   36.9530 O   0  0  0  0  0  0  0  0  0  0  0  0
   50.2570   32.2280   37.0880 O   0  0  0  0  0  0  0  0  0  0  0  0
   53.1130   31.5000   38.9540 N   0  0  0  0  0  0  0  0  0  0  0  0
   52.4890   31.9650   37.8560 N   0  0  0  0  0  0  0  0  0  0  0  0
   51.1580   31.8320   38.0510 C   0  0  0  0  0  0  0  0  0  0  0  0
   50.9240   31.2780   39.2820 C   0  0  0  0  0  0  0  0  0  0  0  0
   52.1870   31.0790   39.8310 C   0  0  0  0  0  0  0  0  0  0  0  0
   52.4840   30.5090   41.1410 C   0  0  0  0  0  0  0  0  0  0  0  0
   51.5890   30.6130   42.1850 C   0  0  0  0  0  0  0  0  0  0  0  0
   51.9710   30.0350   43.3920 C   0  0  0  0  0  0  0  0  0  0  0  0
   53.1670   29.4060   43.5100 N   0  0  0  0  0  0  0  0  0  0  0  0
   54.0290   29.3190   42.4620 C   0  0  0  0  0  0  0  0  0  0  0  0
   53.6610   29.8770   41.3000 N   0  0  0  0  0  0  0  0  0  0  0  0
   48.6981   33.0761   39.9629 H   0  0  0  0  0  0  0  0  0  0  0  0
   47.5064   35.0879   37.6714 H   0  0  0  0  0  0  0  0  0  0  0  0
   49.0508   35.0030   37.5301 H   0  0  0  0  0  0  0  0  0  0  0  0
   47.1597   32.3344   37.1157 H   0  0  0  0  0  0  0  0  0  0  0  0
   43.7175   33.8916   40.6455 H   0  0  0  0  0  0  0  0  0  0  0  0
   44.5481   36.3066   42.3877 H   0  0  0  0  0  0  0  0  0  0  0  0
   46.0869   32.6141   44.0112 H   0  0  0  0  0  0  0  0  0  0  0  0
   44.4714   35.6473   46.5344 H   0  0  0  0  0  0  0  0  0  0  0  0
   54.1325   31.4717   39.0980 H   0  0  0  0  0  0  0  0  0  0  0  0
   49.9506   31.0421   39.7369 H   0  0  0  0  0  0  0  0  0  0  0  0
   50.6230   31.1263   42.0697 H   0  0  0  0  0  0  0  0  0  0  0  0
   51.2962   30.0888   44.2591 H   0  0  0  0  0  0  0  0  0  0  0  0
   54.9973   28.8072   42.5644 H   0  0  0  0  0  0  0  0  0  0  0  0
  1  7  1  0
  2  1  1  0
  3  2  1  0
  3  1  1  0
  4 10  1  0
  5  4  1  0
  6  7  1  0
  6  5  2  0
  7  8  2  0
  8  4  1  0
  9 14  2  0
 10  9  1  0
 10 11  2  0
 11 12  1  0
 12 13  2  0
 14 13  1  0
 15  3  1  0
 16 15  2  0
 17 15  1  0
 17 20  1  0
 18 22  1  0
 19 20  2  0
 19 18  1  0
 20 21  1  0
 21 22  2  0
 22 23  1  0
 23 28  1  0
 23 24  2  0
 24 25  1  0
 25 26  2  0
 27 26  1  0
 28 27  2  0
  1 29  1  1
  2 30  1  0
  2 31  1  0
  3 32  1  1
  5 33  1  0
  9 34  1  0
 11 35  1  0
 13 36  1  0
 18 37  1  0
 21 38  1  0
 24 39  1  0
 25 40  1  0
 27 41  1  0
M  ISO  8  29  13  30  13  31  13  32  13  33  14  34  14  35  14  36  14
M  ISO  5  37   9  38  14  39  14  40  14  41  14
M  END
>  <minimizedAffinity>  (1) 
-4.95506716

>  <minimizedRMSD>  (1) 
0.670111418

$$$$
