
     RDKit          3D

 47 49  0  0  0  0  0  0  0  0999 V2000
   46.6970   34.6910   41.9590 C   0  0  0  0  0  0  0  0  0  0  0  0
   47.9070   35.3180   41.8190 C   0  0  0  0  0  0  0  0  0  0  0  0
   48.6290   35.1920   40.6200 C   0  0  0  0  0  0  0  0  0  0  0  0
   48.1070   34.4330   39.5870 C   0  0  0  0  0  0  0  0  0  0  0  0
   46.8730   33.7930   39.7310 C   0  0  0  0  0  0  0  0  0  0  0  0
   46.2140   33.9490   40.9170 C   0  0  0  0  0  0  0  0  0  0  0  0
   44.4930   36.0190   44.7180 C   0  0  0  0  0  0  0  0  0  0  0  0
   45.1290   35.9300   43.4790 C   0  0  0  0  0  0  0  0  0  0  0  0
   45.9850   34.8560   43.2270 C   0  0  0  0  0  0  0  0  0  0  0  0
   46.1720   33.9280   44.1950 N   0  0  0  0  0  0  0  0  0  0  0  0
   45.5300   34.0530   45.3940 C   0  0  0  0  0  0  0  0  0  0  0  0
   44.7120   35.0650   45.6570 N   0  0  0  0  0  0  0  0  0  0  0  0
   46.3630   32.9850   38.5880 C   0  0  0  0  0  0  0  0  0  0  0  0
   44.8310   33.0830   38.5030 C   0  0  0  0  0  0  0  0  0  0  0  0
   46.7060   31.5450   38.9260 C   0  0  0  0  0  0  0  0  0  0  0  0
   46.9070   33.4150   37.2720 C   0  0  0  0  0  0  0  0  0  0  0  0
   47.1570   32.3760   36.3630 N   0  0  0  0  0  0  0  0  0  0  0  0
   48.4340   31.9060   36.0570 C   0  0  0  0  0  0  0  0  0  0  0  0
   48.9030   32.4100   34.6670 C   0  0  0  0  0  0  0  0  0  0  0  0
   47.7780   32.4680   33.6850 C   0  0  0  0  0  0  0  0  0  0  0  0
   46.6790   31.5280   34.1170 C   0  0  0  0  0  0  0  0  0  0  0  0
   46.1240   31.9790   35.4700 C   0  0  0  0  0  0  0  0  0  0  0  0
   48.3134   35.9200   42.6451 H   0  0  0  0  0  0  0  0  0  0  0  0
   49.6015   35.6927   40.5033 H   0  0  0  0  0  0  0  0  0  0  0  0
   48.6675   34.3328   38.6458 H   0  0  0  0  0  0  0  0  0  0  0  0
   45.2413   33.4504   41.0408 H   0  0  0  0  0  0  0  0  0  0  0  0
   43.8167   36.8596   44.9323 H   0  0  0  0  0  0  0  0  0  0  0  0
   44.9579   36.6973   42.7096 H   0  0  0  0  0  0  0  0  0  0  0  0
   45.6964   33.2893   46.1680 H   0  0  0  0  0  0  0  0  0  0  0  0
   44.4084   33.1100   39.5182 H   0  0  0  0  0  0  0  0  0  0  0  0
   44.5516   34.0009   37.9650 H   0  0  0  0  0  0  0  0  0  0  0  0
   44.4369   32.2082   37.9650 H   0  0  0  0  0  0  0  0  0  0  0  0
   46.7353   31.4218   40.0187 H   0  0  0  0  0  0  0  0  0  0  0  0
   45.9419   30.8769   38.5021 H   0  0  0  0  0  0  0  0  0  0  0  0
   47.6893   31.2931   38.5021 H   0  0  0  0  0  0  0  0  0  0  0  0
   46.1824   34.1031   36.8121 H   0  0  0  0  0  0  0  0  0  0  0  0
   47.8816   33.8804   37.4808 H   0  0  0  0  0  0  0  0  0  0  0  0
   49.1392   32.2605   36.8232 H   0  0  0  0  0  0  0  0  0  0  0  0
   48.4029   30.8067   36.0349 H   0  0  0  0  0  0  0  0  0  0  0  0
   49.3287   33.4180   34.7796 H   0  0  0  0  0  0  0  0  0  0  0  0
   49.6530   31.7025   34.2838 H   0  0  0  0  0  0  0  0  0  0  0  0
   48.1441   32.1709   32.6912 H   0  0  0  0  0  0  0  0  0  0  0  0
   47.3843   33.4942   33.6411 H   0  0  0  0  0  0  0  0  0  0  0  0
   45.8730   31.5377   33.3685 H   0  0  0  0  0  0  0  0  0  0  0  0
   47.0830   30.5089   34.2079 H   0  0  0  0  0  0  0  0  0  0  0  0
   45.4460   32.8303   35.3100 H   0  0  0  0  0  0  0  0  0  0  0  0
   45.5932   31.1275   35.9209 H   0  0  0  0  0  0  0  0  0  0  0  0
  1  9  1  0
  2  1  2  0
  3  2  1  0
  4  5  1  0
  4  3  2  0
  5  6  2  0
  6  1  1  0
  7 12  2  0
  8  7  1  0
  9  8  2  0
  9 10  1  0
 10 11  2  0
 11 12  1  0
 13 15  1  0
 13  5  1  0
 14 13  1  0
 16 13  1  0
 17 16  1  0
 18 17  1  0
 19 18  1  0
 20 21  1  0
 20 19  1  0
 21 22  1  0
 22 17  1  0
  2 23  1  0
  3 24  1  0
  4 25  1  0
  6 26  1  0
  7 27  1  0
  8 28  1  0
 11 29  1  0
 14 30  1  0
 14 31  1  0
 14 32  1  0
 15 33  1  0
 15 34  1  0
 15 35  1  0
 16 36  1  0
 16 37  1  0
 18 38  1  0
 18 39  1  0
 19 40  1  0
 19 41  1  0
 20 42  1  0
 20 43  1  0
 21 44  1  0
 21 45  1  0
 22 46  1  0
 22 47  1  0
M  ISO  8  23  14  24  14  25  14  26  14  27  14  28  14  29  14  30   8
M  ISO  8  31   8  32   8  33   8  34   8  35   8  36   8  37   8  38  13
M  ISO  8  39  13  40  13  41  13  42  13  43  13  44  13  45  13  46  13
M  ISO  1  47  13
M  END
>  <minimizedAffinity>  (1) 
-5.88653898

>  <minimizedRMSD>  (1) 
0.654950082

$$$$
