
     RDKit          3D

 39 41  0  0  0  0  0  0  0  0999 V2000
   46.9120   34.8380   42.0430 C   0  0  0  0  0  0  0  0  0  0  0  0
   48.0900   35.5440   41.9910 C   0  0  0  0  0  0  0  0  0  0  0  0
   48.8950   35.5050   40.8430 C   0  0  0  0  0  0  0  0  0  0  0  0
   48.4840   34.7390   39.7560 C   0  0  0  0  0  0  0  0  0  0  0  0
   47.2920   34.0230   39.8070 C   0  0  0  0  0  0  0  0  0  0  0  0
   46.5350   34.0940   40.9580 C   0  0  0  0  0  0  0  0  0  0  0  0
   44.4840   35.9140   44.7240 C   0  0  0  0  0  0  0  0  0  0  0  0
   45.1900   35.9230   43.5140 C   0  0  0  0  0  0  0  0  0  0  0  0
   46.1200   34.9230   43.2720 C   0  0  0  0  0  0  0  0  0  0  0  0
   46.3120   33.9690   44.2160 N   0  0  0  0  0  0  0  0  0  0  0  0
   45.6160   33.9760   45.3870 C   0  0  0  0  0  0  0  0  0  0  0  0
   44.7170   34.9340   45.6360 N   0  0  0  0  0  0  0  0  0  0  0  0
   46.9060   33.2340   38.6240 C   0  0  0  0  0  0  0  0  0  0  0  0
   45.3920   32.9960   38.5880 C   0  0  0  0  0  0  0  0  0  0  0  0
   47.5700   31.8590   38.8080 C   0  0  0  0  0  0  0  0  0  0  0  0
   47.3220   33.8270   37.3220 C   0  0  0  0  0  0  0  0  0  0  0  0
   47.5510   32.7740   36.2750 C   0  0  0  0  0  0  0  0  0  0  0  0
   48.8350   32.4370   35.8290 C   0  0  0  0  0  0  0  0  0  0  0  0
   48.6660   31.4490   34.8820 C   0  0  0  0  0  0  0  0  0  0  0  0
   47.3470   31.2120   34.7710 N   0  0  0  0  0  0  0  0  0  0  0  0
   46.6930   31.9940   35.5950 N   0  0  0  0  0  0  0  0  0  0  0  0
   48.4043   36.1448   42.8572 H   0  0  0  0  0  0  0  0  0  0  0  0
   49.8371   36.0714   40.8024 H   0  0  0  0  0  0  0  0  0  0  0  0
   49.1062   34.6993   38.8498 H   0  0  0  0  0  0  0  0  0  0  0  0
   45.5914   33.5306   41.0056 H   0  0  0  0  0  0  0  0  0  0  0  0
   43.7426   36.6986   44.9354 H   0  0  0  0  0  0  0  0  0  0  0  0
   45.0096   36.7107   42.7677 H   0  0  0  0  0  0  0  0  0  0  0  0
   45.7948   33.1878   46.1332 H   0  0  0  0  0  0  0  0  0  0  0  0
   45.0058   32.9353   39.6162 H   0  0  0  0  0  0  0  0  0  0  0  0
   44.9024   33.8282   38.0610 H   0  0  0  0  0  0  0  0  0  0  0  0
   45.1814   32.0537   38.0610 H   0  0  0  0  0  0  0  0  0  0  0  0
   47.6743   31.6429   39.8815 H   0  0  0  0  0  0  0  0  0  0  0  0
   46.9465   31.0848   38.3370 H   0  0  0  0  0  0  0  0  0  0  0  0
   48.5641   31.8659   38.3370 H   0  0  0  0  0  0  0  0  0  0  0  0
   46.5327   34.5094   36.9736 H   0  0  0  0  0  0  0  0  0  0  0  0
   48.2692   34.3638   37.4788 H   0  0  0  0  0  0  0  0  0  0  0  0
   49.7870   32.8728   36.1663 H   0  0  0  0  0  0  0  0  0  0  0  0
   49.4658   30.9456   34.3190 H   0  0  0  0  0  0  0  0  0  0  0  0
   46.9174   30.5231   34.1371 H   0  0  0  0  0  0  0  0  0  0  0  0
  1  9  1  0
  2  1  2  0
  3  2  1  0
  4  5  1  0
  4  3  2  0
  5  6  2  0
  6  1  1  0
  7 12  2  0
  8  7  1  0
  9  8  2  0
  9 10  1  0
 10 11  2  0
 11 12  1  0
 13 15  1  0
 13  5  1  0
 14 13  1  0
 16 13  1  0
 17 16  1  0
 18 17  1  0
 19 18  2  0
 20 19  1  0
 20 21  1  0
 21 17  2  0
  2 22  1  0
  3 23  1  0
  4 24  1  0
  6 25  1  0
  7 26  1  0
  8 27  1  0
 11 28  1  0
 14 29  1  0
 14 30  1  0
 14 31  1  0
 15 32  1  0
 15 33  1  0
 15 34  1  0
 16 35  1  0
 16 36  1  0
 18 37  1  0
 19 38  1  0
 20 39  1  0
M  ISO  8  22  14  23  14  24  14  25  14  26  14  27  14  28  14  29   8
M  ISO  8  30   8  31   8  32   8  33   8  34   8  35   8  36   8  37  14
M  ISO  2  38  14  39   9
M  END
>  <minimizedAffinity>  (1) 
-5.69229269

>  <minimizedRMSD>  (1) 
0.915810823

$$$$
