
     RDKit          3D

 39 41  0  0  0  0  0  0  0  0999 V2000
   46.8940   34.8460   42.0490 C   0  0  0  0  0  0  0  0  0  0  0  0
   48.0780   35.5470   41.9940 C   0  0  0  0  0  0  0  0  0  0  0  0
   48.8870   35.4970   40.8440 C   0  0  0  0  0  0  0  0  0  0  0  0
   48.4720   34.7260   39.7570 C   0  0  0  0  0  0  0  0  0  0  0  0
   47.2700   34.0180   39.8200 C   0  0  0  0  0  0  0  0  0  0  0  0
   46.5180   34.0980   40.9620 C   0  0  0  0  0  0  0  0  0  0  0  0
   44.4900   35.9130   44.7320 C   0  0  0  0  0  0  0  0  0  0  0  0
   45.1830   35.9450   43.5080 C   0  0  0  0  0  0  0  0  0  0  0  0
   46.1090   34.9360   43.2690 C   0  0  0  0  0  0  0  0  0  0  0  0
   46.2940   33.9800   44.2210 N   0  0  0  0  0  0  0  0  0  0  0  0
   45.6040   33.9850   45.3900 C   0  0  0  0  0  0  0  0  0  0  0  0
   44.7070   34.9500   45.6380 N   0  0  0  0  0  0  0  0  0  0  0  0
   46.8980   33.2190   38.6430 C   0  0  0  0  0  0  0  0  0  0  0  0
   45.3770   32.9650   38.6170 C   0  0  0  0  0  0  0  0  0  0  0  0
   47.5690   31.8560   38.8080 C   0  0  0  0  0  0  0  0  0  0  0  0
   47.2520   33.8110   37.3260 C   0  0  0  0  0  0  0  0  0  0  0  0
   47.5150   32.8850   36.2750 N   0  0  0  0  0  0  0  0  0  0  0  0
   48.7600   32.6880   35.8060 N   0  0  0  0  0  0  0  0  0  0  0  0
   48.8010   31.8060   34.8280 C   0  0  0  0  0  0  0  0  0  0  0  0
   47.5410   31.3570   34.5920 C   0  0  0  0  0  0  0  0  0  0  0  0
   46.7880   32.0520   35.5090 C   0  0  0  0  0  0  0  0  0  0  0  0
   48.3941   36.1515   42.8569 H   0  0  0  0  0  0  0  0  0  0  0  0
   49.8327   36.0573   40.8021 H   0  0  0  0  0  0  0  0  0  0  0  0
   49.0923   34.6761   38.8500 H   0  0  0  0  0  0  0  0  0  0  0  0
   45.5721   33.5386   41.0097 H   0  0  0  0  0  0  0  0  0  0  0  0
   43.7515   36.6983   44.9507 H   0  0  0  0  0  0  0  0  0  0  0  0
   44.9991   36.7381   42.7683 H   0  0  0  0  0  0  0  0  0  0  0  0
   45.7812   33.1957   46.1353 H   0  0  0  0  0  0  0  0  0  0  0  0
   44.9982   32.9017   39.6478 H   0  0  0  0  0  0  0  0  0  0  0  0
   44.8761   33.7919   38.0923 H   0  0  0  0  0  0  0  0  0  0  0  0
   45.1720   32.0202   38.0923 H   0  0  0  0  0  0  0  0  0  0  0  0
   47.6805   31.6294   39.8786 H   0  0  0  0  0  0  0  0  0  0  0  0
   46.9489   31.0820   38.3321 H   0  0  0  0  0  0  0  0  0  0  0  0
   48.5605   31.8754   38.3321 H   0  0  0  0  0  0  0  0  0  0  0  0
   46.4155   34.4511   37.0090 H   0  0  0  0  0  0  0  0  0  0  0  0
   48.1962   34.3515   37.4881 H   0  0  0  0  0  0  0  0  0  0  0  0
   49.7063   31.4861   34.2912 H   0  0  0  0  0  0  0  0  0  0  0  0
   47.2052   30.6184   33.8493 H   0  0  0  0  0  0  0  0  0  0  0  0
   45.6983   31.9379   35.6065 H   0  0  0  0  0  0  0  0  0  0  0  0
  1  9  1  0
  2  1  2  0
  3  2  1  0
  4  5  1  0
  4  3  2  0
  5  6  2  0
  6  1  1  0
  7 12  2  0
  8  7  1  0
  9  8  2  0
  9 10  1  0
 10 11  2  0
 11 12  1  0
 13 15  1  0
 13  5  1  0
 14 13  1  0
 16 13  1  0
 17 16  1  0
 18 17  1  0
 19 18  2  0
 20 19  1  0
 20 21  2  0
 21 17  1  0
  2 22  1  0
  3 23  1  0
  4 24  1  0
  6 25  1  0
  7 26  1  0
  8 27  1  0
 11 28  1  0
 14 29  1  0
 14 30  1  0
 14 31  1  0
 15 32  1  0
 15 33  1  0
 15 34  1  0
 16 35  1  0
 16 36  1  0
 19 37  1  0
 20 38  1  0
 21 39  1  0
M  ISO  8  22  14  23  14  24  14  25  14  26  14  27  14  28  14  29   8
M  ISO  8  30   8  31   8  32   8  33   8  34   8  35   8  36   8  37  14
M  ISO  2  38  14  39  14
M  END
>  <minimizedAffinity>  (1) 
-5.71183825

>  <minimizedRMSD>  (1) 
2.32980895

$$$$
