
     RDKit          3D

 49 53  0  0  1  0  0  0  0  0999 V2000
   48.0900   33.3400   39.1550 C   0  0  2  0  0  0  0  0  0  0  0  0
   48.2530   34.2410   37.9150 C   0  0  0  0  0  0  0  0  0  0  0  0
   47.9400   32.7680   37.7670 C   0  0  1  0  0  0  0  0  0  0  0  0
   45.6320   34.0550   41.7200 N   0  0  0  0  0  0  0  0  0  0  0  0
   44.8110   33.8540   40.6540 C   0  0  0  0  0  0  0  0  0  0  0  0
   45.5340   33.5670   39.5720 N   0  0  0  0  0  0  0  0  0  0  0  0
   46.8530   33.5870   39.9690 C   0  0  0  0  0  0  0  0  0  0  0  0
   46.8350   33.8830   41.2520 N   0  0  0  0  0  0  0  0  0  0  0  0
   44.7610   35.6700   43.2880 C   0  0  0  0  0  0  0  0  0  0  0  0
   45.3560   34.3830   43.0720 C   0  0  0  0  0  0  0  0  0  0  0  0
   45.5990   33.6080   44.1580 C   0  0  0  0  0  0  0  0  0  0  0  0
   45.2610   34.1060   45.3790 N   0  0  0  0  0  0  0  0  0  0  0  0
   44.7070   35.3100   45.5560 C   0  0  0  0  0  0  0  0  0  0  0  0
   44.4570   36.0970   44.4950 N   0  0  0  0  0  0  0  0  0  0  0  0
   48.9300   31.8050   37.3370 C   0  0  0  0  0  0  0  0  0  0  0  0
   48.5550   30.5990   37.1720 O   0  0  0  0  0  0  0  0  0  0  0  0
   50.2380   32.1530   37.0990 O   0  0  0  0  0  0  0  0  0  0  0  0
   53.2120   31.5750   38.8280 N   0  0  0  0  0  0  0  0  0  0  0  0
   52.5170   31.9560   37.7390 N   0  0  0  0  0  0  0  0  0  0  0  0
   51.2020   31.8340   38.0290 C   0  0  0  0  0  0  0  0  0  0  0  0
   51.0510   31.3730   39.3080 C   0  0  0  0  0  0  0  0  0  0  0  0
   52.3460   31.2180   39.7920 C   0  0  0  0  0  0  0  0  0  0  0  0
   52.5870   30.7250   41.1770 C   0  0  0  0  0  0  0  0  0  0  0  0
   53.2860   29.3800   41.2020 C   0  0  0  0  0  0  0  0  0  0  0  0
   53.8650   29.2620   42.5970 C   0  0  0  0  0  0  0  0  0  0  0  0
   52.7820   29.3010   43.6170 C   0  0  0  0  0  0  0  0  0  0  0  0
   51.6890   30.2790   43.3910 C   0  0  0  0  0  0  0  0  0  0  0  0
   51.3180   30.5490   41.9720 C   0  0  0  0  0  0  0  0  0  0  0  0
   48.6960   33.0658   40.0312 H   0  0  0  0  0  0  0  0  0  0  0  0
   47.4884   34.9948   37.6757 H   0  0  0  0  0  0  0  0  0  0  0  0
   49.0336   34.9171   37.5361 H   0  0  0  0  0  0  0  0  0  0  0  0
   47.1641   32.2300   37.2027 H   0  0  0  0  0  0  0  0  0  0  0  0
   43.7132   33.9188   40.6812 H   0  0  0  0  0  0  0  0  0  0  0  0
   44.5535   36.3166   42.4226 H   0  0  0  0  0  0  0  0  0  0  0  0
   46.0535   32.6115   44.0558 H   0  0  0  0  0  0  0  0  0  0  0  0
   44.4559   35.6565   46.5694 H   0  0  0  0  0  0  0  0  0  0  0  0
   54.2387   31.5597   38.9088 H   0  0  0  0  0  0  0  0  0  0  0  0
   50.1094   31.1690   39.8389 H   0  0  0  0  0  0  0  0  0  0  0  0
   53.2172   31.5071   41.6255 H   0  0  0  0  0  0  0  0  0  0  0  0
   52.5684   28.5683   41.0118 H   0  0  0  0  0  0  0  0  0  0  0  0
   54.0619   29.3043   40.4260 H   0  0  0  0  0  0  0  0  0  0  0  0
   54.4093   28.3100   42.6835 H   0  0  0  0  0  0  0  0  0  0  0  0
   54.5476   30.1069   42.7710 H   0  0  0  0  0  0  0  0  0  0  0  0
   52.3293   28.2994   43.6611 H   0  0  0  0  0  0  0  0  0  0  0  0
   53.2721   29.6248   44.5470 H   0  0  0  0  0  0  0  0  0  0  0  0
   50.7923   29.9020   43.9046 H   0  0  0  0  0  0  0  0  0  0  0  0
   52.0705   31.2353   43.7782 H   0  0  0  0  0  0  0  0  0  0  0  0
   50.7123   31.4653   41.9137 H   0  0  0  0  0  0  0  0  0  0  0  0
   50.7301   29.7118   41.5677 H   0  0  0  0  0  0  0  0  0  0  0  0
  1  7  1  0
  2  1  1  0
  3  2  1  0
  3  1  1  0
  4 10  1  0
  5  4  1  0
  6  7  1  0
  6  5  2  0
  7  8  2  0
  8  4  1  0
  9 14  2  0
 10  9  1  0
 10 11  2  0
 11 12  1  0
 12 13  2  0
 14 13  1  0
 15  3  1  0
 16 15  2  0
 17 15  1  0
 17 20  1  0
 18 22  1  0
 19 20  2  0
 19 18  1  0
 20 21  1  0
 21 22  2  0
 22 23  1  0
 23 24  1  0
 23 28  1  0
 24 25  1  0
 25 26  1  0
 27 26  1  0
 28 27  1  0
  1 29  1  1
  2 30  1  0
  2 31  1  0
  3 32  1  1
  5 33  1  0
  9 34  1  0
 11 35  1  0
 13 36  1  0
 18 37  1  0
 21 38  1  0
 23 39  1  0
 24 40  1  0
 24 41  1  0
 25 42  1  0
 25 43  1  0
 26 44  1  0
 26 45  1  0
 27 46  1  0
 27 47  1  0
 28 48  1  0
 28 49  1  0
M  ISO  8  29  13  30  13  31  13  32  13  33  14  34  14  35  14  36  14
M  ISO  8  37   9  38  14  39  13  40  13  41  13  42  13  43  13  44  13
M  ISO  5  45  13  46  13  47  13  48  13  49  13
M  END
>  <minimizedAffinity>  (1) 
-4.93878222

>  <minimizedRMSD>  (1) 
0.452123284

$$$$
