
     RDKit          3D

 48 51  0  0  0  0  0  0  0  0999 V2000
   46.4810   32.7710   38.7250 C   0  0  0  0  0  0  0  0  0  0  0  0
   46.6810   34.6840   41.9830 C   0  0  0  0  0  0  0  0  0  0  0  0
   47.8630   35.3720   41.8000 C   0  0  0  0  0  0  0  0  0  0  0  0
   48.5920   35.2180   40.6270 C   0  0  0  0  0  0  0  0  0  0  0  0
   48.1380   34.3670   39.6250 C   0  0  0  0  0  0  0  0  0  0  0  0
   46.9300   33.6580   39.7990 C   0  0  0  0  0  0  0  0  0  0  0  0
   46.2750   33.8630   40.9730 C   0  0  0  0  0  0  0  0  0  0  0  0
   44.4700   36.0060   44.7170 C   0  0  0  0  0  0  0  0  0  0  0  0
   45.1040   35.9410   43.4570 C   0  0  0  0  0  0  0  0  0  0  0  0
   45.9560   34.8840   43.2310 C   0  0  0  0  0  0  0  0  0  0  0  0
   46.1350   33.9770   44.2190 N   0  0  0  0  0  0  0  0  0  0  0  0
   45.5110   34.0680   45.4180 C   0  0  0  0  0  0  0  0  0  0  0  0
   44.6870   35.0800   45.6510 N   0  0  0  0  0  0  0  0  0  0  0  0
   45.8310   31.5070   39.2680 C   0  0  0  0  0  0  0  0  0  0  0  0
   47.7460   32.3470   37.9820 C   0  0  0  0  0  0  0  0  0  0  0  0
   45.5130   33.4150   37.7770 C   0  0  0  0  0  0  0  0  0  0  0  0
   44.3740   32.4810   37.5120 C   0  0  0  0  0  0  0  0  0  0  0  0
   44.3700   31.3720   36.6570 C   0  0  0  0  0  0  0  0  0  0  0  0
   43.1410   30.7920   36.7050 N   0  0  0  0  0  0  0  0  0  0  0  0
   42.3800   31.5100   37.5660 C   0  0  0  0  0  0  0  0  0  0  0  0
   43.1250   32.5300   38.0540 N   0  0  0  0  0  0  0  0  0  0  0  0
   42.6350   33.4990   38.9930 C   0  0  0  0  0  0  0  0  0  0  0  0
   41.8820   34.5910   38.5880 C   0  0  0  0  0  0  0  0  0  0  0  0
   41.3950   35.5430   39.4640 C   0  0  0  0  0  0  0  0  0  0  0  0
   41.6770   35.3890   40.8160 C   0  0  0  0  0  0  0  0  0  0  0  0
   42.4370   34.2790   41.1880 C   0  0  0  0  0  0  0  0  0  0  0  0
   42.9090   33.3530   40.3150 N   0  0  0  0  0  0  0  0  0  0  0  0
   48.2305   36.0465   42.5874 H   0  0  0  0  0  0  0  0  0  0  0  0
   49.5326   35.7718   40.4903 H   0  0  0  0  0  0  0  0  0  0  0  0
   48.7192   34.2467   38.6988 H   0  0  0  0  0  0  0  0  0  0  0  0
   45.3318   33.3167   41.1213 H   0  0  0  0  0  0  0  0  0  0  0  0
   43.7830   36.8377   44.9322 H   0  0  0  0  0  0  0  0  0  0  0  0
   44.9240   36.7051   42.6864 H   0  0  0  0  0  0  0  0  0  0  0  0
   45.6869   33.3074   46.1929 H   0  0  0  0  0  0  0  0  0  0  0  0
   45.8436   31.5315   40.3677 H   0  0  0  0  0  0  0  0  0  0  0  0
   44.7910   31.4486   38.9145 H   0  0  0  0  0  0  0  0  0  0  0  0
   46.3885   30.6271   38.9145 H   0  0  0  0  0  0  0  0  0  0  0  0
   48.5282   32.0848   38.7097 H   0  0  0  0  0  0  0  0  0  0  0  0
   47.5251   31.4738   37.3506 H   0  0  0  0  0  0  0  0  0  0  0  0
   48.0960   33.1770   37.3506 H   0  0  0  0  0  0  0  0  0  0  0  0
   45.1284   34.3446   38.2218 H   0  0  0  0  0  0  0  0  0  0  0  0
   46.0254   33.6443   36.8310 H   0  0  0  0  0  0  0  0  0  0  0  0
   45.2191   31.0276   36.0483 H   0  0  0  0  0  0  0  0  0  0  0  0
   41.3319   31.2994   37.8253 H   0  0  0  0  0  0  0  0  0  0  0  0
   41.6613   34.7052   37.5164 H   0  0  0  0  0  0  0  0  0  0  0  0
   40.8025   36.3962   39.1020 H   0  0  0  0  0  0  0  0  0  0  0  0
   41.3161   36.1121   41.5623 H   0  0  0  0  0  0  0  0  0  0  0  0
   42.6679   34.1463   42.2553 H   0  0  0  0  0  0  0  0  0  0  0  0
  1 14  1  0
  1  6  1  0
  2 10  1  0
  3  2  2  0
  4  3  1  0
  5  6  1  0
  5  4  2  0
  6  7  2  0
  7  2  1  0
  8 13  2  0
  9  8  1  0
 10  9  2  0
 10 11  1  0
 11 12  2  0
 12 13  1  0
 15  1  1  0
 16  1  1  0
 17 16  1  0
 17 21  1  0
 18 19  1  0
 18 17  2  0
 19 20  2  0
 20 21  1  0
 21 22  1  0
 22 27  1  0
 23 22  2  0
 23 24  1  0
 24 25  2  0
 25 26  1  0
 27 26  2  0
  3 28  1  0
  4 29  1  0
  5 30  1  0
  7 31  1  0
  8 32  1  0
  9 33  1  0
 12 34  1  0
 14 35  1  0
 14 36  1  0
 14 37  1  0
 15 38  1  0
 15 39  1  0
 15 40  1  0
 16 41  1  0
 16 42  1  0
 18 43  1  0
 20 44  1  0
 23 45  1  0
 24 46  1  0
 25 47  1  0
 26 48  1  0
M  ISO  8  28  14  29  14  30  14  31  14  32  14  33  14  34  14  35   8
M  ISO  8  36   8  37   8  38   8  39   8  40   8  41   8  42   8  43  14
M  ISO  5  44  14  45  14  46  14  47  14  48  14
M  END
>  <minimizedAffinity>  (1) 
-6.3051939

>  <minimizedRMSD>  (1) 
2.67207813

$$$$
