
     RDKit          3D

 55 58  0  0  0  0  0  0  0  0999 V2000
   46.0410   32.8470   38.7650 C   0  0  0  0  0  0  0  0  0  0  0  0
   46.5130   34.6300   42.0740 C   0  0  0  0  0  0  0  0  0  0  0  0
   47.7540   35.1890   41.8730 C   0  0  0  0  0  0  0  0  0  0  0  0
   48.4390   34.9930   40.6780 C   0  0  0  0  0  0  0  0  0  0  0  0
   47.8740   34.2260   39.6640 C   0  0  0  0  0  0  0  0  0  0  0  0
   46.6080   33.6490   39.8530 C   0  0  0  0  0  0  0  0  0  0  0  0
   45.9970   33.8840   41.0490 C   0  0  0  0  0  0  0  0  0  0  0  0
   44.4610   36.0450   44.8760 C   0  0  0  0  0  0  0  0  0  0  0  0
   45.0420   35.9550   43.5950 C   0  0  0  0  0  0  0  0  0  0  0  0
   45.8460   34.8660   43.3370 C   0  0  0  0  0  0  0  0  0  0  0  0
   46.0330   33.9410   44.3270 N   0  0  0  0  0  0  0  0  0  0  0  0
   45.4490   34.0710   45.5490 C   0  0  0  0  0  0  0  0  0  0  0  0
   44.6750   35.1150   45.8070 N   0  0  0  0  0  0  0  0  0  0  0  0
   45.5690   31.4780   39.2450 C   0  0  0  0  0  0  0  0  0  0  0  0
   47.2120   32.5880   37.7980 C   0  0  0  0  0  0  0  0  0  0  0  0
   44.9080   33.4970   38.0520 C   0  0  0  0  0  0  0  0  0  0  0  0
   43.8680   32.4820   37.7070 C   0  0  0  0  0  0  0  0  0  0  0  0
   44.0120   31.3640   36.8720 C   0  0  0  0  0  0  0  0  0  0  0  0
   42.8220   30.7010   36.8280 N   0  0  0  0  0  0  0  0  0  0  0  0
   41.9540   31.3730   37.6050 C   0  0  0  0  0  0  0  0  0  0  0  0
   42.5920   32.4450   38.1320 N   0  0  0  0  0  0  0  0  0  0  0  0
   41.8970   33.3610   39.0050 C   0  0  0  0  0  0  0  0  0  0  0  0
   42.1420   34.7570   38.4700 C   0  0  0  0  0  0  0  0  0  0  0  0
   41.0960   35.6510   39.0970 C   0  0  0  0  0  0  0  0  0  0  0  0
   41.2100   35.4840   40.5950 C   0  0  0  0  0  0  0  0  0  0  0  0
   42.4600   34.7380   41.0120 C   0  0  0  0  0  0  0  0  0  0  0  0
   42.5480   33.3560   40.3980 C   0  0  0  0  0  0  0  0  0  0  0  0
   48.2103   35.7985   42.6670 H   0  0  0  0  0  0  0  0  0  0  0  0
   49.4310   35.4461   40.5344 H   0  0  0  0  0  0  0  0  0  0  0  0
   48.4162   34.0725   38.7193 H   0  0  0  0  0  0  0  0  0  0  0  0
   45.0044   33.4357   41.2034 H   0  0  0  0  0  0  0  0  0  0  0  0
   43.8153   36.9034   45.1133 H   0  0  0  0  0  0  0  0  0  0  0  0
   44.8606   36.7247   42.8304 H   0  0  0  0  0  0  0  0  0  0  0  0
   45.6196   33.3087   46.3235 H   0  0  0  0  0  0  0  0  0  0  0  0
   45.5619   31.4575   40.3448 H   0  0  0  0  0  0  0  0  0  0  0  0
   44.5533   31.2875   38.8682 H   0  0  0  0  0  0  0  0  0  0  0  0
   46.2515   30.7020   38.8682 H   0  0  0  0  0  0  0  0  0  0  0  0
   48.1263   32.3858   38.3752 H   0  0  0  0  0  0  0  0  0  0  0  0
   46.9789   31.7197   37.1642 H   0  0  0  0  0  0  0  0  0  0  0  0
   47.3669   33.4736   37.1642 H   0  0  0  0  0  0  0  0  0  0  0  0
   44.4640   34.2668   38.7002 H   0  0  0  0  0  0  0  0  0  0  0  0
   45.2824   33.9576   37.1259 H   0  0  0  0  0  0  0  0  0  0  0  0
   44.9305   31.0717   36.3421 H   0  0  0  0  0  0  0  0  0  0  0  0
   40.9037   31.0984   37.7824 H   0  0  0  0  0  0  0  0  0  0  0  0
   40.8352   33.0785   39.0567 H   0  0  0  0  0  0  0  0  0  0  0  0
   43.1497   35.0987   38.7490 H   0  0  0  0  0  0  0  0  0  0  0  0
   42.0747   34.7781   37.3723 H   0  0  0  0  0  0  0  0  0  0  0  0
   41.2796   36.6993   38.8190 H   0  0  0  0  0  0  0  0  0  0  0  0
   40.0887   35.3800   38.7480 H   0  0  0  0  0  0  0  0  0  0  0  0
   41.2253   36.4812   41.0590 H   0  0  0  0  0  0  0  0  0  0  0  0
   40.3455   34.8906   40.9274 H   0  0  0  0  0  0  0  0  0  0  0  0
   43.3387   35.3198   40.6967 H   0  0  0  0  0  0  0  0  0  0  0  0
   42.4245   34.6146   42.1045 H   0  0  0  0  0  0  0  0  0  0  0  0
   42.0236   32.6359   41.0433 H   0  0  0  0  0  0  0  0  0  0  0  0
   43.6054   33.0681   40.3031 H   0  0  0  0  0  0  0  0  0  0  0  0
  1 14  1  0
  1  6  1  0
  2 10  1  0
  3  2  2  0
  4  3  1  0
  5  6  1  0
  5  4  2  0
  6  7  2  0
  7  2  1  0
  8 13  2  0
  9  8  1  0
 10  9  2  0
 10 11  1  0
 11 12  2  0
 12 13  1  0
 15  1  1  0
 16  1  1  0
 17 16  1  0
 17 21  1  0
 18 17  2  0
 19 18  1  0
 19 20  2  0
 20 21  1  0
 21 22  1  0
 22 27  1  0
 23 22  1  0
 23 24  1  0
 24 25  1  0
 25 26  1  0
 27 26  1  0
  3 28  1  0
  4 29  1  0
  5 30  1  0
  7 31  1  0
  8 32  1  0
  9 33  1  0
 12 34  1  0
 14 35  1  0
 14 36  1  0
 14 37  1  0
 15 38  1  0
 15 39  1  0
 15 40  1  0
 16 41  1  0
 16 42  1  0
 18 43  1  0
 20 44  1  0
 22 45  1  0
 23 46  1  0
 23 47  1  0
 24 48  1  0
 24 49  1  0
 25 50  1  0
 25 51  1  0
 26 52  1  0
 26 53  1  0
 27 54  1  0
 27 55  1  0
M  ISO  8  28  14  29  14  30  14  31  14  32  14  33  14  34  14  35   8
M  ISO  8  36   8  37   8  38   8  39   8  40   8  41   8  42   8  43  14
M  ISO  8  44  14  45  13  46  13  47  13  48  13  49  13  50  13  51  13
M  ISO  4  52  13  53  13  54  13  55  13
M  END
>  <minimizedAffinity>  (1) 
-6.32703114

>  <minimizedRMSD>  (1) 
2.66454482

$$$$
