
     RDKit          3D

 47 50  0  0  0  0  0  0  0  0999 V2000
   46.3640   32.7430   38.7410 C   0  0  0  0  0  0  0  0  0  0  0  0
   46.6400   34.6480   41.9990 C   0  0  0  0  0  0  0  0  0  0  0  0
   47.8290   35.3220   41.8000 C   0  0  0  0  0  0  0  0  0  0  0  0
   48.5430   35.1620   40.6090 C   0  0  0  0  0  0  0  0  0  0  0  0
   48.0540   34.3180   39.6190 C   0  0  0  0  0  0  0  0  0  0  0  0
   46.8500   33.6260   39.8060 C   0  0  0  0  0  0  0  0  0  0  0  0
   46.2050   33.8330   40.9960 C   0  0  0  0  0  0  0  0  0  0  0  0
   44.4740   36.0480   44.7370 C   0  0  0  0  0  0  0  0  0  0  0  0
   45.1030   35.9480   43.4840 C   0  0  0  0  0  0  0  0  0  0  0  0
   45.9390   34.8550   43.2560 C   0  0  0  0  0  0  0  0  0  0  0  0
   46.1110   33.9430   44.2370 N   0  0  0  0  0  0  0  0  0  0  0  0
   45.4770   34.0830   45.4430 C   0  0  0  0  0  0  0  0  0  0  0  0
   44.6750   35.1220   45.6760 N   0  0  0  0  0  0  0  0  0  0  0  0
   45.7220   31.4800   39.2850 C   0  0  0  0  0  0  0  0  0  0  0  0
   47.6190   32.2930   37.9800 C   0  0  0  0  0  0  0  0  0  0  0  0
   45.3960   33.4030   37.8190 C   0  0  0  0  0  0  0  0  0  0  0  0
   44.2310   32.4970   37.5760 C   0  0  0  0  0  0  0  0  0  0  0  0
   44.2140   31.3600   36.7560 C   0  0  0  0  0  0  0  0  0  0  0  0
   42.9800   30.8040   36.7960 N   0  0  0  0  0  0  0  0  0  0  0  0
   42.2200   31.5660   37.6200 C   0  0  0  0  0  0  0  0  0  0  0  0
   42.9790   32.5860   38.0880 N   0  0  0  0  0  0  0  0  0  0  0  0
   42.4800   33.5660   38.9680 C   0  0  0  0  0  0  0  0  0  0  0  0
   41.6660   34.6430   38.6040 C   0  0  0  0  0  0  0  0  0  0  0  0
   41.2130   35.5660   39.5220 C   0  0  0  0  0  0  0  0  0  0  0  0
   41.5830   35.4010   40.8010 N   0  0  0  0  0  0  0  0  0  0  0  0
   42.3770   34.3460   41.1440 C   0  0  0  0  0  0  0  0  0  0  0  0
   42.8350   33.4210   40.2490 N   0  0  0  0  0  0  0  0  0  0  0  0
   48.2167   35.9892   42.5840 H   0  0  0  0  0  0  0  0  0  0  0  0
   49.4888   35.7023   40.4558 H   0  0  0  0  0  0  0  0  0  0  0  0
   48.6162   34.1923   38.6819 H   0  0  0  0  0  0  0  0  0  0  0  0
   45.2576   33.2975   41.1561 H   0  0  0  0  0  0  0  0  0  0  0  0
   43.8089   36.8989   44.9456 H   0  0  0  0  0  0  0  0  0  0  0  0
   44.9408   36.7090   42.7064 H   0  0  0  0  0  0  0  0  0  0  0  0
   45.6315   33.3289   46.2288 H   0  0  0  0  0  0  0  0  0  0  0  0
   45.7353   31.5062   40.3846 H   0  0  0  0  0  0  0  0  0  0  0  0
   44.6820   31.4161   38.9323 H   0  0  0  0  0  0  0  0  0  0  0  0
   46.2833   30.6022   38.9323 H   0  0  0  0  0  0  0  0  0  0  0  0
   48.4027   32.0120   38.6989 H   0  0  0  0  0  0  0  0  0  0  0  0
   47.3736   31.4268   37.3479 H   0  0  0  0  0  0  0  0  0  0  0  0
   47.9799   33.1177   37.3479 H   0  0  0  0  0  0  0  0  0  0  0  0
   45.0414   34.3407   38.2717 H   0  0  0  0  0  0  0  0  0  0  0  0
   45.8943   33.6191   36.8625 H   0  0  0  0  0  0  0  0  0  0  0  0
   45.0664   30.9804   36.1735 H   0  0  0  0  0  0  0  0  0  0  0  0
   41.1634   31.3862   37.8674 H   0  0  0  0  0  0  0  0  0  0  0  0
   41.3772   34.7576   37.5488 H   0  0  0  0  0  0  0  0  0  0  0  0
   40.5721   36.4065   39.2173 H   0  0  0  0  0  0  0  0  0  0  0  0
   42.6644   34.2339   42.1999 H   0  0  0  0  0  0  0  0  0  0  0  0
  1 14  1  0
  1  6  1  0
  2 10  1  0
  3  2  2  0
  4  3  1  0
  5  6  1  0
  5  4  2  0
  6  7  2  0
  7  2  1  0
  8 13  2  0
  9  8  1  0
 10  9  2  0
 10 11  1  0
 11 12  2  0
 12 13  1  0
 15  1  1  0
 16  1  1  0
 17 16  1  0
 17 21  1  0
 18 19  1  0
 18 17  2  0
 19 20  2  0
 20 21  1  0
 21 22  1  0
 22 27  1  0
 23 22  2  0
 23 24  1  0
 24 25  2  0
 25 26  1  0
 27 26  2  0
  3 28  1  0
  4 29  1  0
  5 30  1  0
  7 31  1  0
  8 32  1  0
  9 33  1  0
 12 34  1  0
 14 35  1  0
 14 36  1  0
 14 37  1  0
 15 38  1  0
 15 39  1  0
 15 40  1  0
 16 41  1  0
 16 42  1  0
 18 43  1  0
 20 44  1  0
 23 45  1  0
 24 46  1  0
 26 47  1  0
M  ISO  8  28  14  29  14  30  14  31  14  32  14  33  14  34  14  35   8
M  ISO  8  36   8  37   8  38   8  39   8  40   8  41   8  42   8  43  14
M  ISO  4  44  14  45  14  46  14  47  14
M  END
>  <minimizedAffinity>  (1) 
-6.21966267

>  <minimizedRMSD>  (1) 
2.68140268

$$$$
