
     RDKit          3D

 46 49  0  0  0  0  0  0  0  0999 V2000
   46.5740   33.1570   38.5870 C   0  0  0  0  0  0  0  0  0  0  0  0
   46.7930   34.7640   42.0110 C   0  0  0  0  0  0  0  0  0  0  0  0
   48.0180   35.3900   41.9120 C   0  0  0  0  0  0  0  0  0  0  0  0
   48.7710   35.2960   40.7490 C   0  0  0  0  0  0  0  0  0  0  0  0
   48.2970   34.5660   39.6640 C   0  0  0  0  0  0  0  0  0  0  0  0
   47.0570   33.9230   39.7430 C   0  0  0  0  0  0  0  0  0  0  0  0
   46.3660   34.0570   40.9190 C   0  0  0  0  0  0  0  0  0  0  0  0
   44.4880   35.9300   44.7360 C   0  0  0  0  0  0  0  0  0  0  0  0
   45.1460   35.9200   43.4960 C   0  0  0  0  0  0  0  0  0  0  0  0
   46.0460   34.8940   43.2470 C   0  0  0  0  0  0  0  0  0  0  0  0
   46.2390   33.9630   44.2070 N   0  0  0  0  0  0  0  0  0  0  0  0
   45.5810   34.0070   45.4000 C   0  0  0  0  0  0  0  0  0  0  0  0
   44.7200   34.9840   45.6440 N   0  0  0  0  0  0  0  0  0  0  0  0
   45.0710   32.9670   38.6000 C   0  0  0  0  0  0  0  0  0  0  0  0
   47.2030   31.7590   38.7390 C   0  0  0  0  0  0  0  0  0  0  0  0
   46.9630   33.7550   37.2750 C   0  0  0  0  0  0  0  0  0  0  0  0
   47.5490   32.6900   36.3930 C   0  0  0  0  0  0  0  0  0  0  0  0
   48.8530   32.2110   36.3920 C   0  0  0  0  0  0  0  0  0  0  0  0
   48.9670   31.2480   35.4360 N   0  0  0  0  0  0  0  0  0  0  0  0
   47.7640   31.1190   34.8450 C   0  0  0  0  0  0  0  0  0  0  0  0
   46.8990   31.9900   35.4200 N   0  0  0  0  0  0  0  0  0  0  0  0
   45.5150   32.1150   35.0140 C   0  0  0  0  0  0  0  0  0  0  0  0
   44.8870   31.1340   34.1080 C   0  0  0  0  0  0  0  0  0  0  0  0
   44.6200   30.9830   35.6030 C   0  0  0  0  0  0  0  0  0  0  0  0
   48.4028   35.9701   42.7637 H   0  0  0  0  0  0  0  0  0  0  0  0
   49.7462   35.8009   40.6855 H   0  0  0  0  0  0  0  0  0  0  0  0
   48.8966   34.4943   38.7446 H   0  0  0  0  0  0  0  0  0  0  0  0
   45.3894   33.5560   40.9914 H   0  0  0  0  0  0  0  0  0  0  0  0
   43.7695   36.7319   44.9611 H   0  0  0  0  0  0  0  0  0  0  0  0
   44.9541   36.7010   42.7455 H   0  0  0  0  0  0  0  0  0  0  0  0
   45.7646   33.2324   46.1591 H   0  0  0  0  0  0  0  0  0  0  0  0
   44.7161   32.9221   39.6402 H   0  0  0  0  0  0  0  0  0  0  0  0
   44.5902   33.8115   38.0846 H   0  0  0  0  0  0  0  0  0  0  0  0
   44.8155   32.0294   38.0846 H   0  0  0  0  0  0  0  0  0  0  0  0
   47.3107   31.5196   39.8072 H   0  0  0  0  0  0  0  0  0  0  0  0
   46.5546   31.0111   38.2592 H   0  0  0  0  0  0  0  0  0  0  0  0
   48.1928   31.7481   38.2592 H   0  0  0  0  0  0  0  0  0  0  0  0
   46.0741   34.1845   36.7899 H   0  0  0  0  0  0  0  0  0  0  0  0
   47.7094   34.5461   37.4397 H   0  0  0  0  0  0  0  0  0  0  0  0
   49.6612   32.5536   37.0550 H   0  0  0  0  0  0  0  0  0  0  0  0
   47.5228   30.4213   34.0295 H   0  0  0  0  0  0  0  0  0  0  0  0
   45.5476   33.2140   34.9810 H   0  0  0  0  0  0  0  0  0  0  0  0
   44.0732   31.4545   33.4409 H   0  0  0  0  0  0  0  0  0  0  0  0
   45.2725   30.4585   33.3301 H   0  0  0  0  0  0  0  0  0  0  0  0
   45.0698   30.1539   36.1689 H   0  0  0  0  0  0  0  0  0  0  0  0
   43.7318   30.9282   36.2496 H   0  0  0  0  0  0  0  0  0  0  0  0
  1 14  1  0
  1 15  1  0
  1  6  1  0
  2 10  1  0
  3  2  2  0
  4  3  1  0
  5  6  1  0
  5  4  2  0
  6  7  2  0
  7  2  1  0
  8 13  2  0
  9  8  1  0
 10  9  2  0
 10 11  1  0
 11 12  2  0
 12 13  1  0
 16  1  1  0
 17 16  1  0
 18 17  2  0
 19 18  1  0
 20 21  1  0
 20 19  2  0
 21 17  1  0
 22 21  1  0
 22 24  1  0
 23 22  1  0
 23 24  1  0
  3 25  1  0
  4 26  1  0
  5 27  1  0
  7 28  1  0
  8 29  1  0
  9 30  1  0
 12 31  1  0
 14 32  1  0
 14 33  1  0
 14 34  1  0
 15 35  1  0
 15 36  1  0
 15 37  1  0
 16 38  1  0
 16 39  1  0
 18 40  1  0
 20 41  1  0
 22 42  1  0
 23 43  1  0
 23 44  1  0
 24 45  1  0
 24 46  1  0
M  ISO  8  25  14  26  14  27  14  28  14  29  14  30  14  31  14  32   8
M  ISO  8  33   8  34   8  35   8  36   8  37   8  38   8  39   8  40  14
M  ISO  6  41  14  42  13  43  13  44  13  45  13  46  13
M  END
>  <minimizedAffinity>  (1) 
-5.86580181

>  <minimizedRMSD>  (1) 
1.63372242

$$$$
