
     RDKit          3D

 47 50  0  0  0  0  0  0  0  0999 V2000
   46.3610   32.7250   38.7460 C   0  0  0  0  0  0  0  0  0  0  0  0
   46.6400   34.6640   41.9850 C   0  0  0  0  0  0  0  0  0  0  0  0
   47.8250   35.3250   41.7840 C   0  0  0  0  0  0  0  0  0  0  0  0
   48.5390   35.1480   40.6030 C   0  0  0  0  0  0  0  0  0  0  0  0
   48.0610   34.2990   39.6120 C   0  0  0  0  0  0  0  0  0  0  0  0
   46.8480   33.6180   39.8090 C   0  0  0  0  0  0  0  0  0  0  0  0
   46.1980   33.8370   40.9890 C   0  0  0  0  0  0  0  0  0  0  0  0
   44.4800   36.0340   44.7410 C   0  0  0  0  0  0  0  0  0  0  0  0
   45.0990   35.9540   43.4820 C   0  0  0  0  0  0  0  0  0  0  0  0
   45.9290   34.8830   43.2370 C   0  0  0  0  0  0  0  0  0  0  0  0
   46.1070   33.9570   44.2270 N   0  0  0  0  0  0  0  0  0  0  0  0
   45.4830   34.0750   45.4370 C   0  0  0  0  0  0  0  0  0  0  0  0
   44.6830   35.1060   45.6760 N   0  0  0  0  0  0  0  0  0  0  0  0
   45.6820   31.4870   39.3080 C   0  0  0  0  0  0  0  0  0  0  0  0
   47.6080   32.2570   37.9900 C   0  0  0  0  0  0  0  0  0  0  0  0
   45.4050   33.3920   37.8020 C   0  0  0  0  0  0  0  0  0  0  0  0
   44.2370   32.4870   37.5520 C   0  0  0  0  0  0  0  0  0  0  0  0
   44.1980   31.3760   36.6970 C   0  0  0  0  0  0  0  0  0  0  0  0
   42.9650   30.8190   36.7500 N   0  0  0  0  0  0  0  0  0  0  0  0
   42.2310   31.5560   37.6200 C   0  0  0  0  0  0  0  0  0  0  0  0
   43.0010   32.5630   38.1030 N   0  0  0  0  0  0  0  0  0  0  0  0
   42.5240   33.5240   39.0360 C   0  0  0  0  0  0  0  0  0  0  0  0
   41.7050   34.5150   38.5390 C   0  0  0  0  0  0  0  0  0  0  0  0
   41.1930   35.4990   39.3930 C   0  0  0  0  0  0  0  0  0  0  0  0
   41.5010   35.4820   40.7140 N   0  0  0  0  0  0  0  0  0  0  0  0
   42.3100   34.4880   41.1570 C   0  0  0  0  0  0  0  0  0  0  0  0
   42.8130   33.5310   40.3530 N   0  0  0  0  0  0  0  0  0  0  0  0
   48.2133   35.9993   42.5615 H   0  0  0  0  0  0  0  0  0  0  0  0
   49.4880   35.6835   40.4527 H   0  0  0  0  0  0  0  0  0  0  0  0
   48.6284   34.1611   38.6798 H   0  0  0  0  0  0  0  0  0  0  0  0
   45.2470   33.3086   41.1514 H   0  0  0  0  0  0  0  0  0  0  0  0
   43.8132   36.8811   44.9597 H   0  0  0  0  0  0  0  0  0  0  0  0
   44.9257   36.7236   42.7154 H   0  0  0  0  0  0  0  0  0  0  0  0
   45.6443   33.3136   46.2144 H   0  0  0  0  0  0  0  0  0  0  0  0
   45.7026   31.5246   40.4072 H   0  0  0  0  0  0  0  0  0  0  0  0
   44.6385   31.4521   38.9618 H   0  0  0  0  0  0  0  0  0  0  0  0
   46.2134   30.5883   38.9618 H   0  0  0  0  0  0  0  0  0  0  0  0
   48.3858   31.9651   38.7109 H   0  0  0  0  0  0  0  0  0  0  0  0
   47.3513   31.3940   37.3580 H   0  0  0  0  0  0  0  0  0  0  0  0
   47.9825   33.0758   37.3580 H   0  0  0  0  0  0  0  0  0  0  0  0
   45.0504   34.3346   38.2444 H   0  0  0  0  0  0  0  0  0  0  0  0
   45.9158   33.6028   36.8509 H   0  0  0  0  0  0  0  0  0  0  0  0
   45.0352   31.0148   36.0817 H   0  0  0  0  0  0  0  0  0  0  0  0
   41.1815   31.3678   37.8902 H   0  0  0  0  0  0  0  0  0  0  0  0
   41.4530   34.5327   37.4684 H   0  0  0  0  0  0  0  0  0  0  0  0
   40.5395   36.2877   38.9920 H   0  0  0  0  0  0  0  0  0  0  0  0
   42.5684   34.4617   42.2259 H   0  0  0  0  0  0  0  0  0  0  0  0
  1 14  1  0
  1  6  1  0
  2 10  1  0
  3  2  2  0
  4  3  1  0
  5  6  1  0
  5  4  2  0
  6  7  2  0
  7  2  1  0
  8 13  2  0
  9  8  1  0
 10  9  2  0
 10 11  1  0
 11 12  2  0
 12 13  1  0
 15  1  1  0
 16  1  1  0
 17 16  1  0
 17 21  1  0
 18 19  1  0
 18 17  2  0
 19 20  2  0
 20 21  1  0
 21 22  1  0
 22 27  1  0
 23 22  2  0
 23 24  1  0
 24 25  2  0
 25 26  1  0
 27 26  2  0
  3 28  1  0
  4 29  1  0
  5 30  1  0
  7 31  1  0
  8 32  1  0
  9 33  1  0
 12 34  1  0
 14 35  1  0
 14 36  1  0
 14 37  1  0
 15 38  1  0
 15 39  1  0
 15 40  1  0
 16 41  1  0
 16 42  1  0
 18 43  1  0
 20 44  1  0
 23 45  1  0
 24 46  1  0
 26 47  1  0
M  ISO  8  28  14  29  14  30  14  31  14  32  14  33  14  34  14  35   8
M  ISO  8  36   8  37   8  38   8  39   8  40   8  41   8  42   8  43  14
M  ISO  4  44  14  45  14  46  14  47  14
M  END
>  <minimizedAffinity>  (1) 
-6.23707438

>  <minimizedRMSD>  (1) 
2.7707777

$$$$
