
     RDKit          3D

 46 49  0  0  0  0  0  0  0  0999 V2000
   46.4990   32.7090   38.6870 C   0  0  0  0  0  0  0  0  0  0  0  0
   46.6860   34.6870   41.9090 C   0  0  0  0  0  0  0  0  0  0  0  0
   47.8700   35.3680   41.7140 C   0  0  0  0  0  0  0  0  0  0  0  0
   48.6100   35.1910   40.5470 C   0  0  0  0  0  0  0  0  0  0  0  0
   48.1570   34.3210   39.5600 C   0  0  0  0  0  0  0  0  0  0  0  0
   46.9590   33.6220   39.7380 C   0  0  0  0  0  0  0  0  0  0  0  0
   46.2820   33.8440   40.9120 C   0  0  0  0  0  0  0  0  0  0  0  0
   44.5080   36.0970   44.6230 C   0  0  0  0  0  0  0  0  0  0  0  0
   45.1500   35.9990   43.3780 C   0  0  0  0  0  0  0  0  0  0  0  0
   45.9650   34.9130   43.1430 C   0  0  0  0  0  0  0  0  0  0  0  0
   46.1050   33.9890   44.1320 N   0  0  0  0  0  0  0  0  0  0  0  0
   45.4650   34.1170   45.3300 C   0  0  0  0  0  0  0  0  0  0  0  0
   44.6800   35.1620   45.5580 N   0  0  0  0  0  0  0  0  0  0  0  0
   45.8440   31.4590   39.2420 C   0  0  0  0  0  0  0  0  0  0  0  0
   47.7750   32.2470   37.9620 C   0  0  0  0  0  0  0  0  0  0  0  0
   45.5540   33.3450   37.7230 C   0  0  0  0  0  0  0  0  0  0  0  0
   44.3320   32.5000   37.5830 C   0  0  0  0  0  0  0  0  0  0  0  0
   44.1150   31.4610   36.6660 C   0  0  0  0  0  0  0  0  0  0  0  0
   42.8720   30.9470   36.8740 N   0  0  0  0  0  0  0  0  0  0  0  0
   42.3100   31.6390   37.8930 C   0  0  0  0  0  0  0  0  0  0  0  0
   43.1940   32.5730   38.3160 N   0  0  0  0  0  0  0  0  0  0  0  0
   42.9060   33.4720   39.3810 C   0  0  0  0  0  0  0  0  0  0  0  0
   42.6260   34.8240   39.2230 C   0  0  0  0  0  0  0  0  0  0  0  0
   42.4040   35.3510   40.4660 C   0  0  0  0  0  0  0  0  0  0  0  0
   42.5580   34.2880   41.3560 C   0  0  0  0  0  0  0  0  0  0  0  0
   42.8490   33.2190   40.6580 O   0  0  0  0  0  0  0  0  0  0  0  0
   48.2339   36.0587   42.4890 H   0  0  0  0  0  0  0  0  0  0  0  0
   49.5530   35.7394   40.4057 H   0  0  0  0  0  0  0  0  0  0  0  0
   48.7419   34.1829   38.6387 H   0  0  0  0  0  0  0  0  0  0  0  0
   45.3382   33.2993   41.0621 H   0  0  0  0  0  0  0  0  0  0  0  0
   43.8541   36.9570   44.8298 H   0  0  0  0  0  0  0  0  0  0  0  0
   45.0057   36.7713   42.6081 H   0  0  0  0  0  0  0  0  0  0  0  0
   45.6001   33.3520   46.1088 H   0  0  0  0  0  0  0  0  0  0  0  0
   45.8618   31.4930   40.3413 H   0  0  0  0  0  0  0  0  0  0  0  0
   44.8020   31.4055   38.8936 H   0  0  0  0  0  0  0  0  0  0  0  0
   46.3931   30.5718   38.8936 H   0  0  0  0  0  0  0  0  0  0  0  0
   48.5386   31.9705   38.7040 H   0  0  0  0  0  0  0  0  0  0  0  0
   47.5436   31.3756   37.3319 H   0  0  0  0  0  0  0  0  0  0  0  0
   48.1551   33.0646   37.3319 H   0  0  0  0  0  0  0  0  0  0  0  0
   45.2692   34.3408   38.0935 H   0  0  0  0  0  0  0  0  0  0  0  0
   46.0441   33.4411   36.7429 H   0  0  0  0  0  0  0  0  0  0  0  0
   44.8311   31.1182   35.9046 H   0  0  0  0  0  0  0  0  0  0  0  0
   41.3049   31.4707   38.3072 H   0  0  0  0  0  0  0  0  0  0  0  0
   42.5894   35.3720   38.2699 H   0  0  0  0  0  0  0  0  0  0  0  0
   42.1561   36.3941   40.7119 H   0  0  0  0  0  0  0  0  0  0  0  0
   42.4535   34.3387   42.4499 H   0  0  0  0  0  0  0  0  0  0  0  0
  1 14  1  0
  1  6  1  0
  2 10  1  0
  3  2  2  0
  4  3  1  0
  5  6  1  0
  5  4  2  0
  6  7  2  0
  7  2  1  0
  8 13  2  0
  9  8  1  0
 10  9  2  0
 10 11  1  0
 11 12  2  0
 12 13  1  0
 15  1  1  0
 16  1  1  0
 17 16  1  0
 17 21  1  0
 18 19  1  0
 18 17  2  0
 19 20  2  0
 20 21  1  0
 21 22  1  0
 22 26  1  0
 23 22  2  0
 23 24  1  0
 24 25  2  0
 26 25  1  0
  3 27  1  0
  4 28  1  0
  5 29  1  0
  7 30  1  0
  8 31  1  0
  9 32  1  0
 12 33  1  0
 14 34  1  0
 14 35  1  0
 14 36  1  0
 15 37  1  0
 15 38  1  0
 15 39  1  0
 16 40  1  0
 16 41  1  0
 18 42  1  0
 20 43  1  0
 23 44  1  0
 24 45  1  0
 25 46  1  0
M  ISO  8  27  14  28  14  29  14  30  14  31  14  32  14  33  14  34   8
M  ISO  8  35   8  36   8  37   8  38   8  39   8  40   8  41   8  42  14
M  ISO  4  43  14  44  14  45  14  46  14
M  END
>  <minimizedAffinity>  (1) 
-5.98419905

>  <minimizedRMSD>  (1) 
2.70341825

$$$$
