
     RDKit          3D

 40 44  0  0  1  0  0  0  0  0999 V2000
   48.0960   33.3800   39.0950 C   0  0  2  0  0  0  0  0  0  0  0  0
   48.2520   34.2950   37.8640 C   0  0  0  0  0  0  0  0  0  0  0  0
   47.9480   32.8190   37.7050 C   0  0  1  0  0  0  0  0  0  0  0  0
   45.6370   34.0650   41.6690 N   0  0  0  0  0  0  0  0  0  0  0  0
   44.8160   33.8550   40.6030 C   0  0  0  0  0  0  0  0  0  0  0  0
   45.5410   33.5770   39.5210 N   0  0  0  0  0  0  0  0  0  0  0  0
   46.8600   33.6130   39.9160 C   0  0  0  0  0  0  0  0  0  0  0  0
   46.8420   33.9070   41.1980 N   0  0  0  0  0  0  0  0  0  0  0  0
   44.7570   35.6650   43.2450 C   0  0  0  0  0  0  0  0  0  0  0  0
   45.3650   34.3890   43.0250 C   0  0  0  0  0  0  0  0  0  0  0  0
   45.6240   33.6140   44.1080 C   0  0  0  0  0  0  0  0  0  0  0  0
   45.2920   34.0970   45.3290 N   0  0  0  0  0  0  0  0  0  0  0  0
   44.7200   35.3030   45.5180 C   0  0  0  0  0  0  0  0  0  0  0  0
   44.4540   36.0860   44.4530 N   0  0  0  0  0  0  0  0  0  0  0  0
   48.9530   31.8720   37.2620 C   0  0  0  0  0  0  0  0  0  0  0  0
   48.5650   30.6860   37.0060 O   0  0  0  0  0  0  0  0  0  0  0  0
   50.2730   32.2170   37.1110 O   0  0  0  0  0  0  0  0  0  0  0  0
   53.1410   31.5120   38.9690 N   0  0  0  0  0  0  0  0  0  0  0  0
   52.5110   31.9600   37.8670 N   0  0  0  0  0  0  0  0  0  0  0  0
   51.1800   31.8360   38.0750 C   0  0  0  0  0  0  0  0  0  0  0  0
   50.9510   31.3080   39.3180 C   0  0  0  0  0  0  0  0  0  0  0  0
   52.2200   31.1130   39.8600 C   0  0  0  0  0  0  0  0  0  0  0  0
   52.3510   30.5640   41.1770 N   0  0  0  0  0  0  0  0  0  0  0  0
   51.4770   30.8030   42.1890 C   0  0  0  0  0  0  0  0  0  0  0  0
   51.9540   30.1000   43.2710 C   0  0  0  0  0  0  0  0  0  0  0  0
   53.0660   29.4690   42.9170 N   0  0  0  0  0  0  0  0  0  0  0  0
   53.3150   29.7470   41.6410 C   0  0  0  0  0  0  0  0  0  0  0  0
   48.7050   33.1006   39.9674 H   0  0  0  0  0  0  0  0  0  0  0  0
   47.4822   35.0459   37.6324 H   0  0  0  0  0  0  0  0  0  0  0  0
   49.0273   34.9800   37.4901 H   0  0  0  0  0  0  0  0  0  0  0  0
   47.1739   32.2778   37.1413 H   0  0  0  0  0  0  0  0  0  0  0  0
   43.7176   33.9072   40.6314 H   0  0  0  0  0  0  0  0  0  0  0  0
   44.5374   36.3103   42.3816 H   0  0  0  0  0  0  0  0  0  0  0  0
   46.0895   32.6235   43.9978 H   0  0  0  0  0  0  0  0  0  0  0  0
   44.4721   35.6457   46.5334 H   0  0  0  0  0  0  0  0  0  0  0  0
   54.1614   31.4806   39.1058 H   0  0  0  0  0  0  0  0  0  0  0  0
   49.9800   31.0868   39.7852 H   0  0  0  0  0  0  0  0  0  0  0  0
   50.5738   31.4297   42.1511 H   0  0  0  0  0  0  0  0  0  0  0  0
   51.4891   30.0665   44.2674 H   0  0  0  0  0  0  0  0  0  0  0  0
   54.1694   29.3708   41.0593 H   0  0  0  0  0  0  0  0  0  0  0  0
  1  7  1  0
  2  1  1  0
  3  2  1  0
  3  1  1  0
  4 10  1  0
  5  4  1  0
  6  7  1  0
  6  5  2  0
  7  8  2  0
  8  4  1  0
  9 14  2  0
 10  9  1  0
 10 11  2  0
 11 12  1  0
 12 13  2  0
 14 13  1  0
 15  3  1  0
 16 15  2  0
 17 15  1  0
 17 20  1  0
 18 22  1  0
 19 20  2  0
 19 18  1  0
 20 21  1  0
 21 22  2  0
 22 23  1  0
 23 27  1  0
 23 24  1  0
 24 25  2  0
 26 25  1  0
 27 26  2  0
  1 28  1  1
  2 29  1  0
  2 30  1  0
  3 31  1  1
  5 32  1  0
  9 33  1  0
 11 34  1  0
 13 35  1  0
 18 36  1  0
 21 37  1  0
 24 38  1  0
 25 39  1  0
 27 40  1  0
M  ISO  8  28  13  29  13  30  13  31  13  32  14  33  14  34  14  35  14
M  ISO  5  36   9  37  14  38  14  39  14  40  14
M  END
>  <minimizedAffinity>  (1) 
-4.8662715

>  <minimizedRMSD>  (1) 
0.40796119

$$$$
