
     RDKit          3D

 47 51  0  0  1  0  0  0  0  0999 V2000
   48.0890   33.3830   39.0890 C   0  0  2  0  0  0  0  0  0  0  0  0
   48.2520   34.3160   37.8730 C   0  0  0  0  0  0  0  0  0  0  0  0
   47.9340   32.8490   37.6850 C   0  0  1  0  0  0  0  0  0  0  0  0
   45.6420   34.0630   41.6730 N   0  0  0  0  0  0  0  0  0  0  0  0
   44.8130   33.8460   40.6140 C   0  0  0  0  0  0  0  0  0  0  0  0
   45.5320   33.5680   39.5220 N   0  0  0  0  0  0  0  0  0  0  0  0
   46.8540   33.6110   39.9090 C   0  0  0  0  0  0  0  0  0  0  0  0
   46.8360   33.9090   41.1920 N   0  0  0  0  0  0  0  0  0  0  0  0
   44.7600   35.6690   43.2420 C   0  0  0  0  0  0  0  0  0  0  0  0
   45.3660   34.3890   43.0240 C   0  0  0  0  0  0  0  0  0  0  0  0
   45.6230   33.6130   44.1080 C   0  0  0  0  0  0  0  0  0  0  0  0
   45.2830   34.1120   45.3300 N   0  0  0  0  0  0  0  0  0  0  0  0
   44.7210   35.3050   45.5090 C   0  0  0  0  0  0  0  0  0  0  0  0
   44.4590   36.0830   44.4530 N   0  0  0  0  0  0  0  0  0  0  0  0
   48.9190   31.8960   37.2250 C   0  0  0  0  0  0  0  0  0  0  0  0
   48.5240   30.7190   36.9440 O   0  0  0  0  0  0  0  0  0  0  0  0
   50.2510   32.2330   37.0810 O   0  0  0  0  0  0  0  0  0  0  0  0
   53.0920   31.5120   38.9720 N   0  0  0  0  0  0  0  0  0  0  0  0
   52.4760   31.9610   37.8620 N   0  0  0  0  0  0  0  0  0  0  0  0
   51.1420   31.8470   38.0570 C   0  0  0  0  0  0  0  0  0  0  0  0
   50.8960   31.3220   39.2960 C   0  0  0  0  0  0  0  0  0  0  0  0
   52.1610   31.1200   39.8540 C   0  0  0  0  0  0  0  0  0  0  0  0
   52.4030   30.5860   41.1470 N   0  0  0  0  0  0  0  0  0  0  0  0
   53.5690   29.7580   41.3790 C   0  0  0  0  0  0  0  0  0  0  0  0
   53.2430   28.5490   42.2240 C   0  0  0  0  0  0  0  0  0  0  0  0
   52.2380   28.8020   43.2080 N   0  0  0  0  0  0  0  0  0  0  0  0
   51.0620   29.4660   42.7310 C   0  0  0  0  0  0  0  0  0  0  0  0
   51.4980   30.8540   42.2500 C   0  0  0  0  0  0  0  0  0  0  0  0
   48.6961   33.0842   39.9563 H   0  0  0  0  0  0  0  0  0  0  0  0
   47.4893   35.0784   37.6560 H   0  0  0  0  0  0  0  0  0  0  0  0
   49.0341   34.9994   37.5108 H   0  0  0  0  0  0  0  0  0  0  0  0
   47.1550   32.3286   37.1085 H   0  0  0  0  0  0  0  0  0  0  0  0
   43.7146   33.8926   40.6519 H   0  0  0  0  0  0  0  0  0  0  0  0
   44.5426   36.3172   42.3803 H   0  0  0  0  0  0  0  0  0  0  0  0
   46.0871   32.6211   44.0042 H   0  0  0  0  0  0  0  0  0  0  0  0
   44.4725   35.6505   46.5233 H   0  0  0  0  0  0  0  0  0  0  0  0
   54.1107   31.4756   39.1194 H   0  0  0  0  0  0  0  0  0  0  0  0
   49.9185   31.1065   39.7521 H   0  0  0  0  0  0  0  0  0  0  0  0
   53.9625   29.4185   40.4095 H   0  0  0  0  0  0  0  0  0  0  0  0
   54.3129   30.3612   41.9201 H   0  0  0  0  0  0  0  0  0  0  0  0
   52.8888   27.7453   41.5617 H   0  0  0  0  0  0  0  0  0  0  0  0
   54.1615   28.2690   42.7606 H   0  0  0  0  0  0  0  0  0  0  0  0
   51.9513   27.8975   43.6088 H   0  0  0  0  0  0  0  0  0  0  0  0
   50.6190   28.8993   41.8988 H   0  0  0  0  0  0  0  0  0  0  0  0
   50.3050   29.5446   43.5252 H   0  0  0  0  0  0  0  0  0  0  0  0
   52.0144   31.3999   43.0533 H   0  0  0  0  0  0  0  0  0  0  0  0
   50.6453   31.4808   41.9500 H   0  0  0  0  0  0  0  0  0  0  0  0
  1  7  1  0
  2  1  1  0
  3  2  1  0
  3  1  1  0
  4 10  1  0
  5  4  1  0
  6  7  1  0
  6  5  2  0
  7  8  2  0
  8  4  1  0
  9 14  2  0
 10  9  1  0
 10 11  2  0
 11 12  1  0
 12 13  2  0
 14 13  1  0
 15  3  1  0
 16 15  2  0
 17 15  1  0
 17 20  1  0
 18 22  1  0
 19 20  2  0
 19 18  1  0
 20 21  1  0
 21 22  2  0
 22 23  1  0
 23 24  1  0
 23 28  1  0
 24 25  1  0
 25 26  1  0
 27 26  1  0
 28 27  1  0
  1 29  1  1
  2 30  1  0
  2 31  1  0
  3 32  1  1
  5 33  1  0
  9 34  1  0
 11 35  1  0
 13 36  1  0
 18 37  1  0
 21 38  1  0
 24 39  1  0
 24 40  1  0
 25 41  1  0
 25 42  1  0
 26 43  1  0
 27 44  1  0
 27 45  1  0
 28 46  1  0
 28 47  1  0
M  ISO  8  29  13  30  13  31  13  32  13  33  14  34  14  35  14  36  14
M  ISO  8  37   9  38  14  39  13  40  13  41  13  42  13  43   5  44  13
M  ISO  3  45  13  46  13  47  13
M  END
>  <minimizedAffinity>  (1) 
-4.84027243

>  <minimizedRMSD>  (1) 
0.744523823

$$$$
