
     RDKit          3D

 42 44  0  0  0  0  0  0  0  0999 V2000
   46.7420   33.2020   38.6160 C   0  0  0  0  0  0  0  0  0  0  0  0
   46.8430   34.8180   42.0370 C   0  0  0  0  0  0  0  0  0  0  0  0
   48.0520   35.4810   41.9630 C   0  0  0  0  0  0  0  0  0  0  0  0
   48.8310   35.4060   40.8120 C   0  0  0  0  0  0  0  0  0  0  0  0
   48.4000   34.6600   39.7200 C   0  0  0  0  0  0  0  0  0  0  0  0
   47.1680   33.9810   39.7880 C   0  0  0  0  0  0  0  0  0  0  0  0
   46.4560   34.0940   40.9390 C   0  0  0  0  0  0  0  0  0  0  0  0
   44.4870   35.9230   44.7440 C   0  0  0  0  0  0  0  0  0  0  0  0
   45.1650   35.9360   43.5120 C   0  0  0  0  0  0  0  0  0  0  0  0
   46.0710   34.9310   43.2620 C   0  0  0  0  0  0  0  0  0  0  0  0
   46.2660   33.9740   44.2200 N   0  0  0  0  0  0  0  0  0  0  0  0
   45.5910   33.9960   45.3990 C   0  0  0  0  0  0  0  0  0  0  0  0
   44.7110   34.9680   45.6460 N   0  0  0  0  0  0  0  0  0  0  0  0
   45.2380   32.9650   38.6080 C   0  0  0  0  0  0  0  0  0  0  0  0
   47.4000   31.8210   38.7760 C   0  0  0  0  0  0  0  0  0  0  0  0
   47.1210   33.8120   37.3080 C   0  0  0  0  0  0  0  0  0  0  0  0
   47.7100   32.7650   36.4120 C   0  0  0  0  0  0  0  0  0  0  0  0
   49.0280   32.3290   36.3660 C   0  0  0  0  0  0  0  0  0  0  0  0
   49.1380   31.3640   35.4090 N   0  0  0  0  0  0  0  0  0  0  0  0
   47.9130   31.1950   34.8590 C   0  0  0  0  0  0  0  0  0  0  0  0
   47.0490   32.0430   35.4650 N   0  0  0  0  0  0  0  0  0  0  0  0
   45.6490   32.1150   35.1010 C   0  0  0  0  0  0  0  0  0  0  0  0
   48.4024   36.0735   42.8210 H   0  0  0  0  0  0  0  0  0  0  0  0
   49.7920   35.9392   40.7657 H   0  0  0  0  0  0  0  0  0  0  0  0
   49.0163   34.6009   38.8108 H   0  0  0  0  0  0  0  0  0  0  0  0
   45.4940   33.5634   40.9946 H   0  0  0  0  0  0  0  0  0  0  0  0
   43.7581   36.7160   44.9673 H   0  0  0  0  0  0  0  0  0  0  0  0
   44.9766   36.7261   42.7702 H   0  0  0  0  0  0  0  0  0  0  0  0
   45.7701   33.2124   46.1499 H   0  0  0  0  0  0  0  0  0  0  0  0
   44.8704   32.9071   39.6432 H   0  0  0  0  0  0  0  0  0  0  0  0
   44.7387   33.7955   38.0875 H   0  0  0  0  0  0  0  0  0  0  0  0
   45.0183   32.0212   38.0875 H   0  0  0  0  0  0  0  0  0  0  0  0
   47.5105   31.5892   39.8456 H   0  0  0  0  0  0  0  0  0  0  0  0
   46.7693   31.0568   38.2984 H   0  0  0  0  0  0  0  0  0  0  0  0
   48.3909   31.8294   38.2984 H   0  0  0  0  0  0  0  0  0  0  0  0
   46.2265   34.2395   36.8314 H   0  0  0  0  0  0  0  0  0  0  0  0
   47.8644   34.6046   37.4784 H   0  0  0  0  0  0  0  0  0  0  0  0
   49.8481   32.7010   36.9977 H   0  0  0  0  0  0  0  0  0  0  0  0
   47.6617   30.4877   34.0549 H   0  0  0  0  0  0  0  0  0  0  0  0
   45.0343   32.1466   36.0127 H   0  0  0  0  0  0  0  0  0  0  0  0
   45.4708   33.0235   34.5069 H   0  0  0  0  0  0  0  0  0  0  0  0
   45.3786   31.2296   34.5069 H   0  0  0  0  0  0  0  0  0  0  0  0
  1 15  1  0
  1  6  1  0
  2 10  1  0
  3  2  2  0
  4  3  1  0
  5  6  1  0
  5  4  2  0
  6  7  2  0
  7  2  1  0
  8 13  2  0
  9  8  1  0
 10  9  2  0
 10 11  1  0
 11 12  2  0
 12 13  1  0
 14  1  1  0
 16  1  1  0
 17 16  1  0
 18 17  2  0
 19 18  1  0
 20 19  2  0
 20 21  1  0
 21 17  1  0
 22 21  1  0
  3 23  1  0
  4 24  1  0
  5 25  1  0
  7 26  1  0
  8 27  1  0
  9 28  1  0
 12 29  1  0
 14 30  1  0
 14 31  1  0
 14 32  1  0
 15 33  1  0
 15 34  1  0
 15 35  1  0
 16 36  1  0
 16 37  1  0
 18 38  1  0
 20 39  1  0
 22 40  1  0
 22 41  1  0
 22 42  1  0
M  ISO  8  23  14  24  14  25  14  26  14  27  14  28  14  29  14  30   8
M  ISO  8  31   8  32   8  33   8  34   8  35   8  36   8  37   8  38  14
M  ISO  4  39  14  40   8  41   8  42   8
M  END
>  <minimizedAffinity>  (1) 
-5.81539106

>  <minimizedRMSD>  (1) 
1.24545181

$$$$
