
     RDKit          3D

 45 47  0  0  0  0  0  0  0  0999 V2000
   46.5350   33.0500   38.6380 C   0  0  0  0  0  0  0  0  0  0  0  0
   46.7430   34.7380   42.0220 C   0  0  0  0  0  0  0  0  0  0  0  0
   47.9490   35.3970   41.8930 C   0  0  0  0  0  0  0  0  0  0  0  0
   48.6920   35.2940   40.7120 C   0  0  0  0  0  0  0  0  0  0  0  0
   48.2210   34.5240   39.6540 C   0  0  0  0  0  0  0  0  0  0  0  0
   46.9870   33.8480   39.7780 C   0  0  0  0  0  0  0  0  0  0  0  0
   46.3180   33.9920   40.9540 C   0  0  0  0  0  0  0  0  0  0  0  0
   44.4780   35.9700   44.7620 C   0  0  0  0  0  0  0  0  0  0  0  0
   45.1300   35.9320   43.5170 C   0  0  0  0  0  0  0  0  0  0  0  0
   46.0150   34.8810   43.2670 C   0  0  0  0  0  0  0  0  0  0  0  0
   46.2010   33.9520   44.2300 N   0  0  0  0  0  0  0  0  0  0  0  0
   45.5440   34.0330   45.4260 C   0  0  0  0  0  0  0  0  0  0  0  0
   44.7040   35.0220   45.6770 N   0  0  0  0  0  0  0  0  0  0  0  0
   45.0190   32.8300   38.6760 C   0  0  0  0  0  0  0  0  0  0  0  0
   47.1550   31.6550   38.8490 C   0  0  0  0  0  0  0  0  0  0  0  0
   46.8910   33.5970   37.3110 C   0  0  0  0  0  0  0  0  0  0  0  0
   47.6840   32.5910   36.5300 C   0  0  0  0  0  0  0  0  0  0  0  0
   49.0830   32.4860   36.4650 C   0  0  0  0  0  0  0  0  0  0  0  0
   49.3980   31.4390   35.6560 N   0  0  0  0  0  0  0  0  0  0  0  0
   48.2480   30.9040   35.2250 C   0  0  0  0  0  0  0  0  0  0  0  0
   47.2080   31.6030   35.7540 N   0  0  0  0  0  0  0  0  0  0  0  0
   45.8670   31.2220   35.3930 C   0  0  0  0  0  0  0  0  0  0  0  0
   45.2930   32.1580   34.3380 C   0  0  0  0  0  0  0  0  0  0  0  0
   48.3288   36.0079   42.7252 H   0  0  0  0  0  0  0  0  0  0  0  0
   49.6517   35.8237   40.6200 H   0  0  0  0  0  0  0  0  0  0  0  0
   48.8060   34.4419   38.7261 H   0  0  0  0  0  0  0  0  0  0  0  0
   45.3571   33.4664   41.0558 H   0  0  0  0  0  0  0  0  0  0  0  0
   43.7759   36.7868   44.9851 H   0  0  0  0  0  0  0  0  0  0  0  0
   44.9479   36.7092   42.7602 H   0  0  0  0  0  0  0  0  0  0  0  0
   45.7172   33.2626   46.1918 H   0  0  0  0  0  0  0  0  0  0  0  0
   44.6817   32.7811   39.7219 H   0  0  0  0  0  0  0  0  0  0  0  0
   44.5145   33.6643   38.1667 H   0  0  0  0  0  0  0  0  0  0  0  0
   44.7725   31.8867   38.1667 H   0  0  0  0  0  0  0  0  0  0  0  0
   47.2448   31.4529   39.9265 H   0  0  0  0  0  0  0  0  0  0  0  0
   46.5106   30.8934   38.3855 H   0  0  0  0  0  0  0  0  0  0  0  0
   48.1521   31.6230   38.3855 H   0  0  0  0  0  0  0  0  0  0  0  0
   45.9707   33.8408   36.7600 H   0  0  0  0  0  0  0  0  0  0  0  0
   47.4986   34.5036   37.4484 H   0  0  0  0  0  0  0  0  0  0  0  0
   49.8019   33.1396   36.9808 H   0  0  0  0  0  0  0  0  0  0  0  0
   48.1591   30.0387   34.5517 H   0  0  0  0  0  0  0  0  0  0  0  0
   45.8805   30.1970   34.9940 H   0  0  0  0  0  0  0  0  0  0  0  0
   45.2348   31.2806   36.2913 H   0  0  0  0  0  0  0  0  0  0  0  0
   44.7791   32.9959   34.8318 H   0  0  0  0  0  0  0  0  0  0  0  0
   46.1082   32.5466   33.7100 H   0  0  0  0  0  0  0  0  0  0  0  0
   44.5770   31.6076   33.7100 H   0  0  0  0  0  0  0  0  0  0  0  0
  1 14  1  0
  1 15  1  0
  1  6  1  0
  2 10  1  0
  3  2  2  0
  4  3  1  0
  5  6  1  0
  5  4  2  0
  6  7  2  0
  7  2  1  0
  8 13  2  0
  9  8  1  0
 10  9  2  0
 10 11  1  0
 11 12  2  0
 12 13  1  0
 16  1  1  0
 17 16  1  0
 18 17  2  0
 19 18  1  0
 20 19  2  0
 20 21  1  0
 21 17  1  0
 22 21  1  0
 23 22  1  0
  3 24  1  0
  4 25  1  0
  5 26  1  0
  7 27  1  0
  8 28  1  0
  9 29  1  0
 12 30  1  0
 14 31  1  0
 14 32  1  0
 14 33  1  0
 15 34  1  0
 15 35  1  0
 15 36  1  0
 16 37  1  0
 16 38  1  0
 18 39  1  0
 20 40  1  0
 22 41  1  0
 22 42  1  0
 23 43  1  0
 23 44  1  0
 23 45  1  0
M  ISO  8  24  14  25  14  26  14  27  14  28  14  29  14  30  14  31   8
M  ISO  8  32   8  33   8  34   8  35   8  36   8  37   8  38   8  39  14
M  ISO  6  40  14  41   8  42   8  43   8  44   8  45   8
M  END
>  <minimizedAffinity>  (1) 
-5.71697187

>  <minimizedRMSD>  (1) 
1.60987818

$$$$
