
     RDKit          3D

 43 45  0  0  0  0  0  0  0  0999 V2000
   47.4980   30.4450   42.6030 C   0  0  0  0  0  0  0  0  0  0  0  0
   46.8810   32.5880   45.5530 C   0  0  0  0  0  0  0  0  0  0  0  0
   47.0880   31.7230   46.6580 C   0  0  0  0  0  0  0  0  0  0  0  0
   47.4350   30.4220   46.3050 C   0  0  0  0  0  0  0  0  0  0  0  0
   47.5550   30.0590   45.0050 N   0  0  0  0  0  0  0  0  0  0  0  0
   47.3430   30.9390   43.9930 C   0  0  0  0  0  0  0  0  0  0  0  0
   47.0090   32.1930   44.2860 N   0  0  0  0  0  0  0  0  0  0  0  0
   46.9480   32.1620   47.9990 N   0  0  0  0  0  0  0  0  0  0  0  0
   45.6890   32.4450   48.6020 C   0  0  0  0  0  0  0  0  0  0  0  0
   44.8090   33.0680   47.8330 N   0  0  0  0  0  0  0  0  0  0  0  0
   45.5330   32.0150   49.9740 N   0  0  0  0  0  0  0  0  0  0  0  0
   43.8740   33.3160   48.1850 H   0  0  0  0  0  0  0  0  0  0  0  0
   47.7040   28.9190   42.6430 C   0  0  0  0  0  0  0  0  0  0  0  0
   46.2390   30.7690   41.8490 C   0  0  0  0  0  0  0  0  0  0  0  0
   48.7380   31.0090   41.9330 C   0  0  0  0  0  0  0  0  0  0  0  0
   48.3950   32.0160   40.9340 C   0  0  0  0  0  0  0  0  0  0  0  0
   47.7880   31.8390   39.7390 N   0  0  0  0  0  0  0  0  0  0  0  0
   47.5050   32.8030   38.8780 C   0  0  0  0  0  0  0  0  0  0  0  0
   47.8200   34.1010   39.1450 N   0  0  0  0  0  0  0  0  0  0  0  0
   48.4360   34.3710   40.3300 C   0  0  0  0  0  0  0  0  0  0  0  0
   48.7470   35.6920   40.5840 C   0  0  0  0  0  0  0  0  0  0  0  0
   49.3760   36.0200   41.7760 C   0  0  0  0  0  0  0  0  0  0  0  0
   49.6730   35.0290   42.6760 C   0  0  0  0  0  0  0  0  0  0  0  0
   49.3490   33.7040   42.3970 C   0  0  0  0  0  0  0  0  0  0  0  0
   48.7160   33.3400   41.2050 C   0  0  0  0  0  0  0  0  0  0  0  0
   46.6018   33.6335   45.7506 H   0  0  0  0  0  0  0  0  0  0  0  0
   47.6147   29.6767   47.0939 H   0  0  0  0  0  0  0  0  0  0  0  0
   47.7997   32.2823   48.5656 H   0  0  0  0  0  0  0  0  0  0  0  0
   44.6473   32.1882   50.4704 H   0  0  0  0  0  0  0  0  0  0  0  0
   46.3076   31.5356   50.4547 H   0  0  0  0  0  0  0  0  0  0  0  0
   47.7494   28.5824   43.6893 H   0  0  0  0  0  0  0  0  0  0  0  0
   46.8648   28.4223   42.1342 H   0  0  0  0  0  0  0  0  0  0  0  0
   48.6449   28.6626   42.1342 H   0  0  0  0  0  0  0  0  0  0  0  0
   45.4279   30.9777   42.5622 H   0  0  0  0  0  0  0  0  0  0  0  0
   46.4076   31.6530   41.2165 H   0  0  0  0  0  0  0  0  0  0  0  0
   45.9599   29.9134   41.2165 H   0  0  0  0  0  0  0  0  0  0  0  0
   49.3799   31.4692   42.6986 H   0  0  0  0  0  0  0  0  0  0  0  0
   49.2617   30.1848   41.4266 H   0  0  0  0  0  0  0  0  0  0  0  0
   47.0067   32.5518   37.9301 H   0  0  0  0  0  0  0  0  0  0  0  0
   48.4993   36.4738   39.8509 H   0  0  0  0  0  0  0  0  0  0  0  0
   49.6343   37.0661   41.9974 H   0  0  0  0  0  0  0  0  0  0  0  0
   50.1702   35.2824   43.6240 H   0  0  0  0  0  0  0  0  0  0  0  0
   49.5972   32.9246   43.1325 H   0  0  0  0  0  0  0  0  0  0  0  0
  1 13  1  0
  1  6  1  0
  2  3  2  0
  3  8  1  0
  4  3  1  0
  5  4  2  0
  6  7  2  0
  6  5  1  0
  7  2  1  0
  8  9  1  0
  9 11  1  0
 10 12  1  0
 10  9  2  0
 14  1  1  0
 15  1  1  0
 16 25  1  0
 16 15  1  0
 17 16  2  0
 18 19  2  0
 18 17  1  0
 19 20  1  0
 20 21  1  0
 20 25  2  0
 21 22  2  0
 22 23  1  0
 24 23  2  0
 25 24  1  0
  2 26  1  0
  4 27  1  0
  8 28  1  0
 11 29  1  0
 11 30  1  0
 13 31  1  0
 13 32  1  0
 13 33  1  0
 14 34  1  0
 14 35  1  0
 14 36  1  0
 15 37  1  0
 15 38  1  0
 18 39  1  0
 21 40  1  0
 22 41  1  0
 23 42  1  0
 24 43  1  0
M  ISO  8  26  14  27  14  31   8  32   8  33   8  34   8  35   8  36   8
M  ISO  7  37   8  38   8  39  14  40  14  41  14  42  14  43  14
M  END
>  <minimizedAffinity>  (1) 
-5.90114164

>  <minimizedRMSD>  (1) 
7.73097324

$$$$
