
     RDKit          3D

 42 43  0  0  0  0  0  0  0  0999 V2000
   46.7620   31.2410   47.9130 C   0  0  0  0  0  0  0  0  0  0  0  0
   44.7040   34.1300   46.8910 C   0  0  0  0  0  0  0  0  0  0  0  0
   45.0820   34.3730   45.5530 C   0  0  0  0  0  0  0  0  0  0  0  0
   46.0640   33.4920   45.0630 C   0  0  0  0  0  0  0  0  0  0  0  0
   46.5690   32.5160   45.8410 N   0  0  0  0  0  0  0  0  0  0  0  0
   46.1680   32.3310   47.1140 C   0  0  0  0  0  0  0  0  0  0  0  0
   45.2430   33.1450   47.6090 N   0  0  0  0  0  0  0  0  0  0  0  0
   44.5240   35.4180   44.7610 N   0  0  0  0  0  0  0  0  0  0  0  0
   44.8110   35.6150   43.3890 C   0  0  0  0  0  0  0  0  0  0  0  0
   46.0660   35.4090   43.0330 N   0  0  0  0  0  0  0  0  0  0  0  0
   43.6840   36.0130   42.5860 N   0  0  0  0  0  0  0  0  0  0  0  0
   46.3590   35.5260   42.0550 H   0  0  0  0  0  0  0  0  0  0  0  0
   46.1670   31.2770   49.3240 C   0  0  0  0  0  0  0  0  0  0  0  0
   46.3370   29.9330   47.2590 C   0  0  0  0  0  0  0  0  0  0  0  0
   48.2570   31.3230   48.0360 C   0  0  0  0  0  0  0  0  0  0  0  0
   48.8480   30.1400   48.5790 N   0  0  0  0  0  0  0  0  0  0  0  0
   48.7560   28.9870   47.8730 C   0  0  0  0  0  0  0  0  0  0  0  0
   49.2760   27.7470   48.2580 C   0  0  0  0  0  0  0  0  0  0  0  0
   49.1000   26.5650   47.3840 C   0  0  0  0  0  0  0  0  0  0  0  0
   49.9270   27.7610   49.4690 C   0  0  0  0  0  0  0  0  0  0  0  0
   50.4030   26.6320   49.8270 O   0  0  0  0  0  0  0  0  0  0  0  0
   50.0390   28.8850   50.2000 N   0  0  0  0  0  0  0  0  0  0  0  0
   49.5050   30.0380   49.7480 C   0  0  0  0  0  0  0  0  0  0  0  0
   49.6120   31.0870   50.4340 O   0  0  0  0  0  0  0  0  0  0  0  0
   43.9416   34.7729   47.3551 H   0  0  0  0  0  0  0  0  0  0  0  0
   46.4242   33.6023   44.0295 H   0  0  0  0  0  0  0  0  0  0  0  0
   43.8704   36.0714   45.2157 H   0  0  0  0  0  0  0  0  0  0  0  0
   43.8036   36.1780   41.5764 H   0  0  0  0  0  0  0  0  0  0  0  0
   42.7582   36.1327   43.0212 H   0  0  0  0  0  0  0  0  0  0  0  0
   46.9782   31.2279   50.0653 H   0  0  0  0  0  0  0  0  0  0  0  0
   45.6020   32.2110   49.4600 H   0  0  0  0  0  0  0  0  0  0  0  0
   45.4935   30.4180   49.4600 H   0  0  0  0  0  0  0  0  0  0  0  0
   46.0970   29.1945   48.0381 H   0  0  0  0  0  0  0  0  0  0  0  0
   45.4493   30.1074   46.6332 H   0  0  0  0  0  0  0  0  0  0  0  0
   47.1577   29.5523   46.6332 H   0  0  0  0  0  0  0  0  0  0  0  0
   48.6801   31.4965   47.0356 H   0  0  0  0  0  0  0  0  0  0  0  0
   48.4809   32.1460   48.7307 H   0  0  0  0  0  0  0  0  0  0  0  0
   48.2247   29.0302   46.9108 H   0  0  0  0  0  0  0  0  0  0  0  0
   48.9662   25.6667   48.0047 H   0  0  0  0  0  0  0  0  0  0  0  0
   48.2131   26.7073   46.7490 H   0  0  0  0  0  0  0  0  0  0  0  0
   49.9898   26.4428   46.7490 H   0  0  0  0  0  0  0  0  0  0  0  0
   50.5322   28.8649   51.1040 H   0  0  0  0  0  0  0  0  0  0  0  0
  1 15  1  0
  1 13  1  0
  2  7  2  0
  3  2  1  0
  4  3  2  0
  4  5  1  0
  5  6  2  0
  6  7  1  0
  6  1  1  0
  8  3  1  0
  9  8  1  0
 10  9  2  0
 11  9  1  0
 12 10  1  0
 14  1  1  0
 15 16  1  0
 16 23  1  0
 17 18  2  0
 17 16  1  0
 18 20  1  0
 19 18  1  0
 20 21  2  0
 20 22  1  0
 23 22  1  0
 23 24  2  0
  2 25  1  0
  4 26  1  0
  8 27  1  0
 11 28  1  0
 11 29  1  0
 13 30  1  0
 13 31  1  0
 13 32  1  0
 14 33  1  0
 14 34  1  0
 14 35  1  0
 15 36  1  0
 15 37  1  0
 17 38  1  0
 19 39  1  0
 19 40  1  0
 19 41  1  0
 22 42  1  0
M  ISO  8  25  14  26  14  30   8  31   8  32   8  33   8  34   8  35   8
M  ISO  7  36   8  37   8  38  14  39   8  40   8  41   8  42   9
M  END
>  <minimizedAffinity>  (1) 
-5.23697472

>  <minimizedRMSD>  (1) 
1.59225559

$$$$
