
     RDKit          3D

 39 40  0  0  0  0  0  0  0  0999 V2000
   46.1970   33.8750   41.4780 C   0  0  0  0  0  0  0  0  0  0  0  0
   45.7060   34.3210   45.1000 C   0  0  0  0  0  0  0  0  0  0  0  0
   46.4050   33.2470   45.6840 C   0  0  0  0  0  0  0  0  0  0  0  0
   47.0300   32.4000   44.7690 C   0  0  0  0  0  0  0  0  0  0  0  0
   46.9540   32.6180   43.4350 N   0  0  0  0  0  0  0  0  0  0  0  0
   46.2750   33.6560   42.9290 C   0  0  0  0  0  0  0  0  0  0  0  0
   45.6760   34.4680   43.7740 N   0  0  0  0  0  0  0  0  0  0  0  0
   46.4760   33.0310   47.0880 N   0  0  0  0  0  0  0  0  0  0  0  0
   45.3320   33.0120   47.9470 C   0  0  0  0  0  0  0  0  0  0  0  0
   44.4080   33.8980   47.6860 N   0  0  0  0  0  0  0  0  0  0  0  0
   45.3610   32.0080   48.9920 N   0  0  0  0  0  0  0  0  0  0  0  0
   43.5570   33.9690   48.2630 H   0  0  0  0  0  0  0  0  0  0  0  0
   45.9940   32.5040   40.7930 C   0  0  0  0  0  0  0  0  0  0  0  0
   44.9250   34.6830   41.2130 C   0  0  0  0  0  0  0  0  0  0  0  0
   47.3770   34.5200   40.8390 C   0  0  0  0  0  0  0  0  0  0  0  0
   48.0800   33.7640   39.8130 C   0  0  0  0  0  0  0  0  0  0  0  0
   48.9370   32.7510   40.2690 C   0  0  0  0  0  0  0  0  0  0  0  0
   49.6550   31.9290   39.4480 C   0  0  0  0  0  0  0  0  0  0  0  0
   49.5630   32.0680   38.0840 C   0  0  0  0  0  0  0  0  0  0  0  0
   48.7370   33.0460   37.5720 C   0  0  0  0  0  0  0  0  0  0  0  0
   48.0400   33.8410   38.4390 C   0  0  0  0  0  0  0  0  0  0  0  0
   45.1809   35.0440   45.7415 H   0  0  0  0  0  0  0  0  0  0  0  0
   47.5982   31.5343   45.1401 H   0  0  0  0  0  0  0  0  0  0  0  0
   47.4033   32.8797   47.5101 H   0  0  0  0  0  0  0  0  0  0  0  0
   44.5745   31.9292   49.6524 H   0  0  0  0  0  0  0  0  0  0  0  0
   46.1681   31.3734   49.0742 H   0  0  0  0  0  0  0  0  0  0  0  0
   45.8785   31.7243   41.5603 H   0  0  0  0  0  0  0  0  0  0  0  0
   45.0910   32.5377   40.1657 H   0  0  0  0  0  0  0  0  0  0  0  0
   46.8680   32.2746   40.1657 H   0  0  0  0  0  0  0  0  0  0  0  0
   44.4686   34.9729   42.1709 H   0  0  0  0  0  0  0  0  0  0  0  0
   45.1776   35.5866   40.6388 H   0  0  0  0  0  0  0  0  0  0  0  0
   44.2144   34.0704   40.6388 H   0  0  0  0  0  0  0  0  0  0  0  0
   47.0317   35.4578   40.3794 H   0  0  0  0  0  0  0  0  0  0  0  0
   48.1082   34.6373   41.6524 H   0  0  0  0  0  0  0  0  0  0  0  0
   49.0368   32.6101   41.3554 H   0  0  0  0  0  0  0  0  0  0  0  0
   50.3073   31.1552   39.8789 H   0  0  0  0  0  0  0  0  0  0  0  0
   50.1373   31.4117   37.4136 H   0  0  0  0  0  0  0  0  0  0  0  0
   48.6404   33.1843   36.4850 H   0  0  0  0  0  0  0  0  0  0  0  0
   47.3890   34.6110   37.9993 H   0  0  0  0  0  0  0  0  0  0  0  0
  1  6  1  0
  2  3  2  0
  3  8  1  0
  4  3  1  0
  5  4  2  0
  6  5  1  0
  6  7  2  0
  7  2  1  0
  8  9  1  0
  9 11  1  0
 10  9  2  0
 10 12  1  0
 13  1  1  0
 14  1  1  0
 15  1  1  0
 16 17  2  0
 16 15  1  0
 18 17  1  0
 19 18  2  0
 20 19  1  0
 20 21  2  0
 21 16  1  0
  2 22  1  0
  4 23  1  0
  8 24  1  0
 11 25  1  0
 11 26  1  0
 13 27  1  0
 13 28  1  0
 13 29  1  0
 14 30  1  0
 14 31  1  0
 14 32  1  0
 15 33  1  0
 15 34  1  0
 17 35  1  0
 18 36  1  0
 19 37  1  0
 20 38  1  0
 21 39  1  0
M  ISO  8  22  14  23  14  27   8  28   8  29   8  30   8  31   8  32   8
M  ISO  7  33   8  34   8  35  14  36  14  37  14  38  14  39  14
M  END
>  <minimizedAffinity>  (1) 
-5.32702923

>  <minimizedRMSD>  (1) 
7.5721612

$$$$
