
     RDKit          3D

 36 36  0  0  0  0  0  0  0  0999 V2000
   46.1890   31.1290   48.0730 C   0  0  0  0  0  0  0  0  0  0  0  0
   45.7560   33.8540   45.6270 C   0  0  0  0  0  0  0  0  0  0  0  0
   46.5330   33.4630   44.5220 C   0  0  0  0  0  0  0  0  0  0  0  0
   47.1800   32.2450   44.6900 C   0  0  0  0  0  0  0  0  0  0  0  0
   47.0570   31.5200   45.8260 N   0  0  0  0  0  0  0  0  0  0  0  0
   46.2860   31.9590   46.8590 C   0  0  0  0  0  0  0  0  0  0  0  0
   45.6560   33.1210   46.7260 N   0  0  0  0  0  0  0  0  0  0  0  0
   46.6540   34.2350   43.3330 N   0  0  0  0  0  0  0  0  0  0  0  0
   47.8740   34.3690   42.6010 C   0  0  0  0  0  0  0  0  0  0  0  0
   48.9700   34.4710   43.3090 N   0  0  0  0  0  0  0  0  0  0  0  0
   47.7120   34.3750   41.1630 N   0  0  0  0  0  0  0  0  0  0  0  0
   49.8920   34.5780   42.8670 H   0  0  0  0  0  0  0  0  0  0  0  0
   45.5520   31.9780   49.1910 C   0  0  0  0  0  0  0  0  0  0  0  0
   45.2690   29.9780   47.7770 C   0  0  0  0  0  0  0  0  0  0  0  0
   47.5340   30.6900   48.6040 C   0  0  0  0  0  0  0  0  0  0  0  0
   47.8710   29.3260   48.2620 N   0  0  0  0  0  0  0  0  0  0  0  0
   49.1930   28.8060   48.4320 C   0  0  0  0  0  0  0  0  0  0  0  0
   50.1520   29.5950   48.1550 N   0  0  0  0  0  0  0  0  0  0  0  0
   49.3300   27.4500   48.8920 N   0  0  0  0  0  0  0  0  0  0  0  0
   51.1580   29.3410   48.2350 H   0  0  0  0  0  0  0  0  0  0  0  0
   45.2091   34.8071   45.5768 H   0  0  0  0  0  0  0  0  0  0  0  0
   47.8107   31.8587   43.8758 H   0  0  0  0  0  0  0  0  0  0  0  0
   45.8180   34.7231   42.9812 H   0  0  0  0  0  0  0  0  0  0  0  0
   46.7727   34.2845   40.7502 H   0  0  0  0  0  0  0  0  0  0  0  0
   48.5360   34.4698   40.5523 H   0  0  0  0  0  0  0  0  0  0  0  0
   45.8519   31.5783   50.1710 H   0  0  0  0  0  0  0  0  0  0  0  0
   45.8932   33.0198   49.0999 H   0  0  0  0  0  0  0  0  0  0  0  0
   44.4564   31.9417   49.0999 H   0  0  0  0  0  0  0  0  0  0  0  0
   44.9170   29.5376   48.7216 H   0  0  0  0  0  0  0  0  0  0  0  0
   44.4067   30.3377   47.1964 H   0  0  0  0  0  0  0  0  0  0  0  0
   45.8099   29.2162   47.1964 H   0  0  0  0  0  0  0  0  0  0  0  0
   48.3062   31.3542   48.1886 H   0  0  0  0  0  0  0  0  0  0  0  0
   47.4829   30.7456   49.7014 H   0  0  0  0  0  0  0  0  0  0  0  0
   47.1369   28.7100   47.8845 H   0  0  0  0  0  0  0  0  0  0  0  0
   50.2670   27.0436   49.0253 H   0  0  0  0  0  0  0  0  0  0  0  0
   48.4911   26.8854   49.0880 H   0  0  0  0  0  0  0  0  0  0  0  0
  1 15  1  0
  1 13  1  0
  2  7  2  0
  3  4  2  0
  3  2  1  0
  4  5  1  0
  5  6  2  0
  6  1  1  0
  7  6  1  0
  8  3  1  0
  9 10  2  0
  9  8  1  0
 11  9  1  0
 12 10  1  0
 14  1  1  0
 16 17  1  0
 16 15  1  0
 17 19  1  0
 18 20  1  0
 18 17  2  0
  2 21  1  0
  4 22  1  0
  8 23  1  0
 11 24  1  0
 11 25  1  0
 13 26  1  0
 13 27  1  0
 13 28  1  0
 14 29  1  0
 14 30  1  0
 14 31  1  0
 15 32  1  0
 15 33  1  0
 16 34  1  0
 19 35  1  0
 19 36  1  0
M  ISO  8  21  14  22  14  26   8  27   8  28   8  29   8  30   8  31   8
M  ISO  2  32   8  33   8
M  END
>  <minimizedAffinity>  (1) 
-4.70549726

>  <minimizedRMSD>  (1) 
3.22270918

$$$$
