
     RDKit          3D

 36 37  0  0  0  0  0  0  0  0999 V2000
   47.1880   31.9830   40.6310 C   0  0  0  0  0  0  0  0  0  0  0  0
   44.1560   34.0690   40.3320 C   0  0  0  0  0  0  0  0  0  0  0  0
   43.3790   33.7200   41.4430 C   0  0  0  0  0  0  0  0  0  0  0  0
   43.9550   32.7560   42.2640 C   0  0  0  0  0  0  0  0  0  0  0  0
   45.1670   32.2340   41.9640 N   0  0  0  0  0  0  0  0  0  0  0  0
   45.8730   32.6100   40.8770 C   0  0  0  0  0  0  0  0  0  0  0  0
   45.3520   33.5280   40.0730 N   0  0  0  0  0  0  0  0  0  0  0  0
   42.1090   34.2900   41.7260 N   0  0  0  0  0  0  0  0  0  0  0  0
   40.8730   33.6570   41.4300 C   0  0  0  0  0  0  0  0  0  0  0  0
   40.8160   33.0010   40.2980 N   0  0  0  0  0  0  0  0  0  0  0  0
   39.8390   33.8280   42.4320 N   0  0  0  0  0  0  0  0  0  0  0  0
   39.9570   32.5390   39.9890 H   0  0  0  0  0  0  0  0  0  0  0  0
   47.8250   31.5890   41.9650 C   0  0  0  0  0  0  0  0  0  0  0  0
   46.9600   30.7460   39.8100 C   0  0  0  0  0  0  0  0  0  0  0  0
   48.1610   32.9240   39.9370 C   0  0  0  0  0  0  0  0  0  0  0  0
   48.7820   33.8540   40.9010 C   0  0  0  0  0  0  0  0  0  0  0  0
   48.4330   35.1990   40.7970 C   0  0  0  0  0  0  0  0  0  0  0  0
   49.1230   35.8780   41.7860 C   0  0  0  0  0  0  0  0  0  0  0  0
   49.8650   34.9060   42.4500 C   0  0  0  0  0  0  0  0  0  0  0  0
   49.6150   33.7650   41.8820 O   0  0  0  0  0  0  0  0  0  0  0  0
   43.7635   34.8260   39.6371 H   0  0  0  0  0  0  0  0  0  0  0  0
   43.4214   32.4155   43.1636 H   0  0  0  0  0  0  0  0  0  0  0  0
   42.0832   35.2178   42.1725 H   0  0  0  0  0  0  0  0  0  0  0  0
   38.9122   33.4003   42.2938 H   0  0  0  0  0  0  0  0  0  0  0  0
   40.0313   34.3771   43.2819 H   0  0  0  0  0  0  0  0  0  0  0  0
   47.2086   31.9703   42.7925 H   0  0  0  0  0  0  0  0  0  0  0  0
   47.8898   30.4929   42.0309 H   0  0  0  0  0  0  0  0  0  0  0  0
   48.8347   32.0206   42.0309 H   0  0  0  0  0  0  0  0  0  0  0  0
   46.8016   29.8866   40.4781 H   0  0  0  0  0  0  0  0  0  0  0  0
   46.0725   30.8856   39.1754 H   0  0  0  0  0  0  0  0  0  0  0  0
   47.8390   30.5600   39.1754 H   0  0  0  0  0  0  0  0  0  0  0  0
   48.9498   32.3307   39.4514 H   0  0  0  0  0  0  0  0  0  0  0  0
   47.6056   33.5130   39.1923 H   0  0  0  0  0  0  0  0  0  0  0  0
   47.7389   35.6388   40.0657 H   0  0  0  0  0  0  0  0  0  0  0  0
   49.0916   36.9563   42.0013 H   0  0  0  0  0  0  0  0  0  0  0  0
   50.5408   35.0736   43.3016 H   0  0  0  0  0  0  0  0  0  0  0  0
  1  6  1  0
  1 13  1  0
  2  3  2  0
  3  8  1  0
  3  4  1  0
  5  4  2  0
  6  5  1  0
  7  2  1  0
  7  6  2  0
  9  8  1  0
  9 11  1  0
 10  9  2  0
 12 10  1  0
 14  1  1  0
 15  1  1  0
 15 16  1  0
 16 20  1  0
 17 16  2  0
 17 18  1  0
 18 19  2  0
 20 19  1  0
  2 21  1  0
  4 22  1  0
  8 23  1  0
 11 24  1  0
 11 25  1  0
 13 26  1  0
 13 27  1  0
 13 28  1  0
 14 29  1  0
 14 30  1  0
 14 31  1  0
 15 32  1  0
 15 33  1  0
 17 34  1  0
 18 35  1  0
 19 36  1  0
M  ISO  8  21  14  22  14  26   8  27   8  28   8  29   8  30   8  31   8
M  ISO  5  32   8  33   8  34  14  35  14  36  14
M  END
>  <minimizedAffinity>  (1) 
-4.70736504

>  <minimizedRMSD>  (1) 
6.49079847

$$$$
