
     RDKit          3D

 39 40  0  0  0  0  0  0  0  0999 V2000
   46.7340   31.1980   47.8740 C   0  0  0  0  0  0  0  0  0  0  0  0
   44.7140   34.1290   46.8730 C   0  0  0  0  0  0  0  0  0  0  0  0
   45.0830   34.3700   45.5450 C   0  0  0  0  0  0  0  0  0  0  0  0
   46.0370   33.4840   45.0470 C   0  0  0  0  0  0  0  0  0  0  0  0
   46.5390   32.4910   45.8100 N   0  0  0  0  0  0  0  0  0  0  0  0
   46.1480   32.3050   47.0830 C   0  0  0  0  0  0  0  0  0  0  0  0
   45.2390   33.1330   47.5890 N   0  0  0  0  0  0  0  0  0  0  0  0
   44.5420   35.4250   44.7500 N   0  0  0  0  0  0  0  0  0  0  0  0
   44.8440   35.6310   43.3860 C   0  0  0  0  0  0  0  0  0  0  0  0
   46.0880   35.4120   43.0280 N   0  0  0  0  0  0  0  0  0  0  0  0
   43.7350   36.0570   42.5730 N   0  0  0  0  0  0  0  0  0  0  0  0
   46.3900   35.5300   42.0510 H   0  0  0  0  0  0  0  0  0  0  0  0
   46.2080   31.2820   49.2980 C   0  0  0  0  0  0  0  0  0  0  0  0
   46.2300   29.9010   47.2550 C   0  0  0  0  0  0  0  0  0  0  0  0
   48.2370   31.2180   47.9150 C   0  0  0  0  0  0  0  0  0  0  0  0
   48.8460   30.0870   48.5250 N   0  0  0  0  0  0  0  0  0  0  0  0
   48.7760   28.9110   47.8340 C   0  0  0  0  0  0  0  0  0  0  0  0
   49.3020   27.7130   48.2700 C   0  0  0  0  0  0  0  0  0  0  0  0
   49.9480   27.6840   49.4880 C   0  0  0  0  0  0  0  0  0  0  0  0
   50.4570   26.6380   49.9640 O   0  0  0  0  0  0  0  0  0  0  0  0
   50.0120   28.8450   50.1620 N   0  0  0  0  0  0  0  0  0  0  0  0
   49.4870   29.9960   49.7040 C   0  0  0  0  0  0  0  0  0  0  0  0
   49.5650   31.0620   50.3570 O   0  0  0  0  0  0  0  0  0  0  0  0
   43.9651   34.7834   47.3430 H   0  0  0  0  0  0  0  0  0  0  0  0
   46.3878   33.5968   44.0105 H   0  0  0  0  0  0  0  0  0  0  0  0
   43.8876   36.0798   45.2015 H   0  0  0  0  0  0  0  0  0  0  0  0
   43.8705   36.2295   41.5666 H   0  0  0  0  0  0  0  0  0  0  0  0
   42.8060   36.1893   42.9977 H   0  0  0  0  0  0  0  0  0  0  0  0
   47.0403   31.1491   50.0048 H   0  0  0  0  0  0  0  0  0  0  0  0
   45.7432   32.2658   49.4598 H   0  0  0  0  0  0  0  0  0  0  0  0
   45.4599   30.4919   49.4598 H   0  0  0  0  0  0  0  0  0  0  0  0
   45.9560   29.1958   48.0535 H   0  0  0  0  0  0  0  0  0  0  0  0
   45.3478   30.1105   46.6322 H   0  0  0  0  0  0  0  0  0  0  0  0
   47.0222   29.4599   46.6322 H   0  0  0  0  0  0  0  0  0  0  0  0
   48.6038   31.2839   46.8801 H   0  0  0  0  0  0  0  0  0  0  0  0
   48.5116   32.0824   48.5374 H   0  0  0  0  0  0  0  0  0  0  0  0
   48.2637   28.9200   46.8606 H   0  0  0  0  0  0  0  0  0  0  0  0
   49.2085   26.8021   47.6606 H   0  0  0  0  0  0  0  0  0  0  0  0
   50.4872   28.8541   51.0758 H   0  0  0  0  0  0  0  0  0  0  0  0
  1 15  1  0
  1 13  1  0
  2  7  2  0
  3  2  1  0
  4  3  2  0
  4  5  1  0
  5  6  2  0
  6  7  1  0
  6  1  1  0
  8  3  1  0
  9  8  1  0
 10  9  2  0
 11  9  1  0
 12 10  1  0
 14  1  1  0
 15 16  1  0
 16 22  1  0
 17 18  2  0
 17 16  1  0
 18 19  1  0
 19 20  2  0
 19 21  1  0
 22 21  1  0
 22 23  2  0
  2 24  1  0
  4 25  1  0
  8 26  1  0
 11 27  1  0
 11 28  1  0
 13 29  1  0
 13 30  1  0
 13 31  1  0
 14 32  1  0
 14 33  1  0
 14 34  1  0
 15 35  1  0
 15 36  1  0
 17 37  1  0
 18 38  1  0
 21 39  1  0
M  ISO  8  24  14  25  14  29   8  30   8  31   8  32   8  33   8  34   8
M  ISO  5  35   8  36   8  37  14  38  14  39   9
M  END
>  <minimizedAffinity>  (1) 
-5.17267799

>  <minimizedRMSD>  (1) 
1.62385273

$$$$
