
     RDKit          3D

 41 42  0  0  0  0  0  0  0  0999 V2000
   47.1320   30.1300   46.2510 C   0  0  0  0  0  0  0  0  0  0  0  0
   45.9110   33.6070   46.0330 C   0  0  0  0  0  0  0  0  0  0  0  0
   45.3280   33.7020   44.7530 C   0  0  0  0  0  0  0  0  0  0  0  0
   45.3850   32.5130   44.0110 C   0  0  0  0  0  0  0  0  0  0  0  0
   45.9560   31.4030   44.5050 N   0  0  0  0  0  0  0  0  0  0  0  0
   46.5060   31.3710   45.7500 C   0  0  0  0  0  0  0  0  0  0  0  0
   46.4660   32.4810   46.4800 N   0  0  0  0  0  0  0  0  0  0  0  0
   44.7320   34.8810   44.2340 N   0  0  0  0  0  0  0  0  0  0  0  0
   45.0920   35.4700   42.9860 C   0  0  0  0  0  0  0  0  0  0  0  0
   46.3620   35.4320   42.6630 N   0  0  0  0  0  0  0  0  0  0  0  0
   43.9860   36.0300   42.2480 N   0  0  0  0  0  0  0  0  0  0  0  0
   46.6980   35.8330   41.7770 H   0  0  0  0  0  0  0  0  0  0  0  0
   46.1080   28.9840   46.0820 C   0  0  0  0  0  0  0  0  0  0  0  0
   48.3020   29.8280   45.3540 C   0  0  0  0  0  0  0  0  0  0  0  0
   47.4860   30.1700   47.7010 C   0  0  0  0  0  0  0  0  0  0  0  0
   48.8730   30.1180   48.0260 N   0  0  0  0  0  0  0  0  0  0  0  0
   49.3800   28.9060   48.5570 C   0  0  0  0  0  0  0  0  0  0  0  0
   50.2210   29.3000   49.7850 C   0  0  0  0  0  0  0  0  0  0  0  0
   49.4530   30.5250   50.2320 C   0  0  0  0  0  0  0  0  0  0  0  0
   49.1740   31.2140   48.9170 C   0  0  0  0  0  0  0  0  0  0  0  0
   45.9077   34.4928   46.6852 H   0  0  0  0  0  0  0  0  0  0  0  0
   44.9515   32.4895   43.0003 H   0  0  0  0  0  0  0  0  0  0  0  0
   43.9963   35.3380   44.7914 H   0  0  0  0  0  0  0  0  0  0  0  0
   44.1500   36.4770   41.3347 H   0  0  0  0  0  0  0  0  0  0  0  0
   43.0324   35.9828   42.6345 H   0  0  0  0  0  0  0  0  0  0  0  0
   45.7896   28.6277   47.0728 H   0  0  0  0  0  0  0  0  0  0  0  0
   45.2332   29.3529   45.5265 H   0  0  0  0  0  0  0  0  0  0  0  0
   46.5727   28.1561   45.5265 H   0  0  0  0  0  0  0  0  0  0  0  0
   49.1856   29.5999   45.9682 H   0  0  0  0  0  0  0  0  0  0  0  0
   48.0633   28.9620   44.7191 H   0  0  0  0  0  0  0  0  0  0  0  0
   48.5123   30.7013   44.7191 H   0  0  0  0  0  0  0  0  0  0  0  0
   47.0817   31.1048   48.1165 H   0  0  0  0  0  0  0  0  0  0  0  0
   47.0560   29.2518   48.1275 H   0  0  0  0  0  0  0  0  0  0  0  0
   48.5536   28.2444   48.8560 H   0  0  0  0  0  0  0  0  0  0  0  0
   49.9816   28.3612   47.8145 H   0  0  0  0  0  0  0  0  0  0  0  0
   50.2199   28.5123   50.5528 H   0  0  0  0  0  0  0  0  0  0  0  0
   51.2903   29.4648   49.5865 H   0  0  0  0  0  0  0  0  0  0  0  0
   48.5200   30.2475   50.7443 H   0  0  0  0  0  0  0  0  0  0  0  0
   49.9960   31.1508   50.9556 H   0  0  0  0  0  0  0  0  0  0  0  0
   50.0554   31.7733   48.5702 H   0  0  0  0  0  0  0  0  0  0  0  0
   48.3613   31.9525   48.9815 H   0  0  0  0  0  0  0  0  0  0  0  0
  1 15  1  0
  2  7  2  0
  3  2  1  0
  4  5  1  0
  4  3  2  0
  5  6  2  0
  6  1  1  0
  6  7  1  0
  8  3  1  0
  9  8  1  0
 10  9  2  0
 11  9  1  0
 12 10  1  0
 13  1  1  0
 14  1  1  0
 15 16  1  0
 16 17  1  0
 16 20  1  0
 17 18  1  0
 18 19  1  0
 20 19  1  0
  2 21  1  0
  4 22  1  0
  8 23  1  0
 11 24  1  0
 11 25  1  0
 13 26  1  0
 13 27  1  0
 13 28  1  0
 14 29  1  0
 14 30  1  0
 14 31  1  0
 15 32  1  0
 15 33  1  0
 17 34  1  0
 17 35  1  0
 18 36  1  0
 18 37  1  0
 19 38  1  0
 19 39  1  0
 20 40  1  0
 20 41  1  0
M  ISO  8  21  14  22  14  26   8  27   8  28   8  29   8  30   8  31   8
M  ISO  8  32   8  33   8  34  13  35  13  36  13  37  13  38  13  39  13
M  ISO  2  40  13  41  13
M  END
>  <minimizedAffinity>  (1) 
-4.28745031

>  <minimizedRMSD>  (1) 
1.17770505

$$$$
