
     RDKit          3D

 45 46  0  0  0  0  0  0  0  0999 V2000
   47.8170   29.7970   46.4740 C   0  0  0  0  0  0  0  0  0  0  0  0
   46.4290   33.2020   46.7640 C   0  0  0  0  0  0  0  0  0  0  0  0
   45.6710   33.3790   45.5760 C   0  0  0  0  0  0  0  0  0  0  0  0
   45.6870   32.2790   44.7250 C   0  0  0  0  0  0  0  0  0  0  0  0
   46.3740   31.1630   45.0370 N   0  0  0  0  0  0  0  0  0  0  0  0
   47.0820   31.0420   46.1810 C   0  0  0  0  0  0  0  0  0  0  0  0
   47.0960   32.0720   47.0290 N   0  0  0  0  0  0  0  0  0  0  0  0
   44.9700   34.5830   45.3100 N   0  0  0  0  0  0  0  0  0  0  0  0
   44.9050   35.1700   44.0090 C   0  0  0  0  0  0  0  0  0  0  0  0
   46.0110   35.1160   43.2850 N   0  0  0  0  0  0  0  0  0  0  0  0
   43.6270   35.7460   43.6680 N   0  0  0  0  0  0  0  0  0  0  0  0
   46.0510   35.5260   42.3490 H   0  0  0  0  0  0  0  0  0  0  0  0
   46.8060   28.6290   46.3900 C   0  0  0  0  0  0  0  0  0  0  0  0
   48.8050   29.5920   45.3570 C   0  0  0  0  0  0  0  0  0  0  0  0
   48.3830   29.7020   47.8360 C   0  0  0  0  0  0  0  0  0  0  0  0
   49.8090   29.7310   48.0960 C   0  0  0  0  0  0  0  0  0  0  0  0
   50.0570   30.7780   49.1750 C   0  0  0  0  0  0  0  0  0  0  0  0
   49.7610   30.2830   50.5620 C   0  0  0  0  0  0  0  0  0  0  0  0
   50.7780   29.1710   50.8450 C   0  0  0  0  0  0  0  0  0  0  0  0
   50.3160   28.0440   49.9100 C   0  0  0  0  0  0  0  0  0  0  0  0
   50.5060   28.4960   48.4850 C   0  0  0  0  0  0  0  0  0  0  0  0
   46.4695   34.0242   47.4936 H   0  0  0  0  0  0  0  0  0  0  0  0
   45.1278   32.3211   43.7787 H   0  0  0  0  0  0  0  0  0  0  0  0
   44.4871   35.0544   46.0881 H   0  0  0  0  0  0  0  0  0  0  0  0
   43.4913   36.1907   42.7489 H   0  0  0  0  0  0  0  0  0  0  0  0
   42.8503   35.7125   44.3436 H   0  0  0  0  0  0  0  0  0  0  0  0
   46.5295   28.3096   47.4057 H   0  0  0  0  0  0  0  0  0  0  0  0
   45.9057   28.9613   45.8523 H   0  0  0  0  0  0  0  0  0  0  0  0
   47.2639   27.7857   45.8523 H   0  0  0  0  0  0  0  0  0  0  0  0
   49.7992   29.3857   45.7801 H   0  0  0  0  0  0  0  0  0  0  0  0
   48.4864   28.7408   44.7373 H   0  0  0  0  0  0  0  0  0  0  0  0
   48.8514   30.4997   44.7373 H   0  0  0  0  0  0  0  0  0  0  0  0
   47.9530   30.5405   48.4034 H   0  0  0  0  0  0  0  0  0  0  0  0
   48.1269   28.6685   48.1123 H   0  0  0  0  0  0  0  0  0  0  0  0
   50.2411   29.9462   47.1076 H   0  0  0  0  0  0  0  0  0  0  0  0
   51.1133   31.0817   49.1306 H   0  0  0  0  0  0  0  0  0  0  0  0
   49.3756   31.6184   48.9765 H   0  0  0  0  0  0  0  0  0  0  0  0
   49.8755   31.0990   51.2907 H   0  0  0  0  0  0  0  0  0  0  0  0
   48.7285   29.9124   50.6437 H   0  0  0  0  0  0  0  0  0  0  0  0
   51.7997   29.4962   50.5994 H   0  0  0  0  0  0  0  0  0  0  0  0
   50.8148   28.8724   51.9031 H   0  0  0  0  0  0  0  0  0  0  0  0
   50.9143   27.1397   50.0952 H   0  0  0  0  0  0  0  0  0  0  0  0
   49.2564   27.8128   50.0937 H   0  0  0  0  0  0  0  0  0  0  0  0
   50.1510   27.6891   47.8271 H   0  0  0  0  0  0  0  0  0  0  0  0
   51.5784   28.7210   48.3886 H   0  0  0  0  0  0  0  0  0  0  0  0
  1 15  1  0
  2  7  2  0
  3  2  1  0
  4  5  1  0
  4  3  2  0
  5  6  2  0
  6  1  1  0
  6  7  1  0
  8  3  1  0
  9  8  1  0
 10  9  2  0
 11  9  1  0
 12 10  1  0
 13  1  1  0
 14  1  1  0
 15 16  1  0
 16 21  1  0
 16 17  1  0
 17 18  1  0
 18 19  1  0
 20 19  1  0
 21 20  1  0
  2 22  1  0
  4 23  1  0
  8 24  1  0
 11 25  1  0
 11 26  1  0
 13 27  1  0
 13 28  1  0
 13 29  1  0
 14 30  1  0
 14 31  1  0
 14 32  1  0
 15 33  1  0
 15 34  1  0
 16 35  1  0
 17 36  1  0
 17 37  1  0
 18 38  1  0
 18 39  1  0
 19 40  1  0
 19 41  1  0
 20 42  1  0
 20 43  1  0
 21 44  1  0
 21 45  1  0
M  ISO  8  22  14  23  14  27   8  28   8  29   8  30   8  31   8  32   8
M  ISO  8  33   8  34   8  35  13  36  13  37  13  38  13  39  13  40  13
M  ISO  5  41  13  42  13  43  13  44  13  45  13
M  END
>  <minimizedAffinity>  (1) 
-4.6064291

>  <minimizedRMSD>  (1) 
1.61221838

$$$$
