
     RDKit          3D

 34 35  0  0  0  0  0  0  0  0999 V2000
   47.4550   30.0940   45.6040 C   0  0  0  0  0  0  0  0  0  0  0  0
   46.3320   33.6040   45.4560 C   0  0  0  0  0  0  0  0  0  0  0  0
   45.3490   33.6130   44.4330 C   0  0  0  0  0  0  0  0  0  0  0  0
   45.1290   32.3640   43.8400 C   0  0  0  0  0  0  0  0  0  0  0  0
   45.8200   31.2780   44.2440 N   0  0  0  0  0  0  0  0  0  0  0  0
   46.7490   31.3330   45.2290 C   0  0  0  0  0  0  0  0  0  0  0  0
   46.9750   32.4990   45.8050 N   0  0  0  0  0  0  0  0  0  0  0  0
   44.6410   34.7790   44.0360 N   0  0  0  0  0  0  0  0  0  0  0  0
   44.8890   35.4920   42.8400 C   0  0  0  0  0  0  0  0  0  0  0  0
   46.1560   35.6070   42.5030 N   0  0  0  0  0  0  0  0  0  0  0  0
   43.7160   35.9870   42.1680 N   0  0  0  0  0  0  0  0  0  0  0  0
   46.4410   36.1210   41.6580 H   0  0  0  0  0  0  0  0  0  0  0  0
   46.5180   28.8970   45.4020 C   0  0  0  0  0  0  0  0  0  0  0  0
   48.6430   29.9430   44.6940 C   0  0  0  0  0  0  0  0  0  0  0  0
   47.8760   30.0570   47.0580 C   0  0  0  0  0  0  0  0  0  0  0  0
   46.7750   30.3850   47.9710 C   0  0  0  0  0  0  0  0  0  0  0  0
   45.6970   29.5890   48.0690 N   0  0  0  0  0  0  0  0  0  0  0  0
   44.8890   30.1100   48.9410 O   0  0  0  0  0  0  0  0  0  0  0  0
   45.3990   31.2210   49.4170 C   0  0  0  0  0  0  0  0  0  0  0  0
   46.5790   31.4050   48.8190 N   0  0  0  0  0  0  0  0  0  0  0  0
   46.5679   34.5442   45.9760 H   0  0  0  0  0  0  0  0  0  0  0  0
   44.3846   32.2671   43.0359 H   0  0  0  0  0  0  0  0  0  0  0  0
   43.8990   35.1277   44.6596 H   0  0  0  0  0  0  0  0  0  0  0  0
   43.8106   36.5168   41.2898 H   0  0  0  0  0  0  0  0  0  0  0  0
   42.7821   35.8113   42.5654 H   0  0  0  0  0  0  0  0  0  0  0  0
   46.2098   28.5032   46.3818 H   0  0  0  0  0  0  0  0  0  0  0  0
   45.6288   29.2182   44.8397 H   0  0  0  0  0  0  0  0  0  0  0  0
   47.0433   28.1110   44.8397 H   0  0  0  0  0  0  0  0  0  0  0  0
   49.5551   29.8271   45.2979 H   0  0  0  0  0  0  0  0  0  0  0  0
   48.5081   29.0548   44.0593 H   0  0  0  0  0  0  0  0  0  0  0  0
   48.7346   30.8367   44.0593 H   0  0  0  0  0  0  0  0  0  0  0  0
   48.2406   29.0464   47.2940 H   0  0  0  0  0  0  0  0  0  0  0  0
   48.6621   30.8137   47.1974 H   0  0  0  0  0  0  0  0  0  0  0  0
   44.9398   31.8792   50.1693 H   0  0  0  0  0  0  0  0  0  0  0  0
  1 15  1  0
  2  7  2  0
  3  2  1  0
  4  5  1  0
  4  3  2  0
  5  6  2  0
  6  1  1  0
  6  7  1  0
  8  3  1  0
  9  8  1  0
 10  9  2  0
 11  9  1  0
 12 10  1  0
 13  1  1  0
 14  1  1  0
 15 16  1  0
 16 17  2  0
 16 20  1  0
 17 18  1  0
 18 19  1  0
 20 19  2  0
  2 21  1  0
  4 22  1  0
  8 23  1  0
 11 24  1  0
 11 25  1  0
 13 26  1  0
 13 27  1  0
 13 28  1  0
 14 29  1  0
 14 30  1  0
 14 31  1  0
 15 32  1  0
 15 33  1  0
 19 34  1  0
M  ISO  8  21  14  22  14  26   8  27   8  28   8  29   8  30   8  31   8
M  ISO  3  32   8  33   8  34  14
M  END
>  <minimizedAffinity>  (1) 
-4.38796329

>  <minimizedRMSD>  (1) 
0.597928822

$$$$
