
     RDKit          3D

 36 39  0  0  1  0  0  0  0  0999 V2000
   48.1100   33.3760   39.1230 C   0  0  2  0  0  0  0  0  0  0  0  0
   48.2640   34.2910   37.8910 C   0  0  0  0  0  0  0  0  0  0  0  0
   47.9610   32.8170   37.7280 C   0  0  1  0  0  0  0  0  0  0  0  0
   45.6490   34.0620   41.6920 N   0  0  0  0  0  0  0  0  0  0  0  0
   44.8270   33.8450   40.6300 C   0  0  0  0  0  0  0  0  0  0  0  0
   45.5530   33.5650   39.5460 N   0  0  0  0  0  0  0  0  0  0  0  0
   46.8740   33.6070   39.9390 C   0  0  0  0  0  0  0  0  0  0  0  0
   46.8490   33.9070   41.2200 N   0  0  0  0  0  0  0  0  0  0  0  0
   44.7620   35.6720   43.2560 C   0  0  0  0  0  0  0  0  0  0  0  0
   45.3680   34.3900   43.0430 C   0  0  0  0  0  0  0  0  0  0  0  0
   45.6200   33.6160   44.1290 C   0  0  0  0  0  0  0  0  0  0  0  0
   45.2800   34.1070   45.3520 N   0  0  0  0  0  0  0  0  0  0  0  0
   44.7130   35.3100   45.5280 C   0  0  0  0  0  0  0  0  0  0  0  0
   44.4560   36.0910   44.4650 N   0  0  0  0  0  0  0  0  0  0  0  0
   48.9600   31.8680   37.2850 C   0  0  0  0  0  0  0  0  0  0  0  0
   48.5820   30.6770   37.0460 O   0  0  0  0  0  0  0  0  0  0  0  0
   50.2810   32.2200   37.1150 O   0  0  0  0  0  0  0  0  0  0  0  0
   53.1870   31.5050   38.9060 N   0  0  0  0  0  0  0  0  0  0  0  0
   52.5340   31.9760   37.8270 N   0  0  0  0  0  0  0  0  0  0  0  0
   51.2070   31.8220   38.0550 C   0  0  0  0  0  0  0  0  0  0  0  0
   51.0030   31.2520   39.2820 C   0  0  0  0  0  0  0  0  0  0  0  0
   52.2880   31.0630   39.7990 C   0  0  0  0  0  0  0  0  0  0  0  0
   52.6550   30.4730   41.1120 C   0  0  0  0  0  0  0  0  0  0  0  0
   48.7195   33.0968   39.9951 H   0  0  0  0  0  0  0  0  0  0  0  0
   47.4936   35.0418   37.6611 H   0  0  0  0  0  0  0  0  0  0  0  0
   49.0391   34.9764   37.5175 H   0  0  0  0  0  0  0  0  0  0  0  0
   47.1874   32.2787   37.1607 H   0  0  0  0  0  0  0  0  0  0  0  0
   43.7285   33.8931   40.6603 H   0  0  0  0  0  0  0  0  0  0  0  0
   44.5488   36.3179   42.3915 H   0  0  0  0  0  0  0  0  0  0  0  0
   46.0839   32.6241   44.0242 H   0  0  0  0  0  0  0  0  0  0  0  0
   44.4589   35.6565   46.5406 H   0  0  0  0  0  0  0  0  0  0  0  0
   54.2098   31.4868   39.0265 H   0  0  0  0  0  0  0  0  0  0  0  0
   50.0429   30.9991   39.7556 H   0  0  0  0  0  0  0  0  0  0  0  0
   52.2614   31.1057   41.9212 H   0  0  0  0  0  0  0  0  0  0  0  0
   52.2250   29.4638   41.1935 H   0  0  0  0  0  0  0  0  0  0  0  0
   53.7503   30.4126   41.1935 H   0  0  0  0  0  0  0  0  0  0  0  0
  1  7  1  0
  2  1  1  0
  3  2  1  0
  3  1  1  0
  4 10  1  0
  5  4  1  0
  6  7  1  0
  6  5  2  0
  7  8  2  0
  8  4  1  0
  9 14  2  0
 10  9  1  0
 10 11  2  0
 11 12  1  0
 12 13  2  0
 14 13  1  0
 15  3  1  0
 16 15  2  0
 17 15  1  0
 17 20  1  0
 18 22  1  0
 19 20  2  0
 19 18  1  0
 20 21  1  0
 21 22  2  0
 22 23  1  0
  1 24  1  1
  2 25  1  0
  2 26  1  0
  3 27  1  1
  5 28  1  0
  9 29  1  0
 11 30  1  0
 13 31  1  0
 18 32  1  0
 21 33  1  0
 23 34  1  0
 23 35  1  0
 23 36  1  0
M  ISO  8  24  13  25  13  26  13  27  13  28  14  29  14  30  14  31  14
M  ISO  5  32   9  33  14  34   8  35   8  36   8
M  END
>  <minimizedAffinity>  (1) 
-4.6554718

>  <minimizedRMSD>  (1) 
0.255440027

$$$$
