
     RDKit          3D

 42 45  0  0  1  0  0  0  0  0999 V2000
   48.0930   33.3660   39.1200 C   0  0  2  0  0  0  0  0  0  0  0  0
   48.2570   34.2890   37.8970 C   0  0  0  0  0  0  0  0  0  0  0  0
   47.9460   32.8170   37.7230 C   0  0  1  0  0  0  0  0  0  0  0  0
   45.6360   34.0580   41.6930 N   0  0  0  0  0  0  0  0  0  0  0  0
   44.8150   33.8470   40.6300 C   0  0  0  0  0  0  0  0  0  0  0  0
   45.5370   33.5660   39.5440 N   0  0  0  0  0  0  0  0  0  0  0  0
   46.8580   33.6010   39.9390 C   0  0  0  0  0  0  0  0  0  0  0  0
   46.8390   33.8970   41.2200 N   0  0  0  0  0  0  0  0  0  0  0  0
   44.7590   35.6710   43.2560 C   0  0  0  0  0  0  0  0  0  0  0  0
   45.3600   34.3870   43.0440 C   0  0  0  0  0  0  0  0  0  0  0  0
   45.6110   33.6110   44.1280 C   0  0  0  0  0  0  0  0  0  0  0  0
   45.2710   34.1150   45.3510 N   0  0  0  0  0  0  0  0  0  0  0  0
   44.7130   35.3110   45.5280 C   0  0  0  0  0  0  0  0  0  0  0  0
   44.4570   36.0930   44.4660 N   0  0  0  0  0  0  0  0  0  0  0  0
   48.9420   31.8650   37.2800 C   0  0  0  0  0  0  0  0  0  0  0  0
   48.5560   30.6750   37.0370 O   0  0  0  0  0  0  0  0  0  0  0  0
   50.2640   32.2110   37.1130 O   0  0  0  0  0  0  0  0  0  0  0  0
   53.1560   31.5120   38.9320 N   0  0  0  0  0  0  0  0  0  0  0  0
   52.5120   31.9660   37.8430 N   0  0  0  0  0  0  0  0  0  0  0  0
   51.1820   31.8260   38.0640 C   0  0  0  0  0  0  0  0  0  0  0  0
   50.9670   31.2800   39.3020 C   0  0  0  0  0  0  0  0  0  0  0  0
   52.2480   31.0920   39.8270 C   0  0  0  0  0  0  0  0  0  0  0  0
   52.5220   30.5170   41.1640 C   0  0  0  0  0  0  0  0  0  0  0  0
   52.6690   29.0290   41.0770 C   0  0  0  0  0  0  0  0  0  0  0  0
   51.4210   30.8690   42.1630 C   0  0  0  0  0  0  0  0  0  0  0  0
   48.6975   33.0752   39.9918 H   0  0  0  0  0  0  0  0  0  0  0  0
   47.4918   35.0458   37.6696 H   0  0  0  0  0  0  0  0  0  0  0  0
   49.0372   34.9728   37.5314 H   0  0  0  0  0  0  0  0  0  0  0  0
   47.1717   32.2872   37.1487 H   0  0  0  0  0  0  0  0  0  0  0  0
   43.7167   33.9002   40.6609 H   0  0  0  0  0  0  0  0  0  0  0  0
   44.5460   36.3162   42.3910 H   0  0  0  0  0  0  0  0  0  0  0  0
   46.0697   32.6164   44.0261 H   0  0  0  0  0  0  0  0  0  0  0  0
   44.4623   35.6579   46.5413 H   0  0  0  0  0  0  0  0  0  0  0  0
   54.1779   31.4900   39.0588 H   0  0  0  0  0  0  0  0  0  0  0  0
   50.0030   31.0430   39.7759 H   0  0  0  0  0  0  0  0  0  0  0  0
   53.4653   30.9548   41.5226 H   0  0  0  0  0  0  0  0  0  0  0  0
   52.7109   28.6048   42.0910 H   0  0  0  0  0  0  0  0  0  0  0  0
   51.8082   28.6064   40.5380 H   0  0  0  0  0  0  0  0  0  0  0  0
   53.5958   28.7830   40.5380 H   0  0  0  0  0  0  0  0  0  0  0  0
   51.8027   30.7470   43.1874 H   0  0  0  0  0  0  0  0  0  0  0  0
   51.1073   31.9122   42.0104 H   0  0  0  0  0  0  0  0  0  0  0  0
   50.5603   30.2012   42.0104 H   0  0  0  0  0  0  0  0  0  0  0  0
  1  7  1  0
  2  1  1  0
  3  2  1  0
  3  1  1  0
  4 10  1  0
  5  4  1  0
  6  7  1  0
  6  5  2  0
  7  8  2  0
  8  4  1  0
  9 14  2  0
 10  9  1  0
 10 11  2  0
 11 12  1  0
 12 13  2  0
 14 13  1  0
 15  3  1  0
 16 15  2  0
 17 15  1  0
 17 20  1  0
 18 22  1  0
 19 20  2  0
 19 18  1  0
 20 21  1  0
 21 22  2  0
 22 23  1  0
 23 25  1  0
 24 23  1  0
  1 26  1  1
  2 27  1  0
  2 28  1  0
  3 29  1  1
  5 30  1  0
  9 31  1  0
 11 32  1  0
 13 33  1  0
 18 34  1  0
 21 35  1  0
 23 36  1  0
 24 37  1  0
 24 38  1  0
 24 39  1  0
 25 40  1  0
 25 41  1  0
 25 42  1  0
M  ISO  8  26  13  27  13  28  13  29  13  30  14  31  14  32  14  33  14
M  ISO  8  34   9  35  14  36   8  37   8  38   8  39   8  40   8  41   8
M  ISO  1  42   8
M  END
>  <minimizedAffinity>  (1) 
-4.65290833

>  <minimizedRMSD>  (1) 
0.328625083

$$$$
