
     RDKit          3D

 47 48  0  0  1  0  0  0  0  0999 V2000
   47.8600   29.4440   45.9330 C   0  0  0  0  0  0  0  0  0  0  0  0
   46.6080   32.8400   46.7390 C   0  0  0  0  0  0  0  0  0  0  0  0
   45.8350   33.2010   45.6160 C   0  0  0  0  0  0  0  0  0  0  0  0
   45.7780   32.2320   44.6030 C   0  0  0  0  0  0  0  0  0  0  0  0
   46.4300   31.0640   44.7420 N   0  0  0  0  0  0  0  0  0  0  0  0
   47.1660   30.7630   45.8540 C   0  0  0  0  0  0  0  0  0  0  0  0
   47.2330   31.6690   46.8260 N   0  0  0  0  0  0  0  0  0  0  0  0
   45.1580   34.4500   45.5040 N   0  0  0  0  0  0  0  0  0  0  0  0
   44.9750   35.1380   44.2570 C   0  0  0  0  0  0  0  0  0  0  0  0
   45.9590   35.0830   43.4050 N   0  0  0  0  0  0  0  0  0  0  0  0
   43.6940   35.8010   44.1400 N   0  0  0  0  0  0  0  0  0  0  0  0
   45.8940   35.5420   42.4800 H   0  0  0  0  0  0  0  0  0  0  0  0
   46.9040   28.3780   45.3370 C   0  0  0  0  0  0  0  0  0  0  0  0
   49.0520   29.5130   45.0350 C   0  0  0  0  0  0  0  0  0  0  0  0
   48.1250   29.0150   47.3480 C   0  0  0  0  0  0  0  0  0  0  0  0
   49.4610   28.8110   47.7380 N   0  0  0  0  0  0  0  0  0  0  0  0
   49.8330   27.5620   48.2810 C   0  0  0  0  0  0  0  0  0  0  0  0
   50.2110   27.6490   49.7630 C   0  0  0  0  0  0  0  0  0  0  0  0
   51.1490   28.7720   50.0680 C   0  0  0  0  0  0  0  0  0  0  0  0
   51.4190   29.6890   48.9020 C   0  0  0  0  0  0  0  0  0  0  0  0
   50.0700   29.9670   48.2580 C   0  0  2  0  0  0  0  0  0  0  0  0
   49.2090   30.7240   49.2230 C   0  0  0  0  0  0  0  0  0  0  0  0
   49.7840   31.8080   49.5070 O   0  0  0  0  0  0  0  0  0  0  0  0
   48.0060   30.6660   49.9180 O   0  0  0  0  0  0  0  0  0  0  0  0
   46.6973   33.5521   47.5726 H   0  0  0  0  0  0  0  0  0  0  0  0
   45.1968   32.4287   43.6900 H   0  0  0  0  0  0  0  0  0  0  0  0
   44.7811   34.8807   46.3603 H   0  0  0  0  0  0  0  0  0  0  0  0
   43.4612   36.3241   43.2838 H   0  0  0  0  0  0  0  0  0  0  0  0
   43.0151   35.7498   44.9129 H   0  0  0  0  0  0  0  0  0  0  0  0
   46.4119   27.8293   46.1536 H   0  0  0  0  0  0  0  0  0  0  0  0
   46.1424   28.8740   44.7174 H   0  0  0  0  0  0  0  0  0  0  0  0
   47.4797   27.6747   44.7174 H   0  0  0  0  0  0  0  0  0  0  0  0
   49.9669   29.5660   45.6434 H   0  0  0  0  0  0  0  0  0  0  0  0
   49.0853   28.6153   44.4002 H   0  0  0  0  0  0  0  0  0  0  0  0
   48.9815   30.4086   44.4002 H   0  0  0  0  0  0  0  0  0  0  0  0
   47.7063   29.7890   48.0081 H   0  0  0  0  0  0  0  0  0  0  0  0
   47.6621   28.0201   47.4242 H   0  0  0  0  0  0  0  0  0  0  0  0
   48.9878   26.8662   48.1739 H   0  0  0  0  0  0  0  0  0  0  0  0
   50.7202   27.2129   47.7324 H   0  0  0  0  0  0  0  0  0  0  0  0
   49.2919   27.7923   50.3501 H   0  0  0  0  0  0  0  0  0  0  0  0
   50.7270   26.7131   50.0235 H   0  0  0  0  0  0  0  0  0  0  0  0
   50.7167   29.3701   50.8837 H   0  0  0  0  0  0  0  0  0  0  0  0
   52.1119   28.3137   50.3378 H   0  0  0  0  0  0  0  0  0  0  0  0
   51.8746   30.6269   49.2523 H   0  0  0  0  0  0  0  0  0  0  0  0
   52.1176   29.2313   48.1861 H   0  0  0  0  0  0  0  0  0  0  0  0
   50.2228   30.6013   47.3724 H   0  0  0  0  0  0  0  0  0  0  0  0
   47.7423   31.4111   50.5141 H   0  0  0  0  0  0  0  0  0  0  0  0
  1 15  1  0
  2  7  2  0
  3  2  1  0
  4  5  1  0
  4  3  2  0
  5  6  2  0
  6  1  1  0
  6  7  1  0
  8  3  1  0
  9  8  1  0
 10  9  2  0
 11  9  1  0
 12 10  1  0
 13  1  1  0
 14  1  1  0
 15 16  1  0
 16 21  1  0
 16 17  1  0
 17 18  1  0
 18 19  1  0
 20 19  1  0
 21 20  1  0
 21 22  1  0
 22 23  2  0
 22 24  1  0
  2 25  1  0
  4 26  1  0
  8 27  1  0
 11 28  1  0
 11 29  1  0
 13 30  1  0
 13 31  1  0
 13 32  1  0
 14 33  1  0
 14 34  1  0
 14 35  1  0
 15 36  1  0
 15 37  1  0
 17 38  1  0
 17 39  1  0
 18 40  1  0
 18 41  1  0
 19 42  1  0
 19 43  1  0
 20 44  1  0
 20 45  1  0
 21 46  1  6
 24 47  1  0
M  ISO  8  25  14  26  14  30   8  31   8  32   8  33   8  34   8  35   8
M  ISO  8  36   8  37   8  38  13  39  13  40  13  41  13  42  13  43  13
M  ISO  4  44  13  45  13  46  13  47   3
M  END
>  <minimizedAffinity>  (1) 
-4.99703884

>  <minimizedRMSD>  (1) 
1.68197596

$$$$
