
     RDKit          3D

 45 46  0  0  1  0  0  0  0  0999 V2000
   47.2430   30.0450   45.7400 C   0  0  0  0  0  0  0  0  0  0  0  0
   45.9950   33.5190   45.7900 C   0  0  0  0  0  0  0  0  0  0  0  0
   45.2960   33.6690   44.5970 C   0  0  0  0  0  0  0  0  0  0  0  0
   45.2750   32.5190   43.7780 C   0  0  0  0  0  0  0  0  0  0  0  0
   45.9040   31.4010   44.1830 N   0  0  0  0  0  0  0  0  0  0  0  0
   46.5740   31.3140   45.3630 C   0  0  0  0  0  0  0  0  0  0  0  0
   46.6030   32.3940   46.1500 N   0  0  0  0  0  0  0  0  0  0  0  0
   44.6400   34.8690   44.2000 N   0  0  0  0  0  0  0  0  0  0  0  0
   44.9640   35.5970   43.0090 C   0  0  0  0  0  0  0  0  0  0  0  0
   46.2120   35.6330   42.6680 N   0  0  0  0  0  0  0  0  0  0  0  0
   43.8390   36.1980   42.3460 N   0  0  0  0  0  0  0  0  0  0  0  0
   46.5570   36.1620   41.8490 H   0  0  0  0  0  0  0  0  0  0  0  0
   46.3430   28.8710   45.2600 C   0  0  0  0  0  0  0  0  0  0  0  0
   48.5170   29.9630   44.9390 C   0  0  0  0  0  0  0  0  0  0  0  0
   47.4030   29.8520   47.2020 C   0  0  0  0  0  0  0  0  0  0  0  0
   48.6010   30.2700   47.8180 N   0  0  0  0  0  0  0  0  0  0  0  0
   49.6250   29.3130   48.0480 C   0  0  0  0  0  0  0  0  0  0  0  0
   49.8510   29.0560   49.5390 C   0  0  0  0  0  0  0  0  0  0  0  0
   49.9400   30.2990   50.3580 C   0  0  0  0  0  0  0  0  0  0  0  0
   49.6570   31.5690   49.5880 C   0  0  0  0  0  0  0  0  0  0  0  0
   48.4090   31.2940   48.7690 C   0  0  2  0  0  0  0  0  0  0  0  0
   47.4040   31.0020   49.6960 O   0  0  0  0  0  0  0  0  0  0  0  0
   46.0473   34.3795   46.4733 H   0  0  0  0  0  0  0  0  0  0  0  0
   44.7468   32.5372   42.8133 H   0  0  0  0  0  0  0  0  0  0  0  0
   43.8897   35.2346   44.8035 H   0  0  0  0  0  0  0  0  0  0  0  0
   43.9800   36.7404   41.4818 H   0  0  0  0  0  0  0  0  0  0  0  0
   42.8919   36.0863   42.7352 H   0  0  0  0  0  0  0  0  0  0  0  0
   45.9361   28.3402   46.1333 H   0  0  0  0  0  0  0  0  0  0  0  0
   45.5154   29.2677   44.6536 H   0  0  0  0  0  0  0  0  0  0  0  0
   46.9410   28.1748   44.6536 H   0  0  0  0  0  0  0  0  0  0  0  0
   49.3770   29.9076   45.6226 H   0  0  0  0  0  0  0  0  0  0  0  0
   48.4942   29.0645   44.3049 H   0  0  0  0  0  0  0  0  0  0  0  0
   48.6096   30.8570   44.3049 H   0  0  0  0  0  0  0  0  0  0  0  0
   46.5816   30.3961   47.6912 H   0  0  0  0  0  0  0  0  0  0  0  0
   47.4091   28.7590   47.3256 H   0  0  0  0  0  0  0  0  0  0  0  0
   49.3407   28.3668   47.5645 H   0  0  0  0  0  0  0  0  0  0  0  0
   50.5604   29.7116   47.6283 H   0  0  0  0  0  0  0  0  0  0  0  0
   49.0139   28.4508   49.9172 H   0  0  0  0  0  0  0  0  0  0  0  0
   50.8188   28.5415   49.6320 H   0  0  0  0  0  0  0  0  0  0  0  0
   49.2122   30.2240   51.1794 H   0  0  0  0  0  0  0  0  0  0  0  0
   50.9783   30.3696   50.7143 H   0  0  0  0  0  0  0  0  0  0  0  0
   49.4824   32.4051   50.2812 H   0  0  0  0  0  0  0  0  0  0  0  0
   50.5058   31.8482   48.9465 H   0  0  0  0  0  0  0  0  0  0  0  0
   48.1320   32.1656   48.1578 H   0  0  0  0  0  0  0  0  0  0  0  0
   47.7611   31.1058   50.6135 H   0  0  0  0  0  0  0  0  0  0  0  0
  1 15  1  0
  2  7  2  0
  3  2  1  0
  4  5  1  0
  4  3  2  0
  5  6  2  0
  6  1  1  0
  6  7  1  0
  8  3  1  0
  9  8  1  0
 10  9  2  0
 11  9  1  0
 12 10  1  0
 13  1  1  0
 14  1  1  0
 15 16  1  0
 16 17  1  0
 16 21  1  0
 17 18  1  0
 18 19  1  0
 20 19  1  0
 21 20  1  0
 21 22  1  0
  2 23  1  0
  4 24  1  0
  8 25  1  0
 11 26  1  0
 11 27  1  0
 13 28  1  0
 13 29  1  0
 13 30  1  0
 14 31  1  0
 14 32  1  0
 14 33  1  0
 15 34  1  0
 15 35  1  0
 17 36  1  0
 17 37  1  0
 18 38  1  0
 18 39  1  0
 19 40  1  0
 19 41  1  0
 20 42  1  0
 20 43  1  0
 21 44  1  6
 22 45  1  0
M  ISO  8  23  14  24  14  28   8  29   8  30   8  31   8  32   8  33   8
M  ISO  8  34   8  35   8  36  13  37  13  38  13  39  13  40  13  41  13
M  ISO  4  42  13  43  13  44  13  45   3
M  END
>  <minimizedAffinity>  (1) 
-5.12763214

>  <minimizedRMSD>  (1) 
0.544685304

$$$$
