
     RDKit          3D

 60 62  0  0  1  0  0  0  0  0999 V2000
   47.6440   29.7090   44.2480 C   0  0  0  0  0  0  0  0  0  0  0  0
   45.4650   32.6950   44.3260 C   0  0  0  0  0  0  0  0  0  0  0  0
   44.9990   32.8430   43.0130 C   0  0  0  0  0  0  0  0  0  0  0  0
   45.4720   31.8730   42.1250 C   0  0  0  0  0  0  0  0  0  0  0  0
   46.2990   30.9110   42.5540 N   0  0  0  0  0  0  0  0  0  0  0  0
   46.7250   30.8030   43.8290 C   0  0  0  0  0  0  0  0  0  0  0  0
   46.2880   31.7140   44.6890 N   0  0  0  0  0  0  0  0  0  0  0  0
   44.1140   33.8870   42.6000 N   0  0  0  0  0  0  0  0  0  0  0  0
   44.5560   35.1240   42.0540 C   0  0  0  0  0  0  0  0  0  0  0  0
   45.6290   35.6320   42.5870 N   0  0  0  0  0  0  0  0  0  0  0  0
   43.7200   35.6150   40.9800 N   0  0  0  0  0  0  0  0  0  0  0  0
   46.0180   36.5330   42.2560 H   0  0  0  0  0  0  0  0  0  0  0  0
   47.3550   28.4960   43.3350 C   0  0  0  0  0  0  0  0  0  0  0  0
   49.0320   30.1800   43.8830 C   0  0  0  0  0  0  0  0  0  0  0  0
   47.4660   29.2640   45.6550 C   0  0  0  0  0  0  0  0  0  0  0  0
   48.5310   29.2120   46.5300 N   0  0  0  0  0  0  0  0  0  0  0  0
   49.2010   27.9820   46.7060 C   0  0  0  0  0  0  0  0  0  0  0  0
   49.1280   27.5350   48.1550 C   0  0  0  0  0  0  0  0  0  0  0  0
   49.7610   28.5750   48.9960 C   0  0  0  0  0  0  0  0  0  0  0  0
   49.7500   29.9620   48.5100 C   0  0  0  0  0  0  0  0  0  0  0  0
   48.6400   30.1990   47.5120 C   0  0  2  0  0  0  0  0  0  0  0  0
   47.4540   30.7270   48.2030 C   0  0  0  0  0  0  0  0  0  0  0  0
   47.1150   32.1850   48.0370 C   0  0  0  0  0  0  0  0  0  0  0  0
   45.6750   32.4580   48.4640 C   0  0  0  0  0  0  0  0  0  0  0  0
   45.2090   31.4530   49.4820 C   0  0  0  0  0  0  0  0  0  0  0  0
   45.1850   30.0560   48.9570 C   0  0  0  0  0  0  0  0  0  0  0  0
   46.1990   29.9730   47.8070 C   0  0  0  0  0  0  0  0  0  0  0  0
   45.1376   33.4184   45.0872 H   0  0  0  0  0  0  0  0  0  0  0  0
   45.1637   31.8998   41.0694 H   0  0  0  0  0  0  0  0  0  0  0  0
   43.1005   33.7352   42.7035 H   0  0  0  0  0  0  0  0  0  0  0  0
   42.8953   35.0751   40.6813 H   0  0  0  0  0  0  0  0  0  0  0  0
   43.9496   36.5044   40.5141 H   0  0  0  0  0  0  0  0  0  0  0  0
   47.1444   27.6122   43.9552 H   0  0  0  0  0  0  0  0  0  0  0  0
   46.4837   28.7144   42.7000 H   0  0  0  0  0  0  0  0  0  0  0  0
   48.2311   28.2980   42.7000 H   0  0  0  0  0  0  0  0  0  0  0  0
   49.6062   30.3749   44.8008 H   0  0  0  0  0  0  0  0  0  0  0  0
   49.5389   29.4036   43.2912 H   0  0  0  0  0  0  0  0  0  0  0  0
   48.9617   31.1046   43.2912 H   0  0  0  0  0  0  0  0  0  0  0  0
   46.7262   29.9425   46.1049 H   0  0  0  0  0  0  0  0  0  0  0  0
   47.2010   28.2028   45.5381 H   0  0  0  0  0  0  0  0  0  0  0  0
   48.7298   27.2194   46.0685 H   0  0  0  0  0  0  0  0  0  0  0  0
   50.2574   28.1113   46.4281 H   0  0  0  0  0  0  0  0  0  0  0  0
   48.0766   27.4061   48.4517 H   0  0  0  0  0  0  0  0  0  0  0  0
   49.6511   26.5757   48.2818 H   0  0  0  0  0  0  0  0  0  0  0  0
   49.2468   28.5659   49.9684 H   0  0  0  0  0  0  0  0  0  0  0  0
   50.8261   28.3006   49.0138 H   0  0  0  0  0  0  0  0  0  0  0  0
   49.6091   30.6381   49.3662 H   0  0  0  0  0  0  0  0  0  0  0  0
   50.7089   30.1552   48.0068 H   0  0  0  0  0  0  0  0  0  0  0  0
   48.8835   31.0178   46.8190 H   0  0  0  0  0  0  0  0  0  0  0  0
   47.7604   30.5877   49.2502 H   0  0  0  0  0  0  0  0  0  0  0  0
   47.7955   32.7865   48.6575 H   0  0  0  0  0  0  0  0  0  0  0  0
   47.2257   32.4545   46.9763 H   0  0  0  0  0  0  0  0  0  0  0  0
   45.6154   33.4656   48.9013 H   0  0  0  0  0  0  0  0  0  0  0  0
   45.0285   32.3808   47.5774 H   0  0  0  0  0  0  0  0  0  0  0  0
   45.8876   31.4904   50.3469 H   0  0  0  0  0  0  0  0  0  0  0  0
   44.1773   31.7181   49.7563 H   0  0  0  0  0  0  0  0  0  0  0  0
   45.4638   29.3512   49.7542 H   0  0  0  0  0  0  0  0  0  0  0  0
   44.1772   29.7946   48.6021 H   0  0  0  0  0  0  0  0  0  0  0  0
   45.7677   30.4240   46.9012 H   0  0  0  0  0  0  0  0  0  0  0  0
   46.4454   28.9206   47.6027 H   0  0  0  0  0  0  0  0  0  0  0  0
  1 15  1  0
  2  7  2  0
  3  2  1  0
  4  5  1  0
  4  3  2  0
  5  6  2  0
  6  1  1  0
  6  7  1  0
  8  3  1  0
  9 10  2  0
  9  8  1  0
 11  9  1  0
 12 10  1  0
 13  1  1  0
 14  1  1  0
 15 16  1  0
 16 17  1  0
 16 21  1  0
 17 18  1  0
 18 19  1  0
 20 19  1  0
 21 22  1  0
 21 20  1  0
 23 22  1  0
 23 24  1  0
 24 25  1  0
 26 25  1  0
 27 22  1  0
 27 26  1  0
  2 28  1  0
  4 29  1  0
  8 30  1  0
 11 31  1  0
 11 32  1  0
 13 33  1  0
 13 34  1  0
 13 35  1  0
 14 36  1  0
 14 37  1  0
 14 38  1  0
 15 39  1  0
 15 40  1  0
 17 41  1  0
 17 42  1  0
 18 43  1  0
 18 44  1  0
 19 45  1  0
 19 46  1  0
 20 47  1  0
 20 48  1  0
 21 49  1  6
 22 50  1  0
 23 51  1  0
 23 52  1  0
 24 53  1  0
 24 54  1  0
 25 55  1  0
 25 56  1  0
 26 57  1  0
 26 58  1  0
 27 59  1  0
 27 60  1  0
M  ISO  8  28  14  29  14  33   8  34   8  35   8  36   8  37   8  38   8
M  ISO  8  39   8  40   8  41  13  42  13  43  13  44  13  45  13  46  13
M  ISO  8  47  13  48  13  49  13  50  13  51  13  52  13  53  13  54  13
M  ISO  6  55  13  56  13  57  13  58  13  59  13  60  13
M  END
>  <minimizedAffinity>  (1) 
-4.78423405

>  <minimizedRMSD>  (1) 
2.22579932

$$$$
