
     RDKit          3D

 56 57  0  0  1  0  0  0  0  0999 V2000
   47.8970   29.5390   46.5330 C   0  0  0  0  0  0  0  0  0  0  0  0
   46.6710   32.9530   47.0660 C   0  0  0  0  0  0  0  0  0  0  0  0
   45.8550   33.2250   45.9550 C   0  0  0  0  0  0  0  0  0  0  0  0
   45.7480   32.1630   45.0270 C   0  0  0  0  0  0  0  0  0  0  0  0
   46.4010   31.0060   45.2420 N   0  0  0  0  0  0  0  0  0  0  0  0
   47.1800   30.8110   46.3490 C   0  0  0  0  0  0  0  0  0  0  0  0
   47.2820   31.7880   47.2140 N   0  0  0  0  0  0  0  0  0  0  0  0
   45.1780   34.4640   45.7500 N   0  0  0  0  0  0  0  0  0  0  0  0
   44.9950   35.0760   44.4730 C   0  0  0  0  0  0  0  0  0  0  0  0
   45.9530   34.9420   43.6270 N   0  0  0  0  0  0  0  0  0  0  0  0
   43.7440   35.7560   44.3500 N   0  0  0  0  0  0  0  0  0  0  0  0
   45.8980   35.3420   42.6680 H   0  0  0  0  0  0  0  0  0  0  0  0
   46.9140   28.4060   46.1170 C   0  0  0  0  0  0  0  0  0  0  0  0
   49.0210   29.4740   45.5720 C   0  0  0  0  0  0  0  0  0  0  0  0
   48.2780   29.2330   47.9430 C   0  0  0  0  0  0  0  0  0  0  0  0
   49.5480   28.7760   48.2540 N   0  0  0  0  0  0  0  0  0  0  0  0
   49.6960   27.3370   48.0670 C   0  0  0  0  0  0  0  0  0  0  0  0
   49.8010   26.6120   49.3990 C   0  0  0  0  0  0  0  0  0  0  0  0
   50.7170   27.2500   50.3600 C   0  0  0  0  0  0  0  0  0  0  0  0
   51.3780   28.4650   49.7010 C   0  0  0  0  0  0  0  0  0  0  0  0
   50.2720   29.3760   49.2380 C   0  0  1  0  0  0  0  0  0  0  0  0
   50.6880   30.6340   49.8030 C   0  0  0  0  0  0  0  0  0  0  0  0
   51.0050   30.6400   51.2770 C   0  0  0  0  0  0  0  0  0  0  0  0
   51.9520   31.3200   49.2530 C   0  0  0  0  0  0  0  0  0  0  0  0
   49.6940   31.7850   49.4810 C   0  0  0  0  0  0  0  0  0  0  0  0
   46.8058   33.7292   47.8337 H   0  0  0  0  0  0  0  0  0  0  0  0
   45.1286   32.2832   44.1260 H   0  0  0  0  0  0  0  0  0  0  0  0
   44.7970   34.9478   46.5757 H   0  0  0  0  0  0  0  0  0  0  0  0
   43.5027   36.2354   43.4709 H   0  0  0  0  0  0  0  0  0  0  0  0
   43.0837   35.7667   45.1405 H   0  0  0  0  0  0  0  0  0  0  0  0
   46.5008   27.9298   47.0184 H   0  0  0  0  0  0  0  0  0  0  0  0
   46.0949   28.8324   45.5193 H   0  0  0  0  0  0  0  0  0  0  0  0
   47.4517   27.6552   45.5193 H   0  0  0  0  0  0  0  0  0  0  0  0
   49.9716   29.4190   46.1228 H   0  0  0  0  0  0  0  0  0  0  0  0
   48.9115   28.5807   44.9395 H   0  0  0  0  0  0  0  0  0  0  0  0
   49.0152   30.3740   44.9395 H   0  0  0  0  0  0  0  0  0  0  0  0
   48.1301   30.1605   48.5156 H   0  0  0  0  0  0  0  0  0  0  0  0
   47.6430   28.3677   48.1837 H   0  0  0  0  0  0  0  0  0  0  0  0
   48.8213   26.9554   47.5199 H   0  0  0  0  0  0  0  0  0  0  0  0
   50.6210   27.1551   47.5002 H   0  0  0  0  0  0  0  0  0  0  0  0
   48.7989   26.5725   49.8508 H   0  0  0  0  0  0  0  0  0  0  0  0
   50.2102   25.6135   49.1855 H   0  0  0  0  0  0  0  0  0  0  0  0
   50.1518   27.5749   51.2460 H   0  0  0  0  0  0  0  0  0  0  0  0
   51.4909   26.5300   50.6645 H   0  0  0  0  0  0  0  0  0  0  0  0
   52.0170   28.9872   50.4283 H   0  0  0  0  0  0  0  0  0  0  0  0
   52.0094   28.1555   48.8551 H   0  0  0  0  0  0  0  0  0  0  0  0
   49.2351   29.7400   49.2871 H   0  0  0  0  0  0  0  0  0  0  0  0
   50.0684   30.6223   51.8536 H   0  0  0  0  0  0  0  0  0  0  0  0
   51.6059   29.7531   51.5264 H   0  0  0  0  0  0  0  0  0  0  0  0
   51.5720   31.5490   51.5264 H   0  0  0  0  0  0  0  0  0  0  0  0
   52.5786   31.6601   50.0907 H   0  0  0  0  0  0  0  0  0  0  0  0
   52.5186   30.6056   48.6377 H   0  0  0  0  0  0  0  0  0  0  0  0
   51.6618   32.1844   48.6377 H   0  0  0  0  0  0  0  0  0  0  0  0
   49.3191   32.2191   50.4196 H   0  0  0  0  0  0  0  0  0  0  0  0
   50.2095   32.5622   48.8977 H   0  0  0  0  0  0  0  0  0  0  0  0
   48.8500   31.3882   48.8977 H   0  0  0  0  0  0  0  0  0  0  0  0
  1 15  1  0
  2  7  2  0
  3  2  1  0
  4  5  1  0
  4  3  2  0
  5  6  2  0
  6  1  1  0
  6  7  1  0
  8  3  1  0
  9  8  1  0
 10  9  2  0
 11  9  1  0
 12 10  1  0
 13  1  1  0
 14  1  1  0
 15 16  1  0
 16 21  1  0
 17 16  1  0
 17 18  1  0
 18 19  1  0
 20 19  1  0
 21 20  1  0
 21 22  1  0
 22 23  1  0
 24 22  1  0
 25 22  1  0
  2 26  1  0
  4 27  1  0
  8 28  1  0
 11 29  1  0
 11 30  1  0
 13 31  1  0
 13 32  1  0
 13 33  1  0
 14 34  1  0
 14 35  1  0
 14 36  1  0
 15 37  1  0
 15 38  1  0
 17 39  1  0
 17 40  1  0
 18 41  1  0
 18 42  1  0
 19 43  1  0
 19 44  1  0
 20 45  1  0
 20 46  1  0
 21 47  1  1
 23 48  1  0
 23 49  1  0
 23 50  1  0
 24 51  1  0
 24 52  1  0
 24 53  1  0
 25 54  1  0
 25 55  1  0
 25 56  1  0
M  ISO  8  26  14  27  14  31   8  32   8  33   8  34   8  35   8  36   8
M  ISO  8  37   8  38   8  39  13  40  13  41  13  42  13  43  13  44  13
M  ISO  8  45  13  46  13  47  13  48   8  49   8  50   8  51   8  52   8
M  ISO  4  53   8  54   8  55   8  56   8
M  END
>  <minimizedAffinity>  (1) 
-4.93454504

>  <minimizedRMSD>  (1) 
2.38153267

$$$$
