
     RDKit          3D

 34 37  0  0  1  0  0  0  0  0999 V2000
   48.1040   33.3590   39.1200 C   0  0  2  0  0  0  0  0  0  0  0  0
   48.2690   34.2920   37.9010 C   0  0  0  0  0  0  0  0  0  0  0  0
   47.9500   32.8220   37.7190 C   0  0  1  0  0  0  0  0  0  0  0  0
   45.6500   34.0570   41.6940 N   0  0  0  0  0  0  0  0  0  0  0  0
   44.8260   33.8400   40.6340 C   0  0  0  0  0  0  0  0  0  0  0  0
   45.5470   33.5550   39.5450 N   0  0  0  0  0  0  0  0  0  0  0  0
   46.8670   33.5950   39.9380 C   0  0  0  0  0  0  0  0  0  0  0  0
   46.8440   33.8970   41.2190 N   0  0  0  0  0  0  0  0  0  0  0  0
   44.7640   35.6700   43.2520 C   0  0  0  0  0  0  0  0  0  0  0  0
   45.3700   34.3880   43.0430 C   0  0  0  0  0  0  0  0  0  0  0  0
   45.6190   33.6150   44.1290 C   0  0  0  0  0  0  0  0  0  0  0  0
   45.2780   34.1100   45.3510 N   0  0  0  0  0  0  0  0  0  0  0  0
   44.7130   35.3120   45.5260 C   0  0  0  0  0  0  0  0  0  0  0  0
   44.4570   36.0910   44.4620 N   0  0  0  0  0  0  0  0  0  0  0  0
   48.9500   31.8720   37.2640 C   0  0  0  0  0  0  0  0  0  0  0  0
   48.5530   30.6890   37.0080 O   0  0  0  0  0  0  0  0  0  0  0  0
   50.2670   32.2120   37.1040 O   0  0  0  0  0  0  0  0  0  0  0  0
   53.1590   31.4860   38.9140 N   0  0  0  0  0  0  0  0  0  0  0  0
   52.5160   31.9890   37.8460 N   0  0  0  0  0  0  0  0  0  0  0  0
   51.1880   31.7970   38.0410 C   0  0  0  0  0  0  0  0  0  0  0  0
   50.9790   31.1680   39.2380 C   0  0  0  0  0  0  0  0  0  0  0  0
   52.2550   30.9840   39.7690 C   0  0  0  0  0  0  0  0  0  0  0  0
   52.4860   30.1840   41.3620 S   0  0  0  0  0  0  0  0  0  0  0  0
   48.7096   33.0592   39.9879 H   0  0  0  0  0  0  0  0  0  0  0  0
   47.5068   35.0541   37.6813 H   0  0  0  0  0  0  0  0  0  0  0  0
   49.0512   34.9746   37.5373 H   0  0  0  0  0  0  0  0  0  0  0  0
   47.1704   32.2986   37.1461 H   0  0  0  0  0  0  0  0  0  0  0  0
   43.7277   33.8914   40.6678 H   0  0  0  0  0  0  0  0  0  0  0  0
   44.5513   36.3142   42.3861 H   0  0  0  0  0  0  0  0  0  0  0  0
   46.0807   32.6219   44.0264 H   0  0  0  0  0  0  0  0  0  0  0  0
   44.4594   35.6601   46.5382 H   0  0  0  0  0  0  0  0  0  0  0  0
   54.1795   31.4860   39.0533 H   0  0  0  0  0  0  0  0  0  0  0  0
   50.0172   30.8728   39.6829 H   0  0  0  0  0  0  0  0  0  0  0  0
   52.2271   31.0805   42.3651 H   0  0  0  0  0  0  0  0  0  0  0  0
  1  7  1  0
  2  1  1  0
  3  2  1  0
  3  1  1  0
  4 10  1  0
  5  4  1  0
  6  7  1  0
  6  5  2  0
  7  8  2  0
  8  4  1  0
  9 14  2  0
 10  9  1  0
 10 11  2  0
 11 12  1  0
 12 13  2  0
 14 13  1  0
 15  3  1  0
 16 15  2  0
 17 15  1  0
 17 20  1  0
 18 22  1  0
 19 20  2  0
 19 18  1  0
 20 21  1  0
 21 22  2  0
 22 23  1  0
  1 24  1  1
  2 25  1  0
  2 26  1  0
  3 27  1  1
  5 28  1  0
  9 29  1  0
 11 30  1  0
 13 31  1  0
 18 32  1  0
 21 33  1  0
 23 34  1  0
M  ISO  8  24  13  25  13  26  13  27  13  28  14  29  14  30  14  31  14
M  ISO  3  32   9  33  14  34  11
M  END
>  <minimizedAffinity>  (1) 
-4.6128993

>  <minimizedRMSD>  (1) 
0.297218353

$$$$
