
     RDKit          3D

 30 33  0  0  0  0  0  0  0  0999 V2000
   45.9360   35.6280   43.0270 C   0  0  0  0  0  0  0  0  0  0  0  0
   46.5530   34.4070   43.4510 C   0  0  0  0  0  0  0  0  0  0  0  0
   46.1310   33.7470   44.6070 C   0  0  0  0  0  0  0  0  0  0  0  0
   45.1160   34.3900   45.2420 N   0  0  0  0  0  0  0  0  0  0  0  0
   44.5320   35.5190   44.8710 C   0  0  0  0  0  0  0  0  0  0  0  0
   44.9410   36.1410   43.7590 N   0  0  0  0  0  0  0  0  0  0  0  0
   46.7040   32.4920   45.0430 C   0  0  0  0  0  0  0  0  0  0  0  0
   47.4130   31.6170   44.3780 N   0  0  0  0  0  0  0  0  0  0  0  0
   47.9420   30.4890   44.7740 C   0  0  0  0  0  0  0  0  0  0  0  0
   47.7850   30.0910   46.0400 N   0  0  0  0  0  0  0  0  0  0  0  0
   47.0700   30.9020   46.8550 C   0  0  0  0  0  0  0  0  0  0  0  0
   46.9530   30.4420   48.1360 C   0  0  0  0  0  0  0  0  0  0  0  0
   46.2470   31.2170   49.0250 C   0  0  0  0  0  0  0  0  0  0  0  0
   45.6840   32.4090   48.6240 C   0  0  0  0  0  0  0  0  0  0  0  0
   45.8680   32.7680   47.3090 C   0  0  0  0  0  0  0  0  0  0  0  0
   46.5410   32.0890   46.3450 C   0  0  0  0  0  0  0  0  0  0  0  0
   47.6640   33.9640   42.6550 N   0  0  0  0  0  0  0  0  0  0  0  0
   47.6650   33.2030   41.5030 C   0  0  0  0  0  0  0  0  0  0  0  0
   48.9410   33.0590   41.0930 N   0  0  0  0  0  0  0  0  0  0  0  0
   49.7290   33.7290   41.9900 C   0  0  0  0  0  0  0  0  0  0  0  0
   48.9130   34.2630   42.9190 N   0  0  0  0  0  0  0  0  0  0  0  0
   46.2755   36.1365   42.1126 H   0  0  0  0  0  0  0  0  0  0  0  0
   43.7153   35.9432   45.4735 H   0  0  0  0  0  0  0  0  0  0  0  0
   48.5143   29.8697   44.0676 H   0  0  0  0  0  0  0  0  0  0  0  0
   47.4063   29.4883   48.4441 H   0  0  0  0  0  0  0  0  0  0  0  0
   46.1304   30.8825   50.0664 H   0  0  0  0  0  0  0  0  0  0  0  0
   45.1155   33.0422   49.3211 H   0  0  0  0  0  0  0  0  0  0  0  0
   45.4145   33.7216   47.0008 H   0  0  0  0  0  0  0  0  0  0  0  0
   46.7771   32.7859   41.0053 H   0  0  0  0  0  0  0  0  0  0  0  0
   50.8251   33.8152   41.9579 H   0  0  0  0  0  0  0  0  0  0  0  0
  1  2  2  0
  1  6  1  0
  2  3  1  0
  3  7  1  0
  3  4  2  0
  5  4  1  0
  6  5  2  0
  7 16  2  0
  8  9  2  0
  8  7  1  0
  9 10  1  0
 10 11  2  0
 11 12  1  0
 12 13  2  0
 14 13  1  0
 15 14  2  0
 16 11  1  0
 16 15  1  0
 17 21  1  0
 17  2  1  0
 18 17  1  0
 19 18  2  0
 19 20  1  0
 20 21  2  0
  1 22  1  0
  5 23  1  0
  9 24  1  0
 12 25  1  0
 13 26  1  0
 14 27  1  0
 15 28  1  0
 18 29  1  0
 20 30  1  0
M  ISO  8  22  14  23  14  24  14  25  14  26  14  27  14  28  14  29  14
M  ISO  1  30  14
M  END
>  <minimizedAffinity>  (1) 
-5.71583414

>  <minimizedRMSD>  (1) 
4.30073452

$$$$
