
     RDKit          3D

 47 48  0  0  1  0  0  0  0  0999 V2000
   47.5310   29.7880   45.7720 C   0  0  0  0  0  0  0  0  0  0  0  0
   46.3420   33.2820   46.0140 C   0  0  0  0  0  0  0  0  0  0  0  0
   45.5350   33.4680   44.8860 C   0  0  0  0  0  0  0  0  0  0  0  0
   45.4330   32.3360   44.0600 C   0  0  0  0  0  0  0  0  0  0  0  0
   46.0760   31.1970   44.3740 N   0  0  0  0  0  0  0  0  0  0  0  0
   46.8480   31.0690   45.4810 C   0  0  0  0  0  0  0  0  0  0  0  0
   46.9630   32.1390   46.2900 N   0  0  0  0  0  0  0  0  0  0  0  0
   44.8660   34.6870   44.5790 N   0  0  0  0  0  0  0  0  0  0  0  0
   45.0270   35.3850   43.3440 C   0  0  0  0  0  0  0  0  0  0  0  0
   46.2210   35.3860   42.8310 N   0  0  0  0  0  0  0  0  0  0  0  0
   43.8120   35.9960   42.8440 N   0  0  0  0  0  0  0  0  0  0  0  0
   46.4170   35.8470   41.9150 H   0  0  0  0  0  0  0  0  0  0  0  0
   46.5640   28.6390   45.3380 C   0  0  0  0  0  0  0  0  0  0  0  0
   48.7210   29.7070   44.8730 C   0  0  0  0  0  0  0  0  0  0  0  0
   47.7970   29.5560   47.2210 C   0  0  0  0  0  0  0  0  0  0  0  0
   49.1290   29.4630   47.6480 N   0  0  0  0  0  0  0  0  0  0  0  0
   49.6780   28.1850   47.9380 C   0  0  0  0  0  0  0  0  0  0  0  0
   49.9830   28.0140   49.4220 C   0  0  0  0  0  0  0  0  0  0  0  0
   50.7300   29.1610   50.0190 C   0  0  0  0  0  0  0  0  0  0  0  0
   50.8890   30.3440   49.0900 C   0  0  0  0  0  0  0  0  0  0  0  0
   49.5240   30.5610   48.4390 C   0  0  2  0  0  0  0  0  0  0  0  0
   48.4790   30.8540   49.4760 C   0  0  0  0  0  0  0  0  0  0  0  0
   46.4693   34.1254   46.7087 H   0  0  0  0  0  0  0  0  0  0  0  0
   44.8210   32.3817   43.1471 H   0  0  0  0  0  0  0  0  0  0  0  0
   44.2321   35.0865   45.2857 H   0  0  0  0  0  0  0  0  0  0  0  0
   43.8268   36.5222   41.9587 H   0  0  0  0  0  0  0  0  0  0  0  0
   42.9336   35.9041   43.3739 H   0  0  0  0  0  0  0  0  0  0  0  0
   46.1518   28.1492   46.2325 H   0  0  0  0  0  0  0  0  0  0  0  0
   45.7427   29.0580   44.7380 H   0  0  0  0  0  0  0  0  0  0  0  0
   47.1171   27.9013   44.7380 H   0  0  0  0  0  0  0  0  0  0  0  0
   49.6359   29.6447   45.4805 H   0  0  0  0  0  0  0  0  0  0  0  0
   48.6408   28.8122   44.2382 H   0  0  0  0  0  0  0  0  0  0  0  0
   48.7627   30.6044   44.2382 H   0  0  0  0  0  0  0  0  0  0  0  0
   47.3357   30.3878   47.7735 H   0  0  0  0  0  0  0  0  0  0  0  0
   47.3804   28.5567   47.4157 H   0  0  0  0  0  0  0  0  0  0  0  0
   48.9573   27.4120   47.6328 H   0  0  0  0  0  0  0  0  0  0  0  0
   50.6241   28.0899   47.3850 H   0  0  0  0  0  0  0  0  0  0  0  0
   49.0308   27.9017   49.9612 H   0  0  0  0  0  0  0  0  0  0  0  0
   50.6272   27.1274   49.5170 H   0  0  0  0  0  0  0  0  0  0  0  0
   50.1890   29.4964   50.9161 H   0  0  0  0  0  0  0  0  0  0  0  0
   51.7429   28.7968   50.2456 H   0  0  0  0  0  0  0  0  0  0  0  0
   51.1870   31.2376   49.6580 H   0  0  0  0  0  0  0  0  0  0  0  0
   51.6681   30.1595   48.3357 H   0  0  0  0  0  0  0  0  0  0  0  0
   49.6234   31.4307   47.7729 H   0  0  0  0  0  0  0  0  0  0  0  0
   48.9136   30.7321   50.4791 H   0  0  0  0  0  0  0  0  0  0  0  0
   48.1213   31.8871   49.3544 H   0  0  0  0  0  0  0  0  0  0  0  0
   47.6363   30.1575   49.3544 H   0  0  0  0  0  0  0  0  0  0  0  0
  1 15  1  0
  2  7  2  0
  3  2  1  0
  4  5  1  0
  4  3  2  0
  5  6  2  0
  6  1  1  0
  6  7  1  0
  8  3  1  0
  9  8  1  0
 10  9  2  0
 11  9  1  0
 12 10  1  0
 13  1  1  0
 14  1  1  0
 15 16  1  0
 16 17  1  0
 16 21  1  0
 17 18  1  0
 18 19  1  0
 20 19  1  0
 21 20  1  0
 21 22  1  0
  2 23  1  0
  4 24  1  0
  8 25  1  0
 11 26  1  0
 11 27  1  0
 13 28  1  0
 13 29  1  0
 13 30  1  0
 14 31  1  0
 14 32  1  0
 14 33  1  0
 15 34  1  0
 15 35  1  0
 17 36  1  0
 17 37  1  0
 18 38  1  0
 18 39  1  0
 19 40  1  0
 19 41  1  0
 20 42  1  0
 20 43  1  0
 21 44  1  6
 22 45  1  0
 22 46  1  0
 22 47  1  0
M  ISO  8  23  14  24  14  28   8  29   8  30   8  31   8  32   8  33   8
M  ISO  8  34   8  35   8  36  13  37  13  38  13  39  13  40  13  41  13
M  ISO  6  42  13  43  13  44  13  45   8  46   8  47   8
M  END
>  <minimizedAffinity>  (1) 
-4.23788691

>  <minimizedRMSD>  (1) 
1.03076947

$$$$
