
     RDKit          3D

 27 29  0  0  0  0  0  0  0  0999 V2000
   45.3700   34.1120   44.9620 C   0  0  0  0  0  0  0  0  0  0  0  0
   45.9320   33.7860   43.7160 C   0  0  0  0  0  0  0  0  0  0  0  0
   45.8490   34.7210   42.6980 C   0  0  0  0  0  0  0  0  0  0  0  0
   45.2330   35.9090   42.9330 N   0  0  0  0  0  0  0  0  0  0  0  0
   44.6990   36.1990   44.1410 C   0  0  0  0  0  0  0  0  0  0  0  0
   44.7790   35.3010   45.1230 N   0  0  0  0  0  0  0  0  0  0  0  0
   46.4050   34.4140   41.4460 N   0  0  0  0  0  0  0  0  0  0  0  0
   45.9280   33.7150   40.3990 C   0  0  0  0  0  0  0  0  0  0  0  0
   46.6970   33.5600   39.2650 C   0  0  0  0  0  0  0  0  0  0  0  0
   47.9580   34.1150   39.1830 C   0  0  0  0  0  0  0  0  0  0  0  0
   48.7300   33.9400   38.0010 N   0  0  0  0  0  0  0  0  0  0  0  0
   48.4370   34.8180   40.2350 N   0  0  0  0  0  0  0  0  0  0  0  0
   47.6540   34.9540   41.3450 C   0  0  0  0  0  0  0  0  0  0  0  0
   48.2650   35.6400   42.2250 O   0  0  0  0  0  0  0  0  0  0  0  0
   46.5480   32.5220   43.5840 N   0  0  0  0  0  0  0  0  0  0  0  0
   47.8550   32.1490   43.7500 C   0  0  0  0  0  0  0  0  0  0  0  0
   47.9930   30.8340   43.5220 N   0  0  0  0  0  0  0  0  0  0  0  0
   46.7670   30.3670   43.2100 C   0  0  0  0  0  0  0  0  0  0  0  0
   45.9240   31.4140   43.2570 N   0  0  0  0  0  0  0  0  0  0  0  0
   45.4157   33.3967   45.7964 H   0  0  0  0  0  0  0  0  0  0  0  0
   44.2036   37.1662   44.3117 H   0  0  0  0  0  0  0  0  0  0  0  0
   44.9244   33.2673   40.4482 H   0  0  0  0  0  0  0  0  0  0  0  0
   46.3002   32.9864   38.4144 H   0  0  0  0  0  0  0  0  0  0  0  0
   49.6716   34.3523   37.9351 H   0  0  0  0  0  0  0  0  0  0  0  0
   48.3474   33.4010   37.2111 H   0  0  0  0  0  0  0  0  0  0  0  0
   48.6732   32.8289   44.0297 H   0  0  0  0  0  0  0  0  0  0  0  0
   46.5059   29.3272   42.9638 H   0  0  0  0  0  0  0  0  0  0  0  0
  1  6  2  0
  2  1  1  0
  3  4  1  0
  3  2  2  0
  4  5  2  0
  5  6  1  0
  7  3  1  0
  8  7  1  0
  9  8  2  0
 10  9  1  0
 10 12  2  0
 11 10  1  0
 12 13  1  0
 13  7  1  0
 13 14  2  0
 15  2  1  0
 15 16  1  0
 17 16  2  0
 18 19  2  0
 18 17  1  0
 19 15  1  0
  1 20  1  0
  5 21  1  0
  8 22  1  0
  9 23  1  0
 11 24  1  0
 11 25  1  0
 16 26  1  0
 18 27  1  0
M  ISO  6  20  14  21  14  22  14  23  14  26  14  27  14
M  END
>  <minimizedAffinity>  (1) 
-4.75137806

>  <minimizedRMSD>  (1) 
4.40827465

$$$$
