
     RDKit          3D

 29 32  0  0  0  0  0  0  0  0999 V2000
   45.3290   36.1790   43.1740 C   0  0  0  0  0  0  0  0  0  0  0  0
   45.9330   34.9350   43.0050 C   0  0  0  0  0  0  0  0  0  0  0  0
   45.8210   34.0250   44.0420 C   0  0  0  0  0  0  0  0  0  0  0  0
   45.1450   34.3640   45.1660 N   0  0  0  0  0  0  0  0  0  0  0  0
   44.5680   35.5860   45.2960 C   0  0  0  0  0  0  0  0  0  0  0  0
   44.6720   36.4770   44.2920 N   0  0  0  0  0  0  0  0  0  0  0  0
   46.4210   32.7570   43.9010 N   0  0  0  0  0  0  0  0  0  0  0  0
   47.6730   32.2520   44.1060 C   0  0  0  0  0  0  0  0  0  0  0  0
   47.6680   30.9340   43.7970 N   0  0  0  0  0  0  0  0  0  0  0  0
   46.4350   30.5870   43.3990 C   0  0  0  0  0  0  0  0  0  0  0  0
   46.0100   29.3390   43.0000 C   0  0  0  0  0  0  0  0  0  0  0  0
   44.7020   29.2500   42.6430 N   0  0  0  0  0  0  0  0  0  0  0  0
   43.8970   30.3490   42.6900 C   0  0  0  0  0  0  0  0  0  0  0  0
   44.3830   31.5390   43.0930 N   0  0  0  0  0  0  0  0  0  0  0  0
   45.6640   31.7150   43.4640 C   0  0  0  0  0  0  0  0  0  0  0  0
   46.8160   28.1860   42.9390 N   0  0  0  0  0  0  0  0  0  0  0  0
   46.6160   34.6820   41.7930 N   0  0  0  0  0  0  0  0  0  0  0  0
   46.2080   34.0620   40.6620 C   0  0  0  0  0  0  0  0  0  0  0  0
   47.2040   34.0480   39.7480 N   0  0  0  0  0  0  0  0  0  0  0  0
   48.2490   34.6720   40.3240 C   0  0  0  0  0  0  0  0  0  0  0  0
   47.8570   35.0410   41.5570 N   0  0  0  0  0  0  0  0  0  0  0  0
   45.3963   36.9269   42.3702 H   0  0  0  0  0  0  0  0  0  0  0  0
   44.0202   35.8459   46.2138 H   0  0  0  0  0  0  0  0  0  0  0  0
   48.5429   32.8225   44.4635 H   0  0  0  0  0  0  0  0  0  0  0  0
   42.8405   30.2634   42.3961 H   0  0  0  0  0  0  0  0  0  0  0  0
   46.4121   27.2912   42.6275 H   0  0  0  0  0  0  0  0  0  0  0  0
   47.8095   28.2374   43.2059 H   0  0  0  0  0  0  0  0  0  0  0  0
   45.2079   33.6306   40.5079 H   0  0  0  0  0  0  0  0  0  0  0  0
   49.2364   34.8470   39.8719 H   0  0  0  0  0  0  0  0  0  0  0  0
  1  6  2  0
  2  1  1  0
  2  3  2  0
  3  4  1  0
  4  5  2  0
  6  5  1  0
  7  3  1  0
  7  8  1  0
  9  8  2  0
 10 15  2  0
 10  9  1  0
 11 10  1  0
 12 13  1  0
 12 11  2  0
 13 14  2  0
 14 15  1  0
 15  7  1  0
 16 11  1  0
 17  2  1  0
 18 17  1  0
 19 20  1  0
 19 18  2  0
 20 21  2  0
 21 17  1  0
  1 22  1  0
  5 23  1  0
  8 24  1  0
 13 25  1  0
 16 26  1  0
 16 27  1  0
 18 28  1  0
 20 29  1  0
M  ISO  6  22  14  23  14  24  14  25  14  28  14  29  14
M  END
>  <minimizedAffinity>  (1) 
-4.47365618

>  <minimizedRMSD>  (1) 
3.28666115

$$$$
