
     RDKit          3D

 30 33  0  0  0  0  0  0  0  0999 V2000
   44.2070   35.3320   43.0810 C   0  0  0  0  0  0  0  0  0  0  0  0
   45.0300   34.2310   42.8180 C   0  0  0  0  0  0  0  0  0  0  0  0
   45.7050   33.6660   43.8870 C   0  0  0  0  0  0  0  0  0  0  0  0
   45.5430   34.1970   45.1330 N   0  0  0  0  0  0  0  0  0  0  0  0
   44.7460   35.2530   45.3550 C   0  0  0  0  0  0  0  0  0  0  0  0
   44.0810   35.8150   44.3190 N   0  0  0  0  0  0  0  0  0  0  0  0
   46.5330   32.5490   43.5880 N   0  0  0  0  0  0  0  0  0  0  0  0
   46.2090   31.2450   43.6080 C   0  0  0  0  0  0  0  0  0  0  0  0
   47.3240   30.5440   43.2500 N   0  0  0  0  0  0  0  0  0  0  0  0
   48.2950   31.4190   43.0210 C   0  0  0  0  0  0  0  0  0  0  0  0
   49.5980   31.2320   42.6370 C   0  0  0  0  0  0  0  0  0  0  0  0
   50.1330   30.1060   42.4220 O   0  0  0  0  0  0  0  0  0  0  0  0
   50.3760   32.3310   42.4760 N   0  0  0  0  0  0  0  0  0  0  0  0
   49.9230   33.5950   42.6750 C   0  0  0  0  0  0  0  0  0  0  0  0
   50.7690   34.7200   42.4960 N   0  0  0  0  0  0  0  0  0  0  0  0
   48.6400   33.7460   43.0510 N   0  0  0  0  0  0  0  0  0  0  0  0
   47.8250   32.7120   43.2270 C   0  0  0  0  0  0  0  0  0  0  0  0
   45.1130   33.7750   41.4750 N   0  0  0  0  0  0  0  0  0  0  0  0
   44.3160   32.9160   40.7820 C   0  0  0  0  0  0  0  0  0  0  0  0
   44.7770   32.7760   39.5310 N   0  0  0  0  0  0  0  0  0  0  0  0
   45.8880   33.5670   39.4410 C   0  0  0  0  0  0  0  0  0  0  0  0
   46.0640   34.1590   40.6380 N   0  0  0  0  0  0  0  0  0  0  0  0
   43.6560   35.8062   42.2555 H   0  0  0  0  0  0  0  0  0  0  0  0
   44.6339   35.6589   46.3712 H   0  0  0  0  0  0  0  0  0  0  0  0
   45.2271   30.8211   43.8652 H   0  0  0  0  0  0  0  0  0  0  0  0
   51.3566   32.2005   42.1893 H   0  0  0  0  0  0  0  0  0  0  0  0
   50.4029   35.6699   42.6529 H   0  0  0  0  0  0  0  0  0  0  0  0
   51.7492   34.5868   42.2092 H   0  0  0  0  0  0  0  0  0  0  0  0
   43.4265   32.4120   41.1880 H   0  0  0  0  0  0  0  0  0  0  0  0
   46.5231   33.6966   38.5523 H   0  0  0  0  0  0  0  0  0  0  0  0
  1  6  2  0
  2  1  1  0
  2  3  2  0
  3  4  1  0
  4  5  2  0
  6  5  1  0
  7  8  1  0
  7  3  1  0
  9  8  2  0
 10 17  2  0
 10  9  1  0
 11 10  1  0
 12 11  2  0
 13 11  1  0
 13 14  1  0
 14 16  2  0
 15 14  1  0
 16 17  1  0
 17  7  1  0
 18  2  1  0
 19 18  1  0
 20 19  2  0
 21 20  1  0
 21 22  2  0
 22 18  1  0
  1 23  1  0
  5 24  1  0
  8 25  1  0
 13 26  1  0
 15 27  1  0
 15 28  1  0
 19 29  1  0
 21 30  1  0
M  ISO  6  23  14  24  14  25  14  26   9  29  14  30  14
M  END
>  <minimizedAffinity>  (1) 
-4.73849964

>  <minimizedRMSD>  (1) 
2.67479014

$$$$
