
     RDKit          3D

 29 31  0  0  0  0  0  0  0  0999 V2000
   43.9670   35.1190   42.0420 C   0  0  0  0  0  0  0  0  0  0  0  0
   42.9550   34.2700   41.5290 C   0  0  0  0  0  0  0  0  0  0  0  0
   43.0230   32.8890   41.7250 C   0  0  0  0  0  0  0  0  0  0  0  0
   44.1000   32.4130   42.4190 N   0  0  0  0  0  0  0  0  0  0  0  0
   45.0670   33.2380   42.9050 C   0  0  0  0  0  0  0  0  0  0  0  0
   44.9930   34.5780   42.7130 N   0  0  0  0  0  0  0  0  0  0  0  0
   41.8970   34.8900   40.7920 N   0  0  0  0  0  0  0  0  0  0  0  0
   40.7060   35.3990   41.2540 C   0  0  0  0  0  0  0  0  0  0  0  0
   40.0250   35.8910   40.2040 N   0  0  0  0  0  0  0  0  0  0  0  0
   40.7890   35.6910   39.0880 C   0  0  0  0  0  0  0  0  0  0  0  0
   41.9410   35.0730   39.4700 N   0  0  0  0  0  0  0  0  0  0  0  0
   39.8690   30.2250   40.7350 C   0  0  0  0  0  0  0  0  0  0  0  0
   40.0600   30.7520   41.9950 C   0  0  0  0  0  0  0  0  0  0  0  0
   41.1310   31.6130   42.2220 C   0  0  0  0  0  0  0  0  0  0  0  0
   42.0200   31.9660   41.2300 C   0  0  0  0  0  0  0  0  0  0  0  0
   41.8230   31.4370   39.9740 C   0  0  0  0  0  0  0  0  0  0  0  0
   40.7650   30.5860   39.7530 C   0  0  0  0  0  0  0  0  0  0  0  0
   38.5640   29.1300   40.3110 S   0  0  0  0  0  0  0  0  0  0  0  0
   38.5700   27.9700   41.2580 O   0  0  0  0  0  0  0  0  0  0  0  0
   38.7090   28.6500   38.8840 O   0  0  0  0  0  0  0  0  0  0  0  0
   43.9111   36.2072   41.8915 H   0  0  0  0  0  0  0  0  0  0  0  0
   45.9171   32.8134   43.4591 H   0  0  0  0  0  0  0  0  0  0  0  0
   40.3688   35.4030   42.3010 H   0  0  0  0  0  0  0  0  0  0  0  0
   40.5202   35.9789   38.0609 H   0  0  0  0  0  0  0  0  0  0  0  0
   39.3722   30.4945   42.8139 H   0  0  0  0  0  0  0  0  0  0  0  0
   41.2726   32.0269   43.2313 H   0  0  0  0  0  0  0  0  0  0  0  0
   42.5077   31.6934   39.1521 H   0  0  0  0  0  0  0  0  0  0  0  0
   40.6278   30.1736   38.7425 H   0  0  0  0  0  0  0  0  0  0  0  0
   37.3694   29.7934   40.4095 H   0  0  0  0  0  0  0  0  0  0  0  0
  1  6  2  0
  2  3  2  0
  2  1  1  0
  3  4  1  0
  4  5  2  0
  6  5  1  0
  7  8  1  0
  7  2  1  0
  9  8  2  0
 10 11  2  0
 10  9  1  0
 11  7  1  0
 12 13  2  0
 13 14  1  0
 15  3  1  0
 15 14  2  0
 16 15  1  0
 17 16  2  0
 17 12  1  0
 18 12  1  0
 18 19  2  0
 20 18  2  0
  1 21  1  0
  5 22  1  0
  8 23  1  0
 10 24  1  0
 13 25  1  0
 14 26  1  0
 16 27  1  0
 17 28  1  0
 18 29  1  0
M  ISO  8  21  14  22  14  23  14  24  14  25  14  26  14  27  14  28  14
M  ISO  1  29  11
M  END
>  <minimizedAffinity>  (1) 
-3.90451241

>  <minimizedRMSD>  (1) 
3.85036397

$$$$
