
     RDKit          3D

 30 32  0  0  0  0  0  0  0  0999 V2000
   43.9740   34.6890   42.1640 C   0  0  0  0  0  0  0  0  0  0  0  0
   42.8950   34.0010   41.5910 C   0  0  0  0  0  0  0  0  0  0  0  0
   42.8330   32.6200   41.7430 C   0  0  0  0  0  0  0  0  0  0  0  0
   43.8190   31.9940   42.4370 N   0  0  0  0  0  0  0  0  0  0  0  0
   44.8460   32.6920   42.9750 C   0  0  0  0  0  0  0  0  0  0  0  0
   44.9050   34.0140   42.8300 N   0  0  0  0  0  0  0  0  0  0  0  0
   41.9200   34.7330   40.8780 N   0  0  0  0  0  0  0  0  0  0  0  0
   41.9200   35.0880   39.5530 C   0  0  0  0  0  0  0  0  0  0  0  0
   40.7970   35.7820   39.2790 N   0  0  0  0  0  0  0  0  0  0  0  0
   40.0990   35.8590   40.4300 C   0  0  0  0  0  0  0  0  0  0  0  0
   40.8100   35.2140   41.3720 N   0  0  0  0  0  0  0  0  0  0  0  0
   41.8040   31.8310   41.2340 N   0  0  0  0  0  0  0  0  0  0  0  0
   41.2500   31.4250   39.9570 C   0  0  0  0  0  0  0  0  0  0  0  0
   39.7930   31.9240   39.9950 C   0  0  0  0  0  0  0  0  0  0  0  0
   39.0450   31.2280   41.0220 N   0  0  0  0  0  0  0  0  0  0  0  0
   39.9140   30.4830   41.8930 C   0  0  0  0  0  0  0  0  0  0  0  0
   41.0980   31.2620   42.3660 C   0  0  0  0  0  0  0  0  0  0  0  0
   44.0495   35.7817   42.0628 H   0  0  0  0  0  0  0  0  0  0  0  0
   45.6340   32.1657   43.5335 H   0  0  0  0  0  0  0  0  0  0  0  0
   42.7112   34.8449   38.8285 H   0  0  0  0  0  0  0  0  0  0  0  0
   39.1284   36.3568   40.5722 H   0  0  0  0  0  0  0  0  0  0  0  0
   41.2840   30.3309   39.8482 H   0  0  0  0  0  0  0  0  0  0  0  0
   41.8122   31.8372   39.1061 H   0  0  0  0  0  0  0  0  0  0  0  0
   39.7853   33.0028   40.2099 H   0  0  0  0  0  0  0  0  0  0  0  0
   39.3244   31.7284   39.0192 H   0  0  0  0  0  0  0  0  0  0  0  0
   38.5221   31.9175   41.5806 H   0  0  0  0  0  0  0  0  0  0  0  0
   39.3346   30.1631   42.7716 H   0  0  0  0  0  0  0  0  0  0  0  0
   40.2991   29.6313   41.3130 H   0  0  0  0  0  0  0  0  0  0  0  0
   41.7752   30.5948   42.9193 H   0  0  0  0  0  0  0  0  0  0  0  0
   40.7553   32.0752   43.0227 H   0  0  0  0  0  0  0  0  0  0  0  0
  1  6  2  0
  2  3  2  0
  2  1  1  0
  3  4  1  0
  4  5  2  0
  6  5  1  0
  7 11  1  0
  7  2  1  0
  8  7  1  0
  9  8  2  0
  9 10  1  0
 10 11  2  0
 12  3  1  0
 12 17  1  0
 13 14  1  0
 13 12  1  0
 14 15  1  0
 15 16  1  0
 16 17  1  0
  1 18  1  0
  5 19  1  0
  8 20  1  0
 10 21  1  0
 13 22  1  0
 13 23  1  0
 14 24  1  0
 14 25  1  0
 15 26  1  0
 16 27  1  0
 16 28  1  0
 17 29  1  0
 17 30  1  0
M  ISO  8  18  14  19  14  20  14  21  14  22  13  23  13  24  13  25  13
M  ISO  5  26   5  27  13  28  13  29  13  30  13
M  END
>  <minimizedAffinity>  (1) 
-3.85122585

>  <minimizedRMSD>  (1) 
4.02451944

$$$$
