
     RDKit          3D

 26 28  0  0  0  0  0  0  0  0999 V2000
   43.9880   34.9500   42.0740 C   0  0  0  0  0  0  0  0  0  0  0  0
   42.9300   34.1980   41.5040 C   0  0  0  0  0  0  0  0  0  0  0  0
   42.8670   32.8080   41.6760 C   0  0  0  0  0  0  0  0  0  0  0  0
   43.8640   32.2310   42.4050 N   0  0  0  0  0  0  0  0  0  0  0  0
   44.8740   32.9680   42.9460 C   0  0  0  0  0  0  0  0  0  0  0  0
   44.9280   34.3110   42.7770 N   0  0  0  0  0  0  0  0  0  0  0  0
   41.8050   31.9930   41.1180 C   0  0  0  0  0  0  0  0  0  0  0  0
   40.7480   31.8120   42.0180 C   0  0  0  0  0  0  0  0  0  0  0  0
   39.6240   31.0830   41.6800 C   0  0  0  0  0  0  0  0  0  0  0  0
   39.4880   30.5070   40.4570 C   0  0  0  0  0  0  0  0  0  0  0  0
   40.5390   30.6920   39.5730 C   0  0  0  0  0  0  0  0  0  0  0  0
   41.6760   31.4110   39.8740 C   0  0  0  0  0  0  0  0  0  0  0  0
   41.9670   34.9220   40.7290 N   0  0  0  0  0  0  0  0  0  0  0  0
   40.8460   35.5990   41.1540 C   0  0  0  0  0  0  0  0  0  0  0  0
   40.2410   36.1420   40.0760 N   0  0  0  0  0  0  0  0  0  0  0  0
   40.9920   35.7990   38.9840 C   0  0  0  0  0  0  0  0  0  0  0  0
   42.0530   35.0470   39.4020 N   0  0  0  0  0  0  0  0  0  0  0  0
   44.0345   36.0408   41.9399 H   0  0  0  0  0  0  0  0  0  0  0  0
   45.6586   32.4643   43.5297 H   0  0  0  0  0  0  0  0  0  0  0  0
   40.8140   32.2616   43.0197 H   0  0  0  0  0  0  0  0  0  0  0  0
   38.8186   30.9660   42.4200 H   0  0  0  0  0  0  0  0  0  0  0  0
   38.5943   29.9267   40.1840 H   0  0  0  0  0  0  0  0  0  0  0  0
   40.4616   30.2391   38.5736 H   0  0  0  0  0  0  0  0  0  0  0  0
   42.4757   31.5200   39.1266 H   0  0  0  0  0  0  0  0  0  0  0  0
   40.5016   35.6832   42.1953 H   0  0  0  0  0  0  0  0  0  0  0  0
   40.7768   36.0819   37.9430 H   0  0  0  0  0  0  0  0  0  0  0  0
  1  6  2  0
  2  3  2  0
  2  1  1  0
  3  4  1  0
  4  5  2  0
  6  5  1  0
  7  3  1  0
  7  8  2  0
  9  8  1  0
 10  9  2  0
 11 12  2  0
 11 10  1  0
 12  7  1  0
 13 14  1  0
 13  2  1  0
 15 14  2  0
 16 17  2  0
 16 15  1  0
 17 13  1  0
  1 18  1  0
  5 19  1  0
  8 20  1  0
  9 21  1  0
 10 22  1  0
 11 23  1  0
 12 24  1  0
 14 25  1  0
 16 26  1  0
M  ISO  8  18  14  19  14  20  14  21  14  22  14  23  14  24  14  25  14
M  ISO  1  26  14
M  END
>  <minimizedAffinity>  (1) 
-3.80400157

>  <minimizedRMSD>  (1) 
3.48644447

$$$$
