
     RDKit          3D

 28 30  0  0  0  0  0  0  0  0999 V2000
   44.3620   35.9050   42.3860 C   0  0  0  0  0  0  0  0  0  0  0  0
   43.6040   34.8500   41.8850 C   0  0  0  0  0  0  0  0  0  0  0  0
   43.9820   33.5590   42.1980 C   0  0  0  0  0  0  0  0  0  0  0  0
   45.0720   33.3510   42.9790 N   0  0  0  0  0  0  0  0  0  0  0  0
   45.7990   34.3920   43.4590 C   0  0  0  0  0  0  0  0  0  0  0  0
   45.4340   35.6370   43.1570 N   0  0  0  0  0  0  0  0  0  0  0  0
   42.4860   35.1590   41.0860 N   0  0  0  0  0  0  0  0  0  0  0  0
   41.2070   35.4920   41.4480 C   0  0  0  0  0  0  0  0  0  0  0  0
   40.4570   35.7070   40.3540 N   0  0  0  0  0  0  0  0  0  0  0  0
   41.2660   35.5090   39.2900 C   0  0  0  0  0  0  0  0  0  0  0  0
   42.4750   35.1820   39.7800 N   0  0  0  0  0  0  0  0  0  0  0  0
   43.2700   32.4280   41.7190 N   0  0  0  0  0  0  0  0  0  0  0  0
   42.1700   31.5330   42.0190 C   0  0  0  0  0  0  0  0  0  0  0  0
   41.2940   31.7140   40.7690 C   0  0  0  0  0  0  0  0  0  0  0  0
   42.3480   31.5480   39.6960 C   0  0  0  0  0  0  0  0  0  0  0  0
   43.6070   31.7410   40.4640 C   0  0  0  0  0  0  0  0  0  0  0  0
   44.0888   36.9452   42.1550 H   0  0  0  0  0  0  0  0  0  0  0  0
   46.6806   34.2093   44.0910 H   0  0  0  0  0  0  0  0  0  0  0  0
   40.8465   35.5718   42.4842 H   0  0  0  0  0  0  0  0  0  0  0  0
   40.9894   35.5980   38.2291 H   0  0  0  0  0  0  0  0  0  0  0  0
   42.5128   30.4931   42.1247 H   0  0  0  0  0  0  0  0  0  0  0  0
   41.6562   31.7486   42.9674 H   0  0  0  0  0  0  0  0  0  0  0  0
   40.5136   30.9418   40.7000 H   0  0  0  0  0  0  0  0  0  0  0  0
   40.7290   32.6568   40.7270 H   0  0  0  0  0  0  0  0  0  0  0  0
   42.2398   32.3087   38.9088 H   0  0  0  0  0  0  0  0  0  0  0  0
   42.2946   30.5843   39.1683 H   0  0  0  0  0  0  0  0  0  0  0  0
   44.0643   30.7649   40.6834 H   0  0  0  0  0  0  0  0  0  0  0  0
   44.3237   32.3380   39.8810 H   0  0  0  0  0  0  0  0  0  0  0  0
  1  6  2  0
  2  3  2  0
  2  1  1  0
  3  4  1  0
  4  5  2  0
  6  5  1  0
  7  8  1  0
  7  2  1  0
  9  8  2  0
 10 11  2  0
 10  9  1  0
 11  7  1  0
 12 13  1  0
 12  3  1  0
 14 13  1  0
 15 16  1  0
 15 14  1  0
 16 12  1  0
  1 17  1  0
  5 18  1  0
  8 19  1  0
 10 20  1  0
 13 21  1  0
 13 22  1  0
 14 23  1  0
 14 24  1  0
 15 25  1  0
 15 26  1  0
 16 27  1  0
 16 28  1  0
M  ISO  8  17  14  18  14  19  14  20  14  21  13  22  13  23  13  24  13
M  ISO  4  25  13  26  13  27  13  28  13
M  END
>  <minimizedAffinity>  (1) 
-3.65982461

>  <minimizedRMSD>  (1) 
2.35232043

$$$$
