
     RDKit          3D

 23 25  0  0  0  0  0  0  0  0999 V2000
   44.1930   35.7350   42.0420 C   0  0  0  0  0  0  0  0  0  0  0  0
   43.2930   34.7110   41.6260 C   0  0  0  0  0  0  0  0  0  0  0  0
   43.5920   33.3800   41.8710 C   0  0  0  0  0  0  0  0  0  0  0  0
   44.7760   33.1300   42.5170 N   0  0  0  0  0  0  0  0  0  0  0  0
   45.6200   34.0950   42.9050 C   0  0  0  0  0  0  0  0  0  0  0  0
   45.3250   35.3730   42.6680 N   0  0  0  0  0  0  0  0  0  0  0  0
   42.1180   35.1440   40.9490 N   0  0  0  0  0  0  0  0  0  0  0  0
   40.8980   35.5330   41.4590 C   0  0  0  0  0  0  0  0  0  0  0  0
   40.0800   35.8700   40.4370 N   0  0  0  0  0  0  0  0  0  0  0  0
   40.7960   35.6900   39.2880 C   0  0  0  0  0  0  0  0  0  0  0  0
   42.0240   35.2500   39.6460 N   0  0  0  0  0  0  0  0  0  0  0  0
   42.7030   32.2920   41.5070 C   0  0  0  0  0  0  0  0  0  0  0  0
   42.6140   31.1830   42.3300 C   0  0  0  0  0  0  0  0  0  0  0  0
   41.7340   30.2430   41.8520 C   0  0  0  0  0  0  0  0  0  0  0  0
   41.2890   30.8350   40.6920 C   0  0  0  0  0  0  0  0  0  0  0  0
   41.8820   31.9570   40.5950 O   0  0  0  0  0  0  0  0  0  0  0  0
   43.9663   36.7950   41.8551 H   0  0  0  0  0  0  0  0  0  0  0  0
   46.5564   33.8328   43.4192 H   0  0  0  0  0  0  0  0  0  0  0  0
   40.6327   35.5642   42.5261 H   0  0  0  0  0  0  0  0  0  0  0  0
   40.4404   35.8694   38.2626 H   0  0  0  0  0  0  0  0  0  0  0  0
   43.1846   31.0672   43.2633 H   0  0  0  0  0  0  0  0  0  0  0  0
   41.4570   29.2700   42.2840 H   0  0  0  0  0  0  0  0  0  0  0  0
   40.5590   30.4175   39.9829 H   0  0  0  0  0  0  0  0  0  0  0  0
  1  6  2  0
  2  3  2  0
  2  1  1  0
  3  4  1  0
  4  5  2  0
  6  5  1  0
  7  8  1  0
  7  2  1  0
  9  8  2  0
 10 11  2  0
 10  9  1  0
 11  7  1  0
 12  3  1  0
 12 13  2  0
 14 13  1  0
 15 14  2  0
 16 15  1  0
 16 12  1  0
  1 17  1  0
  5 18  1  0
  8 19  1  0
 10 20  1  0
 13 21  1  0
 14 22  1  0
 15 23  1  0
M  ISO  7  17  14  18  14  19  14  20  14  21  14  22  14  23  14
M  END
>  <minimizedAffinity>  (1) 
-3.64606833

>  <minimizedRMSD>  (1) 
2.87138438

$$$$
