
     RDKit          3D

 22 24  0  0  0  0  0  0  0  0999 V2000
   44.2250   35.5710   42.3040 C   0  0  0  0  0  0  0  0  0  0  0  0
   44.2250   34.7110   41.1660 C   0  0  0  0  0  0  0  0  0  0  0  0
   45.4000   34.1200   40.7590 C   0  0  0  0  0  0  0  0  0  0  0  0
   46.5180   34.4160   41.5020 N   0  0  0  0  0  0  0  0  0  0  0  0
   46.5050   35.2240   42.5670 C   0  0  0  0  0  0  0  0  0  0  0  0
   45.3660   35.7960   42.9640 N   0  0  0  0  0  0  0  0  0  0  0  0
   42.9760   34.5410   40.4900 N   0  0  0  0  0  0  0  0  0  0  0  0
   41.9430   33.6760   40.7870 C   0  0  0  0  0  0  0  0  0  0  0  0
   40.9500   33.8660   39.8860 N   0  0  0  0  0  0  0  0  0  0  0  0
   41.3820   34.8500   39.0380 C   0  0  0  0  0  0  0  0  0  0  0  0
   42.6140   35.2320   39.4390 N   0  0  0  0  0  0  0  0  0  0  0  0
   45.4910   33.1860   39.6170 C   0  0  0  0  0  0  0  0  0  0  0  0
   46.6570   33.2840   38.8810 C   0  0  0  0  0  0  0  0  0  0  0  0
   46.4840   32.0190   37.5540 S   0  0  0  0  0  0  0  0  0  0  0  0
   44.7820   31.5300   38.2310 C   0  0  0  0  0  0  0  0  0  0  0  0
   44.7840   32.2630   39.0710 N   0  0  0  0  0  0  0  0  0  0  0  0
   43.2909   36.0468   42.6371 H   0  0  0  0  0  0  0  0  0  0  0  0
   47.4367   35.4183   43.1185 H   0  0  0  0  0  0  0  0  0  0  0  0
   41.9284   32.9534   41.6163 H   0  0  0  0  0  0  0  0  0  0  0  0
   40.8246   35.2574   38.1817 H   0  0  0  0  0  0  0  0  0  0  0  0
   47.5022   33.9673   39.0507 H   0  0  0  0  0  0  0  0  0  0  0  0
   44.0453   30.7803   37.9064 H   0  0  0  0  0  0  0  0  0  0  0  0
  1  6  2  0
  2  1  1  0
  3  2  2  0
  3  4  1  0
  4  5  2  0
  5  6  1  0
  7  8  1  0
  7  2  1  0
  9  8  2  0
 10 11  2  0
 10  9  1  0
 11  7  1  0
 12  3  1  0
 13 12  2  0
 14 15  1  0
 14 13  1  0
 15 16  2  0
 16 12  1  0
  1 17  1  0
  5 18  1  0
  8 19  1  0
 10 20  1  0
 13 21  1  0
 15 22  1  0
M  ISO  6  17  14  18  14  19  14  20  14  21  14  22  14
M  END
>  <minimizedAffinity>  (1) 
-3.63499761

>  <minimizedRMSD>  (1) 
3.12963271

$$$$
