
     RDKit          3D

 39 42  0  0  0  0  0  0  0  0999 V2000
   45.2450   33.4300   44.6070 C   0  0  0  0  0  0  0  0  0  0  0  0
   45.6160   33.6690   43.2720 C   0  0  0  0  0  0  0  0  0  0  0  0
   46.8660   33.2590   42.8700 C   0  0  0  0  0  0  0  0  0  0  0  0
   47.6830   32.6500   43.7540 N   0  0  0  0  0  0  0  0  0  0  0  0
   47.3000   32.4320   45.0330 C   0  0  0  0  0  0  0  0  0  0  0  0
   46.0890   32.8230   45.4480 N   0  0  0  0  0  0  0  0  0  0  0  0
   44.6730   34.3150   42.4470 N   0  0  0  0  0  0  0  0  0  0  0  0
   44.4580   35.6520   42.2050 C   0  0  0  0  0  0  0  0  0  0  0  0
   43.4410   35.8120   41.3400 N   0  0  0  0  0  0  0  0  0  0  0  0
   43.0140   34.5620   41.0360 C   0  0  0  0  0  0  0  0  0  0  0  0
   43.7760   33.6820   41.7200 N   0  0  0  0  0  0  0  0  0  0  0  0
   41.9320   34.2850   40.1360 N   0  0  0  0  0  0  0  0  0  0  0  0
   40.6410   34.3090   40.5210 C   0  0  0  0  0  0  0  0  0  0  0  0
   39.7030   34.0230   39.5490 C   0  0  0  0  0  0  0  0  0  0  0  0
   38.2710   34.0340   39.9130 C   0  0  0  0  0  0  0  0  0  0  0  0
   40.1210   33.7280   38.2500 C   0  0  0  0  0  0  0  0  0  0  0  0
   39.2460   33.4650   37.3610 O   0  0  0  0  0  0  0  0  0  0  0  0
   41.4270   33.7190   37.9270 N   0  0  0  0  0  0  0  0  0  0  0  0
   42.3290   34.0000   38.8800 C   0  0  0  0  0  0  0  0  0  0  0  0
   43.5290   33.9780   38.5240 O   0  0  0  0  0  0  0  0  0  0  0  0
   47.2390   33.5060   41.5080 N   0  0  0  0  0  0  0  0  0  0  0  0
   47.9380   34.6810   41.3680 C   0  0  0  0  0  0  0  0  0  0  0  0
   48.3530   35.0240   40.0880 C   0  0  0  0  0  0  0  0  0  0  0  0
   48.0940   34.2490   38.9980 C   0  0  0  0  0  0  0  0  0  0  0  0
   48.4790   34.5760   37.8410 O   0  0  0  0  0  0  0  0  0  0  0  0
   47.3950   33.0940   39.2150 N   0  0  0  0  0  0  0  0  0  0  0  0
   46.9820   32.7380   40.4360 C   0  0  0  0  0  0  0  0  0  0  0  0
   46.3400   31.6910   40.6780 O   0  0  0  0  0  0  0  0  0  0  0  0
   44.2527   33.7448   44.9624 H   0  0  0  0  0  0  0  0  0  0  0  0
   47.9853   31.9323   45.7335 H   0  0  0  0  0  0  0  0  0  0  0  0
   45.0356   36.4730   42.6549 H   0  0  0  0  0  0  0  0  0  0  0  0
   40.3496   34.5441   41.5553 H   0  0  0  0  0  0  0  0  0  0  0  0
   38.1711   34.0348   41.0085 H   0  0  0  0  0  0  0  0  0  0  0  0
   37.7948   34.9358   39.5008 H   0  0  0  0  0  0  0  0  0  0  0  0
   37.7810   33.1396   39.5008 H   0  0  0  0  0  0  0  0  0  0  0  0
   41.7287   33.5006   36.9667 H   0  0  0  0  0  0  0  0  0  0  0  0
   48.1594   35.3228   42.2335 H   0  0  0  0  0  0  0  0  0  0  0  0
   48.9139   35.9599   39.9485 H   0  0  0  0  0  0  0  0  0  0  0  0
   47.1806   32.4810   38.4155 H   0  0  0  0  0  0  0  0  0  0  0  0
  1  6  2  0
  2  1  1  0
  3  2  2  0
  3  4  1  0
  4  5  2  0
  5  6  1  0
  7  2  1  0
  8  7  1  0
  9  8  2  0
 10  9  1  0
 10 11  2  0
 11  7  1  0
 12 13  1  0
 12 10  1  0
 14 15  1  0
 14 13  2  0
 16 14  1  0
 17 16  2  0
 18 16  1  0
 18 19  1  0
 19 12  1  0
 20 19  2  0
 21  3  1  0
 22 21  1  0
 23 22  2  0
 24 26  1  0
 24 23  1  0
 25 24  2  0
 26 27  1  0
 27 28  2  0
 27 21  1  0
  1 29  1  0
  5 30  1  0
  8 31  1  0
 13 32  1  0
 15 33  1  0
 15 34  1  0
 15 35  1  0
 18 36  1  0
 22 37  1  0
 23 38  1  0
 26 39  1  0
M  ISO  8  29  14  30  14  31  14  32  14  33   8  34   8  35   8  36   9
M  ISO  3  37  14  38  14  39   9
M  END
>  <minimizedAffinity>  (1) 
-6.71532774

>  <minimizedRMSD>  (1) 
0.153522164

$$$$
