
     RDKit          3D

 26 28  0  0  0  0  0  0  0  0999 V2000
   45.2270   33.5960   44.7080 C   0  0  0  0  0  0  0  0  0  0  0  0
   45.6010   33.7890   43.3710 C   0  0  0  0  0  0  0  0  0  0  0  0
   46.8630   33.3770   42.9720 C   0  0  0  0  0  0  0  0  0  0  0  0
   47.6810   32.8050   43.8910 N   0  0  0  0  0  0  0  0  0  0  0  0
   47.2870   32.6320   45.1780 C   0  0  0  0  0  0  0  0  0  0  0  0
   46.0670   33.0280   45.5730 N   0  0  0  0  0  0  0  0  0  0  0  0
   47.2350   33.5780   41.6130 N   0  0  0  0  0  0  0  0  0  0  0  0
   47.9250   34.7430   41.4400 C   0  0  0  0  0  0  0  0  0  0  0  0
   48.3410   35.0410   40.1380 C   0  0  0  0  0  0  0  0  0  0  0  0
   48.0860   34.2250   39.0740 C   0  0  0  0  0  0  0  0  0  0  0  0
   48.4740   34.5180   37.9090 O   0  0  0  0  0  0  0  0  0  0  0  0
   47.3930   33.0830   39.3330 N   0  0  0  0  0  0  0  0  0  0  0  0
   46.9770   32.7640   40.5720 C   0  0  0  0  0  0  0  0  0  0  0  0
   46.3350   31.7160   40.8470 O   0  0  0  0  0  0  0  0  0  0  0  0
   44.6540   34.4000   42.5120 N   0  0  0  0  0  0  0  0  0  0  0  0
   44.4510   35.7180   42.2010 C   0  0  0  0  0  0  0  0  0  0  0  0
   43.4310   35.8400   41.3340 N   0  0  0  0  0  0  0  0  0  0  0  0
   42.9880   34.5730   41.0990 C   0  0  0  0  0  0  0  0  0  0  0  0
   43.7490   33.7340   41.8270 N   0  0  0  0  0  0  0  0  0  0  0  0
   44.2307   33.9164   45.0466 H   0  0  0  0  0  0  0  0  0  0  0  0
   47.9713   32.1647   45.9014 H   0  0  0  0  0  0  0  0  0  0  0  0
   48.1433   35.4148   42.2833 H   0  0  0  0  0  0  0  0  0  0  0  0
   48.8979   35.9736   39.9642 H   0  0  0  0  0  0  0  0  0  0  0  0
   47.1800   32.4421   38.5553 H   0  0  0  0  0  0  0  0  0  0  0  0
   45.0384   36.5567   42.6030 H   0  0  0  0  0  0  0  0  0  0  0  0
   42.1589   34.2874   40.4349 H   0  0  0  0  0  0  0  0  0  0  0  0
  1  6  2  0
  2  1  1  0
  3  2  2  0
  3  4  1  0
  4  5  2  0
  5  6  1  0
  7  3  1  0
  8  7  1  0
  9  8  2  0
 10 12  1  0
 10  9  1  0
 11 10  2  0
 12 13  1  0
 13 14  2  0
 13  7  1  0
 15  2  1  0
 16 15  1  0
 17 16  2  0
 18 17  1  0
 18 19  2  0
 19 15  1  0
  1 20  1  0
  5 21  1  0
  8 22  1  0
  9 23  1  0
 12 24  1  0
 16 25  1  0
 18 26  1  0
M  ISO  7  20  14  21  14  22  14  23  14  24   9  25  14  26  14
M  END
>  <minimizedAffinity>  (1) 
-4.1847949

>  <minimizedRMSD>  (1) 
2.86194611

$$$$
