
     RDKit          3D

 36 39  0  0  0  0  0  0  0  0999 V2000
   45.3760   33.3970   44.6780 C   0  0  0  0  0  0  0  0  0  0  0  0
   45.7240   33.6760   43.3450 C   0  0  0  0  0  0  0  0  0  0  0  0
   46.9310   33.1800   42.8680 C   0  0  0  0  0  0  0  0  0  0  0  0
   47.7220   32.4530   43.6980 N   0  0  0  0  0  0  0  0  0  0  0  0
   47.3470   32.2100   44.9750 C   0  0  0  0  0  0  0  0  0  0  0  0
   46.1860   32.6810   45.4480 N   0  0  0  0  0  0  0  0  0  0  0  0
   44.8170   34.4440   42.5770 N   0  0  0  0  0  0  0  0  0  0  0  0
   44.6350   35.7980   42.5100 C   0  0  0  0  0  0  0  0  0  0  0  0
   43.6540   36.0990   41.6400 N   0  0  0  0  0  0  0  0  0  0  0  0
   43.2180   34.8920   41.1550 C   0  0  0  0  0  0  0  0  0  0  0  0
   43.9380   33.9240   41.7400 N   0  0  0  0  0  0  0  0  0  0  0  0
   42.1700   34.8000   40.1960 N   0  0  0  0  0  0  0  0  0  0  0  0
   40.9150   35.2460   40.4500 C   0  0  0  0  0  0  0  0  0  0  0  0
   39.9230   35.1370   39.4840 C   0  0  0  0  0  0  0  0  0  0  0  0
   40.2300   34.5660   38.2630 C   0  0  0  0  0  0  0  0  0  0  0  0
   39.3450   34.4630   37.3890 O   0  0  0  0  0  0  0  0  0  0  0  0
   41.5120   34.1410   38.0810 N   0  0  0  0  0  0  0  0  0  0  0  0
   42.4740   34.2440   39.0090 C   0  0  0  0  0  0  0  0  0  0  0  0
   43.5770   33.8010   38.6590 O   0  0  0  0  0  0  0  0  0  0  0  0
   47.2810   33.4630   41.5180 N   0  0  0  0  0  0  0  0  0  0  0  0
   48.0020   34.6270   41.4000 C   0  0  0  0  0  0  0  0  0  0  0  0
   48.4020   35.0080   40.1250 C   0  0  0  0  0  0  0  0  0  0  0  0
   48.1030   34.2680   39.0080 C   0  0  0  0  0  0  0  0  0  0  0  0
   48.4740   34.6310   37.8560 O   0  0  0  0  0  0  0  0  0  0  0  0
   47.3830   33.1240   39.2080 N   0  0  0  0  0  0  0  0  0  0  0  0
   46.9870   32.7360   40.4290 C   0  0  0  0  0  0  0  0  0  0  0  0
   46.3280   31.6950   40.6440 O   0  0  0  0  0  0  0  0  0  0  0  0
   44.4265   33.7744   45.0855 H   0  0  0  0  0  0  0  0  0  0  0  0
   48.0026   31.6193   45.6317 H   0  0  0  0  0  0  0  0  0  0  0  0
   45.2102   36.5373   43.0867 H   0  0  0  0  0  0  0  0  0  0  0  0
   40.6813   35.6964   41.4260 H   0  0  0  0  0  0  0  0  0  0  0  0
   38.9051   35.5007   39.6881 H   0  0  0  0  0  0  0  0  0  0  0  0
   41.7566   33.7149   37.1757 H   0  0  0  0  0  0  0  0  0  0  0  0
   48.2531   35.2344   42.2820 H   0  0  0  0  0  0  0  0  0  0  0  0
   48.9795   35.9367   40.0063 H   0  0  0  0  0  0  0  0  0  0  0  0
   47.1367   32.5413   38.3952 H   0  0  0  0  0  0  0  0  0  0  0  0
  1  6  2  0
  2  1  1  0
  3  2  2  0
  3  4  1  0
  4  5  2  0
  5  6  1  0
  7  2  1  0
  8  7  1  0
  9  8  2  0
 10  9  1  0
 10 11  2  0
 11  7  1  0
 12 13  1  0
 12 10  1  0
 14 13  2  0
 15 14  1  0
 16 15  2  0
 17 15  1  0
 17 18  1  0
 18 12  1  0
 19 18  2  0
 20  3  1  0
 21 20  1  0
 22 21  2  0
 23 25  1  0
 23 22  1  0
 24 23  2  0
 25 26  1  0
 26 27  2  0
 26 20  1  0
  1 28  1  0
  5 29  1  0
  8 30  1  0
 13 31  1  0
 14 32  1  0
 17 33  1  0
 21 34  1  0
 22 35  1  0
 25 36  1  0
M  ISO  8  28  14  29  14  30  14  31  14  32  14  33   9  34  14  35  14
M  ISO  1  36   9
M  END
>  <minimizedAffinity>  (1) 
-6.57105684

>  <minimizedRMSD>  (1) 
0.508599937

$$$$
