
     RDKit          3D

 39 42  0  0  0  0  0  0  0  0999 V2000
   45.2290   33.5840   44.7260 C   0  0  0  0  0  0  0  0  0  0  0  0
   45.5960   33.7920   43.3880 C   0  0  0  0  0  0  0  0  0  0  0  0
   46.8510   33.3520   42.9710 C   0  0  0  0  0  0  0  0  0  0  0  0
   47.6580   32.7440   43.8820 N   0  0  0  0  0  0  0  0  0  0  0  0
   47.2680   32.5600   45.1690 C   0  0  0  0  0  0  0  0  0  0  0  0
   46.0530   32.9860   45.5710 N   0  0  0  0  0  0  0  0  0  0  0  0
   44.6590   34.4400   42.5420 N   0  0  0  0  0  0  0  0  0  0  0  0
   44.5080   35.7590   42.2230 C   0  0  0  0  0  0  0  0  0  0  0  0
   43.4790   35.9240   41.3770 N   0  0  0  0  0  0  0  0  0  0  0  0
   42.9780   34.6740   41.1670 C   0  0  0  0  0  0  0  0  0  0  0  0
   43.7130   33.8130   41.8820 N   0  0  0  0  0  0  0  0  0  0  0  0
   41.8730   34.3320   40.3360 N   0  0  0  0  0  0  0  0  0  0  0  0
   41.4800   35.0670   39.1360 C   0  0  0  0  0  0  0  0  0  0  0  0
   39.9780   34.8020   39.0130 C   0  0  0  0  0  0  0  0  0  0  0  0
   39.3370   34.7900   40.2420 O   0  0  0  0  0  0  0  0  0  0  0  0
   39.6910   33.7660   41.0810 C   0  0  0  0  0  0  0  0  0  0  0  0
   41.0440   33.1800   40.6600 C   0  0  0  0  0  0  0  0  0  0  0  0
   47.2180   33.5650   41.6160 N   0  0  0  0  0  0  0  0  0  0  0  0
   47.9430   34.7130   41.4560 C   0  0  0  0  0  0  0  0  0  0  0  0
   48.3610   35.0250   40.1600 C   0  0  0  0  0  0  0  0  0  0  0  0
   48.0760   34.2440   39.0880 C   0  0  0  0  0  0  0  0  0  0  0  0
   48.4680   34.5550   37.9280 O   0  0  0  0  0  0  0  0  0  0  0  0
   47.3470   33.1120   39.3240 N   0  0  0  0  0  0  0  0  0  0  0  0
   46.9280   32.7830   40.5630 C   0  0  0  0  0  0  0  0  0  0  0  0
   46.2590   31.7570   40.8310 O   0  0  0  0  0  0  0  0  0  0  0  0
   44.2431   33.9226   45.0772 H   0  0  0  0  0  0  0  0  0  0  0  0
   47.9419   32.0642   45.8832 H   0  0  0  0  0  0  0  0  0  0  0  0
   45.1413   36.5729   42.6059 H   0  0  0  0  0  0  0  0  0  0  0  0
   41.6787   36.1425   39.2539 H   0  0  0  0  0  0  0  0  0  0  0  0
   42.0397   34.7499   38.2437 H   0  0  0  0  0  0  0  0  0  0  0  0
   39.5309   35.5906   38.3900 H   0  0  0  0  0  0  0  0  0  0  0  0
   39.8508   33.8073   38.5609 H   0  0  0  0  0  0  0  0  0  0  0  0
   39.7649   34.1483   42.1098 H   0  0  0  0  0  0  0  0  0  0  0  0
   38.9260   32.9774   41.0274 H   0  0  0  0  0  0  0  0  0  0  0  0
   40.9262   32.5297   39.7807 H   0  0  0  0  0  0  0  0  0  0  0  0
   41.4898   32.5620   41.4533 H   0  0  0  0  0  0  0  0  0  0  0  0
   48.1864   35.3623   42.3099 H   0  0  0  0  0  0  0  0  0  0  0  0
   48.9461   35.9430   40.0021 H   0  0  0  0  0  0  0  0  0  0  0  0
   47.1114   32.4938   38.5345 H   0  0  0  0  0  0  0  0  0  0  0  0
  1  6  2  0
  2  1  1  0
  3  2  2  0
  3  4  1  0
  4  5  2  0
  5  6  1  0
  7  2  1  0
  8  7  1  0
  9  8  2  0
 10  9  1  0
 10 11  2  0
 11  7  1  0
 12 17  1  0
 12 10  1  0
 13 12  1  0
 14 13  1  0
 14 15  1  0
 15 16  1  0
 17 16  1  0
 18  3  1  0
 19 18  1  0
 20 19  2  0
 21 23  1  0
 21 20  1  0
 22 21  2  0
 23 24  1  0
 24 25  2  0
 24 18  1  0
  1 26  1  0
  5 27  1  0
  8 28  1  0
 13 29  1  0
 13 30  1  0
 14 31  1  0
 14 32  1  0
 16 33  1  0
 16 34  1  0
 17 35  1  0
 17 36  1  0
 19 37  1  0
 20 38  1  0
 23 39  1  0
M  ISO  8  26  14  27  14  28  14  29  13  30  13  31  13  32  13  33  13
M  ISO  6  34  13  35  13  36  13  37  14  38  14  39   9
M  END
>  <minimizedAffinity>  (1) 
-5.81063223

>  <minimizedRMSD>  (1) 
0.137815684

$$$$
