
     RDKit          3D

 38 41  0  0  0  0  0  0  0  0999 V2000
   45.2680   33.5130   44.8290 C   0  0  0  0  0  0  0  0  0  0  0  0
   45.6250   33.7370   43.4990 C   0  0  0  0  0  0  0  0  0  0  0  0
   46.8640   33.2890   43.0640 C   0  0  0  0  0  0  0  0  0  0  0  0
   47.6740   32.6560   43.9470 N   0  0  0  0  0  0  0  0  0  0  0  0
   47.2880   32.4570   45.2430 C   0  0  0  0  0  0  0  0  0  0  0  0
   46.0980   32.8870   45.6600 N   0  0  0  0  0  0  0  0  0  0  0  0
   44.6910   34.4090   42.6780 N   0  0  0  0  0  0  0  0  0  0  0  0
   44.5470   35.7550   42.4090 C   0  0  0  0  0  0  0  0  0  0  0  0
   43.5090   35.9460   41.5600 N   0  0  0  0  0  0  0  0  0  0  0  0
   43.0180   34.7100   41.3100 C   0  0  0  0  0  0  0  0  0  0  0  0
   43.7350   33.8070   41.9850 N   0  0  0  0  0  0  0  0  0  0  0  0
   41.9060   34.4900   40.4490 N   0  0  0  0  0  0  0  0  0  0  0  0
   40.5650   34.1620   40.9020 C   0  0  0  0  0  0  0  0  0  0  0  0
   39.7480   35.1200   40.0590 C   0  0  0  0  0  0  0  0  0  0  0  0
   40.5680   35.3180   38.8000 C   0  0  0  0  0  0  0  0  0  0  0  0
   41.8620   34.5430   38.9980 C   0  0  0  0  0  0  0  0  0  0  0  0
   47.2230   33.5190   41.7100 N   0  0  0  0  0  0  0  0  0  0  0  0
   47.9370   34.6750   41.5550 C   0  0  0  0  0  0  0  0  0  0  0  0
   48.3470   35.0080   40.2660 C   0  0  0  0  0  0  0  0  0  0  0  0
   48.0570   34.2210   39.1780 C   0  0  0  0  0  0  0  0  0  0  0  0
   48.4370   34.5420   38.0210 O   0  0  0  0  0  0  0  0  0  0  0  0
   47.3430   33.0890   39.4150 N   0  0  0  0  0  0  0  0  0  0  0  0
   46.9350   32.7420   40.6470 C   0  0  0  0  0  0  0  0  0  0  0  0
   46.2790   31.7110   40.9020 O   0  0  0  0  0  0  0  0  0  0  0  0
   44.2896   33.8576   45.1949 H   0  0  0  0  0  0  0  0  0  0  0  0
   47.9613   31.9408   45.9431 H   0  0  0  0  0  0  0  0  0  0  0  0
   45.1806   36.5535   42.8224 H   0  0  0  0  0  0  0  0  0  0  0  0
   40.3092   33.1136   40.6888 H   0  0  0  0  0  0  0  0  0  0  0  0
   40.4106   34.2591   41.9868 H   0  0  0  0  0  0  0  0  0  0  0  0
   38.7665   34.6853   39.8186 H   0  0  0  0  0  0  0  0  0  0  0  0
   39.5492   36.0681   40.5802 H   0  0  0  0  0  0  0  0  0  0  0  0
   40.7842   36.3863   38.6520 H   0  0  0  0  0  0  0  0  0  0  0  0
   40.0243   34.9623   37.9124 H   0  0  0  0  0  0  0  0  0  0  0  0
   41.8076   33.5379   38.5544 H   0  0  0  0  0  0  0  0  0  0  0  0
   42.7475   34.9918   38.5241 H   0  0  0  0  0  0  0  0  0  0  0  0
   48.1782   35.3171   42.4150 H   0  0  0  0  0  0  0  0  0  0  0  0
   48.9227   35.9329   40.1141 H   0  0  0  0  0  0  0  0  0  0  0  0
   47.1064   32.4756   38.6221 H   0  0  0  0  0  0  0  0  0  0  0  0
  1  6  2  0
  2  1  1  0
  3  2  2  0
  3  4  1  0
  4  5  2  0
  5  6  1  0
  7  2  1  0
  8  7  1  0
  9  8  2  0
 10  9  1  0
 10 11  2  0
 11  7  1  0
 12 13  1  0
 12 10  1  0
 14 13  1  0
 15 16  1  0
 15 14  1  0
 16 12  1  0
 17  3  1  0
 18 17  1  0
 19 18  2  0
 20 22  1  0
 20 19  1  0
 21 20  2  0
 22 23  1  0
 23 24  2  0
 23 17  1  0
  1 25  1  0
  5 26  1  0
  8 27  1  0
 13 28  1  0
 13 29  1  0
 14 30  1  0
 14 31  1  0
 15 32  1  0
 15 33  1  0
 16 34  1  0
 16 35  1  0
 18 36  1  0
 19 37  1  0
 22 38  1  0
M  ISO  8  25  14  26  14  27  14  28  13  29  13  30  13  31  13  32  13
M  ISO  6  33  13  34  13  35  13  36  14  37  14  38   9
M  END
>  <minimizedAffinity>  (1) 
-5.81796408

>  <minimizedRMSD>  (1) 
0.220899954

$$$$
