
     RDKit          3D

 34 37  0  0  0  0  0  0  0  0999 V2000
   45.5040   33.6390   45.1660 C   0  0  0  0  0  0  0  0  0  0  0  0
   45.8410   33.8920   43.8310 C   0  0  0  0  0  0  0  0  0  0  0  0
   46.9330   33.2440   43.2960 C   0  0  0  0  0  0  0  0  0  0  0  0
   47.6370   32.3920   44.0700 N   0  0  0  0  0  0  0  0  0  0  0  0
   47.2920   32.1630   45.3610 C   0  0  0  0  0  0  0  0  0  0  0  0
   46.2260   32.7910   45.8960 N   0  0  0  0  0  0  0  0  0  0  0  0
   47.2660   33.5130   41.9290 N   0  0  0  0  0  0  0  0  0  0  0  0
   48.0680   34.6240   41.8000 C   0  0  0  0  0  0  0  0  0  0  0  0
   48.4540   34.9810   40.5150 C   0  0  0  0  0  0  0  0  0  0  0  0
   48.0710   34.2820   39.4120 C   0  0  0  0  0  0  0  0  0  0  0  0
   48.4340   34.6230   38.2480 O   0  0  0  0  0  0  0  0  0  0  0  0
   47.2840   33.2030   39.6200 N   0  0  0  0  0  0  0  0  0  0  0  0
   46.8880   32.8220   40.8430 C   0  0  0  0  0  0  0  0  0  0  0  0
   46.1600   31.8310   41.0770 O   0  0  0  0  0  0  0  0  0  0  0  0
   45.0210   34.8100   43.1200 N   0  0  0  0  0  0  0  0  0  0  0  0
   45.0190   36.1830   43.1050 C   0  0  0  0  0  0  0  0  0  0  0  0
   44.0570   36.6310   42.2790 N   0  0  0  0  0  0  0  0  0  0  0  0
   43.4480   35.5290   41.7700 C   0  0  0  0  0  0  0  0  0  0  0  0
   44.0570   34.4480   42.3000 N   0  0  0  0  0  0  0  0  0  0  0  0
   42.3480   35.3420   40.8310 C   0  0  0  0  0  0  0  0  0  0  0  0
   41.0860   35.7790   41.2460 C   0  0  0  0  0  0  0  0  0  0  0  0
   40.0110   35.6280   40.3960 C   0  0  0  0  0  0  0  0  0  0  0  0
   40.1840   35.0620   39.1790 N   0  0  0  0  0  0  0  0  0  0  0  0
   41.4090   34.6410   38.7850 C   0  0  0  0  0  0  0  0  0  0  0  0
   42.4810   34.7800   39.6050 N   0  0  0  0  0  0  0  0  0  0  0  0
   44.6364   34.1444   45.6153 H   0  0  0  0  0  0  0  0  0  0  0  0
   47.8823   31.4644   45.9721 H   0  0  0  0  0  0  0  0  0  0  0  0
   48.3894   35.2043   42.6774 H   0  0  0  0  0  0  0  0  0  0  0  0
   49.0955   35.8648   40.3831 H   0  0  0  0  0  0  0  0  0  0  0  0
   46.9762   32.6514   38.8065 H   0  0  0  0  0  0  0  0  0  0  0  0
   45.7030   36.8218   43.6830 H   0  0  0  0  0  0  0  0  0  0  0  0
   40.9528   36.2370   42.2372 H   0  0  0  0  0  0  0  0  0  0  0  0
   39.0122   35.9678   40.7072 H   0  0  0  0  0  0  0  0  0  0  0  0
   41.5361   34.1830   37.7930 H   0  0  0  0  0  0  0  0  0  0  0  0
  1  6  2  0
  2  1  1  0
  3  2  2  0
  3  4  1  0
  4  5  2  0
  5  6  1  0
  7  3  1  0
  8  7  1  0
  9  8  2  0
 10 12  1  0
 10  9  1  0
 11 10  2  0
 12 13  1  0
 13 14  2  0
 13  7  1  0
 15  2  1  0
 16 15  1  0
 17 16  2  0
 18 17  1  0
 18 19  2  0
 19 15  1  0
 20 21  2  0
 20 18  1  0
 22 21  1  0
 23 22  2  0
 24 23  1  0
 24 25  2  0
 25 20  1  0
  1 26  1  0
  5 27  1  0
  8 28  1  0
  9 29  1  0
 12 30  1  0
 16 31  1  0
 21 32  1  0
 22 33  1  0
 24 34  1  0
M  ISO  8  26  14  27  14  28  14  29  14  30   9  31  14  32  14  33  14
M  ISO  1  34  14
M  END
>  <minimizedAffinity>  (1) 
-5.68765688

>  <minimizedRMSD>  (1) 
1.22864377

$$$$
