
     RDKit          3D

 33 36  0  0  0  0  0  0  0  0999 V2000
   45.2390   33.7650   45.0660 C   0  0  0  0  0  0  0  0  0  0  0  0
   45.6010   33.9390   43.7170 C   0  0  0  0  0  0  0  0  0  0  0  0
   46.7980   33.4060   43.2920 C   0  0  0  0  0  0  0  0  0  0  0  0
   47.5790   32.7420   44.1700 N   0  0  0  0  0  0  0  0  0  0  0  0
   47.1980   32.5920   45.4670 C   0  0  0  0  0  0  0  0  0  0  0  0
   46.0380   33.1030   45.8960 N   0  0  0  0  0  0  0  0  0  0  0  0
   47.1560   33.5900   41.9170 N   0  0  0  0  0  0  0  0  0  0  0  0
   47.9440   34.7010   41.7330 C   0  0  0  0  0  0  0  0  0  0  0  0
   48.3530   34.9780   40.4350 C   0  0  0  0  0  0  0  0  0  0  0  0
   48.0080   34.2070   39.3730 C   0  0  0  0  0  0  0  0  0  0  0  0
   48.3880   34.4710   38.1970 O   0  0  0  0  0  0  0  0  0  0  0  0
   47.2210   33.1170   39.6340 N   0  0  0  0  0  0  0  0  0  0  0  0
   46.8080   32.8210   40.8780 C   0  0  0  0  0  0  0  0  0  0  0  0
   46.0900   31.8380   41.1560 O   0  0  0  0  0  0  0  0  0  0  0  0
   44.6950   34.6580   42.8890 N   0  0  0  0  0  0  0  0  0  0  0  0
   44.6500   35.9870   42.5550 C   0  0  0  0  0  0  0  0  0  0  0  0
   43.6050   36.2220   41.7370 N   0  0  0  0  0  0  0  0  0  0  0  0
   42.9930   35.0270   41.5610 C   0  0  0  0  0  0  0  0  0  0  0  0
   43.6770   34.1160   42.2680 N   0  0  0  0  0  0  0  0  0  0  0  0
   41.8440   34.5800   40.8210 N   0  0  0  0  0  0  0  0  0  0  0  0
   40.6290   34.5940   41.4130 C   0  0  0  0  0  0  0  0  0  0  0  0
   39.7500   34.1150   40.4610 C   0  0  0  0  0  0  0  0  0  0  0  0
   40.4350   33.8300   39.3450 N   0  0  0  0  0  0  0  0  0  0  0  0
   41.7380   34.1160   39.5590 C   0  0  0  0  0  0  0  0  0  0  0  0
   44.2893   34.1794   45.4352 H   0  0  0  0  0  0  0  0  0  0  0  0
   47.8476   32.0471   46.1678 H   0  0  0  0  0  0  0  0  0  0  0  0
   48.2378   35.3426   42.5768 H   0  0  0  0  0  0  0  0  0  0  0  0
   48.9846   35.8615   40.2601 H   0  0  0  0  0  0  0  0  0  0  0  0
   46.9375   32.5065   38.8543 H   0  0  0  0  0  0  0  0  0  0  0  0
   45.3622   36.7495   42.9035 H   0  0  0  0  0  0  0  0  0  0  0  0
   40.3905   34.9183   42.4367 H   0  0  0  0  0  0  0  0  0  0  0  0
   38.6658   33.9883   40.5967 H   0  0  0  0  0  0  0  0  0  0  0  0
   42.5597   33.9933   38.8380 H   0  0  0  0  0  0  0  0  0  0  0  0
  1  6  2  0
  2  1  1  0
  3  2  2  0
  3  4  1  0
  4  5  2  0
  5  6  1  0
  7  3  1  0
  8  7  1  0
  9  8  2  0
 10 12  1  0
 10  9  1  0
 11 10  2  0
 12 13  1  0
 13 14  2  0
 13  7  1  0
 15  2  1  0
 16 15  1  0
 17 16  2  0
 18 17  1  0
 18 19  2  0
 19 15  1  0
 20 21  1  0
 20 18  1  0
 22 21  2  0
 23 24  2  0
 23 22  1  0
 24 20  1  0
  1 25  1  0
  5 26  1  0
  8 27  1  0
  9 28  1  0
 12 29  1  0
 16 30  1  0
 21 31  1  0
 22 32  1  0
 24 33  1  0
M  ISO  8  25  14  26  14  27  14  28  14  29   9  30  14  31  14  32  14
M  ISO  1  33  14
M  END
>  <minimizedAffinity>  (1) 
-5.36475897

>  <minimizedRMSD>  (1) 
0.55945611

$$$$
