
     RDKit          3D

 35 37  0  0  0  0  0  0  0  0999 V2000
   45.3400   33.6840   45.1060 C   0  0  0  0  0  0  0  0  0  0  0  0
   45.6920   33.8960   43.7620 C   0  0  0  0  0  0  0  0  0  0  0  0
   46.8600   33.3380   43.2950 C   0  0  0  0  0  0  0  0  0  0  0  0
   47.6260   32.6080   44.1390 N   0  0  0  0  0  0  0  0  0  0  0  0
   47.2520   32.4240   45.4380 C   0  0  0  0  0  0  0  0  0  0  0  0
   46.1240   32.9590   45.9020 N   0  0  0  0  0  0  0  0  0  0  0  0
   47.2070   33.5600   41.9230 N   0  0  0  0  0  0  0  0  0  0  0  0
   47.9940   34.6640   41.7710 C   0  0  0  0  0  0  0  0  0  0  0  0
   48.4030   34.9900   40.4810 C   0  0  0  0  0  0  0  0  0  0  0  0
   48.0410   34.2460   39.3920 C   0  0  0  0  0  0  0  0  0  0  0  0
   48.4140   34.5470   38.2190 O   0  0  0  0  0  0  0  0  0  0  0  0
   47.2520   33.1570   39.6260 N   0  0  0  0  0  0  0  0  0  0  0  0
   46.8470   32.8240   40.8640 C   0  0  0  0  0  0  0  0  0  0  0  0
   46.1210   31.8300   41.1210 O   0  0  0  0  0  0  0  0  0  0  0  0
   44.8040   34.6810   42.9770 N   0  0  0  0  0  0  0  0  0  0  0  0
   44.7600   36.0300   42.7720 C   0  0  0  0  0  0  0  0  0  0  0  0
   43.7470   36.3420   41.9510 N   0  0  0  0  0  0  0  0  0  0  0  0
   43.1450   35.1630   41.6390 C   0  0  0  0  0  0  0  0  0  0  0  0
   43.8030   34.1850   42.2700 N   0  0  0  0  0  0  0  0  0  0  0  0
   41.9710   35.0050   40.7540 C   0  0  0  0  0  0  0  0  0  0  0  0
   40.8640   35.9660   41.0410 C   0  0  0  0  0  0  0  0  0  0  0  0
   42.3590   35.1810   39.2820 C   0  0  0  0  0  0  0  0  0  0  0  0
   44.4112   34.1196   45.5030 H   0  0  0  0  0  0  0  0  0  0  0  0
   47.8883   31.8280   46.1087 H   0  0  0  0  0  0  0  0  0  0  0  0
   48.2942   35.2739   42.6358 H   0  0  0  0  0  0  0  0  0  0  0  0
   49.0385   35.8755   40.3325 H   0  0  0  0  0  0  0  0  0  0  0  0
   46.9581   32.5728   38.8302 H   0  0  0  0  0  0  0  0  0  0  0  0
   45.4558   36.7567   43.2166 H   0  0  0  0  0  0  0  0  0  0  0  0
   41.6102   33.9853   40.9543 H   0  0  0  0  0  0  0  0  0  0  0  0
   40.7427   36.0713   42.1292 H   0  0  0  0  0  0  0  0  0  0  0  0
   41.1058   36.9454   40.6026 H   0  0  0  0  0  0  0  0  0  0  0  0
   39.9283   35.5890   40.6026 H   0  0  0  0  0  0  0  0  0  0  0  0
   43.3591   35.6346   39.2181 H   0  0  0  0  0  0  0  0  0  0  0  0
   42.3692   34.1994   38.7856 H   0  0  0  0  0  0  0  0  0  0  0  0
   41.6272   35.8353   38.7856 H   0  0  0  0  0  0  0  0  0  0  0  0
  1  6  2  0
  2  1  1  0
  3  2  2  0
  3  4  1  0
  4  5  2  0
  5  6  1  0
  7  3  1  0
  8  7  1  0
  9  8  2  0
 10 12  1  0
 10  9  1  0
 11 10  2  0
 12 13  1  0
 13 14  2  0
 13  7  1  0
 15  2  1  0
 16 15  1  0
 17 16  2  0
 18 17  1  0
 18 19  2  0
 19 15  1  0
 20 21  1  0
 20 18  1  0
 22 20  1  0
  1 23  1  0
  5 24  1  0
  8 25  1  0
  9 26  1  0
 12 27  1  0
 16 28  1  0
 20 29  1  0
 21 30  1  0
 21 31  1  0
 21 32  1  0
 22 33  1  0
 22 34  1  0
 22 35  1  0
M  ISO  8  23  14  24  14  25  14  26  14  27   9  28  14  29   8  30   8
M  ISO  5  31   8  32   8  33   8  34   8  35   8
M  END
>  <minimizedAffinity>  (1) 
-4.93452501

>  <minimizedRMSD>  (1) 
0.618371427

$$$$
