
     RDKit          3D

 27 29  0  0  0  0  0  0  0  0999 V2000
   45.2240   33.5900   44.7010 C   0  0  0  0  0  0  0  0  0  0  0  0
   45.5970   33.7870   43.3610 C   0  0  0  0  0  0  0  0  0  0  0  0
   46.8710   33.3730   42.9670 C   0  0  0  0  0  0  0  0  0  0  0  0
   47.6840   32.8050   43.8860 N   0  0  0  0  0  0  0  0  0  0  0  0
   47.2790   32.6370   45.1680 C   0  0  0  0  0  0  0  0  0  0  0  0
   46.0620   33.0270   45.5660 N   0  0  0  0  0  0  0  0  0  0  0  0
   47.2410   33.5740   41.6110 N   0  0  0  0  0  0  0  0  0  0  0  0
   47.9240   34.7440   41.4250 C   0  0  0  0  0  0  0  0  0  0  0  0
   48.3340   35.0380   40.1300 C   0  0  0  0  0  0  0  0  0  0  0  0
   48.0880   34.2240   39.0600 C   0  0  0  0  0  0  0  0  0  0  0  0
   48.4710   34.5170   37.9040 O   0  0  0  0  0  0  0  0  0  0  0  0
   47.4040   33.0780   39.3280 N   0  0  0  0  0  0  0  0  0  0  0  0
   46.9900   32.7610   40.5750 C   0  0  0  0  0  0  0  0  0  0  0  0
   46.3570   31.7110   40.8500 O   0  0  0  0  0  0  0  0  0  0  0  0
   44.6560   34.3910   42.5010 N   0  0  0  0  0  0  0  0  0  0  0  0
   44.4470   35.7180   42.1960 C   0  0  0  0  0  0  0  0  0  0  0  0
   43.4320   35.8350   41.3190 N   0  0  0  0  0  0  0  0  0  0  0  0
   43.0090   34.5720   41.0780 C   0  0  0  0  0  0  0  0  0  0  0  0
   43.7650   33.7320   41.8030 N   0  0  0  0  0  0  0  0  0  0  0  0
   41.6610   34.2680   39.9580 S   0  0  0  0  0  0  0  0  0  0  0  0
   44.2259   33.9056   45.0388 H   0  0  0  0  0  0  0  0  0  0  0  0
   47.9621   32.1721   45.8942 H   0  0  0  0  0  0  0  0  0  0  0  0
   48.1394   35.4226   42.2635 H   0  0  0  0  0  0  0  0  0  0  0  0
   48.8850   35.9743   39.9573 H   0  0  0  0  0  0  0  0  0  0  0  0
   47.1949   32.4307   38.5546 H   0  0  0  0  0  0  0  0  0  0  0  0
   45.0245   36.5586   42.6083 H   0  0  0  0  0  0  0  0  0  0  0  0
   40.5215   34.0110   40.6739 H   0  0  0  0  0  0  0  0  0  0  0  0
  1  6  2  0
  2  1  1  0
  3  2  2  0
  3  4  1  0
  4  5  2  0
  5  6  1  0
  7  3  1  0
  8  7  1  0
  9  8  2  0
 10 12  1  0
 10  9  1  0
 11 10  2  0
 12 13  1  0
 13 14  2  0
 13  7  1  0
 15  2  1  0
 16 15  1  0
 17 16  2  0
 18 17  1  0
 18 19  2  0
 19 15  1  0
 20 18  1  0
  1 21  1  0
  5 22  1  0
  8 23  1  0
  9 24  1  0
 12 25  1  0
 16 26  1  0
 20 27  1  0
M  ISO  7  21  14  22  14  23  14  24  14  25   9  26  14  27  11
M  END
>  <minimizedAffinity>  (1) 
-4.41883707

>  <minimizedRMSD>  (1) 
0.0164481979

$$$$
