
     RDKit          3D

 28 30  0  0  0  0  0  0  0  0999 V2000
   45.2270   33.6070   44.7270 C   0  0  0  0  0  0  0  0  0  0  0  0
   45.6020   33.7940   43.3940 C   0  0  0  0  0  0  0  0  0  0  0  0
   46.8530   33.3820   42.9930 C   0  0  0  0  0  0  0  0  0  0  0  0
   47.6800   32.8120   43.8950 N   0  0  0  0  0  0  0  0  0  0  0  0
   47.2940   32.6410   45.1850 C   0  0  0  0  0  0  0  0  0  0  0  0
   46.0790   33.0360   45.5920 N   0  0  0  0  0  0  0  0  0  0  0  0
   47.2190   33.5810   41.6230 N   0  0  0  0  0  0  0  0  0  0  0  0
   47.9360   34.7400   41.4450 C   0  0  0  0  0  0  0  0  0  0  0  0
   48.3480   35.0390   40.1520 C   0  0  0  0  0  0  0  0  0  0  0  0
   48.0700   34.2370   39.0890 C   0  0  0  0  0  0  0  0  0  0  0  0
   48.4530   34.5250   37.9170 O   0  0  0  0  0  0  0  0  0  0  0  0
   47.3580   33.1110   39.3440 N   0  0  0  0  0  0  0  0  0  0  0  0
   46.9450   32.7920   40.5790 C   0  0  0  0  0  0  0  0  0  0  0  0
   46.2850   31.7580   40.8510 O   0  0  0  0  0  0  0  0  0  0  0  0
   44.6450   34.4060   42.5350 N   0  0  0  0  0  0  0  0  0  0  0  0
   44.4680   35.7130   42.1910 C   0  0  0  0  0  0  0  0  0  0  0  0
   43.4380   35.8550   41.3460 N   0  0  0  0  0  0  0  0  0  0  0  0
   42.9540   34.5870   41.1570 C   0  0  0  0  0  0  0  0  0  0  0  0
   43.7130   33.7560   41.8900 N   0  0  0  0  0  0  0  0  0  0  0  0
   41.8620   34.0460   40.3680 C   0  0  0  0  0  0  0  0  0  0  0  0
   40.9740   34.6860   39.7460 O   0  0  0  0  0  0  0  0  0  0  0  0
   44.2317   33.9284   45.0677 H   0  0  0  0  0  0  0  0  0  0  0  0
   47.9842   32.1741   45.9031 H   0  0  0  0  0  0  0  0  0  0  0  0
   48.1736   35.4027   42.2902 H   0  0  0  0  0  0  0  0  0  0  0  0
   48.9222   35.9616   39.9811 H   0  0  0  0  0  0  0  0  0  0  0  0
   47.1270   32.4803   38.5632 H   0  0  0  0  0  0  0  0  0  0  0  0
   45.0895   36.5426   42.5590 H   0  0  0  0  0  0  0  0  0  0  0  0
   41.8037   32.9493   40.3065 H   0  0  0  0  0  0  0  0  0  0  0  0
  1  6  2  0
  2  1  1  0
  3  2  2  0
  3  4  1  0
  4  5  2  0
  5  6  1  0
  7  3  1  0
  8  7  1  0
  9  8  2  0
 10 12  1  0
 10  9  1  0
 11 10  2  0
 12 13  1  0
 13 14  2  0
 13  7  1  0
 15  2  1  0
 16 15  1  0
 17 16  2  0
 18 17  1  0
 18 19  2  0
 19 15  1  0
 20 18  1  0
 21 20  2  0
  1 22  1  0
  5 23  1  0
  8 24  1  0
  9 25  1  0
 12 26  1  0
 16 27  1  0
 20 28  1  0
M  ISO  7  22  14  23  14  24  14  25  14  26   9  27  14  28   6
M  END
>  <minimizedAffinity>  (1) 
-4.42527008

>  <minimizedRMSD>  (1) 
0.12273021

$$$$
