
     RDKit          3D

 40 44  0  0  1  0  0  0  0  0999 V2000
   45.1590   33.9000   44.9760 C   0  0  0  0  0  0  0  0  0  0  0  0
   45.5120   33.9900   43.6160 C   0  0  0  0  0  0  0  0  0  0  0  0
   46.7510   33.5510   43.2420 C   0  0  0  0  0  0  0  0  0  0  0  0
   47.5930   33.0500   44.1770 N   0  0  0  0  0  0  0  0  0  0  0  0
   47.2350   32.9730   45.4810 C   0  0  0  0  0  0  0  0  0  0  0  0
   46.0030   33.4080   45.8600 N   0  0  0  0  0  0  0  0  0  0  0  0
   47.0980   33.6450   41.8660 N   0  0  0  0  0  0  0  0  0  0  0  0
   47.8730   34.7370   41.5870 C   0  0  0  0  0  0  0  0  0  0  0  0
   48.2780   34.9370   40.2710 C   0  0  0  0  0  0  0  0  0  0  0  0
   47.9270   34.0870   39.2690 C   0  0  0  0  0  0  0  0  0  0  0  0
   48.3020   34.2800   38.0770 O   0  0  0  0  0  0  0  0  0  0  0  0
   47.1510   33.0100   39.6030 N   0  0  0  0  0  0  0  0  0  0  0  0
   46.7540   32.8060   40.8690 C   0  0  0  0  0  0  0  0  0  0  0  0
   46.0430   31.8340   41.2240 O   0  0  0  0  0  0  0  0  0  0  0  0
   44.5370   34.5340   42.7310 N   0  0  0  0  0  0  0  0  0  0  0  0
   44.4720   35.7710   42.1350 C   0  0  0  0  0  0  0  0  0  0  0  0
   43.3620   35.8360   41.3760 N   0  0  0  0  0  0  0  0  0  0  0  0
   42.7420   34.6290   41.5090 C   0  0  0  0  0  0  0  0  0  0  0  0
   43.4600   33.8670   42.3220 N   0  0  0  0  0  0  0  0  0  0  0  0
   41.4700   34.1930   40.8780 C   0  0  1  0  0  0  0  0  0  0  0  0
   40.2000   34.4410   41.7070 C   0  0  0  0  0  0  0  0  0  0  0  0
   40.4720   35.1050   40.3540 C   0  0  2  0  0  0  0  0  0  0  0  0
   39.6540   34.5740   39.2050 C   0  0  0  0  0  0  0  0  0  0  0  0
   38.5530   33.7330   39.3750 C   0  0  0  0  0  0  0  0  0  0  0  0
   38.0880   33.4760   38.1000 C   0  0  0  0  0  0  0  0  0  0  0  0
   38.9270   34.1700   37.2310 C   0  0  0  0  0  0  0  0  0  0  0  0
   39.8190   34.7900   37.9380 O   0  0  0  0  0  0  0  0  0  0  0  0
   44.1672   34.2444   45.3042 H   0  0  0  0  0  0  0  0  0  0  0  0
   47.9331   32.5630   46.2257 H   0  0  0  0  0  0  0  0  0  0  0  0
   48.1681   35.4381   42.3816 H   0  0  0  0  0  0  0  0  0  0  0  0
   48.9023   35.8109   40.0333 H   0  0  0  0  0  0  0  0  0  0  0  0
   46.8667   32.3445   38.8701 H   0  0  0  0  0  0  0  0  0  0  0  0
   45.2088   36.5784   42.2584 H   0  0  0  0  0  0  0  0  0  0  0  0
   41.9857   33.3439   40.4057 H   0  0  0  0  0  0  0  0  0  0  0  0
   39.4323   33.6590   41.8024 H   0  0  0  0  0  0  0  0  0  0  0  0
   39.9660   34.7763   42.7282 H   0  0  0  0  0  0  0  0  0  0  0  0
   40.4956   36.1459   39.9991 H   0  0  0  0  0  0  0  0  0  0  0  0
   38.1427   33.3551   40.3231 H   0  0  0  0  0  0  0  0  0  0  0  0
   37.2271   32.8486   37.8256 H   0  0  0  0  0  0  0  0  0  0  0  0
   38.8464   34.1886   36.1341 H   0  0  0  0  0  0  0  0  0  0  0  0
  1  6  2  0
  2  1  1  0
  3  2  2  0
  3  4  1  0
  4  5  2  0
  5  6  1  0
  7  3  1  0
  8  7  1  0
  9  8  2  0
 10 12  1  0
 10  9  1  0
 11 10  2  0
 12 13  1  0
 13 14  2  0
 13  7  1  0
 15  2  1  0
 16 15  1  0
 17 18  1  0
 17 16  2  0
 18 19  2  0
 19 15  1  0
 20 18  1  0
 20 21  1  0
 22 20  1  0
 22 21  1  0
 23 24  2  0
 23 22  1  0
 25 24  1  0
 26 27  1  0
 26 25  2  0
 27 23  1  0
  1 28  1  0
  5 29  1  0
  8 30  1  0
  9 31  1  0
 12 32  1  0
 16 33  1  0
 20 34  1  6
 21 35  1  0
 21 36  1  0
 22 37  1  1
 24 38  1  0
 25 39  1  0
 26 40  1  0
M  ISO  8  28  14  29  14  30  14  31  14  32   9  33  14  34  13  35  13
M  ISO  5  36  13  37  13  38  14  39  14  40  14
M  END
>  <minimizedAffinity>  (1) 
-5.98591375

>  <minimizedRMSD>  (1) 
1.19561851

$$$$
