
     RDKit          3D

 46 50  0  0  1  0  0  0  0  0999 V2000
   45.2100   33.7380   45.0120 C   0  0  0  0  0  0  0  0  0  0  0  0
   45.5870   33.8760   43.6610 C   0  0  0  0  0  0  0  0  0  0  0  0
   46.8210   33.4360   43.2760 C   0  0  0  0  0  0  0  0  0  0  0  0
   47.6410   32.8820   44.1920 N   0  0  0  0  0  0  0  0  0  0  0  0
   47.2690   32.7540   45.4900 C   0  0  0  0  0  0  0  0  0  0  0  0
   46.0470   33.1880   45.8820 N   0  0  0  0  0  0  0  0  0  0  0  0
   47.1810   33.5870   41.9030 N   0  0  0  0  0  0  0  0  0  0  0  0
   47.9030   34.7390   41.6780 C   0  0  0  0  0  0  0  0  0  0  0  0
   48.3150   35.0050   40.3810 C   0  0  0  0  0  0  0  0  0  0  0  0
   48.0260   34.1630   39.3450 C   0  0  0  0  0  0  0  0  0  0  0  0
   48.4110   34.4190   38.1630 O   0  0  0  0  0  0  0  0  0  0  0  0
   47.3090   33.0380   39.6260 N   0  0  0  0  0  0  0  0  0  0  0  0
   46.9010   32.7650   40.8770 C   0  0  0  0  0  0  0  0  0  0  0  0
   46.2430   31.7530   41.1960 O   0  0  0  0  0  0  0  0  0  0  0  0
   44.6330   34.4760   42.7950 N   0  0  0  0  0  0  0  0  0  0  0  0
   44.4980   35.7980   42.4080 C   0  0  0  0  0  0  0  0  0  0  0  0
   43.4470   35.9060   41.5750 N   0  0  0  0  0  0  0  0  0  0  0  0
   42.9280   34.6490   41.4440 C   0  0  0  0  0  0  0  0  0  0  0  0
   43.6570   33.8230   42.1830 N   0  0  0  0  0  0  0  0  0  0  0  0
   41.7540   34.2280   40.6410 C   0  0  1  0  0  0  0  0  0  0  0  0
   40.6130   33.5740   41.4370 C   0  0  0  0  0  0  0  0  0  0  0  0
   40.4740   34.9180   40.7260 C   0  0  2  0  0  0  0  0  0  0  0  0
   39.4470   34.9260   39.6620 C   0  0  0  0  0  0  0  0  0  0  0  0
   38.4690   33.7780   39.7840 C   0  0  0  0  0  0  0  0  0  0  0  0
   38.0050   33.5430   38.3700 C   0  0  0  0  0  0  0  0  0  0  0  0
   38.9710   34.2330   37.4440 C   0  0  0  0  0  0  0  0  0  0  0  0
   40.1230   34.6290   38.3410 C   0  0  0  0  0  0  0  0  0  0  0  0
   44.2213   34.0865   45.3452 H   0  0  0  0  0  0  0  0  0  0  0  0
   47.9555   32.3005   46.2201 H   0  0  0  0  0  0  0  0  0  0  0  0
   48.1450   35.4264   42.5020 H   0  0  0  0  0  0  0  0  0  0  0  0
   48.8911   35.9204   40.1806 H   0  0  0  0  0  0  0  0  0  0  0  0
   47.0755   32.3847   38.8647 H   0  0  0  0  0  0  0  0  0  0  0  0
   45.1457   36.6269   42.7297 H   0  0  0  0  0  0  0  0  0  0  0  0
   42.3917   33.9727   39.7819 H   0  0  0  0  0  0  0  0  0  0  0  0
   40.1013   32.6810   41.0488 H   0  0  0  0  0  0  0  0  0  0  0  0
   40.4706   33.1959   42.4601 H   0  0  0  0  0  0  0  0  0  0  0  0
   40.2594   35.9691   40.9693 H   0  0  0  0  0  0  0  0  0  0  0  0
   38.9444   35.9016   39.7359 H   0  0  0  0  0  0  0  0  0  0  0  0
   38.9652   32.8827   40.1866 H   0  0  0  0  0  0  0  0  0  0  0  0
   37.6389   34.0000   40.4707 H   0  0  0  0  0  0  0  0  0  0  0  0
   37.9890   32.4640   38.1566 H   0  0  0  0  0  0  0  0  0  0  0  0
   36.9893   33.9412   38.2294 H   0  0  0  0  0  0  0  0  0  0  0  0
   38.5083   35.1206   36.9878 H   0  0  0  0  0  0  0  0  0  0  0  0
   39.2875   33.5906   36.6091 H   0  0  0  0  0  0  0  0  0  0  0  0
   40.8443   33.8049   38.4436 H   0  0  0  0  0  0  0  0  0  0  0  0
   40.7003   35.4803   37.9510 H   0  0  0  0  0  0  0  0  0  0  0  0
  1  6  2  0
  2  1  1  0
  3  2  2  0
  3  4  1  0
  4  5  2  0
  5  6  1  0
  7  3  1  0
  8  7  1  0
  9  8  2  0
 10 12  1  0
 10  9  1  0
 11 10  2  0
 12 13  1  0
 13 14  2  0
 13  7  1  0
 15  2  1  0
 16 15  1  0
 17 16  2  0
 18 17  1  0
 18 19  2  0
 19 15  1  0
 20 22  1  0
 20 21  1  0
 20 18  1  0
 22 21  1  0
 23 24  1  0
 23 22  1  0
 25 24  1  0
 26 27  1  0
 26 25  1  0
 27 23  1  0
  1 28  1  0
  5 29  1  0
  8 30  1  0
  9 31  1  0
 12 32  1  0
 16 33  1  0
 20 34  1  6
 21 35  1  0
 21 36  1  0
 22 37  1  1
 23 38  1  0
 24 39  1  0
 24 40  1  0
 25 41  1  0
 25 42  1  0
 26 43  1  0
 26 44  1  0
 27 45  1  0
 27 46  1  0
M  ISO  8  28  14  29  14  30  14  31  14  32   9  33  14  34  13  35  13
M  ISO  8  36  13  37  13  38  13  39  13  40  13  41  13  42  13  43  13
M  ISO  3  44  13  45  13  46  13
M  END
>  <minimizedAffinity>  (1) 
-6.59889412

>  <minimizedRMSD>  (1) 
0.910977185

$$$$
