
     RDKit          3D

 46 50  0  0  1  0  0  0  0  0999 V2000
   45.7140   32.5810   45.7410 C   0  0  0  0  0  0  0  0  0  0  0  0
   46.0340   33.0970   44.4700 C   0  0  0  0  0  0  0  0  0  0  0  0
   47.0850   32.5530   43.7850 C   0  0  0  0  0  0  0  0  0  0  0  0
   47.7880   31.5390   44.3450 N   0  0  0  0  0  0  0  0  0  0  0  0
   47.4630   31.0540   45.5750 C   0  0  0  0  0  0  0  0  0  0  0  0
   46.4330   31.5860   46.2470 N   0  0  0  0  0  0  0  0  0  0  0  0
   47.3920   33.0890   42.5010 N   0  0  0  0  0  0  0  0  0  0  0  0
   48.1260   34.2370   42.5740 C   0  0  0  0  0  0  0  0  0  0  0  0
   48.4870   34.8540   41.3840 C   0  0  0  0  0  0  0  0  0  0  0  0
   48.1350   34.3520   40.1690 C   0  0  0  0  0  0  0  0  0  0  0  0
   48.4720   34.9250   39.0920 O   0  0  0  0  0  0  0  0  0  0  0  0
   47.4020   33.2020   40.1530 N   0  0  0  0  0  0  0  0  0  0  0  0
   47.0430   32.5920   41.2940 C   0  0  0  0  0  0  0  0  0  0  0  0
   46.3690   31.5320   41.3370 O   0  0  0  0  0  0  0  0  0  0  0  0
   45.2220   34.1580   43.9940 N   0  0  0  0  0  0  0  0  0  0  0  0
   44.9550   35.3940   44.5670 C   0  0  0  0  0  0  0  0  0  0  0  0
   44.1280   36.0850   43.7610 N   0  0  0  0  0  0  0  0  0  0  0  0
   43.8860   35.2750   42.6900 C   0  0  0  0  0  0  0  0  0  0  0  0
   44.5450   34.1380   42.8540 N   0  0  0  0  0  0  0  0  0  0  0  0
   43.0250   35.5730   41.5160 C   0  0  1  0  0  0  0  0  0  0  0  0
   43.3250   34.7610   40.2480 C   0  0  0  0  0  0  0  0  0  0  0  0
   42.0190   34.6480   41.0180 C   0  0  2  0  0  0  0  0  0  0  0  0
   40.7690   35.0010   40.4500 N   0  0  0  0  0  0  0  0  0  0  0  0
   39.7670   34.0060   40.6350 C   0  0  0  0  0  0  0  0  0  0  0  0
   39.5610   33.1030   39.4510 C   0  0  0  0  0  0  0  0  0  0  0  0
   40.3540   33.4380   38.3630 O   0  0  0  0  0  0  0  0  0  0  0  0
   40.3140   34.7810   38.0420 C   0  0  0  0  0  0  0  0  0  0  0  0
   40.7670   35.6520   39.2030 C   0  0  0  0  0  0  0  0  0  0  0  0
   44.8723   33.0004   46.3117 H   0  0  0  0  0  0  0  0  0  0  0  0
   48.0431   30.2294   46.0149 H   0  0  0  0  0  0  0  0  0  0  0  0
   48.4223   34.6602   43.5451 H   0  0  0  0  0  0  0  0  0  0  0  0
   49.0781   35.7808   41.4245 H   0  0  0  0  0  0  0  0  0  0  0  0
   47.1190   32.7945   39.2503 H   0  0  0  0  0  0  0  0  0  0  0  0
   45.3556   35.7516   45.5270 H   0  0  0  0  0  0  0  0  0  0  0  0
   42.9606   36.6312   41.8092 H   0  0  0  0  0  0  0  0  0  0  0  0
   44.0589   33.9419   40.2699 H   0  0  0  0  0  0  0  0  0  0  0  0
   43.6216   34.9831   39.2123 H   0  0  0  0  0  0  0  0  0  0  0  0
   41.4524   33.8355   41.4964 H   0  0  0  0  0  0  0  0  0  0  0  0
   40.0546   33.3843   41.4957 H   0  0  0  0  0  0  0  0  0  0  0  0
   38.8185   34.5412   40.7898 H   0  0  0  0  0  0  0  0  0  0  0  0
   39.7984   32.0720   39.7523 H   0  0  0  0  0  0  0  0  0  0  0  0
   38.5125   33.2108   39.1365 H   0  0  0  0  0  0  0  0  0  0  0  0
   40.9756   34.9615   37.1819 H   0  0  0  0  0  0  0  0  0  0  0  0
   39.2734   35.0447   37.8020 H   0  0  0  0  0  0  0  0  0  0  0  0
   41.7896   35.9993   38.9943 H   0  0  0  0  0  0  0  0  0  0  0  0
   40.0423   36.4760   39.2795 H   0  0  0  0  0  0  0  0  0  0  0  0
  1  6  2  0
  2  1  1  0
  3  4  1  0
  3  2  2  0
  4  5  2  0
  5  6  1  0
  7  8  1  0
  7  3  1  0
  9  8  2  0
 10  9  1  0
 11 10  2  0
 12 10  1  0
 12 13  1  0
 13 14  2  0
 13  7  1  0
 15  2  1  0
 15 16  1  0
 17 16  2  0
 18 19  2  0
 18 17  1  0
 19 15  1  0
 20 18  1  0
 21 22  1  0
 21 20  1  0
 22 20  1  0
 23 24  1  0
 23 22  1  0
 25 24  1  0
 26 25  1  0
 27 26  1  0
 27 28  1  0
 28 23  1  0
  1 29  1  0
  5 30  1  0
  8 31  1  0
  9 32  1  0
 12 33  1  0
 16 34  1  0
 20 35  1  6
 21 36  1  0
 21 37  1  0
 22 38  1  1
 24 39  1  0
 24 40  1  0
 25 41  1  0
 25 42  1  0
 27 43  1  0
 27 44  1  0
 28 45  1  0
 28 46  1  0
M  ISO  8  29  14  30  14  31  14  32  14  33   9  34  14  35  13  36  13
M  ISO  8  37  13  38  13  39  13  40  13  41  13  42  13  43  13  44  13
M  ISO  2  45  13  46  13
M  END
>  <minimizedAffinity>  (1) 
-5.95553541

>  <minimizedRMSD>  (1) 
2.18028259

$$$$
