
     RDKit          3D

 40 44  0  0  1  0  0  0  0  0999 V2000
   44.7630   34.2150   42.5880 N   0  0  0  0  0  0  0  0  0  0  0  0
   44.7200   35.5240   42.1320 C   0  0  0  0  0  0  0  0  0  0  0  0
   43.5680   35.7200   41.4620 N   0  0  0  0  0  0  0  0  0  0  0  0
   42.9010   34.5300   41.5060 C   0  0  0  0  0  0  0  0  0  0  0  0
   43.6310   33.6550   42.1800 N   0  0  0  0  0  0  0  0  0  0  0  0
   45.4710   33.2920   44.6910 C   0  0  0  0  0  0  0  0  0  0  0  0
   45.7660   33.5440   43.3370 C   0  0  0  0  0  0  0  0  0  0  0  0
   46.9730   33.1390   42.8350 C   0  0  0  0  0  0  0  0  0  0  0  0
   47.8490   32.5090   43.6520 N   0  0  0  0  0  0  0  0  0  0  0  0
   47.5580   32.2710   44.9460 C   0  0  0  0  0  0  0  0  0  0  0  0
   46.3760   32.6670   45.4440 N   0  0  0  0  0  0  0  0  0  0  0  0
   47.2460   33.4070   41.4610 N   0  0  0  0  0  0  0  0  0  0  0  0
   48.0190   34.5150   41.2870 C   0  0  0  0  0  0  0  0  0  0  0  0
   48.3580   34.8860   39.9900 C   0  0  0  0  0  0  0  0  0  0  0  0
   47.9390   34.1760   38.9030 C   0  0  0  0  0  0  0  0  0  0  0  0
   48.2490   34.5170   37.7300 O   0  0  0  0  0  0  0  0  0  0  0  0
   47.1650   33.0730   39.1340 N   0  0  0  0  0  0  0  0  0  0  0  0
   46.8290   32.7030   40.3880 C   0  0  0  0  0  0  0  0  0  0  0  0
   46.1230   31.7020   40.6510 O   0  0  0  0  0  0  0  0  0  0  0  0
   41.5690   34.2190   40.9180 C   0  0  1  0  0  0  0  0  0  0  0  0
   40.3630   34.7780   41.6900 C   0  0  0  0  0  0  0  0  0  0  0  0
   40.7260   35.1980   40.2630 C   0  0  2  0  0  0  0  0  0  0  0  0
   39.8630   34.6650   39.2020 N   0  0  0  0  0  0  0  0  0  0  0  0
   40.0010   34.7370   37.8880 N   0  0  0  0  0  0  0  0  0  0  0  0
   38.9510   34.0950   37.2980 C   0  0  0  0  0  0  0  0  0  0  0  0
   38.1400   33.6140   38.2920 C   0  0  0  0  0  0  0  0  0  0  0  0
   38.7360   33.9870   39.4800 C   0  0  0  0  0  0  0  0  0  0  0  0
   45.5017   36.2812   42.2919 H   0  0  0  0  0  0  0  0  0  0  0  0
   44.5083   33.6062   45.1205 H   0  0  0  0  0  0  0  0  0  0  0  0
   48.2849   31.7551   45.5906 H   0  0  0  0  0  0  0  0  0  0  0  0
   48.3664   35.1015   42.1503 H   0  0  0  0  0  0  0  0  0  0  0  0
   48.9825   35.7784   39.8362 H   0  0  0  0  0  0  0  0  0  0  0  0
   46.8318   32.5136   38.3359 H   0  0  0  0  0  0  0  0  0  0  0  0
   41.9380   33.2429   40.5701 H   0  0  0  0  0  0  0  0  0  0  0  0
   39.4806   34.1497   41.8813 H   0  0  0  0  0  0  0  0  0  0  0  0
   40.1953   35.2827   42.6529 H   0  0  0  0  0  0  0  0  0  0  0  0
   40.9054   36.1673   39.7749 H   0  0  0  0  0  0  0  0  0  0  0  0
   38.7853   33.9835   36.2163 H   0  0  0  0  0  0  0  0  0  0  0  0
   37.2056   33.0469   38.1687 H   0  0  0  0  0  0  0  0  0  0  0  0
   38.3524   33.7661   40.4870 H   0  0  0  0  0  0  0  0  0  0  0  0
  1  7  1  0
  2  1  1  0
  3  4  1  0
  3  2  2  0
  4  5  2  0
  5  1  1  0
  6 11  2  0
  7  6  1  0
  8  7  2  0
  8  9  1  0
  9 10  2  0
 10 11  1  0
 12  8  1  0
 13 12  1  0
 14 13  2  0
 15 17  1  0
 15 14  1  0
 16 15  2  0
 17 18  1  0
 18 19  2  0
 18 12  1  0
 20  4  1  0
 20 21  1  0
 22 20  1  0
 22 21  1  0
 23 27  1  0
 23 22  1  0
 24 23  1  0
 25 24  2  0
 25 26  1  0
 26 27  2  0
  2 28  1  0
  6 29  1  0
 10 30  1  0
 13 31  1  0
 14 32  1  0
 17 33  1  0
 20 34  1  6
 21 35  1  0
 21 36  1  0
 22 37  1  1
 25 38  1  0
 26 39  1  0
 27 40  1  0
M  ISO  8  28  14  29  14  30  14  31  14  32  14  33   9  34  13  35  13
M  ISO  5  36  13  37  13  38  14  39  14  40  14
M  END
>  <minimizedAffinity>  (1) 
-5.783566

>  <minimizedRMSD>  (1) 
1.22220266

$$$$
