
     RDKit          3D

 36 39  0  0  1  0  0  0  0  0999 V2000
   45.0720   33.8800   44.8770 C   0  0  0  0  0  0  0  0  0  0  0  0
   45.4950   33.9800   43.5310 C   0  0  0  0  0  0  0  0  0  0  0  0
   46.7460   33.5390   43.1960 C   0  0  0  0  0  0  0  0  0  0  0  0
   47.5400   33.0200   44.1630 N   0  0  0  0  0  0  0  0  0  0  0  0
   47.1300   32.9290   45.4460 C   0  0  0  0  0  0  0  0  0  0  0  0
   45.8880   33.3650   45.7870 N   0  0  0  0  0  0  0  0  0  0  0  0
   47.1440   33.6500   41.8390 N   0  0  0  0  0  0  0  0  0  0  0  0
   47.8390   34.7970   41.5850 C   0  0  0  0  0  0  0  0  0  0  0  0
   48.2900   35.0300   40.2910 C   0  0  0  0  0  0  0  0  0  0  0  0
   48.0540   34.1410   39.2780 C   0  0  0  0  0  0  0  0  0  0  0  0
   48.4670   34.3590   38.1030 O   0  0  0  0  0  0  0  0  0  0  0  0
   47.3540   33.0080   39.5850 N   0  0  0  0  0  0  0  0  0  0  0  0
   46.9140   32.7740   40.8350 C   0  0  0  0  0  0  0  0  0  0  0  0
   46.2690   31.7530   41.1680 O   0  0  0  0  0  0  0  0  0  0  0  0
   44.5610   34.5440   42.6160 N   0  0  0  0  0  0  0  0  0  0  0  0
   44.3970   35.8510   42.2130 C   0  0  0  0  0  0  0  0  0  0  0  0
   43.3830   35.9190   41.3310 N   0  0  0  0  0  0  0  0  0  0  0  0
   42.9230   34.6420   41.1910 C   0  0  0  0  0  0  0  0  0  0  0  0
   43.6390   33.8410   41.9660 N   0  0  0  0  0  0  0  0  0  0  0  0
   41.7940   34.1820   40.3250 C   0  0  1  0  0  0  0  0  0  0  0  0
   40.5110   33.7950   41.0700 C   0  0  0  0  0  0  0  0  0  0  0  0
   40.6000   34.9840   40.1160 C   0  0  1  0  0  0  0  0  0  0  0  0
   40.4490   36.3170   40.8590 C   0  0  0  0  0  0  0  0  0  0  0  0
   44.0699   34.2281   45.1680 H   0  0  0  0  0  0  0  0  0  0  0  0
   47.7968   32.5046   46.2111 H   0  0  0  0  0  0  0  0  0  0  0  0
   48.0381   35.5221   42.3879 H   0  0  0  0  0  0  0  0  0  0  0  0
   48.8504   35.9518   40.0761 H   0  0  0  0  0  0  0  0  0  0  0  0
   47.1593   32.3191   38.8444 H   0  0  0  0  0  0  0  0  0  0  0  0
   44.9997   36.7042   42.5577 H   0  0  0  0  0  0  0  0  0  0  0  0
   42.4909   33.7137   39.6143 H   0  0  0  0  0  0  0  0  0  0  0  0
   39.9510   32.8917   40.7865 H   0  0  0  0  0  0  0  0  0  0  0  0
   40.2156   33.6344   42.1174 H   0  0  0  0  0  0  0  0  0  0  0  0
   40.1098   35.3241   39.1919 H   0  0  0  0  0  0  0  0  0  0  0  0
   40.4695   36.1364   41.9439 H   0  0  0  0  0  0  0  0  0  0  0  0
   41.2771   36.9865   40.5830 H   0  0  0  0  0  0  0  0  0  0  0  0
   39.4922   36.7843   40.5830 H   0  0  0  0  0  0  0  0  0  0  0  0
  1  6  2  0
  2  1  1  0
  3  2  2  0
  3  4  1  0
  4  5  2  0
  5  6  1  0
  7  3  1  0
  8  7  1  0
  9  8  2  0
 10 12  1  0
 10  9  1  0
 11 10  2  0
 12 13  1  0
 13 14  2  0
 13  7  1  0
 15  2  1  0
 16 15  1  0
 17 16  2  0
 18 17  1  0
 18 19  2  0
 19 15  1  0
 20 21  1  0
 20 18  1  0
 22 20  1  0
 22 23  1  0
 22 21  1  0
  1 24  1  0
  5 25  1  0
  8 26  1  0
  9 27  1  0
 12 28  1  0
 16 29  1  0
 20 30  1  6
 21 31  1  0
 21 32  1  0
 22 33  1  6
 23 34  1  0
 23 35  1  0
 23 36  1  0
M  ISO  8  24  14  25  14  26  14  27  14  28   9  29  14  30  13  31  13
M  ISO  5  32  13  33  13  34   8  35   8  36   8
M  END
>  <minimizedAffinity>  (1) 
-5.30978727

>  <minimizedRMSD>  (1) 
0.734136641

$$$$
