
     RDKit          3D

 40 44  0  0  1  0  0  0  0  0999 V2000
   44.7060   34.2490   41.8650 N   0  0  0  0  0  0  0  0  0  0  0  0
   44.1230   35.5070   41.9540 C   0  0  0  0  0  0  0  0  0  0  0  0
   43.3320   35.7030   40.8830 N   0  0  0  0  0  0  0  0  0  0  0  0
   43.4250   34.5680   40.1350 C   0  0  0  0  0  0  0  0  0  0  0  0
   44.2470   33.7240   40.7410 N   0  0  0  0  0  0  0  0  0  0  0  0
   45.1450   33.3990   44.0710 C   0  0  0  0  0  0  0  0  0  0  0  0
   45.6060   33.6010   42.7520 C   0  0  0  0  0  0  0  0  0  0  0  0
   46.8590   33.1710   42.4150 C   0  0  0  0  0  0  0  0  0  0  0  0
   47.6310   32.5650   43.3430 N   0  0  0  0  0  0  0  0  0  0  0  0
   47.1750   32.3770   44.6120 C   0  0  0  0  0  0  0  0  0  0  0  0
   45.9390   32.7980   44.9510 N   0  0  0  0  0  0  0  0  0  0  0  0
   47.2950   33.3890   41.0810 N   0  0  0  0  0  0  0  0  0  0  0  0
   47.8610   34.6310   40.9070 C   0  0  0  0  0  0  0  0  0  0  0  0
   48.3300   34.9740   39.6490 C   0  0  0  0  0  0  0  0  0  0  0  0
   48.2450   34.1130   38.5880 C   0  0  0  0  0  0  0  0  0  0  0  0
   48.6780   34.4370   37.4430 O   0  0  0  0  0  0  0  0  0  0  0  0
   47.6740   32.8910   38.8160 N   0  0  0  0  0  0  0  0  0  0  0  0
   47.2160   32.5480   40.0320 C   0  0  0  0  0  0  0  0  0  0  0  0
   46.6880   31.4470   40.2900 O   0  0  0  0  0  0  0  0  0  0  0  0
   42.7340   34.2830   38.8560 C   0  0  1  0  0  0  0  0  0  0  0  0
   42.6550   32.8060   38.4480 C   0  0  0  0  0  0  0  0  0  0  0  0
   41.4270   33.6630   38.7550 C   0  0  1  0  0  0  0  0  0  0  0  0
   40.6770   33.2170   39.9600 C   0  0  0  0  0  0  0  0  0  0  0  0
   39.6660   33.8920   40.6050 C   0  0  0  0  0  0  0  0  0  0  0  0
   39.3020   33.0770   41.6500 C   0  0  0  0  0  0  0  0  0  0  0  0
   40.0780   31.9610   41.6140 N   0  0  0  0  0  0  0  0  0  0  0  0
   40.9030   32.0660   40.5850 N   0  0  0  0  0  0  0  0  0  0  0  0
   44.2825   36.2277   42.7696 H   0  0  0  0  0  0  0  0  0  0  0  0
   44.1403   33.7352   44.3669 H   0  0  0  0  0  0  0  0  0  0  0  0
   47.8131   31.8828   45.3594 H   0  0  0  0  0  0  0  0  0  0  0  0
   47.9394   35.3359   41.7478 H   0  0  0  0  0  0  0  0  0  0  0  0
   48.7829   35.9651   39.4988 H   0  0  0  0  0  0  0  0  0  0  0  0
   47.5934   32.2195   38.0392 H   0  0  0  0  0  0  0  0  0  0  0  0
   43.1171   35.2266   38.4402 H   0  0  0  0  0  0  0  0  0  0  0  0
   42.9737   32.0157   39.1436 H   0  0  0  0  0  0  0  0  0  0  0  0
   43.0084   32.1906   37.6075 H   0  0  0  0  0  0  0  0  0  0  0  0
   40.5134   33.9924   38.2385 H   0  0  0  0  0  0  0  0  0  0  0  0
   39.2412   34.8718   40.3413 H   0  0  0  0  0  0  0  0  0  0  0  0
   38.5165   33.2911   42.3897 H   0  0  0  0  0  0  0  0  0  0  0  0
   40.0316   31.1710   42.2733 H   0  0  0  0  0  0  0  0  0  0  0  0
  1  2  1  0
  1  7  1  0
  3  2  2  0
  4  5  2  0
  4  3  1  0
  5  1  1  0
  6 11  2  0
  7  6  1  0
  8  7  2  0
  8  9  1  0
  9 10  2  0
 10 11  1  0
 12  8  1  0
 13 12  1  0
 14 13  2  0
 15 17  1  0
 15 14  1  0
 16 15  2  0
 17 18  1  0
 18 19  2  0
 18 12  1  0
 20  4  1  0
 21 22  1  0
 21 20  1  0
 22 20  1  0
 22 23  1  0
 23 27  2  0
 23 24  1  0
 24 25  2  0
 26 25  1  0
 27 26  1  0
  2 28  1  0
  6 29  1  0
 10 30  1  0
 13 31  1  0
 14 32  1  0
 17 33  1  0
 20 34  1  6
 21 35  1  0
 21 36  1  0
 22 37  1  6
 24 38  1  0
 25 39  1  0
 26 40  1  0
M  ISO  8  28  14  29  14  30  14  31  14  32  14  33   9  34  13  35  13
M  ISO  5  36  13  37  13  38  14  39  14  40   9
M  END
>  <minimizedAffinity>  (1) 
-5.38807249

>  <minimizedRMSD>  (1) 
2.75940609

$$$$
