
     RDKit          3D

 38 42  0  0  1  0  0  0  0  0999 V2000
   41.6680   30.1160   42.7300 C   0  0  0  0  0  0  0  0  0  0  0  0
   41.1270   30.8790   41.6710 C   0  0  0  0  0  0  0  0  0  0  0  0
   39.7980   30.7550   41.3770 C   0  0  0  0  0  0  0  0  0  0  0  0
   39.0360   29.9090   42.1030 N   0  0  0  0  0  0  0  0  0  0  0  0
   39.5650   29.1800   43.1180 C   0  0  0  0  0  0  0  0  0  0  0  0
   40.8700   29.2970   43.4120 N   0  0  0  0  0  0  0  0  0  0  0  0
   39.2830   31.5350   40.3060 N   0  0  0  0  0  0  0  0  0  0  0  0
   39.1690   30.8210   39.1470 C   0  0  0  0  0  0  0  0  0  0  0  0
   38.6750   31.4710   38.0210 C   0  0  0  0  0  0  0  0  0  0  0  0
   38.3090   32.7820   38.0430 C   0  0  0  0  0  0  0  0  0  0  0  0
   37.8620   33.3630   37.0130 O   0  0  0  0  0  0  0  0  0  0  0  0
   38.4440   33.4500   39.2290 N   0  0  0  0  0  0  0  0  0  0  0  0
   38.9190   32.8360   40.3270 C   0  0  0  0  0  0  0  0  0  0  0  0
   39.0600   33.4020   41.4330 O   0  0  0  0  0  0  0  0  0  0  0  0
   42.0350   31.7310   40.9840 N   0  0  0  0  0  0  0  0  0  0  0  0
   42.7040   31.5290   39.7860 C   0  0  0  0  0  0  0  0  0  0  0  0
   43.4660   32.6070   39.5200 N   0  0  0  0  0  0  0  0  0  0  0  0
   43.2650   33.4720   40.5540 C   0  0  0  0  0  0  0  0  0  0  0  0
   42.4110   32.9280   41.4100 N   0  0  0  0  0  0  0  0  0  0  0  0
   43.8850   34.8040   40.7350 C   0  0  1  0  0  0  0  0  0  0  0  0
   43.5260   35.5460   42.0280 C   0  0  0  0  0  0  0  0  0  0  0  0
   44.9440   35.0760   41.6930 C   0  0  1  0  0  0  0  0  0  0  0  0
   45.4320   34.0280   42.6260 C   0  0  0  0  0  0  0  0  0  0  0  0
   46.4820   33.2520   42.3120 N   0  0  0  0  0  0  0  0  0  0  0  0
   46.7380   32.4040   43.2690 O   0  0  0  0  0  0  0  0  0  0  0  0
   45.8390   32.6440   44.2040 C   0  0  0  0  0  0  0  0  0  0  0  0
   45.0030   33.6550   43.8380 N   0  0  0  0  0  0  0  0  0  0  0  0
   42.7343   30.1975   42.9876 H   0  0  0  0  0  0  0  0  0  0  0  0
   38.9275   28.4961   43.6975 H   0  0  0  0  0  0  0  0  0  0  0  0
   39.4599   29.7610   39.1054 H   0  0  0  0  0  0  0  0  0  0  0  0
   38.5768   30.9071   37.0816 H   0  0  0  0  0  0  0  0  0  0  0  0
   38.1765   34.4432   39.2821 H   0  0  0  0  0  0  0  0  0  0  0  0
   42.6248   30.6319   39.1543 H   0  0  0  0  0  0  0  0  0  0  0  0
   43.8257   34.9837   39.6514 H   0  0  0  0  0  0  0  0  0  0  0  0
   43.2720   36.6160   42.0064 H   0  0  0  0  0  0  0  0  0  0  0  0
   42.8149   35.4068   42.8556 H   0  0  0  0  0  0  0  0  0  0  0  0
   45.9419   35.5166   41.5517 H   0  0  0  0  0  0  0  0  0  0  0  0
   45.7730   32.0979   45.1566 H   0  0  0  0  0  0  0  0  0  0  0  0
  1  6  2  0
  2  1  1  0
  3  2  2  0
  3  4  1  0
  4  5  2  0
  5  6  1  0
  7 13  1  0
  7  3  1  0
  8  7  1  0
  9 10  1  0
  9  8  2  0
 10 12  1  0
 11 10  2  0
 12 13  1  0
 13 14  2  0
 15 19  1  0
 15  2  1  0
 16 15  1  0
 17 16  2  0
 17 18  1  0
 18 20  1  0
 18 19  2  0
 20 22  1  0
 20 21  1  0
 22 21  1  0
 22 23  1  0
 23 27  1  0
 24 23  2  0
 24 25  1  0
 25 26  1  0
 27 26  2  0
  1 28  1  0
  5 29  1  0
  8 30  1  0
  9 31  1  0
 12 32  1  0
 16 33  1  0
 20 34  1  6
 21 35  1  0
 21 36  1  0
 22 37  1  6
 26 38  1  0
M  ISO  8  28  14  29  14  30  14  31  14  32   9  33  14  34  13  35  13
M  ISO  3  36  13  37  13  38  14
M  END
>  <minimizedAffinity>  (1) 
-5.1524291

>  <minimizedRMSD>  (1) 
7.21162844

$$$$
