
     RDKit          3D

 39 43  0  0  0  0  0  0  0  0999 V2000
   44.4460   35.9840   44.8640 C   0  0  0  0  0  0  0  0  0  0  0  0
   45.1090   35.9420   43.6180 C   0  0  0  0  0  0  0  0  0  0  0  0
   45.9900   34.8990   43.3510 C   0  0  0  0  0  0  0  0  0  0  0  0
   46.1560   33.9830   44.3060 N   0  0  0  0  0  0  0  0  0  0  0  0
   45.5420   34.0020   45.4850 C   0  0  0  0  0  0  0  0  0  0  0  0
   44.6800   35.0000   45.7790 N   0  0  0  0  0  0  0  0  0  0  0  0
   46.7250   34.7520   42.1100 C   0  0  0  0  0  0  0  0  0  0  0  0
   47.9510   35.2910   41.8860 C   0  0  0  0  0  0  0  0  0  0  0  0
   48.6620   35.1610   40.7120 C   0  0  0  0  0  0  0  0  0  0  0  0
   48.0920   34.4410   39.7140 N   0  0  0  0  0  0  0  0  0  0  0  0
   46.8880   33.9010   39.9090 C   0  0  0  0  0  0  0  0  0  0  0  0
   46.2090   34.0390   41.0610 N   0  0  0  0  0  0  0  0  0  0  0  0
   46.3490   33.1580   38.8340 N   0  0  0  0  0  0  0  0  0  0  0  0
   45.4050   32.2230   38.7260 N   0  0  0  0  0  0  0  0  0  0  0  0
   45.2840   31.8310   37.4460 C   0  0  0  0  0  0  0  0  0  0  0  0
   46.2170   32.5720   36.7010 C   0  0  0  0  0  0  0  0  0  0  0  0
   46.8540   33.3820   37.6060 C   0  0  0  0  0  0  0  0  0  0  0  0
   45.7900   32.9480   46.4730 C   0  0  0  0  0  0  0  0  0  0  0  0
   45.2800   32.9430   47.7560 C   0  0  0  0  0  0  0  0  0  0  0  0
   45.7490   31.7960   48.3320 N   0  0  0  0  0  0  0  0  0  0  0  0
   46.5200   31.1030   47.4620 C   0  0  0  0  0  0  0  0  0  0  0  0
   47.1920   29.9000   47.6140 C   0  0  0  0  0  0  0  0  0  0  0  0
   47.9250   29.4070   46.5360 C   0  0  0  0  0  0  0  0  0  0  0  0
   47.9660   30.1160   45.3510 C   0  0  0  0  0  0  0  0  0  0  0  0
   47.2860   31.3070   45.2350 C   0  0  0  0  0  0  0  0  0  0  0  0
   46.5570   31.8160   46.2800 C   0  0  0  0  0  0  0  0  0  0  0  0
   43.7478   36.8022   45.0944 H   0  0  0  0  0  0  0  0  0  0  0  0
   44.9308   36.7254   42.8667 H   0  0  0  0  0  0  0  0  0  0  0  0
   48.4096   35.8728   42.6992 H   0  0  0  0  0  0  0  0  0  0  0  0
   49.6527   35.6231   40.5896 H   0  0  0  0  0  0  0  0  0  0  0  0
   44.5874   31.0743   37.0560 H   0  0  0  0  0  0  0  0  0  0  0  0
   46.3986   32.5144   35.6176 H   0  0  0  0  0  0  0  0  0  0  0  0
   47.6514   34.1010   37.3666 H   0  0  0  0  0  0  0  0  0  0  0  0
   44.6322   33.7028   48.2176 H   0  0  0  0  0  0  0  0  0  0  0  0
   45.5437   31.4993   49.2967 H   0  0  0  0  0  0  0  0  0  0  0  0
   47.1477   29.3471   48.5639 H   0  0  0  0  0  0  0  0  0  0  0  0
   48.4695   28.4557   46.6285 H   0  0  0  0  0  0  0  0  0  0  0  0
   48.5431   29.7280   44.4987 H   0  0  0  0  0  0  0  0  0  0  0  0
   47.3278   31.8616   44.2860 H   0  0  0  0  0  0  0  0  0  0  0  0
  1  6  2  0
  2  1  1  0
  3  2  2  0
  3  4  1  0
  4  5  2  0
  5  6  1  0
  5 18  1  0
  7  3  1  0
  8  7  2  0
  9  8  1  0
 10 11  1  0
 10  9  2  0
 11 12  2  0
 12  7  1  0
 13 11  1  0
 14 13  1  0
 15 14  2  0
 16 15  1  0
 16 17  2  0
 17 13  1  0
 18 19  2  0
 19 20  1  0
 21 22  2  0
 21 20  1  0
 23 22  1  0
 24 23  2  0
 25 24  1  0
 25 26  2  0
 26 18  1  0
 26 21  1  0
  1 27  1  0
  2 28  1  0
  8 29  1  0
  9 30  1  0
 15 31  1  0
 16 32  1  0
 17 33  1  0
 19 34  1  0
 20 35  1  0
 22 36  1  0
 23 37  1  0
 24 38  1  0
 25 39  1  0
M  ISO  8  27  14  28  14  29  14  30  14  31  14  32  14  33  14  34  14
M  ISO  5  35   9  36  14  37  14  38  14  39  14
M  END
>  <minimizedAffinity>  (1) 
-6.97962189

>  <minimizedRMSD>  (1) 
0.488946497

$$$$
