
     RDKit          3D

 35 38  0  0  0  0  0  0  0  0999 V2000
   44.4190   35.9180   44.8690 C   0  0  0  0  0  0  0  0  0  0  0  0
   45.0650   35.8780   43.6170 C   0  0  0  0  0  0  0  0  0  0  0  0
   46.0000   34.8750   43.3740 C   0  0  0  0  0  0  0  0  0  0  0  0
   46.2340   33.9950   44.3500 N   0  0  0  0  0  0  0  0  0  0  0  0
   45.6310   34.0210   45.5350 C   0  0  0  0  0  0  0  0  0  0  0  0
   44.7240   34.9700   45.8130 N   0  0  0  0  0  0  0  0  0  0  0  0
   46.7290   34.7340   42.1230 C   0  0  0  0  0  0  0  0  0  0  0  0
   47.9560   35.2820   41.8990 C   0  0  0  0  0  0  0  0  0  0  0  0
   48.6630   35.1600   40.7230 C   0  0  0  0  0  0  0  0  0  0  0  0
   48.0910   34.4430   39.7230 N   0  0  0  0  0  0  0  0  0  0  0  0
   46.8900   33.8970   39.9200 C   0  0  0  0  0  0  0  0  0  0  0  0
   46.2080   34.0200   41.0690 N   0  0  0  0  0  0  0  0  0  0  0  0
   46.3490   33.1610   38.8420 N   0  0  0  0  0  0  0  0  0  0  0  0
   45.3920   32.2400   38.7270 N   0  0  0  0  0  0  0  0  0  0  0  0
   45.2660   31.8460   37.4520 C   0  0  0  0  0  0  0  0  0  0  0  0
   46.2130   32.5720   36.7100 C   0  0  0  0  0  0  0  0  0  0  0  0
   46.8640   33.3790   37.6160 C   0  0  0  0  0  0  0  0  0  0  0  0
   45.9520   33.0120   46.5450 C   0  0  0  0  0  0  0  0  0  0  0  0
   47.0230   32.1590   46.3500 C   0  0  0  0  0  0  0  0  0  0  0  0
   47.3510   31.1880   47.3000 C   0  0  0  0  0  0  0  0  0  0  0  0
   46.5610   31.1240   48.4280 C   0  0  0  0  0  0  0  0  0  0  0  0
   45.4830   31.9480   48.6750 C   0  0  0  0  0  0  0  0  0  0  0  0
   45.1940   32.9030   47.6960 C   0  0  0  0  0  0  0  0  0  0  0  0
   43.6780   36.7011   45.0871 H   0  0  0  0  0  0  0  0  0  0  0  0
   44.8345   36.6266   42.8447 H   0  0  0  0  0  0  0  0  0  0  0  0
   48.4139   35.8621   42.7137 H   0  0  0  0  0  0  0  0  0  0  0  0
   49.6520   35.6254   40.5995 H   0  0  0  0  0  0  0  0  0  0  0  0
   44.5586   31.0993   37.0622 H   0  0  0  0  0  0  0  0  0  0  0  0
   46.3966   32.5086   35.6273 H   0  0  0  0  0  0  0  0  0  0  0  0
   47.6723   34.0861   37.3779 H   0  0  0  0  0  0  0  0  0  0  0  0
   47.6254   32.2461   45.4338 H   0  0  0  0  0  0  0  0  0  0  0  0
   48.2013   30.5055   47.1543 H   0  0  0  0  0  0  0  0  0  0  0  0
   46.8075   30.3631   49.1832 H   0  0  0  0  0  0  0  0  0  0  0  0
   44.8831   31.8585   49.5927 H   0  0  0  0  0  0  0  0  0  0  0  0
   44.3431   33.5841   47.8450 H   0  0  0  0  0  0  0  0  0  0  0  0
  1  6  2  0
  2  1  1  0
  3  2  2  0
  3  4  1  0
  4  5  2  0
  5  6  1  0
  5 18  1  0
  7  3  1  0
  8  7  2  0
  9  8  1  0
 10 11  1  0
 10  9  2  0
 11 12  2  0
 12  7  1  0
 13 11  1  0
 14 13  1  0
 15 14  2  0
 16 15  1  0
 16 17  2  0
 17 13  1  0
 18 23  1  0
 19 18  2  0
 19 20  1  0
 20 21  2  0
 21 22  1  0
 23 22  2  0
  1 24  1  0
  2 25  1  0
  8 26  1  0
  9 27  1  0
 15 28  1  0
 16 29  1  0
 17 30  1  0
 19 31  1  0
 20 32  1  0
 21 33  1  0
 22 34  1  0
 23 35  1  0
M  ISO  8  24  14  25  14  26  14  27  14  28  14  29  14  30  14  31  14
M  ISO  4  32  14  33  14  34  14  35  14
M  END
>  <minimizedAffinity>  (1) 
-6.87766838

>  <minimizedRMSD>  (1) 
0.51849395

$$$$
