
     RDKit          3D

 40 43  0  0  0  0  0  0  0  0999 V2000
   46.7290   34.6470   42.1760 C   0  0  0  0  0  0  0  0  0  0  0  0
   47.9460   35.2570   41.9510 C   0  0  0  0  0  0  0  0  0  0  0  0
   48.6380   35.1890   40.7570 C   0  0  0  0  0  0  0  0  0  0  0  0
   48.0730   34.4760   39.7540 N   0  0  0  0  0  0  0  0  0  0  0  0
   46.9030   33.8810   39.9540 C   0  0  0  0  0  0  0  0  0  0  0  0
   46.2410   33.9540   41.1150 N   0  0  0  0  0  0  0  0  0  0  0  0
   46.3660   33.1480   38.8640 N   0  0  0  0  0  0  0  0  0  0  0  0
   45.4400   32.1990   38.7490 N   0  0  0  0  0  0  0  0  0  0  0  0
   45.3130   31.8370   37.4560 C   0  0  0  0  0  0  0  0  0  0  0  0
   46.2100   32.6040   36.7340 C   0  0  0  0  0  0  0  0  0  0  0  0
   46.8570   33.4160   37.6380 C   0  0  0  0  0  0  0  0  0  0  0  0
   44.4970   35.6950   45.0190 C   0  0  0  0  0  0  0  0  0  0  0  0
   45.1060   35.7190   43.7670 C   0  0  0  0  0  0  0  0  0  0  0  0
   46.0270   34.7350   43.4400 C   0  0  0  0  0  0  0  0  0  0  0  0
   46.2860   33.8010   44.3600 N   0  0  0  0  0  0  0  0  0  0  0  0
   45.6940   33.7790   45.5750 C   0  0  0  0  0  0  0  0  0  0  0  0
   44.8060   34.7060   45.9200 N   0  0  0  0  0  0  0  0  0  0  0  0
   46.0400   32.7380   46.4840 N   0  0  0  0  0  0  0  0  0  0  0  0
   45.7160   32.7970   47.8970 C   0  0  0  0  0  0  0  0  0  0  0  0
   44.8020   31.6110   48.1600 C   0  0  0  0  0  0  0  0  0  0  0  0
   45.4670   30.3370   47.7360 C   0  0  0  0  0  0  0  0  0  0  0  0
   45.7960   30.3830   46.2580 C   0  0  0  0  0  0  0  0  0  0  0  0
   46.7420   31.5510   46.0320 C   0  0  0  0  0  0  0  0  0  0  0  0
   48.3934   35.8337   42.7739 H   0  0  0  0  0  0  0  0  0  0  0  0
   49.6071   35.6929   40.6267 H   0  0  0  0  0  0  0  0  0  0  0  0
   44.6274   31.0773   37.0526 H   0  0  0  0  0  0  0  0  0  0  0  0
   46.3745   32.5713   35.6469 H   0  0  0  0  0  0  0  0  0  0  0  0
   47.6376   34.1539   37.4012 H   0  0  0  0  0  0  0  0  0  0  0  0
   43.7655   36.4714   45.2873 H   0  0  0  0  0  0  0  0  0  0  0  0
   44.8590   36.5107   43.0444 H   0  0  0  0  0  0  0  0  0  0  0  0
   46.6302   32.7184   48.5036 H   0  0  0  0  0  0  0  0  0  0  0  0
   45.2326   33.7486   48.1630 H   0  0  0  0  0  0  0  0  0  0  0  0
   44.5734   31.5606   49.2348 H   0  0  0  0  0  0  0  0  0  0  0  0
   43.8745   31.7395   47.5827 H   0  0  0  0  0  0  0  0  0  0  0  0
   46.3955   30.2035   48.3106 H   0  0  0  0  0  0  0  0  0  0  0  0
   44.7833   29.4962   47.9246 H   0  0  0  0  0  0  0  0  0  0  0  0
   46.2804   29.4439   45.9525 H   0  0  0  0  0  0  0  0  0  0  0  0
   44.8795   30.5084   45.6627 H   0  0  0  0  0  0  0  0  0  0  0  0
   47.6657   31.4107   46.6126 H   0  0  0  0  0  0  0  0  0  0  0  0
   47.0275   31.6347   44.9730 H   0  0  0  0  0  0  0  0  0  0  0  0
  1 14  1  0
  2  1  2  0
  3  2  1  0
  4  5  1  0
  4  3  2  0
  5  6  2  0
  6  1  1  0
  7  5  1  0
  8  7  1  0
  9  8  2  0
 10  9  1  0
 10 11  2  0
 11  7  1  0
 12 17  2  0
 13 12  1  0
 14 13  2  0
 14 15  1  0
 15 16  2  0
 16 17  1  0
 16 18  1  0
 18 19  1  0
 19 20  1  0
 21 20  1  0
 22 21  1  0
 23 22  1  0
 23 18  1  0
  2 24  1  0
  3 25  1  0
  9 26  1  0
 10 27  1  0
 11 28  1  0
 12 29  1  0
 13 30  1  0
 19 31  1  0
 19 32  1  0
 20 33  1  0
 20 34  1  0
 21 35  1  0
 21 36  1  0
 22 37  1  0
 22 38  1  0
 23 39  1  0
 23 40  1  0
M  ISO  8  24  14  25  14  26  14  27  14  28  14  29  14  30  14  31  13
M  ISO  8  32  13  33  13  34  13  35  13  36  13  37  13  38  13  39  13
M  ISO  1  40  13
M  END
>  <minimizedAffinity>  (1) 
-6.83072424

>  <minimizedRMSD>  (1) 
0.299592495

$$$$
