
     RDKit          3D

 38 39  0  0  0  0  0  0  0  0999 V2000
   45.2180   35.1050   42.6120 C   0  0  0  0  0  0  0  0  0  0  0  0
   45.0060   34.6260   45.0440 C   0  0  0  0  0  0  0  0  0  0  0  0
   45.6870   34.3420   43.8250 C   0  0  0  0  0  0  0  0  0  0  0  0
   46.7010   33.4010   43.8780 C   0  0  0  0  0  0  0  0  0  0  0  0
   46.9860   32.8130   45.0620 N   0  0  0  0  0  0  0  0  0  0  0  0
   46.3180   33.1070   46.2010 C   0  0  0  0  0  0  0  0  0  0  0  0
   45.3310   34.0110   46.1930 N   0  0  0  0  0  0  0  0  0  0  0  0
   46.2890   34.9080   41.5440 C   0  0  0  0  0  0  0  0  0  0  0  0
   45.1230   36.5610   42.9790 C   0  0  0  0  0  0  0  0  0  0  0  0
   43.8920   34.6040   42.2120 C   0  0  0  0  0  0  0  0  0  0  0  0
   43.1200   35.3140   41.1700 C   0  0  0  0  0  0  0  0  0  0  0  0
   41.6940   35.3690   41.7520 C   0  0  0  0  0  0  0  0  0  0  0  0
   40.7200   36.0660   40.8770 C   0  0  0  0  0  0  0  0  0  0  0  0
   40.6290   35.2990   39.5500 C   0  0  0  0  0  0  0  0  0  0  0  0
   42.0110   35.3830   38.9600 C   0  0  0  0  0  0  0  0  0  0  0  0
   42.9990   34.6360   39.8410 C   0  0  0  0  0  0  0  0  0  0  0  0
   44.1936   35.3676   45.0440 H   0  0  0  0  0  0  0  0  0  0  0  0
   47.2656   33.1359   42.9719 H   0  0  0  0  0  0  0  0  0  0  0  0
   46.5876   32.6001   47.1393 H   0  0  0  0  0  0  0  0  0  0  0  0
   47.2606   34.7293   42.0277 H   0  0  0  0  0  0  0  0  0  0  0  0
   46.0269   34.0430   40.9170 H   0  0  0  0  0  0  0  0  0  0  0  0
   46.3518   35.8097   40.9170 H   0  0  0  0  0  0  0  0  0  0  0  0
   45.1163   36.6634   44.0742 H   0  0  0  0  0  0  0  0  0  0  0  0
   45.9879   37.1005   42.5656 H   0  0  0  0  0  0  0  0  0  0  0  0
   44.1954   36.9836   42.5656 H   0  0  0  0  0  0  0  0  0  0  0  0
   44.0357   33.5736   41.8548 H   0  0  0  0  0  0  0  0  0  0  0  0
   43.2838   34.7431   43.1180 H   0  0  0  0  0  0  0  0  0  0  0  0
   43.6328   36.2651   40.9638 H   0  0  0  0  0  0  0  0  0  0  0  0
   41.3434   34.3385   41.9103 H   0  0  0  0  0  0  0  0  0  0  0  0
   41.7511   35.9412   42.6897 H   0  0  0  0  0  0  0  0  0  0  0  0
   39.7331   36.0878   41.3624 H   0  0  0  0  0  0  0  0  0  0  0  0
   41.0466   37.1005   40.6951 H   0  0  0  0  0  0  0  0  0  0  0  0
   40.3467   34.2507   39.7272 H   0  0  0  0  0  0  0  0  0  0  0  0
   39.8656   35.7201   38.8793 H   0  0  0  0  0  0  0  0  0  0  0  0
   42.0063   34.9337   37.9560 H   0  0  0  0  0  0  0  0  0  0  0  0
   42.3121   36.4390   38.8950 H   0  0  0  0  0  0  0  0  0  0  0  0
   42.6461   33.6048   39.9897 H   0  0  0  0  0  0  0  0  0  0  0  0
   43.9835   34.6283   39.3505 H   0  0  0  0  0  0  0  0  0  0  0  0
  1  9  1  0
  1  3  1  0
  2  7  2  0
  3  4  2  0
  3  2  1  0
  4  5  1  0
  5  6  2  0
  7  6  1  0
  8  1  1  0
 10  1  1  0
 11 12  1  0
 11 10  1  0
 13 12  1  0
 14 13  1  0
 15 14  1  0
 15 16  1  0
 16 11  1  0
  2 17  1  0
  4 18  1  0
  6 19  1  0
  8 20  1  0
  8 21  1  0
  8 22  1  0
  9 23  1  0
  9 24  1  0
  9 25  1  0
 10 26  1  0
 10 27  1  0
 11 28  1  0
 12 29  1  0
 12 30  1  0
 13 31  1  0
 13 32  1  0
 14 33  1  0
 14 34  1  0
 15 35  1  0
 15 36  1  0
 16 37  1  0
 16 38  1  0
M  ISO  8  17  14  18  14  19  14  20   8  21   8  22   8  23   8  24   8
M  ISO  8  25   8  26   8  27   8  28  13  29  13  30  13  31  13  32  13
M  ISO  6  33  13  34  13  35  13  36  13  37  13  38  13
M  END
>  <minimizedAffinity>  (1) 
-5.05491161

>  <minimizedRMSD>  (1) 
1.53463912

$$$$
