
     RDKit          3D

 37 40  0  0  0  0  0  0  0  0999 V2000
   46.7730   34.7260   42.1130 C   0  0  0  0  0  0  0  0  0  0  0  0
   47.9760   35.3200   41.8850 C   0  0  0  0  0  0  0  0  0  0  0  0
   48.6860   35.2430   40.7090 C   0  0  0  0  0  0  0  0  0  0  0  0
   48.1360   34.5170   39.7100 N   0  0  0  0  0  0  0  0  0  0  0  0
   46.9630   33.9260   39.9030 C   0  0  0  0  0  0  0  0  0  0  0  0
   46.2740   34.0080   41.0600 N   0  0  0  0  0  0  0  0  0  0  0  0
   46.4330   33.1760   38.8130 N   0  0  0  0  0  0  0  0  0  0  0  0
   45.5170   32.2250   38.6860 N   0  0  0  0  0  0  0  0  0  0  0  0
   45.3920   31.8480   37.4160 C   0  0  0  0  0  0  0  0  0  0  0  0
   46.2920   32.6120   36.6830 C   0  0  0  0  0  0  0  0  0  0  0  0
   46.9340   33.4380   37.5820 C   0  0  0  0  0  0  0  0  0  0  0  0
   44.5030   35.8140   44.9270 C   0  0  0  0  0  0  0  0  0  0  0  0
   45.1440   35.8150   43.6910 C   0  0  0  0  0  0  0  0  0  0  0  0
   46.0450   34.8270   43.3710 C   0  0  0  0  0  0  0  0  0  0  0  0
   46.2800   33.8660   44.2970 N   0  0  0  0  0  0  0  0  0  0  0  0
   45.6590   33.8720   45.4860 C   0  0  0  0  0  0  0  0  0  0  0  0
   44.7830   34.8130   45.8260 N   0  0  0  0  0  0  0  0  0  0  0  0
   45.9440   32.8380   46.4200 N   0  0  0  0  0  0  0  0  0  0  0  0
   47.0280   31.8760   46.4570 C   0  0  0  0  0  0  0  0  0  0  0  0
   47.4340   31.8320   47.9320 C   0  0  0  0  0  0  0  0  0  0  0  0
   46.2680   32.4550   48.6810 C   0  0  0  0  0  0  0  0  0  0  0  0
   45.1920   32.4830   47.6100 C   0  0  0  0  0  0  0  0  0  0  0  0
   48.4150   35.9075   42.7048 H   0  0  0  0  0  0  0  0  0  0  0  0
   49.6555   35.7483   40.5874 H   0  0  0  0  0  0  0  0  0  0  0  0
   44.7089   31.0807   37.0228 H   0  0  0  0  0  0  0  0  0  0  0  0
   46.4599   32.5668   35.5968 H   0  0  0  0  0  0  0  0  0  0  0  0
   47.7129   34.1768   37.3423 H   0  0  0  0  0  0  0  0  0  0  0  0
   43.7815   36.6046   45.1807 H   0  0  0  0  0  0  0  0  0  0  0  0
   44.9279   36.6125   42.9648 H   0  0  0  0  0  0  0  0  0  0  0  0
   46.6856   30.8878   46.1161 H   0  0  0  0  0  0  0  0  0  0  0  0
   47.8627   32.1531   45.7963 H   0  0  0  0  0  0  0  0  0  0  0  0
   47.5923   30.7935   48.2584 H   0  0  0  0  0  0  0  0  0  0  0  0
   48.3767   32.3680   48.1167 H   0  0  0  0  0  0  0  0  0  0  0  0
   45.9648   31.8351   49.5376 H   0  0  0  0  0  0  0  0  0  0  0  0
   46.4919   33.4410   49.1141 H   0  0  0  0  0  0  0  0  0  0  0  0
   44.4253   33.2387   47.8361 H   0  0  0  0  0  0  0  0  0  0  0  0
   44.6421   31.5350   47.5153 H   0  0  0  0  0  0  0  0  0  0  0  0
  1 14  1  0
  2  1  2  0
  3  2  1  0
  4  5  1  0
  4  3  2  0
  5  6  2  0
  6  1  1  0
  7  5  1  0
  8  7  1  0
  9  8  2  0
 10  9  1  0
 10 11  2  0
 11  7  1  0
 12 17  2  0
 13 12  1  0
 14 13  2  0
 14 15  1  0
 15 16  2  0
 16 17  1  0
 16 18  1  0
 18 19  1  0
 18 22  1  0
 19 20  1  0
 20 21  1  0
 22 21  1  0
  2 23  1  0
  3 24  1  0
  9 25  1  0
 10 26  1  0
 11 27  1  0
 12 28  1  0
 13 29  1  0
 19 30  1  0
 19 31  1  0
 20 32  1  0
 20 33  1  0
 21 34  1  0
 21 35  1  0
 22 36  1  0
 22 37  1  0
M  ISO  8  23  14  24  14  25  14  26  14  27  14  28  14  29  14  30  13
M  ISO  7  31  13  32  13  33  13  34  13  35  13  36  13  37  13
M  END
>  <minimizedAffinity>  (1) 
-6.7032671

>  <minimizedRMSD>  (1) 
0.194024235

$$$$
