
     RDKit          3D

 32 35  0  0  0  0  0  0  0  0999 V2000
   46.7200   34.7490   42.0160 C   0  0  0  0  0  0  0  0  0  0  0  0
   47.9580   35.2750   41.7970 C   0  0  0  0  0  0  0  0  0  0  0  0
   48.6720   35.1400   40.6250 C   0  0  0  0  0  0  0  0  0  0  0  0
   48.0920   34.4350   39.6320 N   0  0  0  0  0  0  0  0  0  0  0  0
   46.8790   33.9090   39.8180 C   0  0  0  0  0  0  0  0  0  0  0  0
   46.2080   34.0550   40.9680 N   0  0  0  0  0  0  0  0  0  0  0  0
   46.3210   33.1790   38.7370 N   0  0  0  0  0  0  0  0  0  0  0  0
   45.3440   32.2770   38.6250 N   0  0  0  0  0  0  0  0  0  0  0  0
   45.2210   31.8950   37.3450 C   0  0  0  0  0  0  0  0  0  0  0  0
   46.1770   32.6000   36.6080 C   0  0  0  0  0  0  0  0  0  0  0  0
   46.8400   33.3870   37.5120 C   0  0  0  0  0  0  0  0  0  0  0  0
   44.4350   35.9740   44.7580 C   0  0  0  0  0  0  0  0  0  0  0  0
   45.0780   35.9170   43.5190 C   0  0  0  0  0  0  0  0  0  0  0  0
   45.9910   34.9080   43.2650 C   0  0  0  0  0  0  0  0  0  0  0  0
   46.2100   34.0250   44.2450 N   0  0  0  0  0  0  0  0  0  0  0  0
   45.6070   34.0580   45.4360 C   0  0  0  0  0  0  0  0  0  0  0  0
   44.7140   35.0320   45.7090 N   0  0  0  0  0  0  0  0  0  0  0  0
   45.8630   33.1010   46.4600 N   0  0  0  0  0  0  0  0  0  0  0  0
   45.3260   32.7310   47.6370 C   0  0  0  0  0  0  0  0  0  0  0  0
   46.0920   31.6980   48.1380 C   0  0  0  0  0  0  0  0  0  0  0  0
   47.1000   31.4210   47.2840 N   0  0  0  0  0  0  0  0  0  0  0  0
   46.9400   32.2940   46.2590 C   0  0  0  0  0  0  0  0  0  0  0  0
   48.4209   35.8484   42.6137 H   0  0  0  0  0  0  0  0  0  0  0  0
   49.6698   35.5872   40.5053 H   0  0  0  0  0  0  0  0  0  0  0  0
   44.5016   31.1631   36.9490 H   0  0  0  0  0  0  0  0  0  0  0  0
   46.3593   32.5359   35.5251 H   0  0  0  0  0  0  0  0  0  0  0  0
   47.6632   34.0772   37.2756 H   0  0  0  0  0  0  0  0  0  0  0  0
   43.7080   36.7726   44.9674 H   0  0  0  0  0  0  0  0  0  0  0  0
   44.8596   36.6709   42.7484 H   0  0  0  0  0  0  0  0  0  0  0  0
   44.4378   33.1718   48.1133 H   0  0  0  0  0  0  0  0  0  0  0  0
   45.9086   31.1785   49.0901 H   0  0  0  0  0  0  0  0  0  0  0  0
   47.5967   32.3435   45.3779 H   0  0  0  0  0  0  0  0  0  0  0  0
  1 14  1  0
  2  1  2  0
  3  2  1  0
  4  5  1  0
  4  3  2  0
  5  6  2  0
  6  1  1  0
  7  5  1  0
  8  7  1  0
  9  8  2  0
 10  9  1  0
 10 11  2  0
 11  7  1  0
 12 17  2  0
 13 12  1  0
 14 13  2  0
 14 15  1  0
 15 16  2  0
 16 17  1  0
 16 18  1  0
 18 19  1  0
 19 20  2  0
 21 20  1  0
 22 18  1  0
 22 21  2  0
  2 23  1  0
  3 24  1  0
  9 25  1  0
 10 26  1  0
 11 27  1  0
 12 28  1  0
 13 29  1  0
 19 30  1  0
 20 31  1  0
 22 32  1  0
M  ISO  8  23  14  24  14  25  14  26  14  27  14  28  14  29  14  30  14
M  ISO  2  31  14  32  14
M  END
>  <minimizedAffinity>  (1) 
-6.63391018

>  <minimizedRMSD>  (1) 
0.112539269

$$$$
