
     RDKit          3D

 38 41  0  0  0  0  0  0  0  0999 V2000
   46.7790   34.6910   42.1280 C   0  0  0  0  0  0  0  0  0  0  0  0
   47.9860   35.2860   41.9020 C   0  0  0  0  0  0  0  0  0  0  0  0
   48.6830   35.2120   40.7150 C   0  0  0  0  0  0  0  0  0  0  0  0
   48.1220   34.4940   39.7110 N   0  0  0  0  0  0  0  0  0  0  0  0
   46.9430   33.9080   39.9190 C   0  0  0  0  0  0  0  0  0  0  0  0
   46.2730   33.9870   41.0780 N   0  0  0  0  0  0  0  0  0  0  0  0
   46.4140   33.1710   38.8240 N   0  0  0  0  0  0  0  0  0  0  0  0
   45.4790   32.2240   38.7080 N   0  0  0  0  0  0  0  0  0  0  0  0
   45.3530   31.8490   37.4270 C   0  0  0  0  0  0  0  0  0  0  0  0
   46.2670   32.6100   36.6890 C   0  0  0  0  0  0  0  0  0  0  0  0
   46.9060   33.4200   37.5970 C   0  0  0  0  0  0  0  0  0  0  0  0
   44.4670   35.7240   44.9330 C   0  0  0  0  0  0  0  0  0  0  0  0
   45.0880   35.7380   43.6690 C   0  0  0  0  0  0  0  0  0  0  0  0
   46.0610   34.7860   43.3950 C   0  0  0  0  0  0  0  0  0  0  0  0
   46.3550   33.9030   44.3550 N   0  0  0  0  0  0  0  0  0  0  0  0
   45.7670   33.8910   45.5500 C   0  0  0  0  0  0  0  0  0  0  0  0
   44.8180   34.7990   45.8560 N   0  0  0  0  0  0  0  0  0  0  0  0
   46.2150   32.8310   46.5160 C   0  0  0  0  0  0  0  0  0  0  0  0
   46.0430   31.4480   45.9750 C   0  0  0  0  0  0  0  0  0  0  0  0
   45.5500   30.5950   47.1410 C   0  0  0  0  0  0  0  0  0  0  0  0
   45.6020   31.5290   48.3510 C   0  0  0  0  0  0  0  0  0  0  0  0
   45.2230   32.8410   47.6860 C   0  0  0  0  0  0  0  0  0  0  0  0
   48.4336   35.8645   42.7235 H   0  0  0  0  0  0  0  0  0  0  0  0
   49.6533   35.7143   40.5877 H   0  0  0  0  0  0  0  0  0  0  0  0
   44.6633   31.0887   37.0316 H   0  0  0  0  0  0  0  0  0  0  0  0
   46.4389   32.5683   35.6033 H   0  0  0  0  0  0  0  0  0  0  0  0
   47.6915   34.1524   37.3592 H   0  0  0  0  0  0  0  0  0  0  0  0
   43.6930   36.4685   45.1710 H   0  0  0  0  0  0  0  0  0  0  0  0
   44.8080   36.4877   42.9143 H   0  0  0  0  0  0  0  0  0  0  0  0
   47.2674   33.0426   46.7564 H   0  0  0  0  0  0  0  0  0  0  0  0
   45.3032   31.4459   45.1610 H   0  0  0  0  0  0  0  0  0  0  0  0
   46.9852   31.0581   45.5623 H   0  0  0  0  0  0  0  0  0  0  0  0
   44.5214   30.2490   46.9614 H   0  0  0  0  0  0  0  0  0  0  0  0
   46.1609   29.6916   47.2847 H   0  0  0  0  0  0  0  0  0  0  0  0
   44.8751   31.2376   49.1235 H   0  0  0  0  0  0  0  0  0  0  0  0
   46.5626   31.5410   48.8868 H   0  0  0  0  0  0  0  0  0  0  0  0
   45.3848   33.7005   48.3532 H   0  0  0  0  0  0  0  0  0  0  0  0
   44.1646   32.9312   47.4003 H   0  0  0  0  0  0  0  0  0  0  0  0
  1 14  1  0
  2  1  2  0
  3  2  1  0
  4  5  1  0
  4  3  2  0
  5  6  2  0
  6  1  1  0
  7  5  1  0
  8  7  1  0
  9  8  2  0
 10  9  1  0
 10 11  2  0
 11  7  1  0
 12 17  2  0
 13 12  1  0
 14 13  2  0
 14 15  1  0
 15 16  2  0
 16 17  1  0
 16 18  1  0
 18 22  1  0
 19 18  1  0
 19 20  1  0
 20 21  1  0
 22 21  1  0
  2 23  1  0
  3 24  1  0
  9 25  1  0
 10 26  1  0
 11 27  1  0
 12 28  1  0
 13 29  1  0
 18 30  1  0
 19 31  1  0
 19 32  1  0
 20 33  1  0
 20 34  1  0
 21 35  1  0
 21 36  1  0
 22 37  1  0
 22 38  1  0
M  ISO  8  23  14  24  14  25  14  26  14  27  14  28  14  29  14  30  13
M  ISO  8  31  13  32  13  33  13  34  13  35  13  36  13  37  13  38  13
M  END
>  <minimizedAffinity>  (1) 
-6.45630169

>  <minimizedRMSD>  (1) 
0.645009458

$$$$
