
     RDKit          3D

 32 35  0  0  0  0  0  0  0  0999 V2000
   46.7020   34.7410   42.1310 C   0  0  0  0  0  0  0  0  0  0  0  0
   47.9490   35.2790   41.9210 C   0  0  0  0  0  0  0  0  0  0  0  0
   48.6750   35.1540   40.7600 C   0  0  0  0  0  0  0  0  0  0  0  0
   48.1020   34.4430   39.7610 N   0  0  0  0  0  0  0  0  0  0  0  0
   46.8970   33.9110   39.9360 C   0  0  0  0  0  0  0  0  0  0  0  0
   46.1990   34.0430   41.0800 N   0  0  0  0  0  0  0  0  0  0  0  0
   46.3480   33.1760   38.8500 N   0  0  0  0  0  0  0  0  0  0  0  0
   45.3750   32.2840   38.7140 N   0  0  0  0  0  0  0  0  0  0  0  0
   45.2580   31.8910   37.4490 C   0  0  0  0  0  0  0  0  0  0  0  0
   46.2330   32.5870   36.7230 C   0  0  0  0  0  0  0  0  0  0  0  0
   46.8970   33.3810   37.6270 C   0  0  0  0  0  0  0  0  0  0  0  0
   44.4380   35.9620   44.8950 C   0  0  0  0  0  0  0  0  0  0  0  0
   45.0880   35.9130   43.6600 C   0  0  0  0  0  0  0  0  0  0  0  0
   45.9690   34.8980   43.3750 C   0  0  0  0  0  0  0  0  0  0  0  0
   46.1710   33.9630   44.3350 N   0  0  0  0  0  0  0  0  0  0  0  0
   45.5460   34.0120   45.5200 C   0  0  0  0  0  0  0  0  0  0  0  0
   44.6850   34.9900   45.8220 N   0  0  0  0  0  0  0  0  0  0  0  0
   45.8810   32.9060   46.4630 C   0  0  0  0  0  0  0  0  0  0  0  0
   45.2520   32.8090   47.7770 C   0  0  0  0  0  0  0  0  0  0  0  0
   45.6530   31.7450   48.5370 C   0  0  0  0  0  0  0  0  0  0  0  0
   46.5720   30.8280   48.1180 C   0  0  0  0  0  0  0  0  0  0  0  0
   47.0170   31.4650   46.3850 S   0  0  0  0  0  0  0  0  0  0  0  0
   48.4004   35.8529   42.7437 H   0  0  0  0  0  0  0  0  0  0  0  0
   49.6705   35.6086   40.6488 H   0  0  0  0  0  0  0  0  0  0  0  0
   44.5368   31.1621   37.0507 H   0  0  0  0  0  0  0  0  0  0  0  0
   46.4285   32.5127   35.6431 H   0  0  0  0  0  0  0  0  0  0  0  0
   47.7287   34.0637   37.3985 H   0  0  0  0  0  0  0  0  0  0  0  0
   43.7333   36.7763   45.1192 H   0  0  0  0  0  0  0  0  0  0  0  0
   44.8931   36.6932   42.9095 H   0  0  0  0  0  0  0  0  0  0  0  0
   44.5090   33.5392   48.1303 H   0  0  0  0  0  0  0  0  0  0  0  0
   45.2120   31.6224   49.5372 H   0  0  0  0  0  0  0  0  0  0  0  0
   46.9571   29.9448   48.6486 H   0  0  0  0  0  0  0  0  0  0  0  0
  1 14  1  0
  2  1  2  0
  3  2  1  0
  4  5  1  0
  4  3  2  0
  5  6  2  0
  6  1  1  0
  7  5  1  0
  8  7  1  0
  9  8  2  0
 10  9  1  0
 10 11  2  0
 11  7  1  0
 12 17  2  0
 13 12  1  0
 14 13  2  0
 14 15  1  0
 15 16  2  0
 16 17  1  0
 16 18  1  0
 18 19  2  0
 19 20  1  0
 21 20  2  0
 22 18  1  0
 22 21  1  0
  2 23  1  0
  3 24  1  0
  9 25  1  0
 10 26  1  0
 11 27  1  0
 12 28  1  0
 13 29  1  0
 19 30  1  0
 20 31  1  0
 21 32  1  0
M  ISO  8  23  14  24  14  25  14  26  14  27  14  28  14  29  14  30  14
M  ISO  2  31  14  32  14
M  END
>  <minimizedAffinity>  (1) 
-6.42495489

>  <minimizedRMSD>  (1) 
0.360883176

$$$$
