
     RDKit          3D

 34 36  0  0  0  0  0  0  0  0999 V2000
   46.8090   34.7110   42.0890 C   0  0  0  0  0  0  0  0  0  0  0  0
   48.0100   35.3170   41.8510 C   0  0  0  0  0  0  0  0  0  0  0  0
   48.7010   35.2470   40.6710 C   0  0  0  0  0  0  0  0  0  0  0  0
   48.1550   34.5260   39.6720 N   0  0  0  0  0  0  0  0  0  0  0  0
   46.9840   33.9220   39.8710 C   0  0  0  0  0  0  0  0  0  0  0  0
   46.3060   33.9920   41.0300 N   0  0  0  0  0  0  0  0  0  0  0  0
   46.4570   33.1750   38.7800 N   0  0  0  0  0  0  0  0  0  0  0  0
   45.5510   32.2140   38.6580 N   0  0  0  0  0  0  0  0  0  0  0  0
   45.4190   31.8420   37.3870 C   0  0  0  0  0  0  0  0  0  0  0  0
   46.3090   32.6280   36.6420 C   0  0  0  0  0  0  0  0  0  0  0  0
   46.9410   33.4480   37.5410 C   0  0  0  0  0  0  0  0  0  0  0  0
   44.4930   35.7120   44.8950 C   0  0  0  0  0  0  0  0  0  0  0  0
   45.1120   35.7370   43.6410 C   0  0  0  0  0  0  0  0  0  0  0  0
   46.0910   34.7980   43.3460 C   0  0  0  0  0  0  0  0  0  0  0  0
   46.3920   33.9060   44.3010 N   0  0  0  0  0  0  0  0  0  0  0  0
   45.8060   33.8720   45.5080 C   0  0  0  0  0  0  0  0  0  0  0  0
   44.8530   34.7770   45.8110 N   0  0  0  0  0  0  0  0  0  0  0  0
   46.2240   32.8300   46.4890 C   0  0  0  0  0  0  0  0  0  0  0  0
   45.2590   32.7640   47.6600 C   0  0  0  0  0  0  0  0  0  0  0  0
   46.1320   31.4890   45.7780 C   0  0  0  0  0  0  0  0  0  0  0  0
   48.4548   35.9046   42.6677 H   0  0  0  0  0  0  0  0  0  0  0  0
   49.6656   35.7600   40.5433 H   0  0  0  0  0  0  0  0  0  0  0  0
   44.7424   31.0675   36.9966 H   0  0  0  0  0  0  0  0  0  0  0  0
   46.4684   32.5938   35.5542 H   0  0  0  0  0  0  0  0  0  0  0  0
   47.7084   34.1983   37.2999 H   0  0  0  0  0  0  0  0  0  0  0  0
   43.7145   36.4499   45.1390 H   0  0  0  0  0  0  0  0  0  0  0  0
   44.8258   36.4936   42.8956 H   0  0  0  0  0  0  0  0  0  0  0  0
   47.2342   33.0643   46.8559 H   0  0  0  0  0  0  0  0  0  0  0  0
   45.8238   32.8026   48.6032 H   0  0  0  0  0  0  0  0  0  0  0  0
   44.5659   33.6168   47.6125 H   0  0  0  0  0  0  0  0  0  0  0  0
   44.6885   31.8247   47.6125 H   0  0  0  0  0  0  0  0  0  0  0  0
   46.0766   30.6819   46.5233 H   0  0  0  0  0  0  0  0  0  0  0  0
   45.2304   31.4690   45.1482 H   0  0  0  0  0  0  0  0  0  0  0  0
   47.0224   31.3461   45.1482 H   0  0  0  0  0  0  0  0  0  0  0  0
  1 14  1  0
  2  1  2  0
  3  2  1  0
  4  5  1  0
  4  3  2  0
  5  6  2  0
  6  1  1  0
  7  5  1  0
  8  7  1  0
  9  8  2  0
 10  9  1  0
 10 11  2  0
 11  7  1  0
 12 17  2  0
 13 12  1  0
 14 13  2  0
 14 15  1  0
 15 16  2  0
 16 17  1  0
 16 18  1  0
 18 19  1  0
 20 18  1  0
  2 21  1  0
  3 22  1  0
  9 23  1  0
 10 24  1  0
 11 25  1  0
 12 26  1  0
 13 27  1  0
 18 28  1  0
 19 29  1  0
 19 30  1  0
 19 31  1  0
 20 32  1  0
 20 33  1  0
 20 34  1  0
M  ISO  8  21  14  22  14  23  14  24  14  25  14  26  14  27  14  28   8
M  ISO  6  29   8  30   8  31   8  32   8  33   8  34   8
M  END
>  <minimizedAffinity>  (1) 
-5.85983658

>  <minimizedRMSD>  (1) 
0.576358736

$$$$
