
     RDKit          3D

 38 41  0  0  0  0  0  0  0  0999 V2000
   44.8220   34.8340   45.2130 C   0  0  0  0  0  0  0  0  0  0  0  0
   45.3110   35.0210   43.9210 C   0  0  0  0  0  0  0  0  0  0  0  0
   46.3940   34.3000   43.4780 C   0  0  0  0  0  0  0  0  0  0  0  0
   46.9570   33.4130   44.3350 N   0  0  0  0  0  0  0  0  0  0  0  0
   46.4790   33.2370   45.5810 C   0  0  0  0  0  0  0  0  0  0  0  0
   45.4320   33.9260   46.0270 N   0  0  0  0  0  0  0  0  0  0  0  0
   46.9880   34.4140   42.1520 C   0  0  0  0  0  0  0  0  0  0  0  0
   48.0670   35.1950   41.8610 C   0  0  0  0  0  0  0  0  0  0  0  0
   48.6380   35.3160   40.6210 C   0  0  0  0  0  0  0  0  0  0  0  0
   48.0860   34.6020   39.6150 N   0  0  0  0  0  0  0  0  0  0  0  0
   47.0340   33.8280   39.8570 C   0  0  0  0  0  0  0  0  0  0  0  0
   46.4760   33.7150   41.0830 N   0  0  0  0  0  0  0  0  0  0  0  0
   46.5010   33.1060   38.7610 N   0  0  0  0  0  0  0  0  0  0  0  0
   45.7310   32.0340   38.6320 N   0  0  0  0  0  0  0  0  0  0  0  0
   45.5100   31.7480   37.3520 C   0  0  0  0  0  0  0  0  0  0  0  0
   46.1880   32.7090   36.6130 C   0  0  0  0  0  0  0  0  0  0  0  0
   46.8050   33.5540   37.5130 C   0  0  0  0  0  0  0  0  0  0  0  0
   48.3650   30.4990   48.2010 C   0  0  0  0  0  0  0  0  0  0  0  0
   48.0320   31.7530   48.6860 C   0  0  0  0  0  0  0  0  0  0  0  0
   47.4220   32.5810   47.7660 C   0  0  0  0  0  0  0  0  0  0  0  0
   47.1300   32.2670   46.4550 C   0  0  0  0  0  0  0  0  0  0  0  0
   47.4860   31.0090   46.0370 C   0  0  0  0  0  0  0  0  0  0  0  0
   48.1070   30.1060   46.8960 C   0  0  0  0  0  0  0  0  0  0  0  0
   49.1460   29.3570   49.2740 S   0  0  0  0  0  0  0  0  0  0  0  0
   49.6060   30.0550   50.5400 O   0  0  0  0  0  0  0  0  0  0  0  0
   50.4120   28.8130   48.6440 O   0  0  0  0  0  0  0  0  0  0  0  0
   43.9563   35.4108   45.5707 H   0  0  0  0  0  0  0  0  0  0  0  0
   44.8278   35.7491   43.2529 H   0  0  0  0  0  0  0  0  0  0  0  0
   48.5133   35.7720   42.6843 H   0  0  0  0  0  0  0  0  0  0  0  0
   49.5086   35.9666   40.4517 H   0  0  0  0  0  0  0  0  0  0  0  0
   44.9094   30.9154   36.9569 H   0  0  0  0  0  0  0  0  0  0  0  0
   46.2260   32.7827   35.5161 H   0  0  0  0  0  0  0  0  0  0  0  0
   47.4269   34.4273   37.2670 H   0  0  0  0  0  0  0  0  0  0  0  0
   48.2373   32.0637   49.7210 H   0  0  0  0  0  0  0  0  0  0  0  0
   47.1419   33.5873   48.1109 H   0  0  0  0  0  0  0  0  0  0  0  0
   47.2760   30.7074   45.0002 H   0  0  0  0  0  0  0  0  0  0  0  0
   48.3873   29.1013   46.5467 H   0  0  0  0  0  0  0  0  0  0  0  0
   48.2349   28.3662   49.5294 H   0  0  0  0  0  0  0  0  0  0  0  0
  1  6  2  0
  2  1  1  0
  3  2  2  0
  3  4  1  0
  4  5  2  0
  5  6  1  0
  5 21  1  0
  7  3  1  0
  8  7  2  0
  9  8  1  0
 10 11  1  0
 10  9  2  0
 11 12  2  0
 12  7  1  0
 13 11  1  0
 14 13  1  0
 15 14  2  0
 16 15  1  0
 16 17  2  0
 17 13  1  0
 18 19  2  0
 18 24  1  0
 20 19  1  0
 21 20  2  0
 22 21  1  0
 22 23  2  0
 23 18  1  0
 24 25  2  0
 26 24  2  0
  1 27  1  0
  2 28  1  0
  8 29  1  0
  9 30  1  0
 15 31  1  0
 16 32  1  0
 17 33  1  0
 19 34  1  0
 20 35  1  0
 22 36  1  0
 23 37  1  0
 24 38  1  0
M  ISO  8  27  14  28  14  29  14  30  14  31  14  32  14  33  14  34  14
M  ISO  4  35  14  36  14  37  14  38  11
M  END
>  <minimizedAffinity>  (1) 
-6.0453434

>  <minimizedRMSD>  (1) 
1.47416019

$$$$
