
     RDKit          3D

 28 30  0  0  0  0  0  0  0  0999 V2000
   46.7510   34.7420   41.9760 C   0  0  0  0  0  0  0  0  0  0  0  0
   47.9910   35.3030   41.7520 C   0  0  0  0  0  0  0  0  0  0  0  0
   48.6920   35.1840   40.5770 C   0  0  0  0  0  0  0  0  0  0  0  0
   48.1190   34.4670   39.5810 N   0  0  0  0  0  0  0  0  0  0  0  0
   46.9270   33.9160   39.7720 C   0  0  0  0  0  0  0  0  0  0  0  0
   46.2580   34.0430   40.9230 N   0  0  0  0  0  0  0  0  0  0  0  0
   46.3840   33.1800   38.6940 N   0  0  0  0  0  0  0  0  0  0  0  0
   45.4350   32.2490   38.5840 N   0  0  0  0  0  0  0  0  0  0  0  0
   45.3190   31.8730   37.2930 C   0  0  0  0  0  0  0  0  0  0  0  0
   46.2400   32.6070   36.5650 C   0  0  0  0  0  0  0  0  0  0  0  0
   46.8880   33.4130   37.4680 C   0  0  0  0  0  0  0  0  0  0  0  0
   44.4800   35.9210   44.7510 C   0  0  0  0  0  0  0  0  0  0  0  0
   45.1240   35.8780   43.5030 C   0  0  0  0  0  0  0  0  0  0  0  0
   46.0280   34.8810   43.2290 C   0  0  0  0  0  0  0  0  0  0  0  0
   46.2660   33.9620   44.1950 N   0  0  0  0  0  0  0  0  0  0  0  0
   45.6480   34.0060   45.3870 C   0  0  0  0  0  0  0  0  0  0  0  0
   44.7660   34.9650   45.6770 N   0  0  0  0  0  0  0  0  0  0  0  0
   45.8900   33.0090   46.4670 C   0  0  0  0  0  0  0  0  0  0  0  0
   48.4480   35.8832   42.5672 H   0  0  0  0  0  0  0  0  0  0  0  0
   49.6792   35.6522   40.4499 H   0  0  0  0  0  0  0  0  0  0  0  0
   44.6216   31.1222   36.8931 H   0  0  0  0  0  0  0  0  0  0  0  0
   46.4170   32.5548   35.4806 H   0  0  0  0  0  0  0  0  0  0  0  0
   47.6869   34.1304   37.2290 H   0  0  0  0  0  0  0  0  0  0  0  0
   43.7545   36.7164   44.9768 H   0  0  0  0  0  0  0  0  0  0  0  0
   44.9039   36.6437   42.7445 H   0  0  0  0  0  0  0  0  0  0  0  0
   45.7722   33.4943   47.4471 H   0  0  0  0  0  0  0  0  0  0  0  0
   45.1654   32.1864   46.3757 H   0  0  0  0  0  0  0  0  0  0  0  0
   46.9110   32.6101   46.3757 H   0  0  0  0  0  0  0  0  0  0  0  0
  1 14  1  0
  2  1  2  0
  3  2  1  0
  4  5  1  0
  4  3  2  0
  5  6  2  0
  6  1  1  0
  7  5  1  0
  8  7  1  0
  9  8  2  0
 10  9  1  0
 10 11  2  0
 11  7  1  0
 12 17  2  0
 13 12  1  0
 14 13  2  0
 14 15  1  0
 15 16  2  0
 16 17  1  0
 16 18  1  0
  2 19  1  0
  3 20  1  0
  9 21  1  0
 10 22  1  0
 11 23  1  0
 12 24  1  0
 13 25  1  0
 18 26  1  0
 18 27  1  0
 18 28  1  0
M  ISO  8  19  14  20  14  21  14  22  14  23  14  24  14  25  14  26   8
M  ISO  2  27   8  28   8
M  END
>  <minimizedAffinity>  (1) 
-5.56588507

>  <minimizedRMSD>  (1) 
0.0585888214

$$$$
