
     RDKit          3D

 32 35  0  0  0  0  0  0  0  0999 V2000
   46.7260   34.7420   41.9950 C   0  0  0  0  0  0  0  0  0  0  0  0
   47.9680   35.2870   41.7670 C   0  0  0  0  0  0  0  0  0  0  0  0
   48.6730   35.1590   40.5980 C   0  0  0  0  0  0  0  0  0  0  0  0
   48.0960   34.4430   39.6030 N   0  0  0  0  0  0  0  0  0  0  0  0
   46.9000   33.9080   39.8000 C   0  0  0  0  0  0  0  0  0  0  0  0
   46.2020   34.0330   40.9530 N   0  0  0  0  0  0  0  0  0  0  0  0
   46.3410   33.1650   38.7210 N   0  0  0  0  0  0  0  0  0  0  0  0
   45.3990   32.2400   38.6020 N   0  0  0  0  0  0  0  0  0  0  0  0
   45.2630   31.8660   37.3310 C   0  0  0  0  0  0  0  0  0  0  0  0
   46.1850   32.6030   36.5830 C   0  0  0  0  0  0  0  0  0  0  0  0
   46.8420   33.4050   37.4800 C   0  0  0  0  0  0  0  0  0  0  0  0
   44.5310   35.9710   44.8050 C   0  0  0  0  0  0  0  0  0  0  0  0
   45.1740   35.9510   43.5510 C   0  0  0  0  0  0  0  0  0  0  0  0
   45.9990   34.8950   43.2480 C   0  0  0  0  0  0  0  0  0  0  0  0
   46.1450   33.9390   44.1740 N   0  0  0  0  0  0  0  0  0  0  0  0
   45.5430   33.9470   45.3640 C   0  0  0  0  0  0  0  0  0  0  0  0
   44.7310   34.9580   45.6950 N   0  0  0  0  0  0  0  0  0  0  0  0
   45.7880   32.8180   46.3090 C   0  0  0  0  0  0  0  0  0  0  0  0
   47.0110   32.7100   47.0980 C   0  0  0  0  0  0  0  0  0  0  0  0
   46.9130   31.9150   45.8260 C   0  0  0  0  0  0  0  0  0  0  0  0
   48.4285   35.8669   42.5804 H   0  0  0  0  0  0  0  0  0  0  0  0
   49.6648   35.6181   40.4733 H   0  0  0  0  0  0  0  0  0  0  0  0
   44.5570   31.1171   36.9427 H   0  0  0  0  0  0  0  0  0  0  0  0
   46.3499   32.5504   35.4967 H   0  0  0  0  0  0  0  0  0  0  0  0
   47.6400   34.1219   37.2367 H   0  0  0  0  0  0  0  0  0  0  0  0
   43.8655   36.8069   45.0664 H   0  0  0  0  0  0  0  0  0  0  0  0
   45.0182   36.7656   42.8284 H   0  0  0  0  0  0  0  0  0  0  0  0
   44.7335   32.7517   46.6149 H   0  0  0  0  0  0  0  0  0  0  0  0
   47.7005   33.5652   47.1544 H   0  0  0  0  0  0  0  0  0  0  0  0
   47.2279   32.4568   48.1462 H   0  0  0  0  0  0  0  0  0  0  0  0
   46.8022   30.8212   45.8608 H   0  0  0  0  0  0  0  0  0  0  0  0
   47.5090   31.8165   44.9067 H   0  0  0  0  0  0  0  0  0  0  0  0
  1 14  1  0
  2  1  2  0
  3  2  1  0
  4  5  1  0
  4  3  2  0
  5  6  2  0
  6  1  1  0
  7  5  1  0
  8  7  1  0
  9  8  2  0
 10  9  1  0
 10 11  2  0
 11  7  1  0
 12 17  2  0
 13 12  1  0
 14 13  2  0
 14 15  1  0
 15 16  2  0
 16 17  1  0
 16 18  1  0
 18 19  1  0
 20 18  1  0
 20 19  1  0
  2 21  1  0
  3 22  1  0
  9 23  1  0
 10 24  1  0
 11 25  1  0
 12 26  1  0
 13 27  1  0
 18 28  1  0
 19 29  1  0
 19 30  1  0
 20 31  1  0
 20 32  1  0
M  ISO  8  21  14  22  14  23  14  24  14  25  14  26  14  27  14  28  13
M  ISO  4  29  13  30  13  31  13  32  13
M  END
>  <minimizedAffinity>  (1) 
-5.80016708

>  <minimizedRMSD>  (1) 
0.0919332579

$$$$
