
     RDKit          3D

 31 32  0  0  0  0  0  0  0  0999 V2000
   45.9780   34.8910   42.7910 C   0  0  0  0  0  0  0  0  0  0  0  0
   45.2180   34.5070   45.0980 C   0  0  0  0  0  0  0  0  0  0  0  0
   46.1140   34.1410   44.0560 C   0  0  0  0  0  0  0  0  0  0  0  0
   47.0170   33.1270   44.3310 C   0  0  0  0  0  0  0  0  0  0  0  0
   47.0230   32.5310   45.5400 N   0  0  0  0  0  0  0  0  0  0  0  0
   46.1460   32.9080   46.5180 C   0  0  0  0  0  0  0  0  0  0  0  0
   45.2600   33.8790   46.3000 N   0  0  0  0  0  0  0  0  0  0  0  0
   47.3610   35.2600   42.2890 C   0  0  0  0  0  0  0  0  0  0  0  0
   45.1770   36.1450   43.0240 C   0  0  0  0  0  0  0  0  0  0  0  0
   45.2450   34.0410   41.7800 C   0  0  0  0  0  0  0  0  0  0  0  0
   46.0290   33.8740   40.5280 C   0  0  0  0  0  0  0  0  0  0  0  0
   47.3080   34.3820   40.5310 C   0  0  0  0  0  0  0  0  0  0  0  0
   48.1680   34.3080   39.4430 C   0  0  0  0  0  0  0  0  0  0  0  0
   47.6380   33.6690   38.3200 C   0  0  0  0  0  0  0  0  0  0  0  0
   46.3510   33.1540   38.3070 C   0  0  0  0  0  0  0  0  0  0  0  0
   45.5810   33.2690   39.4080 N   0  0  0  0  0  0  0  0  0  0  0  0
   44.4832   35.3076   44.9277 H   0  0  0  0  0  0  0  0  0  0  0  0
   47.7324   32.8068   43.5592 H   0  0  0  0  0  0  0  0  0  0  0  0
   46.1718   32.4044   47.4956 H   0  0  0  0  0  0  0  0  0  0  0  0
   48.0269   35.4377   43.1463 H   0  0  0  0  0  0  0  0  0  0  0  0
   47.7610   34.4372   41.6783 H   0  0  0  0  0  0  0  0  0  0  0  0
   47.2980   36.1727   41.6783 H   0  0  0  0  0  0  0  0  0  0  0  0
   45.0684   36.3151   44.1053 H   0  0  0  0  0  0  0  0  0  0  0  0
   45.6957   37.0014   42.5684 H   0  0  0  0  0  0  0  0  0  0  0  0
   44.1819   36.0344   42.5684 H   0  0  0  0  0  0  0  0  0  0  0  0
   45.0573   33.0494   42.2176 H   0  0  0  0  0  0  0  0  0  0  0  0
   44.3012   34.5467   41.5279 H   0  0  0  0  0  0  0  0  0  0  0  0
   47.6693   34.8741   41.4461 H   0  0  0  0  0  0  0  0  0  0  0  0
   49.1874   34.7207   39.4642 H   0  0  0  0  0  0  0  0  0  0  0  0
   48.2606   33.5714   37.4185 H   0  0  0  0  0  0  0  0  0  0  0  0
   45.9615   32.6561   37.4068 H   0  0  0  0  0  0  0  0  0  0  0  0
  1  9  1  0
  1  3  1  0
  2  7  2  0
  3  4  2  0
  3  2  1  0
  4  5  1  0
  5  6  2  0
  7  6  1  0
  8  1  1  0
 10  1  1  0
 11 12  2  0
 11 10  1  0
 13 12  1  0
 14 13  2  0
 15 14  1  0
 15 16  2  0
 16 11  1  0
  2 17  1  0
  4 18  1  0
  6 19  1  0
  8 20  1  0
  8 21  1  0
  8 22  1  0
  9 23  1  0
  9 24  1  0
  9 25  1  0
 10 26  1  0
 10 27  1  0
 12 28  1  0
 13 29  1  0
 14 30  1  0
 15 31  1  0
M  ISO  8  17  14  18  14  19  14  20   8  21   8  22   8  23   8  24   8
M  ISO  7  25   8  26   8  27   8  28  14  29  14  30  14  31  14
M  END
>  <minimizedAffinity>  (1) 
-4.62824202

>  <minimizedRMSD>  (1) 
1.89180434

$$$$
