
     RDKit          3D

 35 38  0  0  0  0  0  0  0  0999 V2000
   44.5070   36.0790   44.5360 C   0  0  0  0  0  0  0  0  0  0  0  0
   45.1590   36.0180   43.3080 C   0  0  0  0  0  0  0  0  0  0  0  0
   46.0400   34.9960   43.0450 C   0  0  0  0  0  0  0  0  0  0  0  0
   46.2340   34.0780   44.0180 N   0  0  0  0  0  0  0  0  0  0  0  0
   45.6020   34.1400   45.2070 C   0  0  0  0  0  0  0  0  0  0  0  0
   44.7490   35.1150   45.4820 N   0  0  0  0  0  0  0  0  0  0  0  0
   46.7790   34.8180   41.8120 C   0  0  0  0  0  0  0  0  0  0  0  0
   48.0250   35.3360   41.5840 C   0  0  0  0  0  0  0  0  0  0  0  0
   48.7480   35.1860   40.4330 C   0  0  0  0  0  0  0  0  0  0  0  0
   48.1850   34.4720   39.4500 N   0  0  0  0  0  0  0  0  0  0  0  0
   46.9800   33.9530   39.6320 C   0  0  0  0  0  0  0  0  0  0  0  0
   46.2720   34.0990   40.7590 N   0  0  0  0  0  0  0  0  0  0  0  0
   46.4230   33.1950   38.5480 N   0  0  0  0  0  0  0  0  0  0  0  0
   45.4490   32.3110   38.4290 N   0  0  0  0  0  0  0  0  0  0  0  0
   45.3290   31.8930   37.1690 C   0  0  0  0  0  0  0  0  0  0  0  0
   46.2970   32.5630   36.4400 C   0  0  0  0  0  0  0  0  0  0  0  0
   46.9810   33.3810   37.3170 C   0  0  0  0  0  0  0  0  0  0  0  0
   45.8120   33.1530   46.2520 C   0  0  0  0  0  0  0  0  0  0  0  0
   46.9490   32.3560   46.1590 C   0  0  0  0  0  0  0  0  0  0  0  0
   46.9100   31.5130   47.2620 C   0  0  0  0  0  0  0  0  0  0  0  0
   45.7570   31.8450   47.9610 C   0  0  0  0  0  0  0  0  0  0  0  0
   45.1630   32.8020   47.3260 O   0  0  0  0  0  0  0  0  0  0  0  0
   45.3140   31.2090   49.1950 C   0  0  0  0  0  0  0  0  0  0  0  0
   44.9730   29.9780   49.1750 O   0  0  0  0  0  0  0  0  0  0  0  0
   45.2560   31.9100   50.3870 O   0  0  0  0  0  0  0  0  0  0  0  0
   43.8012   36.8959   44.7472 H   0  0  0  0  0  0  0  0  0  0  0  0
   44.9691   36.7888   42.5466 H   0  0  0  0  0  0  0  0  0  0  0  0
   48.4832   35.9220   42.3943 H   0  0  0  0  0  0  0  0  0  0  0  0
   49.7472   35.6319   40.3197 H   0  0  0  0  0  0  0  0  0  0  0  0
   44.6042   31.1605   36.7843 H   0  0  0  0  0  0  0  0  0  0  0  0
   46.4861   32.4621   35.3611 H   0  0  0  0  0  0  0  0  0  0  0  0
   47.8157   34.0537   37.0705 H   0  0  0  0  0  0  0  0  0  0  0  0
   47.7192   32.3872   45.3743 H   0  0  0  0  0  0  0  0  0  0  0  0
   47.6444   30.7385   47.5282 H   0  0  0  0  0  0  0  0  0  0  0  0
   44.9518   31.4573   51.2132 H   0  0  0  0  0  0  0  0  0  0  0  0
  1  6  2  0
  2  1  1  0
  3  2  2  0
  3  4  1  0
  4  5  2  0
  5  6  1  0
  5 18  1  0
  7  3  1  0
  8  7  2  0
  9  8  1  0
 10 11  1  0
 10  9  2  0
 11 12  2  0
 12  7  1  0
 13 11  1  0
 14 13  1  0
 15 14  2  0
 16 15  1  0
 16 17  2  0
 17 13  1  0
 18 22  1  0
 19 18  2  0
 19 20  1  0
 20 21  2  0
 21 23  1  0
 22 21  1  0
 23 25  1  0
 24 23  2  0
  1 26  1  0
  2 27  1  0
  8 28  1  0
  9 29  1  0
 15 30  1  0
 16 31  1  0
 17 32  1  0
 19 33  1  0
 20 34  1  0
 25 35  1  0
M  ISO  8  26  14  27  14  28  14  29  14  30  14  31  14  32  14  33  14
M  ISO  2  34  14  35   3
M  END
>  <minimizedAffinity>  (1) 
-7.17151928

>  <minimizedRMSD>  (1) 
0.354278445

$$$$
