
     RDKit          3D

 29 30  0  0  0  0  0  0  0  0999 V2000
   45.8140   35.0560   42.7640 C   0  0  0  0  0  0  0  0  0  0  0  0
   46.8510   33.3530   44.2200 C   0  0  0  0  0  0  0  0  0  0  0  0
   45.8730   34.3780   44.0730 C   0  0  0  0  0  0  0  0  0  0  0  0
   45.0730   34.6360   45.1800 C   0  0  0  0  0  0  0  0  0  0  0  0
   45.2510   33.9220   46.3180 N   0  0  0  0  0  0  0  0  0  0  0  0
   46.1930   32.9570   46.4120 C   0  0  0  0  0  0  0  0  0  0  0  0
   46.9830   32.6750   45.3740 N   0  0  0  0  0  0  0  0  0  0  0  0
   47.2230   35.2240   42.2300 C   0  0  0  0  0  0  0  0  0  0  0  0
   45.1770   36.4120   42.9250 C   0  0  0  0  0  0  0  0  0  0  0  0
   44.9660   34.2520   41.8140 C   0  0  0  0  0  0  0  0  0  0  0  0
   43.6090   34.7800   41.6360 C   0  0  0  0  0  0  0  0  0  0  0  0
   43.1280   35.0150   40.3480 C   0  0  0  0  0  0  0  0  0  0  0  0
   41.8580   35.5010   40.4170 N   0  0  0  0  0  0  0  0  0  0  0  0
   41.5580   35.5660   41.7450 C   0  0  0  0  0  0  0  0  0  0  0  0
   42.6020   35.1370   42.4560 N   0  0  0  0  0  0  0  0  0  0  0  0
   47.5108   33.1114   43.3737 H   0  0  0  0  0  0  0  0  0  0  0  0
   44.2990   35.4161   45.1326 H   0  0  0  0  0  0  0  0  0  0  0  0
   46.3095   32.3990   47.3528 H   0  0  0  0  0  0  0  0  0  0  0  0
   47.9265   35.3079   43.0715 H   0  0  0  0  0  0  0  0  0  0  0  0
   47.4887   34.3512   41.6155 H   0  0  0  0  0  0  0  0  0  0  0  0
   47.2761   36.1348   41.6155 H   0  0  0  0  0  0  0  0  0  0  0  0
   45.0691   36.6417   43.9953 H   0  0  0  0  0  0  0  0  0  0  0  0
   45.8113   37.1740   42.4486 H   0  0  0  0  0  0  0  0  0  0  0  0
   44.1855   36.4102   42.4486 H   0  0  0  0  0  0  0  0  0  0  0  0
   45.4635   34.2377   40.8330 H   0  0  0  0  0  0  0  0  0  0  0  0
   44.8630   33.2474   42.2501 H   0  0  0  0  0  0  0  0  0  0  0  0
   43.6888   34.8352   39.4189 H   0  0  0  0  0  0  0  0  0  0  0  0
   40.6039   35.9174   42.1649 H   0  0  0  0  0  0  0  0  0  0  0  0
   42.6335   35.0861   43.4843 H   0  0  0  0  0  0  0  0  0  0  0  0
  1  9  1  0
  1  3  1  0
  2  7  2  0
  3  2  1  0
  3  4  2  0
  4  5  1  0
  5  6  2  0
  7  6  1  0
  8  1  1  0
 10  1  1  0
 11 10  1  0
 11 15  1  0
 12 13  1  0
 12 11  2  0
 13 14  2  0
 14 15  1  0
  2 16  1  0
  4 17  1  0
  6 18  1  0
  8 19  1  0
  8 20  1  0
  8 21  1  0
  9 22  1  0
  9 23  1  0
  9 24  1  0
 10 25  1  0
 10 26  1  0
 12 27  1  0
 14 28  1  0
 15 29  1  0
M  ISO  8  16  14  17  14  18  14  19   8  20   8  21   8  22   8  23   8
M  ISO  6  24   8  25   8  26   8  27  14  28  14  29   9
M  END
>  <minimizedAffinity>  (1) 
-4.57855654

>  <minimizedRMSD>  (1) 
3.33902812

$$$$
