
     RDKit          3D

 33 36  0  0  0  0  0  0  0  0999 V2000
   44.4630   36.1050   44.5480 C   0  0  0  0  0  0  0  0  0  0  0  0
   45.1250   36.0310   43.3140 C   0  0  0  0  0  0  0  0  0  0  0  0
   46.0090   35.0210   43.0780 C   0  0  0  0  0  0  0  0  0  0  0  0
   46.2040   34.1240   44.0700 N   0  0  0  0  0  0  0  0  0  0  0  0
   45.5730   34.1970   45.2440 C   0  0  0  0  0  0  0  0  0  0  0  0
   44.7130   35.1600   45.5060 N   0  0  0  0  0  0  0  0  0  0  0  0
   46.7600   34.8270   41.8490 C   0  0  0  0  0  0  0  0  0  0  0  0
   48.0160   35.3250   41.6270 C   0  0  0  0  0  0  0  0  0  0  0  0
   48.7470   35.1590   40.4830 C   0  0  0  0  0  0  0  0  0  0  0  0
   48.1790   34.4470   39.4980 N   0  0  0  0  0  0  0  0  0  0  0  0
   46.9620   33.9430   39.6670 C   0  0  0  0  0  0  0  0  0  0  0  0
   46.2610   34.1170   40.7950 N   0  0  0  0  0  0  0  0  0  0  0  0
   46.4110   33.1940   38.5820 N   0  0  0  0  0  0  0  0  0  0  0  0
   45.4300   32.3150   38.4590 N   0  0  0  0  0  0  0  0  0  0  0  0
   45.3100   31.8970   37.2080 C   0  0  0  0  0  0  0  0  0  0  0  0
   46.2860   32.5570   36.4790 C   0  0  0  0  0  0  0  0  0  0  0  0
   46.9760   33.3760   37.3570 C   0  0  0  0  0  0  0  0  0  0  0  0
   45.8000   33.2120   46.3100 C   0  0  0  0  0  0  0  0  0  0  0  0
   46.9160   32.4100   46.2230 C   0  0  0  0  0  0  0  0  0  0  0  0
   46.9040   31.5810   47.3280 C   0  0  0  0  0  0  0  0  0  0  0  0
   45.7600   31.9340   48.0330 C   0  0  0  0  0  0  0  0  0  0  0  0
   45.1420   32.8920   47.4030 O   0  0  0  0  0  0  0  0  0  0  0  0
   45.2330   31.1780   49.5680 S   0  0  0  0  0  0  0  0  0  0  0  0
   43.7476   36.9171   44.7447 H   0  0  0  0  0  0  0  0  0  0  0  0
   44.9312   36.7865   42.5383 H   0  0  0  0  0  0  0  0  0  0  0  0
   48.4764   35.9084   42.4380 H   0  0  0  0  0  0  0  0  0  0  0  0
   49.7537   35.5892   40.3756 H   0  0  0  0  0  0  0  0  0  0  0  0
   44.5798   31.1696   36.8237 H   0  0  0  0  0  0  0  0  0  0  0  0
   46.4776   32.4501   35.4011 H   0  0  0  0  0  0  0  0  0  0  0  0
   47.8159   34.0429   37.1125 H   0  0  0  0  0  0  0  0  0  0  0  0
   47.6732   32.4263   45.4252 H   0  0  0  0  0  0  0  0  0  0  0  0
   47.6409   30.8084   47.5925 H   0  0  0  0  0  0  0  0  0  0  0  0
   45.7319   31.8936   50.6244 H   0  0  0  0  0  0  0  0  0  0  0  0
  1  6  2  0
  2  1  1  0
  3  2  2  0
  3  4  1  0
  4  5  2  0
  5  6  1  0
  5 18  1  0
  7  3  1  0
  8  7  2  0
  9  8  1  0
 10 11  1  0
 10  9  2  0
 11 12  2  0
 12  7  1  0
 13 11  1  0
 14 13  1  0
 15 14  2  0
 16 15  1  0
 16 17  2  0
 17 13  1  0
 18 22  1  0
 19 18  2  0
 19 20  1  0
 20 21  2  0
 21 23  1  0
 22 21  1  0
  1 24  1  0
  2 25  1  0
  8 26  1  0
  9 27  1  0
 15 28  1  0
 16 29  1  0
 17 30  1  0
 19 31  1  0
 20 32  1  0
 23 33  1  0
M  ISO  8  24  14  25  14  26  14  27  14  28  14  29  14  30  14  31  14
M  ISO  2  32  14  33  11
M  END
>  <minimizedAffinity>  (1) 
-6.67685604

>  <minimizedRMSD>  (1) 
0.272368103

$$$$
