
     RDKit          3D

 35 36  0  0  0  0  0  0  0  0999 V2000
   45.3940   34.9130   42.6740 C   0  0  0  0  0  0  0  0  0  0  0  0
   45.1160   34.4790   45.0980 C   0  0  0  0  0  0  0  0  0  0  0  0
   45.8280   34.1590   43.9010 C   0  0  0  0  0  0  0  0  0  0  0  0
   46.8280   33.2120   44.0050 C   0  0  0  0  0  0  0  0  0  0  0  0
   47.0760   32.6500   45.2080 N   0  0  0  0  0  0  0  0  0  0  0  0
   46.3790   32.9750   46.3270 C   0  0  0  0  0  0  0  0  0  0  0  0
   45.4000   33.8870   46.2780 N   0  0  0  0  0  0  0  0  0  0  0  0
   46.5520   34.8230   41.6790 C   0  0  0  0  0  0  0  0  0  0  0  0
   45.1580   36.3540   43.0380 C   0  0  0  0  0  0  0  0  0  0  0  0
   44.1300   34.3210   42.1700 C   0  0  0  0  0  0  0  0  0  0  0  0
   43.3400   35.0630   41.2560 N   0  0  0  0  0  0  0  0  0  0  0  0
   43.3160   34.5230   39.9550 C   0  0  0  0  0  0  0  0  0  0  0  0
   42.2170   35.1660   39.0880 C   0  0  0  0  0  0  0  0  0  0  0  0
   41.0060   35.0490   39.7250 O   0  0  0  0  0  0  0  0  0  0  0  0
   41.0580   35.8660   40.8530 C   0  0  0  0  0  0  0  0  0  0  0  0
   42.0180   35.2090   41.8190 C   0  0  0  0  0  0  0  0  0  0  0  0
   44.3130   35.2296   45.0570 H   0  0  0  0  0  0  0  0  0  0  0  0
   47.4139   32.9197   43.1211 H   0  0  0  0  0  0  0  0  0  0  0  0
   46.6207   32.4850   47.2817 H   0  0  0  0  0  0  0  0  0  0  0  0
   47.5023   34.7491   42.2281 H   0  0  0  0  0  0  0  0  0  0  0  0
   46.4237   33.9321   41.0466 H   0  0  0  0  0  0  0  0  0  0  0  0
   46.5629   35.7230   41.0466 H   0  0  0  0  0  0  0  0  0  0  0  0
   45.1410   36.4575   44.1330 H   0  0  0  0  0  0  0  0  0  0  0  0
   45.9666   36.9740   42.6235 H   0  0  0  0  0  0  0  0  0  0  0  0
   44.1939   36.6837   42.6235 H   0  0  0  0  0  0  0  0  0  0  0  0
   44.3923   33.3744   41.6748 H   0  0  0  0  0  0  0  0  0  0  0  0
   43.4971   34.2476   43.0667 H   0  0  0  0  0  0  0  0  0  0  0  0
   44.2923   34.6975   39.4792 H   0  0  0  0  0  0  0  0  0  0  0  0
   43.1016   33.4471   40.0357 H   0  0  0  0  0  0  0  0  0  0  0  0
   42.1708   34.6545   38.1153 H   0  0  0  0  0  0  0  0  0  0  0  0
   42.4483   36.2300   38.9315 H   0  0  0  0  0  0  0  0  0  0  0  0
   41.4210   36.8677   40.5796 H   0  0  0  0  0  0  0  0  0  0  0  0
   40.0613   35.9842   41.3032 H   0  0  0  0  0  0  0  0  0  0  0  0
   41.6318   34.2128   42.0805 H   0  0  0  0  0  0  0  0  0  0  0  0
   42.0974   35.8521   42.7079 H   0  0  0  0  0  0  0  0  0  0  0  0
  1  9  1  0
  1  3  1  0
  2  7  2  0
  3  4  2  0
  3  2  1  0
  4  5  1  0
  5  6  2  0
  7  6  1  0
  8  1  1  0
 10  1  1  0
 11 16  1  0
 11 10  1  0
 12 11  1  0
 13 14  1  0
 13 12  1  0
 14 15  1  0
 15 16  1  0
  2 17  1  0
  4 18  1  0
  6 19  1  0
  8 20  1  0
  8 21  1  0
  8 22  1  0
  9 23  1  0
  9 24  1  0
  9 25  1  0
 10 26  1  0
 10 27  1  0
 12 28  1  0
 12 29  1  0
 13 30  1  0
 13 31  1  0
 15 32  1  0
 15 33  1  0
 16 34  1  0
 16 35  1  0
M  ISO  8  17  14  18  14  19  14  20   8  21   8  22   8  23   8  24   8
M  ISO  8  25   8  26   8  27   8  28  13  29  13  30  13  31  13  32  13
M  ISO  3  33  13  34  13  35  13
M  END
>  <minimizedAffinity>  (1) 
-4.42510366

>  <minimizedRMSD>  (1) 
1.2411021

$$$$
