
     RDKit          3D

 39 43  0  0  0  0  0  0  0  0999 V2000
   44.7280   35.4760   44.9340 C   0  0  0  0  0  0  0  0  0  0  0  0
   45.3740   35.6430   43.7070 C   0  0  0  0  0  0  0  0  0  0  0  0
   46.2770   34.6950   43.2800 C   0  0  0  0  0  0  0  0  0  0  0  0
   46.4900   33.6320   44.0950 N   0  0  0  0  0  0  0  0  0  0  0  0
   45.8690   33.4770   45.2700 C   0  0  0  0  0  0  0  0  0  0  0  0
   44.9870   34.3840   45.7070 N   0  0  0  0  0  0  0  0  0  0  0  0
   47.0180   34.7410   42.0310 C   0  0  0  0  0  0  0  0  0  0  0  0
   48.1470   35.4770   41.8370 C   0  0  0  0  0  0  0  0  0  0  0  0
   48.8590   35.5380   40.6780 C   0  0  0  0  0  0  0  0  0  0  0  0
   48.4090   34.8120   39.6440 N   0  0  0  0  0  0  0  0  0  0  0  0
   47.3110   34.0790   39.7850 C   0  0  0  0  0  0  0  0  0  0  0  0
   46.6120   34.0250   40.9350 N   0  0  0  0  0  0  0  0  0  0  0  0
   46.8810   33.3270   38.6480 N   0  0  0  0  0  0  0  0  0  0  0  0
   46.0730   32.2940   38.4690 N   0  0  0  0  0  0  0  0  0  0  0  0
   46.0100   31.9670   37.1770 C   0  0  0  0  0  0  0  0  0  0  0  0
   46.8250   32.8470   36.5030 C   0  0  0  0  0  0  0  0  0  0  0  0
   47.3730   33.7040   37.4380 C   0  0  0  0  0  0  0  0  0  0  0  0
   46.1000   32.3350   46.1390 C   0  0  0  0  0  0  0  0  0  0  0  0
   46.7770   32.5770   47.3340 C   0  0  0  0  0  0  0  0  0  0  0  0
   46.8740   31.3550   47.9780 C   0  0  0  0  0  0  0  0  0  0  0  0
   46.2460   30.4320   47.1310 C   0  0  0  0  0  0  0  0  0  0  0  0
   45.8210   31.0630   46.0860 O   0  0  0  0  0  0  0  0  0  0  0  0
   46.1050   29.0050   47.3990 C   0  0  0  0  0  0  0  0  0  0  0  0
   44.9730   28.3320   47.8140 C   0  0  0  0  0  0  0  0  0  0  0  0
   45.2820   26.9890   47.9480 C   0  0  0  0  0  0  0  0  0  0  0  0
   46.6200   26.9080   47.6000 C   0  0  0  0  0  0  0  0  0  0  0  0
   47.0740   28.0990   47.2850 O   0  0  0  0  0  0  0  0  0  0  0  0
   44.0056   36.2306   45.2786 H   0  0  0  0  0  0  0  0  0  0  0  0
   45.1629   36.5259   43.0858 H   0  0  0  0  0  0  0  0  0  0  0  0
   48.5142   36.0713   42.6867 H   0  0  0  0  0  0  0  0  0  0  0  0
   49.7648   36.1564   40.5933 H   0  0  0  0  0  0  0  0  0  0  0  0
   45.4197   31.1505   36.7354 H   0  0  0  0  0  0  0  0  0  0  0  0
   47.0070   32.8650   35.4183 H   0  0  0  0  0  0  0  0  0  0  0  0
   48.0716   34.5307   37.2416 H   0  0  0  0  0  0  0  0  0  0  0  0
   47.1576   33.5446   47.6930 H   0  0  0  0  0  0  0  0  0  0  0  0
   47.3454   31.1514   48.9508 H   0  0  0  0  0  0  0  0  0  0  0  0
   43.9900   28.7868   48.0061 H   0  0  0  0  0  0  0  0  0  0  0  0
   44.6156   26.1714   48.2602 H   0  0  0  0  0  0  0  0  0  0  0  0
   47.2145   25.9826   47.5891 H   0  0  0  0  0  0  0  0  0  0  0  0
  1  6  2  0
  2  1  1  0
  3  2  2  0
  3  4  1  0
  4  5  2  0
  5  6  1  0
  5 18  1  0
  7  3  1  0
  8  7  2  0
  9  8  1  0
 10 11  1  0
 10  9  2  0
 11 12  2  0
 12  7  1  0
 13 11  1  0
 14 13  1  0
 15 14  2  0
 16 15  1  0
 16 17  2  0
 17 13  1  0
 18 19  2  0
 19 20  1  0
 21 23  1  0
 21 20  2  0
 22 18  1  0
 22 21  1  0
 23 24  2  0
 24 25  1  0
 26 25  2  0
 27 23  1  0
 27 26  1  0
  1 28  1  0
  2 29  1  0
  8 30  1  0
  9 31  1  0
 15 32  1  0
 16 33  1  0
 17 34  1  0
 19 35  1  0
 20 36  1  0
 24 37  1  0
 25 38  1  0
 26 39  1  0
M  ISO  8  28  14  29  14  30  14  31  14  32  14  33  14  34  14  35  14
M  ISO  4  36  14  37  14  38  14  39  14
M  END
>  <minimizedAffinity>  (1) 
-6.54216814

>  <minimizedRMSD>  (1) 
2.0864768

$$$$
