
     RDKit          3D

 37 41  0  0  0  0  0  0  0  0999 V2000
   44.6780   35.4780   44.9860 C   0  0  0  0  0  0  0  0  0  0  0  0
   45.3210   35.6180   43.7580 C   0  0  0  0  0  0  0  0  0  0  0  0
   46.2410   34.6880   43.3540 C   0  0  0  0  0  0  0  0  0  0  0  0
   46.4920   33.6470   44.1850 N   0  0  0  0  0  0  0  0  0  0  0  0
   45.8760   33.5130   45.3600 C   0  0  0  0  0  0  0  0  0  0  0  0
   44.9740   34.4010   45.7840 N   0  0  0  0  0  0  0  0  0  0  0  0
   46.9820   34.7210   42.0940 C   0  0  0  0  0  0  0  0  0  0  0  0
   48.1160   35.4430   41.8910 C   0  0  0  0  0  0  0  0  0  0  0  0
   48.8270   35.4930   40.7260 C   0  0  0  0  0  0  0  0  0  0  0  0
   48.3640   34.7640   39.7020 N   0  0  0  0  0  0  0  0  0  0  0  0
   47.2580   34.0390   39.8500 C   0  0  0  0  0  0  0  0  0  0  0  0
   46.5710   34.0020   40.9980 N   0  0  0  0  0  0  0  0  0  0  0  0
   46.8180   33.2880   38.7230 N   0  0  0  0  0  0  0  0  0  0  0  0
   46.0230   32.2410   38.5570 N   0  0  0  0  0  0  0  0  0  0  0  0
   45.9310   31.9100   37.2740 C   0  0  0  0  0  0  0  0  0  0  0  0
   46.7230   32.8070   36.5770 C   0  0  0  0  0  0  0  0  0  0  0  0
   47.2780   33.6730   37.5020 C   0  0  0  0  0  0  0  0  0  0  0  0
   46.1350   32.3990   46.2660 C   0  0  0  0  0  0  0  0  0  0  0  0
   46.9250   32.6630   47.3820 C   0  0  0  0  0  0  0  0  0  0  0  0
   47.0210   31.4710   48.0700 C   0  0  0  0  0  0  0  0  0  0  0  0
   46.2900   30.5400   47.3470 C   0  0  0  0  0  0  0  0  0  0  0  0
   45.8030   31.1450   46.3120 O   0  0  0  0  0  0  0  0  0  0  0  0
   46.0080   29.1230   47.5430 C   0  0  0  0  0  0  0  0  0  0  0  0
   47.0140   28.2410   47.3860 N   0  0  0  0  0  0  0  0  0  0  0  0
   46.6170   27.0280   47.5900 O   0  0  0  0  0  0  0  0  0  0  0  0
   45.3410   27.1060   47.8850 C   0  0  0  0  0  0  0  0  0  0  0  0
   44.9250   28.3850   47.8660 N   0  0  0  0  0  0  0  0  0  0  0  0
   43.9392   36.2243   45.3134 H   0  0  0  0  0  0  0  0  0  0  0  0
   45.0891   36.4774   43.1118 H   0  0  0  0  0  0  0  0  0  0  0  0
   48.4927   36.0372   42.7366 H   0  0  0  0  0  0  0  0  0  0  0  0
   49.7374   36.1034   40.6329 H   0  0  0  0  0  0  0  0  0  0  0  0
   45.3411   31.0848   36.8484 H   0  0  0  0  0  0  0  0  0  0  0  0
   46.8815   32.8272   35.4887 H   0  0  0  0  0  0  0  0  0  0  0  0
   47.9592   34.5106   37.2911 H   0  0  0  0  0  0  0  0  0  0  0  0
   47.3798   33.6256   47.6586 H   0  0  0  0  0  0  0  0  0  0  0  0
   47.5692   31.2939   49.0071 H   0  0  0  0  0  0  0  0  0  0  0  0
   44.6990   26.2432   48.1163 H   0  0  0  0  0  0  0  0  0  0  0  0
  1  6  2  0
  2  1  1  0
  3  2  2  0
  3  4  1  0
  4  5  2  0
  5  6  1  0
  5 18  1  0
  7  3  1  0
  8  7  2  0
  9  8  1  0
 10 11  1  0
 10  9  2  0
 11 12  2  0
 12  7  1  0
 13 11  1  0
 14 13  1  0
 15 14  2  0
 16 15  1  0
 16 17  2  0
 17 13  1  0
 18 22  1  0
 18 19  2  0
 19 20  1  0
 21 23  1  0
 21 20  2  0
 22 21  1  0
 23 27  1  0
 24 23  2  0
 24 25  1  0
 25 26  1  0
 27 26  2  0
  1 28  1  0
  2 29  1  0
  8 30  1  0
  9 31  1  0
 15 32  1  0
 16 33  1  0
 17 34  1  0
 19 35  1  0
 20 36  1  0
 26 37  1  0
M  ISO  8  28  14  29  14  30  14  31  14  32  14  33  14  34  14  35  14
M  ISO  2  36  14  37  14
M  END
>  <minimizedAffinity>  (1) 
-6.56023026

>  <minimizedRMSD>  (1) 
2.09823179

$$$$
