
     RDKit          3D

 41 44  0  0  0  0  0  0  0  0999 V2000
   44.6500   35.7290   44.6790 C   0  0  0  0  0  0  0  0  0  0  0  0
   45.3050   35.8100   43.4480 C   0  0  0  0  0  0  0  0  0  0  0  0
   46.2240   34.8490   43.1010 C   0  0  0  0  0  0  0  0  0  0  0  0
   46.4560   33.8520   43.9880 N   0  0  0  0  0  0  0  0  0  0  0  0
   45.8280   33.7740   45.1680 C   0  0  0  0  0  0  0  0  0  0  0  0
   44.9290   34.6910   45.5350 N   0  0  0  0  0  0  0  0  0  0  0  0
   46.9740   34.8130   41.8590 C   0  0  0  0  0  0  0  0  0  0  0  0
   48.1480   35.4920   41.6540 C   0  0  0  0  0  0  0  0  0  0  0  0
   48.8780   35.4800   40.5000 C   0  0  0  0  0  0  0  0  0  0  0  0
   48.3980   34.7380   39.4880 N   0  0  0  0  0  0  0  0  0  0  0  0
   47.2630   34.0660   39.6460 C   0  0  0  0  0  0  0  0  0  0  0  0
   46.5440   34.0790   40.7860 N   0  0  0  0  0  0  0  0  0  0  0  0
   46.8090   33.2940   38.5240 N   0  0  0  0  0  0  0  0  0  0  0  0
   45.9650   32.2950   38.3720 N   0  0  0  0  0  0  0  0  0  0  0  0
   45.8810   31.9170   37.1030 C   0  0  0  0  0  0  0  0  0  0  0  0
   46.7360   32.7380   36.4040 C   0  0  0  0  0  0  0  0  0  0  0  0
   47.3250   33.6130   37.3080 C   0  0  0  0  0  0  0  0  0  0  0  0
   46.0670   32.7110   46.1240 C   0  0  0  0  0  0  0  0  0  0  0  0
   47.1850   31.9000   45.9010 C   0  0  0  0  0  0  0  0  0  0  0  0
   47.1970   30.9760   46.9340 C   0  0  0  0  0  0  0  0  0  0  0  0
   46.0850   31.2700   47.7330 C   0  0  0  0  0  0  0  0  0  0  0  0
   45.4730   32.2830   47.2140 O   0  0  0  0  0  0  0  0  0  0  0  0
   45.7060   30.5250   48.9620 C   0  0  0  0  0  0  0  0  0  0  0  0
   44.8590   31.3880   49.8690 C   0  0  0  0  0  0  0  0  0  0  0  0
   44.9860   29.2360   48.6350 C   0  0  0  0  0  0  0  0  0  0  0  0
   43.9126   36.4944   44.9625 H   0  0  0  0  0  0  0  0  0  0  0  0
   45.0862   36.6394   42.7593 H   0  0  0  0  0  0  0  0  0  0  0  0
   48.5335   36.0963   42.4884 H   0  0  0  0  0  0  0  0  0  0  0  0
   49.8137   36.0502   40.4036 H   0  0  0  0  0  0  0  0  0  0  0  0
   45.2549   31.1109   36.6929 H   0  0  0  0  0  0  0  0  0  0  0  0
   46.9206   32.7069   35.3200 H   0  0  0  0  0  0  0  0  0  0  0  0
   48.0584   34.4020   37.0853 H   0  0  0  0  0  0  0  0  0  0  0  0
   47.9069   31.9794   45.0748 H   0  0  0  0  0  0  0  0  0  0  0  0
   47.9320   30.1734   47.0940 H   0  0  0  0  0  0  0  0  0  0  0  0
   46.6355   30.2636   49.4890 H   0  0  0  0  0  0  0  0  0  0  0  0
   45.0894   31.1532   50.9187 H   0  0  0  0  0  0  0  0  0  0  0  0
   45.0766   32.4485   49.6742 H   0  0  0  0  0  0  0  0  0  0  0  0
   43.7946   31.1903   49.6742 H   0  0  0  0  0  0  0  0  0  0  0  0
   44.7021   28.7277   49.5683 H   0  0  0  0  0  0  0  0  0  0  0  0
   44.0820   29.4593   48.0494 H   0  0  0  0  0  0  0  0  0  0  0  0
   45.6502   28.5834   48.0494 H   0  0  0  0  0  0  0  0  0  0  0  0
  1  6  2  0
  2  1  1  0
  3  2  2  0
  3  4  1  0
  4  5  2  0
  5  6  1  0
  5 18  1  0
  7  3  1  0
  8  7  2  0
  9  8  1  0
 10 11  1  0
 10  9  2  0
 11 12  2  0
 12  7  1  0
 13 11  1  0
 14 13  1  0
 15 14  2  0
 16 15  1  0
 16 17  2  0
 17 13  1  0
 18 22  1  0
 19 18  2  0
 19 20  1  0
 20 21  2  0
 21 23  1  0
 22 21  1  0
 23 24  1  0
 25 23  1  0
  1 26  1  0
  2 27  1  0
  8 28  1  0
  9 29  1  0
 15 30  1  0
 16 31  1  0
 17 32  1  0
 19 33  1  0
 20 34  1  0
 23 35  1  0
 24 36  1  0
 24 37  1  0
 24 38  1  0
 25 39  1  0
 25 40  1  0
 25 41  1  0
M  ISO  8  26  14  27  14  28  14  29  14  30  14  31  14  32  14  33  14
M  ISO  8  34  14  35   8  36   8  37   8  38   8  39   8  40   8  41   8
M  END
>  <minimizedAffinity>  (1) 
-6.39413309

>  <minimizedRMSD>  (1) 
0.649979591

$$$$
