
     RDKit          3D

 48 52  0  0  0  0  0  0  0  0999 V2000
   44.5020   35.4490   42.9120 C   0  0  0  0  0  0  0  0  0  0  0  0
   44.9400   35.2230   41.6070 C   0  0  0  0  0  0  0  0  0  0  0  0
   45.8860   34.2630   41.3620 C   0  0  0  0  0  0  0  0  0  0  0  0
   46.3480   33.5720   42.4330 N   0  0  0  0  0  0  0  0  0  0  0  0
   45.9270   33.7880   43.6830 C   0  0  0  0  0  0  0  0  0  0  0  0
   45.0160   34.7090   43.9450 N   0  0  0  0  0  0  0  0  0  0  0  0
   46.4320   33.9220   40.0640 C   0  0  0  0  0  0  0  0  0  0  0  0
   47.7110   34.2340   39.6600 C   0  0  0  0  0  0  0  0  0  0  0  0
   48.2500   33.9260   38.4480 C   0  0  0  0  0  0  0  0  0  0  0  0
   47.4690   33.2650   37.5830 N   0  0  0  0  0  0  0  0  0  0  0  0
   46.2310   32.9400   37.9200 C   0  0  0  0  0  0  0  0  0  0  0  0
   45.7150   33.2540   39.1250 N   0  0  0  0  0  0  0  0  0  0  0  0
   45.4510   32.2390   36.9610 N   0  0  0  0  0  0  0  0  0  0  0  0
   44.3580   31.4960   37.0120 N   0  0  0  0  0  0  0  0  0  0  0  0
   44.0200   31.0570   35.8040 C   0  0  0  0  0  0  0  0  0  0  0  0
   44.9590   31.5550   34.9280 C   0  0  0  0  0  0  0  0  0  0  0  0
   45.8640   32.3040   35.6640 C   0  0  0  0  0  0  0  0  0  0  0  0
   46.4380   33.0320   44.8280 C   0  0  0  0  0  0  0  0  0  0  0  0
   47.1470   31.8770   44.5690 C   0  0  0  0  0  0  0  0  0  0  0  0
   47.5130   31.3580   45.7930 C   0  0  0  0  0  0  0  0  0  0  0  0
   47.0050   32.2330   46.7460 C   0  0  0  0  0  0  0  0  0  0  0  0
   46.3930   33.1830   46.1210 O   0  0  0  0  0  0  0  0  0  0  0  0
   47.1330   32.1140   48.2030 C   0  0  0  0  0  0  0  0  0  0  0  0
   45.8410   32.3690   48.9530 C   0  0  0  0  0  0  0  0  0  0  0  0
   44.7490   31.4130   48.6070 C   0  0  0  0  0  0  0  0  0  0  0  0
   45.1420   29.9880   48.5150 C   0  0  0  0  0  0  0  0  0  0  0  0
   46.5690   29.6770   48.3270 C   0  0  0  0  0  0  0  0  0  0  0  0
   47.5620   30.7330   48.6350 C   0  0  0  0  0  0  0  0  0  0  0  0
   43.7443   36.2209   43.1120 H   0  0  0  0  0  0  0  0  0  0  0  0
   44.5267   35.8143   40.7766 H   0  0  0  0  0  0  0  0  0  0  0  0
   48.3487   34.7758   40.3740 H   0  0  0  0  0  0  0  0  0  0  0  0
   49.2817   34.2076   38.1904 H   0  0  0  0  0  0  0  0  0  0  0  0
   43.1588   30.4204   35.5529 H   0  0  0  0  0  0  0  0  0  0  0  0
   44.9859   31.3885   33.8410 H   0  0  0  0  0  0  0  0  0  0  0  0
   46.7413   32.8436   35.2778 H   0  0  0  0  0  0  0  0  0  0  0  0
   47.3755   31.4533   43.5799 H   0  0  0  0  0  0  0  0  0  0  0  0
   48.0892   30.4393   45.9775 H   0  0  0  0  0  0  0  0  0  0  0  0
   47.8857   32.8784   48.4462 H   0  0  0  0  0  0  0  0  0  0  0  0
   46.0437   32.2895   50.0312 H   0  0  0  0  0  0  0  0  0  0  0  0
   45.4940   33.3722   48.6645 H   0  0  0  0  0  0  0  0  0  0  0  0
   43.9693   31.4985   49.3782 H   0  0  0  0  0  0  0  0  0  0  0  0
   44.4148   31.6954   47.5978 H   0  0  0  0  0  0  0  0  0  0  0  0
   44.8201   29.4988   49.4462 H   0  0  0  0  0  0  0  0  0  0  0  0
   44.6579   29.6274   47.5954 H   0  0  0  0  0  0  0  0  0  0  0  0
   46.8018   28.8135   48.9674 H   0  0  0  0  0  0  0  0  0  0  0  0
   46.6721   29.5132   47.2442 H   0  0  0  0  0  0  0  0  0  0  0  0
   48.5029   30.4852   48.1218 H   0  0  0  0  0  0  0  0  0  0  0  0
   47.6747   30.7590   49.7289 H   0  0  0  0  0  0  0  0  0  0  0  0
  1  6  2  0
  2  1  1  0
  3  2  2  0
  3  4  1  0
  4  5  2  0
  5  6  1  0
  5 18  1  0
  7  3  1  0
  8  7  2  0
  9  8  1  0
 10 11  1  0
 10  9  2  0
 11 12  2  0
 12  7  1  0
 13 14  1  0
 13 11  1  0
 15 14  2  0
 16 17  2  0
 16 15  1  0
 17 13  1  0
 18 22  1  0
 19 18  2  0
 19 20  1  0
 20 21  2  0
 21 23  1  0
 22 21  1  0
 23 28  1  0
 23 24  1  0
 25 24  1  0
 26 25  1  0
 27 26  1  0
 27 28  1  0
  1 29  1  0
  2 30  1  0
  8 31  1  0
  9 32  1  0
 15 33  1  0
 16 34  1  0
 17 35  1  0
 19 36  1  0
 20 37  1  0
 23 38  1  0
 24 39  1  0
 24 40  1  0
 25 41  1  0
 25 42  1  0
 26 43  1  0
 26 44  1  0
 27 45  1  0
 27 46  1  0
 28 47  1  0
 28 48  1  0
M  ISO  8  29  14  30  14  31  14  32  14  33  14  34  14  35  14  36  14
M  ISO  8  37  14  38  13  39  13  40  13  41  13  42  13  43  13  44  13
M  ISO  4  45  13  46  13  47  13  48  13
M  END
>  <minimizedAffinity>  (1) 
-6.33642197

>  <minimizedRMSD>  (1) 
2.13668203

$$$$
