
     RDKit          3D

 40 44  0  0  0  0  0  0  0  0999 V2000
   44.5270   35.9310   44.7200 C   0  0  0  0  0  0  0  0  0  0  0  0
   45.1800   35.9200   43.4840 C   0  0  0  0  0  0  0  0  0  0  0  0
   46.0620   34.9260   43.1790 C   0  0  0  0  0  0  0  0  0  0  0  0
   46.2730   33.9660   44.1160 N   0  0  0  0  0  0  0  0  0  0  0  0
   45.6500   33.9690   45.3040 C   0  0  0  0  0  0  0  0  0  0  0  0
   44.7820   34.9330   45.6260 N   0  0  0  0  0  0  0  0  0  0  0  0
   46.8010   34.8000   41.9360 C   0  0  0  0  0  0  0  0  0  0  0  0
   48.0160   35.3670   41.7010 C   0  0  0  0  0  0  0  0  0  0  0  0
   48.7440   35.2700   40.5410 C   0  0  0  0  0  0  0  0  0  0  0  0
   48.1990   34.5500   39.5580 N   0  0  0  0  0  0  0  0  0  0  0  0
   47.0220   33.9760   39.7300 C   0  0  0  0  0  0  0  0  0  0  0  0
   46.3220   34.0810   40.8740 N   0  0  0  0  0  0  0  0  0  0  0  0
   46.4910   33.2180   38.6360 N   0  0  0  0  0  0  0  0  0  0  0  0
   45.5720   32.2690   38.5230 N   0  0  0  0  0  0  0  0  0  0  0  0
   45.4450   31.8830   37.2560 C   0  0  0  0  0  0  0  0  0  0  0  0
   46.3340   32.6320   36.5300 C   0  0  0  0  0  0  0  0  0  0  0  0
   46.9940   33.4770   37.4100 C   0  0  0  0  0  0  0  0  0  0  0  0
   45.8700   32.9360   46.3140 C   0  0  0  0  0  0  0  0  0  0  0  0
   45.2050   33.0780   47.5250 C   0  0  0  0  0  0  0  0  0  0  0  0
   45.5600   32.0160   48.2970 C   0  0  0  0  0  0  0  0  0  0  0  0
   46.4420   31.2480   47.5230 C   0  0  0  0  0  0  0  0  0  0  0  0
   46.5760   31.8450   46.3800 O   0  0  0  0  0  0  0  0  0  0  0  0
   47.0790   30.0060   47.9490 C   0  0  0  0  0  0  0  0  0  0  0  0
   46.3880   28.9670   48.0140 O   0  0  0  0  0  0  0  0  0  0  0  0
   48.5190   29.9640   48.2990 C   0  0  0  0  0  0  0  0  0  0  0  0
   48.7930   30.7010   49.5640 C   0  0  0  0  0  0  0  0  0  0  0  0
   50.6470   30.3980   49.6140 S   0  0  0  0  0  0  0  0  0  0  0  0
   50.6730   29.3920   48.0030 C   0  0  0  0  0  0  0  0  0  0  0  0
   49.4030   29.3430   47.5560 N   0  0  0  0  0  0  0  0  0  0  0  0
   43.8148   36.7330   44.9640 H   0  0  0  0  0  0  0  0  0  0  0  0
   44.9811   36.7178   42.7533 H   0  0  0  0  0  0  0  0  0  0  0  0
   48.4560   35.9586   42.5173 H   0  0  0  0  0  0  0  0  0  0  0  0
   49.7229   35.7589   40.4279 H   0  0  0  0  0  0  0  0  0  0  0  0
   44.7610   31.1140   36.8676 H   0  0  0  0  0  0  0  0  0  0  0  0
   46.4953   32.5735   35.4435 H   0  0  0  0  0  0  0  0  0  0  0  0
   47.7727   34.2122   37.1589 H   0  0  0  0  0  0  0  0  0  0  0  0
   44.5220   33.8932   47.8060 H   0  0  0  0  0  0  0  0  0  0  0  0
   45.2231   31.8024   49.3221 H   0  0  0  0  0  0  0  0  0  0  0  0
   48.1259   31.2463   50.2478 H   0  0  0  0  0  0  0  0  0  0  0  0
   51.5544   28.9374   47.5271 H   0  0  0  0  0  0  0  0  0  0  0  0
  1  6  2  0
  2  1  1  0
  3  2  2  0
  3  4  1  0
  4  5  2  0
  5  6  1  0
  5 18  1  0
  7  3  1  0
  8  7  2  0
  9  8  1  0
 10 11  1  0
 10  9  2  0
 11 12  2  0
 12  7  1  0
 13 11  1  0
 14 13  1  0
 15 14  2  0
 16 15  1  0
 16 17  2  0
 17 13  1  0
 18 22  1  0
 18 19  2  0
 19 20  1  0
 21 23  1  0
 21 20  2  0
 22 21  1  0
 23 24  2  0
 23 25  1  0
 25 26  2  0
 26 27  1  0
 28 27  1  0
 29 28  2  0
 29 25  1  0
  1 30  1  0
  2 31  1  0
  8 32  1  0
  9 33  1  0
 15 34  1  0
 16 35  1  0
 17 36  1  0
 19 37  1  0
 20 38  1  0
 26 39  1  0
 28 40  1  0
M  ISO  8  30  14  31  14  32  14  33  14  34  14  35  14  36  14  37  14
M  ISO  3  38  14  39  14  40  14
M  END
>  <minimizedAffinity>  (1) 
-6.87621403

>  <minimizedRMSD>  (1) 
2.69900656

$$$$
