
     RDKit          3D

 30 32  0  0  0  0  0  0  0  0999 V2000
   45.7200   35.6380   43.1520 C   0  0  0  0  0  0  0  0  0  0  0  0
   46.4030   34.4150   43.5000 C   0  0  0  0  0  0  0  0  0  0  0  0
   46.0750   33.7970   44.6880 C   0  0  0  0  0  0  0  0  0  0  0  0
   45.1130   34.4620   45.4040 N   0  0  0  0  0  0  0  0  0  0  0  0
   44.4920   35.5700   45.0960 C   0  0  0  0  0  0  0  0  0  0  0  0
   44.7940   36.1740   43.9520 N   0  0  0  0  0  0  0  0  0  0  0  0
   46.6500   32.5160   45.1300 C   0  0  0  0  0  0  0  0  0  0  0  0
   47.3780   31.6940   44.3980 N   0  0  0  0  0  0  0  0  0  0  0  0
   47.9030   30.5560   44.7900 C   0  0  0  0  0  0  0  0  0  0  0  0
   47.7360   30.1050   46.0390 N   0  0  0  0  0  0  0  0  0  0  0  0
   47.0000   30.8730   46.8930 C   0  0  0  0  0  0  0  0  0  0  0  0
   46.8660   30.3750   48.1600 C   0  0  0  0  0  0  0  0  0  0  0  0
   46.1430   31.1110   49.0690 C   0  0  0  0  0  0  0  0  0  0  0  0
   45.5870   32.3090   48.6720 C   0  0  0  0  0  0  0  0  0  0  0  0
   45.7800   32.7200   47.3750 C   0  0  0  0  0  0  0  0  0  0  0  0
   46.4840   32.0500   46.4060 C   0  0  0  0  0  0  0  0  0  0  0  0
   47.4510   33.8720   42.6320 C   0  0  0  0  0  0  0  0  0  0  0  0
   47.9720   35.0030   41.7290 C   0  0  0  0  0  0  0  0  0  0  0  0
   45.9678   36.1407   42.2055 H   0  0  0  0  0  0  0  0  0  0  0  0
   43.7340   35.9942   45.7709 H   0  0  0  0  0  0  0  0  0  0  0  0
   48.4924   29.9609   44.0769 H   0  0  0  0  0  0  0  0  0  0  0  0
   47.3227   29.4151   48.4430 H   0  0  0  0  0  0  0  0  0  0  0  0
   46.0099   30.7490   50.0992 H   0  0  0  0  0  0  0  0  0  0  0  0
   45.0035   32.9204   49.3761 H   0  0  0  0  0  0  0  0  0  0  0  0
   45.3261   33.6792   47.0853 H   0  0  0  0  0  0  0  0  0  0  0  0
   48.2744   33.4785   43.2461 H   0  0  0  0  0  0  0  0  0  0  0  0
   47.0451   33.0555   42.0168 H   0  0  0  0  0  0  0  0  0  0  0  0
   48.3509   35.8256   42.3533 H   0  0  0  0  0  0  0  0  0  0  0  0
   48.7846   34.6203   41.0940 H   0  0  0  0  0  0  0  0  0  0  0  0
   47.1531   35.3719   41.0940 H   0  0  0  0  0  0  0  0  0  0  0  0
  1  2  2  0
  1  6  1  0
  2  3  1  0
  3  7  1  0
  3  4  2  0
  5  4  1  0
  6  5  2  0
  7 16  2  0
  8  9  2  0
  8  7  1  0
  9 10  1  0
 10 11  2  0
 11 12  1  0
 12 13  2  0
 14 13  1  0
 15 14  2  0
 16 11  1  0
 16 15  1  0
 17  2  1  0
 18 17  1  0
  1 19  1  0
  5 20  1  0
  9 21  1  0
 12 22  1  0
 13 23  1  0
 14 24  1  0
 15 25  1  0
 17 26  1  0
 17 27  1  0
 18 28  1  0
 18 29  1  0
 18 30  1  0
M  ISO  8  19  14  20  14  21  14  22  14  23  14  24  14  25  14  26   8
M  ISO  4  27   8  28   8  29   8  30   8
M  END
>  <minimizedAffinity>  (1) 
-5.46839523

>  <minimizedRMSD>  (1) 
3.14429021

$$$$
