
     RDKit          3D

 41 45  0  0  0  0  0  0  0  0999 V2000
   44.5420   36.1210   44.6150 C   0  0  0  0  0  0  0  0  0  0  0  0
   45.2150   36.0640   43.3900 C   0  0  0  0  0  0  0  0  0  0  0  0
   46.0280   35.0150   43.1020 C   0  0  0  0  0  0  0  0  0  0  0  0
   46.1640   34.0300   44.0360 N   0  0  0  0  0  0  0  0  0  0  0  0
   45.5150   34.0830   45.2180 C   0  0  0  0  0  0  0  0  0  0  0  0
   44.7090   35.1090   45.5240 N   0  0  0  0  0  0  0  0  0  0  0  0
   46.7770   34.8390   41.8730 C   0  0  0  0  0  0  0  0  0  0  0  0
   48.0230   35.3500   41.6400 C   0  0  0  0  0  0  0  0  0  0  0  0
   48.7570   35.2020   40.4940 C   0  0  0  0  0  0  0  0  0  0  0  0
   48.2020   34.4910   39.5080 N   0  0  0  0  0  0  0  0  0  0  0  0
   46.9820   33.9690   39.6890 C   0  0  0  0  0  0  0  0  0  0  0  0
   46.2990   34.1330   40.8140 N   0  0  0  0  0  0  0  0  0  0  0  0
   46.4450   33.2180   38.5970 N   0  0  0  0  0  0  0  0  0  0  0  0
   45.4940   32.3090   38.4710 N   0  0  0  0  0  0  0  0  0  0  0  0
   45.3670   31.9030   37.2200 C   0  0  0  0  0  0  0  0  0  0  0  0
   46.3080   32.6060   36.4860 C   0  0  0  0  0  0  0  0  0  0  0  0
   46.9820   33.4320   37.3630 C   0  0  0  0  0  0  0  0  0  0  0  0
   45.6440   33.0480   46.2280 C   0  0  0  0  0  0  0  0  0  0  0  0
   45.1140   33.3170   47.4990 C   0  0  0  0  0  0  0  0  0  0  0  0
   45.3540   32.2100   48.2610 C   0  0  0  0  0  0  0  0  0  0  0  0
   46.0200   31.3130   47.4260 C   0  0  0  0  0  0  0  0  0  0  0  0
   46.1540   31.8580   46.2700 O   0  0  0  0  0  0  0  0  0  0  0  0
   46.4450   29.9960   47.9050 C   0  0  0  0  0  0  0  0  0  0  0  0
   47.5950   29.8510   48.3920 O   0  0  0  0  0  0  0  0  0  0  0  0
   45.4960   28.8370   47.8070 C   0  0  0  0  0  0  0  0  0  0  0  0
   44.5120   28.7480   46.7210 C   0  0  0  0  0  0  0  0  0  0  0  0
   45.7520   27.9760   46.5380 C   0  0  0  0  0  0  0  0  0  0  0  0
   43.8839   36.9714   44.8469 H   0  0  0  0  0  0  0  0  0  0  0  0
   45.0850   36.8731   42.6562 H   0  0  0  0  0  0  0  0  0  0  0  0
   48.4797   35.9363   42.4509 H   0  0  0  0  0  0  0  0  0  0  0  0
   49.7572   35.6477   40.3896 H   0  0  0  0  0  0  0  0  0  0  0  0
   44.6559   31.1558   36.8378 H   0  0  0  0  0  0  0  0  0  0  0  0
   46.4855   32.5217   35.4037 H   0  0  0  0  0  0  0  0  0  0  0  0
   47.7959   34.1288   37.1137 H   0  0  0  0  0  0  0  0  0  0  0  0
   44.6053   34.2385   47.8185 H   0  0  0  0  0  0  0  0  0  0  0  0
   45.0791   32.0571   49.3151 H   0  0  0  0  0  0  0  0  0  0  0  0
   45.4034   28.7217   48.8970 H   0  0  0  0  0  0  0  0  0  0  0  0
   43.5655   28.2147   46.8936 H   0  0  0  0  0  0  0  0  0  0  0  0
   43.9945   29.5008   46.1082 H   0  0  0  0  0  0  0  0  0  0  0  0
   45.7369   26.8778   46.5994 H   0  0  0  0  0  0  0  0  0  0  0  0
   46.5379   27.9145   45.7708 H   0  0  0  0  0  0  0  0  0  0  0  0
  1  6  2  0
  2  1  1  0
  3  2  2  0
  3  4  1  0
  4  5  2  0
  5  6  1  0
  5 18  1  0
  7  3  1  0
  8  7  2  0
  9  8  1  0
 10 11  1  0
 10  9  2  0
 11 12  2  0
 12  7  1  0
 13 11  1  0
 14 13  1  0
 15 14  2  0
 16 15  1  0
 16 17  2  0
 17 13  1  0
 18 22  1  0
 18 19  2  0
 19 20  1  0
 21 23  1  0
 21 20  2  0
 22 21  1  0
 23 24  2  0
 25 23  1  0
 26 25  1  0
 27 26  1  0
 27 25  1  0
  1 28  1  0
  2 29  1  0
  8 30  1  0
  9 31  1  0
 15 32  1  0
 16 33  1  0
 17 34  1  0
 19 35  1  0
 20 36  1  0
 25 37  1  0
 26 38  1  0
 26 39  1  0
 27 40  1  0
 27 41  1  0
M  ISO  8  28  14  29  14  30  14  31  14  32  14  33  14  34  14  35  14
M  ISO  6  36  14  37  13  38  13  39  13  40  13  41  13
M  END
>  <minimizedAffinity>  (1) 
-6.57271147

>  <minimizedRMSD>  (1) 
2.23073435

$$$$
