
     RDKit          3D

 32 34  0  0  0  0  0  0  0  0999 V2000
   46.1620   34.5680   43.5980 C   0  0  0  0  0  0  0  0  0  0  0  0
   46.7450   33.5380   44.3330 C   0  0  0  0  0  0  0  0  0  0  0  0
   46.2880   33.2810   45.6140 C   0  0  0  0  0  0  0  0  0  0  0  0
   45.2650   34.0630   46.1000 N   0  0  0  0  0  0  0  0  0  0  0  0
   44.7200   35.0610   45.3530 C   0  0  0  0  0  0  0  0  0  0  0  0
   45.1780   35.2930   44.1220 N   0  0  0  0  0  0  0  0  0  0  0  0
   46.6470   32.2900   46.5660 C   0  0  0  0  0  0  0  0  0  0  0  0
   47.4250   32.6240   47.6990 C   0  0  0  0  0  0  0  0  0  0  0  0
   47.6690   31.7430   48.7290 C   0  0  0  0  0  0  0  0  0  0  0  0
   47.1260   30.4660   48.6570 C   0  0  0  0  0  0  0  0  0  0  0  0
   46.3540   30.0520   47.5840 C   0  0  0  0  0  0  0  0  0  0  0  0
   45.8400   28.7790   47.4240 C   0  0  0  0  0  0  0  0  0  0  0  0
   45.1250   28.4200   46.2930 C   0  0  0  0  0  0  0  0  0  0  0  0
   44.9590   29.4180   45.3350 C   0  0  0  0  0  0  0  0  0  0  0  0
   45.4340   30.6880   45.4220 C   0  0  0  0  0  0  0  0  0  0  0  0
   46.1490   30.9800   46.5950 C   0  0  0  0  0  0  0  0  0  0  0  0
   47.7550   32.6470   43.7620 C   0  0  0  0  0  0  0  0  0  0  0  0
   48.6940   33.4220   42.8780 C   0  0  0  0  0  0  0  0  0  0  0  0
   46.5173   34.7826   42.5793 H   0  0  0  0  0  0  0  0  0  0  0  0
   43.9043   35.6746   45.7630 H   0  0  0  0  0  0  0  0  0  0  0  0
   47.8552   33.6345   47.7603 H   0  0  0  0  0  0  0  0  0  0  0  0
   48.2816   32.0442   49.5916 H   0  0  0  0  0  0  0  0  0  0  0  0
   47.3155   29.7604   49.4794 H   0  0  0  0  0  0  0  0  0  0  0  0
   46.0028   28.0319   48.2148 H   0  0  0  0  0  0  0  0  0  0  0  0
   44.7134   27.4087   46.1594 H   0  0  0  0  0  0  0  0  0  0  0  0
   44.3938   29.1546   44.4288 H   0  0  0  0  0  0  0  0  0  0  0  0
   45.2703   31.4340   44.6304 H   0  0  0  0  0  0  0  0  0  0  0  0
   48.3270   32.1777   44.5760 H   0  0  0  0  0  0  0  0  0  0  0  0
   47.2527   31.8747   43.1610 H   0  0  0  0  0  0  0  0  0  0  0  0
   49.3928   33.9987   43.5018 H   0  0  0  0  0  0  0  0  0  0  0  0
   49.2596   32.7242   42.2430 H   0  0  0  0  0  0  0  0  0  0  0  0
   48.1162   34.1096   42.2430 H   0  0  0  0  0  0  0  0  0  0  0  0
  1  6  2  0
  1  2  1  0
  2  3  2  0
  3  4  1  0
  3  7  1  0
  5  4  2  0
  6  5  1  0
  7 16  1  0
  7  8  2  0
  8  9  1  0
 10  9  2  0
 11 10  1  0
 12 11  2  0
 13 12  1  0
 14 15  1  0
 14 13  2  0
 15 16  2  0
 16 11  1  0
 17  2  1  0
 18 17  1  0
  1 19  1  0
  5 20  1  0
  8 21  1  0
  9 22  1  0
 10 23  1  0
 12 24  1  0
 13 25  1  0
 14 26  1  0
 15 27  1  0
 17 28  1  0
 17 29  1  0
 18 30  1  0
 18 31  1  0
 18 32  1  0
M  ISO  8  19  14  20  14  21  14  22  14  23  14  24  14  25  14  26  14
M  ISO  6  27  14  28   8  29   8  30   8  31   8  32   8
M  END
>  <minimizedAffinity>  (1) 
-4.77626371

>  <minimizedRMSD>  (1) 
3.93912482

$$$$
