
     RDKit          3D

 23 24  0  0  0  0  0  0  0  0999 V2000
   45.9640   35.0550   42.9830 C   0  0  0  0  0  0  0  0  0  0  0  0
   46.6080   34.1190   43.8590 C   0  0  0  0  0  0  0  0  0  0  0  0
   46.0960   34.0070   45.1310 C   0  0  0  0  0  0  0  0  0  0  0  0
   45.0200   34.8150   45.4310 N   0  0  0  0  0  0  0  0  0  0  0  0
   44.4440   35.6710   44.6090 C   0  0  0  0  0  0  0  0  0  0  0  0
   44.9150   35.7910   43.3800 N   0  0  0  0  0  0  0  0  0  0  0  0
   46.4860   33.1170   46.1960 C   0  0  0  0  0  0  0  0  0  0  0  0
   45.9730   31.8100   46.2970 C   0  0  0  0  0  0  0  0  0  0  0  0
   46.4050   31.1420   47.3740 N   0  0  0  0  0  0  0  0  0  0  0  0
   47.2160   31.9610   48.0330 C   0  0  0  0  0  0  0  0  0  0  0  0
   47.2160   33.0700   47.3030 N   0  0  0  0  0  0  0  0  0  0  0  0
   47.7660   33.3560   43.4810 C   0  0  0  0  0  0  0  0  0  0  0  0
   48.7690   34.2730   42.7530 C   0  0  0  0  0  0  0  0  0  0  0  0
   46.3412   35.1725   41.9564 H   0  0  0  0  0  0  0  0  0  0  0  0
   43.5863   36.2746   44.9408 H   0  0  0  0  0  0  0  0  0  0  0  0
   45.2811   31.3774   45.5593 H   0  0  0  0  0  0  0  0  0  0  0  0
   47.7618   31.7658   48.9679 H   0  0  0  0  0  0  0  0  0  0  0  0
   47.7762   33.8844   47.5926 H   0  0  0  0  0  0  0  0  0  0  0  0
   48.2389   32.9366   44.3813 H   0  0  0  0  0  0  0  0  0  0  0  0
   47.4638   32.5375   42.8111 H   0  0  0  0  0  0  0  0  0  0  0  0
   49.3690   34.8215   43.4940 H   0  0  0  0  0  0  0  0  0  0  0  0
   49.4329   33.6630   42.1228 H   0  0  0  0  0  0  0  0  0  0  0  0
   48.2208   34.9887   42.1228 H   0  0  0  0  0  0  0  0  0  0  0  0
  1  6  2  0
  1  2  1  0
  2  3  2  0
  3  4  1  0
  3  7  1  0
  5  4  2  0
  6  5  1  0
  7  8  2  0
  7 11  1  0
  8  9  1  0
  9 10  2  0
 11 10  1  0
 12  2  1  0
 13 12  1  0
  1 14  1  0
  5 15  1  0
  8 16  1  0
 10 17  1  0
 11 18  1  0
 12 19  1  0
 12 20  1  0
 13 21  1  0
 13 22  1  0
 13 23  1  0
M  ISO  8  14  14  15  14  16  14  17  14  18   9  19   8  20   8  21   8
M  ISO  2  22   8  23   8
M  END
>  <minimizedAffinity>  (1) 
-4.57587194

>  <minimizedRMSD>  (1) 
3.36315656

$$$$
