
     RDKit          3D

 30 32  0  0  0  0  0  0  0  0999 V2000
   45.7120   35.6830   43.1250 C   0  0  0  0  0  0  0  0  0  0  0  0
   46.3840   34.4830   43.4310 C   0  0  0  0  0  0  0  0  0  0  0  0
   46.0510   33.8630   44.6300 C   0  0  0  0  0  0  0  0  0  0  0  0
   45.1080   34.4170   45.4620 N   0  0  0  0  0  0  0  0  0  0  0  0
   44.5010   35.5770   45.1010 C   0  0  0  0  0  0  0  0  0  0  0  0
   44.7980   36.2000   43.9520 N   0  0  0  0  0  0  0  0  0  0  0  0
   46.5970   32.6310   45.1400 C   0  0  0  0  0  0  0  0  0  0  0  0
   47.3700   31.5930   44.6160 C   0  0  0  0  0  0  0  0  0  0  0  0
   47.5970   30.6560   45.5570 N   0  0  0  0  0  0  0  0  0  0  0  0
   47.0200   30.9950   46.7060 C   0  0  0  0  0  0  0  0  0  0  0  0
   46.9210   30.4390   47.9590 C   0  0  0  0  0  0  0  0  0  0  0  0
   46.2350   31.0210   49.0100 C   0  0  0  0  0  0  0  0  0  0  0  0
   45.6210   32.2260   48.7680 C   0  0  0  0  0  0  0  0  0  0  0  0
   45.7020   32.8070   47.5230 C   0  0  0  0  0  0  0  0  0  0  0  0
   46.3960   32.2160   46.4640 C   0  0  0  0  0  0  0  0  0  0  0  0
   47.3810   33.8840   42.5740 C   0  0  0  0  0  0  0  0  0  0  0  0
   48.0330   34.9810   41.7230 C   0  0  0  0  0  0  0  0  0  0  0  0
   45.9445   36.2056   42.1854 H   0  0  0  0  0  0  0  0  0  0  0  0
   43.7458   36.0168   45.7691 H   0  0  0  0  0  0  0  0  0  0  0  0
   47.7410   31.5468   43.5815 H   0  0  0  0  0  0  0  0  0  0  0  0
   48.1425   29.7953   45.4070 H   0  0  0  0  0  0  0  0  0  0  0  0
   47.4169   29.4734   48.1368 H   0  0  0  0  0  0  0  0  0  0  0  0
   46.1833   30.5394   49.9976 H   0  0  0  0  0  0  0  0  0  0  0  0
   45.0628   32.7281   49.5720 H   0  0  0  0  0  0  0  0  0  0  0  0
   45.2019   33.7723   47.3554 H   0  0  0  0  0  0  0  0  0  0  0  0
   48.1475   33.3902   43.1893 H   0  0  0  0  0  0  0  0  0  0  0  0
   46.9077   33.1378   41.9189 H   0  0  0  0  0  0  0  0  0  0  0  0
   48.4828   35.7379   42.3824 H   0  0  0  0  0  0  0  0  0  0  0  0
   48.8139   34.5370   41.0882 H   0  0  0  0  0  0  0  0  0  0  0  0
   47.2698   35.4548   41.0882 H   0  0  0  0  0  0  0  0  0  0  0  0
  1  2  2  0
  1  6  1  0
  2  3  1  0
  3  7  1  0
  3  4  2  0
  5  4  1  0
  6  5  2  0
  7 15  1  0
  8  7  2  0
  8  9  1  0
  9 10  1  0
 10 11  2  0
 11 12  1  0
 13 12  2  0
 14 13  1  0
 15 10  1  0
 15 14  2  0
 16  2  1  0
 17 16  1  0
  1 18  1  0
  5 19  1  0
  8 20  1  0
  9 21  1  0
 11 22  1  0
 12 23  1  0
 13 24  1  0
 14 25  1  0
 16 26  1  0
 16 27  1  0
 17 28  1  0
 17 29  1  0
 17 30  1  0
M  ISO  8  18  14  19  14  20  14  21   9  22  14  23  14  24  14  25  14
M  ISO  5  26   8  27   8  28   8  29   8  30   8
M  END
>  <minimizedAffinity>  (1) 
-5.35527658

>  <minimizedRMSD>  (1) 
3.13115454

$$$$
