
     RDKit          3D

 32 33  0  0  0  0  0  0  0  0999 V2000
   45.9900   34.8170   43.5590 C   0  0  0  0  0  0  0  0  0  0  0  0
   46.6660   33.7100   44.0810 C   0  0  0  0  0  0  0  0  0  0  0  0
   46.3210   33.3020   45.3550 C   0  0  0  0  0  0  0  0  0  0  0  0
   45.3520   33.9820   46.0480 N   0  0  0  0  0  0  0  0  0  0  0  0
   44.7270   35.0550   45.4880 C   0  0  0  0  0  0  0  0  0  0  0  0
   45.0450   35.4740   44.2410 N   0  0  0  0  0  0  0  0  0  0  0  0
   46.8060   32.1900   46.2090 C   0  0  0  0  0  0  0  0  0  0  0  0
   46.9920   32.7080   47.5810 C   0  0  0  0  0  0  0  0  0  0  0  0
   46.5850   31.8620   48.7260 C   0  0  0  0  0  0  0  0  0  0  0  0
   45.3880   30.9950   48.4280 C   0  0  0  0  0  0  0  0  0  0  0  0
   45.8580   30.1130   47.2630 C   0  0  0  0  0  0  0  0  0  0  0  0
   45.8350   31.0240   46.0690 C   0  0  0  0  0  0  0  0  0  0  0  0
   47.6750   32.9520   43.3970 C   0  0  0  0  0  0  0  0  0  0  0  0
   48.7570   33.8650   42.8530 C   0  0  0  0  0  0  0  0  0  0  0  0
   46.2456   35.1618   42.5462 H   0  0  0  0  0  0  0  0  0  0  0  0
   43.9523   35.5889   46.0578 H   0  0  0  0  0  0  0  0  0  0  0  0
   47.7875   31.7981   45.9039 H   0  0  0  0  0  0  0  0  0  0  0  0
   48.0641   32.9222   47.7027 H   0  0  0  0  0  0  0  0  0  0  0  0
   46.3112   33.5704   47.6334 H   0  0  0  0  0  0  0  0  0  0  0  0
   47.4293   31.2111   48.9973 H   0  0  0  0  0  0  0  0  0  0  0  0
   46.3032   32.5372   49.5474 H   0  0  0  0  0  0  0  0  0  0  0  0
   45.1208   30.3817   49.3012 H   0  0  0  0  0  0  0  0  0  0  0  0
   44.4886   31.5795   48.1841 H   0  0  0  0  0  0  0  0  0  0  0  0
   46.8755   29.7370   47.4458 H   0  0  0  0  0  0  0  0  0  0  0  0
   45.2209   29.2269   47.1255 H   0  0  0  0  0  0  0  0  0  0  0  0
   44.8174   31.4242   45.9496 H   0  0  0  0  0  0  0  0  0  0  0  0
   46.1422   30.4353   45.1921 H   0  0  0  0  0  0  0  0  0  0  0  0
   48.1266   32.2360   44.0994 H   0  0  0  0  0  0  0  0  0  0  0  0
   47.2069   32.4193   42.5561 H   0  0  0  0  0  0  0  0  0  0  0  0
   49.3029   34.3256   43.6896 H   0  0  0  0  0  0  0  0  0  0  0  0
   49.4556   33.2794   42.2374 H   0  0  0  0  0  0  0  0  0  0  0  0
   48.2972   34.6522   42.2374 H   0  0  0  0  0  0  0  0  0  0  0  0
  1  2  2  0
  1  6  1  0
  2  3  1  0
  3  4  2  0
  3  7  1  0
  5  4  1  0
  6  5  2  0
  7  8  1  0
  8  9  1  0
 10  9  1  0
 11 10  1  0
 12  7  1  0
 12 11  1  0
 13  2  1  0
 14 13  1  0
  1 15  1  0
  5 16  1  0
  7 17  1  0
  8 18  1  0
  8 19  1  0
  9 20  1  0
  9 21  1  0
 10 22  1  0
 10 23  1  0
 11 24  1  0
 11 25  1  0
 12 26  1  0
 12 27  1  0
 13 28  1  0
 13 29  1  0
 14 30  1  0
 14 31  1  0
 14 32  1  0
M  ISO  8  15  14  16  14  17  13  18  13  19  13  20  13  21  13  22  13
M  ISO  8  23  13  24  13  25  13  26  13  27  13  28   8  29   8  30   8
M  ISO  2  31   8  32   8
M  END
>  <minimizedAffinity>  (1) 
-4.43322992

>  <minimizedRMSD>  (1) 
3.61072683

$$$$
