
     RDKit          3D

 22 23  0  0  0  0  0  0  0  0999 V2000
   45.4140   35.9410   43.0940 C   0  0  0  0  0  0  0  0  0  0  0  0
   46.1540   34.7520   43.0260 C   0  0  0  0  0  0  0  0  0  0  0  0
   46.0950   33.9280   44.1430 C   0  0  0  0  0  0  0  0  0  0  0  0
   45.3380   34.3400   45.1880 N   0  0  0  0  0  0  0  0  0  0  0  0
   44.6420   35.4800   45.2240 C   0  0  0  0  0  0  0  0  0  0  0  0
   44.6790   36.3020   44.1530 N   0  0  0  0  0  0  0  0  0  0  0  0
   46.8000   32.6580   44.2650 C   0  0  0  0  0  0  0  0  0  0  0  0
   46.5380   31.6830   45.2750 C   0  0  0  0  0  0  0  0  0  0  0  0
   47.6870   30.3350   44.9100 S   0  0  0  0  0  0  0  0  0  0  0  0
   48.3700   31.2990   43.4190 C   0  0  0  0  0  0  0  0  0  0  0  0
   47.7570   32.2360   43.4560 N   0  0  0  0  0  0  0  0  0  0  0  0
   46.9410   34.4460   41.8580 C   0  0  0  0  0  0  0  0  0  0  0  0
   48.1430   35.3910   41.8210 C   0  0  0  0  0  0  0  0  0  0  0  0
   45.4389   36.6167   42.2264 H   0  0  0  0  0  0  0  0  0  0  0  0
   44.0485   35.7447   46.1115 H   0  0  0  0  0  0  0  0  0  0  0  0
   45.8028   31.7392   46.0913 H   0  0  0  0  0  0  0  0  0  0  0  0
   49.1588   31.0121   42.7080 H   0  0  0  0  0  0  0  0  0  0  0  0
   47.2898   33.4040   41.9082 H   0  0  0  0  0  0  0  0  0  0  0  0
   46.3332   34.5738   40.9501 H   0  0  0  0  0  0  0  0  0  0  0  0
   48.4509   35.6331   42.8489 H   0  0  0  0  0  0  0  0  0  0  0  0
   48.9764   34.9037   41.2937 H   0  0  0  0  0  0  0  0  0  0  0  0
   47.8662   36.3159   41.2937 H   0  0  0  0  0  0  0  0  0  0  0  0
  1  6  2  0
  2  1  1  0
  2  3  2  0
  3  7  1  0
  3  4  1  0
  4  5  2  0
  6  5  1  0
  7  8  2  0
  9  8  1  0
 10 11  2  0
 10  9  1  0
 11  7  1  0
 12  2  1  0
 13 12  1  0
  1 14  1  0
  5 15  1  0
  8 16  1  0
 10 17  1  0
 12 18  1  0
 12 19  1  0
 13 20  1  0
 13 21  1  0
 13 22  1  0
M  ISO  8  14  14  15  14  16  14  17  14  18   8  19   8  20   8  21   8
M  ISO  1  22   8
M  END
>  <minimizedAffinity>  (1) 
-3.88349366

>  <minimizedRMSD>  (1) 
1.68789804

$$$$
