
     RDKit          3D

 19 19  0  0  0  0  0  0  0  0999 V2000
   45.3250   35.9760   43.0480 C   0  0  0  0  0  0  0  0  0  0  0  0
   46.2050   34.8450   42.9920 C   0  0  0  0  0  0  0  0  0  0  0  0
   46.3090   33.9590   44.0910 C   0  0  0  0  0  0  0  0  0  0  0  0
   45.5100   34.2940   45.1620 N   0  0  0  0  0  0  0  0  0  0  0  0
   44.6990   35.3530   45.1870 C   0  0  0  0  0  0  0  0  0  0  0  0
   44.6080   36.1790   44.1510 N   0  0  0  0  0  0  0  0  0  0  0  0
   47.1550   32.7830   44.2020 C   0  0  0  0  0  0  0  0  0  0  0  0
   48.3940   32.8620   43.6120 F   0  0  0  0  0  0  0  0  0  0  0  0
   47.1760   32.1330   45.4050 F   0  0  0  0  0  0  0  0  0  0  0  0
   46.5310   31.7900   43.3670 F   0  0  0  0  0  0  0  0  0  0  0  0
   47.0160   34.5600   41.8010 C   0  0  0  0  0  0  0  0  0  0  0  0
   48.2140   35.4900   41.7810 C   0  0  0  0  0  0  0  0  0  0  0  0
   45.2439   36.6642   42.1938 H   0  0  0  0  0  0  0  0  0  0  0  0
   44.0930   35.5461   46.0845 H   0  0  0  0  0  0  0  0  0  0  0  0
   47.3609   33.5159   41.8316 H   0  0  0  0  0  0  0  0  0  0  0  0
   46.4113   34.7157   40.8954 H   0  0  0  0  0  0  0  0  0  0  0  0
   48.5144   35.7232   42.8132 H   0  0  0  0  0  0  0  0  0  0  0  0
   49.0490   35.0012   41.2577 H   0  0  0  0  0  0  0  0  0  0  0  0
   47.9475   36.4201   41.2577 H   0  0  0  0  0  0  0  0  0  0  0  0
  1  6  2  0
  2  1  1  0
  2  3  2  0
  3  7  1  0
  3  4  1  0
  4  5  2  0
  6  5  1  0
  7  9  1  0
  8  7  1  0
 10  7  1  0
 11  2  1  0
 12 11  1  0
  1 13  1  0
  5 14  1  0
 11 15  1  0
 11 16  1  0
 12 17  1  0
 12 18  1  0
 12 19  1  0
M  ISO  7  13  14  14  14  15   8  16   8  17   8  18   8  19   8
M  END
>  <minimizedAffinity>  (1) 
-3.88587785

>  <minimizedRMSD>  (1) 
1.28265536

$$$$
