
     RDKit          3D

 23 24  0  0  0  0  0  0  0  0999 V2000
   45.3060   35.9950   43.1560 C   0  0  0  0  0  0  0  0  0  0  0  0
   46.1760   34.8740   43.0020 C   0  0  0  0  0  0  0  0  0  0  0  0
   46.2880   33.9600   44.0200 C   0  0  0  0  0  0  0  0  0  0  0  0
   45.5330   34.1980   45.1510 N   0  0  0  0  0  0  0  0  0  0  0  0
   44.7240   35.2510   45.2790 C   0  0  0  0  0  0  0  0  0  0  0  0
   44.6130   36.1500   44.2780 N   0  0  0  0  0  0  0  0  0  0  0  0
   47.0480   32.7160   43.9780 C   0  0  0  0  0  0  0  0  0  0  0  0
   46.8510   31.7030   44.9000 C   0  0  0  0  0  0  0  0  0  0  0  0
   47.6760   30.6320   44.6640 C   0  0  0  0  0  0  0  0  0  0  0  0
   48.3700   31.0490   43.5680 C   0  0  0  0  0  0  0  0  0  0  0  0
   47.9860   32.2300   43.2110 O   0  0  0  0  0  0  0  0  0  0  0  0
   46.8920   34.7300   41.7980 C   0  0  0  0  0  0  0  0  0  0  0  0
   48.2010   35.4360   41.7680 C   0  0  0  0  0  0  0  0  0  0  0  0
   45.2095   36.7312   42.3444 H   0  0  0  0  0  0  0  0  0  0  0  0
   44.1449   35.3873   46.2042 H   0  0  0  0  0  0  0  0  0  0  0  0
   46.1217   31.7505   45.7222 H   0  0  0  0  0  0  0  0  0  0  0  0
   47.7562   29.6838   45.2159 H   0  0  0  0  0  0  0  0  0  0  0  0
   49.1484   30.4622   43.0583 H   0  0  0  0  0  0  0  0  0  0  0  0
   47.0765   33.6580   41.6346 H   0  0  0  0  0  0  0  0  0  0  0  0
   46.2736   35.1861   41.0109 H   0  0  0  0  0  0  0  0  0  0  0  0
   48.5421   35.6199   42.7975 H   0  0  0  0  0  0  0  0  0  0  0  0
   48.9408   34.8146   41.2422 H   0  0  0  0  0  0  0  0  0  0  0  0
   48.0881   36.3956   41.2422 H   0  0  0  0  0  0  0  0  0  0  0  0
  1  6  2  0
  2  1  1  0
  2  3  2  0
  3  4  1  0
  4  5  2  0
  6  5  1  0
  7  3  1  0
  7  8  2  0
  9  8  1  0
 10  9  2  0
 11 10  1  0
 11  7  1  0
 12  2  1  0
 13 12  1  0
  1 14  1  0
  5 15  1  0
  8 16  1  0
  9 17  1  0
 10 18  1  0
 12 19  1  0
 12 20  1  0
 13 21  1  0
 13 22  1  0
 13 23  1  0
M  ISO  8  14  14  15  14  16  14  17  14  18  14  19   8  20   8  21   8
M  ISO  2  22   8  23   8
M  END
>  <minimizedAffinity>  (1) 
-4.03163338

>  <minimizedRMSD>  (1) 
1.58461547

$$$$
