
     RDKit          3D

 23 24  0  0  0  0  0  0  0  0999 V2000
   46.1840   35.3080   42.8740 C   0  0  0  0  0  0  0  0  0  0  0  0
   46.7220   34.2300   43.6330 C   0  0  0  0  0  0  0  0  0  0  0  0
   46.0900   33.9460   44.8230 C   0  0  0  0  0  0  0  0  0  0  0  0
   45.0210   34.7120   45.1710 N   0  0  0  0  0  0  0  0  0  0  0  0
   44.5330   35.7190   44.4450 C   0  0  0  0  0  0  0  0  0  0  0  0
   45.1180   36.0170   43.2910 N   0  0  0  0  0  0  0  0  0  0  0  0
   46.3740   32.8390   45.7100 C   0  0  0  0  0  0  0  0  0  0  0  0
   46.9740   32.6730   46.9870 C   0  0  0  0  0  0  0  0  0  0  0  0
   47.1090   31.4230   47.4490 C   0  0  0  0  0  0  0  0  0  0  0  0
   46.7170   30.2890   46.7880 C   0  0  0  0  0  0  0  0  0  0  0  0
   46.0450   31.1570   45.2560 S   0  0  0  0  0  0  0  0  0  0  0  0
   47.8910   33.5270   43.1820 C   0  0  0  0  0  0  0  0  0  0  0  0
   48.9140   34.5420   42.6610 C   0  0  0  0  0  0  0  0  0  0  0  0
   46.6549   35.5702   41.9151 H   0  0  0  0  0  0  0  0  0  0  0  0
   43.6620   36.2919   44.7959 H   0  0  0  0  0  0  0  0  0  0  0  0
   47.3149   33.5384   47.5742 H   0  0  0  0  0  0  0  0  0  0  0  0
   47.5719   31.2969   48.4389 H   0  0  0  0  0  0  0  0  0  0  0  0
   46.7751   29.2250   47.0608 H   0  0  0  0  0  0  0  0  0  0  0  0
   48.3265   32.9608   44.0186 H   0  0  0  0  0  0  0  0  0  0  0  0
   47.6173   32.8289   42.3772 H   0  0  0  0  0  0  0  0  0  0  0  0
   49.4091   35.0332   43.5116 H   0  0  0  0  0  0  0  0  0  0  0  0
   49.6662   34.0231   42.0487 H   0  0  0  0  0  0  0  0  0  0  0  0
   48.4010   35.2983   42.0487 H   0  0  0  0  0  0  0  0  0  0  0  0
  1  6  2  0
  1  2  1  0
  2  3  2  0
  3  4  1  0
  3  7  1  0
  5  4  2  0
  6  5  1  0
  7  8  2  0
  8  9  1  0
 10  9  2  0
 11  7  1  0
 11 10  1  0
 12  2  1  0
 13 12  1  0
  1 14  1  0
  5 15  1  0
  8 16  1  0
  9 17  1  0
 10 18  1  0
 12 19  1  0
 12 20  1  0
 13 21  1  0
 13 22  1  0
 13 23  1  0
M  ISO  8  14  14  15  14  16  14  17  14  18  14  19   8  20   8  21   8
M  ISO  2  22   8  23   8
M  END
>  <minimizedAffinity>  (1) 
-4.12311888

>  <minimizedRMSD>  (1) 
3.14493799

$$$$
