
     RDKit          3D

 25 25  0  0  0  0  0  0  0  0999 V2000
   45.6420   35.7870   43.0020 C   0  0  0  0  0  0  0  0  0  0  0  0
   46.4290   34.6330   43.2720 C   0  0  0  0  0  0  0  0  0  0  0  0
   46.1990   33.9690   44.4700 C   0  0  0  0  0  0  0  0  0  0  0  0
   45.2330   34.4650   45.3220 N   0  0  0  0  0  0  0  0  0  0  0  0
   44.5100   35.5630   45.0290 C   0  0  0  0  0  0  0  0  0  0  0  0
   44.7250   36.2050   43.8790 N   0  0  0  0  0  0  0  0  0  0  0  0
   47.4370   34.1130   42.3870 C   0  0  0  0  0  0  0  0  0  0  0  0
   48.2020   35.2710   41.7420 C   0  0  0  0  0  0  0  0  0  0  0  0
   46.8210   32.7460   44.9720 C   0  0  0  0  0  0  0  0  0  0  0  0
   45.9950   31.5010   44.5720 C   0  0  0  0  0  0  0  0  0  0  0  0
   46.7840   32.7730   46.4860 C   0  0  0  0  0  0  0  0  0  0  0  0
   45.7899   36.3400   42.0627 H   0  0  0  0  0  0  0  0  0  0  0  0
   43.7475   35.9280   45.7328 H   0  0  0  0  0  0  0  0  0  0  0  0
   48.1368   33.4852   42.9581 H   0  0  0  0  0  0  0  0  0  0  0  0
   46.9575   33.5101   41.6018 H   0  0  0  0  0  0  0  0  0  0  0  0
   48.6262   35.9131   42.5280 H   0  0  0  0  0  0  0  0  0  0  0  0
   49.0142   34.8710   41.1172 H   0  0  0  0  0  0  0  0  0  0  0  0
   47.5154   35.8612   41.1172 H   0  0  0  0  0  0  0  0  0  0  0  0
   47.8399   32.6943   44.5607 H   0  0  0  0  0  0  0  0  0  0  0  0
   45.6509   30.9824   45.4790 H   0  0  0  0  0  0  0  0  0  0  0  0
   45.1249   31.8141   43.9763 H   0  0  0  0  0  0  0  0  0  0  0  0
   46.6217   30.8211   43.9763 H   0  0  0  0  0  0  0  0  0  0  0  0
   47.6124   32.1685   46.8839 H   0  0  0  0  0  0  0  0  0  0  0  0
   46.8858   33.8106   46.8368 H   0  0  0  0  0  0  0  0  0  0  0  0
   45.8269   32.3595   46.8368 H   0  0  0  0  0  0  0  0  0  0  0  0
  1  2  2  0
  1  6  1  0
  2  3  1  0
  3  9  1  0
  3  4  2  0
  5  4  1  0
  6  5  2  0
  7  2  1  0
  8  7  1  0
  9 11  1  0
 10  9  1  0
  1 12  1  0
  5 13  1  0
  7 14  1  0
  7 15  1  0
  8 16  1  0
  8 17  1  0
  8 18  1  0
  9 19  1  0
 10 20  1  0
 10 21  1  0
 10 22  1  0
 11 23  1  0
 11 24  1  0
 11 25  1  0
M  ISO  8  12  14  13  14  14   8  15   8  16   8  17   8  18   8  19   8
M  ISO  6  20   8  21   8  22   8  23   8  24   8  25   8
M  END
>  <minimizedAffinity>  (1) 
-3.78953934

>  <minimizedRMSD>  (1) 
2.03491068

$$$$
