
     RDKit          3D

 34 36  0  0  0  0  0  0  0  0999 V2000
   48.1740   34.8860   40.9710 C   0  0  0  0  0  0  0  0  0  0  0  0
   49.2090   32.6890   40.5350 C   0  0  0  0  0  0  0  0  0  0  0  0
   49.1830   33.8860   41.2880 C   0  0  0  0  0  0  0  0  0  0  0  0
   50.1380   34.0130   42.2840 C   0  0  0  0  0  0  0  0  0  0  0  0
   51.0180   33.0060   42.4720 N   0  0  0  0  0  0  0  0  0  0  0  0
   51.0140   31.8780   41.7340 C   0  0  0  0  0  0  0  0  0  0  0  0
   50.1140   31.7250   40.7750 N   0  0  0  0  0  0  0  0  0  0  0  0
   50.1700   35.1690   43.0660 N   0  0  0  0  0  0  0  0  0  0  0  0
   46.8540   34.1980   40.7270 C   0  0  0  0  0  0  0  0  0  0  0  0
   45.7560   34.7270   41.5360 C   0  0  0  0  0  0  0  0  0  0  0  0
   46.0980   35.2630   42.7750 C   0  0  0  0  0  0  0  0  0  0  0  0
   45.1830   35.7840   43.6660 C   0  0  0  0  0  0  0  0  0  0  0  0
   43.8460   35.7890   43.3370 C   0  0  0  0  0  0  0  0  0  0  0  0
   43.4950   35.2580   42.1060 C   0  0  0  0  0  0  0  0  0  0  0  0
   42.1830   35.2180   41.6770 C   0  0  0  0  0  0  0  0  0  0  0  0
   41.7930   34.7030   40.4570 C   0  0  0  0  0  0  0  0  0  0  0  0
   42.7510   34.1980   39.6130 C   0  0  0  0  0  0  0  0  0  0  0  0
   44.0650   34.2180   40.0000 C   0  0  0  0  0  0  0  0  0  0  0  0
   44.4170   34.7400   41.2230 C   0  0  0  0  0  0  0  0  0  0  0  0
   48.0735   35.5871   41.8127 H   0  0  0  0  0  0  0  0  0  0  0  0
   48.4738   35.4411   40.0699 H   0  0  0  0  0  0  0  0  0  0  0  0
   48.4702   32.5436   39.7331 H   0  0  0  0  0  0  0  0  0  0  0  0
   51.7549   31.0884   41.9276 H   0  0  0  0  0  0  0  0  0  0  0  0
   50.8774   35.2695   43.8079 H   0  0  0  0  0  0  0  0  0  0  0  0
   49.4862   35.9214   42.9011 H   0  0  0  0  0  0  0  0  0  0  0  0
   46.5916   34.3169   39.6654 H   0  0  0  0  0  0  0  0  0  0  0  0
   46.9839   33.1436   41.0121 H   0  0  0  0  0  0  0  0  0  0  0  0
   47.1604   35.2714   43.0599 H   0  0  0  0  0  0  0  0  0  0  0  0
   45.5185   36.1919   44.6309 H   0  0  0  0  0  0  0  0  0  0  0  0
   43.0885   36.1972   44.0223 H   0  0  0  0  0  0  0  0  0  0  0  0
   41.4057   35.6187   42.3443 H   0  0  0  0  0  0  0  0  0  0  0  0
   40.7322   34.6973   40.1659 H   0  0  0  0  0  0  0  0  0  0  0  0
   42.4662   33.7814   38.6356 H   0  0  0  0  0  0  0  0  0  0  0  0
   44.8403   33.8158   39.3313 H   0  0  0  0  0  0  0  0  0  0  0  0
  1  3  1  0
  2  7  2  0
  2  3  1  0
  3  4  2  0
  4  5  1  0
  4  8  1  0
  6  5  2  0
  7  6  1  0
  9  1  1  0
  9 10  1  0
 10 11  2  0
 11 12  1  0
 13 12  2  0
 14 13  1  0
 15 14  2  0
 16 15  1  0
 17 18  1  0
 17 16  2  0
 18 19  2  0
 19 10  1  0
 19 14  1  0
  1 20  1  0
  1 21  1  0
  2 22  1  0
  6 23  1  0
  8 24  1  0
  8 25  1  0
  9 26  1  0
  9 27  1  0
 11 28  1  0
 12 29  1  0
 13 30  1  0
 15 31  1  0
 16 32  1  0
 17 33  1  0
 18 34  1  0
M  ISO  8  20   8  21   8  22  14  23  14  26   8  27   8  28  14  29  14
M  ISO  5  30  14  31  14  32  14  33  14  34  14
M  END
>  <minimizedAffinity>  (1) 
-5.96057749

>  <minimizedRMSD>  (1) 
6.16050339

$$$$
