
     RDKit          3D

 25 26  0  0  0  0  0  0  0  0999 V2000
   45.5910   35.4650   43.2560 C   0  0  0  0  0  0  0  0  0  0  0  0
   46.3240   34.3170   43.5520 C   0  0  0  0  0  0  0  0  0  0  0  0
   46.1210   33.7540   44.8110 C   0  0  0  0  0  0  0  0  0  0  0  0
   45.2420   34.3400   45.6650 N   0  0  0  0  0  0  0  0  0  0  0  0
   44.5460   35.4650   45.3330 C   0  0  0  0  0  0  0  0  0  0  0  0
   44.7320   36.0110   44.1310 N   0  0  0  0  0  0  0  0  0  0  0  0
   47.2300   33.7660   42.5850 C   0  0  0  0  0  0  0  0  0  0  0  0
   47.2300   34.6020   41.3350 C   0  0  0  0  0  0  0  0  0  0  0  0
   48.6630   35.0380   41.0380 C   0  0  0  0  0  0  0  0  0  0  0  0
   49.2220   36.2650   41.6210 C   0  0  0  0  0  0  0  0  0  0  0  0
   49.6100   34.8940   42.2010 C   0  0  0  0  0  0  0  0  0  0  0  0
   46.8230   32.5950   45.1870 N   0  0  0  0  0  0  0  0  0  0  0  0
   45.7209   35.9395   42.2721 H   0  0  0  0  0  0  0  0  0  0  0  0
   43.8410   35.9156   46.0471 H   0  0  0  0  0  0  0  0  0  0  0  0
   48.2450   33.7463   43.0085 H   0  0  0  0  0  0  0  0  0  0  0  0
   46.9073   32.7451   42.3330 H   0  0  0  0  0  0  0  0  0  0  0  0
   46.8413   34.0097   40.4935 H   0  0  0  0  0  0  0  0  0  0  0  0
   46.5906   35.4860   41.4752 H   0  0  0  0  0  0  0  0  0  0  0  0
   48.6090   34.6907   39.9957 H   0  0  0  0  0  0  0  0  0  0  0  0
   49.9619   36.8534   41.0585 H   0  0  0  0  0  0  0  0  0  0  0  0
   48.7984   37.1922   42.0343 H   0  0  0  0  0  0  0  0  0  0  0  0
   49.2364   34.5812   43.1872 H   0  0  0  0  0  0  0  0  0  0  0  0
   50.5484   34.3539   42.3950 H   0  0  0  0  0  0  0  0  0  0  0  0
   46.6717   32.1804   46.1177 H   0  0  0  0  0  0  0  0  0  0  0  0
   47.4885   32.1606   44.5317 H   0  0  0  0  0  0  0  0  0  0  0  0
  1  2  2  0
  1  6  1  0
  2  3  1  0
  3 12  1  0
  3  4  2  0
  5  4  1  0
  6  5  2  0
  7  2  1  0
  8  7  1  0
  9  8  1  0
  9 10  1  0
  9 11  1  0
 10 11  1  0
  1 13  1  0
  5 14  1  0
  7 15  1  0
  7 16  1  0
  8 17  1  0
  8 18  1  0
  9 19  1  0
 10 20  1  0
 10 21  1  0
 11 22  1  0
 11 23  1  0
 12 24  1  0
 12 25  1  0
M  ISO  8  13  14  14  14  15   8  16   8  17   8  18   8  19  13  20  13
M  ISO  3  21  13  22  13  23  13
M  END
>  <minimizedAffinity>  (1) 
-4.5019784

>  <minimizedRMSD>  (1) 
1.07969499

$$$$
