
     RDKit          3D

 31 33  0  0  0  0  0  0  0  0999 V2000
   47.6580   35.0990   41.6260 C   0  0  0  0  0  0  0  0  0  0  0  0
   48.8500   34.3300   41.7610 N   0  0  0  0  0  0  0  0  0  0  0  0
   49.8230   34.5050   42.6860 C   0  0  0  0  0  0  0  0  0  0  0  0
   50.8180   33.5870   42.5180 N   0  0  0  0  0  0  0  0  0  0  0  0
   50.4830   32.7970   41.4580 C   0  0  0  0  0  0  0  0  0  0  0  0
   51.0860   31.7150   40.8230 C   0  0  0  0  0  0  0  0  0  0  0  0
   50.5000   31.1240   39.7730 N   0  0  0  0  0  0  0  0  0  0  0  0
   49.3160   31.6070   39.3550 C   0  0  0  0  0  0  0  0  0  0  0  0
   48.7170   32.6570   39.9610 N   0  0  0  0  0  0  0  0  0  0  0  0
   49.2800   33.2820   41.0270 C   0  0  0  0  0  0  0  0  0  0  0  0
   52.3400   31.2450   41.3100 N   0  0  0  0  0  0  0  0  0  0  0  0
   46.3750   34.3180   41.8020 C   0  0  0  0  0  0  0  0  0  0  0  0
   45.0310   35.7840   43.2960 C   0  0  0  0  0  0  0  0  0  0  0  0
   45.8030   34.6230   43.1020 C   0  0  0  0  0  0  0  0  0  0  0  0
   45.9830   33.8040   44.2060 C   0  0  0  0  0  0  0  0  0  0  0  0
   45.4150   34.1550   45.3940 N   0  0  0  0  0  0  0  0  0  0  0  0
   44.6780   35.2910   45.5230 C   0  0  0  0  0  0  0  0  0  0  0  0
   44.5000   36.0790   44.4780 N   0  0  0  0  0  0  0  0  0  0  0  0
   46.7380   32.6240   44.1080 N   0  0  0  0  0  0  0  0  0  0  0  0
   47.6787   35.8976   42.3822 H   0  0  0  0  0  0  0  0  0  0  0  0
   47.6500   35.4783   40.5935 H   0  0  0  0  0  0  0  0  0  0  0  0
   49.8127   35.2808   43.4658 H   0  0  0  0  0  0  0  0  0  0  0  0
   48.8204   31.1337   38.4946 H   0  0  0  0  0  0  0  0  0  0  0  0
   52.8027   30.4456   40.8541 H   0  0  0  0  0  0  0  0  0  0  0  0
   52.7837   31.7046   42.1179 H   0  0  0  0  0  0  0  0  0  0  0  0
   45.6627   34.5982   41.0120 H   0  0  0  0  0  0  0  0  0  0  0  0
   46.5869   33.2406   41.7357 H   0  0  0  0  0  0  0  0  0  0  0  0
   44.8630   36.4641   42.4479 H   0  0  0  0  0  0  0  0  0  0  0  0
   44.2319   35.5524   46.4939 H   0  0  0  0  0  0  0  0  0  0  0  0
   46.8648   32.0235   44.9352 H   0  0  0  0  0  0  0  0  0  0  0  0
   47.1650   32.3590   43.2089 H   0  0  0  0  0  0  0  0  0  0  0  0
  1  2  1  0
  1 12  1  0
  2  3  1  0
  4  3  2  0
  5  4  1  0
  6 11  1  0
  6  5  2  0
  7  6  1  0
  8  7  2  0
  8  9  1  0
  9 10  2  0
 10  5  1  0
 10  2  1  0
 12 14  1  0
 13 18  2  0
 14 13  1  0
 14 15  2  0
 15 16  1  0
 16 17  2  0
 18 17  1  0
 19 15  1  0
  1 20  1  0
  1 21  1  0
  3 22  1  0
  8 23  1  0
 11 24  1  0
 11 25  1  0
 12 26  1  0
 12 27  1  0
 13 28  1  0
 17 29  1  0
 19 30  1  0
 19 31  1  0
M  ISO  8  20   8  21   8  22  14  23  14  26   8  27   8  28  14  29  14
M  END
>  <minimizedAffinity>  (1) 
-5.0250082

>  <minimizedRMSD>  (1) 
2.41832614

$$$$
