
     RDKit          3D

 40 42  0  0  0  0  0  0  0  0999 V2000
   45.7240   32.7830   44.4000 C   0  0  0  0  0  0  0  0  0  0  0  0
   46.6910   32.8380   43.2600 C   0  0  0  0  0  0  0  0  0  0  0  0
   47.7700   31.9810   43.1240 C   0  0  0  0  0  0  0  0  0  0  0  0
   48.4060   32.3240   41.9940 N   0  0  0  0  0  0  0  0  0  0  0  0
   47.7590   33.3810   41.4000 C   0  0  0  0  0  0  0  0  0  0  0  0
   46.7180   33.6680   42.2000 N   0  0  0  0  0  0  0  0  0  0  0  0
   43.5280   35.5220   43.5440 N   0  0  0  0  0  0  0  0  0  0  0  0
   43.4030   35.2380   42.1400 C   0  0  0  0  0  0  0  0  0  0  0  0
   44.3970   34.0900   41.9270 C   0  0  0  0  0  0  0  0  0  0  0  0
   45.7600   34.7300   41.9470 C   0  0  0  0  0  0  0  0  0  0  0  0
   45.8970   35.8670   42.8980 C   0  0  0  0  0  0  0  0  0  0  0  0
   44.7980   36.0810   43.8640 C   0  0  0  0  0  0  0  0  0  0  0  0
   46.4500   33.3280   45.6380 C   0  0  0  0  0  0  0  0  0  0  0  0
   46.9090   31.2150   46.8410 C   0  0  0  0  0  0  0  0  0  0  0  0
   46.1900   32.4300   46.7500 C   0  0  0  0  0  0  0  0  0  0  0  0
   45.2630   32.7050   47.7410 C   0  0  0  0  0  0  0  0  0  0  0  0
   45.1000   31.8000   48.7320 N   0  0  0  0  0  0  0  0  0  0  0  0
   45.8090   30.6480   48.7810 C   0  0  0  0  0  0  0  0  0  0  0  0
   46.6970   30.3550   47.8570 N   0  0  0  0  0  0  0  0  0  0  0  0
   44.5170   33.8820   47.7180 N   0  0  0  0  0  0  0  0  0  0  0  0
   45.4072   31.7443   44.5757 H   0  0  0  0  0  0  0  0  0  0  0  0
   44.8264   33.3795   44.1797 H   0  0  0  0  0  0  0  0  0  0  0  0
   48.0524   31.1713   43.8130 H   0  0  0  0  0  0  0  0  0  0  0  0
   48.0359   33.8873   40.4635 H   0  0  0  0  0  0  0  0  0  0  0  0
   43.4074   34.6462   44.0725 H   0  0  0  0  0  0  0  0  0  0  0  0
   42.3786   34.9247   41.8903 H   0  0  0  0  0  0  0  0  0  0  0  0
   43.6078   36.1108   41.5026 H   0  0  0  0  0  0  0  0  0  0  0  0
   44.2165   33.5997   40.9590 H   0  0  0  0  0  0  0  0  0  0  0  0
   44.2982   33.3153   42.7016 H   0  0  0  0  0  0  0  0  0  0  0  0
   45.9468   35.2075   40.9738 H   0  0  0  0  0  0  0  0  0  0  0  0
   46.8182   35.7042   43.4767 H   0  0  0  0  0  0  0  0  0  0  0  0
   45.8944   36.7662   42.2644 H   0  0  0  0  0  0  0  0  0  0  0  0
   44.6624   37.1670   43.9747 H   0  0  0  0  0  0  0  0  0  0  0  0
   45.1168   35.5536   44.7752 H   0  0  0  0  0  0  0  0  0  0  0  0
   47.5316   33.3765   45.4438 H   0  0  0  0  0  0  0  0  0  0  0  0
   46.0891   34.3397   45.8749 H   0  0  0  0  0  0  0  0  0  0  0  0
   47.6534   30.9680   46.0698 H   0  0  0  0  0  0  0  0  0  0  0  0
   45.6390   29.9442   49.6091 H   0  0  0  0  0  0  0  0  0  0  0  0
   43.8313   34.0718   48.4628 H   0  0  0  0  0  0  0  0  0  0  0  0
   44.6514   34.5621   46.9562 H   0  0  0  0  0  0  0  0  0  0  0  0
  1 13  1  0
  2  1  1  0
  3  2  2  0
  4  3  1  0
  5  4  2  0
  5  6  1  0
  6  2  1  0
  7 12  1  0
  8  7  1  0
  9 10  1  0
  9  8  1  0
 10  6  1  0
 10 11  1  0
 11 12  1  0
 13 15  1  0
 14 19  2  0
 15 14  1  0
 15 16  2  0
 16 17  1  0
 17 18  2  0
 19 18  1  0
 20 16  1  0
  1 21  1  0
  1 22  1  0
  3 23  1  0
  5 24  1  0
  7 25  1  0
  8 26  1  0
  8 27  1  0
  9 28  1  0
  9 29  1  0
 10 30  1  0
 11 31  1  0
 11 32  1  0
 12 33  1  0
 12 34  1  0
 13 35  1  0
 13 36  1  0
 14 37  1  0
 18 38  1  0
 20 39  1  0
 20 40  1  0
M  ISO  8  21   8  22   8  23  14  24  14  25   5  26  13  27  13  28  13
M  ISO  8  29  13  30  13  31  13  32  13  33  13  34  13  35   8  36   8
M  ISO  2  37  14  38  14
M  END
>  <minimizedAffinity>  (1) 
-5.62808466

>  <minimizedRMSD>  (1) 
5.20911217

$$$$
