
     RDKit          3D

 34 36  0  0  0  0  0  0  0  0999 V2000
   45.8050   31.5730   42.4780 C   0  0  0  0  0  0  0  0  0  0  0  0
   44.7540   32.4930   41.9430 C   0  0  0  0  0  0  0  0  0  0  0  0
   43.4010   32.1750   42.0180 C   0  0  0  0  0  0  0  0  0  0  0  0
   42.7390   33.2040   41.4530 N   0  0  0  0  0  0  0  0  0  0  0  0
   43.6330   34.1490   41.0300 C   0  0  0  0  0  0  0  0  0  0  0  0
   44.8820   33.7040   41.3360 N   0  0  0  0  0  0  0  0  0  0  0  0
   46.1920   34.2300   41.1510 C   0  0  0  0  0  0  0  0  0  0  0  0
   46.6860   34.9820   42.2080 C   0  0  0  0  0  0  0  0  0  0  0  0
   47.9650   35.5320   42.0980 C   0  0  0  0  0  0  0  0  0  0  0  0
   48.7130   35.3260   40.9570 C   0  0  0  0  0  0  0  0  0  0  0  0
   48.1830   34.5720   39.9310 C   0  0  0  0  0  0  0  0  0  0  0  0
   46.9410   34.0350   40.0290 N   0  0  0  0  0  0  0  0  0  0  0  0
   45.2460   30.8390   43.6860 C   0  0  0  0  0  0  0  0  0  0  0  0
   45.9040   32.7620   45.1040 C   0  0  0  0  0  0  0  0  0  0  0  0
   45.8760   31.3770   44.8860 C   0  0  0  0  0  0  0  0  0  0  0  0
   46.4660   30.5610   45.8490 C   0  0  0  0  0  0  0  0  0  0  0  0
   47.0250   31.1520   46.9270 N   0  0  0  0  0  0  0  0  0  0  0  0
   47.0360   32.4880   47.1060 C   0  0  0  0  0  0  0  0  0  0  0  0
   46.4820   33.2850   46.2060 N   0  0  0  0  0  0  0  0  0  0  0  0
   46.4720   29.1630   45.6900 N   0  0  0  0  0  0  0  0  0  0  0  0
   46.6891   32.1556   42.7761 H   0  0  0  0  0  0  0  0  0  0  0  0
   46.0968   30.8488   41.7032 H   0  0  0  0  0  0  0  0  0  0  0  0
   42.9601   31.2654   42.4518 H   0  0  0  0  0  0  0  0  0  0  0  0
   43.3865   35.0983   40.5319 H   0  0  0  0  0  0  0  0  0  0  0  0
   46.0825   35.1415   43.1137 H   0  0  0  0  0  0  0  0  0  0  0  0
   48.3772   36.1311   42.9233 H   0  0  0  0  0  0  0  0  0  0  0  0
   49.7205   35.7582   40.8667 H   0  0  0  0  0  0  0  0  0  0  0  0
   48.7760   34.4036   39.0199 H   0  0  0  0  0  0  0  0  0  0  0  0
   44.1574   30.9879   43.7397 H   0  0  0  0  0  0  0  0  0  0  0  0
   45.4531   29.7619   43.6019 H   0  0  0  0  0  0  0  0  0  0  0  0
   45.4466   33.4345   44.3634 H   0  0  0  0  0  0  0  0  0  0  0  0
   47.5068   32.9172   48.0027 H   0  0  0  0  0  0  0  0  0  0  0  0
   46.9098   28.5652   46.4055 H   0  0  0  0  0  0  0  0  0  0  0  0
   46.0386   28.7374   44.8582 H   0  0  0  0  0  0  0  0  0  0  0  0
  1 13  1  0
  2  3  2  0
  2  1  1  0
  4  3  1  0
  5  6  1  0
  5  4  2  0
  6  2  1  0
  7  6  1  0
  7  8  2  0
  9  8  1  0
 10  9  2  0
 11 12  2  0
 11 10  1  0
 12  7  1  0
 13 15  1  0
 14 19  2  0
 15 14  1  0
 15 16  2  0
 16 17  1  0
 17 18  2  0
 19 18  1  0
 20 16  1  0
  1 21  1  0
  1 22  1  0
  3 23  1  0
  5 24  1  0
  8 25  1  0
  9 26  1  0
 10 27  1  0
 11 28  1  0
 13 29  1  0
 13 30  1  0
 14 31  1  0
 18 32  1  0
 20 33  1  0
 20 34  1  0
M  ISO  8  21   8  22   8  23  14  24  14  25  14  26  14  27  14  28  14
M  ISO  4  29   8  30   8  31  14  32  14
M  END
>  <minimizedAffinity>  (1) 
-4.33912611

>  <minimizedRMSD>  (1) 
4.27591896

$$$$
