
     RDKit          3D

 39 42  0  0  0  0  0  0  0  0999 V2000
   43.0710   30.3690   42.6740 C   0  0  0  0  0  0  0  0  0  0  0  0
   43.1400   29.2790   43.5300 C   0  0  0  0  0  0  0  0  0  0  0  0
   41.8830   28.9230   43.8400 N   0  0  0  0  0  0  0  0  0  0  0  0
   41.0260   29.7580   43.2060 C   0  0  0  0  0  0  0  0  0  0  0  0
   41.7680   30.6520   42.4840 N   0  0  0  0  0  0  0  0  0  0  0  0
   41.4300   31.7470   41.6320 C   0  0  0  0  0  0  0  0  0  0  0  0
   40.7370   32.8270   42.0830 N   0  0  0  0  0  0  0  0  0  0  0  0
   40.4380   33.8480   41.2320 C   0  0  0  0  0  0  0  0  0  0  0  0
   40.8040   33.8500   39.9170 N   0  0  0  0  0  0  0  0  0  0  0  0
   41.4980   32.7840   39.4360 C   0  0  0  0  0  0  0  0  0  0  0  0
   41.9070   32.7110   38.1090 C   0  0  0  0  0  0  0  0  0  0  0  0
   42.6130   31.6240   37.6280 C   0  0  0  0  0  0  0  0  0  0  0  0
   42.9070   30.5990   38.5050 C   0  0  0  0  0  0  0  0  0  0  0  0
   42.5010   30.6730   39.8190 C   0  0  0  0  0  0  0  0  0  0  0  0
   41.7960   31.7590   40.3010 C   0  0  0  0  0  0  0  0  0  0  0  0
   44.2930   31.0120   42.1260 C   0  0  0  0  0  0  0  0  0  0  0  0
   45.1840   31.4730   43.2610 C   0  0  0  0  0  0  0  0  0  0  0  0
   44.4100   33.7270   42.6590 C   0  0  0  0  0  0  0  0  0  0  0  0
   45.4500   32.8900   43.0980 C   0  0  0  0  0  0  0  0  0  0  0  0
   46.6800   33.4710   43.3550 C   0  0  0  0  0  0  0  0  0  0  0  0
   46.8110   34.8060   43.1710 N   0  0  0  0  0  0  0  0  0  0  0  0
   45.7920   35.5860   42.7480 C   0  0  0  0  0  0  0  0  0  0  0  0
   44.6110   35.0580   42.4970 N   0  0  0  0  0  0  0  0  0  0  0  0
   47.7490   32.6960   43.7900 N   0  0  0  0  0  0  0  0  0  0  0  0
   44.0593   28.7938   43.8899 H   0  0  0  0  0  0  0  0  0  0  0  0
   39.9280   29.7235   43.2617 H   0  0  0  0  0  0  0  0  0  0  0  0
   39.8763   34.7096   41.6222 H   0  0  0  0  0  0  0  0  0  0  0  0
   41.6630   33.5378   37.4257 H   0  0  0  0  0  0  0  0  0  0  0  0
   42.9315   31.5771   36.5762 H   0  0  0  0  0  0  0  0  0  0  0  0
   43.4674   29.7203   38.1531 H   0  0  0  0  0  0  0  0  0  0  0  0
   42.7443   29.8461   40.5023 H   0  0  0  0  0  0  0  0  0  0  0  0
   44.8393   30.2874   41.5043 H   0  0  0  0  0  0  0  0  0  0  0  0
   44.0037   31.8805   41.5160 H   0  0  0  0  0  0  0  0  0  0  0  0
   44.6783   31.2996   44.2223 H   0  0  0  0  0  0  0  0  0  0  0  0
   46.1292   30.9104   43.2475 H   0  0  0  0  0  0  0  0  0  0  0  0
   43.4206   33.2970   42.4441 H   0  0  0  0  0  0  0  0  0  0  0  0
   45.9489   36.6663   42.6126 H   0  0  0  0  0  0  0  0  0  0  0  0
   48.6609   33.1361   43.9790 H   0  0  0  0  0  0  0  0  0  0  0  0
   47.6292   31.6817   43.9233 H   0  0  0  0  0  0  0  0  0  0  0  0
  1  2  2  0
  2  3  1  0
  4  3  2  0
  5  1  1  0
  5  4  1  0
  6  7  2  0
  6  5  1  0
  8  7  1  0
  9  8  2  0
 10  9  1  0
 10 15  2  0
 11 10  1  0
 12 11  2  0
 12 13  1  0
 13 14  2  0
 14 15  1  0
 15  6  1  0
 16  1  1  0
 16 17  1  0
 18 19  2  0
 19 17  1  0
 19 20  1  0
 20 24  1  0
 21 20  2  0
 22 21  1  0
 23 18  1  0
 23 22  2  0
  2 25  1  0
  4 26  1  0
  8 27  1  0
 11 28  1  0
 12 29  1  0
 13 30  1  0
 14 31  1  0
 16 32  1  0
 16 33  1  0
 17 34  1  0
 17 35  1  0
 18 36  1  0
 22 37  1  0
 24 38  1  0
 24 39  1  0
M  ISO  8  25  14  26  14  27  14  28  14  29  14  30  14  31  14  32   8
M  ISO  5  33   8  34   8  35   8  36  14  37  14
M  END
>  <minimizedAffinity>  (1) 
-3.94868898

>  <minimizedRMSD>  (1) 
7.88977623

$$$$
