
     RDKit          3D

 34 35  0  0  0  0  0  0  0  0999 V2000
   46.1560   33.8730   41.9360 C   0  0  0  0  0  0  0  0  0  0  0  0
   45.3460   35.9540   42.9960 C   0  0  0  0  0  0  0  0  0  0  0  0
   45.6100   34.5830   43.0770 C   0  0  0  0  0  0  0  0  0  0  0  0
   45.3330   33.9500   44.2740 C   0  0  0  0  0  0  0  0  0  0  0  0
   44.8250   34.6890   45.2910 N   0  0  0  0  0  0  0  0  0  0  0  0
   44.5810   36.0080   45.1810 C   0  0  0  0  0  0  0  0  0  0  0  0
   44.8370   36.6410   44.0460 N   0  0  0  0  0  0  0  0  0  0  0  0
   45.5710   32.5740   44.4320 N   0  0  0  0  0  0  0  0  0  0  0  0
   47.4620   34.5640   41.5130 C   0  0  0  0  0  0  0  0  0  0  0  0
   48.3250   33.5720   40.8360 C   0  0  0  0  0  0  0  0  0  0  0  0
   49.2330   32.7670   41.5470 C   0  0  0  0  0  0  0  0  0  0  0  0
   49.8670   31.9720   40.6640 N   0  0  0  0  0  0  0  0  0  0  0  0
   49.3820   32.2560   39.4110 C   0  0  0  0  0  0  0  0  0  0  0  0
   48.4400   33.2340   39.5260 N   0  0  0  0  0  0  0  0  0  0  0  0
   47.6630   33.8500   38.4700 C   0  0  0  0  0  0  0  0  0  0  0  0
   48.4580   34.5350   37.4190 C   0  0  0  0  0  0  0  0  0  0  0  0
   46.6810   32.8840   37.8310 C   0  0  0  0  0  0  0  0  0  0  0  0
   46.3613   32.8282   42.2123 H   0  0  0  0  0  0  0  0  0  0  0  0
   45.4362   33.8847   41.1043 H   0  0  0  0  0  0  0  0  0  0  0  0
   45.5568   36.4869   42.0571 H   0  0  0  0  0  0  0  0  0  0  0  0
   44.1676   36.5622   46.0365 H   0  0  0  0  0  0  0  0  0  0  0  0
   45.3601   32.1146   45.3294 H   0  0  0  0  0  0  0  0  0  0  0  0
   45.9563   32.0249   43.6504 H   0  0  0  0  0  0  0  0  0  0  0  0
   47.2368   35.3908   40.8233 H   0  0  0  0  0  0  0  0  0  0  0  0
   47.9766   34.9670   42.3977 H   0  0  0  0  0  0  0  0  0  0  0  0
   49.3968   32.7838   42.6346 H   0  0  0  0  0  0  0  0  0  0  0  0
   49.6999   31.7757   38.4738 H   0  0  0  0  0  0  0  0  0  0  0  0
   47.1044   34.6389   38.9950 H   0  0  0  0  0  0  0  0  0  0  0  0
   49.2102   35.1832   37.8923 H   0  0  0  0  0  0  0  0  0  0  0  0
   48.9625   33.7842   36.7931 H   0  0  0  0  0  0  0  0  0  0  0  0
   47.7900   35.1450   36.7931 H   0  0  0  0  0  0  0  0  0  0  0  0
   46.1328   32.3447   38.6175 H   0  0  0  0  0  0  0  0  0  0  0  0
   45.9696   33.4440   37.2063 H   0  0  0  0  0  0  0  0  0  0  0  0
   47.2293   32.1635   37.2063 H   0  0  0  0  0  0  0  0  0  0  0  0
  1  3  1  0
  2  3  2  0
  2  7  1  0
  3  4  1  0
  4  8  1  0
  4  5  2  0
  6  5  1  0
  7  6  2  0
  9  1  1  0
 10  9  1  0
 10 11  2  0
 12 11  1  0
 13 14  1  0
 13 12  2  0
 14 10  1  0
 15 14  1  0
 16 15  1  0
 17 15  1  0
  1 18  1  0
  1 19  1  0
  2 20  1  0
  6 21  1  0
  8 22  1  0
  8 23  1  0
  9 24  1  0
  9 25  1  0
 11 26  1  0
 13 27  1  0
 15 28  1  0
 16 29  1  0
 16 30  1  0
 16 31  1  0
 17 32  1  0
 17 33  1  0
 17 34  1  0
M  ISO  8  18   8  19   8  20  14  21  14  24   8  25   8  26  14  27  14
M  ISO  7  28   8  29   8  30   8  31   8  32   8  33   8  34   8
M  END
>  <minimizedAffinity>  (1) 
-4.26086283

>  <minimizedRMSD>  (1) 
2.38700533

$$$$
