
     RDKit          3D

 28 29  0  0  0  0  0  0  0  0999 V2000
   46.9300   33.7020   42.6840 C   0  0  0  0  0  0  0  0  0  0  0  0
   45.3930   35.3980   43.5570 C   0  0  0  0  0  0  0  0  0  0  0  0
   46.1210   34.2240   43.7670 C   0  0  0  0  0  0  0  0  0  0  0  0
   46.0200   33.6310   45.0080 C   0  0  0  0  0  0  0  0  0  0  0  0
   45.2300   34.2210   45.9310 N   0  0  0  0  0  0  0  0  0  0  0  0
   44.5410   35.3460   45.7060 C   0  0  0  0  0  0  0  0  0  0  0  0
   44.6180   35.9400   44.5230 N   0  0  0  0  0  0  0  0  0  0  0  0
   46.7200   32.4510   45.2930 N   0  0  0  0  0  0  0  0  0  0  0  0
   46.8650   34.6530   41.5060 C   0  0  0  0  0  0  0  0  0  0  0  0
   46.2550   33.9380   40.3490 C   0  0  0  0  0  0  0  0  0  0  0  0
   44.9140   33.5730   40.3290 C   0  0  0  0  0  0  0  0  0  0  0  0
   44.6720   32.9520   39.1630 N   0  0  0  0  0  0  0  0  0  0  0  0
   45.8200   32.9130   38.4420 C   0  0  0  0  0  0  0  0  0  0  0  0
   46.7790   33.5210   39.1820 N   0  0  0  0  0  0  0  0  0  0  0  0
   48.1570   33.7110   38.8140 C   0  0  0  0  0  0  0  0  0  0  0  0
   48.4310   33.3580   37.5060 F   0  0  0  0  0  0  0  0  0  0  0  0
   48.4780   35.0670   38.9240 F   0  0  0  0  0  0  0  0  0  0  0  0
   49.0070   33.0730   39.7130 F   0  0  0  0  0  0  0  0  0  0  0  0
   47.9730   33.6033   43.0192 H   0  0  0  0  0  0  0  0  0  0  0  0
   46.5487   32.7153   42.3821 H   0  0  0  0  0  0  0  0  0  0  0  0
   45.4522   35.8954   42.5777 H   0  0  0  0  0  0  0  0  0  0  0  0
   43.9129   35.7765   46.4998 H   0  0  0  0  0  0  0  0  0  0  0  0
   46.6382   32.0155   46.2228 H   0  0  0  0  0  0  0  0  0  0  0  0
   47.3163   32.0192   44.5727 H   0  0  0  0  0  0  0  0  0  0  0  0
   46.2492   35.5259   41.7683 H   0  0  0  0  0  0  0  0  0  0  0  0
   47.8769   34.9957   41.2441 H   0  0  0  0  0  0  0  0  0  0  0  0
   44.1805   33.7598   41.1272 H   0  0  0  0  0  0  0  0  0  0  0  0
   45.9488   32.4706   37.4432 H   0  0  0  0  0  0  0  0  0  0  0  0
  1  3  1  0
  2  3  2  0
  2  7  1  0
  3  4  1  0
  4  8  1  0
  4  5  2  0
  6  5  1  0
  7  6  2  0
  9  1  1  0
 10  9  1  0
 11 10  2  0
 12 11  1  0
 13 12  2  0
 13 14  1  0
 14 10  1  0
 15 17  1  0
 15 14  1  0
 15 18  1  0
 16 15  1  0
  1 19  1  0
  1 20  1  0
  2 21  1  0
  6 22  1  0
  8 23  1  0
  8 24  1  0
  9 25  1  0
  9 26  1  0
 11 27  1  0
 13 28  1  0
M  ISO  8  19   8  20   8  21  14  22  14  25   8  26   8  27  14  28  14
M  END
>  <minimizedAffinity>  (1) 
-4.43626404

>  <minimizedRMSD>  (1) 
2.12590051

$$$$
