
     RDKit          3D

 37 38  0  0  0  0  0  0  0  0999 V2000
   44.1450   35.3190   42.2600 C   0  0  0  0  0  0  0  0  0  0  0  0
   46.4670   34.7260   41.6480 C   0  0  0  0  0  0  0  0  0  0  0  0
   45.4490   34.7860   42.6200 C   0  0  0  0  0  0  0  0  0  0  0  0
   45.7430   34.3270   43.8980 C   0  0  0  0  0  0  0  0  0  0  0  0
   46.9940   33.8500   44.1250 N   0  0  0  0  0  0  0  0  0  0  0  0
   47.9500   33.8050   43.1710 C   0  0  0  0  0  0  0  0  0  0  0  0
   47.6820   34.2420   41.9420 N   0  0  0  0  0  0  0  0  0  0  0  0
   44.7770   34.3580   44.9050 N   0  0  0  0  0  0  0  0  0  0  0  0
   43.3180   34.2000   41.6620 C   0  0  0  0  0  0  0  0  0  0  0  0
   42.1170   34.7530   40.9980 C   0  0  0  0  0  0  0  0  0  0  0  0
   41.4510   35.8600   41.5100 C   0  0  0  0  0  0  0  0  0  0  0  0
   40.4070   36.1380   40.7150 N   0  0  0  0  0  0  0  0  0  0  0  0
   40.4030   35.2120   39.6960 C   0  0  0  0  0  0  0  0  0  0  0  0
   41.4460   34.3870   39.8890 N   0  0  0  0  0  0  0  0  0  0  0  0
   41.8440   33.2550   39.0670 C   0  0  0  0  0  0  0  0  0  0  0  0
   41.9680   32.0290   39.9800 C   0  0  0  0  0  0  0  0  0  0  0  0
   43.2170   33.4550   38.4640 C   0  0  0  0  0  0  0  0  0  0  0  0
   40.8440   32.8990   38.0150 C   0  0  0  0  0  0  0  0  0  0  0  0
   43.6442   35.7122   43.1570 H   0  0  0  0  0  0  0  0  0  0  0  0
   44.2590   36.1349   41.5311 H   0  0  0  0  0  0  0  0  0  0  0  0
   46.2609   35.0832   40.6282 H   0  0  0  0  0  0  0  0  0  0  0  0
   48.9478   33.4081   43.4092 H   0  0  0  0  0  0  0  0  0  0  0  0
   45.0059   34.0151   45.8489 H   0  0  0  0  0  0  0  0  0  0  0  0
   43.8353   34.7237   44.7042 H   0  0  0  0  0  0  0  0  0  0  0  0
   43.9237   33.6551   40.9229 H   0  0  0  0  0  0  0  0  0  0  0  0
   43.0028   33.5172   42.4648 H   0  0  0  0  0  0  0  0  0  0  0  0
   41.7330   36.4158   42.4164 H   0  0  0  0  0  0  0  0  0  0  0  0
   39.6765   35.1574   38.8719 H   0  0  0  0  0  0  0  0  0  0  0  0
   41.9355   32.3502   41.0316 H   0  0  0  0  0  0  0  0  0  0  0  0
   41.1351   31.3384   39.7816 H   0  0  0  0  0  0  0  0  0  0  0  0
   42.9223   31.5191   39.7816 H   0  0  0  0  0  0  0  0  0  0  0  0
   43.9588   33.5631   39.2690 H   0  0  0  0  0  0  0  0  0  0  0  0
   43.4747   32.5849   37.8423 H   0  0  0  0  0  0  0  0  0  0  0  0
   43.2158   34.3624   37.8423 H   0  0  0  0  0  0  0  0  0  0  0  0
   39.9109   32.5668   38.4935 H   0  0  0  0  0  0  0  0  0  0  0  0
   40.6413   33.7802   37.3886 H   0  0  0  0  0  0  0  0  0  0  0  0
   41.2437   32.0879   37.3886 H   0  0  0  0  0  0  0  0  0  0  0  0
  1  3  1  0
  2  7  2  0
  2  3  1  0
  3  4  2  0
  4  5  1  0
  4  8  1  0
  6  5  2  0
  7  6  1  0
  9  1  1  0
 10 11  2  0
 10  9  1  0
 12 11  1  0
 13 14  1  0
 13 12  2  0
 14 10  1  0
 15 14  1  0
 15 16  1  0
 17 15  1  0
 18 15  1  0
  1 19  1  0
  1 20  1  0
  2 21  1  0
  6 22  1  0
  8 23  1  0
  8 24  1  0
  9 25  1  0
  9 26  1  0
 11 27  1  0
 13 28  1  0
 16 29  1  0
 16 30  1  0
 16 31  1  0
 17 32  1  0
 17 33  1  0
 17 34  1  0
 18 35  1  0
 18 36  1  0
 18 37  1  0
M  ISO  8  19   8  20   8  21  14  22  14  25   8  26   8  27  14  28  14
M  ISO  8  29   8  30   8  31   8  32   8  33   8  34   8  35   8  36   8
M  ISO  1  37   8
M  END
>  <minimizedAffinity>  (1) 
-4.43945599

>  <minimizedRMSD>  (1) 
5.99323177

$$$$
