
     RDKit          3D

 35 37  0  0  1  0  0  0  0  0999 V2000
   45.4990   34.6620   43.1020 C   0  0  0  0  0  0  0  0  0  0  0  0
   45.2350   34.0660   44.3300 C   0  0  0  0  0  0  0  0  0  0  0  0
   46.3920   33.5870   44.7920 N   0  0  0  0  0  0  0  0  0  0  0  0
   47.3790   33.8480   43.9200 C   0  0  0  0  0  0  0  0  0  0  0  0
   46.8140   34.5150   42.8760 N   0  0  0  0  0  0  0  0  0  0  0  0
   47.4860   34.9990   41.6960 C   0  0  1  0  0  0  0  0  0  0  0  0
   48.9490   34.9750   41.5480 C   0  0  0  0  0  0  0  0  0  0  0  0
   48.1320   33.8990   40.8620 C   0  0  2  0  0  0  0  0  0  0  0  0
   48.0900   34.0020   39.3480 C   0  0  0  0  0  0  0  0  0  0  0  0
   46.7890   33.8510   38.8930 F   0  0  0  0  0  0  0  0  0  0  0  0
   48.9300   33.0590   38.7880 F   0  0  0  0  0  0  0  0  0  0  0  0
   48.5950   35.2460   39.0170 F   0  0  0  0  0  0  0  0  0  0  0  0
   44.4350   35.3160   42.2720 C   0  0  0  0  0  0  0  0  0  0  0  0
   43.5390   34.2220   41.7230 C   0  0  0  0  0  0  0  0  0  0  0  0
   42.7140   34.7430   39.4700 C   0  0  0  0  0  0  0  0  0  0  0  0
   42.5450   34.8090   40.8530 C   0  0  0  0  0  0  0  0  0  0  0  0
   41.4130   35.4440   41.3140 C   0  0  0  0  0  0  0  0  0  0  0  0
   40.5410   35.9630   40.4100 N   0  0  0  0  0  0  0  0  0  0  0  0
   40.7340   35.8830   39.0840 C   0  0  0  0  0  0  0  0  0  0  0  0
   41.8180   35.2730   38.6050 N   0  0  0  0  0  0  0  0  0  0  0  0
   41.1690   35.5540   42.6910 N   0  0  0  0  0  0  0  0  0  0  0  0
   44.2561   34.0013   44.8276 H   0  0  0  0  0  0  0  0  0  0  0  0
   48.4392   33.5756   44.0281 H   0  0  0  0  0  0  0  0  0  0  0  0
   46.7612   35.8161   41.5661 H   0  0  0  0  0  0  0  0  0  0  0  0
   49.4498   35.7476   40.9461 H   0  0  0  0  0  0  0  0  0  0  0  0
   49.7939   34.9683   42.2524 H   0  0  0  0  0  0  0  0  0  0  0  0
   48.0678   32.8009   40.8601 H   0  0  0  0  0  0  0  0  0  0  0  0
   43.8457   36.0055   42.8943 H   0  0  0  0  0  0  0  0  0  0  0  0
   44.8871   35.8913   41.4507 H   0  0  0  0  0  0  0  0  0  0  0  0
   44.1453   33.5015   41.1544 H   0  0  0  0  0  0  0  0  0  0  0  0
   43.0399   33.7030   42.5546 H   0  0  0  0  0  0  0  0  0  0  0  0
   43.6072   34.2424   39.0680 H   0  0  0  0  0  0  0  0  0  0  0  0
   39.9982   36.3205   38.3933 H   0  0  0  0  0  0  0  0  0  0  0  0
   40.3200   36.0305   43.0271 H   0  0  0  0  0  0  0  0  0  0  0  0
   41.8389   35.1583   43.3660 H   0  0  0  0  0  0  0  0  0  0  0  0
  1  2  2  0
  2  3  1  0
  4  3  2  0
  5  1  1  0
  5  4  1  0
  6  5  1  0
  7  6  1  0
  8  7  1  0
  8  6  1  0
  9  8  1  0
 10  9  1  0
 11  9  1  0
 12  9  1  0
 13  1  1  0
 14 13  1  0
 15 16  2  0
 16 17  1  0
 16 14  1  0
 17 21  1  0
 18 17  2  0
 19 18  1  0
 20 19  2  0
 20 15  1  0
  2 22  1  0
  4 23  1  0
  6 24  1  6
  7 25  1  0
  7 26  1  0
  8 27  1  6
 13 28  1  0
 13 29  1  0
 14 30  1  0
 14 31  1  0
 15 32  1  0
 19 33  1  0
 21 34  1  0
 21 35  1  0
M  ISO  8  22  14  23  14  24  13  25  13  26  13  27  13  28   8  29   8
M  ISO  4  30   8  31   8  32  14  33  14
M  END
>  <minimizedAffinity>  (1) 
-5.42866898

>  <minimizedRMSD>  (1) 
1.43336117

$$$$
