
     RDKit          3D

 46 49  0  0  1  0  0  0  0  0999 V2000
   45.6550   34.6570   42.8820 C   0  0  0  0  0  0  0  0  0  0  0  0
   45.4610   34.0520   44.1210 C   0  0  0  0  0  0  0  0  0  0  0  0
   46.6470   33.6010   44.5300 N   0  0  0  0  0  0  0  0  0  0  0  0
   47.5890   33.8880   43.6150 C   0  0  0  0  0  0  0  0  0  0  0  0
   46.9670   34.5390   42.6030 N   0  0  0  0  0  0  0  0  0  0  0  0
   47.5870   35.0380   41.4040 C   0  0  1  0  0  0  0  0  0  0  0  0
   49.0060   34.8490   41.0780 C   0  0  0  0  0  0  0  0  0  0  0  0
   48.0250   33.9310   40.4350 C   0  0  2  0  0  0  0  0  0  0  0  0
   47.5170   34.0670   39.1390 N   0  0  0  0  0  0  0  0  0  0  0  0
   48.3560   34.4310   38.0710 C   0  0  0  0  0  0  0  0  0  0  0  0
   48.4370   33.3510   36.9860 C   0  0  0  0  0  0  0  0  0  0  0  0
   48.3520   32.0760   37.6730 N   0  0  0  0  0  0  0  0  0  0  0  0
   46.9540   31.9220   38.0700 C   0  0  0  0  0  0  0  0  0  0  0  0
   46.4740   33.1450   38.8250 C   0  0  0  0  0  0  0  0  0  0  0  0
   44.5450   35.2810   42.1100 C   0  0  0  0  0  0  0  0  0  0  0  0
   43.5650   34.1910   41.7090 C   0  0  0  0  0  0  0  0  0  0  0  0
   42.7120   34.6580   39.4540 C   0  0  0  0  0  0  0  0  0  0  0  0
   42.5650   34.7560   40.8350 C   0  0  0  0  0  0  0  0  0  0  0  0
   41.4310   35.4110   41.3030 C   0  0  0  0  0  0  0  0  0  0  0  0
   40.5430   35.9110   40.4030 N   0  0  0  0  0  0  0  0  0  0  0  0
   40.7330   35.7890   39.0740 C   0  0  0  0  0  0  0  0  0  0  0  0
   41.8050   35.1700   38.6020 N   0  0  0  0  0  0  0  0  0  0  0  0
   41.1990   35.5570   42.6780 N   0  0  0  0  0  0  0  0  0  0  0  0
   44.5071   33.9628   44.6615 H   0  0  0  0  0  0  0  0  0  0  0  0
   48.6593   33.6416   43.6763 H   0  0  0  0  0  0  0  0  0  0  0  0
   46.9647   35.9450   41.4193 H   0  0  0  0  0  0  0  0  0  0  0  0
   49.5274   35.6006   40.4670 H   0  0  0  0  0  0  0  0  0  0  0  0
   49.9131   34.6948   41.6809 H   0  0  0  0  0  0  0  0  0  0  0  0
   48.0173   32.8360   40.3309 H   0  0  0  0  0  0  0  0  0  0  0  0
   47.9683   35.3556   37.6186 H   0  0  0  0  0  0  0  0  0  0  0  0
   49.3688   34.5697   38.4772 H   0  0  0  0  0  0  0  0  0  0  0  0
   49.3903   33.4279   36.4425 H   0  0  0  0  0  0  0  0  0  0  0  0
   47.6277   33.4629   36.2495 H   0  0  0  0  0  0  0  0  0  0  0  0
   48.6309   31.3109   37.0424 H   0  0  0  0  0  0  0  0  0  0  0  0
   46.3358   31.7874   37.1702 H   0  0  0  0  0  0  0  0  0  0  0  0
   46.8675   31.0441   38.7271 H   0  0  0  0  0  0  0  0  0  0  0  0
   45.7255   33.6634   38.2078 H   0  0  0  0  0  0  0  0  0  0  0  0
   46.0565   32.7922   39.7796 H   0  0  0  0  0  0  0  0  0  0  0  0
   44.0335   36.0288   42.7339 H   0  0  0  0  0  0  0  0  0  0  0  0
   44.9426   35.7791   41.2135 H   0  0  0  0  0  0  0  0  0  0  0  0
   44.1020   33.3873   41.1839 H   0  0  0  0  0  0  0  0  0  0  0  0
   43.0826   33.7766   42.6065 H   0  0  0  0  0  0  0  0  0  0  0  0
   43.5966   34.1464   39.0469 H   0  0  0  0  0  0  0  0  0  0  0  0
   39.9923   36.2066   38.3761 H   0  0  0  0  0  0  0  0  0  0  0  0
   40.3543   36.0447   43.0088 H   0  0  0  0  0  0  0  0  0  0  0  0
   41.8733   35.1765   43.3573 H   0  0  0  0  0  0  0  0  0  0  0  0
  1  2  2  0
  2  3  1  0
  4  3  2  0
  5  1  1  0
  5  4  1  0
  6  5  1  0
  7  6  1  0
  8  7  1  0
  8  6  1  0
  9  8  1  0
 10  9  1  0
 11 12  1  0
 11 10  1  0
 12 13  1  0
 13 14  1  0
 14  9  1  0
 15  1  1  0
 16 15  1  0
 17 18  2  0
 18 19  1  0
 18 16  1  0
 19 23  1  0
 20 19  2  0
 21 20  1  0
 22 21  2  0
 22 17  1  0
  2 24  1  0
  4 25  1  0
  6 26  1  6
  7 27  1  0
  7 28  1  0
  8 29  1  1
 10 30  1  0
 10 31  1  0
 11 32  1  0
 11 33  1  0
 12 34  1  0
 13 35  1  0
 13 36  1  0
 14 37  1  0
 14 38  1  0
 15 39  1  0
 15 40  1  0
 16 41  1  0
 16 42  1  0
 17 43  1  0
 21 44  1  0
 23 45  1  0
 23 46  1  0
M  ISO  8  24  14  25  14  26  13  27  13  28  13  29  13  30  13  31  13
M  ISO  8  32  13  33  13  34   5  35  13  36  13  37  13  38  13  39   8
M  ISO  5  40   8  41   8  42   8  43  14  44  14
M  END
>  <minimizedAffinity>  (1) 
-5.34293461

>  <minimizedRMSD>  (1) 
1.83927143

$$$$
