
     RDKit          3D

 39 41  0  0  1  0  0  0  0  0999 V2000
   45.5540   34.6340   42.6750 C   0  0  0  0  0  0  0  0  0  0  0  0
   45.2560   34.1390   43.9300 C   0  0  0  0  0  0  0  0  0  0  0  0
   46.4090   33.7280   44.4910 N   0  0  0  0  0  0  0  0  0  0  0  0
   47.4250   33.9510   43.6230 C   0  0  0  0  0  0  0  0  0  0  0  0
   46.8930   34.5030   42.5220 N   0  0  0  0  0  0  0  0  0  0  0  0
   47.6080   34.9030   41.3500 C   0  0  1  0  0  0  0  0  0  0  0  0
   48.8780   35.6360   41.3600 C   0  0  0  0  0  0  0  0  0  0  0  0
   48.9230   34.1630   41.1200 C   0  0  1  0  0  0  0  0  0  0  0  0
   49.4010   33.2730   42.1490 N   0  0  0  0  0  0  0  0  0  0  0  0
   50.4730   32.4340   41.7360 C   0  0  0  0  0  0  0  0  0  0  0  0
   50.9850   32.2680   40.5640 N   0  0  0  0  0  0  0  0  0  0  0  0
   51.1560   31.6120   42.6750 N   0  0  0  0  0  0  0  0  0  0  0  0
   50.6080   32.7940   39.7440 H   0  0  0  0  0  0  0  0  0  0  0  0
   44.5180   35.1840   41.7500 C   0  0  0  0  0  0  0  0  0  0  0  0
   44.0540   34.0580   40.8430 C   0  0  0  0  0  0  0  0  0  0  0  0
   42.3390   35.2280   39.5130 C   0  0  0  0  0  0  0  0  0  0  0  0
   42.6650   34.2890   40.4830 C   0  0  0  0  0  0  0  0  0  0  0  0
   41.6080   33.5980   41.0790 C   0  0  0  0  0  0  0  0  0  0  0  0
   40.3500   33.8900   40.6710 N   0  0  0  0  0  0  0  0  0  0  0  0
   40.0780   34.8060   39.7270 C   0  0  0  0  0  0  0  0  0  0  0  0
   41.0680   35.4770   39.1460 N   0  0  0  0  0  0  0  0  0  0  0  0
   41.8410   32.6370   42.0620 N   0  0  0  0  0  0  0  0  0  0  0  0
   44.2572   34.0896   44.3882 H   0  0  0  0  0  0  0  0  0  0  0  0
   48.4879   33.7221   43.7898 H   0  0  0  0  0  0  0  0  0  0  0  0
   46.6611   35.1072   40.8288 H   0  0  0  0  0  0  0  0  0  0  0  0
   49.1130   36.3286   40.5384 H   0  0  0  0  0  0  0  0  0  0  0  0
   49.3673   36.3096   42.0790 H   0  0  0  0  0  0  0  0  0  0  0  0
   49.3488   33.5137   40.3408 H   0  0  0  0  0  0  0  0  0  0  0  0
   49.0019   33.2471   43.0982 H   0  0  0  0  0  0  0  0  0  0  0  0
   51.9307   31.0088   42.3637 H   0  0  0  0  0  0  0  0  0  0  0  0
   50.8758   31.6201   43.6661 H   0  0  0  0  0  0  0  0  0  0  0  0
   43.6672   35.5709   42.3300 H   0  0  0  0  0  0  0  0  0  0  0  0
   44.9369   36.0076   41.1532 H   0  0  0  0  0  0  0  0  0  0  0  0
   44.6729   34.0366   39.9339 H   0  0  0  0  0  0  0  0  0  0  0  0
   44.1497   33.0943   41.3646 H   0  0  0  0  0  0  0  0  0  0  0  0
   43.1501   35.7895   39.0262 H   0  0  0  0  0  0  0  0  0  0  0  0
   39.0357   35.0011   39.4344 H   0  0  0  0  0  0  0  0  0  0  0  0
   41.0494   32.1368   42.4911 H   0  0  0  0  0  0  0  0  0  0  0  0
   42.8047   32.4273   42.3591 H   0  0  0  0  0  0  0  0  0  0  0  0
  1  2  2  0
  2  3  1  0
  4  3  2  0
  5  1  1  0
  5  4  1  0
  6  7  1  0
  6  5  1  0
  8  6  1  0
  8  7  1  0
  8  9  1  0
 10  9  1  0
 10 12  1  0
 11 10  2  0
 13 11  1  0
 14  1  1  0
 15 14  1  0
 16 17  2  0
 17 15  1  0
 17 18  1  0
 18 22  1  0
 19 18  2  0
 20 19  1  0
 21 16  1  0
 21 20  2  0
  2 23  1  0
  4 24  1  0
  6 25  1  6
  7 26  1  0
  7 27  1  0
  8 28  1  6
  9 29  1  0
 12 30  1  0
 12 31  1  0
 14 32  1  0
 14 33  1  0
 15 34  1  0
 15 35  1  0
 16 36  1  0
 20 37  1  0
 22 38  1  0
 22 39  1  0
M  ISO  8  23  14  24  14  25  13  26  13  27  13  28  13  32   8  33   8
M  ISO  4  34   8  35   8  36  14  37  14
M  END
>  <minimizedAffinity>  (1) 
-5.28952885

>  <minimizedRMSD>  (1) 
1.91446066

$$$$
