
     RDKit          3D

 39 42  0  0  1  0  0  0  0  0999 V2000
   45.5120   34.3770   42.5390 C   0  0  0  0  0  0  0  0  0  0  0  0
   45.0870   33.4260   43.4570 C   0  0  0  0  0  0  0  0  0  0  0  0
   46.1670   33.0490   44.1740 N   0  0  0  0  0  0  0  0  0  0  0  0
   47.2510   33.7400   43.7260 C   0  0  0  0  0  0  0  0  0  0  0  0
   46.8310   34.5410   42.7330 N   0  0  0  0  0  0  0  0  0  0  0  0
   47.6700   35.4240   42.0050 C   0  0  1  0  0  0  0  0  0  0  0  0
   49.1140   35.2930   41.8110 C   0  0  0  0  0  0  0  0  0  0  0  0
   48.2080   34.8810   40.6860 C   0  0  1  0  0  0  0  0  0  0  0  0
   48.2170   33.4120   40.4570 C   0  0  0  0  0  0  0  0  0  0  0  0
   49.3330   32.6390   40.7730 C   0  0  0  0  0  0  0  0  0  0  0  0
   48.9700   31.3430   40.4260 C   0  0  0  0  0  0  0  0  0  0  0  0
   47.6720   31.3940   39.9230 C   0  0  0  0  0  0  0  0  0  0  0  0
   47.2860   32.6650   39.9720 O   0  0  0  0  0  0  0  0  0  0  0  0
   44.5850   35.0260   41.5690 C   0  0  0  0  0  0  0  0  0  0  0  0
   44.0130   33.9490   40.6570 C   0  0  0  0  0  0  0  0  0  0  0  0
   42.3010   35.2320   39.4260 C   0  0  0  0  0  0  0  0  0  0  0  0
   42.6210   34.2690   40.3910 C   0  0  0  0  0  0  0  0  0  0  0  0
   41.5640   33.6640   41.0530 C   0  0  0  0  0  0  0  0  0  0  0  0
   40.2930   34.0320   40.7350 N   0  0  0  0  0  0  0  0  0  0  0  0
   40.0280   34.9600   39.8020 C   0  0  0  0  0  0  0  0  0  0  0  0
   41.0270   35.5550   39.1530 N   0  0  0  0  0  0  0  0  0  0  0  0
   41.8060   32.6870   42.0370 N   0  0  0  0  0  0  0  0  0  0  0  0
   44.0605   33.0495   43.5777 H   0  0  0  0  0  0  0  0  0  0  0  0
   48.2798   33.6576   44.1066 H   0  0  0  0  0  0  0  0  0  0  0  0
   47.0781   36.2683   42.3882 H   0  0  0  0  0  0  0  0  0  0  0  0
   49.7340   36.1958   41.7084 H   0  0  0  0  0  0  0  0  0  0  0  0
   49.9202   34.7935   42.3683 H   0  0  0  0  0  0  0  0  0  0  0  0
   48.0231   35.1389   39.6328 H   0  0  0  0  0  0  0  0  0  0  0  0
   50.2876   32.9787   41.2013 H   0  0  0  0  0  0  0  0  0  0  0  0
   49.5932   30.4425   40.5296 H   0  0  0  0  0  0  0  0  0  0  0  0
   47.0790   30.5438   39.5551 H   0  0  0  0  0  0  0  0  0  0  0  0
   43.7688   35.5250   42.1120 H   0  0  0  0  0  0  0  0  0  0  0  0
   45.1254   35.7772   40.9743 H   0  0  0  0  0  0  0  0  0  0  0  0
   44.5760   33.9239   39.7123 H   0  0  0  0  0  0  0  0  0  0  0  0
   44.0899   32.9635   41.1395 H   0  0  0  0  0  0  0  0  0  0  0  0
   43.1121   35.7352   38.8792 H   0  0  0  0  0  0  0  0  0  0  0  0
   38.9861   35.2288   39.5737 H   0  0  0  0  0  0  0  0  0  0  0  0
   41.0162   32.2412   42.5253 H   0  0  0  0  0  0  0  0  0  0  0  0
   42.7728   32.4179   42.2687 H   0  0  0  0  0  0  0  0  0  0  0  0
  1  5  1  0
  1  2  2  0
  2  3  1  0
  4  3  2  0
  5  4  1  0
  6  5  1  0
  7  6  1  0
  8  7  1  0
  8  6  1  0
  9  8  1  0
  9 10  2  0
 11 10  1  0
 12 13  1  0
 12 11  2  0
 13  9  1  0
 14  1  1  0
 15 14  1  0
 16 17  2  0
 17 15  1  0
 17 18  1  0
 18 22  1  0
 19 18  2  0
 20 19  1  0
 21 16  1  0
 21 20  2  0
  2 23  1  0
  4 24  1  0
  6 25  1  6
  7 26  1  0
  7 27  1  0
  8 28  1  6
 10 29  1  0
 11 30  1  0
 12 31  1  0
 14 32  1  0
 14 33  1  0
 15 34  1  0
 15 35  1  0
 16 36  1  0
 20 37  1  0
 22 38  1  0
 22 39  1  0
M  ISO  8  23  14  24  14  25  13  26  13  27  13  28  13  29  14  30  14
M  ISO  7  31  14  32   8  33   8  34   8  35   8  36  14  37  14
M  END
>  <minimizedAffinity>  (1) 
-5.06682205

>  <minimizedRMSD>  (1) 
0.440344185

$$$$
