
     RDKit          3D

 45 48  0  0  1  0  0  0  0  0999 V2000
   46.0530   34.4820   44.0040 C   0  0  0  0  0  0  0  0  0  0  0  0
   45.1500   35.5400   43.8600 C   0  0  0  0  0  0  0  0  0  0  0  0
   44.4520   35.6130   44.9990 N   0  0  0  0  0  0  0  0  0  0  0  0
   44.8810   34.6480   45.8420 C   0  0  0  0  0  0  0  0  0  0  0  0
   45.8580   33.9680   45.2210 N   0  0  0  0  0  0  0  0  0  0  0  0
   46.5970   32.8550   45.7560 C   0  0  1  0  0  0  0  0  0  0  0  0
   47.0080   32.7780   47.1740 C   0  0  0  0  0  0  0  0  0  0  0  0
   45.8060   31.9970   46.7470 C   0  0  2  0  0  0  0  0  0  0  0  0
   45.9480   30.5900   46.7950 N   0  0  0  0  0  0  0  0  0  0  0  0
   47.2560   30.0480   46.7760 C   0  0  0  0  0  0  0  0  0  0  0  0
   47.2560   28.7070   47.4660 C   0  0  0  0  0  0  0  0  0  0  0  0
   46.2200   27.9350   46.9630 O   0  0  0  0  0  0  0  0  0  0  0  0
   44.9710   28.4140   47.3440 C   0  0  0  0  0  0  0  0  0  0  0  0
   45.0040   29.9040   47.6130 C   0  0  0  0  0  0  0  0  0  0  0  0
   47.0080   34.1060   42.9120 C   0  0  0  0  0  0  0  0  0  0  0  0
   46.2910   33.1630   41.9630 C   0  0  0  0  0  0  0  0  0  0  0  0
   48.3610   32.6200   40.7270 C   0  0  0  0  0  0  0  0  0  0  0  0
   47.0520   33.0750   40.7290 C   0  0  0  0  0  0  0  0  0  0  0  0
   46.5030   33.4430   39.4990 C   0  0  0  0  0  0  0  0  0  0  0  0
   47.2720   33.3360   38.3860 N   0  0  0  0  0  0  0  0  0  0  0  0
   48.5380   32.8890   38.4300 C   0  0  0  0  0  0  0  0  0  0  0  0
   49.0790   32.5340   39.5930 N   0  0  0  0  0  0  0  0  0  0  0  0
   45.1770   33.9180   39.4090 N   0  0  0  0  0  0  0  0  0  0  0  0
   45.0355   36.1883   42.9787 H   0  0  0  0  0  0  0  0  0  0  0  0
   44.4985   34.4544   46.8550 H   0  0  0  0  0  0  0  0  0  0  0  0
   47.1658   32.7334   44.8223 H   0  0  0  0  0  0  0  0  0  0  0  0
   47.9334   32.2485   47.4447 H   0  0  0  0  0  0  0  0  0  0  0  0
   47.1969   33.5255   47.9586 H   0  0  0  0  0  0  0  0  0  0  0  0
   44.7361   31.9306   46.9939 H   0  0  0  0  0  0  0  0  0  0  0  0
   47.5861   29.9240   45.7341 H   0  0  0  0  0  0  0  0  0  0  0  0
   47.9423   30.7294   47.3001 H   0  0  0  0  0  0  0  0  0  0  0  0
   48.2148   28.1996   47.2838 H   0  0  0  0  0  0  0  0  0  0  0  0
   47.1194   28.8485   48.5483 H   0  0  0  0  0  0  0  0  0  0  0  0
   44.2502   28.2126   46.5378 H   0  0  0  0  0  0  0  0  0  0  0  0
   44.6749   27.9032   48.2721 H   0  0  0  0  0  0  0  0  0  0  0  0
   45.2699   30.0653   48.6681 H   0  0  0  0  0  0  0  0  0  0  0  0
   44.0073   30.3060   47.3785 H   0  0  0  0  0  0  0  0  0  0  0  0
   47.3286   35.0079   42.3700 H   0  0  0  0  0  0  0  0  0  0  0  0
   47.8978   33.6171   43.3353 H   0  0  0  0  0  0  0  0  0  0  0  0
   46.2126   32.1660   42.4212 H   0  0  0  0  0  0  0  0  0  0  0  0
   45.2796   33.5409   41.7529 H   0  0  0  0  0  0  0  0  0  0  0  0
   48.8252   32.3212   41.6784 H   0  0  0  0  0  0  0  0  0  0  0  0
   49.1278   32.8163   37.5044 H   0  0  0  0  0  0  0  0  0  0  0  0
   44.7867   34.1854   38.4941 H   0  0  0  0  0  0  0  0  0  0  0  0
   44.5996   33.9972   40.2582 H   0  0  0  0  0  0  0  0  0  0  0  0
  1  5  1  0
  2  1  2  0
  2  3  1  0
  3  4  2  0
  5  6  1  0
  5  4  1  0
  6  8  1  0
  6  7  1  0
  8  9  1  0
  8  7  1  0
  9 14  1  0
 10  9  1  0
 10 11  1  0
 12 13  1  0
 12 11  1  0
 13 14  1  0
 15  1  1  0
 16 15  1  0
 17 18  2  0
 18 16  1  0
 19 18  1  0
 20 21  1  0
 20 19  2  0
 21 22  2  0
 22 17  1  0
 23 19  1  0
  2 24  1  0
  4 25  1  0
  6 26  1  6
  7 27  1  0
  7 28  1  0
  8 29  1  1
 10 30  1  0
 10 31  1  0
 11 32  1  0
 11 33  1  0
 13 34  1  0
 13 35  1  0
 14 36  1  0
 14 37  1  0
 15 38  1  0
 15 39  1  0
 16 40  1  0
 16 41  1  0
 17 42  1  0
 21 43  1  0
 23 44  1  0
 23 45  1  0
M  ISO  8  24  14  25  14  26  13  27  13  28  13  29  13  30  13  31  13
M  ISO  8  32  13  33  13  34  13  35  13  36  13  37  13  38   8  39   8
M  ISO  4  40   8  41   8  42  14  43  14
M  END
>  <minimizedAffinity>  (1) 
-4.82710505

>  <minimizedRMSD>  (1) 
7.46937132

$$$$
