
     RDKit          3D

 45 48  0  0  1  0  0  0  0  0999 V2000
   45.0860   35.0550   43.3040 C   0  0  0  0  0  0  0  0  0  0  0  0
   45.9150   33.8620   43.6440 C   0  0  0  0  0  0  0  0  0  0  0  0
   45.3910   32.7240   44.2200 C   0  0  0  0  0  0  0  0  0  0  0  0
   46.3970   31.8480   44.3930 N   0  0  0  0  0  0  0  0  0  0  0  0
   47.5490   32.4040   43.9390 C   0  0  0  0  0  0  0  0  0  0  0  0
   47.2360   33.6390   43.4830 N   0  0  0  0  0  0  0  0  0  0  0  0
   48.1520   34.5820   42.9120 C   0  0  1  0  0  0  0  0  0  0  0  0
   49.5800   34.3310   42.6970 C   0  0  0  0  0  0  0  0  0  0  0  0
   48.6720   34.1820   41.5260 C   0  0  2  0  0  0  0  0  0  0  0  0
   48.6040   35.1770   40.4190 C   0  0  0  0  0  0  0  0  0  0  0  0
   48.3670   34.5830   39.0570 C   0  0  0  0  0  0  0  0  0  0  0  0
   45.2170   35.3200   41.8290 C   0  0  0  0  0  0  0  0  0  0  0  0
   42.7650   35.5090   41.6660 C   0  0  0  0  0  0  0  0  0  0  0  0
   43.9610   34.9970   41.1690 C   0  0  0  0  0  0  0  0  0  0  0  0
   43.8850   34.1990   40.0540 C   0  0  0  0  0  0  0  0  0  0  0  0
   42.6710   33.9480   39.4980 N   0  0  0  0  0  0  0  0  0  0  0  0
   41.5400   34.4670   40.0170 C   0  0  0  0  0  0  0  0  0  0  0  0
   41.5900   35.2340   41.0840 N   0  0  0  0  0  0  0  0  0  0  0  0
   45.0470   33.6350   39.4770 N   0  0  0  0  0  0  0  0  0  0  0  0
   40.2430   34.1760   39.3900 C   0  0  0  0  0  0  0  0  0  0  0  0
   39.0410   33.8800   40.0310 C   0  0  0  0  0  0  0  0  0  0  0  0
   38.1060   33.6810   39.0330 C   0  0  0  0  0  0  0  0  0  0  0  0
   38.7750   33.8620   37.8390 C   0  0  0  0  0  0  0  0  0  0  0  0
   40.0320   34.1530   38.0760 O   0  0  0  0  0  0  0  0  0  0  0  0
   44.0329   34.8590   43.5541 H   0  0  0  0  0  0  0  0  0  0  0  0
   45.4291   35.9292   43.8768 H   0  0  0  0  0  0  0  0  0  0  0  0
   44.3372   32.5614   44.4901 H   0  0  0  0  0  0  0  0  0  0  0  0
   48.5461   31.9396   43.9413 H   0  0  0  0  0  0  0  0  0  0  0  0
   47.6362   35.4158   43.4108 H   0  0  0  0  0  0  0  0  0  0  0  0
   50.2898   35.1707   42.7302 H   0  0  0  0  0  0  0  0  0  0  0  0
   50.3196   33.6734   43.1772 H   0  0  0  0  0  0  0  0  0  0  0  0
   48.4973   33.3831   40.7904 H   0  0  0  0  0  0  0  0  0  0  0  0
   47.7830   35.8762   40.6360 H   0  0  0  0  0  0  0  0  0  0  0  0
   49.5882   35.6666   40.3788 H   0  0  0  0  0  0  0  0  0  0  0  0
   47.9614   33.5663   39.1659 H   0  0  0  0  0  0  0  0  0  0  0  0
   47.6490   35.2070   38.5047 H   0  0  0  0  0  0  0  0  0  0  0  0
   49.3174   34.5414   38.5047 H   0  0  0  0  0  0  0  0  0  0  0  0
   45.4554   36.3814   41.6661 H   0  0  0  0  0  0  0  0  0  0  0  0
   46.0227   34.6974   41.4129 H   0  0  0  0  0  0  0  0  0  0  0  0
   42.7855   36.1540   42.5568 H   0  0  0  0  0  0  0  0  0  0  0  0
   44.9693   33.0390   38.6406 H   0  0  0  0  0  0  0  0  0  0  0  0
   45.9707   33.8204   39.8933 H   0  0  0  0  0  0  0  0  0  0  0  0
   38.8706   33.8173   41.1159 H   0  0  0  0  0  0  0  0  0  0  0  0
   37.0432   33.4292   39.1636 H   0  0  0  0  0  0  0  0  0  0  0  0
   38.3225   33.7753   36.8401 H   0  0  0  0  0  0  0  0  0  0  0  0
  1  2  1  0
  2  3  2  0
  3  4  1  0
  5  4  2  0
  6  2  1  0
  6  5  1  0
  7  6  1  0
  8  7  1  0
  9  8  1  0
  9  7  1  0
 10  9  1  0
 11 10  1  0
 12  1  1  0
 14 13  2  0
 14 12  1  0
 15 14  1  0
 16 17  1  0
 16 15  2  0
 17 18  2  0
 18 13  1  0
 19 15  1  0
 20 17  1  0
 20 21  2  0
 22 21  1  0
 23 24  1  0
 23 22  2  0
 24 20  1  0
  1 25  1  0
  1 26  1  0
  3 27  1  0
  5 28  1  0
  7 29  1  6
  8 30  1  0
  8 31  1  0
  9 32  1  6
 10 33  1  0
 10 34  1  0
 11 35  1  0
 11 36  1  0
 11 37  1  0
 12 38  1  0
 12 39  1  0
 13 40  1  0
 19 41  1  0
 19 42  1  0
 21 43  1  0
 22 44  1  0
 23 45  1  0
M  ISO  8  25   8  26   8  27  14  28  14  29  13  30  13  31  13  32  13
M  ISO  8  33   8  34   8  35   8  36   8  37   8  38   8  39   8  40  14
M  ISO  3  43  14  44  14  45  14
M  END
>  <minimizedAffinity>  (1) 
-5.63644552

>  <minimizedRMSD>  (1) 
1.91092253

$$$$
