
     RDKit          3D

 50 53  0  0  1  0  0  0  0  0999 V2000
   45.0190   35.0130   42.7260 C   0  0  0  0  0  0  0  0  0  0  0  0
   45.8490   33.9910   43.4050 C   0  0  0  0  0  0  0  0  0  0  0  0
   45.3140   32.9450   44.1460 C   0  0  0  0  0  0  0  0  0  0  0  0
   46.3330   32.2110   44.6200 N   0  0  0  0  0  0  0  0  0  0  0  0
   47.5050   32.7500   44.2060 C   0  0  0  0  0  0  0  0  0  0  0  0
   47.1950   33.8360   43.4660 N   0  0  0  0  0  0  0  0  0  0  0  0
   48.1320   34.7140   42.8260 C   0  0  1  0  0  0  0  0  0  0  0  0
   49.5640   34.4420   42.6670 C   0  0  0  0  0  0  0  0  0  0  0  0
   48.6680   34.1940   41.4880 C   0  0  2  0  0  0  0  0  0  0  0  0
   48.6430   35.0900   40.3000 C   0  0  0  0  0  0  0  0  0  0  0  0
   48.1710   34.4290   39.0250 C   0  0  0  0  0  0  0  0  0  0  0  0
   45.1250   34.8070   41.2300 C   0  0  0  0  0  0  0  0  0  0  0  0
   42.7310   35.3890   41.2060 C   0  0  0  0  0  0  0  0  0  0  0  0
   43.7930   34.6610   40.6730 C   0  0  0  0  0  0  0  0  0  0  0  0
   43.5080   33.8180   39.6110 C   0  0  0  0  0  0  0  0  0  0  0  0
   42.2230   33.7580   39.1660 N   0  0  0  0  0  0  0  0  0  0  0  0
   41.2330   34.4760   39.7100 C   0  0  0  0  0  0  0  0  0  0  0  0
   41.4850   35.2920   40.7290 N   0  0  0  0  0  0  0  0  0  0  0  0
   44.5100   33.0450   39.0080 N   0  0  0  0  0  0  0  0  0  0  0  0
   39.9060   34.3620   39.1900 N   0  0  0  0  0  0  0  0  0  0  0  0
   38.7550   33.9260   39.9480 C   0  0  0  0  0  0  0  0  0  0  0  0
   37.9780   33.1190   38.9310 C   0  0  0  0  0  0  0  0  0  0  0  0
   38.4710   33.5740   37.5620 C   0  0  0  0  0  0  0  0  0  0  0  0
   39.4770   34.6550   37.8390 C   0  0  0  0  0  0  0  0  0  0  0  0
   43.9704   34.9075   43.0410 H   0  0  0  0  0  0  0  0  0  0  0  0
   45.3719   36.0203   42.9920 H   0  0  0  0  0  0  0  0  0  0  0  0
   44.2442   32.7522   44.3146 H   0  0  0  0  0  0  0  0  0  0  0  0
   48.5147   32.3751   44.4297 H   0  0  0  0  0  0  0  0  0  0  0  0
   47.6125   35.5911   43.2392 H   0  0  0  0  0  0  0  0  0  0  0  0
   50.2771   35.2791   42.6416 H   0  0  0  0  0  0  0  0  0  0  0  0
   50.2916   33.8275   43.2174 H   0  0  0  0  0  0  0  0  0  0  0  0
   48.4898   33.3370   40.8218 H   0  0  0  0  0  0  0  0  0  0  0  0
   47.9706   35.9324   40.5193 H   0  0  0  0  0  0  0  0  0  0  0  0
   49.6824   35.4035   40.1231 H   0  0  0  0  0  0  0  0  0  0  0  0
   47.5482   33.5568   39.2730 H   0  0  0  0  0  0  0  0  0  0  0  0
   47.5797   35.1465   38.4371 H   0  0  0  0  0  0  0  0  0  0  0  0
   49.0416   34.1027   38.4371 H   0  0  0  0  0  0  0  0  0  0  0  0
   45.6216   35.6758   40.7732 H   0  0  0  0  0  0  0  0  0  0  0  0
   45.7137   33.9013   41.0224 H   0  0  0  0  0  0  0  0  0  0  0  0
   42.9243   36.0680   42.0495 H   0  0  0  0  0  0  0  0  0  0  0  0
   44.2773   32.4245   38.2195 H   0  0  0  0  0  0  0  0  0  0  0  0
   45.4789   33.0976   39.3534 H   0  0  0  0  0  0  0  0  0  0  0  0
   39.0554   33.3034   40.8036 H   0  0  0  0  0  0  0  0  0  0  0  0
   38.1775   34.7550   40.3831 H   0  0  0  0  0  0  0  0  0  0  0  0
   38.1710   32.0448   39.0683 H   0  0  0  0  0  0  0  0  0  0  0  0
   36.8943   33.2739   39.0391 H   0  0  0  0  0  0  0  0  0  0  0  0
   37.6364   33.9690   36.9642 H   0  0  0  0  0  0  0  0  0  0  0  0
   38.9098   32.7441   36.9887 H   0  0  0  0  0  0  0  0  0  0  0  0
   40.3208   34.5996   37.1355 H   0  0  0  0  0  0  0  0  0  0  0  0
   39.0662   35.6690   37.7249 H   0  0  0  0  0  0  0  0  0  0  0  0
  1  2  1  0
  2  6  1  0
  2  3  2  0
  3  4  1  0
  5  4  2  0
  6  5  1  0
  7  6  1  0
  8  7  1  0
  9  8  1  0
  9  7  1  0
 10  9  1  0
 11 10  1  0
 12  1  1  0
 14 13  2  0
 14 12  1  0
 15 14  1  0
 16 15  2  0
 16 17  1  0
 17 18  2  0
 18 13  1  0
 19 15  1  0
 20 17  1  0
 20 21  1  0
 22 21  1  0
 23 24  1  0
 23 22  1  0
 24 20  1  0
  1 25  1  0
  1 26  1  0
  3 27  1  0
  5 28  1  0
  7 29  1  6
  8 30  1  0
  8 31  1  0
  9 32  1  6
 10 33  1  0
 10 34  1  0
 11 35  1  0
 11 36  1  0
 11 37  1  0
 12 38  1  0
 12 39  1  0
 13 40  1  0
 19 41  1  0
 19 42  1  0
 21 43  1  0
 21 44  1  0
 22 45  1  0
 22 46  1  0
 23 47  1  0
 23 48  1  0
 24 49  1  0
 24 50  1  0
M  ISO  8  25   8  26   8  27  14  28  14  29  13  30  13  31  13  32  13
M  ISO  8  33   8  34   8  35   8  36   8  37   8  38   8  39   8  40  14
M  ISO  8  43  13  44  13  45  13  46  13  47  13  48  13  49  13  50  13
M  END
>  <minimizedAffinity>  (1) 
-5.87761784

>  <minimizedRMSD>  (1) 
1.83579314

$$$$
