
     RDKit          3D

 41 43  0  0  1  0  0  0  0  0999 V2000
   45.5130   34.5550   42.8400 C   0  0  0  0  0  0  0  0  0  0  0  0
   45.1240   33.7800   43.9080 C   0  0  0  0  0  0  0  0  0  0  0  0
   46.2340   33.3800   44.5510 N   0  0  0  0  0  0  0  0  0  0  0  0
   47.3200   33.8820   43.9190 C   0  0  0  0  0  0  0  0  0  0  0  0
   46.8640   34.5990   42.8750 N   0  0  0  0  0  0  0  0  0  0  0  0
   47.6690   35.3090   41.9280 C   0  0  1  0  0  0  0  0  0  0  0  0
   49.1350   35.2780   41.8840 C   0  0  0  0  0  0  0  0  0  0  0  0
   48.3860   34.4160   40.9120 C   0  0  2  0  0  0  0  0  0  0  0  0
   48.2740   34.7480   39.4570 C   0  0  0  0  0  0  0  0  0  0  0  0
   47.6200   33.6810   38.6320 C   0  0  0  0  0  0  0  0  0  0  0  0
   44.5400   35.1750   41.8970 C   0  0  0  0  0  0  0  0  0  0  0  0
   44.3840   34.2700   40.7070 C   0  0  0  0  0  0  0  0  0  0  0  0
   42.5050   35.0380   39.3220 C   0  0  0  0  0  0  0  0  0  0  0  0
   42.9850   34.1980   40.3220 C   0  0  0  0  0  0  0  0  0  0  0  0
   42.0860   33.3250   40.9040 C   0  0  0  0  0  0  0  0  0  0  0  0
   40.7960   33.3390   40.4680 N   0  0  0  0  0  0  0  0  0  0  0  0
   40.3820   34.1720   39.4990 C   0  0  0  0  0  0  0  0  0  0  0  0
   41.2230   35.0130   38.9290 N   0  0  0  0  0  0  0  0  0  0  0  0
   42.4830   32.4450   41.9170 N   0  0  0  0  0  0  0  0  0  0  0  0
   38.9340   34.1130   39.0850 C   0  0  0  0  0  0  0  0  0  0  0  0
   38.6210   32.7530   38.9560 F   0  0  0  0  0  0  0  0  0  0  0  0
   38.7130   34.6720   37.8570 F   0  0  0  0  0  0  0  0  0  0  0  0
   38.0980   34.5860   40.0780 F   0  0  0  0  0  0  0  0  0  0  0  0
   44.0890   33.5320   44.1860 H   0  0  0  0  0  0  0  0  0  0  0  0
   48.3721   33.7330   44.2034 H   0  0  0  0  0  0  0  0  0  0  0  0
   46.9703   36.1583   41.9527 H   0  0  0  0  0  0  0  0  0  0  0  0
   49.6870   36.1566   41.5188 H   0  0  0  0  0  0  0  0  0  0  0  0
   49.9190   35.0853   42.6312 H   0  0  0  0  0  0  0  0  0  0  0  0
   48.4198   33.3484   40.6493 H   0  0  0  0  0  0  0  0  0  0  0  0
   47.6837   35.6709   39.3582 H   0  0  0  0  0  0  0  0  0  0  0  0
   49.3008   34.8562   39.0775 H   0  0  0  0  0  0  0  0  0  0  0  0
   47.1617   32.9333   39.2961 H   0  0  0  0  0  0  0  0  0  0  0  0
   46.8434   34.1327   37.9973 H   0  0  0  0  0  0  0  0  0  0  0  0
   48.3749   33.1940   37.9973 H   0  0  0  0  0  0  0  0  0  0  0  0
   43.5682   35.3012   42.3968 H   0  0  0  0  0  0  0  0  0  0  0  0
   44.9049   36.1613   41.5744 H   0  0  0  0  0  0  0  0  0  0  0  0
   44.9737   34.6664   39.8673 H   0  0  0  0  0  0  0  0  0  0  0  0
   44.7405   33.2627   40.9682 H   0  0  0  0  0  0  0  0  0  0  0  0
   43.1975   35.7434   38.8395 H   0  0  0  0  0  0  0  0  0  0  0  0
   41.7976   31.8018   42.3383 H   0  0  0  0  0  0  0  0  0  0  0  0
   43.4606   32.4405   42.2414 H   0  0  0  0  0  0  0  0  0  0  0  0
  1  5  1  0
  1  2  2  0
  2  3  1  0
  4  3  2  0
  5  4  1  0
  6  5  1  0
  7  6  1  0
  8  7  1  0
  8  6  1  0
  9  8  1  0
 10  9  1  0
 11  1  1  0
 12 11  1  0
 13 14  2  0
 14 12  1  0
 14 15  1  0
 15 19  1  0
 16 15  2  0
 17 16  1  0
 18 13  1  0
 18 17  2  0
 20 17  1  0
 20 23  1  0
 21 20  1  0
 22 20  1  0
  2 24  1  0
  4 25  1  0
  6 26  1  6
  7 27  1  0
  7 28  1  0
  8 29  1  6
  9 30  1  0
  9 31  1  0
 10 32  1  0
 10 33  1  0
 10 34  1  0
 11 35  1  0
 11 36  1  0
 12 37  1  0
 12 38  1  0
 13 39  1  0
 19 40  1  0
 19 41  1  0
M  ISO  8  24  14  25  14  26  13  27  13  28  13  29  13  30   8  31   8
M  ISO  8  32   8  33   8  34   8  35   8  36   8  37   8  38   8  39  14
M  END
>  <minimizedAffinity>  (1) 
-5.77047968

>  <minimizedRMSD>  (1) 
0.623395801

$$$$
