
     RDKit          3D

 52 56  0  0  1  0  0  0  0  0999 V2000
   45.3470   35.7490   43.1720 C   0  0  0  0  0  0  0  0  0  0  0  0
   45.9640   34.5330   43.7810 C   0  0  0  0  0  0  0  0  0  0  0  0
   45.2740   33.6840   44.6180 C   0  0  0  0  0  0  0  0  0  0  0  0
   46.1160   32.6990   44.9850 N   0  0  0  0  0  0  0  0  0  0  0  0
   47.3220   32.9010   44.4040 C   0  0  0  0  0  0  0  0  0  0  0  0
   47.2160   34.0340   43.6640 N   0  0  0  0  0  0  0  0  0  0  0  0
   48.2550   34.6270   42.8740 C   0  0  1  0  0  0  0  0  0  0  0  0
   49.5290   33.9830   42.5460 C   0  0  0  0  0  0  0  0  0  0  0  0
   48.4530   33.9940   41.5120 C   0  0  2  0  0  0  0  0  0  0  0  0
   48.4980   34.8750   40.3020 C   0  0  0  0  0  0  0  0  0  0  0  0
   48.0470   34.2300   39.0270 C   0  0  0  0  0  0  0  0  0  0  0  0
   45.1890   35.5170   41.6920 C   0  0  0  0  0  0  0  0  0  0  0  0
   42.7230   35.4480   41.6540 C   0  0  0  0  0  0  0  0  0  0  0  0
   43.9580   34.7980   41.4550 C   0  0  0  0  0  0  0  0  0  0  0  0
   43.9160   33.4770   41.0320 C   0  0  0  0  0  0  0  0  0  0  0  0
   42.6980   32.8980   40.8390 N   0  0  0  0  0  0  0  0  0  0  0  0
   41.5500   33.5480   41.0390 C   0  0  0  0  0  0  0  0  0  0  0  0
   41.5590   34.8120   41.4430 N   0  0  0  0  0  0  0  0  0  0  0  0
   45.0960   32.7590   40.8100 N   0  0  0  0  0  0  0  0  0  0  0  0
   40.2530   32.9010   40.8240 C   0  0  0  0  0  0  0  0  0  0  0  0
   39.1380   32.9520   41.6110 C   0  0  0  0  0  0  0  0  0  0  0  0
   38.1590   32.2040   41.0350 N   0  0  0  0  0  0  0  0  0  0  0  0
   38.6400   31.6770   39.8880 C   0  0  0  0  0  0  0  0  0  0  0  0
   38.0190   30.8500   38.9590 C   0  0  0  0  0  0  0  0  0  0  0  0
   38.7520   30.4400   37.8410 C   0  0  0  0  0  0  0  0  0  0  0  0
   40.0730   30.8530   37.6640 C   0  0  0  0  0  0  0  0  0  0  0  0
   40.6390   31.6730   38.6180 C   0  0  0  0  0  0  0  0  0  0  0  0
   39.9540   32.0990   39.7320 C   0  0  0  0  0  0  0  0  0  0  0  0
   44.3618   35.9317   43.6259 H   0  0  0  0  0  0  0  0  0  0  0  0
   45.9884   36.6250   43.3490 H   0  0  0  0  0  0  0  0  0  0  0  0
   44.2247   33.7912   44.9303 H   0  0  0  0  0  0  0  0  0  0  0  0
   48.2157   32.2687   44.5110 H   0  0  0  0  0  0  0  0  0  0  0  0
   48.0415   35.6111   43.3168 H   0  0  0  0  0  0  0  0  0  0  0  0
   50.4298   34.5977   42.4023 H   0  0  0  0  0  0  0  0  0  0  0  0
   50.1344   33.1941   43.0162 H   0  0  0  0  0  0  0  0  0  0  0  0
   47.9701   33.2165   40.9018 H   0  0  0  0  0  0  0  0  0  0  0  0
   47.8521   35.7453   40.4903 H   0  0  0  0  0  0  0  0  0  0  0  0
   49.5560   35.1373   40.1542 H   0  0  0  0  0  0  0  0  0  0  0  0
   47.4309   33.3489   39.2597 H   0  0  0  0  0  0  0  0  0  0  0  0
   47.4534   34.9484   38.4426 H   0  0  0  0  0  0  0  0  0  0  0  0
   48.9255   33.9191   38.4426 H   0  0  0  0  0  0  0  0  0  0  0  0
   45.1573   36.4841   41.1688 H   0  0  0  0  0  0  0  0  0  0  0  0
   46.0396   34.9296   41.3160 H   0  0  0  0  0  0  0  0  0  0  0  0
   42.7125   36.4959   41.9884 H   0  0  0  0  0  0  0  0  0  0  0  0
   45.0512   31.7790   40.4961 H   0  0  0  0  0  0  0  0  0  0  0  0
   46.0095   33.2104   40.9604 H   0  0  0  0  0  0  0  0  0  0  0  0
   39.0467   33.5073   42.5562 H   0  0  0  0  0  0  0  0  0  0  0  0
   37.2102   32.0630   41.4103 H   0  0  0  0  0  0  0  0  0  0  0  0
   36.9772   30.5263   39.0999 H   0  0  0  0  0  0  0  0  0  0  0  0
   38.2821   29.7847   37.0928 H   0  0  0  0  0  0  0  0  0  0  0  0
   40.6498   30.5321   36.7840 H   0  0  0  0  0  0  0  0  0  0  0  0
   41.6806   31.9995   38.4823 H   0  0  0  0  0  0  0  0  0  0  0  0
  1  2  1  0
  2  3  2  0
  3  4  1  0
  5  4  2  0
  6  2  1  0
  6  5  1  0
  7  6  1  0
  8  7  1  0
  9  8  1  0
  9  7  1  0
 10  9  1  0
 11 10  1  0
 12  1  1  0
 14 13  2  0
 14 12  1  0
 15 14  1  0
 16 15  2  0
 16 17  1  0
 17 18  2  0
 18 13  1  0
 19 15  1  0
 20 17  1  0
 20 21  2  0
 22 21  1  0
 23 22  1  0
 24 23  2  0
 25 24  1  0
 26 25  2  0
 26 27  1  0
 27 28  2  0
 28 23  1  0
 28 20  1  0
  1 29  1  0
  1 30  1  0
  3 31  1  0
  5 32  1  0
  7 33  1  6
  8 34  1  0
  8 35  1  0
  9 36  1  6
 10 37  1  0
 10 38  1  0
 11 39  1  0
 11 40  1  0
 11 41  1  0
 12 42  1  0
 12 43  1  0
 13 44  1  0
 19 45  1  0
 19 46  1  0
 21 47  1  0
 22 48  1  0
 24 49  1  0
 25 50  1  0
 26 51  1  0
 27 52  1  0
M  ISO  8  29   8  30   8  31  14  32  14  33  13  34  13  35  13  36  13
M  ISO  8  37   8  38   8  39   8  40   8  41   8  42   8  43   8  44  14
M  ISO  6  47  14  48   9  49  14  50  14  51  14  52  14
M  END
>  <minimizedAffinity>  (1) 
-5.97799683

>  <minimizedRMSD>  (1) 
2.34270644

$$$$
