
     RDKit          3D

 20 20  0  0  0  0  0  0  0  0999 V2000
   45.1540   36.0500   43.3410 C   0  0  0  0  0  0  0  0  0  0  0  0
   46.0670   35.0300   43.0240 C   0  0  0  0  0  0  0  0  0  0  0  0
   46.2790   34.0480   43.9940 C   0  0  0  0  0  0  0  0  0  0  0  0
   45.5980   34.1280   45.1850 N   0  0  0  0  0  0  0  0  0  0  0  0
   44.7280   35.1300   45.4440 C   0  0  0  0  0  0  0  0  0  0  0  0
   44.5090   36.0840   44.5260 N   0  0  0  0  0  0  0  0  0  0  0  0
   46.7810   34.9790   41.7310 C   0  0  0  0  0  0  0  0  0  0  0  0
   46.4930   33.7040   40.9610 C   0  0  0  0  0  0  0  0  0  0  0  0
   48.2460   35.1630   41.9670 C   0  0  0  0  0  0  0  0  0  0  0  0
   47.4200   32.7020   43.6980 S   0  0  0  0  0  0  0  0  0  0  0  0
   44.9597   36.8424   42.6032 H   0  0  0  0  0  0  0  0  0  0  0  0
   44.1993   35.1632   46.4080 H   0  0  0  0  0  0  0  0  0  0  0  0
   46.4119   35.8004   41.0993 H   0  0  0  0  0  0  0  0  0  0  0  0
   46.3074   32.8824   41.6685 H   0  0  0  0  0  0  0  0  0  0  0  0
   45.6053   33.8505   40.3281 H   0  0  0  0  0  0  0  0  0  0  0  0
   47.3575   33.4547   40.3281 H   0  0  0  0  0  0  0  0  0  0  0  0
   48.4428   35.1877   43.0490 H   0  0  0  0  0  0  0  0  0  0  0  0
   48.7984   34.3272   41.5128 H   0  0  0  0  0  0  0  0  0  0  0  0
   48.5745   36.1095   41.5128 H   0  0  0  0  0  0  0  0  0  0  0  0
   47.8494   32.1955   44.8963 H   0  0  0  0  0  0  0  0  0  0  0  0
  1  6  2  0
  2  1  1  0
  2  3  2  0
  3  4  1  0
  4  5  2  0
  6  5  1  0
  7  9  1  0
  7  2  1  0
  8  7  1  0
 10  3  1  0
  1 11  1  0
  5 12  1  0
  7 13  1  0
  8 14  1  0
  8 15  1  0
  8 16  1  0
  9 17  1  0
  9 18  1  0
  9 19  1  0
 10 20  1  0
M  ISO  8  11  14  12  14  13   8  14   8  15   8  16   8  17   8  18   8
M  ISO  2  19   8  20  11
M  END
>  <minimizedAffinity>  (1) 
-3.75629377

>  <minimizedRMSD>  (1) 
1.99052417

$$$$
