
     RDKit          3D

 40 42  0  0  1  0  0  0  0  0999 V2000
   45.5710   34.5650   42.8770 C   0  0  0  0  0  0  0  0  0  0  0  0
   45.1520   33.7790   43.9300 C   0  0  0  0  0  0  0  0  0  0  0  0
   46.2520   33.3390   44.5650 N   0  0  0  0  0  0  0  0  0  0  0  0
   47.3580   33.8250   43.9440 C   0  0  0  0  0  0  0  0  0  0  0  0
   46.9230   34.5780   42.9060 N   0  0  0  0  0  0  0  0  0  0  0  0
   47.7470   35.2820   41.9820 C   0  0  1  0  0  0  0  0  0  0  0  0
   49.2070   35.1910   41.9190 C   0  0  0  0  0  0  0  0  0  0  0  0
   48.4150   34.3930   40.9280 C   0  0  2  0  0  0  0  0  0  0  0  0
   48.3080   34.7600   39.4890 C   0  0  0  0  0  0  0  0  0  0  0  0
   47.6530   33.7410   38.6060 C   0  0  0  0  0  0  0  0  0  0  0  0
   44.6290   35.2360   41.9350 C   0  0  0  0  0  0  0  0  0  0  0  0
   44.3500   34.2930   40.7930 C   0  0  0  0  0  0  0  0  0  0  0  0
   42.4020   35.2430   39.6000 C   0  0  0  0  0  0  0  0  0  0  0  0
   42.9230   34.3130   40.5040 C   0  0  0  0  0  0  0  0  0  0  0  0
   42.0240   33.4400   41.0870 C   0  0  0  0  0  0  0  0  0  0  0  0
   40.7120   33.5340   40.7540 N   0  0  0  0  0  0  0  0  0  0  0  0
   40.2560   34.4410   39.8840 C   0  0  0  0  0  0  0  0  0  0  0  0
   41.0970   35.3000   39.3030 N   0  0  0  0  0  0  0  0  0  0  0  0
   42.4640   32.4740   42.0040 N   0  0  0  0  0  0  0  0  0  0  0  0
   38.8300   34.4950   39.5640 C   0  0  0  0  0  0  0  0  0  0  0  0
   38.1180   33.5700   40.0870 O   0  0  0  0  0  0  0  0  0  0  0  0
   44.1098   33.5537   44.2003 H   0  0  0  0  0  0  0  0  0  0  0  0
   48.4046   33.6422   44.2291 H   0  0  0  0  0  0  0  0  0  0  0  0
   47.0871   36.1598   42.0455 H   0  0  0  0  0  0  0  0  0  0  0  0
   49.7914   36.0576   41.5763 H   0  0  0  0  0  0  0  0  0  0  0  0
   49.9894   34.9411   42.6507 H   0  0  0  0  0  0  0  0  0  0  0  0
   48.3990   33.3343   40.6299 H   0  0  0  0  0  0  0  0  0  0  0  0
   47.7264   35.6911   39.4199 H   0  0  0  0  0  0  0  0  0  0  0  0
   49.3419   34.8523   39.1251 H   0  0  0  0  0  0  0  0  0  0  0  0
   47.1625   32.9779   39.2281 H   0  0  0  0  0  0  0  0  0  0  0  0
   46.9024   34.2343   37.9710 H   0  0  0  0  0  0  0  0  0  0  0  0
   48.4135   33.2631   37.9710 H   0  0  0  0  0  0  0  0  0  0  0  0
   43.6907   35.4771   42.4560 H   0  0  0  0  0  0  0  0  0  0  0  0
   45.0720   36.1690   41.5565 H   0  0  0  0  0  0  0  0  0  0  0  0
   44.9117   34.6139   39.9033 H   0  0  0  0  0  0  0  0  0  0  0  0
   44.6611   33.2739   41.0661 H   0  0  0  0  0  0  0  0  0  0  0  0
   43.0879   35.9533   39.1152 H   0  0  0  0  0  0  0  0  0  0  0  0
   41.7881   31.8268   42.4344 H   0  0  0  0  0  0  0  0  0  0  0  0
   43.4630   32.4118   42.2470 H   0  0  0  0  0  0  0  0  0  0  0  0
   38.4002   35.2757   38.9192 H   0  0  0  0  0  0  0  0  0  0  0  0
  1  5  1  0
  1  2  2  0
  2  3  1  0
  4  3  2  0
  5  4  1  0
  6  5  1  0
  7  6  1  0
  8  7  1  0
  8  6  1  0
  9  8  1  0
 10  9  1  0
 11  1  1  0
 12 11  1  0
 13 14  2  0
 14 12  1  0
 14 15  1  0
 15 19  1  0
 16 15  2  0
 17 16  1  0
 18 13  1  0
 18 17  2  0
 20 17  1  0
 20 21  2  0
  2 22  1  0
  4 23  1  0
  6 24  1  6
  7 25  1  0
  7 26  1  0
  8 27  1  6
  9 28  1  0
  9 29  1  0
 10 30  1  0
 10 31  1  0
 10 32  1  0
 11 33  1  0
 11 34  1  0
 12 35  1  0
 12 36  1  0
 13 37  1  0
 19 38  1  0
 19 39  1  0
 20 40  1  0
M  ISO  8  22  14  23  14  24  13  25  13  26  13  27  13  28   8  29   8
M  ISO  8  30   8  31   8  32   8  33   8  34   8  35   8  36   8  37  14
M  ISO  1  40   6
M  END
>  <minimizedAffinity>  (1) 
-5.16656494

>  <minimizedRMSD>  (1) 
0.250841439

$$$$
