
     RDKit          3D

 40 42  0  0  1  0  0  0  0  0999 V2000
   45.5240   34.5750   42.8220 C   0  0  0  0  0  0  0  0  0  0  0  0
   45.1240   33.7870   43.8860 C   0  0  0  0  0  0  0  0  0  0  0  0
   46.2340   33.3640   44.5130 N   0  0  0  0  0  0  0  0  0  0  0  0
   47.3190   33.8510   43.8880 C   0  0  0  0  0  0  0  0  0  0  0  0
   46.8680   34.5960   42.8490 N   0  0  0  0  0  0  0  0  0  0  0  0
   47.6790   35.3030   41.9120 C   0  0  1  0  0  0  0  0  0  0  0  0
   49.1420   35.2600   41.8640 C   0  0  0  0  0  0  0  0  0  0  0  0
   48.3940   34.4070   40.9010 C   0  0  2  0  0  0  0  0  0  0  0  0
   48.2890   34.7450   39.4450 C   0  0  0  0  0  0  0  0  0  0  0  0
   47.6160   33.6960   38.5930 C   0  0  0  0  0  0  0  0  0  0  0  0
   44.5660   35.2230   41.8950 C   0  0  0  0  0  0  0  0  0  0  0  0
   44.2480   34.2430   40.7720 C   0  0  0  0  0  0  0  0  0  0  0  0
   42.2800   35.2250   39.6430 C   0  0  0  0  0  0  0  0  0  0  0  0
   42.8170   34.2840   40.5170 C   0  0  0  0  0  0  0  0  0  0  0  0
   41.9330   33.4190   41.1080 C   0  0  0  0  0  0  0  0  0  0  0  0
   40.5980   33.5280   40.8110 N   0  0  0  0  0  0  0  0  0  0  0  0
   40.1370   34.4520   39.9630 C   0  0  0  0  0  0  0  0  0  0  0  0
   40.9670   35.2960   39.3800 N   0  0  0  0  0  0  0  0  0  0  0  0
   42.3890   32.4290   42.0120 N   0  0  0  0  0  0  0  0  0  0  0  0
   38.7360   34.4930   39.7120 N   0  0  0  0  0  0  0  0  0  0  0  0
   44.0872   33.5502   44.1671 H   0  0  0  0  0  0  0  0  0  0  0  0
   48.3694   33.6787   44.1655 H   0  0  0  0  0  0  0  0  0  0  0  0
   46.9876   36.1581   41.9408 H   0  0  0  0  0  0  0  0  0  0  0  0
   49.6995   36.1341   41.4964 H   0  0  0  0  0  0  0  0  0  0  0  0
   49.9252   35.0626   42.6108 H   0  0  0  0  0  0  0  0  0  0  0  0
   48.4212   33.3385   40.6411 H   0  0  0  0  0  0  0  0  0  0  0  0
   47.7157   35.6792   39.3521 H   0  0  0  0  0  0  0  0  0  0  0  0
   49.3211   34.8269   39.0734 H   0  0  0  0  0  0  0  0  0  0  0  0
   47.1365   32.9486   39.2422 H   0  0  0  0  0  0  0  0  0  0  0  0
   46.8546   34.1725   37.9580 H   0  0  0  0  0  0  0  0  0  0  0  0
   48.3665   33.2025   37.9580 H   0  0  0  0  0  0  0  0  0  0  0  0
   43.6433   35.4818   42.4350 H   0  0  0  0  0  0  0  0  0  0  0  0
   45.0032   36.1438   41.4815 H   0  0  0  0  0  0  0  0  0  0  0  0
   44.7956   34.5303   39.8623 H   0  0  0  0  0  0  0  0  0  0  0  0
   44.5508   33.2259   41.0616 H   0  0  0  0  0  0  0  0  0  0  0  0
   42.9580   35.9369   39.1497 H   0  0  0  0  0  0  0  0  0  0  0  0
   41.7169   31.7836   42.4510 H   0  0  0  0  0  0  0  0  0  0  0  0
   43.3928   32.3543   42.2306 H   0  0  0  0  0  0  0  0  0  0  0  0
   38.3493   35.1935   39.0634 H   0  0  0  0  0  0  0  0  0  0  0  0
   38.1093   33.8222   40.1790 H   0  0  0  0  0  0  0  0  0  0  0  0
  1  5  1  0
  1  2  2  0
  2  3  1  0
  4  3  2  0
  5  4  1  0
  6  5  1  0
  7  6  1  0
  8  7  1  0
  8  6  1  0
  9  8  1  0
 10  9  1  0
 11  1  1  0
 12 11  1  0
 13 14  2  0
 14 12  1  0
 14 15  1  0
 15 19  1  0
 16 15  2  0
 17 16  1  0
 18 13  1  0
 18 17  2  0
 20 17  1  0
  2 21  1  0
  4 22  1  0
  6 23  1  6
  7 24  1  0
  7 25  1  0
  8 26  1  6
  9 27  1  0
  9 28  1  0
 10 29  1  0
 10 30  1  0
 10 31  1  0
 11 32  1  0
 11 33  1  0
 12 34  1  0
 12 35  1  0
 13 36  1  0
 19 37  1  0
 19 38  1  0
 20 39  1  0
 20 40  1  0
M  ISO  8  21  14  22  14  23  13  24  13  25  13  26  13  27   8  28   8
M  ISO  8  29   8  30   8  31   8  32   8  33   8  34   8  35   8  36  14
M  END
>  <minimizedAffinity>  (1) 
-5.13796854

>  <minimizedRMSD>  (1) 
0.138858467

$$$$
