
     RDKit          3D

 25 26  0  0  0  0  0  0  0  0999 V2000
   45.6520   33.5540   45.9360 C   0  0  0  0  0  0  0  0  0  0  0  0
   45.9530   33.3600   44.5790 C   0  0  0  0  0  0  0  0  0  0  0  0
   46.8410   32.3280   44.2440 C   0  0  0  0  0  0  0  0  0  0  0  0
   47.3680   31.5610   45.2560 N   0  0  0  0  0  0  0  0  0  0  0  0
   47.0540   31.7780   46.5460 C   0  0  0  0  0  0  0  0  0  0  0  0
   46.2080   32.7620   46.8710 N   0  0  0  0  0  0  0  0  0  0  0  0
   45.4640   34.0920   43.4810 N   0  0  0  0  0  0  0  0  0  0  0  0
   46.1060   35.3330   43.1140 C   0  0  0  0  0  0  0  0  0  0  0  0
   45.0340   36.3620   42.9800 C   0  0  0  0  0  0  0  0  0  0  0  0
   43.9850   36.0270   42.0870 N   0  0  0  0  0  0  0  0  0  0  0  0
   43.7090   34.6570   41.8480 C   0  0  0  0  0  0  0  0  0  0  0  0
   44.3400   33.6440   42.7050 C   0  0  0  0  0  0  0  0  0  0  0  0
   47.2960   31.9910   42.5460 S   0  0  0  0  0  0  0  0  0  0  0  0
   44.9603   34.3550   46.2358 H   0  0  0  0  0  0  0  0  0  0  0  0
   47.4925   31.1468   47.3329 H   0  0  0  0  0  0  0  0  0  0  0  0
   46.8206   35.6328   43.8947 H   0  0  0  0  0  0  0  0  0  0  0  0
   46.6602   35.2216   42.1704 H   0  0  0  0  0  0  0  0  0  0  0  0
   44.5945   36.5273   43.9747 H   0  0  0  0  0  0  0  0  0  0  0  0
   45.5189   37.2557   42.5603 H   0  0  0  0  0  0  0  0  0  0  0  0
   43.1227   36.4501   42.4591 H   0  0  0  0  0  0  0  0  0  0  0  0
   42.6208   34.5261   41.9416 H   0  0  0  0  0  0  0  0  0  0  0  0
   44.1424   34.4696   40.8545 H   0  0  0  0  0  0  0  0  0  0  0  0
   43.5764   33.2692   43.4025 H   0  0  0  0  0  0  0  0  0  0  0  0
   44.7358   32.8790   42.0208 H   0  0  0  0  0  0  0  0  0  0  0  0
   48.3967   31.1757   42.5214 H   0  0  0  0  0  0  0  0  0  0  0  0
  1  6  2  0
  2  1  1  0
  3  2  2  0
  3  4  1  0
  4  5  2  0
  5  6  1  0
  7  2  1  0
  8  7  1  0
  9  8  1  0
 10  9  1  0
 11 10  1  0
 11 12  1  0
 12  7  1  0
 13  3  1  0
  1 14  1  0
  5 15  1  0
  8 16  1  0
  8 17  1  0
  9 18  1  0
  9 19  1  0
 10 20  1  0
 11 21  1  0
 11 22  1  0
 12 23  1  0
 12 24  1  0
 13 25  1  0
M  ISO  8  14  14  15  14  16  13  17  13  18  13  19  13  20   5  21  13
M  ISO  4  22  13  23  13  24  13  25  11
M  END
>  <minimizedAffinity>  (1) 
-3.41134095

>  <minimizedRMSD>  (1) 
2.90995288

$$$$
