
     RDKit          3D

 30 31  0  0  0  0  0  0  0  0999 V2000
   44.1880   35.6650   44.2360 C   0  0  0  0  0  0  0  0  0  0  0  0
   44.5540   35.1980   42.9740 C   0  0  0  0  0  0  0  0  0  0  0  0
   45.5130   34.1920   42.9300 C   0  0  0  0  0  0  0  0  0  0  0  0
   46.0340   33.7270   44.1220 N   0  0  0  0  0  0  0  0  0  0  0  0
   45.6520   34.2060   45.3020 C   0  0  0  0  0  0  0  0  0  0  0  0
   44.7200   35.1840   45.3600 N   0  0  0  0  0  0  0  0  0  0  0  0
   43.9780   35.7180   41.7180 C   0  0  0  0  0  0  0  0  0  0  0  0
   42.7160   34.9440   41.3160 C   0  0  0  0  0  0  0  0  0  0  0  0
   41.4830   35.6370   41.7480 C   0  0  0  0  0  0  0  0  0  0  0  0
   40.3780   35.7750   40.7760 C   0  0  0  0  0  0  0  0  0  0  0  0
   40.7370   35.7090   39.3310 C   0  0  0  0  0  0  0  0  0  0  0  0
   41.5380   34.4110   39.1700 C   0  0  0  0  0  0  0  0  0  0  0  0
   42.8610   34.7190   39.8280 C   0  0  0  0  0  0  0  0  0  0  0  0
   46.0800   33.4960   41.3900 S   0  0  0  0  0  0  0  0  0  0  0  0
   43.4316   36.4605   44.3069 H   0  0  0  0  0  0  0  0  0  0  0  0
   46.0927   33.8080   46.2280 H   0  0  0  0  0  0  0  0  0  0  0  0
   43.7186   36.7781   41.8556 H   0  0  0  0  0  0  0  0  0  0  0  0
   44.7254   35.5984   40.9198 H   0  0  0  0  0  0  0  0  0  0  0  0
   42.6160   33.9728   41.8227 H   0  0  0  0  0  0  0  0  0  0  0  0
   41.0873   35.0871   42.6146 H   0  0  0  0  0  0  0  0  0  0  0  0
   41.8062   36.6709   41.9392 H   0  0  0  0  0  0  0  0  0  0  0  0
   39.6571   34.9687   40.9762 H   0  0  0  0  0  0  0  0  0  0  0  0
   39.9888   36.7926   40.9279 H   0  0  0  0  0  0  0  0  0  0  0  0
   39.8296   35.6810   38.7098 H   0  0  0  0  0  0  0  0  0  0  0  0
   41.3150   36.5889   39.0122 H   0  0  0  0  0  0  0  0  0  0  0  0
   41.0341   33.5745   39.6763 H   0  0  0  0  0  0  0  0  0  0  0  0
   41.6470   34.1066   38.1186 H   0  0  0  0  0  0  0  0  0  0  0  0
   43.5453   33.8739   39.6618 H   0  0  0  0  0  0  0  0  0  0  0  0
   43.2546   35.6442   39.3818 H   0  0  0  0  0  0  0  0  0  0  0  0
   46.9301   32.4525   41.6460 H   0  0  0  0  0  0  0  0  0  0  0  0
  1  6  2  0
  2  1  1  0
  3  2  2  0
  3  4  1  0
  4  5  2  0
  5  6  1  0
  7  2  1  0
  8  7  1  0
  8  9  1  0
 10  9  1  0
 11 10  1  0
 12 11  1  0
 12 13  1  0
 13  8  1  0
 14  3  1  0
  1 15  1  0
  5 16  1  0
  7 17  1  0
  7 18  1  0
  8 19  1  0
  9 20  1  0
  9 21  1  0
 10 22  1  0
 10 23  1  0
 11 24  1  0
 11 25  1  0
 12 26  1  0
 12 27  1  0
 13 28  1  0
 13 29  1  0
 14 30  1  0
M  ISO  8  15  14  16  14  17   8  18   8  19  13  20  13  21  13  22  13
M  ISO  8  23  13  24  13  25  13  26  13  27  13  28  13  29  13  30  11
M  END
>  <minimizedAffinity>  (1) 
-4.54193497

>  <minimizedRMSD>  (1) 
1.59029245

$$$$
