
     RDKit          3D

 20 21  0  0  0  0  0  0  0  0999 V2000
   44.5670   35.5470   44.6720 C   0  0  0  0  0  0  0  0  0  0  0  0
   45.3140   35.0320   43.6110 C   0  0  0  0  0  0  0  0  0  0  0  0
   46.1330   33.9390   43.8830 C   0  0  0  0  0  0  0  0  0  0  0  0
   46.1500   33.4490   45.1550 N   0  0  0  0  0  0  0  0  0  0  0  0
   45.4190   33.9700   46.1480 C   0  0  0  0  0  0  0  0  0  0  0  0
   44.6330   35.0160   45.9010 N   0  0  0  0  0  0  0  0  0  0  0  0
   45.2600   35.5990   42.2430 C   0  0  0  0  0  0  0  0  0  0  0  0
   44.0490   35.0930   41.4990 C   0  0  0  0  0  0  0  0  0  0  0  0
   44.1720   34.1450   40.5430 C   0  0  0  0  0  0  0  0  0  0  0  0
   42.4520   33.8880   39.9660 S   0  0  0  0  0  0  0  0  0  0  0  0
   41.8360   35.2090   41.2190 C   0  0  0  0  0  0  0  0  0  0  0  0
   42.8220   35.5110   41.7090 N   0  0  0  0  0  0  0  0  0  0  0  0
   47.1390   33.1830   42.6150 S   0  0  0  0  0  0  0  0  0  0  0  0
   43.9080   36.4098   44.4951 H   0  0  0  0  0  0  0  0  0  0  0  0
   45.4672   33.5381   47.1585 H   0  0  0  0  0  0  0  0  0  0  0  0
   45.2099   36.6959   42.3093 H   0  0  0  0  0  0  0  0  0  0  0  0
   46.1633   35.2884   41.6975 H   0  0  0  0  0  0  0  0  0  0  0  0
   45.0881   33.6459   40.1941 H   0  0  0  0  0  0  0  0  0  0  0  0
   40.8159   35.5732   41.4109 H   0  0  0  0  0  0  0  0  0  0  0  0
   48.1291   32.4390   43.2007 H   0  0  0  0  0  0  0  0  0  0  0  0
  1  6  2  0
  2  3  2  0
  2  1  1  0
  3  4  1  0
  4  5  2  0
  6  5  1  0
  7  2  1  0
  8 12  1  0
  8  7  1  0
  9  8  2  0
 10  9  1  0
 10 11  1  0
 11 12  2  0
 13  3  1  0
  1 14  1  0
  5 15  1  0
  7 16  1  0
  7 17  1  0
  9 18  1  0
 11 19  1  0
 13 20  1  0
M  ISO  7  14  14  15  14  16   8  17   8  18  14  19  14  20  11
M  END
>  <minimizedAffinity>  (1) 
-3.81561422

>  <minimizedRMSD>  (1) 
0.941422939

$$$$
