
     RDKit          3D

 27 29  0  0  0  0  0  0  0  0999 V2000
   44.5900   35.5590   44.6610 C   0  0  0  0  0  0  0  0  0  0  0  0
   45.2450   35.0120   43.5560 C   0  0  0  0  0  0  0  0  0  0  0  0
   46.0160   33.8660   43.7660 C   0  0  0  0  0  0  0  0  0  0  0  0
   46.0760   33.3620   45.0260 N   0  0  0  0  0  0  0  0  0  0  0  0
   45.4330   33.9110   46.0760 C   0  0  0  0  0  0  0  0  0  0  0  0
   44.6970   35.0020   45.8850 N   0  0  0  0  0  0  0  0  0  0  0  0
   45.1420   35.6060   42.2030 C   0  0  0  0  0  0  0  0  0  0  0  0
   43.8950   35.1220   41.5010 C   0  0  0  0  0  0  0  0  0  0  0  0
   43.9630   34.2730   40.4450 C   0  0  0  0  0  0  0  0  0  0  0  0
   42.2200   34.0080   39.9800 S   0  0  0  0  0  0  0  0  0  0  0  0
   41.6680   35.1790   41.4040 C   0  0  0  0  0  0  0  0  0  0  0  0
   42.6810   35.4580   41.8310 N   0  0  0  0  0  0  0  0  0  0  0  0
   46.9000   33.0700   42.4430 S   0  0  0  0  0  0  0  0  0  0  0  0
   50.2280   34.9220   42.9100 N   0  0  0  0  0  0  0  0  0  0  0  0
   48.9140   34.7770   42.9330 N   0  0  0  0  0  0  0  0  0  0  0  0
   48.6080   33.5580   42.5180 C   0  0  0  0  0  0  0  0  0  0  0  0
   49.7540   32.8450   42.2010 C   0  0  0  0  0  0  0  0  0  0  0  0
   50.7800   33.7590   42.4650 C   0  0  0  0  0  0  0  0  0  0  0  0
   43.9748   36.4616   44.5310 H   0  0  0  0  0  0  0  0  0  0  0  0
   45.5160   33.4627   47.0771 H   0  0  0  0  0  0  0  0  0  0  0  0
   45.1043   36.7018   42.2916 H   0  0  0  0  0  0  0  0  0  0  0  0
   46.0200   35.3007   41.6149 H   0  0  0  0  0  0  0  0  0  0  0  0
   44.8615   33.8439   39.9776 H   0  0  0  0  0  0  0  0  0  0  0  0
   40.6593   35.4889   41.7147 H   0  0  0  0  0  0  0  0  0  0  0  0
   50.7458   35.7697   43.1821 H   0  0  0  0  0  0  0  0  0  0  0  0
   49.8366   31.8121   41.8318 H   0  0  0  0  0  0  0  0  0  0  0  0
   51.8557   33.5695   42.3346 H   0  0  0  0  0  0  0  0  0  0  0  0
  1  6  2  0
  2  3  2  0
  2  1  1  0
  3  4  1  0
  4  5  2  0
  6  5  1  0
  7  2  1  0
  8 12  1  0
  8  7  1  0
  9  8  2  0
 10  9  1  0
 10 11  1  0
 11 12  2  0
 13 16  1  0
 13  3  1  0
 14 15  1  0
 16 15  2  0
 17 18  2  0
 17 16  1  0
 18 14  1  0
  1 19  1  0
  5 20  1  0
  7 21  1  0
  7 22  1  0
  9 23  1  0
 11 24  1  0
 14 25  1  0
 17 26  1  0
 18 27  1  0
M  ISO  8  19  14  20  14  21   8  22   8  23  14  24  14  25   9  26  14
M  ISO  1  27  14
M  END
>  <minimizedAffinity>  (1) 
-5.26333427

>  <minimizedRMSD>  (1) 
0.378288716

$$$$
