
     RDKit          3D

 29 31  0  0  0  0  0  0  0  0999 V2000
   44.4400   35.8100   44.4890 C   0  0  0  0  0  0  0  0  0  0  0  0
   44.9880   35.0740   43.4350 C   0  0  0  0  0  0  0  0  0  0  0  0
   45.6240   33.8760   43.7630 C   0  0  0  0  0  0  0  0  0  0  0  0
   45.6680   33.5030   45.0780 N   0  0  0  0  0  0  0  0  0  0  0  0
   45.1310   34.2350   46.0590 C   0  0  0  0  0  0  0  0  0  0  0  0
   44.5200   35.3840   45.7580 N   0  0  0  0  0  0  0  0  0  0  0  0
   44.9110   35.5270   42.0330 C   0  0  0  0  0  0  0  0  0  0  0  0
   43.6040   35.0940   41.4030 C   0  0  0  0  0  0  0  0  0  0  0  0
   43.5730   34.2760   40.3150 C   0  0  0  0  0  0  0  0  0  0  0  0
   41.7960   34.0780   39.9780 S   0  0  0  0  0  0  0  0  0  0  0  0
   41.3760   35.2070   41.4620 C   0  0  0  0  0  0  0  0  0  0  0  0
   42.4220   35.4490   41.8280 N   0  0  0  0  0  0  0  0  0  0  0  0
   46.3650   32.8440   42.5130 S   0  0  0  0  0  0  0  0  0  0  0  0
   48.1340   33.0750   42.4390 C   0  0  0  0  0  0  0  0  0  0  0  0
   48.5940   34.3670   42.6080 C   0  0  0  0  0  0  0  0  0  0  0  0
   49.9570   34.6050   42.5610 C   0  0  0  0  0  0  0  0  0  0  0  0
   50.8880   33.5900   42.3480 C   0  0  0  0  0  0  0  0  0  0  0  0
   50.3530   32.3080   42.1840 C   0  0  0  0  0  0  0  0  0  0  0  0
   49.0370   32.0770   42.2310 N   0  0  0  0  0  0  0  0  0  0  0  0
   43.9312   36.7609   44.2726 H   0  0  0  0  0  0  0  0  0  0  0  0
   45.1916   33.8947   47.1033 H   0  0  0  0  0  0  0  0  0  0  0  0
   44.9802   36.6244   42.0036 H   0  0  0  0  0  0  0  0  0  0  0  0
   45.7419   35.0776   41.4694 H   0  0  0  0  0  0  0  0  0  0  0  0
   44.4216   33.8383   39.7689 H   0  0  0  0  0  0  0  0  0  0  0  0
   40.3988   35.5299   41.8503 H   0  0  0  0  0  0  0  0  0  0  0  0
   47.8882   35.1935   42.7772 H   0  0  0  0  0  0  0  0  0  0  0  0
   50.3191   35.6348   42.6970 H   0  0  0  0  0  0  0  0  0  0  0  0
   51.9702   33.7839   42.3113 H   0  0  0  0  0  0  0  0  0  0  0  0
   51.0364   31.4636   42.0110 H   0  0  0  0  0  0  0  0  0  0  0  0
  1  6  2  0
  2  3  2  0
  2  1  1  0
  3  4  1  0
  4  5  2  0
  6  5  1  0
  7  2  1  0
  8 12  1  0
  8  7  1  0
  9  8  2  0
 10  9  1  0
 10 11  1  0
 11 12  2  0
 13  3  1  0
 14 13  1  0
 14 15  2  0
 16 15  1  0
 17 16  2  0
 18 19  2  0
 18 17  1  0
 19 14  1  0
  1 20  1  0
  5 21  1  0
  7 22  1  0
  7 23  1  0
  9 24  1  0
 11 25  1  0
 15 26  1  0
 16 27  1  0
 17 28  1  0
 18 29  1  0
M  ISO  8  20  14  21  14  22   8  23   8  24  14  25  14  26  14  27  14
M  ISO  2  28  14  29  14
M  END
>  <minimizedAffinity>  (1) 
-5.11784172

>  <minimizedRMSD>  (1) 
0.968268335

$$$$
