
     RDKit          3D

 27 29  0  0  0  0  0  0  0  0999 V2000
   44.5140   35.6710   44.5670 C   0  0  0  0  0  0  0  0  0  0  0  0
   45.1380   34.9880   43.5250 C   0  0  0  0  0  0  0  0  0  0  0  0
   45.8290   33.8240   43.8440 C   0  0  0  0  0  0  0  0  0  0  0  0
   45.8460   33.4400   45.1450 N   0  0  0  0  0  0  0  0  0  0  0  0
   45.2400   34.1090   46.1340 C   0  0  0  0  0  0  0  0  0  0  0  0
   44.5740   35.2300   45.8230 N   0  0  0  0  0  0  0  0  0  0  0  0
   45.0800   35.4650   42.1210 C   0  0  0  0  0  0  0  0  0  0  0  0
   43.8040   35.0210   41.4540 C   0  0  0  0  0  0  0  0  0  0  0  0
   43.7890   34.1250   40.4480 C   0  0  0  0  0  0  0  0  0  0  0  0
   42.0300   33.9530   40.0200 S   0  0  0  0  0  0  0  0  0  0  0  0
   41.5750   35.2260   41.3890 C   0  0  0  0  0  0  0  0  0  0  0  0
   42.6210   35.4530   41.7830 N   0  0  0  0  0  0  0  0  0  0  0  0
   46.6710   32.8560   42.5980 S   0  0  0  0  0  0  0  0  0  0  0  0
   48.3690   33.4050   42.5090 C   0  0  0  0  0  0  0  0  0  0  0  0
   48.7490   34.7260   42.5920 C   0  0  0  0  0  0  0  0  0  0  0  0
   50.1450   34.7140   42.4800 C   0  0  0  0  0  0  0  0  0  0  0  0
   50.5320   33.3860   42.3360 C   0  0  0  0  0  0  0  0  0  0  0  0
   49.4500   32.6450   42.3590 O   0  0  0  0  0  0  0  0  0  0  0  0
   43.9593   36.5952   44.3478 H   0  0  0  0  0  0  0  0  0  0  0  0
   45.2873   33.7489   47.1723 H   0  0  0  0  0  0  0  0  0  0  0  0
   45.1275   36.5639   42.1118 H   0  0  0  0  0  0  0  0  0  0  0  0
   45.9312   35.0387   41.5698 H   0  0  0  0  0  0  0  0  0  0  0  0
   44.6474   33.6128   39.9889 H   0  0  0  0  0  0  0  0  0  0  0  0
   40.5956   35.6188   41.6998 H   0  0  0  0  0  0  0  0  0  0  0  0
   48.0964   35.6023   42.7190 H   0  0  0  0  0  0  0  0  0  0  0  0
   50.8100   35.5899   42.5018 H   0  0  0  0  0  0  0  0  0  0  0  0
   51.5636   33.0214   42.2228 H   0  0  0  0  0  0  0  0  0  0  0  0
  1  6  2  0
  2  3  2  0
  2  1  1  0
  3  4  1  0
  4  5  2  0
  6  5  1  0
  7  2  1  0
  8 12  1  0
  8  7  1  0
  9  8  2  0
 10  9  1  0
 10 11  1  0
 11 12  2  0
 13  3  1  0
 14 15  2  0
 14 13  1  0
 16 15  1  0
 17 18  1  0
 17 16  2  0
 18 14  1  0
  1 19  1  0
  5 20  1  0
  7 21  1  0
  7 22  1  0
  9 23  1  0
 11 24  1  0
 15 25  1  0
 16 26  1  0
 17 27  1  0
M  ISO  8  19  14  20  14  21   8  22   8  23  14  24  14  25  14  26  14
M  ISO  1  27  14
M  END
>  <minimizedAffinity>  (1) 
-4.91533089

>  <minimizedRMSD>  (1) 
0.52930665

$$$$
