
     RDKit          3D

 38 41  0  0  0  0  0  0  0  0999 V2000
   44.3140   35.6220   44.5990 C   0  0  0  0  0  0  0  0  0  0  0  0
   44.9650   35.3830   43.3750 C   0  0  0  0  0  0  0  0  0  0  0  0
   46.0050   34.4520   43.3730 C   0  0  0  0  0  0  0  0  0  0  0  0
   46.3160   33.8430   44.5510 N   0  0  0  0  0  0  0  0  0  0  0  0
   45.6830   34.0860   45.7010 C   0  0  0  0  0  0  0  0  0  0  0  0
   44.6830   34.9750   45.7270 N   0  0  0  0  0  0  0  0  0  0  0  0
   44.5700   36.0840   42.1460 C   0  0  0  0  0  0  0  0  0  0  0  0
   43.3850   35.4030   41.4940 C   0  0  0  0  0  0  0  0  0  0  0  0
   43.5540   34.6020   40.3970 C   0  0  0  0  0  0  0  0  0  0  0  0
   41.8580   34.0430   40.0120 S   0  0  0  0  0  0  0  0  0  0  0  0
   41.1870   35.0510   41.4910 C   0  0  0  0  0  0  0  0  0  0  0  0
   42.1550   35.5060   41.8900 N   0  0  0  0  0  0  0  0  0  0  0  0
   46.8950   34.0690   41.9110 S   0  0  0  0  0  0  0  0  0  0  0  0
   48.5060   33.7240   42.0120 C   0  0  0  0  0  0  0  0  0  0  0  0
   49.7250   34.1480   42.5310 C   0  0  0  0  0  0  0  0  0  0  0  0
   50.9170   33.4990   42.3410 C   0  0  0  0  0  0  0  0  0  0  0  0
   50.8730   32.3240   41.5650 C   0  0  0  0  0  0  0  0  0  0  0  0
   49.0460   32.1880   41.1160 S   0  0  0  0  0  0  0  0  0  0  0  0
   51.8560   31.4310   41.1750 N   0  0  0  0  0  0  0  0  0  0  0  0
   52.6680   31.4710   40.1080 C   0  0  0  0  0  0  0  0  0  0  0  0
   53.6040   30.4650   39.8830 C   0  0  0  0  0  0  0  0  0  0  0  0
   53.6760   29.4280   40.7840 C   0  0  0  0  0  0  0  0  0  0  0  0
   54.6360   28.4090   40.5410 N   0  0  0  0  0  0  0  0  0  0  0  0
   52.8640   29.3740   41.8640 N   0  0  0  0  0  0  0  0  0  0  0  0
   51.9770   30.3740   42.0310 C   0  0  0  0  0  0  0  0  0  0  0  0
   51.2700   30.2110   43.0830 O   0  0  0  0  0  0  0  0  0  0  0  0
   43.4894   36.3489   44.6389 H   0  0  0  0  0  0  0  0  0  0  0  0
   45.9810   33.5597   46.6198 H   0  0  0  0  0  0  0  0  0  0  0  0
   44.2983   37.1207   42.3939 H   0  0  0  0  0  0  0  0  0  0  0  0
   45.4163   36.0667   41.4435 H   0  0  0  0  0  0  0  0  0  0  0  0
   44.4884   34.3540   39.8723 H   0  0  0  0  0  0  0  0  0  0  0  0
   40.1553   35.1618   41.8561 H   0  0  0  0  0  0  0  0  0  0  0  0
   49.7327   35.0671   43.1353 H   0  0  0  0  0  0  0  0  0  0  0  0
   51.8570   33.8751   42.7710 H   0  0  0  0  0  0  0  0  0  0  0  0
   52.5934   32.3103   39.4009 H   0  0  0  0  0  0  0  0  0  0  0  0
   54.2688   30.4986   39.0073 H   0  0  0  0  0  0  0  0  0  0  0  0
   54.7210   27.6156   41.1923 H   0  0  0  0  0  0  0  0  0  0  0  0
   55.2469   28.4637   39.7135 H   0  0  0  0  0  0  0  0  0  0  0  0
  1  6  2  0
  2  1  1  0
  3  2  2  0
  3  4  1  0
  4  5  2  0
  5  6  1  0
  7  2  1  0
  8 12  1  0
  8  7  1  0
  9  8  2  0
 10  9  1  0
 10 11  1  0
 11 12  2  0
 13 14  1  0
 13  3  1  0
 14 15  2  0
 16 15  1  0
 17 16  2  0
 18 17  1  0
 18 14  1  0
 19 17  1  0
 19 25  1  0
 20 19  1  0
 21 20  2  0
 21 22  1  0
 22 24  2  0
 23 22  1  0
 24 25  1  0
 25 26  2  0
  1 27  1  0
  5 28  1  0
  7 29  1  0
  7 30  1  0
  9 31  1  0
 11 32  1  0
 15 33  1  0
 16 34  1  0
 20 35  1  0
 21 36  1  0
 23 37  1  0
 23 38  1  0
M  ISO  8  27  14  28  14  29   8  30   8  31  14  32  14  33  14  34  14
M  ISO  2  35  14  36  14
M  END
>  <minimizedAffinity>  (1) 
-5.46496058

>  <minimizedRMSD>  (1) 
0.145307928

$$$$
