
     RDKit          3D

 40 43  0  0  0  0  0  0  0  0999 V2000
   44.3680   35.5400   44.6040 C   0  0  0  0  0  0  0  0  0  0  0  0
   45.0210   35.3490   43.3780 C   0  0  0  0  0  0  0  0  0  0  0  0
   46.0860   34.4480   43.3510 C   0  0  0  0  0  0  0  0  0  0  0  0
   46.4160   33.8200   44.5140 N   0  0  0  0  0  0  0  0  0  0  0  0
   45.7800   34.0170   45.6710 C   0  0  0  0  0  0  0  0  0  0  0  0
   44.7550   34.8780   45.7190 N   0  0  0  0  0  0  0  0  0  0  0  0
   44.6110   36.0640   42.1550 C   0  0  0  0  0  0  0  0  0  0  0  0
   43.4350   35.3700   41.4970 C   0  0  0  0  0  0  0  0  0  0  0  0
   43.6220   34.5460   40.4150 C   0  0  0  0  0  0  0  0  0  0  0  0
   41.9310   33.9830   40.0200 S   0  0  0  0  0  0  0  0  0  0  0  0
   41.2360   35.0230   41.4710 C   0  0  0  0  0  0  0  0  0  0  0  0
   42.1940   35.4890   41.8830 N   0  0  0  0  0  0  0  0  0  0  0  0
   46.9820   34.1230   41.8780 S   0  0  0  0  0  0  0  0  0  0  0  0
   48.5870   33.7250   41.9890 C   0  0  0  0  0  0  0  0  0  0  0  0
   49.8250   34.0570   42.5260 C   0  0  0  0  0  0  0  0  0  0  0  0
   50.9700   33.3760   42.3150 C   0  0  0  0  0  0  0  0  0  0  0  0
   50.8940   32.2370   41.4800 C   0  0  0  0  0  0  0  0  0  0  0  0
   49.0720   32.2080   41.0190 S   0  0  0  0  0  0  0  0  0  0  0  0
   51.8490   31.3430   41.0700 N   0  0  0  0  0  0  0  0  0  0  0  0
   52.5070   31.5720   39.9160 C   0  0  0  0  0  0  0  0  0  0  0  0
   53.4700   30.6670   39.5050 C   0  0  0  0  0  0  0  0  0  0  0  0
   54.2370   30.8640   38.2340 C   0  0  0  0  0  0  0  0  0  0  0  0
   53.7080   29.5550   40.3200 C   0  0  0  0  0  0  0  0  0  0  0  0
   54.5830   28.7330   39.9460 O   0  0  0  0  0  0  0  0  0  0  0  0
   53.0250   29.3680   41.4640 N   0  0  0  0  0  0  0  0  0  0  0  0
   52.0880   30.2620   41.8500 C   0  0  0  0  0  0  0  0  0  0  0  0
   51.4650   30.0550   42.9300 O   0  0  0  0  0  0  0  0  0  0  0  0
   43.5235   36.2426   44.6607 H   0  0  0  0  0  0  0  0  0  0  0  0
   46.0947   33.4774   46.5764 H   0  0  0  0  0  0  0  0  0  0  0  0
   44.3224   37.0925   42.4177 H   0  0  0  0  0  0  0  0  0  0  0  0
   45.4558   36.0725   41.4505 H   0  0  0  0  0  0  0  0  0  0  0  0
   44.5635   34.2874   39.9084 H   0  0  0  0  0  0  0  0  0  0  0  0
   40.1974   35.1396   41.8139 H   0  0  0  0  0  0  0  0  0  0  0  0
   49.8751   34.9446   43.1738 H   0  0  0  0  0  0  0  0  0  0  0  0
   51.9196   33.6921   42.7715 H   0  0  0  0  0  0  0  0  0  0  0  0
   52.2824   32.4630   39.3113 H   0  0  0  0  0  0  0  0  0  0  0  0
   55.2773   31.1312   38.4712 H   0  0  0  0  0  0  0  0  0  0  0  0
   54.2220   29.9328   37.6486 H   0  0  0  0  0  0  0  0  0  0  0  0
   53.7751   31.6727   37.6486 H   0  0  0  0  0  0  0  0  0  0  0  0
   53.2169   28.5410   42.0473 H   0  0  0  0  0  0  0  0  0  0  0  0
  1  6  2  0
  2  1  1  0
  3  2  2  0
  3  4  1  0
  4  5  2  0
  5  6  1  0
  7  2  1  0
  8 12  1  0
  8  7  1  0
  9  8  2  0
 10  9  1  0
 10 11  1  0
 11 12  2  0
 13 14  1  0
 13  3  1  0
 14 15  2  0
 16 15  1  0
 17 16  2  0
 18 17  1  0
 18 14  1  0
 19 17  1  0
 19 26  1  0
 20 19  1  0
 21 20  2  0
 21 23  1  0
 22 21  1  0
 23 25  1  0
 24 23  2  0
 25 26  1  0
 26 27  2  0
  1 28  1  0
  5 29  1  0
  7 30  1  0
  7 31  1  0
  9 32  1  0
 11 33  1  0
 15 34  1  0
 16 35  1  0
 20 36  1  0
 22 37  1  0
 22 38  1  0
 22 39  1  0
 25 40  1  0
M  ISO  8  28  14  29  14  30   8  31   8  32  14  33  14  34  14  35  14
M  ISO  5  36  14  37   8  38   8  39   8  40   9
M  END
>  <minimizedAffinity>  (1) 
-5.68967009

>  <minimizedRMSD>  (1) 
0.815428793

$$$$
