
     RDKit          3D

 34 37  0  0  0  0  0  0  0  0999 V2000
   44.3300   35.6190   44.6070 C   0  0  0  0  0  0  0  0  0  0  0  0
   44.9750   35.3710   43.3880 C   0  0  0  0  0  0  0  0  0  0  0  0
   46.0050   34.4310   43.3840 C   0  0  0  0  0  0  0  0  0  0  0  0
   46.3160   33.8190   44.5580 N   0  0  0  0  0  0  0  0  0  0  0  0
   45.6870   34.0700   45.7120 C   0  0  0  0  0  0  0  0  0  0  0  0
   44.6950   34.9680   45.7380 N   0  0  0  0  0  0  0  0  0  0  0  0
   44.5900   36.0730   42.1450 C   0  0  0  0  0  0  0  0  0  0  0  0
   43.4000   35.3890   41.4930 C   0  0  0  0  0  0  0  0  0  0  0  0
   43.5690   34.5840   40.3970 C   0  0  0  0  0  0  0  0  0  0  0  0
   41.8760   34.0270   40.0160 S   0  0  0  0  0  0  0  0  0  0  0  0
   41.2030   35.0490   41.5010 C   0  0  0  0  0  0  0  0  0  0  0  0
   42.1650   35.5010   41.8960 N   0  0  0  0  0  0  0  0  0  0  0  0
   46.8900   34.0330   41.9210 S   0  0  0  0  0  0  0  0  0  0  0  0
   48.5060   33.7080   42.0220 C   0  0  0  0  0  0  0  0  0  0  0  0
   49.7240   34.0740   42.5760 C   0  0  0  0  0  0  0  0  0  0  0  0
   50.9120   33.4760   42.3540 C   0  0  0  0  0  0  0  0  0  0  0  0
   50.8850   32.3710   41.4640 C   0  0  0  0  0  0  0  0  0  0  0  0
   49.0850   32.2570   40.9870 S   0  0  0  0  0  0  0  0  0  0  0  0
   51.8930   31.4990   40.9840 C   0  0  0  0  0  0  0  0  0  0  0  0
   52.1230   30.3140   41.5870 C   0  0  0  0  0  0  0  0  0  0  0  0
   53.1660   29.6920   40.8860 C   0  0  0  0  0  0  0  0  0  0  0  0
   53.4950   30.5940   39.8660 C   0  0  0  0  0  0  0  0  0  0  0  0
   52.7120   31.6430   39.9720 O   0  0  0  0  0  0  0  0  0  0  0  0
   43.5133   36.3548   44.6465 H   0  0  0  0  0  0  0  0  0  0  0  0
   45.9826   33.5430   46.6312 H   0  0  0  0  0  0  0  0  0  0  0  0
   44.3230   37.1129   42.3846 H   0  0  0  0  0  0  0  0  0  0  0  0
   45.4394   36.0504   41.4465 H   0  0  0  0  0  0  0  0  0  0  0  0
   44.5030   34.3338   39.8726 H   0  0  0  0  0  0  0  0  0  0  0  0
   40.1714   35.1631   41.8655 H   0  0  0  0  0  0  0  0  0  0  0  0
   49.7203   34.9341   43.2618 H   0  0  0  0  0  0  0  0  0  0  0  0
   51.8408   33.8219   42.8313 H   0  0  0  0  0  0  0  0  0  0  0  0
   51.5926   29.9120   42.4628 H   0  0  0  0  0  0  0  0  0  0  0  0
   53.6241   28.7132   41.0914 H   0  0  0  0  0  0  0  0  0  0  0  0
   54.2763   30.4484   39.1055 H   0  0  0  0  0  0  0  0  0  0  0  0
  1  6  2  0
  2  1  1  0
  3  2  2  0
  3  4  1  0
  4  5  2  0
  5  6  1  0
  7  2  1  0
  8 12  1  0
  8  7  1  0
  9  8  2  0
 10  9  1  0
 10 11  1  0
 11 12  2  0
 13 14  1  0
 13  3  1  0
 14 15  2  0
 16 15  1  0
 17 16  2  0
 18 17  1  0
 18 14  1  0
 19 17  1  0
 19 20  2  0
 21 20  1  0
 22 23  1  0
 22 21  2  0
 23 19  1  0
  1 24  1  0
  5 25  1  0
  7 26  1  0
  7 27  1  0
  9 28  1  0
 11 29  1  0
 15 30  1  0
 16 31  1  0
 20 32  1  0
 21 33  1  0
 22 34  1  0
M  ISO  8  24  14  25  14  26   8  27   8  28  14  29  14  30  14  31  14
M  ISO  3  32  14  33  14  34  14
M  END
>  <minimizedAffinity>  (1) 
-5.2920661

>  <minimizedRMSD>  (1) 
0.166094765

$$$$
