
     RDKit          3D

 37 40  0  0  0  0  0  0  0  0999 V2000
   44.3370   35.5750   44.5900 C   0  0  0  0  0  0  0  0  0  0  0  0
   44.9930   35.3680   43.3640 C   0  0  0  0  0  0  0  0  0  0  0  0
   46.0510   34.4640   43.3500 C   0  0  0  0  0  0  0  0  0  0  0  0
   46.3800   33.8430   44.5170 N   0  0  0  0  0  0  0  0  0  0  0  0
   45.7430   34.0560   45.6690 C   0  0  0  0  0  0  0  0  0  0  0  0
   44.7230   34.9170   45.7130 N   0  0  0  0  0  0  0  0  0  0  0  0
   44.5830   36.0770   42.1400 C   0  0  0  0  0  0  0  0  0  0  0  0
   43.4050   35.3870   41.4850 C   0  0  0  0  0  0  0  0  0  0  0  0
   43.5800   34.5660   40.4020 C   0  0  0  0  0  0  0  0  0  0  0  0
   41.8910   34.0040   40.0110 S   0  0  0  0  0  0  0  0  0  0  0  0
   41.2080   35.0510   41.4830 C   0  0  0  0  0  0  0  0  0  0  0  0
   42.1700   35.5080   41.8800 N   0  0  0  0  0  0  0  0  0  0  0  0
   46.9480   34.1200   41.8790 S   0  0  0  0  0  0  0  0  0  0  0  0
   48.5540   33.7340   41.9940 C   0  0  0  0  0  0  0  0  0  0  0  0
   49.7850   34.0760   42.5390 C   0  0  0  0  0  0  0  0  0  0  0  0
   50.9410   33.4150   42.3320 C   0  0  0  0  0  0  0  0  0  0  0  0
   50.8860   32.2780   41.4870 C   0  0  0  0  0  0  0  0  0  0  0  0
   49.0750   32.2260   41.0150 S   0  0  0  0  0  0  0  0  0  0  0  0
   51.8410   31.3590   41.0410 C   0  0  0  0  0  0  0  0  0  0  0  0
   52.5200   31.5260   39.8810 C   0  0  0  0  0  0  0  0  0  0  0  0
   53.4470   30.5240   39.5620 C   0  0  0  0  0  0  0  0  0  0  0  0
   53.6590   29.4170   40.3930 C   0  0  0  0  0  0  0  0  0  0  0  0
   52.9390   29.2950   41.5670 C   0  0  0  0  0  0  0  0  0  0  0  0
   52.0230   30.2860   41.8810 C   0  0  0  0  0  0  0  0  0  0  0  0
   43.4962   36.2825   44.6403 H   0  0  0  0  0  0  0  0  0  0  0  0
   46.0565   33.5245   46.5796 H   0  0  0  0  0  0  0  0  0  0  0  0
   44.2984   37.1075   42.3989 H   0  0  0  0  0  0  0  0  0  0  0  0
   45.4270   36.0773   41.4345 H   0  0  0  0  0  0  0  0  0  0  0  0
   44.5183   34.3072   39.8896 H   0  0  0  0  0  0  0  0  0  0  0  0
   40.1741   35.1717   41.8388 H   0  0  0  0  0  0  0  0  0  0  0  0
   49.8191   34.9593   43.1936 H   0  0  0  0  0  0  0  0  0  0  0  0
   51.8828   33.7422   42.7967 H   0  0  0  0  0  0  0  0  0  0  0  0
   52.3540   32.3958   39.2284 H   0  0  0  0  0  0  0  0  0  0  0  0
   54.0256   30.6099   38.6304 H   0  0  0  0  0  0  0  0  0  0  0  0
   54.3946   28.6485   40.1132 H   0  0  0  0  0  0  0  0  0  0  0  0
   53.0895   28.4336   42.2344 H   0  0  0  0  0  0  0  0  0  0  0  0
   51.4371   30.2137   42.8092 H   0  0  0  0  0  0  0  0  0  0  0  0
  1  6  2  0
  2  1  1  0
  3  2  2  0
  3  4  1  0
  4  5  2  0
  5  6  1  0
  7  2  1  0
  8 12  1  0
  8  7  1  0
  9  8  2  0
 10  9  1  0
 10 11  1  0
 11 12  2  0
 13 14  1  0
 13  3  1  0
 14 15  2  0
 16 15  1  0
 17 16  2  0
 18 17  1  0
 18 14  1  0
 19 17  1  0
 19 24  1  0
 20 19  2  0
 21 20  1  0
 21 22  2  0
 22 23  1  0
 23 24  2  0
  1 25  1  0
  5 26  1  0
  7 27  1  0
  7 28  1  0
  9 29  1  0
 11 30  1  0
 15 31  1  0
 16 32  1  0
 20 33  1  0
 21 34  1  0
 22 35  1  0
 23 36  1  0
 24 37  1  0
M  ISO  8  25  14  26  14  27   8  28   8  29  14  30  14  31  14  32  14
M  ISO  5  33  14  34  14  35  14  36  14  37  14
M  END
>  <minimizedAffinity>  (1) 
-5.33047628

>  <minimizedRMSD>  (1) 
0.0956823006

$$$$
