
     RDKit          3D

 36 39  0  0  0  0  0  0  0  0999 V2000
   44.3530   35.5880   44.5800 C   0  0  0  0  0  0  0  0  0  0  0  0
   44.9890   35.3570   43.3450 C   0  0  0  0  0  0  0  0  0  0  0  0
   46.0290   34.4260   43.3380 C   0  0  0  0  0  0  0  0  0  0  0  0
   46.3450   33.8190   44.5150 N   0  0  0  0  0  0  0  0  0  0  0  0
   45.7220   34.0600   45.6710 C   0  0  0  0  0  0  0  0  0  0  0  0
   44.7250   34.9450   45.7030 N   0  0  0  0  0  0  0  0  0  0  0  0
   44.5850   36.0560   42.1140 C   0  0  0  0  0  0  0  0  0  0  0  0
   43.3920   35.3690   41.4730 C   0  0  0  0  0  0  0  0  0  0  0  0
   43.5580   34.5450   40.3900 C   0  0  0  0  0  0  0  0  0  0  0  0
   41.8620   33.9920   40.0170 S   0  0  0  0  0  0  0  0  0  0  0  0
   41.1970   35.0410   41.4840 C   0  0  0  0  0  0  0  0  0  0  0  0
   42.1610   35.5010   41.8820 N   0  0  0  0  0  0  0  0  0  0  0  0
   46.9110   34.0420   41.8720 S   0  0  0  0  0  0  0  0  0  0  0  0
   48.5170   33.6600   41.9740 C   0  0  0  0  0  0  0  0  0  0  0  0
   49.7350   33.9890   42.5530 C   0  0  0  0  0  0  0  0  0  0  0  0
   50.9070   33.3420   42.3200 C   0  0  0  0  0  0  0  0  0  0  0  0
   50.8550   32.2550   41.4150 C   0  0  0  0  0  0  0  0  0  0  0  0
   49.0470   32.2190   40.9280 S   0  0  0  0  0  0  0  0  0  0  0  0
   51.8490   31.3720   40.9400 C   0  0  0  0  0  0  0  0  0  0  0  0
   52.1420   30.3180   41.7430 C   0  0  0  0  0  0  0  0  0  0  0  0
   53.1150   29.4140   41.3240 C   0  0  0  0  0  0  0  0  0  0  0  0
   53.7210   29.6630   40.0950 C   0  0  0  0  0  0  0  0  0  0  0  0
   53.3880   30.7620   39.2970 C   0  0  0  0  0  0  0  0  0  0  0  0
   52.4270   31.6180   39.7570 N   0  0  0  0  0  0  0  0  0  0  0  0
   43.5286   36.3146   44.6287 H   0  0  0  0  0  0  0  0  0  0  0  0
   46.0279   33.5341   46.5874 H   0  0  0  0  0  0  0  0  0  0  0  0
   44.3148   37.0935   42.3601 H   0  0  0  0  0  0  0  0  0  0  0  0
   45.4260   36.0382   41.4052 H   0  0  0  0  0  0  0  0  0  0  0  0
   44.4911   34.2810   39.8707 H   0  0  0  0  0  0  0  0  0  0  0  0
   40.1645   35.1642   41.8427 H   0  0  0  0  0  0  0  0  0  0  0  0
   49.7528   34.8373   43.2531 H   0  0  0  0  0  0  0  0  0  0  0  0
   51.8447   33.6463   42.8080 H   0  0  0  0  0  0  0  0  0  0  0  0
   51.6228   30.1808   42.7030 H   0  0  0  0  0  0  0  0  0  0  0  0
   53.3923   28.5430   41.9359 H   0  0  0  0  0  0  0  0  0  0  0  0
   54.4935   28.9664   39.7373 H   0  0  0  0  0  0  0  0  0  0  0  0
   53.8837   30.9321   38.3299 H   0  0  0  0  0  0  0  0  0  0  0  0
  1  6  2  0
  2  1  1  0
  3  2  2  0
  3  4  1  0
  4  5  2  0
  5  6  1  0
  7  2  1  0
  8 12  1  0
  8  7  1  0
  9  8  2  0
 10  9  1  0
 10 11  1  0
 11 12  2  0
 13 14  1  0
 13  3  1  0
 14 15  2  0
 16 15  1  0
 17 16  2  0
 18 17  1  0
 18 14  1  0
 19 17  1  0
 19 20  2  0
 21 20  1  0
 22 21  2  0
 23 24  2  0
 23 22  1  0
 24 19  1  0
  1 25  1  0
  5 26  1  0
  7 27  1  0
  7 28  1  0
  9 29  1  0
 11 30  1  0
 15 31  1  0
 16 32  1  0
 20 33  1  0
 21 34  1  0
 22 35  1  0
 23 36  1  0
M  ISO  8  25  14  26  14  27   8  28   8  29  14  30  14  31  14  32  14
M  ISO  4  33  14  34  14  35  14  36  14
M  END
>  <minimizedAffinity>  (1) 
-5.32380342

>  <minimizedRMSD>  (1) 
0.576960087

$$$$
