
     RDKit          3D

 32 35  0  0  0  0  0  0  0  0999 V2000
   44.3670   35.5620   44.6560 C   0  0  0  0  0  0  0  0  0  0  0  0
   45.0130   35.3420   43.4300 C   0  0  0  0  0  0  0  0  0  0  0  0
   46.0470   34.4140   43.3990 C   0  0  0  0  0  0  0  0  0  0  0  0
   46.3630   33.7800   44.5630 N   0  0  0  0  0  0  0  0  0  0  0  0
   45.7340   34.0060   45.7190 C   0  0  0  0  0  0  0  0  0  0  0  0
   44.7420   34.8910   45.7690 N   0  0  0  0  0  0  0  0  0  0  0  0
   44.6100   36.0700   42.2120 C   0  0  0  0  0  0  0  0  0  0  0  0
   43.4390   35.3890   41.5320 C   0  0  0  0  0  0  0  0  0  0  0  0
   43.6290   34.5850   40.4390 C   0  0  0  0  0  0  0  0  0  0  0  0
   41.9400   34.0340   40.0270 S   0  0  0  0  0  0  0  0  0  0  0  0
   41.2450   35.0490   41.4910 C   0  0  0  0  0  0  0  0  0  0  0  0
   42.1980   35.4990   41.9070 N   0  0  0  0  0  0  0  0  0  0  0  0
   46.9250   34.0590   41.9220 S   0  0  0  0  0  0  0  0  0  0  0  0
   48.5360   33.6990   42.0060 C   0  0  0  0  0  0  0  0  0  0  0  0
   49.7490   34.0660   42.5760 C   0  0  0  0  0  0  0  0  0  0  0  0
   50.9440   33.4390   42.3400 C   0  0  0  0  0  0  0  0  0  0  0  0
   50.9060   32.3480   41.4510 C   0  0  0  0  0  0  0  0  0  0  0  0
   49.0870   32.2530   40.9640 S   0  0  0  0  0  0  0  0  0  0  0  0
   51.9230   31.4720   40.9740 C   0  0  0  0  0  0  0  0  0  0  0  0
   52.7340   31.5040   39.9000 N   0  0  0  0  0  0  0  0  0  0  0  0
   53.4690   30.4400   39.9600 O   0  0  0  0  0  0  0  0  0  0  0  0
   53.2080   29.7060   40.9900 C   0  0  0  0  0  0  0  0  0  0  0  0
   52.2150   30.3420   41.6640 N   0  0  0  0  0  0  0  0  0  0  0  0
   43.5444   36.2901   44.7128 H   0  0  0  0  0  0  0  0  0  0  0  0
   46.0350   33.4624   46.6267 H   0  0  0  0  0  0  0  0  0  0  0  0
   44.3200   37.0952   42.4856 H   0  0  0  0  0  0  0  0  0  0  0  0
   45.4605   36.0820   41.5145 H   0  0  0  0  0  0  0  0  0  0  0  0
   44.5723   34.3328   39.9324 H   0  0  0  0  0  0  0  0  0  0  0  0
   40.2064   35.1642   41.8346 H   0  0  0  0  0  0  0  0  0  0  0  0
   49.7498   34.9220   43.2668 H   0  0  0  0  0  0  0  0  0  0  0  0
   51.8786   33.7687   42.8172 H   0  0  0  0  0  0  0  0  0  0  0  0
   53.6920   28.7575   41.2657 H   0  0  0  0  0  0  0  0  0  0  0  0
  1  6  2  0
  2  1  1  0
  3  2  2  0
  3  4  1  0
  4  5  2  0
  5  6  1  0
  7  2  1  0
  8 12  1  0
  8  7  1  0
  9  8  2  0
 10  9  1  0
 10 11  1  0
 11 12  2  0
 13 14  1  0
 13  3  1  0
 14 15  2  0
 16 15  1  0
 17 16  2  0
 18 17  1  0
 18 14  1  0
 19 17  1  0
 19 23  1  0
 20 21  1  0
 20 19  2  0
 21 22  1  0
 22 23  2  0
  1 24  1  0
  5 25  1  0
  7 26  1  0
  7 27  1  0
  9 28  1  0
 11 29  1  0
 15 30  1  0
 16 31  1  0
 22 32  1  0
M  ISO  8  24  14  25  14  26   8  27   8  28  14  29  14  30  14  31  14
M  ISO  1  32  14
M  END
>  <minimizedAffinity>  (1) 
-5.27138758

>  <minimizedRMSD>  (1) 
0.24868539

$$$$
