
     RDKit          3D

 39 41  0  0  0  0  0  0  0  0999 V2000
   44.7190   35.0630   44.8250 C   0  0  0  0  0  0  0  0  0  0  0  0
   45.3920   35.2000   43.6050 C   0  0  0  0  0  0  0  0  0  0  0  0
   46.5510   34.4490   43.4180 C   0  0  0  0  0  0  0  0  0  0  0  0
   46.9460   33.6350   44.4350 N   0  0  0  0  0  0  0  0  0  0  0  0
   46.2880   33.5200   45.5910 C   0  0  0  0  0  0  0  0  0  0  0  0
   45.1790   34.2290   45.7890 N   0  0  0  0  0  0  0  0  0  0  0  0
   44.8980   36.1080   42.5510 C   0  0  0  0  0  0  0  0  0  0  0  0
   43.7790   35.4540   41.7620 C   0  0  0  0  0  0  0  0  0  0  0  0
   44.0730   34.6380   40.6980 C   0  0  0  0  0  0  0  0  0  0  0  0
   42.4200   34.1190   40.1040 S   0  0  0  0  0  0  0  0  0  0  0  0
   41.5920   35.1620   41.4850 C   0  0  0  0  0  0  0  0  0  0  0  0
   42.5080   35.5950   42.0000 N   0  0  0  0  0  0  0  0  0  0  0  0
   47.4820   34.5350   41.9330 S   0  0  0  0  0  0  0  0  0  0  0  0
   48.9200   33.7310   41.8390 C   0  0  0  0  0  0  0  0  0  0  0  0
   50.1840   33.5830   42.3940 C   0  0  0  0  0  0  0  0  0  0  0  0
   51.1380   32.7190   41.9360 C   0  0  0  0  0  0  0  0  0  0  0  0
   50.7910   31.9260   40.8140 C   0  0  0  0  0  0  0  0  0  0  0  0
   49.0380   32.4900   40.4640 S   0  0  0  0  0  0  0  0  0  0  0  0
   51.5360   30.9410   40.0950 C   0  0  0  0  0  0  0  0  0  0  0  0
   51.1430   30.9810   38.6280 C   0  0  0  0  0  0  0  0  0  0  0  0
   51.2220   29.5720   40.6090 C   0  0  0  0  0  0  0  0  0  0  0  0
   52.9970   31.2390   40.1800 C   0  0  0  0  0  0  0  0  0  0  0  0
   43.8012   35.6422   45.0041 H   0  0  0  0  0  0  0  0  0  0  0  0
   46.6600   32.8437   46.3747 H   0  0  0  0  0  0  0  0  0  0  0  0
   44.5205   37.0304   43.0166 H   0  0  0  0  0  0  0  0  0  0  0  0
   45.7267   36.3386   41.8654 H   0  0  0  0  0  0  0  0  0  0  0  0
   45.0606   34.3629   40.2993 H   0  0  0  0  0  0  0  0  0  0  0  0
   40.5255   35.3022   41.7149 H   0  0  0  0  0  0  0  0  0  0  0  0
   50.4353   34.2061   43.2650 H   0  0  0  0  0  0  0  0  0  0  0  0
   52.1257   32.6427   42.4141 H   0  0  0  0  0  0  0  0  0  0  0  0
   50.0519   31.0921   38.5436 H   0  0  0  0  0  0  0  0  0  0  0  0
   51.6372   31.8335   38.1391 H   0  0  0  0  0  0  0  0  0  0  0  0
   51.4553   30.0464   38.1391 H   0  0  0  0  0  0  0  0  0  0  0  0
   51.2247   29.5838   41.7089 H   0  0  0  0  0  0  0  0  0  0  0  0
   50.2298   29.2635   40.2480 H   0  0  0  0  0  0  0  0  0  0  0  0
   51.9806   28.8619   40.2480 H   0  0  0  0  0  0  0  0  0  0  0  0
   53.2978   31.3004   41.2363 H   0  0  0  0  0  0  0  0  0  0  0  0
   53.5641   30.4380   39.6832 H   0  0  0  0  0  0  0  0  0  0  0  0
   53.2051   32.1981   39.6832 H   0  0  0  0  0  0  0  0  0  0  0  0
  1  6  2  0
  2  1  1  0
  3  2  2  0
  3  4  1  0
  4  5  2  0
  5  6  1  0
  7  2  1  0
  8 12  1  0
  8  7  1  0
  9  8  2  0
 10  9  1  0
 10 11  1  0
 11 12  2  0
 13  3  1  0
 14 13  1  0
 14 15  2  0
 16 15  1  0
 17 16  2  0
 18 17  1  0
 18 14  1  0
 19 22  1  0
 19 21  1  0
 19 17  1  0
 20 19  1  0
  1 23  1  0
  5 24  1  0
  7 25  1  0
  7 26  1  0
  9 27  1  0
 11 28  1  0
 15 29  1  0
 16 30  1  0
 20 31  1  0
 20 32  1  0
 20 33  1  0
 21 34  1  0
 21 35  1  0
 21 36  1  0
 22 37  1  0
 22 38  1  0
 22 39  1  0
M  ISO  8  23  14  24  14  25   8  26   8  27  14  28  14  29  14  30  14
M  ISO  8  31   8  32   8  33   8  34   8  35   8  36   8  37   8  38   8
M  ISO  1  39   8
M  END
>  <minimizedAffinity>  (1) 
-5.02186966

>  <minimizedRMSD>  (1) 
0.812134266

$$$$
