
     RDKit          3D

 34 36  0  0  0  0  0  0  0  0999 V2000
   44.5890   35.2650   44.7260 C   0  0  0  0  0  0  0  0  0  0  0  0
   45.2500   35.2740   43.4880 C   0  0  0  0  0  0  0  0  0  0  0  0
   46.3760   34.4660   43.3510 C   0  0  0  0  0  0  0  0  0  0  0  0
   46.7580   33.7230   44.4270 N   0  0  0  0  0  0  0  0  0  0  0  0
   46.1150   33.7250   45.6010 C   0  0  0  0  0  0  0  0  0  0  0  0
   45.0290   34.4970   45.7550 N   0  0  0  0  0  0  0  0  0  0  0  0
   44.7820   36.1070   42.3560 C   0  0  0  0  0  0  0  0  0  0  0  0
   43.6350   35.4430   41.6410 C   0  0  0  0  0  0  0  0  0  0  0  0
   43.8760   34.6080   40.5730 C   0  0  0  0  0  0  0  0  0  0  0  0
   42.2030   34.0730   40.0710 S   0  0  0  0  0  0  0  0  0  0  0  0
   41.4420   35.1400   41.4810 C   0  0  0  0  0  0  0  0  0  0  0  0
   42.3770   35.5760   41.9320 N   0  0  0  0  0  0  0  0  0  0  0  0
   47.2900   34.3860   41.8600 S   0  0  0  0  0  0  0  0  0  0  0  0
   48.8130   33.7260   41.8790 C   0  0  0  0  0  0  0  0  0  0  0  0
   50.0630   33.7450   42.4660 C   0  0  0  0  0  0  0  0  0  0  0  0
   51.0860   32.9530   42.1260 C   0  0  0  0  0  0  0  0  0  0  0  0
   50.8700   32.0310   41.0910 C   0  0  0  0  0  0  0  0  0  0  0  0
   49.0920   32.3680   40.6260 S   0  0  0  0  0  0  0  0  0  0  0  0
   51.6810   31.0660   40.4740 C   0  0  0  0  0  0  0  0  0  0  0  0
   51.2800   29.8810   40.3500 O   0  0  0  0  0  0  0  0  0  0  0  0
   52.8990   31.5080   40.0370 O   0  0  0  0  0  0  0  0  0  0  0  0
   53.1530   31.6260   38.6560 C   0  0  0  0  0  0  0  0  0  0  0  0
   52.2420   32.2870   37.7830 N   0  0  0  0  0  0  0  0  0  0  0  0
   54.2160   31.1350   38.1710 O   0  0  0  0  0  0  0  0  0  0  0  0
   43.6966   35.8929   44.8652 H   0  0  0  0  0  0  0  0  0  0  0  0
   46.4738   33.0994   46.4316 H   0  0  0  0  0  0  0  0  0  0  0  0
   44.4510   37.0834   42.7396 H   0  0  0  0  0  0  0  0  0  0  0  0
   45.6125   36.2356   41.6463 H   0  0  0  0  0  0  0  0  0  0  0  0
   44.8432   34.3300   40.1289 H   0  0  0  0  0  0  0  0  0  0  0  0
   40.3893   35.2835   41.7660 H   0  0  0  0  0  0  0  0  0  0  0  0
   50.2306   34.4687   43.2773 H   0  0  0  0  0  0  0  0  0  0  0  0
   52.0575   33.0219   42.6374 H   0  0  0  0  0  0  0  0  0  0  0  0
   52.4526   32.3589   36.7773 H   0  0  0  0  0  0  0  0  0  0  0  0
   51.3726   32.6931   38.1574 H   0  0  0  0  0  0  0  0  0  0  0  0
  1  6  2  0
  2  1  1  0
  3  2  2  0
  3  4  1  0
  4  5  2  0
  5  6  1  0
  7  2  1  0
  8 12  1  0
  8  7  1  0
  9  8  2  0
 10  9  1  0
 10 11  1  0
 11 12  2  0
 13 14  1  0
 13  3  1  0
 14 15  2  0
 16 15  1  0
 17 16  2  0
 18 17  1  0
 18 14  1  0
 19 17  1  0
 20 19  2  0
 21 19  1  0
 22 21  1  0
 23 22  1  0
 24 22  2  0
  1 25  1  0
  5 26  1  0
  7 27  1  0
  7 28  1  0
  9 29  1  0
 11 30  1  0
 15 31  1  0
 16 32  1  0
 23 33  1  0
 23 34  1  0
M  ISO  8  25  14  26  14  27   8  28   8  29  14  30  14  31  14  32  14
M  END
>  <minimizedAffinity>  (1) 
-5.42428684

>  <minimizedRMSD>  (1) 
0.967300057

$$$$
