
     RDKit          3D

 42 44  0  0  0  0  0  0  0  0999 V2000
   44.4110   35.4540   44.6690 C   0  0  0  0  0  0  0  0  0  0  0  0
   45.0720   35.3480   43.4430 C   0  0  0  0  0  0  0  0  0  0  0  0
   46.1720   34.4950   43.3680 C   0  0  0  0  0  0  0  0  0  0  0  0
   46.5310   33.8250   44.4860 N   0  0  0  0  0  0  0  0  0  0  0  0
   45.8910   33.9320   45.6600 C   0  0  0  0  0  0  0  0  0  0  0  0
   44.8280   34.7500   45.7500 N   0  0  0  0  0  0  0  0  0  0  0  0
   44.6300   36.1070   42.2590 C   0  0  0  0  0  0  0  0  0  0  0  0
   43.4730   35.4120   41.5710 C   0  0  0  0  0  0  0  0  0  0  0  0
   43.6900   34.5780   40.4970 C   0  0  0  0  0  0  0  0  0  0  0  0
   42.0200   34.0090   40.0450 S   0  0  0  0  0  0  0  0  0  0  0  0
   41.2780   35.0680   41.4810 C   0  0  0  0  0  0  0  0  0  0  0  0
   42.2210   35.5230   41.9020 N   0  0  0  0  0  0  0  0  0  0  0  0
   47.0810   34.2770   41.8890 S   0  0  0  0  0  0  0  0  0  0  0  0
   48.6670   33.7890   41.9730 C   0  0  0  0  0  0  0  0  0  0  0  0
   49.9160   34.0430   42.5060 C   0  0  0  0  0  0  0  0  0  0  0  0
   51.0120   33.3110   42.2730 C   0  0  0  0  0  0  0  0  0  0  0  0
   50.8770   32.2010   41.4240 C   0  0  0  0  0  0  0  0  0  0  0  0
   49.0730   32.2650   40.9710 S   0  0  0  0  0  0  0  0  0  0  0  0
   51.7850   31.2350   40.9690 C   0  0  0  0  0  0  0  0  0  0  0  0
   51.7470   30.0630   41.4290 O   0  0  0  0  0  0  0  0  0  0  0  0
   52.6820   31.6440   40.0240 O   0  0  0  0  0  0  0  0  0  0  0  0
   52.5930   31.1190   38.6870 C   0  0  0  0  0  0  0  0  0  0  0  0
   53.8720   31.6010   38.0220 C   0  0  0  0  0  0  0  0  0  0  0  0
   51.4080   31.7050   37.9510 C   0  0  0  0  0  0  0  0  0  0  0  0
   52.5830   29.6280   38.6450 C   0  0  0  0  0  0  0  0  0  0  0  0
   43.5391   36.1186   44.7587 H   0  0  0  0  0  0  0  0  0  0  0  0
   46.2307   33.3593   46.5355 H   0  0  0  0  0  0  0  0  0  0  0  0
   44.3107   37.1114   42.5739 H   0  0  0  0  0  0  0  0  0  0  0  0
   45.4697   36.1744   41.5517 H   0  0  0  0  0  0  0  0  0  0  0  0
   44.6476   34.3167   40.0231 H   0  0  0  0  0  0  0  0  0  0  0  0
   40.2321   35.1922   41.7983 H   0  0  0  0  0  0  0  0  0  0  0  0
   50.0174   34.9125   43.1722 H   0  0  0  0  0  0  0  0  0  0  0  0
   51.9796   33.5687   42.7284 H   0  0  0  0  0  0  0  0  0  0  0  0
   54.6051   31.8773   38.7942 H   0  0  0  0  0  0  0  0  0  0  0  0
   54.2850   30.7968   37.3953 H   0  0  0  0  0  0  0  0  0  0  0  0
   53.6515   32.4777   37.3953 H   0  0  0  0  0  0  0  0  0  0  0  0
   50.6686   32.0706   38.6788 H   0  0  0  0  0  0  0  0  0  0  0  0
   51.7451   32.5403   37.3196 H   0  0  0  0  0  0  0  0  0  0  0  0
   50.9488   30.9301   37.3196 H   0  0  0  0  0  0  0  0  0  0  0  0
   52.5803   29.2323   39.6714 H   0  0  0  0  0  0  0  0  0  0  0  0
   51.6825   29.2821   38.1163 H   0  0  0  0  0  0  0  0  0  0  0  0
   53.4788   29.2701   38.1163 H   0  0  0  0  0  0  0  0  0  0  0  0
  1  6  2  0
  2  1  1  0
  3  2  2  0
  3  4  1  0
  4  5  2  0
  5  6  1  0
  7  2  1  0
  8 12  1  0
  8  7  1  0
  9  8  2  0
 10  9  1  0
 10 11  1  0
 11 12  2  0
 13 14  1  0
 13  3  1  0
 14 15  2  0
 16 15  1  0
 17 16  2  0
 18 17  1  0
 18 14  1  0
 19 17  1  0
 19 20  2  0
 21 19  1  0
 22 21  1  0
 23 22  1  0
 24 22  1  0
 25 22  1  0
  1 26  1  0
  5 27  1  0
  7 28  1  0
  7 29  1  0
  9 30  1  0
 11 31  1  0
 15 32  1  0
 16 33  1  0
 23 34  1  0
 23 35  1  0
 23 36  1  0
 24 37  1  0
 24 38  1  0
 24 39  1  0
 25 40  1  0
 25 41  1  0
 25 42  1  0
M  ISO  8  26  14  27  14  28   8  29   8  30  14  31  14  32  14  33  14
M  ISO  8  34   8  35   8  36   8  37   8  38   8  39   8  40   8  41   8
M  ISO  1  42   8
M  END
>  <minimizedAffinity>  (1) 
-5.25801849

>  <minimizedRMSD>  (1) 
1.10575163

$$$$
