
     RDKit          3D

 37 39  0  0  1  0  0  0  0  0999 V2000
   46.4900   33.9830   43.7490 C   0  0  2  0  0  0  0  0  0  0  0  0
   45.9320   34.0680   45.2330 C   0  0  0  0  0  0  0  0  0  0  0  0
   44.8920   34.9640   45.5180 C   0  0  0  0  0  0  0  0  0  0  0  0
   44.3310   35.7740   44.4600 C   0  0  0  0  0  0  0  0  0  0  0  0
   45.0850   35.8340   43.2190 C   0  0  0  0  0  0  0  0  0  0  0  0
   45.5770   34.4440   42.8010 C   0  0  0  0  0  0  0  0  0  0  0  0
   46.8600   31.6520   44.4250 C   0  0  0  0  0  0  0  0  0  0  0  0
   47.2400   32.7700   43.6630 C   0  0  0  0  0  0  0  0  0  0  0  0
   48.3840   32.7000   42.8090 C   0  0  0  0  0  0  0  0  0  0  0  0
   49.0440   31.5100   42.8080 N   0  0  0  0  0  0  0  0  0  0  0  0
   48.6680   30.4350   43.5520 C   0  0  0  0  0  0  0  0  0  0  0  0
   47.5790   30.5060   44.3560 N   0  0  0  0  0  0  0  0  0  0  0  0
   48.9780   33.6320   41.9300 C   0  0  0  0  0  0  0  0  0  0  0  0
   49.0230   34.9910   42.7050 C   0  0  0  0  0  0  0  0  0  0  0  0
   49.2430   35.9890   41.6260 C   0  0  0  0  0  0  0  0  0  0  0  0
   48.7130   35.3570   40.3360 C   0  0  0  0  0  0  0  0  0  0  0  0
   47.9870   34.1560   40.9050 C   0  0  0  0  0  0  0  0  0  0  0  0
   47.2496   34.7169   43.4417 H   0  0  0  0  0  0  0  0  0  0  0  0
   46.3550   33.4334   46.0257 H   0  0  0  0  0  0  0  0  0  0  0  0
   44.5040   35.0505   46.5437 H   0  0  0  0  0  0  0  0  0  0  0  0
   43.3336   35.3736   44.2258 H   0  0  0  0  0  0  0  0  0  0  0  0
   44.3309   36.8025   44.8502 H   0  0  0  0  0  0  0  0  0  0  0  0
   44.4392   36.2393   42.4261 H   0  0  0  0  0  0  0  0  0  0  0  0
   45.9609   36.4810   43.3748 H   0  0  0  0  0  0  0  0  0  0  0  0
   44.7236   33.7523   42.7436 H   0  0  0  0  0  0  0  0  0  0  0  0
   46.0612   34.5014   41.8150 H   0  0  0  0  0  0  0  0  0  0  0  0
   45.9771   31.7076   45.0787 H   0  0  0  0  0  0  0  0  0  0  0  0
   49.2507   29.5034   43.5009 H   0  0  0  0  0  0  0  0  0  0  0  0
   49.8882   33.1498   41.5440 H   0  0  0  0  0  0  0  0  0  0  0  0
   48.0738   35.1784   43.2283 H   0  0  0  0  0  0  0  0  0  0  0  0
   49.7996   35.0186   43.4835 H   0  0  0  0  0  0  0  0  0  0  0  0
   48.6946   36.9163   41.8482 H   0  0  0  0  0  0  0  0  0  0  0  0
   50.3081   36.2479   41.5342 H   0  0  0  0  0  0  0  0  0  0  0  0
   49.5302   35.0580   39.6631 H   0  0  0  0  0  0  0  0  0  0  0  0
   48.0917   36.0217   39.7178 H   0  0  0  0  0  0  0  0  0  0  0  0
   47.0406   34.4518   41.3813 H   0  0  0  0  0  0  0  0  0  0  0  0
   47.7053   33.4120   40.1454 H   0  0  0  0  0  0  0  0  0  0  0  0
  1  2  1  0
  2  3  2  0
  4  3  1  0
  5  4  1  0
  6  5  1  0
  6  1  1  0
  8  1  1  0
  8  7  2  0
  9  8  1  0
 10  9  2  0
 10 11  1  0
 11 12  2  0
 12  7  1  0
 13 14  1  0
 13  9  1  0
 15 14  1  0
 16 17  1  0
 16 15  1  0
 17 13  1  0
  1 18  1  1
  2 19  1  0
  3 20  1  0
  4 21  1  0
  4 22  1  0
  5 23  1  0
  5 24  1  0
  6 25  1  0
  6 26  1  0
  7 27  1  0
 11 28  1  0
 13 29  1  0
 14 30  1  0
 14 31  1  0
 15 32  1  0
 15 33  1  0
 16 34  1  0
 16 35  1  0
 17 36  1  0
 17 37  1  0
M  ISO  8  18  13  19  13  20  13  21  13  22  13  23  13  24  13  25  13
M  ISO  8  26  13  27  14  28  14  29  13  30  13  31  13  32  13  33  13
M  ISO  4  34  13  35  13  36  13  37  13
M  END
>  <minimizedAffinity>  (1) 
-5.24346399

>  <minimizedRMSD>  (1) 
3.81286383

$$$$
