
     RDKit          3D

 34 36  0  0  1  0  0  0  0  0999 V2000
   45.2220   32.9490   47.5100 C   0  0  0  0  0  0  0  0  0  0  0  0
   45.7000   32.7010   46.2190 C   0  0  0  0  0  0  0  0  0  0  0  0
   46.0410   31.3580   45.8740 C   0  0  0  0  0  0  0  0  0  0  0  0
   45.9020   30.3620   46.7950 N   0  0  0  0  0  0  0  0  0  0  0  0
   45.4300   30.6570   48.0500 C   0  0  0  0  0  0  0  0  0  0  0  0
   45.0970   31.9300   48.3930 N   0  0  0  0  0  0  0  0  0  0  0  0
   45.7800   33.7600   45.2460 C   0  0  2  0  0  0  0  0  0  0  0  0
   44.8030   34.9100   45.7540 C   0  0  0  0  0  0  0  0  0  0  0  0
   44.4960   35.9530   44.8360 C   0  0  0  0  0  0  0  0  0  0  0  0
   45.0700   35.9290   43.4880 C   0  0  0  0  0  0  0  0  0  0  0  0
   45.9150   34.8020   43.1180 C   0  0  0  0  0  0  0  0  0  0  0  0
   45.5540   33.5310   43.8580 C   0  0  0  0  0  0  0  0  0  0  0  0
   46.5340   30.7590   44.7370 N   0  0  0  0  0  0  0  0  0  0  0  0
   47.9100   30.8000   44.7030 C   0  0  0  0  0  0  0  0  0  0  0  0
   48.6420   30.2430   43.6610 C   0  0  0  0  0  0  0  0  0  0  0  0
   48.0000   29.6290   42.6220 C   0  0  0  0  0  0  0  0  0  0  0  0
   48.5180   29.0870   41.6220 O   0  0  0  0  0  0  0  0  0  0  0  0
   46.6590   29.5940   42.6640 N   0  0  0  0  0  0  0  0  0  0  0  0
   45.9710   30.1380   43.6810 C   0  0  0  0  0  0  0  0  0  0  0  0
   44.6960   30.1420   43.7890 O   0  0  0  0  0  0  0  0  0  0  0  0
   44.9477   33.9717   47.8079 H   0  0  0  0  0  0  0  0  0  0  0  0
   45.3194   29.8506   48.7900 H   0  0  0  0  0  0  0  0  0  0  0  0
   46.8562   33.9858   45.2195 H   0  0  0  0  0  0  0  0  0  0  0  0
   44.3834   34.8987   46.7708 H   0  0  0  0  0  0  0  0  0  0  0  0
   43.8298   36.7748   45.1374 H   0  0  0  0  0  0  0  0  0  0  0  0
   44.2316   35.9550   42.7764 H   0  0  0  0  0  0  0  0  0  0  0  0
   45.7474   36.7954   43.4656 H   0  0  0  0  0  0  0  0  0  0  0  0
   45.8085   34.6224   42.0380 H   0  0  0  0  0  0  0  0  0  0  0  0
   46.9495   35.0605   43.3882 H   0  0  0  0  0  0  0  0  0  0  0  0
   44.4957   33.2849   43.6861 H   0  0  0  0  0  0  0  0  0  0  0  0
   46.1663   32.6897   43.5012 H   0  0  0  0  0  0  0  0  0  0  0  0
   48.4478   31.2899   45.5281 H   0  0  0  0  0  0  0  0  0  0  0  0
   49.7406   30.2964   43.6724 H   0  0  0  0  0  0  0  0  0  0  0  0
   46.1445   29.1384   41.8968 H   0  0  0  0  0  0  0  0  0  0  0  0
  1  6  2  0
  2  1  1  0
  3  2  2  0
  3  4  1  0
  4  5  2  0
  5  6  1  0
  7  8  1  0
  7  2  1  0
  9  8  2  0
 10  9  1  0
 11 10  1  0
 11 12  1  0
 12  7  1  0
 13  3  1  0
 14 13  1  0
 15 14  2  0
 16 18  1  0
 16 15  1  0
 17 16  2  0
 18 19  1  0
 19 20  2  0
 19 13  1  0
  1 21  1  0
  5 22  1  0
  7 23  1  6
  8 24  1  0
  9 25  1  0
 10 26  1  0
 10 27  1  0
 11 28  1  0
 11 29  1  0
 12 30  1  0
 12 31  1  0
 14 32  1  0
 15 33  1  0
 18 34  1  0
M  ISO  8  21  14  22  14  23  13  24  13  25  13  26  13  27  13  28  13
M  ISO  6  29  13  30  13  31  13  32  14  33  14  34   9
M  END
>  <minimizedAffinity>  (1) 
-4.51557684

>  <minimizedRMSD>  (1) 
0.463045865

$$$$
