
     RDKit          3D

 31 33  0  0  1  0  0  0  0  0999 V2000
   45.2220   32.8420   47.6810 C   0  0  0  0  0  0  0  0  0  0  0  0
   45.7040   32.5590   46.4070 C   0  0  0  0  0  0  0  0  0  0  0  0
   46.0430   31.2020   46.1110 C   0  0  0  0  0  0  0  0  0  0  0  0
   45.8870   30.2460   47.0690 N   0  0  0  0  0  0  0  0  0  0  0  0
   45.4100   30.5750   48.3090 C   0  0  0  0  0  0  0  0  0  0  0  0
   45.0840   31.8660   48.5960 N   0  0  0  0  0  0  0  0  0  0  0  0
   45.8010   33.5830   45.3960 C   0  0  2  0  0  0  0  0  0  0  0  0
   44.8650   34.7800   45.8600 C   0  0  0  0  0  0  0  0  0  0  0  0
   44.5660   35.7850   44.8780 C   0  0  0  0  0  0  0  0  0  0  0  0
   45.0940   35.6500   43.5250 C   0  0  0  0  0  0  0  0  0  0  0  0
   45.9800   34.5280   43.2250 C   0  0  0  0  0  0  0  0  0  0  0  0
   45.5790   33.2950   44.0160 C   0  0  0  0  0  0  0  0  0  0  0  0
   46.5580   30.5960   44.9420 N   0  0  0  0  0  0  0  0  0  0  0  0
   46.1130   29.9800   43.8570 N   0  0  0  0  0  0  0  0  0  0  0  0
   47.1740   29.6200   43.1210 C   0  0  0  0  0  0  0  0  0  0  0  0
   48.3750   29.9850   43.6940 C   0  0  0  0  0  0  0  0  0  0  0  0
   47.9370   30.6120   44.8680 C   0  0  0  0  0  0  0  0  0  0  0  0
   44.9508   33.8754   47.9428 H   0  0  0  0  0  0  0  0  0  0  0  0
   45.2897   29.7952   49.0754 H   0  0  0  0  0  0  0  0  0  0  0  0
   46.8801   33.7935   45.3614 H   0  0  0  0  0  0  0  0  0  0  0  0
   44.4654   34.8365   46.8833 H   0  0  0  0  0  0  0  0  0  0  0  0
   43.9426   36.6511   45.1448 H   0  0  0  0  0  0  0  0  0  0  0  0
   44.2311   35.5709   42.8474 H   0  0  0  0  0  0  0  0  0  0  0  0
   45.7339   36.5358   43.3991 H   0  0  0  0  0  0  0  0  0  0  0  0
   45.9225   34.3010   42.1502 H   0  0  0  0  0  0  0  0  0  0  0  0
   47.0069   34.8064   43.5042 H   0  0  0  0  0  0  0  0  0  0  0  0
   44.5163   33.0680   43.8454 H   0  0  0  0  0  0  0  0  0  0  0  0
   46.1699   32.4222   43.7012 H   0  0  0  0  0  0  0  0  0  0  0  0
   47.0954   29.0892   42.1608 H   0  0  0  0  0  0  0  0  0  0  0  0
   49.4001   29.8265   43.3278 H   0  0  0  0  0  0  0  0  0  0  0  0
   48.5997   31.0555   45.6257 H   0  0  0  0  0  0  0  0  0  0  0  0
  1  6  2  0
  2  1  1  0
  3  2  2  0
  3  4  1  0
  4  5  2  0
  5  6  1  0
  7  8  1  0
  7  2  1  0
  9  8  2  0
 10  9  1  0
 11 10  1  0
 11 12  1  0
 12  7  1  0
 13  3  1  0
 14 13  1  0
 15 16  1  0
 15 14  2  0
 16 17  2  0
 17 13  1  0
  1 18  1  0
  5 19  1  0
  7 20  1  6
  8 21  1  0
  9 22  1  0
 10 23  1  0
 10 24  1  0
 11 25  1  0
 11 26  1  0
 12 27  1  0
 12 28  1  0
 15 29  1  0
 16 30  1  0
 17 31  1  0
M  ISO  8  18  14  19  14  20  13  21  13  22  13  23  13  24  13  25  13
M  ISO  6  26  13  27  13  28  13  29  14  30  14  31  14
M  END
>  <minimizedAffinity>  (1) 
-4.3064518

>  <minimizedRMSD>  (1) 
0.644560397

$$$$
