
     RDKit          3D

 30 32  0  0  1  0  0  0  0  0999 V2000
   45.9300   33.8370   45.1480 C   0  0  2  0  0  0  0  0  0  0  0  0
   44.8880   34.9510   45.5330 C   0  0  0  0  0  0  0  0  0  0  0  0
   44.5530   35.9350   44.5450 C   0  0  0  0  0  0  0  0  0  0  0  0
   45.1510   35.8400   43.2250 C   0  0  0  0  0  0  0  0  0  0  0  0
   46.2400   34.8920   43.0340 C   0  0  0  0  0  0  0  0  0  0  0  0
   45.9960   33.5950   43.7590 C   0  0  0  0  0  0  0  0  0  0  0  0
   45.2460   33.0290   47.3700 C   0  0  0  0  0  0  0  0  0  0  0  0
   45.7790   32.7530   46.0930 C   0  0  0  0  0  0  0  0  0  0  0  0
   46.1020   31.4020   45.7490 C   0  0  0  0  0  0  0  0  0  0  0  0
   45.8880   30.4200   46.6710 N   0  0  0  0  0  0  0  0  0  0  0  0
   45.3700   30.7300   47.9020 C   0  0  0  0  0  0  0  0  0  0  0  0
   45.0550   32.0080   48.2460 N   0  0  0  0  0  0  0  0  0  0  0  0
   46.6180   30.8310   44.5870 N   0  0  0  0  0  0  0  0  0  0  0  0
   47.9880   30.6780   44.6080 C   0  0  0  0  0  0  0  0  0  0  0  0
   48.4150   30.1270   43.4270 N   0  0  0  0  0  0  0  0  0  0  0  0
   47.2700   29.9620   42.7130 C   0  0  0  0  0  0  0  0  0  0  0  0
   46.2040   30.3810   43.4070 N   0  0  0  0  0  0  0  0  0  0  0  0
   46.9780   34.1470   45.2729 H   0  0  0  0  0  0  0  0  0  0  0  0
   44.4291   34.9745   46.5324 H   0  0  0  0  0  0  0  0  0  0  0  0
   43.8534   36.7497   44.7835 H   0  0  0  0  0  0  0  0  0  0  0  0
   44.3507   35.5646   42.5224 H   0  0  0  0  0  0  0  0  0  0  0  0
   45.6125   36.8250   43.0611 H   0  0  0  0  0  0  0  0  0  0  0  0
   46.3440   34.6833   41.9590 H   0  0  0  0  0  0  0  0  0  0  0  0
   47.1563   35.3418   43.4439 H   0  0  0  0  0  0  0  0  0  0  0  0
   45.0463   33.1573   43.4176 H   0  0  0  0  0  0  0  0  0  0  0  0
   46.8190   32.8965   43.5475 H   0  0  0  0  0  0  0  0  0  0  0  0
   44.9878   34.0600   47.6534 H   0  0  0  0  0  0  0  0  0  0  0  0
   45.2046   29.9234   48.6314 H   0  0  0  0  0  0  0  0  0  0  0  0
   48.6417   30.9566   45.4477 H   0  0  0  0  0  0  0  0  0  0  0  0
   47.2250   29.5397   41.6983 H   0  0  0  0  0  0  0  0  0  0  0  0
  1  2  1  0
  1  8  1  0
  3  2  2  0
  4  3  1  0
  5  4  1  0
  5  6  1  0
  6  1  1  0
  7 12  2  0
  8  7  1  0
  9  8  2  0
  9 10  1  0
 10 11  2  0
 11 12  1  0
 13 14  1  0
 13  9  1  0
 15 14  2  0
 16 17  2  0
 16 15  1  0
 17 13  1  0
  1 18  1  1
  2 19  1  0
  3 20  1  0
  4 21  1  0
  4 22  1  0
  5 23  1  0
  5 24  1  0
  6 25  1  0
  6 26  1  0
  7 27  1  0
 11 28  1  0
 14 29  1  0
 16 30  1  0
M  ISO  8  18  13  19  13  20  13  21  13  22  13  23  13  24  13  25  13
M  ISO  5  26  13  27  14  28  14  29  14  30  14
M  END
>  <minimizedAffinity>  (1) 
-4.32345581

>  <minimizedRMSD>  (1) 
0.371662199

$$$$
