
     RDKit          3D

 36 38  0  0  1  0  0  0  0  0999 V2000
   45.8280   33.6170   45.4780 C   0  0  2  0  0  0  0  0  0  0  0  0
   44.8400   34.7650   45.8700 C   0  0  0  0  0  0  0  0  0  0  0  0
   44.5640   35.7390   44.8550 C   0  0  0  0  0  0  0  0  0  0  0  0
   45.1600   35.6270   43.5330 C   0  0  0  0  0  0  0  0  0  0  0  0
   46.1830   34.6000   43.3370 C   0  0  0  0  0  0  0  0  0  0  0  0
   45.8830   33.3400   44.0790 C   0  0  0  0  0  0  0  0  0  0  0  0
   45.2430   32.8370   47.7220 C   0  0  0  0  0  0  0  0  0  0  0  0
   45.7070   32.5590   46.4450 C   0  0  0  0  0  0  0  0  0  0  0  0
   46.0250   31.2010   46.1110 C   0  0  0  0  0  0  0  0  0  0  0  0
   45.8690   30.2310   47.0550 N   0  0  0  0  0  0  0  0  0  0  0  0
   45.4090   30.5520   48.3070 C   0  0  0  0  0  0  0  0  0  0  0  0
   45.1040   31.8370   48.6230 N   0  0  0  0  0  0  0  0  0  0  0  0
   46.5330   30.5720   44.9560 N   0  0  0  0  0  0  0  0  0  0  0  0
   46.1900   29.9250   43.6990 C   0  0  0  0  0  0  0  0  0  0  0  0
   47.2450   28.8800   43.4600 C   0  0  0  0  0  0  0  0  0  0  0  0
   48.4790   29.6600   43.8580 C   0  0  0  0  0  0  0  0  0  0  0  0
   47.9870   30.4960   44.9760 C   0  0  0  0  0  0  0  0  0  0  0  0
   46.8812   33.9216   45.5673 H   0  0  0  0  0  0  0  0  0  0  0  0
   44.3826   34.8216   46.8688 H   0  0  0  0  0  0  0  0  0  0  0  0
   43.8931   36.5815   45.0788 H   0  0  0  0  0  0  0  0  0  0  0  0
   44.3467   35.4216   42.8215 H   0  0  0  0  0  0  0  0  0  0  0  0
   45.6881   36.5801   43.3826 H   0  0  0  0  0  0  0  0  0  0  0  0
   46.2490   34.3692   42.2635 H   0  0  0  0  0  0  0  0  0  0  0  0
   47.1320   34.9973   43.7264 H   0  0  0  0  0  0  0  0  0  0  0  0
   44.9144   32.9392   43.7456 H   0  0  0  0  0  0  0  0  0  0  0  0
   46.6721   32.5996   43.8811 H   0  0  0  0  0  0  0  0  0  0  0  0
   44.9881   33.8697   48.0023 H   0  0  0  0  0  0  0  0  0  0  0  0
   45.2861   29.7613   49.0618 H   0  0  0  0  0  0  0  0  0  0  0  0
   45.1980   29.4552   43.7708 H   0  0  0  0  0  0  0  0  0  0  0  0
   46.1521   30.6508   42.8733 H   0  0  0  0  0  0  0  0  0  0  0  0
   47.0968   27.9963   44.0980 H   0  0  0  0  0  0  0  0  0  0  0  0
   47.2660   28.4662   42.4410 H   0  0  0  0  0  0  0  0  0  0  0  0
   49.2839   28.9875   44.1896 H   0  0  0  0  0  0  0  0  0  0  0  0
   48.9118   30.2444   43.0327 H   0  0  0  0  0  0  0  0  0  0  0  0
   48.4036   31.5096   44.8804 H   0  0  0  0  0  0  0  0  0  0  0  0
   48.3060   30.0423   45.9260 H   0  0  0  0  0  0  0  0  0  0  0  0
  1  2  1  0
  1  8  1  0
  3  2  2  0
  4  3  1  0
  5  4  1  0
  5  6  1  0
  6  1  1  0
  7 12  2  0
  8  7  1  0
  9  8  2  0
  9 10  1  0
 10 11  2  0
 11 12  1  0
 13 17  1  0
 13  9  1  0
 14 13  1  0
 15 14  1  0
 15 16  1  0
 16 17  1  0
  1 18  1  1
  2 19  1  0
  3 20  1  0
  4 21  1  0
  4 22  1  0
  5 23  1  0
  5 24  1  0
  6 25  1  0
  6 26  1  0
  7 27  1  0
 11 28  1  0
 14 29  1  0
 14 30  1  0
 15 31  1  0
 15 32  1  0
 16 33  1  0
 16 34  1  0
 17 35  1  0
 17 36  1  0
M  ISO  8  18  13  19  13  20  13  21  13  22  13  23  13  24  13  25  13
M  ISO  8  26  13  27  14  28  14  29  13  30  13  31  13  32  13  33  13
M  ISO  3  34  13  35  13  36  13
M  END
>  <minimizedAffinity>  (1) 
-4.29935503

>  <minimizedRMSD>  (1) 
0.824659765

$$$$
