
     RDKit          3D

 36 37  0  0  1  0  0  0  0  0999 V2000
   47.0160   34.4430   43.1220 C   0  0  2  0  0  0  0  0  0  0  0  0
   46.5380   33.8460   44.4760 C   0  0  0  0  0  0  0  0  0  0  0  0
   45.2860   34.4050   44.9710 C   0  0  0  0  0  0  0  0  0  0  0  0
   44.5480   35.4210   44.2350 C   0  0  0  0  0  0  0  0  0  0  0  0
   45.2880   36.0970   43.1650 C   0  0  0  0  0  0  0  0  0  0  0  0
   46.0910   35.1260   42.3350 C   0  0  0  0  0  0  0  0  0  0  0  0
   49.4550   34.6280   42.8480 C   0  0  0  0  0  0  0  0  0  0  0  0
   48.2620   33.8750   42.7470 C   0  0  0  0  0  0  0  0  0  0  0  0
   48.1530   32.5290   42.2240 C   0  0  0  0  0  0  0  0  0  0  0  0
   49.3610   32.0710   41.8220 N   0  0  0  0  0  0  0  0  0  0  0  0
   50.5170   32.7930   41.9110 C   0  0  0  0  0  0  0  0  0  0  0  0
   50.5930   34.0510   42.4130 N   0  0  0  0  0  0  0  0  0  0  0  0
   47.2180   31.4930   41.9120 C   0  0  0  0  0  0  0  0  0  0  0  0
   47.8170   30.4460   40.9050 C   0  0  0  0  0  0  0  0  0  0  0  0
   45.8290   31.7420   41.4190 C   0  0  0  0  0  0  0  0  0  0  0  0
   47.0740   30.5860   43.1030 C   0  0  0  0  0  0  0  0  0  0  0  0
   47.3470   35.4816   42.9744 H   0  0  0  0  0  0  0  0  0  0  0  0
   47.0976   33.0673   45.0150 H   0  0  0  0  0  0  0  0  0  0  0  0
   44.8862   34.0476   45.9314 H   0  0  0  0  0  0  0  0  0  0  0  0
   43.6680   34.9389   43.7843 H   0  0  0  0  0  0  0  0  0  0  0  0
   44.3028   36.2028   44.9689 H   0  0  0  0  0  0  0  0  0  0  0  0
   44.5721   36.6164   42.5110 H   0  0  0  0  0  0  0  0  0  0  0  0
   45.9876   36.8068   43.6306 H   0  0  0  0  0  0  0  0  0  0  0  0
   46.6262   35.6805   41.5501 H   0  0  0  0  0  0  0  0  0  0  0  0
   45.4025   34.3938   41.8880 H   0  0  0  0  0  0  0  0  0  0  0  0
   49.4542   35.6457   43.2656 H   0  0  0  0  0  0  0  0  0  0  0  0
   51.4456   32.3246   41.5528 H   0  0  0  0  0  0  0  0  0  0  0  0
   48.2868   29.6248   41.4662 H   0  0  0  0  0  0  0  0  0  0  0  0
   47.0122   30.0441   40.2720 H   0  0  0  0  0  0  0  0  0  0  0  0
   48.5713   30.9361   40.2720 H   0  0  0  0  0  0  0  0  0  0  0  0
   45.1516   31.8634   42.2771 H   0  0  0  0  0  0  0  0  0  0  0  0
   45.8151   32.6570   40.8085 H   0  0  0  0  0  0  0  0  0  0  0  0
   45.4981   30.8888   40.8085 H   0  0  0  0  0  0  0  0  0  0  0  0
   47.1677   31.1760   44.0266 H   0  0  0  0  0  0  0  0  0  0  0  0
   46.0875   30.1001   43.0767 H   0  0  0  0  0  0  0  0  0  0  0  0
   47.8615   29.8185   43.0767 H   0  0  0  0  0  0  0  0  0  0  0  0
  1  2  1  0
  2  3  2  0
  4  3  1  0
  5  4  1  0
  6  1  1  0
  6  5  1  0
  8  7  2  0
  8  1  1  0
  9  8  1  0
 10 11  1  0
 10  9  2  0
 11 12  2  0
 12  7  1  0
 13  9  1  0
 13 16  1  0
 14 13  1  0
 15 13  1  0
  1 17  1  1
  2 18  1  0
  3 19  1  0
  4 20  1  0
  4 21  1  0
  5 22  1  0
  5 23  1  0
  6 24  1  0
  6 25  1  0
  7 26  1  0
 11 27  1  0
 14 28  1  0
 14 29  1  0
 14 30  1  0
 15 31  1  0
 15 32  1  0
 15 33  1  0
 16 34  1  0
 16 35  1  0
 16 36  1  0
M  ISO  8  17  13  18  13  19  13  20  13  21  13  22  13  23  13  24  13
M  ISO  8  25  13  26  14  27  14  28   8  29   8  30   8  31   8  32   8
M  ISO  4  33   8  34   8  35   8  36   8
M  END
>  <minimizedAffinity>  (1) 
-4.22991419

>  <minimizedRMSD>  (1) 
4.47247458

$$$$
