
     RDKit          3D

 27 28  0  0  1  0  0  0  0  0999 V2000
   45.6750   33.7910   45.0620 C   0  0  2  0  0  0  0  0  0  0  0  0
   44.8630   35.0340   45.5570 C   0  0  0  0  0  0  0  0  0  0  0  0
   44.4750   35.9860   44.5450 C   0  0  0  0  0  0  0  0  0  0  0  0
   44.8200   35.7500   43.1320 C   0  0  0  0  0  0  0  0  0  0  0  0
   45.6930   34.6070   42.8410 C   0  0  0  0  0  0  0  0  0  0  0  0
   45.3320   33.4370   43.7320 C   0  0  0  0  0  0  0  0  0  0  0  0
   45.2150   33.1410   47.3950 C   0  0  0  0  0  0  0  0  0  0  0  0
   45.8650   32.8880   46.1590 C   0  0  0  0  0  0  0  0  0  0  0  0
   46.7560   31.7720   45.9370 C   0  0  0  0  0  0  0  0  0  0  0  0
   46.9350   30.9760   47.0120 N   0  0  0  0  0  0  0  0  0  0  0  0
   46.3110   31.2240   48.1990 C   0  0  0  0  0  0  0  0  0  0  0  0
   45.4710   32.2750   48.3950 N   0  0  0  0  0  0  0  0  0  0  0  0
   47.4650   31.3580   44.7630 C   0  0  0  0  0  0  0  0  0  0  0  0
   46.7380   33.9353   44.8185 H   0  0  0  0  0  0  0  0  0  0  0  0
   44.6029   35.1738   46.6166 H   0  0  0  0  0  0  0  0  0  0  0  0
   43.9193   36.8918   44.8293 H   0  0  0  0  0  0  0  0  0  0  0  0
   43.8797   35.5978   42.5819 H   0  0  0  0  0  0  0  0  0  0  0  0
   45.3976   36.6352   42.8275 H   0  0  0  0  0  0  0  0  0  0  0  0
   45.5700   34.3140   41.7879 H   0  0  0  0  0  0  0  0  0  0  0  0
   46.7379   34.8945   43.0297 H   0  0  0  0  0  0  0  0  0  0  0  0
   44.2533   33.2324   43.6643 H   0  0  0  0  0  0  0  0  0  0  0  0
   45.8737   32.5317   43.4205 H   0  0  0  0  0  0  0  0  0  0  0  0
   44.5386   33.9980   47.5294 H   0  0  0  0  0  0  0  0  0  0  0  0
   46.4966   30.5395   49.0399 H   0  0  0  0  0  0  0  0  0  0  0  0
   48.3804   30.8235   45.0569 H   0  0  0  0  0  0  0  0  0  0  0  0
   46.8266   30.6907   44.1653 H   0  0  0  0  0  0  0  0  0  0  0  0
   47.7324   32.2419   44.1653 H   0  0  0  0  0  0  0  0  0  0  0  0
  1  2  1  0
  1  8  1  0
  3  2  2  0
  4  3  1  0
  5  4  1  0
  5  6  1  0
  6  1  1  0
  7 12  2  0
  8  7  1  0
  9  8  2  0
  9 10  1  0
 10 11  2  0
 11 12  1  0
 13  9  1  0
  1 14  1  6
  2 15  1  0
  3 16  1  0
  4 17  1  0
  4 18  1  0
  5 19  1  0
  5 20  1  0
  6 21  1  0
  6 22  1  0
  7 23  1  0
 11 24  1  0
 13 25  1  0
 13 26  1  0
 13 27  1  0
M  ISO  8  14  13  15  13  16  13  17  13  18  13  19  13  20  13  21  13
M  ISO  6  22  13  23  14  24  14  25   8  26   8  27   8
M  END
>  <minimizedAffinity>  (1) 
-4.19035196

>  <minimizedRMSD>  (1) 
0.77165848

$$$$
