
     RDKit          3D

 30 31  0  0  0  0  0  0  0  0999 V2000
   45.5450   35.0520   42.8710 C   0  0  0  0  0  0  0  0  0  0  0  0
   45.0870   34.5310   45.2490 C   0  0  0  0  0  0  0  0  0  0  0  0
   45.8620   34.2540   44.0850 C   0  0  0  0  0  0  0  0  0  0  0  0
   46.8370   33.2660   44.1920 C   0  0  0  0  0  0  0  0  0  0  0  0
   47.0030   32.6270   45.3710 N   0  0  0  0  0  0  0  0  0  0  0  0
   46.2550   32.9140   46.4460 C   0  0  0  0  0  0  0  0  0  0  0  0
   45.2920   33.8680   46.3940 N   0  0  0  0  0  0  0  0  0  0  0  0
   46.7270   35.0180   41.9380 C   0  0  0  0  0  0  0  0  0  0  0  0
   45.2030   36.4520   43.2560 C   0  0  0  0  0  0  0  0  0  0  0  0
   44.3110   34.4500   42.2130 C   0  0  0  0  0  0  0  0  0  0  0  0
   43.2900   35.3490   42.2690 O   0  0  0  0  0  0  0  0  0  0  0  0
   42.2860   35.3760   41.3440 C   0  0  0  0  0  0  0  0  0  0  0  0
   40.9850   35.7470   41.3750 C   0  0  0  0  0  0  0  0  0  0  0  0
   40.2010   35.6650   40.2760 C   0  0  0  0  0  0  0  0  0  0  0  0
   40.8300   35.1690   39.1090 C   0  0  0  0  0  0  0  0  0  0  0  0
   42.5580   34.8400   39.6680 S   0  0  0  0  0  0  0  0  0  0  0  0
   44.3057   35.3041   45.2056 H   0  0  0  0  0  0  0  0  0  0  0  0
   47.4652   33.0084   43.3265 H   0  0  0  0  0  0  0  0  0  0  0  0
   46.4249   32.3671   47.3852 H   0  0  0  0  0  0  0  0  0  0  0  0
   47.6569   34.9913   42.5251 H   0  0  0  0  0  0  0  0  0  0  0  0
   46.6678   34.1212   41.3038 H   0  0  0  0  0  0  0  0  0  0  0  0
   46.7195   35.9167   41.3038 H   0  0  0  0  0  0  0  0  0  0  0  0
   45.1825   36.5361   44.3526 H   0  0  0  0  0  0  0  0  0  0  0  0
   45.9597   37.1393   42.8497 H   0  0  0  0  0  0  0  0  0  0  0  0
   44.2147   36.7130   42.8497 H   0  0  0  0  0  0  0  0  0  0  0  0
   44.0219   33.5314   42.7445 H   0  0  0  0  0  0  0  0  0  0  0  0
   44.5330   34.2079   41.1632 H   0  0  0  0  0  0  0  0  0  0  0  0
   40.5555   36.1237   42.3150 H   0  0  0  0  0  0  0  0  0  0  0  0
   39.1426   35.9645   40.2883 H   0  0  0  0  0  0  0  0  0  0  0  0
   40.3944   35.0165   38.1105 H   0  0  0  0  0  0  0  0  0  0  0  0
  1  9  1  0
  1  3  1  0
  2  7  2  0
  3  4  2  0
  3  2  1  0
  4  5  1  0
  5  6  2  0
  7  6  1  0
  8  1  1  0
 10 11  1  0
 10  1  1  0
 12 13  2  0
 12 11  1  0
 14 13  1  0
 15 16  1  0
 15 14  2  0
 16 12  1  0
  2 17  1  0
  4 18  1  0
  6 19  1  0
  8 20  1  0
  8 21  1  0
  8 22  1  0
  9 23  1  0
  9 24  1  0
  9 25  1  0
 10 26  1  0
 10 27  1  0
 13 28  1  0
 14 29  1  0
 15 30  1  0
M  ISO  8  17  14  18  14  19  14  20   8  21   8  22   8  23   8  24   8
M  ISO  6  25   8  26   8  27   8  28  14  29  14  30  14
M  END
>  <minimizedAffinity>  (1) 
-4.81282282

>  <minimizedRMSD>  (1) 
0.972560346

$$$$
