
     RDKit          3D

 36 39  0  0  1  0  0  0  0  0999 V2000
   45.1670   32.8180   47.6420 C   0  0  0  0  0  0  0  0  0  0  0  0
   45.7260   32.5590   46.4010 C   0  0  0  0  0  0  0  0  0  0  0  0
   46.1650   31.2290   46.1260 C   0  0  0  0  0  0  0  0  0  0  0  0
   46.0260   30.2820   47.0640 N   0  0  0  0  0  0  0  0  0  0  0  0
   45.4720   30.5720   48.2750 C   0  0  0  0  0  0  0  0  0  0  0  0
   45.0450   31.8300   48.5610 N   0  0  0  0  0  0  0  0  0  0  0  0
   45.8970   33.6520   45.4560 C   0  0  2  0  0  0  0  0  0  0  0  0
   44.9210   34.7830   45.8470 C   0  0  0  0  0  0  0  0  0  0  0  0
   44.5240   35.7440   44.8540 C   0  0  0  0  0  0  0  0  0  0  0  0
   45.0680   35.6210   43.4900 C   0  0  0  0  0  0  0  0  0  0  0  0
   46.0770   34.5850   43.2680 C   0  0  0  0  0  0  0  0  0  0  0  0
   45.6910   33.3300   44.0440 C   0  0  0  0  0  0  0  0  0  0  0  0
   46.7480   30.6430   44.9590 C   0  0  0  0  0  0  0  0  0  0  0  0
   48.0510   30.7000   44.7380 N   0  0  0  0  0  0  0  0  0  0  0  0
   48.2930   30.0870   43.6110 O   0  0  0  0  0  0  0  0  0  0  0  0
   47.2370   29.6230   43.0620 C   0  0  0  0  0  0  0  0  0  0  0  0
   46.2400   29.9480   43.8750 N   0  0  0  0  0  0  0  0  0  0  0  0
   47.0060   28.8990   41.8590 N   0  0  0  0  0  0  0  0  0  0  0  0
   47.9040   28.6700   40.8610 C   0  0  0  0  0  0  0  0  0  0  0  0
   47.3260   27.9320   39.8510 C   0  0  0  0  0  0  0  0  0  0  0  0
   46.0580   27.7100   40.2430 N   0  0  0  0  0  0  0  0  0  0  0  0
   45.8690   28.2980   41.4600 C   0  0  0  0  0  0  0  0  0  0  0  0
   44.8196   33.8335   47.8830 H   0  0  0  0  0  0  0  0  0  0  0  0
   45.3693   29.7784   49.0298 H   0  0  0  0  0  0  0  0  0  0  0  0
   46.9570   33.9364   45.5305 H   0  0  0  0  0  0  0  0  0  0  0  0
   44.5337   34.8527   46.8742 H   0  0  0  0  0  0  0  0  0  0  0  0
   43.8269   36.5562   45.1078 H   0  0  0  0  0  0  0  0  0  0  0  0
   44.2253   35.4136   42.8141 H   0  0  0  0  0  0  0  0  0  0  0  0
   45.5890   36.5717   43.3036 H   0  0  0  0  0  0  0  0  0  0  0  0
   46.1328   34.3506   42.1947 H   0  0  0  0  0  0  0  0  0  0  0  0
   47.0570   34.9452   43.6143 H   0  0  0  0  0  0  0  0  0  0  0  0
   44.6369   33.0753   43.8596 H   0  0  0  0  0  0  0  0  0  0  0  0
   46.2939   32.4632   43.7355 H   0  0  0  0  0  0  0  0  0  0  0  0
   48.9453   29.0246   40.8612 H   0  0  0  0  0  0  0  0  0  0  0  0
   47.8020   27.5946   38.9185 H   0  0  0  0  0  0  0  0  0  0  0  0
   44.9283   28.2832   42.0299 H   0  0  0  0  0  0  0  0  0  0  0  0
  1  6  2  0
  2  1  1  0
  3  2  2  0
  3  4  1  0
  4  5  2  0
  5  6  1  0
  7  8  1  0
  7  2  1  0
  9  8  2  0
 10  9  1  0
 11 10  1  0
 11 12  1  0
 12  7  1  0
 13  3  1  0
 14 13  2  0
 15 14  1  0
 16 15  1  0
 16 17  2  0
 17 13  1  0
 18 16  1  0
 19 18  1  0
 20 21  1  0
 20 19  2  0
 21 22  2  0
 22 18  1  0
  1 23  1  0
  5 24  1  0
  7 25  1  6
  8 26  1  0
  9 27  1  0
 10 28  1  0
 10 29  1  0
 11 30  1  0
 11 31  1  0
 12 32  1  0
 12 33  1  0
 19 34  1  0
 20 35  1  0
 22 36  1  0
M  ISO  8  23  14  24  14  25  13  26  13  27  13  28  13  29  13  30  13
M  ISO  6  31  13  32  13  33  13  34  14  35  14  36  14
M  END
>  <minimizedAffinity>  (1) 
-4.29512072

>  <minimizedRMSD>  (1) 
0.16273281

$$$$
