
     RDKit          3D

 30 32  0  0  1  0  0  0  0  0999 V2000
   45.8510   33.5630   45.4160 C   0  0  2  0  0  0  0  0  0  0  0  0
   44.9750   34.7450   45.8370 C   0  0  0  0  0  0  0  0  0  0  0  0
   44.5430   35.6770   44.8390 C   0  0  0  0  0  0  0  0  0  0  0  0
   44.9740   35.4840   43.4550 C   0  0  0  0  0  0  0  0  0  0  0  0
   45.8450   34.3510   43.1570 C   0  0  0  0  0  0  0  0  0  0  0  0
   45.4900   33.1610   44.0420 C   0  0  0  0  0  0  0  0  0  0  0  0
   45.1840   32.8160   47.6540 C   0  0  0  0  0  0  0  0  0  0  0  0
   45.7170   32.5030   46.4160 C   0  0  0  0  0  0  0  0  0  0  0  0
   46.2270   31.1880   46.2100 C   0  0  0  0  0  0  0  0  0  0  0  0
   46.1770   30.3010   47.2180 N   0  0  0  0  0  0  0  0  0  0  0  0
   45.6510   30.6390   48.4210 C   0  0  0  0  0  0  0  0  0  0  0  0
   45.1530   31.8930   48.6430 N   0  0  0  0  0  0  0  0  0  0  0  0
   46.7790   30.5520   45.0540 C   0  0  0  0  0  0  0  0  0  0  0  0
   48.0440   30.7190   44.7290 N   0  0  0  0  0  0  0  0  0  0  0  0
   48.2670   30.0210   43.6440 O   0  0  0  0  0  0  0  0  0  0  0  0
   47.2330   29.4000   43.2260 C   0  0  0  0  0  0  0  0  0  0  0  0
   46.2700   29.7060   44.0840 N   0  0  0  0  0  0  0  0  0  0  0  0
   47.0340   28.5660   42.1360 O   0  0  0  0  0  0  0  0  0  0  0  0
   46.9185   33.8264   45.3833 H   0  0  0  0  0  0  0  0  0  0  0  0
   44.6819   34.8767   46.8890 H   0  0  0  0  0  0  0  0  0  0  0  0
   43.8968   36.5251   45.1095 H   0  0  0  0  0  0  0  0  0  0  0  0
   44.0669   35.3681   42.8437 H   0  0  0  0  0  0  0  0  0  0  0  0
   45.5905   36.3680   43.2350 H   0  0  0  0  0  0  0  0  0  0  0  0
   45.7222   34.0671   42.1014 H   0  0  0  0  0  0  0  0  0  0  0  0
   46.8880   34.6417   43.3511 H   0  0  0  0  0  0  0  0  0  0  0  0
   44.4140   32.9420   43.9767 H   0  0  0  0  0  0  0  0  0  0  0  0
   46.0241   32.2508   43.7318 H   0  0  0  0  0  0  0  0  0  0  0  0
   44.7821   33.8237   47.8357 H   0  0  0  0  0  0  0  0  0  0  0  0
   45.6245   29.8940   49.2298 H   0  0  0  0  0  0  0  0  0  0  0  0
   46.1417   28.1696   41.9724 H   0  0  0  0  0  0  0  0  0  0  0  0
  1  2  1  0
  1  8  1  0
  3  2  2  0
  4  3  1  0
  5  4  1  0
  5  6  1  0
  6  1  1  0
  7 12  2  0
  8  7  1  0
  9  8  2  0
  9 10  1  0
 10 11  2  0
 11 12  1  0
 13  9  1  0
 14 13  2  0
 15 14  1  0
 16 15  1  0
 16 17  2  0
 17 13  1  0
 18 16  1  0
  1 19  1  6
  2 20  1  0
  3 21  1  0
  4 22  1  0
  4 23  1  0
  5 24  1  0
  5 25  1  0
  6 26  1  0
  6 27  1  0
  7 28  1  0
 11 29  1  0
 18 30  1  0
M  ISO  8  19  13  20  13  21  13  22  13  23  13  24  13  25  13  26  13
M  ISO  4  27  13  28  14  29  14  30   3
M  END
>  <minimizedAffinity>  (1) 
-4.14175701

>  <minimizedRMSD>  (1) 
0.163883939

$$$$
