
     RDKit          3D

 36 39  0  0  1  0  0  0  0  0999 V2000
   45.1600   32.8140   47.6360 C   0  0  0  0  0  0  0  0  0  0  0  0
   45.7230   32.5550   46.3970 C   0  0  0  0  0  0  0  0  0  0  0  0
   46.1760   31.2280   46.1270 C   0  0  0  0  0  0  0  0  0  0  0  0
   46.0440   30.2860   47.0700 N   0  0  0  0  0  0  0  0  0  0  0  0
   45.4870   30.5750   48.2800 C   0  0  0  0  0  0  0  0  0  0  0  0
   45.0460   31.8340   48.5610 N   0  0  0  0  0  0  0  0  0  0  0  0
   45.8980   33.6590   45.4540 C   0  0  2  0  0  0  0  0  0  0  0  0
   44.9300   34.7900   45.8470 C   0  0  0  0  0  0  0  0  0  0  0  0
   44.5210   35.7330   44.8550 C   0  0  0  0  0  0  0  0  0  0  0  0
   45.0450   35.6140   43.4880 C   0  0  0  0  0  0  0  0  0  0  0  0
   46.0530   34.5700   43.2510 C   0  0  0  0  0  0  0  0  0  0  0  0
   45.6790   33.3230   44.0410 C   0  0  0  0  0  0  0  0  0  0  0  0
   46.7560   30.6420   44.9590 C   0  0  0  0  0  0  0  0  0  0  0  0
   48.0560   30.7050   44.7380 N   0  0  0  0  0  0  0  0  0  0  0  0
   48.2930   30.0870   43.6090 O   0  0  0  0  0  0  0  0  0  0  0  0
   47.2350   29.6180   43.0630 C   0  0  0  0  0  0  0  0  0  0  0  0
   46.2410   29.9440   43.8790 N   0  0  0  0  0  0  0  0  0  0  0  0
   47.0460   28.8930   41.8530 N   0  0  0  0  0  0  0  0  0  0  0  0
   48.0000   29.0050   40.9210 N   0  0  0  0  0  0  0  0  0  0  0  0
   47.6210   28.2480   39.8790 C   0  0  0  0  0  0  0  0  0  0  0  0
   46.3970   27.6690   40.2080 C   0  0  0  0  0  0  0  0  0  0  0  0
   46.0420   28.0900   41.4720 C   0  0  0  0  0  0  0  0  0  0  0  0
   44.8019   33.8274   47.8699 H   0  0  0  0  0  0  0  0  0  0  0  0
   45.3923   29.7836   49.0381 H   0  0  0  0  0  0  0  0  0  0  0  0
   46.9556   33.9525   45.5270 H   0  0  0  0  0  0  0  0  0  0  0  0
   44.5579   34.8709   46.8790 H   0  0  0  0  0  0  0  0  0  0  0  0
   43.8201   36.5408   45.1125 H   0  0  0  0  0  0  0  0  0  0  0  0
   44.1933   35.4111   42.8220 H   0  0  0  0  0  0  0  0  0  0  0  0
   45.5653   36.5640   43.2964 H   0  0  0  0  0  0  0  0  0  0  0  0
   46.0877   34.3291   42.1783 H   0  0  0  0  0  0  0  0  0  0  0  0
   47.0406   34.9300   43.5752 H   0  0  0  0  0  0  0  0  0  0  0  0
   44.6240   33.0634   43.8688 H   0  0  0  0  0  0  0  0  0  0  0  0
   46.2821   32.4556   43.7346 H   0  0  0  0  0  0  0  0  0  0  0  0
   48.1748   28.1102   38.9386 H   0  0  0  0  0  0  0  0  0  0  0  0
   45.8131   26.9912   39.5680 H   0  0  0  0  0  0  0  0  0  0  0  0
   45.1379   27.8263   42.0404 H   0  0  0  0  0  0  0  0  0  0  0  0
  1  6  2  0
  2  1  1  0
  3  2  2  0
  3  4  1  0
  4  5  2  0
  5  6  1  0
  7  8  1  0
  7  2  1  0
  9  8  2  0
 10  9  1  0
 11 10  1  0
 11 12  1  0
 12  7  1  0
 13  3  1  0
 14 13  2  0
 15 14  1  0
 16 15  1  0
 16 17  2  0
 17 13  1  0
 18 16  1  0
 19 18  1  0
 20 21  1  0
 20 19  2  0
 21 22  2  0
 22 18  1  0
  1 23  1  0
  5 24  1  0
  7 25  1  6
  8 26  1  0
  9 27  1  0
 10 28  1  0
 10 29  1  0
 11 30  1  0
 11 31  1  0
 12 32  1  0
 12 33  1  0
 20 34  1  0
 21 35  1  0
 22 36  1  0
M  ISO  8  23  14  24  14  25  13  26  13  27  13  28  13  29  13  30  13
M  ISO  6  31  13  32  13  33  13  34  14  35  14  36  14
M  END
>  <minimizedAffinity>  (1) 
-4.28855944

>  <minimizedRMSD>  (1) 
0.149914682

$$$$
