
     RDKit          3D

 42 45  0  0  1  0  0  0  0  0999 V2000
   45.1680   32.8000   47.6080 C   0  0  0  0  0  0  0  0  0  0  0  0
   45.7210   32.5130   46.3640 C   0  0  0  0  0  0  0  0  0  0  0  0
   46.2110   31.1890   46.1190 C   0  0  0  0  0  0  0  0  0  0  0  0
   46.1150   30.2820   47.1040 N   0  0  0  0  0  0  0  0  0  0  0  0
   45.5690   30.5930   48.3150 C   0  0  0  0  0  0  0  0  0  0  0  0
   45.0980   31.8480   48.5620 N   0  0  0  0  0  0  0  0  0  0  0  0
   45.8570   33.5950   45.3840 C   0  0  2  0  0  0  0  0  0  0  0  0
   44.9720   34.7700   45.8270 C   0  0  0  0  0  0  0  0  0  0  0  0
   44.5120   35.6940   44.8410 C   0  0  0  0  0  0  0  0  0  0  0  0
   44.9110   35.5290   43.4430 C   0  0  0  0  0  0  0  0  0  0  0  0
   45.8560   34.4410   43.1480 C   0  0  0  0  0  0  0  0  0  0  0  0
   45.5050   33.2270   44.0030 C   0  0  0  0  0  0  0  0  0  0  0  0
   46.7820   30.5840   44.9700 C   0  0  0  0  0  0  0  0  0  0  0  0
   48.0700   30.7200   44.6950 N   0  0  0  0  0  0  0  0  0  0  0  0
   48.2930   30.0540   43.5840 O   0  0  0  0  0  0  0  0  0  0  0  0
   47.2490   29.4910   43.1100 C   0  0  0  0  0  0  0  0  0  0  0  0
   46.2700   29.7960   43.9480 N   0  0  0  0  0  0  0  0  0  0  0  0
   47.5660   28.7960   41.9190 N   0  0  0  0  0  0  0  0  0  0  0  0
   46.6690   28.2170   40.9360 C   0  0  0  0  0  0  0  0  0  0  0  0
   47.4730   27.8660   39.7020 C   0  0  0  0  0  0  0  0  0  0  0  0
   48.3090   28.8630   39.2680 O   0  0  0  0  0  0  0  0  0  0  0  0
   49.1280   29.3820   40.2460 C   0  0  0  0  0  0  0  0  0  0  0  0
   48.9820   28.6070   41.5640 C   0  0  0  0  0  0  0  0  0  0  0  0
   44.7851   33.8101   47.8154 H   0  0  0  0  0  0  0  0  0  0  0  0
   45.5083   29.8240   49.0992 H   0  0  0  0  0  0  0  0  0  0  0  0
   46.9250   33.8575   45.3622 H   0  0  0  0  0  0  0  0  0  0  0  0
   44.6978   34.8970   46.8847 H   0  0  0  0  0  0  0  0  0  0  0  0
   43.8581   36.5294   45.1319 H   0  0  0  0  0  0  0  0  0  0  0  0
   43.9990   35.3463   42.8558 H   0  0  0  0  0  0  0  0  0  0  0  0
   45.4470   36.4543   43.1850 H   0  0  0  0  0  0  0  0  0  0  0  0
   45.7882   34.1733   42.0832 H   0  0  0  0  0  0  0  0  0  0  0  0
   46.8809   34.7695   43.3752 H   0  0  0  0  0  0  0  0  0  0  0  0
   44.4306   33.0032   43.9280 H   0  0  0  0  0  0  0  0  0  0  0  0
   46.0465   32.3284   43.6725 H   0  0  0  0  0  0  0  0  0  0  0  0
   46.2041   27.3087   41.3470 H   0  0  0  0  0  0  0  0  0  0  0  0
   45.8766   28.9353   40.6786 H   0  0  0  0  0  0  0  0  0  0  0  0
   48.0836   26.9798   39.9298 H   0  0  0  0  0  0  0  0  0  0  0  0
   46.7475   27.6907   38.8940 H   0  0  0  0  0  0  0  0  0  0  0  0
   50.1730   29.3209   39.9081 H   0  0  0  0  0  0  0  0  0  0  0  0
   48.8374   30.4279   40.4238 H   0  0  0  0  0  0  0  0  0  0  0  0
   49.2125   27.5410   41.4209 H   0  0  0  0  0  0  0  0  0  0  0  0
   49.6704   28.9590   42.3464 H   0  0  0  0  0  0  0  0  0  0  0  0
  1  6  2  0
  2  1  1  0
  3  2  2  0
  3  4  1  0
  4  5  2  0
  5  6  1  0
  7  8  1  0
  7  2  1  0
  9  8  2  0
 10  9  1  0
 11 10  1  0
 11 12  1  0
 12  7  1  0
 13  3  1  0
 14 13  2  0
 15 14  1  0
 16 15  1  0
 16 17  2  0
 17 13  1  0
 18 16  1  0
 19 18  1  0
 20 19  1  0
 21 20  1  0
 21 22  1  0
 22 23  1  0
 23 18  1  0
  1 24  1  0
  5 25  1  0
  7 26  1  6
  8 27  1  0
  9 28  1  0
 10 29  1  0
 10 30  1  0
 11 31  1  0
 11 32  1  0
 12 33  1  0
 12 34  1  0
 19 35  1  0
 19 36  1  0
 20 37  1  0
 20 38  1  0
 22 39  1  0
 22 40  1  0
 23 41  1  0
 23 42  1  0
M  ISO  8  24  14  25  14  26  13  27  13  28  13  29  13  30  13  31  13
M  ISO  8  32  13  33  13  34  13  35  13  36  13  37  13  38  13  39  13
M  ISO  3  40  13  41  13  42  13
M  END
>  <minimizedAffinity>  (1) 
-4.22394896

>  <minimizedRMSD>  (1) 
0.0886709169

$$$$
