
     RDKit          3D

 36 39  0  0  1  0  0  0  0  0999 V2000
   45.1730   32.8120   47.6330 C   0  0  0  0  0  0  0  0  0  0  0  0
   45.7250   32.5560   46.3820 C   0  0  0  0  0  0  0  0  0  0  0  0
   46.1530   31.2240   46.0980 C   0  0  0  0  0  0  0  0  0  0  0  0
   46.0130   30.2730   47.0310 N   0  0  0  0  0  0  0  0  0  0  0  0
   45.4690   30.5610   48.2480 C   0  0  0  0  0  0  0  0  0  0  0  0
   45.0530   31.8210   48.5430 N   0  0  0  0  0  0  0  0  0  0  0  0
   45.9010   33.6650   45.4420 C   0  0  2  0  0  0  0  0  0  0  0  0
   44.9310   34.7940   45.8420 C   0  0  0  0  0  0  0  0  0  0  0  0
   44.5100   35.7320   44.8460 C   0  0  0  0  0  0  0  0  0  0  0  0
   45.0260   35.6110   43.4720 C   0  0  0  0  0  0  0  0  0  0  0  0
   46.0710   34.5940   43.2560 C   0  0  0  0  0  0  0  0  0  0  0  0
   45.6900   33.3370   44.0300 C   0  0  0  0  0  0  0  0  0  0  0  0
   46.7250   30.6410   44.9240 C   0  0  0  0  0  0  0  0  0  0  0  0
   48.0300   30.6840   44.7020 N   0  0  0  0  0  0  0  0  0  0  0  0
   48.2600   30.0800   43.5700 O   0  0  0  0  0  0  0  0  0  0  0  0
   47.1960   29.6360   43.0150 C   0  0  0  0  0  0  0  0  0  0  0  0
   46.2040   29.9660   43.8340 N   0  0  0  0  0  0  0  0  0  0  0  0
   46.9710   28.9130   41.7680 C   0  0  0  0  0  0  0  0  0  0  0  0
   45.9960   29.0800   40.8060 C   0  0  0  0  0  0  0  0  0  0  0  0
   46.1690   28.1660   39.7880 C   0  0  0  0  0  0  0  0  0  0  0  0
   47.2690   27.4470   40.1580 N   0  0  0  0  0  0  0  0  0  0  0  0
   47.7310   27.8820   41.3050 N   0  0  0  0  0  0  0  0  0  0  0  0
   44.8322   33.8276   47.8827 H   0  0  0  0  0  0  0  0  0  0  0  0
   45.3657   29.7644   48.9995 H   0  0  0  0  0  0  0  0  0  0  0  0
   46.9583   33.9593   45.5159 H   0  0  0  0  0  0  0  0  0  0  0  0
   44.5678   34.8777   46.8769 H   0  0  0  0  0  0  0  0  0  0  0  0
   43.8065   36.5370   45.1049 H   0  0  0  0  0  0  0  0  0  0  0  0
   44.1781   35.3655   42.8156 H   0  0  0  0  0  0  0  0  0  0  0  0
   45.5050   36.5764   43.2516 H   0  0  0  0  0  0  0  0  0  0  0  0
   46.1460   34.3610   42.1836 H   0  0  0  0  0  0  0  0  0  0  0  0
   47.0429   34.9720   43.6060 H   0  0  0  0  0  0  0  0  0  0  0  0
   44.6361   33.0792   43.8490 H   0  0  0  0  0  0  0  0  0  0  0  0
   46.2911   32.4697   43.7193 H   0  0  0  0  0  0  0  0  0  0  0  0
   45.1958   29.8338   40.8455 H   0  0  0  0  0  0  0  0  0  0  0  0
   45.5580   28.0437   38.8815 H   0  0  0  0  0  0  0  0  0  0  0  0
   47.6773   26.6736   39.6139 H   0  0  0  0  0  0  0  0  0  0  0  0
  1  6  2  0
  2  1  1  0
  3  2  2  0
  3  4  1  0
  4  5  2  0
  5  6  1  0
  7  8  1  0
  7  2  1  0
  9  8  2  0
 10  9  1  0
 11 10  1  0
 11 12  1  0
 12  7  1  0
 13  3  1  0
 14 13  2  0
 15 14  1  0
 16 15  1  0
 16 17  2  0
 17 13  1  0
 18 16  1  0
 19 18  1  0
 20 21  1  0
 20 19  2  0
 21 22  1  0
 22 18  2  0
  1 23  1  0
  5 24  1  0
  7 25  1  6
  8 26  1  0
  9 27  1  0
 10 28  1  0
 10 29  1  0
 11 30  1  0
 11 31  1  0
 12 32  1  0
 12 33  1  0
 19 34  1  0
 20 35  1  0
 21 36  1  0
M  ISO  8  23  14  24  14  25  13  26  13  27  13  28  13  29  13  30  13
M  ISO  6  31  13  32  13  33  13  34  14  35  14  36   9
M  END
>  <minimizedAffinity>  (1) 
-4.07585526

>  <minimizedRMSD>  (1) 
0.344663411

$$$$
