
     RDKit          3D

 38 40  0  0  1  0  0  0  0  0999 V2000
   45.1650   32.8020   47.6180 C   0  0  0  0  0  0  0  0  0  0  0  0
   45.7250   32.5180   46.3660 C   0  0  0  0  0  0  0  0  0  0  0  0
   46.1980   31.1920   46.1370 C   0  0  0  0  0  0  0  0  0  0  0  0
   46.0930   30.2780   47.1100 N   0  0  0  0  0  0  0  0  0  0  0  0
   45.5410   30.5970   48.3170 C   0  0  0  0  0  0  0  0  0  0  0  0
   45.0820   31.8520   48.5610 N   0  0  0  0  0  0  0  0  0  0  0  0
   45.8700   33.5950   45.3840 C   0  0  2  0  0  0  0  0  0  0  0  0
   44.9880   34.7680   45.8210 C   0  0  0  0  0  0  0  0  0  0  0  0
   44.5000   35.6910   44.8250 C   0  0  0  0  0  0  0  0  0  0  0  0
   44.8710   35.4780   43.4090 C   0  0  0  0  0  0  0  0  0  0  0  0
   45.8450   34.4240   43.1430 C   0  0  0  0  0  0  0  0  0  0  0  0
   45.5150   33.2100   44.0010 C   0  0  0  0  0  0  0  0  0  0  0  0
   46.7740   30.5810   44.9810 C   0  0  0  0  0  0  0  0  0  0  0  0
   48.0660   30.6910   44.7210 N   0  0  0  0  0  0  0  0  0  0  0  0
   48.3120   30.0410   43.6210 O   0  0  0  0  0  0  0  0  0  0  0  0
   47.2700   29.4980   43.1180 C   0  0  0  0  0  0  0  0  0  0  0  0
   46.2810   29.8110   43.9410 N   0  0  0  0  0  0  0  0  0  0  0  0
   47.1100   28.6770   41.8850 C   0  0  0  0  0  0  0  0  0  0  0  0
   48.1130   29.1340   40.8530 C   0  0  0  0  0  0  0  0  0  0  0  0
   45.7350   28.7320   41.3000 C   0  0  0  0  0  0  0  0  0  0  0  0
   44.7896   33.8140   47.8299 H   0  0  0  0  0  0  0  0  0  0  0  0
   45.4670   29.8290   49.1010 H   0  0  0  0  0  0  0  0  0  0  0  0
   46.9367   33.8627   45.3599 H   0  0  0  0  0  0  0  0  0  0  0  0
   44.7296   34.9053   46.8814 H   0  0  0  0  0  0  0  0  0  0  0  0
   43.8623   36.5394   45.1141 H   0  0  0  0  0  0  0  0  0  0  0  0
   43.9525   35.2317   42.8562 H   0  0  0  0  0  0  0  0  0  0  0  0
   45.3582   36.4118   43.0918 H   0  0  0  0  0  0  0  0  0  0  0  0
   45.8044   34.1452   42.0797 H   0  0  0  0  0  0  0  0  0  0  0  0
   46.8556   34.7845   43.3854 H   0  0  0  0  0  0  0  0  0  0  0  0
   44.4437   32.9701   43.9317 H   0  0  0  0  0  0  0  0  0  0  0  0
   46.0656   32.3162   43.6722 H   0  0  0  0  0  0  0  0  0  0  0  0
   47.2838   27.6304   42.1755 H   0  0  0  0  0  0  0  0  0  0  0  0
   49.0016   29.5389   41.3594 H   0  0  0  0  0  0  0  0  0  0  0  0
   48.4064   28.2807   40.2239 H   0  0  0  0  0  0  0  0  0  0  0  0
   47.6617   29.9153   40.2239 H   0  0  0  0  0  0  0  0  0  0  0  0
   44.9924   28.7617   42.1110 H   0  0  0  0  0  0  0  0  0  0  0  0
   45.6364   29.6348   40.6793 H   0  0  0  0  0  0  0  0  0  0  0  0
   45.5646   27.8400   40.6793 H   0  0  0  0  0  0  0  0  0  0  0  0
  1  6  2  0
  2  1  1  0
  3  2  2  0
  3  4  1  0
  4  5  2  0
  5  6  1  0
  7  8  1  0
  7  2  1  0
  9  8  2  0
 10  9  1  0
 11 10  1  0
 11 12  1  0
 12  7  1  0
 13  3  1  0
 14 13  2  0
 15 14  1  0
 16 15  1  0
 16 17  2  0
 17 13  1  0
 18 16  1  0
 19 18  1  0
 20 18  1  0
  1 21  1  0
  5 22  1  0
  7 23  1  6
  8 24  1  0
  9 25  1  0
 10 26  1  0
 10 27  1  0
 11 28  1  0
 11 29  1  0
 12 30  1  0
 12 31  1  0
 18 32  1  0
 19 33  1  0
 19 34  1  0
 19 35  1  0
 20 36  1  0
 20 37  1  0
 20 38  1  0
M  ISO  8  21  14  22  14  23  13  24  13  25  13  26  13  27  13  28  13
M  ISO  8  29  13  30  13  31  13  32   8  33   8  34   8  35   8  36   8
M  ISO  2  37   8  38   8
M  END
>  <minimizedAffinity>  (1) 
-3.95872402

>  <minimizedRMSD>  (1) 
0.123671003

$$$$
