
     RDKit          3D

 39 42  0  0  1  0  0  0  0  0999 V2000
   45.3310   32.7040   47.1020 C   0  0  0  0  0  0  0  0  0  0  0  0
   45.9680   32.6370   45.8460 C   0  0  0  0  0  0  0  0  0  0  0  0
   46.6120   31.4200   45.5130 C   0  0  0  0  0  0  0  0  0  0  0  0
   46.5990   30.4020   46.3710 N   0  0  0  0  0  0  0  0  0  0  0  0
   45.9720   30.5090   47.5740 C   0  0  0  0  0  0  0  0  0  0  0  0
   45.3390   31.6690   47.9310 N   0  0  0  0  0  0  0  0  0  0  0  0
   46.0160   33.8510   45.0200 C   0  0  2  0  0  0  0  0  0  0  0  0
   45.0690   34.8700   45.5650 C   0  0  0  0  0  0  0  0  0  0  0  0
   44.4460   35.8260   44.6660 C   0  0  0  0  0  0  0  0  0  0  0  0
   44.7820   35.7880   43.2270 C   0  0  0  0  0  0  0  0  0  0  0  0
   45.9150   34.9250   42.8850 C   0  0  0  0  0  0  0  0  0  0  0  0
   45.6660   33.5650   43.5780 C   0  0  0  0  0  0  0  0  0  0  0  0
   47.2890   31.0160   44.3230 C   0  0  0  0  0  0  0  0  0  0  0  0
   48.5060   30.5470   44.3210 N   0  0  0  0  0  0  0  0  0  0  0  0
   48.8460   30.2720   43.0940 O   0  0  0  0  0  0  0  0  0  0  0  0
   47.9280   30.5280   42.2580 C   0  0  0  0  0  0  0  0  0  0  0  0
   46.9290   30.9960   42.9680 N   0  0  0  0  0  0  0  0  0  0  0  0
   47.9570   30.3480   40.7990 C   0  0  0  0  0  0  0  0  0  0  0  0
   48.1840   29.2110   40.2980 O   0  0  0  0  0  0  0  0  0  0  0  0
   47.7260   31.4750   39.8950 C   0  0  0  0  0  0  0  0  0  0  0  0
   48.2790   32.6850   40.2510 C   0  0  0  0  0  0  0  0  0  0  0  0
   48.0820   33.7830   39.4160 C   0  0  0  0  0  0  0  0  0  0  0  0
   47.3630   33.6530   38.2890 N   0  0  0  0  0  0  0  0  0  0  0  0
   46.8410   32.4340   37.9890 C   0  0  0  0  0  0  0  0  0  0  0  0
   47.0090   31.3330   38.7750 N   0  0  0  0  0  0  0  0  0  0  0  0
   44.8185   33.6308   47.3994 H   0  0  0  0  0  0  0  0  0  0  0  0
   45.9739   29.6545   48.2667 H   0  0  0  0  0  0  0  0  0  0  0  0
   47.0468   34.2338   45.0512 H   0  0  0  0  0  0  0  0  0  0  0  0
   44.8447   34.8962   46.6416 H   0  0  0  0  0  0  0  0  0  0  0  0
   43.7327   36.5694   45.0515 H   0  0  0  0  0  0  0  0  0  0  0  0
   43.8992   35.4277   42.6785 H   0  0  0  0  0  0  0  0  0  0  0  0
   45.0763   36.8110   42.9499 H   0  0  0  0  0  0  0  0  0  0  0  0
   45.9724   34.7896   41.7949 H   0  0  0  0  0  0  0  0  0  0  0  0
   46.8644   35.3697   43.2180 H   0  0  0  0  0  0  0  0  0  0  0  0
   44.6144   33.2575   43.4796 H   0  0  0  0  0  0  0  0  0  0  0  0
   46.2532   32.7425   43.1437 H   0  0  0  0  0  0  0  0  0  0  0  0
   48.8650   32.7828   41.1768 H   0  0  0  0  0  0  0  0  0  0  0  0
   48.5163   34.7584   39.6804 H   0  0  0  0  0  0  0  0  0  0  0  0
   46.2532   32.3309   37.0650 H   0  0  0  0  0  0  0  0  0  0  0  0
  1  6  2  0
  2  1  1  0
  3  2  2  0
  3  4  1  0
  4  5  2  0
  5  6  1  0
  7  8  1  0
  7  2  1  0
  9  8  2  0
 10  9  1  0
 11 10  1  0
 11 12  1  0
 12  7  1  0
 13  3  1  0
 14 13  2  0
 15 14  1  0
 16 17  2  0
 16 15  1  0
 17 13  1  0
 18 16  1  0
 19 18  2  0
 20 21  2  0
 20 18  1  0
 22 21  1  0
 23 22  2  0
 24 23  1  0
 24 25  2  0
 25 20  1  0
  1 26  1  0
  5 27  1  0
  7 28  1  6
  8 29  1  0
  9 30  1  0
 10 31  1  0
 10 32  1  0
 11 33  1  0
 11 34  1  0
 12 35  1  0
 12 36  1  0
 21 37  1  0
 22 38  1  0
 24 39  1  0
M  ISO  8  26  14  27  14  28  13  29  13  30  13  31  13  32  13  33  13
M  ISO  6  34  13  35  13  36  13  37  14  38  14  39  14
M  END
>  <minimizedAffinity>  (1) 
-4.54262304

>  <minimizedRMSD>  (1) 
3.81715655

$$$$
