
     RDKit          3D

 38 41  0  0  1  0  0  0  0  0999 V2000
   45.1710   32.8130   47.6270 C   0  0  0  0  0  0  0  0  0  0  0  0
   45.7380   32.5040   46.3760 C   0  0  0  0  0  0  0  0  0  0  0  0
   46.2190   31.1840   46.1900 C   0  0  0  0  0  0  0  0  0  0  0  0
   46.1250   30.3010   47.1800 N   0  0  0  0  0  0  0  0  0  0  0  0
   45.5730   30.6380   48.3730 C   0  0  0  0  0  0  0  0  0  0  0  0
   45.0980   31.8990   48.5880 N   0  0  0  0  0  0  0  0  0  0  0  0
   45.8860   33.5840   45.3920 C   0  0  2  0  0  0  0  0  0  0  0  0
   45.0460   34.7520   45.7880 C   0  0  0  0  0  0  0  0  0  0  0  0
   44.5060   35.6340   44.7680 C   0  0  0  0  0  0  0  0  0  0  0  0
   44.8210   35.3660   43.3430 C   0  0  0  0  0  0  0  0  0  0  0  0
   45.8680   34.3650   43.1290 C   0  0  0  0  0  0  0  0  0  0  0  0
   45.5060   33.1420   44.0020 C   0  0  0  0  0  0  0  0  0  0  0  0
   46.7910   30.5500   45.0430 C   0  0  0  0  0  0  0  0  0  0  0  0
   48.0370   30.6950   44.6910 N   0  0  0  0  0  0  0  0  0  0  0  0
   48.2520   30.0000   43.6080 O   0  0  0  0  0  0  0  0  0  0  0  0
   47.2190   29.3890   43.2030 C   0  0  0  0  0  0  0  0  0  0  0  0
   46.2730   29.6940   44.0600 N   0  0  0  0  0  0  0  0  0  0  0  0
   47.0860   28.5210   42.0260 C   0  0  0  0  0  0  0  0  0  0  0  0
   48.0090   28.4590   41.1640 O   0  0  0  0  0  0  0  0  0  0  0  0
   45.8820   27.7220   41.8460 C   0  0  0  0  0  0  0  0  0  0  0  0
   44.8490   27.9970   40.9870 C   0  0  0  0  0  0  0  0  0  0  0  0
   43.8790   27.0220   41.0830 C   0  0  0  0  0  0  0  0  0  0  0  0
   44.4110   26.1670   42.0470 C   0  0  0  0  0  0  0  0  0  0  0  0
   45.5880   26.6090   42.4720 O   0  0  0  0  0  0  0  0  0  0  0  0
   44.7830   33.8257   47.8112 H   0  0  0  0  0  0  0  0  0  0  0  0
   45.5078   29.8874   49.1745 H   0  0  0  0  0  0  0  0  0  0  0  0
   46.9483   33.8693   45.3766 H   0  0  0  0  0  0  0  0  0  0  0  0
   44.8361   34.9447   46.8504 H   0  0  0  0  0  0  0  0  0  0  0  0
   43.8725   36.4885   45.0480 H   0  0  0  0  0  0  0  0  0  0  0  0
   43.9034   35.0140   42.8489 H   0  0  0  0  0  0  0  0  0  0  0  0
   45.2010   36.3096   42.9245 H   0  0  0  0  0  0  0  0  0  0  0  0
   45.9032   34.0754   42.0684 H   0  0  0  0  0  0  0  0  0  0  0  0
   46.8559   34.7645   43.4017 H   0  0  0  0  0  0  0  0  0  0  0  0
   44.4309   32.9178   43.9398 H   0  0  0  0  0  0  0  0  0  0  0  0
   46.0193   32.2214   43.6875 H   0  0  0  0  0  0  0  0  0  0  0  0
   44.8013   28.8691   40.3183 H   0  0  0  0  0  0  0  0  0  0  0  0
   42.9273   26.9397   40.5376 H   0  0  0  0  0  0  0  0  0  0  0  0
   43.9214   25.2500   42.4068 H   0  0  0  0  0  0  0  0  0  0  0  0
  1  6  2  0
  2  1  1  0
  3  2  2  0
  3  4  1  0
  4  5  2  0
  5  6  1  0
  7  8  1  0
  7  2  1  0
  9  8  2  0
 10  9  1  0
 11 10  1  0
 11 12  1  0
 12  7  1  0
 13  3  1  0
 14 13  2  0
 15 14  1  0
 16 15  1  0
 16 17  2  0
 17 13  1  0
 18 16  1  0
 19 18  2  0
 20 18  1  0
 20 24  1  0
 21 22  1  0
 21 20  2  0
 22 23  2  0
 23 24  1  0
  1 25  1  0
  5 26  1  0
  7 27  1  6
  8 28  1  0
  9 29  1  0
 10 30  1  0
 10 31  1  0
 11 32  1  0
 11 33  1  0
 12 34  1  0
 12 35  1  0
 21 36  1  0
 22 37  1  0
 23 38  1  0
M  ISO  8  25  14  26  14  27  13  28  13  29  13  30  13  31  13  32  13
M  ISO  6  33  13  34  13  35  13  36  14  37  14  38  14
M  END
>  <minimizedAffinity>  (1) 
-3.76572776

>  <minimizedRMSD>  (1) 
1.64272904

$$$$
