
     RDKit          3D

 38 41  0  0  1  0  0  0  0  0999 V2000
   45.1570   32.7660   47.6590 C   0  0  0  0  0  0  0  0  0  0  0  0
   45.7370   32.4850   46.4050 C   0  0  0  0  0  0  0  0  0  0  0  0
   46.2260   31.1710   46.1980 C   0  0  0  0  0  0  0  0  0  0  0  0
   46.1300   30.2640   47.1660 N   0  0  0  0  0  0  0  0  0  0  0  0
   45.5630   30.5780   48.3630 C   0  0  0  0  0  0  0  0  0  0  0  0
   45.0800   31.8300   48.6000 N   0  0  0  0  0  0  0  0  0  0  0  0
   45.9080   33.5910   45.4530 C   0  0  2  0  0  0  0  0  0  0  0  0
   45.0300   34.7320   45.8410 C   0  0  0  0  0  0  0  0  0  0  0  0
   44.5140   35.6280   44.8200 C   0  0  0  0  0  0  0  0  0  0  0  0
   44.8940   35.4020   43.4080 C   0  0  0  0  0  0  0  0  0  0  0  0
   45.9530   34.4120   43.2060 C   0  0  0  0  0  0  0  0  0  0  0  0
   45.5670   33.1650   44.0390 C   0  0  0  0  0  0  0  0  0  0  0  0
   46.8090   30.5620   45.0450 C   0  0  0  0  0  0  0  0  0  0  0  0
   48.0700   30.6810   44.7390 N   0  0  0  0  0  0  0  0  0  0  0  0
   48.3010   30.0230   43.6370 O   0  0  0  0  0  0  0  0  0  0  0  0
   47.2640   29.4600   43.1740 C   0  0  0  0  0  0  0  0  0  0  0  0
   46.2990   29.7620   44.0130 N   0  0  0  0  0  0  0  0  0  0  0  0
   47.1450   28.6440   41.9600 C   0  0  0  0  0  0  0  0  0  0  0  0
   46.9130   29.1890   40.8410 O   0  0  0  0  0  0  0  0  0  0  0  0
   47.2910   27.1960   42.0230 C   0  0  0  0  0  0  0  0  0  0  0  0
   47.7510   26.5320   43.1520 C   0  0  0  0  0  0  0  0  0  0  0  0
   47.7230   25.1950   42.7510 C   0  0  0  0  0  0  0  0  0  0  0  0
   47.2810   25.1010   41.4920 N   0  0  0  0  0  0  0  0  0  0  0  0
   47.0190   26.3170   41.0480 N   0  0  0  0  0  0  0  0  0  0  0  0
   44.7630   33.7729   47.8614 H   0  0  0  0  0  0  0  0  0  0  0  0
   45.4938   29.8115   49.1489 H   0  0  0  0  0  0  0  0  0  0  0  0
   46.9645   33.8961   45.4812 H   0  0  0  0  0  0  0  0  0  0  0  0
   44.7734   34.8952   46.8981 H   0  0  0  0  0  0  0  0  0  0  0  0
   43.8507   36.4620   45.0928 H   0  0  0  0  0  0  0  0  0  0  0  0
   44.0004   35.0625   42.8637 H   0  0  0  0  0  0  0  0  0  0  0  0
   45.2914   36.3588   43.0384 H   0  0  0  0  0  0  0  0  0  0  0  0
   46.0257   34.1477   42.1407 H   0  0  0  0  0  0  0  0  0  0  0  0
   46.9291   34.8094   43.5209 H   0  0  0  0  0  0  0  0  0  0  0  0
   44.4951   32.9383   43.9405 H   0  0  0  0  0  0  0  0  0  0  0  0
   46.0873   32.2494   43.7213 H   0  0  0  0  0  0  0  0  0  0  0  0
   48.0601   26.9536   44.1199 H   0  0  0  0  0  0  0  0  0  0  0  0
   48.0211   24.3426   43.3792 H   0  0  0  0  0  0  0  0  0  0  0  0
   47.1646   24.2275   40.9587 H   0  0  0  0  0  0  0  0  0  0  0  0
  1  6  2  0
  2  1  1  0
  3  2  2  0
  3  4  1  0
  4  5  2  0
  5  6  1  0
  7  8  1  0
  7  2  1  0
  9  8  2  0
 10  9  1  0
 11 10  1  0
 11 12  1  0
 12  7  1  0
 13  3  1  0
 14 13  2  0
 15 14  1  0
 16 15  1  0
 16 17  2  0
 17 13  1  0
 18 20  1  0
 18 16  1  0
 19 18  2  0
 20 21  1  0
 22 21  2  0
 23 22  1  0
 24 23  1  0
 24 20  2  0
  1 25  1  0
  5 26  1  0
  7 27  1  6
  8 28  1  0
  9 29  1  0
 10 30  1  0
 10 31  1  0
 11 32  1  0
 11 33  1  0
 12 34  1  0
 12 35  1  0
 21 36  1  0
 22 37  1  0
 23 38  1  0
M  ISO  8  25  14  26  14  27  13  28  13  29  13  30  13  31  13  32  13
M  ISO  6  33  13  34  13  35  13  36  14  37  14  38   9
M  END
>  <minimizedAffinity>  (1) 
-3.76555777

>  <minimizedRMSD>  (1) 
0.341527224

$$$$
