
     RDKit          3D

 26 26  0  0  0  0  0  0  0  0999 V2000
   45.6510   35.1110   42.9050 C   0  0  0  0  0  0  0  0  0  0  0  0
   45.0960   34.5550   45.2640 C   0  0  0  0  0  0  0  0  0  0  0  0
   45.9090   34.2900   44.1290 C   0  0  0  0  0  0  0  0  0  0  0  0
   46.8720   33.2900   44.2590 C   0  0  0  0  0  0  0  0  0  0  0  0
   46.9950   32.6280   45.4220 N   0  0  0  0  0  0  0  0  0  0  0  0
   46.1960   32.9130   46.4850 C   0  0  0  0  0  0  0  0  0  0  0  0
   45.2510   33.8730   46.4040 N   0  0  0  0  0  0  0  0  0  0  0  0
   46.9080   35.1570   42.0810 C   0  0  0  0  0  0  0  0  0  0  0  0
   45.2340   36.4860   43.3100 C   0  0  0  0  0  0  0  0  0  0  0  0
   44.5040   34.4860   42.1530 C   0  0  0  0  0  0  0  0  0  0  0  0
   43.8050   35.4710   41.4810 O   0  0  0  0  0  0  0  0  0  0  0  0
   42.4120   35.4060   41.4260 C   0  0  0  0  0  0  0  0  0  0  0  0
   41.7270   35.1630   40.4060 O   0  0  0  0  0  0  0  0  0  0  0  0
   41.6340   35.6210   42.5710 O   0  0  0  0  0  0  0  0  0  0  0  0
   44.3241   35.3364   45.2038 H   0  0  0  0  0  0  0  0  0  0  0  0
   47.5292   33.0437   43.4120 H   0  0  0  0  0  0  0  0  0  0  0  0
   46.3217   32.3534   47.4236 H   0  0  0  0  0  0  0  0  0  0  0  0
   47.7824   35.1890   42.7476 H   0  0  0  0  0  0  0  0  0  0  0  0
   46.9634   34.2603   41.4463 H   0  0  0  0  0  0  0  0  0  0  0  0
   46.8977   36.0554   41.4463 H   0  0  0  0  0  0  0  0  0  0  0  0
   45.2132   36.5545   44.4077 H   0  0  0  0  0  0  0  0  0  0  0  0
   45.9502   37.2190   42.9104 H   0  0  0  0  0  0  0  0  0  0  0  0
   44.2313   36.6977   42.9104 H   0  0  0  0  0  0  0  0  0  0  0  0
   44.8942   33.7546   41.4300 H   0  0  0  0  0  0  0  0  0  0  0  0
   43.8334   33.9777   42.8615 H   0  0  0  0  0  0  0  0  0  0  0  0
   40.6468   35.5713   42.5152 H   0  0  0  0  0  0  0  0  0  0  0  0
  1  9  1  0
  1  3  1  0
  2  7  2  0
  3  4  2  0
  3  2  1  0
  4  5  1  0
  5  6  2  0
  7  6  1  0
  8  1  1  0
 10  1  1  0
 11 10  1  0
 12 11  1  0
 12 14  1  0
 13 12  2  0
  2 15  1  0
  4 16  1  0
  6 17  1  0
  8 18  1  0
  8 19  1  0
  8 20  1  0
  9 21  1  0
  9 22  1  0
  9 23  1  0
 10 24  1  0
 10 25  1  0
 14 26  1  0
M  ISO  8  15  14  16  14  17  14  18   8  19   8  20   8  21   8  22   8
M  ISO  4  23   8  24   8  25   8  26   3
M  END
>  <minimizedAffinity>  (1) 
-4.30773306

>  <minimizedRMSD>  (1) 
0.630514205

$$$$
