
     RDKit          3D

 38 41  0  0  1  0  0  0  0  0999 V2000
   45.1390   32.7410   47.6200 C   0  0  0  0  0  0  0  0  0  0  0  0
   45.7430   32.4870   46.3720 C   0  0  0  0  0  0  0  0  0  0  0  0
   46.2520   31.1800   46.1490 C   0  0  0  0  0  0  0  0  0  0  0  0
   46.1460   30.2580   47.1000 N   0  0  0  0  0  0  0  0  0  0  0  0
   45.5550   30.5440   48.2910 C   0  0  0  0  0  0  0  0  0  0  0  0
   45.0540   31.7880   48.5420 N   0  0  0  0  0  0  0  0  0  0  0  0
   45.9220   33.6090   45.4350 C   0  0  2  0  0  0  0  0  0  0  0  0
   45.0380   34.7440   45.8290 C   0  0  0  0  0  0  0  0  0  0  0  0
   44.5040   35.6340   44.8070 C   0  0  0  0  0  0  0  0  0  0  0  0
   44.8710   35.4070   43.3840 C   0  0  0  0  0  0  0  0  0  0  0  0
   45.9690   34.4570   43.1960 C   0  0  0  0  0  0  0  0  0  0  0  0
   45.6070   33.1930   44.0110 C   0  0  0  0  0  0  0  0  0  0  0  0
   46.8560   30.5960   44.9950 C   0  0  0  0  0  0  0  0  0  0  0  0
   48.1260   30.7030   44.7300 N   0  0  0  0  0  0  0  0  0  0  0  0
   48.3780   30.0730   43.6160 O   0  0  0  0  0  0  0  0  0  0  0  0
   47.3450   29.5440   43.1090 C   0  0  0  0  0  0  0  0  0  0  0  0
   46.3600   29.8350   43.9260 N   0  0  0  0  0  0  0  0  0  0  0  0
   47.2540   28.7650   41.8680 C   0  0  0  0  0  0  0  0  0  0  0  0
   47.5350   29.2960   40.7520 O   0  0  0  0  0  0  0  0  0  0  0  0
   46.8310   27.3340   41.8970 C   0  0  0  0  0  0  0  0  0  0  0  0
   47.2810   26.4880   40.7760 C   0  0  0  0  0  0  0  0  0  0  0  0
   47.9670   26.3680   42.1000 C   0  0  0  0  0  0  0  0  0  0  0  0
   44.7329   33.7408   47.8333 H   0  0  0  0  0  0  0  0  0  0  0  0
   45.4800   29.7626   49.0616 H   0  0  0  0  0  0  0  0  0  0  0  0
   46.9752   33.9234   45.4791 H   0  0  0  0  0  0  0  0  0  0  0  0
   44.7901   34.9084   46.8880 H   0  0  0  0  0  0  0  0  0  0  0  0
   43.8374   36.4639   45.0845 H   0  0  0  0  0  0  0  0  0  0  0  0
   43.9863   35.0219   42.8559 H   0  0  0  0  0  0  0  0  0  0  0  0
   45.2148   36.3732   42.9862 H   0  0  0  0  0  0  0  0  0  0  0  0
   46.0734   34.2042   42.1306 H   0  0  0  0  0  0  0  0  0  0  0  0
   46.9247   34.8849   43.5328 H   0  0  0  0  0  0  0  0  0  0  0  0
   44.5423   32.9405   43.8984 H   0  0  0  0  0  0  0  0  0  0  0  0
   46.1550   32.2954   43.6884 H   0  0  0  0  0  0  0  0  0  0  0  0
   45.8537   27.5208   42.3660 H   0  0  0  0  0  0  0  0  0  0  0  0
   46.6398   25.6702   40.4154 H   0  0  0  0  0  0  0  0  0  0  0  0
   47.6166   26.6833   39.7468 H   0  0  0  0  0  0  0  0  0  0  0  0
   48.9941   26.7408   42.2266 H   0  0  0  0  0  0  0  0  0  0  0  0
   48.1833   25.5474   42.7999 H   0  0  0  0  0  0  0  0  0  0  0  0
  1  6  2  0
  2  1  1  0
  3  2  2  0
  3  4  1  0
  4  5  2  0
  5  6  1  0
  7  8  1  0
  7  2  1  0
  9  8  2  0
 10  9  1  0
 11 10  1  0
 11 12  1  0
 12  7  1  0
 13  3  1  0
 14 13  2  0
 15 14  1  0
 16 15  1  0
 16 17  2  0
 17 13  1  0
 18 20  1  0
 18 16  1  0
 19 18  2  0
 20 22  1  0
 21 20  1  0
 21 22  1  0
  1 23  1  0
  5 24  1  0
  7 25  1  6
  8 26  1  0
  9 27  1  0
 10 28  1  0
 10 29  1  0
 11 30  1  0
 11 31  1  0
 12 32  1  0
 12 33  1  0
 20 34  1  0
 21 35  1  0
 21 36  1  0
 22 37  1  0
 22 38  1  0
M  ISO  8  23  14  24  14  25  13  26  13  27  13  28  13  29  13  30  13
M  ISO  8  31  13  32  13  33  13  34  13  35  13  36  13  37  13  38  13
M  END
>  <minimizedAffinity>  (1) 
-3.71361709

>  <minimizedRMSD>  (1) 
0.550286412

$$$$
