
     RDKit          3D

 45 49  0  0  1  0  0  0  0  0999 V2000
   45.7530   32.6440   47.1120 C   0  0  0  0  0  0  0  0  0  0  0  0
   46.2840   31.3980   46.6600 C   0  0  0  0  0  0  0  0  0  0  0  0
   46.3850   30.3680   47.6350 C   0  0  0  0  0  0  0  0  0  0  0  0
   46.0060   30.5790   48.8800 N   0  0  0  0  0  0  0  0  0  0  0  0
   45.5060   31.7850   49.2640 C   0  0  0  0  0  0  0  0  0  0  0  0
   45.3850   32.8120   48.3640 N   0  0  0  0  0  0  0  0  0  0  0  0
   46.8030   31.3250   45.2820 C   0  0  2  0  0  0  0  0  0  0  0  0
   47.1500   32.6460   44.7750 C   0  0  0  0  0  0  0  0  0  0  0  0
   46.9490   32.9680   43.3590 C   0  0  0  0  0  0  0  0  0  0  0  0
   46.4320   31.9360   42.4330 C   0  0  0  0  0  0  0  0  0  0  0  0
   46.4950   30.5900   43.0180 C   0  0  0  0  0  0  0  0  0  0  0  0
   45.7000   30.6980   44.3720 C   0  0  0  0  0  0  0  0  0  0  0  0
   46.8120   29.0150   47.4980 C   0  0  0  0  0  0  0  0  0  0  0  0
   48.0350   28.6370   47.5890 N   0  0  0  0  0  0  0  0  0  0  0  0
   48.0980   27.3480   47.4080 O   0  0  0  0  0  0  0  0  0  0  0  0
   46.9440   26.8240   47.1920 C   0  0  0  0  0  0  0  0  0  0  0  0
   46.1050   27.8100   47.2380 N   0  0  0  0  0  0  0  0  0  0  0  0
   46.6750   25.4100   46.9500 C   0  0  0  0  0  0  0  0  0  0  0  0
   47.4230   24.5080   47.4710 O   0  0  0  0  0  0  0  0  0  0  0  0
   45.5120   24.9980   46.0910 C   0  0  1  0  0  0  0  0  0  0  0  0
   45.1020   23.6040   46.1170 C   0  0  0  0  0  0  0  0  0  0  0  0
   44.3280   24.5690   46.9850 C   0  0  2  0  0  0  0  0  0  0  0  0
   42.9670   24.8380   46.5840 C   0  0  0  0  0  0  0  0  0  0  0  0
   42.0830   25.7690   47.0240 C   0  0  0  0  0  0  0  0  0  0  0  0
   40.8330   25.8750   46.5290 C   0  0  0  0  0  0  0  0  0  0  0  0
   40.5080   24.9210   45.4940 C   0  0  0  0  0  0  0  0  0  0  0  0
   42.1160   23.9300   45.3430 S   0  0  0  0  0  0  0  0  0  0  0  0
   45.6499   33.4774   46.4016 H   0  0  0  0  0  0  0  0  0  0  0  0
   45.1955   31.9375   50.3082 H   0  0  0  0  0  0  0  0  0  0  0  0
   47.7142   30.7088   45.2777 H   0  0  0  0  0  0  0  0  0  0  0  0
   47.5639   33.4038   45.4565 H   0  0  0  0  0  0  0  0  0  0  0  0
   47.1823   33.9759   42.9852 H   0  0  0  0  0  0  0  0  0  0  0  0
   47.0337   31.9515   41.5123 H   0  0  0  0  0  0  0  0  0  0  0  0
   45.3770   32.1660   42.2230 H   0  0  0  0  0  0  0  0  0  0  0  0
   46.0225   29.8552   42.3496 H   0  0  0  0  0  0  0  0  0  0  0  0
   47.5310   30.2541   43.1723 H   0  0  0  0  0  0  0  0  0  0  0  0
   44.8235   31.3562   44.2798 H   0  0  0  0  0  0  0  0  0  0  0  0
   45.2782   29.7509   44.7394 H   0  0  0  0  0  0  0  0  0  0  0  0
   45.7087   25.6864   45.2559 H   0  0  0  0  0  0  0  0  0  0  0  0
   44.6195   23.1642   45.2317 H   0  0  0  0  0  0  0  0  0  0  0  0
   45.6296   22.6589   46.3129 H   0  0  0  0  0  0  0  0  0  0  0  0
   44.0780   24.6987   48.0483 H   0  0  0  0  0  0  0  0  0  0  0  0
   42.3985   26.4646   47.8156 H   0  0  0  0  0  0  0  0  0  0  0  0
   40.1164   26.6295   46.8857 H   0  0  0  0  0  0  0  0  0  0  0  0
   39.5676   24.8007   44.9362 H   0  0  0  0  0  0  0  0  0  0  0  0
  1  6  2  0
  2  1  1  0
  2  3  2  0
  3  4  1  0
  4  5  2  0
  6  5  1  0
  7  2  1  0
  8  7  1  0
  9  8  2  0
 10 11  1  0
 10  9  1  0
 11 12  1  0
 12  7  1  0
 13 14  2  0
 13  3  1  0
 15 14  1  0
 16 17  2  0
 16 15  1  0
 17 13  1  0
 18 16  1  0
 18 19  2  0
 20 21  1  0
 20 18  1  0
 20 22  1  0
 21 22  1  0
 23 22  1  0
 23 24  2  0
 25 24  1  0
 26 25  2  0
 27 26  1  0
 27 23  1  0
  1 28  1  0
  5 29  1  0
  7 30  1  1
  8 31  1  0
  9 32  1  0
 10 33  1  0
 10 34  1  0
 11 35  1  0
 11 36  1  0
 12 37  1  0
 12 38  1  0
 20 39  1  6
 21 40  1  0
 21 41  1  0
 22 42  1  1
 24 43  1  0
 25 44  1  0
 26 45  1  0
M  ISO  8  28  14  29  14  30  13  31  13  32  13  33  13  34  13  35  13
M  ISO  8  36  13  37  13  38  13  39  13  40  13  41  13  42  13  43  14
M  ISO  2  44  14  45  14
M  END
>  <minimizedAffinity>  (1) 
-4.61234951

>  <minimizedRMSD>  (1) 
4.77675438

$$$$
