
     RDKit          3D

 46 50  0  0  1  0  0  0  0  0999 V2000
   45.6290   32.6650   47.0400 C   0  0  0  0  0  0  0  0  0  0  0  0
   46.6130   31.7180   46.6230 C   0  0  0  0  0  0  0  0  0  0  0  0
   47.0850   30.8190   47.6200 C   0  0  0  0  0  0  0  0  0  0  0  0
   46.6250   30.8800   48.8530 N   0  0  0  0  0  0  0  0  0  0  0  0
   45.6870   31.8020   49.2060 C   0  0  0  0  0  0  0  0  0  0  0  0
   45.1940   32.6920   48.2850 N   0  0  0  0  0  0  0  0  0  0  0  0
   47.1770   31.8460   45.2610 C   0  0  2  0  0  0  0  0  0  0  0  0
   47.0260   33.1990   44.7520 C   0  0  0  0  0  0  0  0  0  0  0  0
   46.7330   33.4260   43.3300 C   0  0  0  0  0  0  0  0  0  0  0  0
   46.6210   32.2650   42.3990 C   0  0  0  0  0  0  0  0  0  0  0  0
   47.1960   31.0470   42.9910 C   0  0  0  0  0  0  0  0  0  0  0  0
   46.4070   30.8410   44.3360 C   0  0  0  0  0  0  0  0  0  0  0  0
   47.9940   29.7270   47.5130 C   0  0  0  0  0  0  0  0  0  0  0  0
   49.1750   29.7180   48.0120 N   0  0  0  0  0  0  0  0  0  0  0  0
   49.7500   28.5850   47.7320 O   0  0  0  0  0  0  0  0  0  0  0  0
   48.9960   27.8020   47.0470 C   0  0  0  0  0  0  0  0  0  0  0  0
   47.8920   28.4560   46.8800 N   0  0  0  0  0  0  0  0  0  0  0  0
   49.3490   26.4690   46.5750 C   0  0  0  0  0  0  0  0  0  0  0  0
   50.3460   26.2990   45.7890 O   0  0  0  0  0  0  0  0  0  0  0  0
   48.5460   25.2750   47.0160 C   0  0  1  0  0  0  0  0  0  0  0  0
   49.2630   24.0420   47.3130 C   0  0  0  0  0  0  0  0  0  0  0  0
   48.8850   24.9230   48.4800 C   0  0  2  0  0  0  0  0  0  0  0  0
   47.8010   24.5120   49.3790 C   0  0  0  0  0  0  0  0  0  0  0  0
   46.5640   25.1480   49.2570 C   0  0  0  0  0  0  0  0  0  0  0  0
   45.4900   24.8120   50.0730 C   0  0  0  0  0  0  0  0  0  0  0  0
   45.7190   23.8390   50.9820 N   0  0  0  0  0  0  0  0  0  0  0  0
   46.9080   23.2200   51.1050 C   0  0  0  0  0  0  0  0  0  0  0  0
   47.9740   23.5370   50.3130 N   0  0  0  0  0  0  0  0  0  0  0  0
   45.2271   33.3839   46.3109 H   0  0  0  0  0  0  0  0  0  0  0  0
   45.3199   31.8338   50.2424 H   0  0  0  0  0  0  0  0  0  0  0  0
   48.2537   31.6216   45.2827 H   0  0  0  0  0  0  0  0  0  0  0  0
   47.1314   34.0560   45.4335 H   0  0  0  0  0  0  0  0  0  0  0  0
   46.5964   34.4501   42.9524 H   0  0  0  0  0  0  0  0  0  0  0  0
   47.1585   32.4991   41.4682 H   0  0  0  0  0  0  0  0  0  0  0  0
   45.5549   32.0831   42.1979 H   0  0  0  0  0  0  0  0  0  0  0  0
   47.0519   30.1860   42.3218 H   0  0  0  0  0  0  0  0  0  0  0  0
   48.2798   31.1379   43.1558 H   0  0  0  0  0  0  0  0  0  0  0  0
   45.3461   31.1125   44.2325 H   0  0  0  0  0  0  0  0  0  0  0  0
   46.3783   29.8040   44.7018 H   0  0  0  0  0  0  0  0  0  0  0  0
   47.6559   25.4759   46.4017 H   0  0  0  0  0  0  0  0  0  0  0  0
   48.7575   23.0744   47.1776 H   0  0  0  0  0  0  0  0  0  0  0  0
   50.2108   23.6083   46.9615 H   0  0  0  0  0  0  0  0  0  0  0  0
   49.4183   25.4015   49.3147 H   0  0  0  0  0  0  0  0  0  0  0  0
   46.4364   25.9333   48.4974 H   0  0  0  0  0  0  0  0  0  0  0  0
   44.5124   25.3084   49.9840 H   0  0  0  0  0  0  0  0  0  0  0  0
   47.0243   22.4350   51.8667 H   0  0  0  0  0  0  0  0  0  0  0  0
  1  6  2  0
  2  1  1  0
  2  3  2  0
  3  4  1  0
  4  5  2  0
  6  5  1  0
  7  2  1  0
  8  7  1  0
  9  8  2  0
 10 11  1  0
 10  9  1  0
 11 12  1  0
 12  7  1  0
 13  3  1  0
 13 14  2  0
 15 14  1  0
 16 15  1  0
 17 16  2  0
 17 13  1  0
 18 20  1  0
 18 16  1  0
 19 18  2  0
 20 21  1  0
 20 22  1  0
 21 22  1  0
 22 23  1  0
 23 28  1  0
 24 23  2  0
 24 25  1  0
 25 26  2  0
 26 27  1  0
 28 27  2  0
  1 29  1  0
  5 30  1  0
  7 31  1  1
  8 32  1  0
  9 33  1  0
 10 34  1  0
 10 35  1  0
 11 36  1  0
 11 37  1  0
 12 38  1  0
 12 39  1  0
 20 40  1  1
 21 41  1  0
 21 42  1  0
 22 43  1  1
 24 44  1  0
 25 45  1  0
 27 46  1  0
M  ISO  8  29  14  30  14  31  13  32  13  33  13  34  13  35  13  36  13
M  ISO  8  37  13  38  13  39  13  40  13  41  13  42  13  43  13  44  14
M  ISO  2  45  14  46  14
M  END
>  <minimizedAffinity>  (1) 
-4.47248554

>  <minimizedRMSD>  (1) 
4.66712141

$$$$
