
     RDKit          3D

 45 49  0  0  1  0  0  0  0  0999 V2000
   45.4510   32.4370   47.3140 C   0  0  0  0  0  0  0  0  0  0  0  0
   46.5190   31.5630   46.9450 C   0  0  0  0  0  0  0  0  0  0  0  0
   46.9340   30.6240   47.9280 C   0  0  0  0  0  0  0  0  0  0  0  0
   46.3490   30.5840   49.1080 N   0  0  0  0  0  0  0  0  0  0  0  0
   45.3360   31.4380   49.4160 C   0  0  0  0  0  0  0  0  0  0  0  0
   44.8940   32.3630   48.5040 N   0  0  0  0  0  0  0  0  0  0  0  0
   47.1960   31.8020   45.6540 C   0  0  2  0  0  0  0  0  0  0  0  0
   46.9080   33.1290   45.1430 C   0  0  0  0  0  0  0  0  0  0  0  0
   46.7730   33.3580   43.6990 C   0  0  0  0  0  0  0  0  0  0  0  0
   46.9530   32.2150   42.7560 C   0  0  0  0  0  0  0  0  0  0  0  0
   47.5930   31.0680   43.3970 C   0  0  0  0  0  0  0  0  0  0  0  0
   46.6890   30.7240   44.6390 C   0  0  0  0  0  0  0  0  0  0  0  0
   47.9100   29.5880   47.8510 C   0  0  0  0  0  0  0  0  0  0  0  0
   49.1400   29.7310   48.1810 N   0  0  0  0  0  0  0  0  0  0  0  0
   49.7670   28.6070   47.9870 O   0  0  0  0  0  0  0  0  0  0  0  0
   49.0000   27.6840   47.5280 C   0  0  0  0  0  0  0  0  0  0  0  0
   47.8320   28.2350   47.4230 N   0  0  0  0  0  0  0  0  0  0  0  0
   49.4010   26.3200   47.2070 C   0  0  0  0  0  0  0  0  0  0  0  0
   50.5510   26.0820   46.6960 O   0  0  0  0  0  0  0  0  0  0  0  0
   48.4660   25.1740   47.4830 C   0  0  1  0  0  0  0  0  0  0  0  0
   49.0230   23.8390   47.5970 C   0  0  0  0  0  0  0  0  0  0  0  0
   48.7500   24.5890   48.8790 C   0  0  2  0  0  0  0  0  0  0  0  0
   47.5860   24.2750   49.6500 N   0  0  0  0  0  0  0  0  0  0  0  0
   46.4500   24.9810   49.5700 N   0  0  0  0  0  0  0  0  0  0  0  0
   45.5110   24.5040   50.3740 C   0  0  0  0  0  0  0  0  0  0  0  0
   46.0840   23.4230   51.0110 C   0  0  0  0  0  0  0  0  0  0  0  0
   47.3810   23.2920   50.5480 C   0  0  0  0  0  0  0  0  0  0  0  0
   45.0885   33.1836   46.5921 H   0  0  0  0  0  0  0  0  0  0  0  0
   44.8652   31.3864   50.4088 H   0  0  0  0  0  0  0  0  0  0  0  0
   48.2846   31.7309   45.7947 H   0  0  0  0  0  0  0  0  0  0  0  0
   46.7899   33.9697   45.8425 H   0  0  0  0  0  0  0  0  0  0  0  0
   46.5413   34.3627   43.3156 H   0  0  0  0  0  0  0  0  0  0  0  0
   47.5788   32.5453   41.9138 H   0  0  0  0  0  0  0  0  0  0  0  0
   45.9567   31.8988   42.4134 H   0  0  0  0  0  0  0  0  0  0  0  0
   47.6360   30.2146   42.7043 H   0  0  0  0  0  0  0  0  0  0  0  0
   48.6283   31.2909   43.6942 H   0  0  0  0  0  0  0  0  0  0  0  0
   45.6198   30.8483   44.4122 H   0  0  0  0  0  0  0  0  0  0  0  0
   46.7641   29.6849   44.9920 H   0  0  0  0  0  0  0  0  0  0  0  0
   47.6119   25.5604   46.9075 H   0  0  0  0  0  0  0  0  0  0  0  0
   48.4036   22.9685   47.3353 H   0  0  0  0  0  0  0  0  0  0  0  0
   49.9122   23.3460   47.1772 H   0  0  0  0  0  0  0  0  0  0  0  0
   49.3477   24.8350   49.7691 H   0  0  0  0  0  0  0  0  0  0  0  0
   44.4891   24.8892   50.5058 H   0  0  0  0  0  0  0  0  0  0  0  0
   45.5954   22.7782   51.7563 H   0  0  0  0  0  0  0  0  0  0  0  0
   48.1094   22.5274   50.8558 H   0  0  0  0  0  0  0  0  0  0  0  0
  1  6  2  0
  2  1  1  0
  2  3  2  0
  3  4  1  0
  4  5  2  0
  6  5  1  0
  7  2  1  0
  8  7  1  0
  9  8  2  0
 10 11  1  0
 10  9  1  0
 11 12  1  0
 12  7  1  0
 13  3  1  0
 13 14  2  0
 15 14  1  0
 16 15  1  0
 17 16  2  0
 17 13  1  0
 18 20  1  0
 18 16  1  0
 19 18  2  0
 20 21  1  0
 20 22  1  0
 21 22  1  0
 22 23  1  0
 23 27  1  0
 24 23  1  0
 24 25  2  0
 25 26  1  0
 27 26  2  0
  1 28  1  0
  5 29  1  0
  7 30  1  1
  8 31  1  0
  9 32  1  0
 10 33  1  0
 10 34  1  0
 11 35  1  0
 11 36  1  0
 12 37  1  0
 12 38  1  0
 20 39  1  1
 21 40  1  0
 21 41  1  0
 22 42  1  1
 25 43  1  0
 26 44  1  0
 27 45  1  0
M  ISO  8  28  14  29  14  30  13  31  13  32  13  33  13  34  13  35  13
M  ISO  8  36  13  37  13  38  13  39  13  40  13  41  13  42  13  43  14
M  ISO  2  44  14  45  14
M  END
>  <minimizedAffinity>  (1) 
-4.42055607

>  <minimizedRMSD>  (1) 
4.80319023

$$$$
