
     RDKit          3D

 40 43  0  0  1  0  0  0  0  0999 V2000
   45.1390   32.7430   47.5720 C   0  0  0  0  0  0  0  0  0  0  0  0
   45.7500   32.4930   46.3120 C   0  0  0  0  0  0  0  0  0  0  0  0
   46.3000   31.1950   46.1240 C   0  0  0  0  0  0  0  0  0  0  0  0
   46.2410   30.2890   47.0770 N   0  0  0  0  0  0  0  0  0  0  0  0
   45.6460   30.5750   48.2790 C   0  0  0  0  0  0  0  0  0  0  0  0
   45.0970   31.8070   48.5130 N   0  0  0  0  0  0  0  0  0  0  0  0
   45.9100   33.6270   45.3840 C   0  0  2  0  0  0  0  0  0  0  0  0
   45.0930   34.7610   45.7780 C   0  0  0  0  0  0  0  0  0  0  0  0
   44.4770   35.6060   44.7570 C   0  0  0  0  0  0  0  0  0  0  0  0
   44.7200   35.3470   43.3230 C   0  0  0  0  0  0  0  0  0  0  0  0
   45.8500   34.4290   43.1180 C   0  0  0  0  0  0  0  0  0  0  0  0
   45.4990   33.1460   43.9570 C   0  0  0  0  0  0  0  0  0  0  0  0
   46.8980   30.6120   44.9650 C   0  0  0  0  0  0  0  0  0  0  0  0
   48.1340   30.7360   44.6500 N   0  0  0  0  0  0  0  0  0  0  0  0
   48.3590   30.0950   43.5370 O   0  0  0  0  0  0  0  0  0  0  0  0
   47.3040   29.5270   43.0730 C   0  0  0  0  0  0  0  0  0  0  0  0
   46.3640   29.8110   43.9170 N   0  0  0  0  0  0  0  0  0  0  0  0
   47.2230   28.7380   41.8480 C   0  0  0  0  0  0  0  0  0  0  0  0
   47.5660   29.2480   40.7230 O   0  0  0  0  0  0  0  0  0  0  0  0
   46.7410   27.3110   41.9010 C   0  0  1  0  0  0  0  0  0  0  0  0
   47.1850   26.4080   40.8440 C   0  0  0  0  0  0  0  0  0  0  0  0
   47.9270   26.3630   42.1580 C   0  0  2  0  0  0  0  0  0  0  0  0
   47.6960   25.1740   42.9450 N   0  0  0  0  0  0  0  0  0  0  0  0
   44.6935   33.7290   47.7703 H   0  0  0  0  0  0  0  0  0  0  0  0
   45.6095   29.8055   49.0642 H   0  0  0  0  0  0  0  0  0  0  0  0
   46.9584   33.9597   45.3989 H   0  0  0  0  0  0  0  0  0  0  0  0
   44.9379   34.9838   46.8440 H   0  0  0  0  0  0  0  0  0  0  0  0
   43.8276   36.4411   45.0585 H   0  0  0  0  0  0  0  0  0  0  0  0
   43.8153   34.9019   42.8832 H   0  0  0  0  0  0  0  0  0  0  0  0
   44.9648   36.3041   42.8393 H   0  0  0  0  0  0  0  0  0  0  0  0
   45.9529   34.1764   42.0524 H   0  0  0  0  0  0  0  0  0  0  0  0
   46.8044   34.8764   43.4324 H   0  0  0  0  0  0  0  0  0  0  0  0
   44.4274   32.9038   43.9018 H   0  0  0  0  0  0  0  0  0  0  0  0
   45.9962   32.2245   43.6201 H   0  0  0  0  0  0  0  0  0  0  0  0
   45.7464   27.5161   42.3237 H   0  0  0  0  0  0  0  0  0  0  0  0
   46.5481   25.5605   40.5507 H   0  0  0  0  0  0  0  0  0  0  0  0
   47.4936   26.5510   39.7979 H   0  0  0  0  0  0  0  0  0  0  0  0
   48.9592   26.4920   42.5156 H   0  0  0  0  0  0  0  0  0  0  0  0
   47.7420   25.4108   43.9464 H   0  0  0  0  0  0  0  0  0  0  0  0
   46.7651   24.7921   42.7249 H   0  0  0  0  0  0  0  0  0  0  0  0
  1  6  2  0
  2  1  1  0
  3  2  2  0
  3  4  1  0
  4  5  2  0
  5  6  1  0
  7  8  1  0
  7  2  1  0
  9  8  2  0
 10  9  1  0
 11 10  1  0
 11 12  1  0
 12  7  1  0
 13  3  1  0
 14 13  2  0
 15 14  1  0
 16 15  1  0
 16 17  2  0
 17 13  1  0
 18 20  1  0
 18 16  1  0
 19 18  2  0
 20 22  1  0
 21 20  1  0
 21 22  1  0
 22 23  1  0
  1 24  1  0
  5 25  1  0
  7 26  1  6
  8 27  1  0
  9 28  1  0
 10 29  1  0
 10 30  1  0
 11 31  1  0
 11 32  1  0
 12 33  1  0
 12 34  1  0
 20 35  1  1
 21 36  1  0
 21 37  1  0
 22 38  1  6
 23 39  1  0
 23 40  1  0
M  ISO  8  24  14  25  14  26  13  27  13  28  13  29  13  30  13  31  13
M  ISO  8  32  13  33  13  34  13  35  13  36  13  37  13  38  13  39   5
M  ISO  1  40   5
M  END
>  <minimizedAffinity>  (1) 
-3.602

>  <minimizedRMSD>  (1) 
0.090079993

$$$$
