
     RDKit          3D

 43 47  0  0  1  0  0  0  0  0999 V2000
   45.7370   33.0030   46.3890 C   0  0  0  0  0  0  0  0  0  0  0  0
   46.3090   32.9640   45.0820 C   0  0  0  0  0  0  0  0  0  0  0  0
   47.2090   31.8950   44.8170 C   0  0  0  0  0  0  0  0  0  0  0  0
   47.4840   31.0020   45.7460 N   0  0  0  0  0  0  0  0  0  0  0  0
   46.9140   31.0790   46.9820 C   0  0  0  0  0  0  0  0  0  0  0  0
   46.0380   32.0900   47.2910 N   0  0  0  0  0  0  0  0  0  0  0  0
   46.0550   34.1050   44.1750 C   0  0  2  0  0  0  0  0  0  0  0  0
   45.2100   35.1040   44.8120 C   0  0  0  0  0  0  0  0  0  0  0  0
   44.2210   35.8430   44.0210 C   0  0  0  0  0  0  0  0  0  0  0  0
   44.1070   35.6070   42.5650 C   0  0  0  0  0  0  0  0  0  0  0  0
   45.2590   34.8640   42.0380 C   0  0  0  0  0  0  0  0  0  0  0  0
   45.3310   33.5490   42.9010 C   0  0  0  0  0  0  0  0  0  0  0  0
   47.8830   31.5400   43.6120 C   0  0  0  0  0  0  0  0  0  0  0  0
   48.7860   32.2590   43.0560 N   0  0  0  0  0  0  0  0  0  0  0  0
   49.1980   31.6680   41.9710 O   0  0  0  0  0  0  0  0  0  0  0  0
   48.5980   30.5510   41.7610 C   0  0  0  0  0  0  0  0  0  0  0  0
   47.7700   30.4170   42.7470 N   0  0  0  0  0  0  0  0  0  0  0  0
   48.8280   29.6530   40.6360 C   0  0  0  0  0  0  0  0  0  0  0  0
   49.0880   30.1240   39.4710 O   0  0  0  0  0  0  0  0  0  0  0  0
   48.7730   28.1630   40.8270 C   0  0  1  0  0  0  0  0  0  0  0  0
   49.5420   27.3210   39.9270 C   0  0  0  0  0  0  0  0  0  0  0  0
   50.1520   27.6340   41.2740 C   0  0  1  0  0  0  0  0  0  0  0  0
   51.2790   28.5630   41.3520 C   0  0  0  0  0  0  0  0  0  0  0  0
   51.7340   29.2610   42.3830 N   0  0  0  0  0  0  0  0  0  0  0  0
   52.7580   29.9680   42.0310 O   0  0  0  0  0  0  0  0  0  0  0  0
   52.9980   29.7540   40.7740 C   0  0  0  0  0  0  0  0  0  0  0  0
   52.1030   28.8890   40.3170 N   0  0  0  0  0  0  0  0  0  0  0  0
   45.0335   33.8080   46.6479 H   0  0  0  0  0  0  0  0  0  0  0  0
   47.1590   30.3217   47.7412 H   0  0  0  0  0  0  0  0  0  0  0  0
   47.0091   34.5864   43.9144 H   0  0  0  0  0  0  0  0  0  0  0  0
   45.3134   35.3050   45.8885 H   0  0  0  0  0  0  0  0  0  0  0  0
   43.5622   36.5747   44.5114 H   0  0  0  0  0  0  0  0  0  0  0  0
   43.1916   35.0293   42.3691 H   0  0  0  0  0  0  0  0  0  0  0  0
   44.0741   36.5852   42.0630 H   0  0  0  0  0  0  0  0  0  0  0  0
   45.1081   34.6207   40.9759 H   0  0  0  0  0  0  0  0  0  0  0  0
   46.1889   35.4484   42.1002 H   0  0  0  0  0  0  0  0  0  0  0  0
   44.3298   33.1592   43.1369 H   0  0  0  0  0  0  0  0  0  0  0  0
   45.8330   32.6999   42.4140 H   0  0  0  0  0  0  0  0  0  0  0  0
   47.7243   28.1136   41.1553 H   0  0  0  0  0  0  0  0  0  0  0  0
   49.1964   26.2990   39.7124 H   0  0  0  0  0  0  0  0  0  0  0  0
   49.8890   27.4333   38.8892 H   0  0  0  0  0  0  0  0  0  0  0  0
   50.5478   27.0547   42.1213 H   0  0  0  0  0  0  0  0  0  0  0  0
   53.8072   30.2126   40.1867 H   0  0  0  0  0  0  0  0  0  0  0  0
  1  6  2  0
  2  1  1  0
  3  2  2  0
  3  4  1  0
  4  5  2  0
  5  6  1  0
  7  8  1  0
  7  2  1  0
  9  8  2  0
 10  9  1  0
 11 10  1  0
 11 12  1  0
 12  7  1  0
 13  3  1  0
 14 13  2  0
 15 14  1  0
 16 15  1  0
 16 17  2  0
 17 13  1  0
 18 20  1  0
 18 16  1  0
 19 18  2  0
 20 22  1  0
 21 20  1  0
 21 22  1  0
 22 23  1  0
 23 24  2  0
 25 24  1  0
 26 25  1  0
 27 26  2  0
 27 23  1  0
  1 28  1  0
  5 29  1  0
  7 30  1  6
  8 31  1  0
  9 32  1  0
 10 33  1  0
 10 34  1  0
 11 35  1  0
 11 36  1  0
 12 37  1  0
 12 38  1  0
 20 39  1  1
 21 40  1  0
 21 41  1  0
 22 42  1  1
 26 43  1  0
M  ISO  8  28  14  29  14  30  13  31  13  32  13  33  13  34  13  35  13
M  ISO  8  36  13  37  13  38  13  39  13  40  13  41  13  42  13  43  14
M  END
>  <minimizedAffinity>  (1) 
-3.7434504

>  <minimizedRMSD>  (1) 
2.11038089

$$$$
