
     RDKit          3D

 41 44  0  0  1  0  0  0  0  0999 V2000
   45.1820   32.7700   47.6750 C   0  0  0  0  0  0  0  0  0  0  0  0
   45.7520   32.4460   46.4070 C   0  0  0  0  0  0  0  0  0  0  0  0
   46.2510   31.1200   46.2640 C   0  0  0  0  0  0  0  0  0  0  0  0
   46.1800   30.2630   47.2640 N   0  0  0  0  0  0  0  0  0  0  0  0
   45.6270   30.6200   48.4540 C   0  0  0  0  0  0  0  0  0  0  0  0
   45.1290   31.8840   48.6460 N   0  0  0  0  0  0  0  0  0  0  0  0
   45.9050   33.5270   45.4160 C   0  0  2  0  0  0  0  0  0  0  0  0
   45.1340   34.7010   45.7970 C   0  0  0  0  0  0  0  0  0  0  0  0
   44.5010   35.5360   44.7700 C   0  0  0  0  0  0  0  0  0  0  0  0
   44.6760   35.1970   43.3360 C   0  0  0  0  0  0  0  0  0  0  0  0
   45.7650   34.2320   43.1270 C   0  0  0  0  0  0  0  0  0  0  0  0
   45.3960   33.0010   44.0360 C   0  0  0  0  0  0  0  0  0  0  0  0
   46.8170   30.4710   45.1290 C   0  0  0  0  0  0  0  0  0  0  0  0
   48.0320   30.6210   44.7470 N   0  0  0  0  0  0  0  0  0  0  0  0
   48.2360   29.9070   43.6780 O   0  0  0  0  0  0  0  0  0  0  0  0
   47.1860   29.2630   43.3070 C   0  0  0  0  0  0  0  0  0  0  0  0
   46.2720   29.5720   44.1720 N   0  0  0  0  0  0  0  0  0  0  0  0
   47.0870   28.3800   42.1510 C   0  0  0  0  0  0  0  0  0  0  0  0
   48.1440   27.9210   41.5900 O   0  0  0  0  0  0  0  0  0  0  0  0
   45.7380   27.9930   41.6100 C   0  0  1  0  0  0  0  0  0  0  0  0
   45.6260   26.7390   40.8800 C   0  0  0  0  0  0  0  0  0  0  0  0
   45.2210   26.7320   42.3350 C   0  0  2  0  0  0  0  0  0  0  0  0
   43.8020   26.6480   42.6790 C   0  0  0  0  0  0  0  0  0  0  0  0
   42.9640   26.0830   41.9480 O   0  0  0  0  0  0  0  0  0  0  0  0
   43.3910   27.2310   43.8770 O   0  0  0  0  0  0  0  0  0  0  0  0
   44.7794   33.7797   47.8434 H   0  0  0  0  0  0  0  0  0  0  0  0
   45.5784   29.8866   49.2724 H   0  0  0  0  0  0  0  0  0  0  0  0
   46.9645   33.8176   45.3603 H   0  0  0  0  0  0  0  0  0  0  0  0
   45.0253   34.9635   46.8597 H   0  0  0  0  0  0  0  0  0  0  0  0
   43.8994   36.4094   45.0618 H   0  0  0  0  0  0  0  0  0  0  0  0
   43.7391   34.7628   42.9569 H   0  0  0  0  0  0  0  0  0  0  0  0
   44.9330   36.1211   42.7974 H   0  0  0  0  0  0  0  0  0  0  0  0
   45.8176   33.9308   42.0704 H   0  0  0  0  0  0  0  0  0  0  0  0
   46.7477   34.6552   43.3823 H   0  0  0  0  0  0  0  0  0  0  0  0
   44.3128   32.8097   44.0455 H   0  0  0  0  0  0  0  0  0  0  0  0
   45.8273   32.0409   43.7164 H   0  0  0  0  0  0  0  0  0  0  0  0
   45.3909   29.0101   41.3755 H   0  0  0  0  0  0  0  0  0  0  0  0
   44.8558   26.6312   40.1021 H   0  0  0  0  0  0  0  0  0  0  0  0
   46.3291   26.1403   40.2823 H   0  0  0  0  0  0  0  0  0  0  0  0
   45.4962   26.1593   43.2329 H   0  0  0  0  0  0  0  0  0  0  0  0
   42.4384   27.1946   44.1440 H   0  0  0  0  0  0  0  0  0  0  0  0
  1  6  2  0
  2  1  1  0
  3  2  2  0
  3  4  1  0
  4  5  2  0
  5  6  1  0
  7  8  1  0
  7  2  1  0
  9  8  2  0
 10  9  1  0
 11 10  1  0
 11 12  1  0
 12  7  1  0
 13  3  1  0
 14 13  2  0
 15 14  1  0
 16 15  1  0
 16 17  2  0
 17 13  1  0
 18 16  1  0
 19 18  2  0
 20 18  1  0
 20 22  1  0
 21 20  1  0
 21 22  1  0
 22 23  1  0
 23 25  1  0
 24 23  2  0
  1 26  1  0
  5 27  1  0
  7 28  1  6
  8 29  1  0
  9 30  1  0
 10 31  1  0
 10 32  1  0
 11 33  1  0
 11 34  1  0
 12 35  1  0
 12 36  1  0
 20 37  1  6
 21 38  1  0
 21 39  1  0
 22 40  1  1
 25 41  1  0
M  ISO  8  26  14  27  14  28  13  29  13  30  13  31  13  32  13  33  13
M  ISO  8  34  13  35  13  36  13  37  13  38  13  39  13  40  13  41   3
M  END
>  <minimizedAffinity>  (1) 
-3.55310535

>  <minimizedRMSD>  (1) 
1.91857624

$$$$
