
     RDKit          3D

 25 25  0  0  0  0  0  0  0  0999 V2000
   45.6370   35.0850   42.9210 C   0  0  0  0  0  0  0  0  0  0  0  0
   45.0990   34.5450   45.2720 C   0  0  0  0  0  0  0  0  0  0  0  0
   45.8980   34.2800   44.1440 C   0  0  0  0  0  0  0  0  0  0  0  0
   46.8750   33.2790   44.2580 C   0  0  0  0  0  0  0  0  0  0  0  0
   46.9960   32.6310   45.4350 N   0  0  0  0  0  0  0  0  0  0  0  0
   46.2170   32.9040   46.5010 C   0  0  0  0  0  0  0  0  0  0  0  0
   45.2650   33.8690   46.4120 N   0  0  0  0  0  0  0  0  0  0  0  0
   46.8890   35.1540   42.0930 C   0  0  0  0  0  0  0  0  0  0  0  0
   45.1990   36.4640   43.3250 C   0  0  0  0  0  0  0  0  0  0  0  0
   44.5050   34.4660   42.1470 C   0  0  0  0  0  0  0  0  0  0  0  0
   43.4020   35.2750   42.2080 O   0  0  0  0  0  0  0  0  0  0  0  0
   42.3370   35.3190   41.3040 C   0  0  0  0  0  0  0  0  0  0  0  0
   43.0370   35.3020   40.2350 O   0  0  0  0  0  0  0  0  0  0  0  0
   44.3236   35.3231   45.2137 H   0  0  0  0  0  0  0  0  0  0  0  0
   47.5266   33.0287   43.4078 H   0  0  0  0  0  0  0  0  0  0  0  0
   46.3519   32.3470   47.4399 H   0  0  0  0  0  0  0  0  0  0  0  0
   47.7651   35.2023   42.7564 H   0  0  0  0  0  0  0  0  0  0  0  0
   46.9586   34.2583   41.4582 H   0  0  0  0  0  0  0  0  0  0  0  0
   46.8598   36.0519   41.4582 H   0  0  0  0  0  0  0  0  0  0  0  0
   45.1765   36.5348   44.4225 H   0  0  0  0  0  0  0  0  0  0  0  0
   45.9059   37.2054   42.9242 H   0  0  0  0  0  0  0  0  0  0  0  0
   44.1939   36.6616   42.9242 H   0  0  0  0  0  0  0  0  0  0  0  0
   44.2616   33.4841   42.5791 H   0  0  0  0  0  0  0  0  0  0  0  0
   44.8079   34.3450   41.0965 H   0  0  0  0  0  0  0  0  0  0  0  0
   41.2490   35.3562   41.4616 H   0  0  0  0  0  0  0  0  0  0  0  0
  1  9  1  0
  1  3  1  0
  2  7  2  0
  3  4  2  0
  3  2  1  0
  4  5  1  0
  5  6  2  0
  7  6  1  0
  8  1  1  0
 10 11  1  0
 10  1  1  0
 12 11  1  0
 13 12  2  0
  2 14  1  0
  4 15  1  0
  6 16  1  0
  8 17  1  0
  8 18  1  0
  8 19  1  0
  9 20  1  0
  9 21  1  0
  9 22  1  0
 10 23  1  0
 10 24  1  0
 12 25  1  0
M  ISO  8  14  14  15  14  16  14  17   8  18   8  19   8  20   8  21   8
M  ISO  4  22   8  23   8  24   8  25   6
M  END
>  <minimizedAffinity>  (1) 
-3.71238899

>  <minimizedRMSD>  (1) 
0.56101203

$$$$
