
     RDKit          3D

 39 42  0  0  1  0  0  0  0  0999 V2000
   47.4000   34.0430   42.2940 C   0  0  1  0  0  0  0  0  0  0  0  0
   48.3120   35.1330   41.7700 C   0  0  0  0  0  0  0  0  0  0  0  0
   49.6730   35.1830   42.3470 C   0  0  0  0  0  0  0  0  0  0  0  0
   50.3150   33.8360   42.4870 C   0  0  0  0  0  0  0  0  0  0  0  0
   49.3920   32.6880   42.2030 C   0  0  0  0  0  0  0  0  0  0  0  0
   48.1130   32.9530   42.9880 C   0  0  2  0  0  0  0  0  0  0  0  0
   45.2340   34.5910   45.2550 C   0  0  0  0  0  0  0  0  0  0  0  0
   44.5010   35.7530   44.8930 C   0  0  0  0  0  0  0  0  0  0  0  0
   44.7770   36.3240   43.6310 C   0  0  0  0  0  0  0  0  0  0  0  0
   45.7150   35.7420   42.8400 N   0  0  0  0  0  0  0  0  0  0  0  0
   46.3880   34.6410   43.2190 C   0  0  0  0  0  0  0  0  0  0  0  0
   46.1440   34.0670   44.4290 N   0  0  0  0  0  0  0  0  0  0  0  0
   47.3280   31.7780   43.1670 N   0  0  0  0  0  0  0  0  0  0  0  0
   46.6670   31.1980   42.1510 C   0  0  0  0  0  0  0  0  0  0  0  0
   45.9980   30.0940   42.5920 N   0  0  0  0  0  0  0  0  0  0  0  0
   46.2530   29.9990   43.8930 C   0  0  0  0  0  0  0  0  0  0  0  0
   45.8950   29.1350   44.9090 C   0  0  0  0  0  0  0  0  0  0  0  0
   46.3290   29.2980   46.1930 N   0  0  0  0  0  0  0  0  0  0  0  0
   47.1440   30.3430   46.5040 C   0  0  0  0  0  0  0  0  0  0  0  0
   47.5040   31.1930   45.5390 N   0  0  0  0  0  0  0  0  0  0  0  0
   47.0780   31.0340   44.2730 C   0  0  0  0  0  0  0  0  0  0  0  0
   45.0480   28.0290   44.6390 N   0  0  0  0  0  0  0  0  0  0  0  0
   46.9163   33.5922   41.4149 H   0  0  0  0  0  0  0  0  0  0  0  0
   48.4136   34.9915   40.6839 H   0  0  0  0  0  0  0  0  0  0  0  0
   47.8348   36.0800   42.0623 H   0  0  0  0  0  0  0  0  0  0  0  0
   50.3049   35.8033   41.6943 H   0  0  0  0  0  0  0  0  0  0  0  0
   49.5790   35.6024   43.3595 H   0  0  0  0  0  0  0  0  0  0  0  0
   51.1609   33.7814   41.7860 H   0  0  0  0  0  0  0  0  0  0  0  0
   50.6284   33.7403   43.5370 H   0  0  0  0  0  0  0  0  0  0  0  0
   49.1724   32.6349   41.1264 H   0  0  0  0  0  0  0  0  0  0  0  0
   49.8471   31.7309   42.4976 H   0  0  0  0  0  0  0  0  0  0  0  0
   48.3463   33.2645   44.0169 H   0  0  0  0  0  0  0  0  0  0  0  0
   45.0495   34.1158   46.2297 H   0  0  0  0  0  0  0  0  0  0  0  0
   43.7498   36.1898   45.5675 H   0  0  0  0  0  0  0  0  0  0  0  0
   44.2416   37.2242   43.2948 H   0  0  0  0  0  0  0  0  0  0  0  0
   46.6656   31.5613   41.1127 H   0  0  0  0  0  0  0  0  0  0  0  0
   47.5007   30.4852   47.5348 H   0  0  0  0  0  0  0  0  0  0  0  0
   44.7825   27.3861   45.3987 H   0  0  0  0  0  0  0  0  0  0  0  0
   44.6987   27.8691   43.6833 H   0  0  0  0  0  0  0  0  0  0  0  0
  1  6  1  0
  1 11  1  0
  2  1  1  0
  2  3  1  0
  3  4  1  0
  5  4  1  0
  5  6  1  0
  6 13  1  0
  8  7  2  0
  9  8  1  0
 10 11  1  0
 10  9  2  0
 11 12  2  0
 12  7  1  0
 13 21  1  0
 14 15  2  0
 14 13  1  0
 15 16  1  0
 16 21  2  0
 16 17  1  0
 17 18  2  0
 18 19  1  0
 20 19  2  0
 21 20  1  0
 22 17  1  0
  1 23  1  6
  2 24  1  0
  2 25  1  0
  3 26  1  0
  3 27  1  0
  4 28  1  0
  4 29  1  0
  5 30  1  0
  5 31  1  0
  6 32  1  1
  7 33  1  0
  8 34  1  0
  9 35  1  0
 14 36  1  0
 19 37  1  0
 22 38  1  0
 22 39  1  0
M  ISO  8  23  13  24  13  25  13  26  13  27  13  28  13  29  13  30  13
M  ISO  7  31  13  32  13  33  14  34  14  35  14  36  14  37  14
M  END
>  <minimizedAffinity>  (1) 
-5.31595182

>  <minimizedRMSD>  (1) 
0.571381986

$$$$
