
     RDKit          3D

 26 26  0  0  0  0  0  0  0  0999 V2000
   45.6340   35.1040   42.9260 C   0  0  0  0  0  0  0  0  0  0  0  0
   45.1040   34.5440   45.2700 C   0  0  0  0  0  0  0  0  0  0  0  0
   45.8970   34.2910   44.1360 C   0  0  0  0  0  0  0  0  0  0  0  0
   46.8650   33.2920   44.2620 C   0  0  0  0  0  0  0  0  0  0  0  0
   46.9900   32.6300   45.4370 N   0  0  0  0  0  0  0  0  0  0  0  0
   46.2050   32.9080   46.4990 C   0  0  0  0  0  0  0  0  0  0  0  0
   45.2540   33.8740   46.4120 N   0  0  0  0  0  0  0  0  0  0  0  0
   46.8820   35.1600   42.0850 C   0  0  0  0  0  0  0  0  0  0  0  0
   45.2200   36.4840   43.3330 C   0  0  0  0  0  0  0  0  0  0  0  0
   44.4800   34.4840   42.1580 C   0  0  0  0  0  0  0  0  0  0  0  0
   43.4030   35.3230   42.2190 O   0  0  0  0  0  0  0  0  0  0  0  0
   42.3620   35.0400   41.3690 C   0  0  0  0  0  0  0  0  0  0  0  0
   44.3309   35.3244   45.2118 H   0  0  0  0  0  0  0  0  0  0  0  0
   47.5205   33.0449   43.4139 H   0  0  0  0  0  0  0  0  0  0  0  0
   46.3357   32.3505   47.4382 H   0  0  0  0  0  0  0  0  0  0  0  0
   47.7644   35.1996   42.7405 H   0  0  0  0  0  0  0  0  0  0  0  0
   46.9368   34.2634   41.4501 H   0  0  0  0  0  0  0  0  0  0  0  0
   46.8563   36.0579   41.4501 H   0  0  0  0  0  0  0  0  0  0  0  0
   45.1996   36.5519   44.4307 H   0  0  0  0  0  0  0  0  0  0  0  0
   45.9384   37.2151   42.9337 H   0  0  0  0  0  0  0  0  0  0  0  0
   44.2178   36.6989   42.9337 H   0  0  0  0  0  0  0  0  0  0  0  0
   44.2178   33.5141   42.6059 H   0  0  0  0  0  0  0  0  0  0  0  0
   44.7721   34.3300   41.1087 H   0  0  0  0  0  0  0  0  0  0  0  0
   41.4647   34.7961   41.9567 H   0  0  0  0  0  0  0  0  0  0  0  0
   42.1582   35.9153   40.7348 H   0  0  0  0  0  0  0  0  0  0  0  0
   42.6294   34.1819   40.7348 H   0  0  0  0  0  0  0  0  0  0  0  0
  1  9  1  0
  1  3  1  0
  2  7  2  0
  3  4  2  0
  3  2  1  0
  4  5  1  0
  5  6  2  0
  7  6  1  0
  8  1  1  0
 10 11  1  0
 10  1  1  0
 12 11  1  0
  2 13  1  0
  4 14  1  0
  6 15  1  0
  8 16  1  0
  8 17  1  0
  8 18  1  0
  9 19  1  0
  9 20  1  0
  9 21  1  0
 10 22  1  0
 10 23  1  0
 12 24  1  0
 12 25  1  0
 12 26  1  0
M  ISO  8  13  14  14  14  15  14  16   8  17   8  18   8  19   8  20   8
M  ISO  6  21   8  22   8  23   8  24   8  25   8  26   8
M  END
>  <minimizedAffinity>  (1) 
-3.59454322

>  <minimizedRMSD>  (1) 
0.375217229

$$$$
