
     RDKit          3D

 39 41  0  0  1  0  0  0  0  0999 V2000
   47.2900   33.9920   41.5600 C   0  0  1  0  0  0  0  0  0  0  0  0
   48.1350   34.8320   40.6200 C   0  0  0  0  0  0  0  0  0  0  0  0
   49.0420   35.8120   41.2490 C   0  0  0  0  0  0  0  0  0  0  0  0
   49.7600   35.2890   42.4580 C   0  0  0  0  0  0  0  0  0  0  0  0
   49.3200   33.9150   42.8750 C   0  0  0  0  0  0  0  0  0  0  0  0
   47.7960   33.9270   42.9410 C   0  0  2  0  0  0  0  0  0  0  0  0
   47.4230   32.7230   43.6450 N   0  0  0  0  0  0  0  0  0  0  0  0
   47.7290   31.4980   43.2110 C   0  0  0  0  0  0  0  0  0  0  0  0
   47.3820   30.3180   43.8700 C   0  0  0  0  0  0  0  0  0  0  0  0
   47.7260   28.9670   43.3790 C   0  0  0  0  0  0  0  0  0  0  0  0
   46.6760   30.4410   45.0480 C   0  0  0  0  0  0  0  0  0  0  0  0
   46.3380   29.4090   45.6830 O   0  0  0  0  0  0  0  0  0  0  0  0
   46.3690   31.6810   45.4860 N   0  0  0  0  0  0  0  0  0  0  0  0
   46.7310   32.7820   44.8050 C   0  0  0  0  0  0  0  0  0  0  0  0
   46.4280   33.9330   45.2370 O   0  0  0  0  0  0  0  0  0  0  0  0
   44.2050   35.8170   42.5150 C   0  0  0  0  0  0  0  0  0  0  0  0
   43.2750   35.3640   41.5420 C   0  0  0  0  0  0  0  0  0  0  0  0
   43.7300   34.4430   40.5740 C   0  0  0  0  0  0  0  0  0  0  0  0
   45.0230   34.0380   40.6210 N   0  0  0  0  0  0  0  0  0  0  0  0
   45.8770   34.4900   41.5600 C   0  0  0  0  0  0  0  0  0  0  0  0
   45.4710   35.3710   42.4980 N   0  0  0  0  0  0  0  0  0  0  0  0
   47.3421   32.9644   41.1710 H   0  0  0  0  0  0  0  0  0  0  0  0
   47.4510   35.3853   39.9597 H   0  0  0  0  0  0  0  0  0  0  0  0
   48.7918   34.1179   40.1016 H   0  0  0  0  0  0  0  0  0  0  0  0
   49.7930   36.1158   40.5049 H   0  0  0  0  0  0  0  0  0  0  0  0
   48.4180   36.6522   41.5876 H   0  0  0  0  0  0  0  0  0  0  0  0
   50.8367   35.2560   42.2351 H   0  0  0  0  0  0  0  0  0  0  0  0
   49.5240   35.9682   43.2905 H   0  0  0  0  0  0  0  0  0  0  0  0
   49.6590   33.1715   42.1386 H   0  0  0  0  0  0  0  0  0  0  0  0
   49.7499   33.6482   43.8517 H   0  0  0  0  0  0  0  0  0  0  0  0
   47.3673   34.7884   43.4741 H   0  0  0  0  0  0  0  0  0  0  0  0
   48.2928   31.4132   42.2703 H   0  0  0  0  0  0  0  0  0  0  0  0
   47.8963   28.2980   44.2354 H   0  0  0  0  0  0  0  0  0  0  0  0
   46.8985   28.5772   42.7681 H   0  0  0  0  0  0  0  0  0  0  0  0
   48.6392   29.0204   42.7681 H   0  0  0  0  0  0  0  0  0  0  0  0
   45.8433   31.7860   46.3655 H   0  0  0  0  0  0  0  0  0  0  0  0
   43.8870   36.5355   43.2849 H   0  0  0  0  0  0  0  0  0  0  0  0
   42.2340   35.7193   41.5427 H   0  0  0  0  0  0  0  0  0  0  0  0
   43.0499   34.0619   39.7979 H   0  0  0  0  0  0  0  0  0  0  0  0
  1 20  1  0
  1  6  1  0
  2  3  1  0
  2  1  1  0
  3  4  1  0
  4  5  1  0
  5  6  1  0
  6  7  1  0
  7 14  1  0
  8  7  1  0
  8  9  2  0
  9 11  1  0
 10  9  1  0
 11 13  1  0
 11 12  2  0
 14 15  2  0
 14 13  1  0
 17 16  2  0
 18 19  2  0
 18 17  1  0
 19 20  1  0
 20 21  2  0
 21 16  1  0
  1 22  1  6
  2 23  1  0
  2 24  1  0
  3 25  1  0
  3 26  1  0
  4 27  1  0
  4 28  1  0
  5 29  1  0
  5 30  1  0
  6 31  1  1
  8 32  1  0
 10 33  1  0
 10 34  1  0
 10 35  1  0
 13 36  1  0
 16 37  1  0
 17 38  1  0
 18 39  1  0
M  ISO  8  22  13  23  13  24  13  25  13  26  13  27  13  28  13  29  13
M  ISO  8  30  13  31  13  32  14  33   8  34   8  35   8  36   9  37  14
M  ISO  2  38  14  39  14
M  END
>  <minimizedAffinity>  (1) 
-5.56316471

>  <minimizedRMSD>  (1) 
2.29127812

$$$$
