
     RDKit          3D

 36 38  0  0  1  0  0  0  0  0999 V2000
   47.3450   33.9930   41.6170 C   0  0  1  0  0  0  0  0  0  0  0  0
   48.1230   34.9010   40.6890 C   0  0  0  0  0  0  0  0  0  0  0  0
   49.0530   35.8580   41.3220 C   0  0  0  0  0  0  0  0  0  0  0  0
   49.8630   35.2580   42.4300 C   0  0  0  0  0  0  0  0  0  0  0  0
   49.4200   33.8890   42.8510 C   0  0  0  0  0  0  0  0  0  0  0  0
   47.9060   33.9270   42.9800 C   0  0  2  0  0  0  0  0  0  0  0  0
   44.3190   35.8960   42.6350 C   0  0  0  0  0  0  0  0  0  0  0  0
   43.2940   35.2530   41.8910 C   0  0  0  0  0  0  0  0  0  0  0  0
   43.6700   34.1830   41.0500 C   0  0  0  0  0  0  0  0  0  0  0  0
   44.9870   33.8210   40.9940 N   0  0  0  0  0  0  0  0  0  0  0  0
   45.9190   34.4680   41.7250 C   0  0  0  0  0  0  0  0  0  0  0  0
   45.5910   35.5050   42.5450 N   0  0  0  0  0  0  0  0  0  0  0  0
   47.3680   32.8940   43.8410 C   0  0  0  0  0  0  0  0  0  0  0  0
   46.7350   33.2210   45.0410 C   0  0  0  0  0  0  0  0  0  0  0  0
   46.2230   32.2070   45.8560 C   0  0  0  0  0  0  0  0  0  0  0  0
   46.3510   30.8890   45.4630 C   0  0  0  0  0  0  0  0  0  0  0  0
   46.9750   30.5620   44.2810 C   0  0  0  0  0  0  0  0  0  0  0  0
   47.4820   31.5580   43.4730 C   0  0  0  0  0  0  0  0  0  0  0  0
   47.4052   32.9874   41.1752 H   0  0  0  0  0  0  0  0  0  0  0  0
   47.3950   35.4816   40.1034 H   0  0  0  0  0  0  0  0  0  0  0  0
   48.7601   34.2293   40.0949 H   0  0  0  0  0  0  0  0  0  0  0  0
   49.7418   36.2358   40.5520 H   0  0  0  0  0  0  0  0  0  0  0  0
   48.4425   36.6592   41.7639 H   0  0  0  0  0  0  0  0  0  0  0  0
   50.9088   35.1932   42.0952 H   0  0  0  0  0  0  0  0  0  0  0  0
   49.7318   35.9126   43.3042 H   0  0  0  0  0  0  0  0  0  0  0  0
   49.7153   33.1477   42.0938 H   0  0  0  0  0  0  0  0  0  0  0  0
   49.8864   33.6037   43.8055 H   0  0  0  0  0  0  0  0  0  0  0  0
   47.5874   34.8309   43.5199 H   0  0  0  0  0  0  0  0  0  0  0  0
   44.0584   36.7335   43.2989 H   0  0  0  0  0  0  0  0  0  0  0  0
   42.2455   35.5769   41.9673 H   0  0  0  0  0  0  0  0  0  0  0  0
   42.9169   33.6504   40.4508 H   0  0  0  0  0  0  0  0  0  0  0  0
   46.6392   34.2739   45.3448 H   0  0  0  0  0  0  0  0  0  0  0  0
   45.7221   32.4569   46.8029 H   0  0  0  0  0  0  0  0  0  0  0  0
   45.9488   30.0902   46.1034 H   0  0  0  0  0  0  0  0  0  0  0  0
   47.0693   29.5079   43.9811 H   0  0  0  0  0  0  0  0  0  0  0  0
   47.9810   31.2932   42.5291 H   0  0  0  0  0  0  0  0  0  0  0  0
  1 11  1  0
  1  6  1  0
  2  3  1  0
  2  1  1  0
  3  4  1  0
  4  5  1  0
  5  6  1  0
  6 13  1  0
  8  7  2  0
  9  8  1  0
 10  9  2  0
 10 11  1  0
 11 12  2  0
 12  7  1  0
 13 14  2  0
 14 15  1  0
 16 15  2  0
 17 16  1  0
 18 13  1  0
 18 17  2  0
  1 19  1  6
  2 20  1  0
  2 21  1  0
  3 22  1  0
  3 23  1  0
  4 24  1  0
  4 25  1  0
  5 26  1  0
  5 27  1  0
  6 28  1  1
  7 29  1  0
  8 30  1  0
  9 31  1  0
 14 32  1  0
 15 33  1  0
 16 34  1  0
 17 35  1  0
 18 36  1  0
M  ISO  8  19  13  20  13  21  13  22  13  23  13  24  13  25  13  26  13
M  ISO  8  27  13  28  13  29  14  30  14  31  14  32  14  33  14  34  14
M  ISO  2  35  14  36  14
M  END
>  <minimizedAffinity>  (1) 
-5.46060753

>  <minimizedRMSD>  (1) 
2.15458536

$$$$
