
     RDKit          3D

 33 35  0  0  1  0  0  0  0  0999 V2000
   47.4280   33.9920   42.4390 C   0  0  1  0  0  0  0  0  0  0  0  0
   48.1690   35.1590   41.8330 C   0  0  0  0  0  0  0  0  0  0  0  0
   49.5530   35.3810   42.3060 C   0  0  0  0  0  0  0  0  0  0  0  0
   50.3540   34.1180   42.3980 C   0  0  0  0  0  0  0  0  0  0  0  0
   49.5500   32.8660   42.2090 C   0  0  0  0  0  0  0  0  0  0  0  0
   48.3150   33.0070   43.0890 C   0  0  2  0  0  0  0  0  0  0  0  0
   45.3880   34.2840   45.5200 C   0  0  0  0  0  0  0  0  0  0  0  0
   44.5700   35.4110   45.2390 C   0  0  0  0  0  0  0  0  0  0  0  0
   44.7400   36.0520   43.9930 C   0  0  0  0  0  0  0  0  0  0  0  0
   45.6700   35.5580   43.1370 N   0  0  0  0  0  0  0  0  0  0  0  0
   46.4280   34.4920   43.4310 C   0  0  0  0  0  0  0  0  0  0  0  0
   46.2860   33.8550   44.6240 N   0  0  0  0  0  0  0  0  0  0  0  0
   47.7050   31.7400   43.4380 C   0  0  0  0  0  0  0  0  0  0  0  0
   46.9150   30.9990   42.5540 C   0  0  0  0  0  0  0  0  0  0  0  0
   46.4820   29.8380   43.1870 C   0  0  0  0  0  0  0  0  0  0  0  0
   47.0500   29.9380   44.4640 C   0  0  0  0  0  0  0  0  0  0  0  0
   47.7460   31.0570   44.5520 O   0  0  0  0  0  0  0  0  0  0  0  0
   46.9284   33.4714   41.6087 H   0  0  0  0  0  0  0  0  0  0  0  0
   47.5918   36.0700   42.0497 H   0  0  0  0  0  0  0  0  0  0  0  0
   48.2623   34.9201   40.7633 H   0  0  0  0  0  0  0  0  0  0  0  0
   50.0564   36.0643   41.6063 H   0  0  0  0  0  0  0  0  0  0  0  0
   49.4887   35.8025   43.3200 H   0  0  0  0  0  0  0  0  0  0  0  0
   51.1346   34.1471   41.6235 H   0  0  0  0  0  0  0  0  0  0  0  0
   50.7666   34.0784   43.4169 H   0  0  0  0  0  0  0  0  0  0  0  0
   49.2550   32.7596   41.1547 H   0  0  0  0  0  0  0  0  0  0  0  0
   50.1331   31.9742   42.4824 H   0  0  0  0  0  0  0  0  0  0  0  0
   48.5850   33.3908   44.0839 H   0  0  0  0  0  0  0  0  0  0  0  0
   45.2829   33.7596   46.4812 H   0  0  0  0  0  0  0  0  0  0  0  0
   43.8293   35.7719   45.9677 H   0  0  0  0  0  0  0  0  0  0  0  0
   44.1342   36.9295   43.7227 H   0  0  0  0  0  0  0  0  0  0  0  0
   46.6737   31.2883   41.5205 H   0  0  0  0  0  0  0  0  0  0  0  0
   45.8473   29.0357   42.7827 H   0  0  0  0  0  0  0  0  0  0  0  0
   46.9340   29.1980   45.2696 H   0  0  0  0  0  0  0  0  0  0  0  0
  1  6  1  0
  1 11  1  0
  2  3  1  0
  2  1  1  0
  3  4  1  0
  5  4  1  0
  5  6  1  0
  6 13  1  0
  8  7  2  0
  9  8  1  0
 10 11  1  0
 10  9  2  0
 11 12  2  0
 12  7  1  0
 13 17  1  0
 14 15  1  0
 14 13  2  0
 15 16  2  0
 16 17  1  0
  1 18  1  6
  2 19  1  0
  2 20  1  0
  3 21  1  0
  3 22  1  0
  4 23  1  0
  4 24  1  0
  5 25  1  0
  5 26  1  0
  6 27  1  1
  7 28  1  0
  8 29  1  0
  9 30  1  0
 14 31  1  0
 15 32  1  0
 16 33  1  0
M  ISO  8  18  13  19  13  20  13  21  13  22  13  23  13  24  13  25  13
M  ISO  8  26  13  27  13  28  14  29  14  30  14  31  14  32  14  33  14
M  END
>  <minimizedAffinity>  (1) 
-4.97423935

>  <minimizedRMSD>  (1) 
0.0672330707

$$$$
