
     RDKit          3D

 33 35  0  0  1  0  0  0  0  0999 V2000
   47.4580   34.0400   42.3770 C   0  0  1  0  0  0  0  0  0  0  0  0
   48.2550   35.2180   41.8610 C   0  0  0  0  0  0  0  0  0  0  0  0
   49.6350   35.3540   42.3780 C   0  0  0  0  0  0  0  0  0  0  0  0
   50.3870   34.0580   42.3940 C   0  0  0  0  0  0  0  0  0  0  0  0
   49.5460   32.8480   42.1200 C   0  0  0  0  0  0  0  0  0  0  0  0
   48.2860   32.9680   42.9700 C   0  0  2  0  0  0  0  0  0  0  0  0
   45.4360   34.2530   45.4740 C   0  0  0  0  0  0  0  0  0  0  0  0
   44.5960   35.3690   45.2110 C   0  0  0  0  0  0  0  0  0  0  0  0
   44.7420   36.0310   43.9730 C   0  0  0  0  0  0  0  0  0  0  0  0
   45.6760   35.5650   43.1050 N   0  0  0  0  0  0  0  0  0  0  0  0
   46.4530   34.5120   43.3800 C   0  0  0  0  0  0  0  0  0  0  0  0
   46.3370   33.8510   44.5650 N   0  0  0  0  0  0  0  0  0  0  0  0
   47.5940   31.7290   43.0980 N   0  0  0  0  0  0  0  0  0  0  0  0
   46.6510   31.2560   42.2890 N   0  0  0  0  0  0  0  0  0  0  0  0
   46.2260   30.0560   42.7230 C   0  0  0  0  0  0  0  0  0  0  0  0
   46.9580   29.7930   43.8630 C   0  0  0  0  0  0  0  0  0  0  0  0
   47.8250   30.8550   44.0980 C   0  0  0  0  0  0  0  0  0  0  0  0
   46.9604   33.5975   41.5014 H   0  0  0  0  0  0  0  0  0  0  0  0
   48.3147   35.1283   40.7663 H   0  0  0  0  0  0  0  0  0  0  0  0
   47.7200   36.1114   42.2155 H   0  0  0  0  0  0  0  0  0  0  0  0
   50.1790   36.0666   41.7406 H   0  0  0  0  0  0  0  0  0  0  0  0
   49.5626   35.7041   43.4183 H   0  0  0  0  0  0  0  0  0  0  0  0
   51.1755   34.1088   41.6287 H   0  0  0  0  0  0  0  0  0  0  0  0
   50.7837   33.9390   43.4131 H   0  0  0  0  0  0  0  0  0  0  0  0
   49.2783   32.8096   41.0538 H   0  0  0  0  0  0  0  0  0  0  0  0
   50.0959   31.9280   42.3675 H   0  0  0  0  0  0  0  0  0  0  0  0
   48.5471   33.2340   44.0049 H   0  0  0  0  0  0  0  0  0  0  0  0
   45.3467   33.7153   46.4294 H   0  0  0  0  0  0  0  0  0  0  0  0
   43.8545   35.7066   45.9500 H   0  0  0  0  0  0  0  0  0  0  0  0
   44.1169   36.8997   43.7188 H   0  0  0  0  0  0  0  0  0  0  0  0
   45.4560   29.4177   42.2651 H   0  0  0  0  0  0  0  0  0  0  0  0
   46.8701   28.8900   44.4849 H   0  0  0  0  0  0  0  0  0  0  0  0
   48.5449   30.9593   44.9231 H   0  0  0  0  0  0  0  0  0  0  0  0
  1  6  1  0
  1 11  1  0
  2  1  1  0
  2  3  1  0
  3  4  1  0
  5  4  1  0
  5  6  1  0
  6 13  1  0
  8  7  2  0
  9  8  1  0
 10 11  1  0
 10  9  2  0
 11 12  2  0
 12  7  1  0
 13 17  1  0
 14 15  2  0
 14 13  1  0
 15 16  1  0
 16 17  2  0
  1 18  1  6
  2 19  1  0
  2 20  1  0
  3 21  1  0
  3 22  1  0
  4 23  1  0
  4 24  1  0
  5 25  1  0
  5 26  1  0
  6 27  1  1
  7 28  1  0
  8 29  1  0
  9 30  1  0
 15 31  1  0
 16 32  1  0
 17 33  1  0
M  ISO  8  18  13  19  13  20  13  21  13  22  13  23  13  24  13  25  13
M  ISO  8  26  13  27  13  28  14  29  14  30  14  31  14  32  14  33  14
M  END
>  <minimizedAffinity>  (1) 
-4.88612652

>  <minimizedRMSD>  (1) 
0.173536986

$$$$
