
     RDKit          3D

 28 29  0  0  1  0  0  0  0  0999 V2000
   47.4150   33.9840   42.4370 C   0  0  1  0  0  0  0  0  0  0  0  0
   48.1290   35.1570   41.7890 C   0  0  0  0  0  0  0  0  0  0  0  0
   49.5160   35.3930   42.2390 C   0  0  0  0  0  0  0  0  0  0  0  0
   50.3340   34.1610   42.4220 C   0  0  0  0  0  0  0  0  0  0  0  0
   49.5470   32.8850   42.1910 C   0  0  0  0  0  0  0  0  0  0  0  0
   48.3050   32.9890   43.0660 C   0  0  2  0  0  0  0  0  0  0  0  0
   45.3720   34.2680   45.5250 C   0  0  0  0  0  0  0  0  0  0  0  0
   44.5760   35.4070   45.2360 C   0  0  0  0  0  0  0  0  0  0  0  0
   44.7460   36.0640   43.9980 C   0  0  0  0  0  0  0  0  0  0  0  0
   45.6800   35.5590   43.1440 N   0  0  0  0  0  0  0  0  0  0  0  0
   46.4160   34.4840   43.4410 C   0  0  0  0  0  0  0  0  0  0  0  0
   46.2670   33.8360   44.6290 N   0  0  0  0  0  0  0  0  0  0  0  0
   47.6510   31.6470   43.0930 C   0  0  0  0  0  0  0  0  0  0  0  0
   47.8710   30.8470   43.9890 O   0  0  0  0  0  0  0  0  0  0  0  0
   46.9125   33.4533   41.6149 H   0  0  0  0  0  0  0  0  0  0  0  0
   47.5462   36.0656   42.0006 H   0  0  0  0  0  0  0  0  0  0  0  0
   48.1997   34.9101   40.7194 H   0  0  0  0  0  0  0  0  0  0  0  0
   50.0149   36.0265   41.4909 H   0  0  0  0  0  0  0  0  0  0  0  0
   49.4429   35.8650   43.2299 H   0  0  0  0  0  0  0  0  0  0  0  0
   51.1727   34.1887   41.7108 H   0  0  0  0  0  0  0  0  0  0  0  0
   50.6799   34.1488   43.4661 H   0  0  0  0  0  0  0  0  0  0  0  0
   49.2616   32.7992   41.1321 H   0  0  0  0  0  0  0  0  0  0  0  0
   50.1423   31.9951   42.4433 H   0  0  0  0  0  0  0  0  0  0  0  0
   48.5413   33.2958   44.0956 H   0  0  0  0  0  0  0  0  0  0  0  0
   45.2534   33.7415   46.4835 H   0  0  0  0  0  0  0  0  0  0  0  0
   43.8380   35.7722   45.9654 H   0  0  0  0  0  0  0  0  0  0  0  0
   44.1481   36.9486   43.7333 H   0  0  0  0  0  0  0  0  0  0  0  0
   46.9547   31.3725   42.2869 H   0  0  0  0  0  0  0  0  0  0  0  0
  1  6  1  0
  1 11  1  0
  2  3  1  0
  2  1  1  0
  3  4  1  0
  5  4  1  0
  5  6  1  0
  6 13  1  0
  8  7  2  0
  9  8  1  0
 10 11  1  0
 10  9  2  0
 11 12  2  0
 12  7  1  0
 13 14  2  0
  1 15  1  6
  2 16  1  0
  2 17  1  0
  3 18  1  0
  3 19  1  0
  4 20  1  0
  4 21  1  0
  5 22  1  0
  5 23  1  0
  6 24  1  1
  7 25  1  0
  8 26  1  0
  9 27  1  0
 13 28  1  0
M  ISO  8  15  13  16  13  17  13  18  13  19  13  20  13  21  13  22  13
M  ISO  6  23  13  24  13  25  14  26  14  27  14  28   6
M  END
>  <minimizedAffinity>  (1) 
-4.74497032

>  <minimizedRMSD>  (1) 
0.182188988

$$$$
