
     RDKit          3D

 30 32  0  0  0  0  0  0  0  0999 V2000
   44.5150   35.8410   44.6560 C   0  0  0  0  0  0  0  0  0  0  0  0
   45.2000   35.6720   43.4430 C   0  0  0  0  0  0  0  0  0  0  0  0
   46.1110   34.6170   43.3370 C   0  0  0  0  0  0  0  0  0  0  0  0
   46.2810   33.8160   44.4140 N   0  0  0  0  0  0  0  0  0  0  0  0
   45.6060   33.9990   45.5770 C   0  0  0  0  0  0  0  0  0  0  0  0
   44.7350   34.9950   45.7010 N   0  0  0  0  0  0  0  0  0  0  0  0
   45.7820   33.1560   46.7140 N   0  0  0  0  0  0  0  0  0  0  0  0
   46.9520   32.4850   46.7720 C   0  0  0  0  0  0  0  0  0  0  0  0
   46.9470   31.7270   47.9290 C   0  0  0  0  0  0  0  0  0  0  0  0
   45.7700   31.9530   48.5550 N   0  0  0  0  0  0  0  0  0  0  0  0
   45.0760   32.8170   47.8140 C   0  0  0  0  0  0  0  0  0  0  0  0
   49.9350   29.1540   49.3600 C   0  0  0  0  0  0  0  0  0  0  0  0
   49.1660   28.7920   48.2850 C   0  0  0  0  0  0  0  0  0  0  0  0
   48.1620   29.6250   47.7820 C   0  0  0  0  0  0  0  0  0  0  0  0
   47.9920   30.8310   48.4320 C   0  0  0  0  0  0  0  0  0  0  0  0
   48.7560   31.2050   49.5110 C   0  0  0  0  0  0  0  0  0  0  0  0
   49.7390   30.3800   49.9980 C   0  0  0  0  0  0  0  0  0  0  0  0
   51.1800   28.0900   49.9610 S   0  0  0  0  0  0  0  0  0  0  0  0
   50.5910   26.7730   50.3870 O   0  0  0  0  0  0  0  0  0  0  0  0
   51.9020   28.7220   51.1190 O   0  0  0  0  0  0  0  0  0  0  0  0
   43.7936   36.6643   44.7641 H   0  0  0  0  0  0  0  0  0  0  0  0
   45.0245   36.3526   42.5968 H   0  0  0  0  0  0  0  0  0  0  0  0
   46.6721   34.4435   42.4069 H   0  0  0  0  0  0  0  0  0  0  0  0
   47.7641   32.5326   46.0316 H   0  0  0  0  0  0  0  0  0  0  0  0
   44.0745   33.1981   48.0624 H   0  0  0  0  0  0  0  0  0  0  0  0
   49.3436   27.8187   47.8043 H   0  0  0  0  0  0  0  0  0  0  0  0
   47.5439   29.3364   46.9191 H   0  0  0  0  0  0  0  0  0  0  0  0
   48.5775   32.1785   49.9910 H   0  0  0  0  0  0  0  0  0  0  0  0
   50.3520   30.6752   50.8624 H   0  0  0  0  0  0  0  0  0  0  0  0
   52.0744   27.8687   48.9471 H   0  0  0  0  0  0  0  0  0  0  0  0
  1  6  2  0
  2  1  1  0
  3  2  2  0
  3  4  1  0
  4  5  2  0
  5  6  1  0
  5  7  1  0
  7  8  1  0
  7 11  1  0
  8  9  2  0
  9 15  1  0
  9 10  1  0
 11 10  2  0
 12 18  1  0
 12 17  2  0
 13 12  1  0
 14 13  2  0
 14 15  1  0
 15 16  2  0
 16 17  1  0
 18 19  2  0
 18 20  2  0
  1 21  1  0
  2 22  1  0
  3 23  1  0
  8 24  1  0
 11 25  1  0
 13 26  1  0
 14 27  1  0
 16 28  1  0
 17 29  1  0
 18 30  1  0
M  ISO  8  21  14  22  14  23  14  24  14  25  14  26  14  27  14  28  14
M  ISO  2  29  14  30  11
M  END
>  <minimizedAffinity>  (1) 
-5.73362875

>  <minimizedRMSD>  (1) 
0.130553007

$$$$
