
     RDKit          3D

 27 29  0  0  0  0  0  0  0  0999 V2000
   44.4930   35.8590   44.5070 C   0  0  0  0  0  0  0  0  0  0  0  0
   45.2010   35.6970   43.3170 C   0  0  0  0  0  0  0  0  0  0  0  0
   46.1460   34.6690   43.2670 C   0  0  0  0  0  0  0  0  0  0  0  0
   46.3520   33.8760   44.3390 N   0  0  0  0  0  0  0  0  0  0  0  0
   45.6400   34.0640   45.4890 C   0  0  0  0  0  0  0  0  0  0  0  0
   44.7370   35.0380   45.5490 N   0  0  0  0  0  0  0  0  0  0  0  0
   45.8280   33.2490   46.6390 N   0  0  0  0  0  0  0  0  0  0  0  0
   47.0080   32.5840   46.7310 C   0  0  0  0  0  0  0  0  0  0  0  0
   46.9780   31.8640   47.9090 C   0  0  0  0  0  0  0  0  0  0  0  0
   45.8070   32.1020   48.4940 N   0  0  0  0  0  0  0  0  0  0  0  0
   45.1010   32.9390   47.7350 C   0  0  0  0  0  0  0  0  0  0  0  0
   47.9670   31.0060   48.4670 N   0  0  0  0  0  0  0  0  0  0  0  0
   48.9370   31.4100   49.3170 C   0  0  0  0  0  0  0  0  0  0  0  0
   49.8660   30.5060   49.8180 C   0  0  0  0  0  0  0  0  0  0  0  0
   49.7150   29.2040   49.3850 C   0  0  0  0  0  0  0  0  0  0  0  0
   50.5560   28.3790   49.8350 O   0  0  0  0  0  0  0  0  0  0  0  0
   48.7710   28.7580   48.5450 N   0  0  0  0  0  0  0  0  0  0  0  0
   47.8950   29.6970   48.0930 C   0  0  0  0  0  0  0  0  0  0  0  0
   46.9900   29.2940   47.2930 O   0  0  0  0  0  0  0  0  0  0  0  0
   43.7378   36.6538   44.5959 H   0  0  0  0  0  0  0  0  0  0  0  0
   45.0227   36.3525   42.4518 H   0  0  0  0  0  0  0  0  0  0  0  0
   46.7262   34.5050   42.3470 H   0  0  0  0  0  0  0  0  0  0  0  0
   47.8329   32.6132   46.0039 H   0  0  0  0  0  0  0  0  0  0  0  0
   44.0929   33.3155   47.9629 H   0  0  0  0  0  0  0  0  0  0  0  0
   48.9918   32.4672   49.6159 H   0  0  0  0  0  0  0  0  0  0  0  0
   50.6655   30.8069   50.5110 H   0  0  0  0  0  0  0  0  0  0  0  0
   48.7120   27.7699   48.2601 H   0  0  0  0  0  0  0  0  0  0  0  0
  1  6  2  0
  2  1  1  0
  3  2  2  0
  3  4  1  0
  4  5  2  0
  5  6  1  0
  5  7  1  0
  7  8  1  0
  7 11  1  0
  8  9  2  0
  9 12  1  0
  9 10  1  0
 11 10  2  0
 12 13  1  0
 13 14  2  0
 15 14  1  0
 15 16  2  0
 17 15  1  0
 18 12  1  0
 18 17  1  0
 19 18  2  0
  1 20  1  0
  2 21  1  0
  3 22  1  0
  8 23  1  0
 11 24  1  0
 13 25  1  0
 14 26  1  0
 17 27  1  0
M  ISO  8  20  14  21  14  22  14  23  14  24  14  25  14  26  14  27   9
M  END
>  <minimizedAffinity>  (1) 
-5.83468485

>  <minimizedRMSD>  (1) 
1.14785051

$$$$
