
     RDKit          3D

 25 27  0  0  0  0  0  0  0  0999 V2000
   44.5570   35.7640   44.6590 C   0  0  0  0  0  0  0  0  0  0  0  0
   45.2510   35.6140   43.4600 C   0  0  0  0  0  0  0  0  0  0  0  0
   46.1770   34.5610   43.3850 C   0  0  0  0  0  0  0  0  0  0  0  0
   46.3410   33.7620   44.4670 N   0  0  0  0  0  0  0  0  0  0  0  0
   45.6490   33.9390   45.6140 C   0  0  0  0  0  0  0  0  0  0  0  0
   44.7550   34.9360   45.7210 N   0  0  0  0  0  0  0  0  0  0  0  0
   45.8150   33.1030   46.7550 N   0  0  0  0  0  0  0  0  0  0  0  0
   46.9720   32.4030   46.8070 C   0  0  0  0  0  0  0  0  0  0  0  0
   46.9500   31.6590   47.9750 C   0  0  0  0  0  0  0  0  0  0  0  0
   45.7840   31.9220   48.6030 N   0  0  0  0  0  0  0  0  0  0  0  0
   45.1040   32.7950   47.8630 C   0  0  0  0  0  0  0  0  0  0  0  0
   47.9870   30.7400   48.4710 C   0  0  0  0  0  0  0  0  0  0  0  0
   48.2530   29.5850   47.7690 C   0  0  0  0  0  0  0  0  0  0  0  0
   49.2240   28.7280   48.2360 C   0  0  0  0  0  0  0  0  0  0  0  0
   49.8760   29.0590   49.3640 N   0  0  0  0  0  0  0  0  0  0  0  0
   49.6140   30.1990   50.0590 C   0  0  0  0  0  0  0  0  0  0  0  0
   48.6650   31.0290   49.5950 N   0  0  0  0  0  0  0  0  0  0  0  0
   43.8242   36.5793   44.7503 H   0  0  0  0  0  0  0  0  0  0  0  0
   45.0809   36.2907   42.6096 H   0  0  0  0  0  0  0  0  0  0  0  0
   46.7574   34.3883   42.4667 H   0  0  0  0  0  0  0  0  0  0  0  0
   47.7797   32.4215   46.0605 H   0  0  0  0  0  0  0  0  0  0  0  0
   44.1142   33.2036   48.1147 H   0  0  0  0  0  0  0  0  0  0  0  0
   47.6977   29.3509   46.8488 H   0  0  0  0  0  0  0  0  0  0  0  0
   49.4601   27.7968   47.7001 H   0  0  0  0  0  0  0  0  0  0  0  0
   50.1668   30.4357   50.9801 H   0  0  0  0  0  0  0  0  0  0  0  0
  1  6  2  0
  2  1  1  0
  3  2  2  0
  3  4  1  0
  4  5  2  0
  5  6  1  0
  5  7  1  0
  7  8  1  0
  7 11  1  0
  8  9  2  0
  9 12  1  0
  9 10  1  0
 11 10  2  0
 12 17  2  0
 13 14  2  0
 13 12  1  0
 14 15  1  0
 15 16  2  0
 17 16  1  0
  1 18  1  0
  2 19  1  0
  3 20  1  0
  8 21  1  0
 11 22  1  0
 13 23  1  0
 14 24  1  0
 16 25  1  0
M  ISO  8  18  14  19  14  20  14  21  14  22  14  23  14  24  14  25  14
M  END
>  <minimizedAffinity>  (1) 
-5.43345118

>  <minimizedRMSD>  (1) 
0.266621172

$$$$
