
     RDKit          3D

 24 26  0  0  0  0  0  0  0  0999 V2000
   44.5530   35.7630   44.6570 C   0  0  0  0  0  0  0  0  0  0  0  0
   45.2620   35.5970   43.4570 C   0  0  0  0  0  0  0  0  0  0  0  0
   46.1970   34.5340   43.4020 C   0  0  0  0  0  0  0  0  0  0  0  0
   46.3460   33.7530   44.5010 N   0  0  0  0  0  0  0  0  0  0  0  0
   45.6430   33.9470   45.6320 C   0  0  0  0  0  0  0  0  0  0  0  0
   44.7580   34.9370   45.7140 N   0  0  0  0  0  0  0  0  0  0  0  0
   45.8130   33.1130   46.7800 N   0  0  0  0  0  0  0  0  0  0  0  0
   46.9750   32.4140   46.8630 C   0  0  0  0  0  0  0  0  0  0  0  0
   46.9020   31.6950   48.0410 C   0  0  0  0  0  0  0  0  0  0  0  0
   45.7260   31.9570   48.6460 N   0  0  0  0  0  0  0  0  0  0  0  0
   45.0610   32.8200   47.8800 C   0  0  0  0  0  0  0  0  0  0  0  0
   47.9340   30.7950   48.5490 C   0  0  0  0  0  0  0  0  0  0  0  0
   48.8800   31.0930   49.5050 C   0  0  0  0  0  0  0  0  0  0  0  0
   49.6340   29.9240   49.6550 C   0  0  0  0  0  0  0  0  0  0  0  0
   49.1370   28.9950   48.8170 N   0  0  0  0  0  0  0  0  0  0  0  0
   48.1320   29.5220   48.1690 N   0  0  0  0  0  0  0  0  0  0  0  0
   43.8182   36.5771   44.7421 H   0  0  0  0  0  0  0  0  0  0  0  0
   45.0988   36.2631   42.5969 H   0  0  0  0  0  0  0  0  0  0  0  0
   46.7864   34.3470   42.4923 H   0  0  0  0  0  0  0  0  0  0  0  0
   47.8043   32.4192   46.1404 H   0  0  0  0  0  0  0  0  0  0  0  0
   44.0645   33.2310   48.0992 H   0  0  0  0  0  0  0  0  0  0  0  0
   49.0140   32.0465   50.0369 H   0  0  0  0  0  0  0  0  0  0  0  0
   50.4849   29.7877   50.3387 H   0  0  0  0  0  0  0  0  0  0  0  0
   49.4887   28.0333   48.7056 H   0  0  0  0  0  0  0  0  0  0  0  0
  1  6  2  0
  2  1  1  0
  3  2  2  0
  3  4  1  0
  4  5  2  0
  5  6  1  0
  5  7  1  0
  7  8  1  0
  7 11  1  0
  8  9  2  0
  9 12  1  0
  9 10  1  0
 11 10  2  0
 12 13  1  0
 13 14  2  0
 15 14  1  0
 16 12  2  0
 16 15  1  0
  1 17  1  0
  2 18  1  0
  3 19  1  0
  8 20  1  0
 11 21  1  0
 13 22  1  0
 14 23  1  0
 15 24  1  0
M  ISO  8  17  14  18  14  19  14  20  14  21  14  22  14  23  14  24   9
M  END
>  <minimizedAffinity>  (1) 
-5.38508272

>  <minimizedRMSD>  (1) 
0.532993495

$$$$
