
     RDKit          3D

 24 26  0  0  0  0  0  0  0  0999 V2000
   44.5370   35.7320   44.6240 C   0  0  0  0  0  0  0  0  0  0  0  0
   45.2530   35.5890   43.4360 C   0  0  0  0  0  0  0  0  0  0  0  0
   46.2110   34.5610   43.3970 C   0  0  0  0  0  0  0  0  0  0  0  0
   46.3900   33.7760   44.4840 N   0  0  0  0  0  0  0  0  0  0  0  0
   45.6730   33.9510   45.6170 C   0  0  0  0  0  0  0  0  0  0  0  0
   44.7590   34.9150   45.6850 N   0  0  0  0  0  0  0  0  0  0  0  0
   45.8430   33.1370   46.7790 N   0  0  0  0  0  0  0  0  0  0  0  0
   47.0310   32.4790   46.8700 C   0  0  0  0  0  0  0  0  0  0  0  0
   46.9610   31.7650   48.0690 C   0  0  0  0  0  0  0  0  0  0  0  0
   45.7750   32.0010   48.6470 N   0  0  0  0  0  0  0  0  0  0  0  0
   45.0860   32.8360   47.8720 C   0  0  0  0  0  0  0  0  0  0  0  0
   48.0000   30.8990   48.6120 C   0  0  0  0  0  0  0  0  0  0  0  0
   48.5320   29.7460   48.1260 C   0  0  0  0  0  0  0  0  0  0  0  0
   49.4710   29.3050   48.9850 N   0  0  0  0  0  0  0  0  0  0  0  0
   49.5450   30.1770   50.0290 C   0  0  0  0  0  0  0  0  0  0  0  0
   48.6350   31.1290   49.7640 N   0  0  0  0  0  0  0  0  0  0  0  0
   43.7767   36.5231   44.7030 H   0  0  0  0  0  0  0  0  0  0  0  0
   45.0770   36.2476   42.5727 H   0  0  0  0  0  0  0  0  0  0  0  0
   46.8105   34.3962   42.4895 H   0  0  0  0  0  0  0  0  0  0  0  0
   47.8659   32.5039   46.1542 H   0  0  0  0  0  0  0  0  0  0  0  0
   44.0757   33.2187   48.0789 H   0  0  0  0  0  0  0  0  0  0  0  0
   48.2429   29.2541   47.1856 H   0  0  0  0  0  0  0  0  0  0  0  0
   50.2092   30.1148   50.9037 H   0  0  0  0  0  0  0  0  0  0  0  0
   48.4497   31.9375   50.3747 H   0  0  0  0  0  0  0  0  0  0  0  0
  1  6  2  0
  2  1  1  0
  3  2  2  0
  3  4  1  0
  4  5  2  0
  5  6  1  0
  5  7  1  0
  7  8  1  0
  7 11  1  0
  8  9  2  0
  9 12  1  0
  9 10  1  0
 11 10  2  0
 12 16  1  0
 13 12  2  0
 13 14  1  0
 14 15  2  0
 16 15  1  0
  1 17  1  0
  2 18  1  0
  3 19  1  0
  8 20  1  0
 11 21  1  0
 13 22  1  0
 15 23  1  0
 16 24  1  0
M  ISO  8  17  14  18  14  19  14  20  14  21  14  22  14  23  14  24   9
M  END
>  <minimizedAffinity>  (1) 
-5.49880457

>  <minimizedRMSD>  (1) 
0.224282026

$$$$
