
     RDKit          3D

 11 11  0  0  0  0  0  0  0  0999 V2000
   44.5770   35.9730   44.4970 C   0  0  0  0  0  0  0  0  0  0  0  0
   45.3230   35.7890   43.3110 C   0  0  0  0  0  0  0  0  0  0  0  0
   46.1980   34.7060   43.2540 C   0  0  0  0  0  0  0  0  0  0  0  0
   46.2890   33.8780   44.3520 N   0  0  0  0  0  0  0  0  0  0  0  0
   45.5620   34.0850   45.4640 C   0  0  0  0  0  0  0  0  0  0  0  0
   44.7110   35.1230   45.5410 N   0  0  0  0  0  0  0  0  0  0  0  0
   47.1880   34.3860   41.7980 S   0  0  0  0  0  0  0  0  0  0  0  0
   43.8778   36.8189   44.5724 H   0  0  0  0  0  0  0  0  0  0  0  0
   45.2164   36.4783   42.4604 H   0  0  0  0  0  0  0  0  0  0  0  0
   45.6644   33.3993   46.3180 H   0  0  0  0  0  0  0  0  0  0  0  0
   48.4406   33.9811   42.1774 H   0  0  0  0  0  0  0  0  0  0  0  0
  1  6  2  0
  2  1  1  0
  3  2  2  0
  3  4  1  0
  4  5  2  0
  5  6  1  0
  7  3  1  0
  1  8  1  0
  2  9  1  0
  5 10  1  0
  7 11  1  0
M  ISO  4   8  14   9  14  10  14  11  11
M  END
>  <minimizedAffinity>  (1) 
-2.90121698

>  <minimizedRMSD>  (1) 
0.181248769

$$$$
