
     RDKit          3D

 20 21  0  0  0  0  0  0  0  0999 V2000
   44.5160   35.8150   44.6630 C   0  0  0  0  0  0  0  0  0  0  0  0
   45.2010   35.6590   43.4510 C   0  0  0  0  0  0  0  0  0  0  0  0
   46.1280   34.5960   43.3670 C   0  0  0  0  0  0  0  0  0  0  0  0
   46.3070   33.7930   44.4460 N   0  0  0  0  0  0  0  0  0  0  0  0
   45.6210   33.9840   45.6020 C   0  0  0  0  0  0  0  0  0  0  0  0
   44.7430   34.9800   45.6970 N   0  0  0  0  0  0  0  0  0  0  0  0
   45.8090   33.1390   46.7370 N   0  0  0  0  0  0  0  0  0  0  0  0
   46.9780   32.4540   46.8020 C   0  0  0  0  0  0  0  0  0  0  0  0
   46.9090   31.7230   47.9800 C   0  0  0  0  0  0  0  0  0  0  0  0
   45.7480   31.9660   48.5890 N   0  0  0  0  0  0  0  0  0  0  0  0
   45.0620   32.8310   47.8410 C   0  0  0  0  0  0  0  0  0  0  0  0
   47.9480   30.8270   48.4780 C   0  0  0  0  0  0  0  0  0  0  0  0
   48.7190   30.2070   47.7010 O   0  0  0  0  0  0  0  0  0  0  0  0
   48.1330   30.6190   49.8170 O   0  0  0  0  0  0  0  0  0  0  0  0
   43.7839   36.6287   44.7724 H   0  0  0  0  0  0  0  0  0  0  0  0
   45.0248   36.3350   42.6013 H   0  0  0  0  0  0  0  0  0  0  0  0
   46.6959   34.4221   42.4411 H   0  0  0  0  0  0  0  0  0  0  0  0
   47.8043   32.4736   46.0761 H   0  0  0  0  0  0  0  0  0  0  0  0
   44.0634   33.2298   48.0727 H   0  0  0  0  0  0  0  0  0  0  0  0
   48.8451   30.0061   50.1290 H   0  0  0  0  0  0  0  0  0  0  0  0
  1  6  2  0
  2  1  1  0
  3  2  2  0
  3  4  1  0
  4  5  2  0
  5  6  1  0
  5  7  1  0
  7  8  1  0
  7 11  1  0
  8  9  2  0
  9 12  1  0
  9 10  1  0
 11 10  2  0
 12 14  1  0
 13 12  2  0
  1 15  1  0
  2 16  1  0
  3 17  1  0
  8 18  1  0
 11 19  1  0
 14 20  1  0
M  ISO  6  15  14  16  14  17  14  18  14  19  14  20   3
M  END
>  <minimizedAffinity>  (1) 
-5.11843061

>  <minimizedRMSD>  (1) 
0.237310946

$$$$
