
     RDKit          3D

 24 26  0  0  0  0  0  0  0  0999 V2000
   44.4970   35.8030   44.6620 C   0  0  0  0  0  0  0  0  0  0  0  0
   45.1720   35.6730   43.4500 C   0  0  0  0  0  0  0  0  0  0  0  0
   46.1150   34.6420   43.3510 C   0  0  0  0  0  0  0  0  0  0  0  0
   46.3440   33.8180   44.4050 N   0  0  0  0  0  0  0  0  0  0  0  0
   45.6610   33.9820   45.5710 C   0  0  0  0  0  0  0  0  0  0  0  0
   44.7460   34.9660   45.6980 N   0  0  0  0  0  0  0  0  0  0  0  0
   45.8700   33.1420   46.7010 N   0  0  0  0  0  0  0  0  0  0  0  0
   47.0450   32.4640   46.7290 C   0  0  0  0  0  0  0  0  0  0  0  0
   47.0260   31.7230   47.9010 C   0  0  0  0  0  0  0  0  0  0  0  0
   45.8680   31.9600   48.5440 N   0  0  0  0  0  0  0  0  0  0  0  0
   45.1610   32.8230   47.8160 C   0  0  0  0  0  0  0  0  0  0  0  0
   48.0100   30.8370   48.4240 N   0  0  0  0  0  0  0  0  0  0  0  0
   48.8130   31.0260   49.4610 C   0  0  0  0  0  0  0  0  0  0  0  0
   49.5860   29.8640   49.5620 C   0  0  0  0  0  0  0  0  0  0  0  0
   49.1910   29.0300   48.5550 N   0  0  0  0  0  0  0  0  0  0  0  0
   48.2060   29.6430   47.8480 C   0  0  0  0  0  0  0  0  0  0  0  0
   43.7480   36.6000   44.7799 H   0  0  0  0  0  0  0  0  0  0  0  0
   44.9729   36.3510   42.6070 H   0  0  0  0  0  0  0  0  0  0  0  0
   46.6731   34.4993   42.4139 H   0  0  0  0  0  0  0  0  0  0  0  0
   47.8472   32.4956   45.9771 H   0  0  0  0  0  0  0  0  0  0  0  0
   44.1659   33.2137   48.0749 H   0  0  0  0  0  0  0  0  0  0  0  0
   48.8619   31.9136   50.1090 H   0  0  0  0  0  0  0  0  0  0  0  0
   50.3651   29.6605   50.3113 H   0  0  0  0  0  0  0  0  0  0  0  0
   47.6739   29.2386   46.9743 H   0  0  0  0  0  0  0  0  0  0  0  0
  1  6  2  0
  2  1  1  0
  3  2  2  0
  3  4  1  0
  4  5  2  0
  5  6  1  0
  5  7  1  0
  7  8  1  0
  7 11  1  0
  8  9  2  0
  9 12  1  0
  9 10  1  0
 11 10  2  0
 12 13  1  0
 13 14  2  0
 15 14  1  0
 16 12  1  0
 16 15  2  0
  1 17  1  0
  2 18  1  0
  3 19  1  0
  8 20  1  0
 11 21  1  0
 13 22  1  0
 14 23  1  0
 16 24  1  0
M  ISO  8  17  14  18  14  19  14  20  14  21  14  22  14  23  14  24  14
M  END
>  <minimizedAffinity>  (1) 
-5.12031889

>  <minimizedRMSD>  (1) 
0.328850329

$$$$
