
     RDKit          3D

 22 24  0  0  0  0  0  0  0  0999 V2000
   44.5030   35.8260   44.5940 C   0  0  0  0  0  0  0  0  0  0  0  0
   45.2030   35.6860   43.3870 C   0  0  0  0  0  0  0  0  0  0  0  0
   46.1560   34.6520   43.3030 C   0  0  0  0  0  0  0  0  0  0  0  0
   46.3540   33.8440   44.3820 N   0  0  0  0  0  0  0  0  0  0  0  0
   45.6440   34.0240   45.5340 C   0  0  0  0  0  0  0  0  0  0  0  0
   44.7220   35.0010   45.6580 N   0  0  0  0  0  0  0  0  0  0  0  0
   45.8460   33.1780   46.6720 N   0  0  0  0  0  0  0  0  0  0  0  0
   47.0000   32.4810   46.7130 C   0  0  0  0  0  0  0  0  0  0  0  0
   46.9460   31.7500   47.9050 C   0  0  0  0  0  0  0  0  0  0  0  0
   45.7990   32.0130   48.5350 N   0  0  0  0  0  0  0  0  0  0  0  0
   45.1040   32.8970   47.7860 C   0  0  0  0  0  0  0  0  0  0  0  0
   47.9450   30.8280   48.4380 C   0  0  0  0  0  0  0  0  0  0  0  0
   48.3180   29.5770   48.1050 N   0  0  0  0  0  0  0  0  0  0  0  0
   49.2830   29.1920   48.9150 O   0  0  0  0  0  0  0  0  0  0  0  0
   49.5440   30.1650   49.7640 C   0  0  0  0  0  0  0  0  0  0  0  0
   48.7130   31.2100   49.4840 N   0  0  0  0  0  0  0  0  0  0  0  0
   43.7538   36.6262   44.6857 H   0  0  0  0  0  0  0  0  0  0  0  0
   45.0149   36.3587   42.5372 H   0  0  0  0  0  0  0  0  0  0  0  0
   46.7325   34.4990   42.3788 H   0  0  0  0  0  0  0  0  0  0  0  0
   47.8101   32.4861   45.9688 H   0  0  0  0  0  0  0  0  0  0  0  0
   44.1165   33.3163   48.0291 H   0  0  0  0  0  0  0  0  0  0  0  0
   50.3015   30.1392   50.5612 H   0  0  0  0  0  0  0  0  0  0  0  0
  1  6  2  0
  2  1  1  0
  3  2  2  0
  3  4  1  0
  4  5  2  0
  5  6  1  0
  5  7  1  0
  7  8  1  0
  7 11  1  0
  8  9  2  0
  9 12  1  0
  9 10  1  0
 11 10  2  0
 12 16  1  0
 13 12  2  0
 13 14  1  0
 14 15  1  0
 16 15  2  0
  1 17  1  0
  2 18  1  0
  3 19  1  0
  8 20  1  0
 11 21  1  0
 15 22  1  0
M  ISO  6  17  14  18  14  19  14  20  14  21  14  22  14
M  END
>  <minimizedAffinity>  (1) 
-5.16333532

>  <minimizedRMSD>  (1) 
0.170825392

$$$$
