
     RDKit          3D

 24 26  0  0  0  0  0  0  0  0999 V2000
   44.4850   35.8340   44.6150 C   0  0  0  0  0  0  0  0  0  0  0  0
   45.1660   35.7050   43.4060 C   0  0  0  0  0  0  0  0  0  0  0  0
   46.1100   34.6760   43.3180 C   0  0  0  0  0  0  0  0  0  0  0  0
   46.3320   33.8550   44.3760 N   0  0  0  0  0  0  0  0  0  0  0  0
   45.6330   34.0290   45.5360 C   0  0  0  0  0  0  0  0  0  0  0  0
   44.7270   35.0000   45.6550 N   0  0  0  0  0  0  0  0  0  0  0  0
   45.8480   33.1800   46.6630 N   0  0  0  0  0  0  0  0  0  0  0  0
   47.0170   32.4870   46.6990 C   0  0  0  0  0  0  0  0  0  0  0  0
   46.9900   31.7500   47.8660 C   0  0  0  0  0  0  0  0  0  0  0  0
   45.8310   31.9960   48.5130 N   0  0  0  0  0  0  0  0  0  0  0  0
   45.1270   32.8690   47.7840 C   0  0  0  0  0  0  0  0  0  0  0  0
   48.0040   30.8660   48.3350 N   0  0  0  0  0  0  0  0  0  0  0  0
   48.3410   29.5990   48.0960 N   0  0  0  0  0  0  0  0  0  0  0  0
   49.4190   29.2810   48.8470 C   0  0  0  0  0  0  0  0  0  0  0  0
   49.7810   30.4030   49.5980 C   0  0  0  0  0  0  0  0  0  0  0  0
   48.8600   31.3780   49.2420 C   0  0  0  0  0  0  0  0  0  0  0  0
   43.7346   36.6304   44.7274 H   0  0  0  0  0  0  0  0  0  0  0  0
   44.9705   36.3807   42.5603 H   0  0  0  0  0  0  0  0  0  0  0  0
   46.6757   34.5314   42.3858 H   0  0  0  0  0  0  0  0  0  0  0  0
   47.8219   32.5091   45.9496 H   0  0  0  0  0  0  0  0  0  0  0  0
   44.1355   33.2695   48.0420 H   0  0  0  0  0  0  0  0  0  0  0  0
   49.9255   28.3047   48.8642 H   0  0  0  0  0  0  0  0  0  0  0  0
   50.6121   30.4931   50.3130 H   0  0  0  0  0  0  0  0  0  0  0  0
   48.8327   32.4044   49.6367 H   0  0  0  0  0  0  0  0  0  0  0  0
  1  6  2  0
  2  1  1  0
  3  2  2  0
  3  4  1  0
  4  5  2  0
  5  6  1  0
  5  7  1  0
  7  8  1  0
  7 11  1  0
  8  9  2  0
  9 12  1  0
  9 10  1  0
 11 10  2  0
 12 16  1  0
 13 12  1  0
 13 14  2  0
 14 15  1  0
 16 15  2  0
  1 17  1  0
  2 18  1  0
  3 19  1  0
  8 20  1  0
 11 21  1  0
 14 22  1  0
 15 23  1  0
 16 24  1  0
M  ISO  8  17  14  18  14  19  14  20  14  21  14  22  14  23  14  24  14
M  END
>  <minimizedAffinity>  (1) 
-5.16544914

>  <minimizedRMSD>  (1) 
0.205938444

$$$$
