
     RDKit          3D

 20 21  0  0  0  0  0  0  0  0999 V2000
   44.5410   35.7330   44.6520 C   0  0  0  0  0  0  0  0  0  0  0  0
   45.2760   35.5560   43.4580 C   0  0  0  0  0  0  0  0  0  0  0  0
   46.2290   34.5100   43.4280 C   0  0  0  0  0  0  0  0  0  0  0  0
   46.3870   33.7390   44.5320 N   0  0  0  0  0  0  0  0  0  0  0  0
   45.6510   33.9520   45.6610 C   0  0  0  0  0  0  0  0  0  0  0  0
   44.7390   34.9280   45.7350 N   0  0  0  0  0  0  0  0  0  0  0  0
   45.8200   33.1350   46.8270 N   0  0  0  0  0  0  0  0  0  0  0  0
   46.9990   32.4710   46.9400 C   0  0  0  0  0  0  0  0  0  0  0  0
   46.9070   31.7640   48.1380 C   0  0  0  0  0  0  0  0  0  0  0  0
   45.7170   32.0040   48.7100 N   0  0  0  0  0  0  0  0  0  0  0  0
   45.0410   32.8460   47.9120 C   0  0  0  0  0  0  0  0  0  0  0  0
   47.9630   30.8840   48.6950 C   0  0  0  0  0  0  0  0  0  0  0  0
   43.7930   36.5375   44.7091 H   0  0  0  0  0  0  0  0  0  0  0  0
   45.1137   36.2061   42.5856 H   0  0  0  0  0  0  0  0  0  0  0  0
   46.8304   34.3260   42.5256 H   0  0  0  0  0  0  0  0  0  0  0  0
   47.8450   32.4874   46.2372 H   0  0  0  0  0  0  0  0  0  0  0  0
   44.0303   33.2373   48.0999 H   0  0  0  0  0  0  0  0  0  0  0  0
   47.9249   30.9158   49.7939 H   0  0  0  0  0  0  0  0  0  0  0  0
   47.7987   29.8518   48.3521 H   0  0  0  0  0  0  0  0  0  0  0  0
   48.9486   31.2318   48.3521 H   0  0  0  0  0  0  0  0  0  0  0  0
  1  6  2  0
  2  1  1  0
  3  2  2  0
  3  4  1  0
  4  5  2  0
  5  6  1  0
  5  7  1  0
  7  8  1  0
  7 11  1  0
  8  9  2  0
  9 12  1  0
  9 10  1  0
 11 10  2  0
  1 13  1  0
  2 14  1  0
  3 15  1  0
  8 16  1  0
 11 17  1  0
 12 18  1  0
 12 19  1  0
 12 20  1  0
M  ISO  8  13  14  14  14  15  14  16  14  17  14  18   8  19   8  20   8
M  END
>  <minimizedAffinity>  (1) 
-4.53578281

>  <minimizedRMSD>  (1) 
0.194906428

$$$$
