
     RDKit          3D

 41 45  0  0  0  0  0  0  0  0999 V2000
   48.0080   30.8640   48.3410 C   0  0  0  0  0  0  0  0  0  0  0  0
   48.8030   31.2860   49.3850 C   0  0  0  0  0  0  0  0  0  0  0  0
   49.8110   30.5000   49.8960 C   0  0  0  0  0  0  0  0  0  0  0  0
   50.0040   29.2370   49.3120 C   0  0  0  0  0  0  0  0  0  0  0  0
   49.2090   28.8050   48.2620 C   0  0  0  0  0  0  0  0  0  0  0  0
   48.2080   29.6300   47.7820 C   0  0  0  0  0  0  0  0  0  0  0  0
   44.4780   35.8480   44.6240 C   0  0  0  0  0  0  0  0  0  0  0  0
   45.2100   35.7400   43.4250 C   0  0  0  0  0  0  0  0  0  0  0  0
   46.1690   34.7440   43.3200 C   0  0  0  0  0  0  0  0  0  0  0  0
   46.3510   33.9310   44.3720 N   0  0  0  0  0  0  0  0  0  0  0  0
   45.6460   34.0390   45.5170 C   0  0  0  0  0  0  0  0  0  0  0  0
   44.7120   34.9890   45.6560 N   0  0  0  0  0  0  0  0  0  0  0  0
   45.8360   33.1780   46.6330 N   0  0  0  0  0  0  0  0  0  0  0  0
   47.0180   32.5100   46.6930 C   0  0  0  0  0  0  0  0  0  0  0  0
   46.9660   31.7480   47.8550 C   0  0  0  0  0  0  0  0  0  0  0  0
   45.7970   31.9550   48.4650 N   0  0  0  0  0  0  0  0  0  0  0  0
   45.1000   32.8200   47.7360 C   0  0  0  0  0  0  0  0  0  0  0  0
   47.3970   29.1340   46.6780 C   0  0  0  0  0  0  0  0  0  0  0  0
   47.8060   29.2940   45.3670 C   0  0  0  0  0  0  0  0  0  0  0  0
   46.8670   28.7440   44.5710 N   0  0  0  0  0  0  0  0  0  0  0  0
   45.8650   28.2340   45.3130 C   0  0  0  0  0  0  0  0  0  0  0  0
   44.6690   27.5680   45.0370 C   0  0  0  0  0  0  0  0  0  0  0  0
   43.8570   27.1760   46.0980 C   0  0  0  0  0  0  0  0  0  0  0  0
   44.2040   27.4290   47.4070 C   0  0  0  0  0  0  0  0  0  0  0  0
   45.3880   28.0900   47.7080 C   0  0  0  0  0  0  0  0  0  0  0  0
   46.1770   28.4680   46.6400 C   0  0  0  0  0  0  0  0  0  0  0  0
   48.6268   32.2797   49.8225 H   0  0  0  0  0  0  0  0  0  0  0  0
   50.4404   30.8471   50.7287 H   0  0  0  0  0  0  0  0  0  0  0  0
   50.7992   28.5801   49.6943 H   0  0  0  0  0  0  0  0  0  0  0  0
   49.3729   27.8138   47.8140 H   0  0  0  0  0  0  0  0  0  0  0  0
   43.7124   36.6310   44.7279 H   0  0  0  0  0  0  0  0  0  0  0  0
   45.0246   36.4313   42.5897 H   0  0  0  0  0  0  0  0  0  0  0  0
   46.7628   34.6239   42.4019 H   0  0  0  0  0  0  0  0  0  0  0  0
   47.8459   32.5615   45.9706 H   0  0  0  0  0  0  0  0  0  0  0  0
   44.0929   33.1907   47.9776 H   0  0  0  0  0  0  0  0  0  0  0  0
   48.7328   29.7831   45.0328 H   0  0  0  0  0  0  0  0  0  0  0  0
   46.9097   28.7176   43.5422 H   0  0  0  0  0  0  0  0  0  0  0  0
   44.3734   27.3566   43.9988 H   0  0  0  0  0  0  0  0  0  0  0  0
   42.9141   26.6508   45.8855 H   0  0  0  0  0  0  0  0  0  0  0  0
   43.5381   27.1049   48.2204 H   0  0  0  0  0  0  0  0  0  0  0  0
   45.6826   28.3019   48.7464 H   0  0  0  0  0  0  0  0  0  0  0  0
  1  2  2  0
  2  3  1  0
  4  3  2  0
  5  4  1  0
  6  5  2  0
  6  1  1  0
  7 12  2  0
  8  7  1  0
  9  8  2  0
  9 10  1  0
 10 11  2  0
 11 12  1  0
 11 13  1  0
 13 14  1  0
 13 17  1  0
 14 15  2  0
 15  1  1  0
 15 16  1  0
 17 16  2  0
 18  6  1  0
 19 18  2  0
 20 21  1  0
 20 19  1  0
 21 26  2  0
 22 21  1  0
 22 23  2  0
 23 24  1  0
 24 25  2  0
 26 18  1  0
 26 25  1  0
  2 27  1  0
  3 28  1  0
  4 29  1  0
  5 30  1  0
  7 31  1  0
  8 32  1  0
  9 33  1  0
 14 34  1  0
 17 35  1  0
 19 36  1  0
 20 37  1  0
 22 38  1  0
 23 39  1  0
 24 40  1  0
 25 41  1  0
M  ISO  8  27  14  28  14  29  14  30  14  31  14  32  14  33  14  34  14
M  ISO  7  35  14  36  14  37   9  38  14  39  14  40  14  41  14
M  END
>  <minimizedAffinity>  (1) 
-6.44025469

>  <minimizedRMSD>  (1) 
1.52340698

$$$$
