
     RDKit          3D

 40 43  0  0  0  0  0  0  0  0999 V2000
   48.0920   30.9510   48.3600 C   0  0  0  0  0  0  0  0  0  0  0  0
   48.9330   31.4320   49.3270 C   0  0  0  0  0  0  0  0  0  0  0  0
   49.9520   30.6740   49.8550 C   0  0  0  0  0  0  0  0  0  0  0  0
   50.1120   29.3820   49.3750 C   0  0  0  0  0  0  0  0  0  0  0  0
   49.2640   28.8860   48.3970 C   0  0  0  0  0  0  0  0  0  0  0  0
   48.2560   29.6730   47.8910 C   0  0  0  0  0  0  0  0  0  0  0  0
   44.4620   35.8370   44.6120 C   0  0  0  0  0  0  0  0  0  0  0  0
   45.1920   35.7280   43.4070 C   0  0  0  0  0  0  0  0  0  0  0  0
   46.1770   34.7290   43.3030 C   0  0  0  0  0  0  0  0  0  0  0  0
   46.3600   33.9360   44.3710 N   0  0  0  0  0  0  0  0  0  0  0  0
   45.6570   34.0490   45.5140 C   0  0  0  0  0  0  0  0  0  0  0  0
   44.7180   34.9880   45.6380 N   0  0  0  0  0  0  0  0  0  0  0  0
   45.8640   33.2000   46.6370 N   0  0  0  0  0  0  0  0  0  0  0  0
   47.0660   32.5690   46.6900 C   0  0  0  0  0  0  0  0  0  0  0  0
   47.0370   31.8120   47.8500 C   0  0  0  0  0  0  0  0  0  0  0  0
   45.8510   31.9890   48.4640 N   0  0  0  0  0  0  0  0  0  0  0  0
   45.1340   32.8310   47.7320 C   0  0  0  0  0  0  0  0  0  0  0  0
   47.4120   29.1240   46.8890 N   0  0  0  0  0  0  0  0  0  0  0  0
   46.3610   28.4670   47.4500 C   0  0  0  0  0  0  0  0  0  0  0  0
   45.4070   27.8520   46.6420 C   0  0  0  0  0  0  0  0  0  0  0  0
   44.2360   27.1200   47.2070 C   0  0  0  0  0  0  0  0  0  0  0  0
   45.5660   27.9290   45.2580 C   0  0  0  0  0  0  0  0  0  0  0  0
   44.7270   27.3870   44.4980 O   0  0  0  0  0  0  0  0  0  0  0  0
   46.6260   28.5920   44.7610 N   0  0  0  0  0  0  0  0  0  0  0  0
   47.5400   29.1820   45.5510 C   0  0  0  0  0  0  0  0  0  0  0  0
   48.5540   29.8170   45.1620 O   0  0  0  0  0  0  0  0  0  0  0  0
   48.7891   32.4589   49.6940 H   0  0  0  0  0  0  0  0  0  0  0  0
   50.6177   31.0784   50.6317 H   0  0  0  0  0  0  0  0  0  0  0  0
   50.9172   28.7471   49.7732 H   0  0  0  0  0  0  0  0  0  0  0  0
   49.3977   27.8597   48.0245 H   0  0  0  0  0  0  0  0  0  0  0  0
   43.6866   36.6100   44.7177 H   0  0  0  0  0  0  0  0  0  0  0  0
   44.9941   36.4105   42.5673 H   0  0  0  0  0  0  0  0  0  0  0  0
   46.7717   34.6029   42.3862 H   0  0  0  0  0  0  0  0  0  0  0  0
   47.8893   32.6435   45.9643 H   0  0  0  0  0  0  0  0  0  0  0  0
   44.1166   33.1764   47.9679 H   0  0  0  0  0  0  0  0  0  0  0  0
   46.2641   28.4212   48.5448 H   0  0  0  0  0  0  0  0  0  0  0  0
   44.2812   27.1483   48.3057 H   0  0  0  0  0  0  0  0  0  0  0  0
   43.3057   27.5976   46.8659 H   0  0  0  0  0  0  0  0  0  0  0  0
   44.2578   26.0744   46.8659 H   0  0  0  0  0  0  0  0  0  0  0  0
   46.7414   28.6496   43.7391 H   0  0  0  0  0  0  0  0  0  0  0  0
  1  2  2  0
  2  3  1  0
  4  3  2  0
  5  4  1  0
  6  1  1  0
  6  5  2  0
  7 12  2  0
  8  7  1  0
  9  8  2  0
  9 10  1  0
 10 11  2  0
 11 12  1  0
 11 13  1  0
 13 14  1  0
 13 17  1  0
 14 15  2  0
 15  1  1  0
 15 16  1  0
 17 16  2  0
 18 19  1  0
 18  6  1  0
 20 21  1  0
 20 19  2  0
 22 20  1  0
 23 22  2  0
 24 22  1  0
 24 25  1  0
 25 18  1  0
 26 25  2  0
  2 27  1  0
  3 28  1  0
  4 29  1  0
  5 30  1  0
  7 31  1  0
  8 32  1  0
  9 33  1  0
 14 34  1  0
 17 35  1  0
 19 36  1  0
 21 37  1  0
 21 38  1  0
 21 39  1  0
 24 40  1  0
M  ISO  8  27  14  28  14  29  14  30  14  31  14  32  14  33  14  34  14
M  ISO  6  35  14  36  14  37   8  38   8  39   8  40   9
M  END
>  <minimizedAffinity>  (1) 
-6.29424286

>  <minimizedRMSD>  (1) 
1.18956459

$$$$
