
     RDKit          3D

 34 37  0  0  0  0  0  0  0  0999 V2000
   44.4480   35.9480   44.4510 C   0  0  0  0  0  0  0  0  0  0  0  0
   45.1470   35.7990   43.2540 C   0  0  0  0  0  0  0  0  0  0  0  0
   46.0990   34.7820   43.1730 C   0  0  0  0  0  0  0  0  0  0  0  0
   46.2830   34.0050   44.2620 N   0  0  0  0  0  0  0  0  0  0  0  0
   45.5880   34.1710   45.4160 C   0  0  0  0  0  0  0  0  0  0  0  0
   44.6710   35.1340   45.5250 N   0  0  0  0  0  0  0  0  0  0  0  0
   45.7970   33.3360   46.5590 N   0  0  0  0  0  0  0  0  0  0  0  0
   46.9840   32.6680   46.6040 C   0  0  0  0  0  0  0  0  0  0  0  0
   46.9380   31.9410   47.7910 C   0  0  0  0  0  0  0  0  0  0  0  0
   45.7720   32.1770   48.4120 N   0  0  0  0  0  0  0  0  0  0  0  0
   45.0740   33.0270   47.6640 C   0  0  0  0  0  0  0  0  0  0  0  0
   47.9760   31.0620   48.2990 C   0  0  0  0  0  0  0  0  0  0  0  0
   48.9320   31.5790   49.1340 C   0  0  0  0  0  0  0  0  0  0  0  0
   49.9470   30.8020   49.6540 C   0  0  0  0  0  0  0  0  0  0  0  0
   49.9780   29.4590   49.3050 C   0  0  0  0  0  0  0  0  0  0  0  0
   49.0070   28.9230   48.4550 C   0  0  0  0  0  0  0  0  0  0  0  0
   48.0060   29.7300   47.9520 C   0  0  0  0  0  0  0  0  0  0  0  0
   47.0120   29.1370   47.0700 C   0  0  0  0  0  0  0  0  0  0  0  0
   46.9260   28.9230   45.7080 C   0  0  0  0  0  0  0  0  0  0  0  0
   45.7090   28.3040   45.4680 C   0  0  0  0  0  0  0  0  0  0  0  0
   45.1180   28.1760   46.7120 C   0  0  0  0  0  0  0  0  0  0  0  0
   45.9180   28.6790   47.6270 O   0  0  0  0  0  0  0  0  0  0  0  0
   43.6943   36.7450   44.5330 H   0  0  0  0  0  0  0  0  0  0  0  0
   44.9538   36.4634   42.3988 H   0  0  0  0  0  0  0  0  0  0  0  0
   46.6799   34.6188   42.2533 H   0  0  0  0  0  0  0  0  0  0  0  0
   47.7988   32.6967   45.8656 H   0  0  0  0  0  0  0  0  0  0  0  0
   44.0732   33.4160   47.9028 H   0  0  0  0  0  0  0  0  0  0  0  0
   48.8889   32.6460   49.3978 H   0  0  0  0  0  0  0  0  0  0  0  0
   50.7065   31.2328   50.3230 H   0  0  0  0  0  0  0  0  0  0  0  0
   50.7738   28.8110   49.7009 H   0  0  0  0  0  0  0  0  0  0  0  0
   49.0402   27.8568   48.1863 H   0  0  0  0  0  0  0  0  0  0  0  0
   47.6813   29.1930   44.9553 H   0  0  0  0  0  0  0  0  0  0  0  0
   45.3014   27.9838   44.4978 H   0  0  0  0  0  0  0  0  0  0  0  0
   44.1338   27.7246   46.9057 H   0  0  0  0  0  0  0  0  0  0  0  0
  1  6  2  0
  2  1  1  0
  3  2  2  0
  3  4  1  0
  4  5  2  0
  5  6  1  0
  5  7  1  0
  7  8  1  0
  7 11  1  0
  8  9  2  0
  9 12  1  0
  9 10  1  0
 11 10  2  0
 12 13  2  0
 13 14  1  0
 15 14  2  0
 16 15  1  0
 17 12  1  0
 17 16  2  0
 18 22  1  0
 18 17  1  0
 19 18  2  0
 20 19  1  0
 20 21  2  0
 21 22  1  0
  1 23  1  0
  2 24  1  0
  3 25  1  0
  8 26  1  0
 11 27  1  0
 13 28  1  0
 14 29  1  0
 15 30  1  0
 16 31  1  0
 19 32  1  0
 20 33  1  0
 21 34  1  0
M  ISO  8  23  14  24  14  25  14  26  14  27  14  28  14  29  14  30  14
M  ISO  4  31  14  32  14  33  14  34  14
M  END
>  <minimizedAffinity>  (1) 
-5.8597126

>  <minimizedRMSD>  (1) 
0.681615531

$$$$
