
     RDKit          3D

 30 32  0  0  0  0  0  0  0  0999 V2000
   44.4560   35.8110   44.5900 C   0  0  0  0  0  0  0  0  0  0  0  0
   45.1620   35.6700   43.3740 C   0  0  0  0  0  0  0  0  0  0  0  0
   46.1400   34.6730   43.2830 C   0  0  0  0  0  0  0  0  0  0  0  0
   46.3490   33.9020   44.3690 N   0  0  0  0  0  0  0  0  0  0  0  0
   45.6520   34.0580   45.5360 C   0  0  0  0  0  0  0  0  0  0  0  0
   44.7140   34.9970   45.6610 N   0  0  0  0  0  0  0  0  0  0  0  0
   45.8910   33.2230   46.6600 N   0  0  0  0  0  0  0  0  0  0  0  0
   47.0800   32.5890   46.7230 C   0  0  0  0  0  0  0  0  0  0  0  0
   47.0570   31.8380   47.8850 C   0  0  0  0  0  0  0  0  0  0  0  0
   45.8730   32.0240   48.5050 N   0  0  0  0  0  0  0  0  0  0  0  0
   45.1580   32.8650   47.7670 C   0  0  0  0  0  0  0  0  0  0  0  0
   48.1130   30.9650   48.3870 C   0  0  0  0  0  0  0  0  0  0  0  0
   49.0490   31.5000   49.2520 C   0  0  0  0  0  0  0  0  0  0  0  0
   50.0700   30.7260   49.7570 C   0  0  0  0  0  0  0  0  0  0  0  0
   50.1380   29.3940   49.3760 C   0  0  0  0  0  0  0  0  0  0  0  0
   49.1990   28.8750   48.5130 C   0  0  0  0  0  0  0  0  0  0  0  0
   48.1500   29.6320   47.9840 C   0  0  0  0  0  0  0  0  0  0  0  0
   47.1670   29.0080   47.0680 C   0  0  0  0  0  0  0  0  0  0  0  0
   47.0870   29.7230   45.8750 F   0  0  0  0  0  0  0  0  0  0  0  0
   47.3390   27.6760   46.8830 F   0  0  0  0  0  0  0  0  0  0  0  0
   45.9080   29.1480   47.6790 F   0  0  0  0  0  0  0  0  0  0  0  0
   43.6841   36.5897   44.6782 H   0  0  0  0  0  0  0  0  0  0  0  0
   44.9479   36.3283   42.5191 H   0  0  0  0  0  0  0  0  0  0  0  0
   46.7174   34.5238   42.3587 H   0  0  0  0  0  0  0  0  0  0  0  0
   47.9030   32.6557   45.9962 H   0  0  0  0  0  0  0  0  0  0  0  0
   44.1433   33.2182   48.0030 H   0  0  0  0  0  0  0  0  0  0  0  0
   48.9774   32.5589   49.5411 H   0  0  0  0  0  0  0  0  0  0  0  0
   50.8135   31.1537   50.4457 H   0  0  0  0  0  0  0  0  0  0  0  0
   50.9426   28.7519   49.7636 H   0  0  0  0  0  0  0  0  0  0  0  0
   49.2781   27.8158   48.2267 H   0  0  0  0  0  0  0  0  0  0  0  0
  1  6  2  0
  2  1  1  0
  3  2  2  0
  3  4  1  0
  4  5  2  0
  5  6  1  0
  5  7  1  0
  7  8  1  0
  7 11  1  0
  8  9  2  0
  9 12  1  0
  9 10  1  0
 11 10  2  0
 12 13  2  0
 13 14  1  0
 15 14  2  0
 16 15  1  0
 17 12  1  0
 17 16  2  0
 18 21  1  0
 18 17  1  0
 19 18  1  0
 20 18  1  0
  1 22  1  0
  2 23  1  0
  3 24  1  0
  8 25  1  0
 11 26  1  0
 13 27  1  0
 14 28  1  0
 15 29  1  0
 16 30  1  0
M  ISO  8  22  14  23  14  24  14  25  14  26  14  27  14  28  14  29  14
M  ISO  1  30  14
M  END
>  <minimizedAffinity>  (1) 
-5.75819445

>  <minimizedRMSD>  (1) 
0.533558786

$$$$
