
     RDKit          3D

 28 30  0  0  0  0  0  0  0  0999 V2000
   44.4680   35.8330   44.5990 C   0  0  0  0  0  0  0  0  0  0  0  0
   45.1750   35.7170   43.4000 C   0  0  0  0  0  0  0  0  0  0  0  0
   46.1350   34.7220   43.3020 C   0  0  0  0  0  0  0  0  0  0  0  0
   46.3490   33.9120   44.3620 N   0  0  0  0  0  0  0  0  0  0  0  0
   45.6440   34.0470   45.5250 C   0  0  0  0  0  0  0  0  0  0  0  0
   44.7160   34.9980   45.6400 N   0  0  0  0  0  0  0  0  0  0  0  0
   45.8620   33.1980   46.6490 N   0  0  0  0  0  0  0  0  0  0  0  0
   47.0530   32.5420   46.6820 C   0  0  0  0  0  0  0  0  0  0  0  0
   47.0330   31.7980   47.8410 C   0  0  0  0  0  0  0  0  0  0  0  0
   45.8670   32.0000   48.4800 N   0  0  0  0  0  0  0  0  0  0  0  0
   45.1510   32.8510   47.7560 C   0  0  0  0  0  0  0  0  0  0  0  0
   48.0830   30.9170   48.3340 C   0  0  0  0  0  0  0  0  0  0  0  0
   48.9950   31.4000   49.2370 C   0  0  0  0  0  0  0  0  0  0  0  0
   50.0150   30.6320   49.7480 C   0  0  0  0  0  0  0  0  0  0  0  0
   50.0880   29.3040   49.3000 C   0  0  0  0  0  0  0  0  0  0  0  0
   49.1750   28.8050   48.3920 C   0  0  0  0  0  0  0  0  0  0  0  0
   48.1540   29.6090   47.8930 C   0  0  0  0  0  0  0  0  0  0  0  0
   46.9710   28.9770   46.7210 S   0  0  0  0  0  0  0  0  0  0  0  0
   43.6988   36.6126   44.7012 H   0  0  0  0  0  0  0  0  0  0  0  0
   44.9757   36.3958   42.5577 H   0  0  0  0  0  0  0  0  0  0  0  0
   46.7138   34.5938   42.3754 H   0  0  0  0  0  0  0  0  0  0  0  0
   47.8624   32.5946   45.9390 H   0  0  0  0  0  0  0  0  0  0  0  0
   44.1451   33.2168   48.0098 H   0  0  0  0  0  0  0  0  0  0  0  0
   48.9070   32.4458   49.5665 H   0  0  0  0  0  0  0  0  0  0  0  0
   50.7373   31.0381   50.4714 H   0  0  0  0  0  0  0  0  0  0  0  0
   50.8865   28.6491   49.6788 H   0  0  0  0  0  0  0  0  0  0  0  0
   49.2555   27.7597   48.0591 H   0  0  0  0  0  0  0  0  0  0  0  0
   45.9181   28.4145   47.3931 H   0  0  0  0  0  0  0  0  0  0  0  0
  1  6  2  0
  2  1  1  0
  3  2  2  0
  3  4  1  0
  4  5  2  0
  5  6  1  0
  5  7  1  0
  7  8  1  0
  7 11  1  0
  8  9  2  0
  9 12  1  0
  9 10  1  0
 11 10  2  0
 12 13  2  0
 13 14  1  0
 15 14  2  0
 16 15  1  0
 17 12  1  0
 17 16  2  0
 18 17  1  0
  1 19  1  0
  2 20  1  0
  3 21  1  0
  8 22  1  0
 11 23  1  0
 13 24  1  0
 14 25  1  0
 15 26  1  0
 16 27  1  0
 18 28  1  0
M  ISO  8  19  14  20  14  21  14  22  14  23  14  24  14  25  14  26  14
M  ISO  2  27  14  28  11
M  END
>  <minimizedAffinity>  (1) 
-5.63604975

>  <minimizedRMSD>  (1) 
0.289764434

$$$$
