
     RDKit          3D

 43 47  0  0  0  0  0  0  0  0999 V2000
   48.3510   31.0910   48.6110 C   0  0  0  0  0  0  0  0  0  0  0  0
   49.3900   31.7600   49.2320 C   0  0  0  0  0  0  0  0  0  0  0  0
   50.4590   31.0960   49.7570 C   0  0  0  0  0  0  0  0  0  0  0  0
   50.4850   29.7130   49.6560 C   0  0  0  0  0  0  0  0  0  0  0  0
   49.4480   29.0300   49.0350 C   0  0  0  0  0  0  0  0  0  0  0  0
   48.3660   29.7130   48.5050 C   0  0  0  0  0  0  0  0  0  0  0  0
   44.4520   35.6000   44.6470 C   0  0  0  0  0  0  0  0  0  0  0  0
   45.1860   35.5000   43.4680 C   0  0  0  0  0  0  0  0  0  0  0  0
   46.2310   34.5890   43.4030 C   0  0  0  0  0  0  0  0  0  0  0  0
   46.4940   33.8280   44.4940 N   0  0  0  0  0  0  0  0  0  0  0  0
   45.7460   33.9520   45.6450 C   0  0  0  0  0  0  0  0  0  0  0  0
   44.7390   34.8220   45.7280 N   0  0  0  0  0  0  0  0  0  0  0  0
   46.0300   33.1480   46.7850 N   0  0  0  0  0  0  0  0  0  0  0  0
   47.2510   32.5880   46.8780 C   0  0  0  0  0  0  0  0  0  0  0  0
   47.2410   31.8730   48.0730 C   0  0  0  0  0  0  0  0  0  0  0  0
   46.0510   32.0080   48.6670 N   0  0  0  0  0  0  0  0  0  0  0  0
   45.2950   32.7820   47.8990 C   0  0  0  0  0  0  0  0  0  0  0  0
   49.4890   27.6110   48.9400 N   0  0  0  0  0  0  0  0  0  0  0  0
   48.7420   27.0120   47.9940 C   0  0  0  0  0  0  0  0  0  0  0  0
   48.9040   25.6820   48.0500 N   0  0  0  0  0  0  0  0  0  0  0  0
   49.7780   25.4340   49.0600 C   0  0  0  0  0  0  0  0  0  0  0  0
   50.3160   24.2520   49.5760 C   0  0  0  0  0  0  0  0  0  0  0  0
   50.0190   23.1440   49.1110 O   0  0  0  0  0  0  0  0  0  0  0  0
   51.1750   24.4310   50.6110 N   0  0  0  0  0  0  0  0  0  0  0  0
   51.5090   25.6380   51.1290 C   0  0  0  0  0  0  0  0  0  0  0  0
   52.4350   25.5810   52.2200 N   0  0  0  0  0  0  0  0  0  0  0  0
   50.9810   26.7910   50.6230 N   0  0  0  0  0  0  0  0  0  0  0  0
   50.1300   26.6400   49.5990 C   0  0  0  0  0  0  0  0  0  0  0  0
   47.3270   29.0040   47.8810 N   0  0  0  0  0  0  0  0  0  0  0  0
   49.3530   32.8570   49.3043 H   0  0  0  0  0  0  0  0  0  0  0  0
   51.2783   31.6423   50.2472 H   0  0  0  0  0  0  0  0  0  0  0  0
   51.3350   29.1521   50.0717 H   0  0  0  0  0  0  0  0  0  0  0  0
   43.6239   36.3216   44.7068 H   0  0  0  0  0  0  0  0  0  0  0  0
   44.9416   36.1328   42.6021 H   0  0  0  0  0  0  0  0  0  0  0  0
   46.8321   34.4867   42.4875 H   0  0  0  0  0  0  0  0  0  0  0  0
   48.0809   32.6766   46.1615 H   0  0  0  0  0  0  0  0  0  0  0  0
   44.2584   33.0823   48.1119 H   0  0  0  0  0  0  0  0  0  0  0  0
   48.0925   27.5375   47.2784 H   0  0  0  0  0  0  0  0  0  0  0  0
   51.6020   23.5932   51.0313 H   0  0  0  0  0  0  0  0  0  0  0  0
   52.7465   26.4499   52.6770 H   0  0  0  0  0  0  0  0  0  0  0  0
   52.7895   24.6711   52.5476 H   0  0  0  0  0  0  0  0  0  0  0  0
   47.3693   27.9767   47.8189 H   0  0  0  0  0  0  0  0  0  0  0  0
   46.5225   29.5112   47.4854 H   0  0  0  0  0  0  0  0  0  0  0  0
  1  2  2  0
  2  3  1  0
  4  3  2  0
  5  4  1  0
  6  1  1  0
  6  5  2  0
  7 12  2  0
  8  7  1  0
  9  8  2  0
  9 10  1  0
 10 11  2  0
 11 12  1  0
 11 13  1  0
 13 14  1  0
 13 17  1  0
 14 15  2  0
 15  1  1  0
 15 16  1  0
 17 16  2  0
 18  5  1  0
 18 28  1  0
 19 20  2  0
 19 18  1  0
 20 21  1  0
 21 22  1  0
 21 28  2  0
 22 24  1  0
 23 22  2  0
 24 25  1  0
 25 26  1  0
 27 25  2  0
 28 27  1  0
 29  6  1  0
  2 30  1  0
  3 31  1  0
  4 32  1  0
  7 33  1  0
  8 34  1  0
  9 35  1  0
 14 36  1  0
 17 37  1  0
 19 38  1  0
 24 39  1  0
 26 40  1  0
 26 41  1  0
 29 42  1  0
 29 43  1  0
M  ISO  8  30  14  31  14  32  14  33  14  34  14  35  14  36  14  37  14
M  ISO  2  38  14  39   9
M  END
>  <minimizedAffinity>  (1) 
-6.93530226

>  <minimizedRMSD>  (1) 
1.0264914

$$$$
