
     RDKit          3D

 43 46  0  0  0  0  0  0  0  0999 V2000
   48.0320   31.0620   48.3770 C   0  0  0  0  0  0  0  0  0  0  0  0
   48.9990   31.6280   49.1920 C   0  0  0  0  0  0  0  0  0  0  0  0
   50.0210   30.8800   49.7330 C   0  0  0  0  0  0  0  0  0  0  0  0
   50.0580   29.5350   49.4400 C   0  0  0  0  0  0  0  0  0  0  0  0
   49.1020   28.9630   48.6300 C   0  0  0  0  0  0  0  0  0  0  0  0
   48.0810   29.7240   48.0930 C   0  0  0  0  0  0  0  0  0  0  0  0
   44.4600   35.8620   44.4770 C   0  0  0  0  0  0  0  0  0  0  0  0
   45.1900   35.7370   43.3050 C   0  0  0  0  0  0  0  0  0  0  0  0
   46.1710   34.7590   43.2280 C   0  0  0  0  0  0  0  0  0  0  0  0
   46.3730   33.9630   44.3090 N   0  0  0  0  0  0  0  0  0  0  0  0
   45.6300   34.1200   45.4470 C   0  0  0  0  0  0  0  0  0  0  0  0
   44.6820   35.0550   45.5440 N   0  0  0  0  0  0  0  0  0  0  0  0
   45.8420   33.2830   46.5870 N   0  0  0  0  0  0  0  0  0  0  0  0
   47.0390   32.6460   46.6710 C   0  0  0  0  0  0  0  0  0  0  0  0
   46.9890   31.9130   47.8460 C   0  0  0  0  0  0  0  0  0  0  0  0
   45.7970   32.1090   48.4400 N   0  0  0  0  0  0  0  0  0  0  0  0
   45.0980   32.9400   47.6810 C   0  0  0  0  0  0  0  0  0  0  0  0
   49.2150   27.5680   48.3770 N   0  0  0  0  0  0  0  0  0  0  0  0
   50.1890   26.6060   48.7870 C   0  0  0  0  0  0  0  0  0  0  0  0
   49.6600   25.3890   49.4590 C   0  0  0  0  0  0  0  0  0  0  0  0
   48.4030   24.9030   49.0100 N   0  0  0  0  0  0  0  0  0  0  0  0
   47.5190   25.8550   48.4200 C   0  0  0  0  0  0  0  0  0  0  0  0
   48.2150   26.8790   47.5620 C   0  0  0  0  0  0  0  0  0  0  0  0
   47.1140   29.1110   47.2670 N   0  0  0  0  0  0  0  0  0  0  0  0
   48.9491   32.7044   49.4130 H   0  0  0  0  0  0  0  0  0  0  0  0
   50.7829   31.3419   50.3781 H   0  0  0  0  0  0  0  0  0  0  0  0
   50.8608   28.9098   49.8579 H   0  0  0  0  0  0  0  0  0  0  0  0
   43.6808   36.6356   44.5431 H   0  0  0  0  0  0  0  0  0  0  0  0
   44.9947   36.4019   42.4507 H   0  0  0  0  0  0  0  0  0  0  0  0
   46.7700   34.6318   42.3142 H   0  0  0  0  0  0  0  0  0  0  0  0
   47.8732   32.7006   45.9561 H   0  0  0  0  0  0  0  0  0  0  0  0
   44.0803   33.2972   47.8970 H   0  0  0  0  0  0  0  0  0  0  0  0
   50.7410   26.2833   47.8919 H   0  0  0  0  0  0  0  0  0  0  0  0
   50.8099   27.1144   49.5394 H   0  0  0  0  0  0  0  0  0  0  0  0
   50.3970   24.5846   49.3183 H   0  0  0  0  0  0  0  0  0  0  0  0
   49.4956   25.6870   50.5050 H   0  0  0  0  0  0  0  0  0  0  0  0
   48.5844   24.1701   48.3094 H   0  0  0  0  0  0  0  0  0  0  0  0
   46.7934   25.3139   47.7949 H   0  0  0  0  0  0  0  0  0  0  0  0
   47.0383   26.4010   49.2451 H   0  0  0  0  0  0  0  0  0  0  0  0
   47.4811   27.6055   47.1831 H   0  0  0  0  0  0  0  0  0  0  0  0
   48.7014   26.3856   46.7076 H   0  0  0  0  0  0  0  0  0  0  0  0
   47.1719   28.1021   47.0676 H   0  0  0  0  0  0  0  0  0  0  0  0
   46.3506   29.6726   46.8637 H   0  0  0  0  0  0  0  0  0  0  0  0
  1  2  2  0
  2  3  1  0
  4  3  2  0
  5  4  1  0
  6  1  1  0
  6  5  2  0
  7 12  2  0
  8  7  1  0
  9  8  2  0
  9 10  1  0
 10 11  2  0
 11 12  1  0
 11 13  1  0
 13 14  1  0
 13 17  1  0
 14 15  2  0
 15  1  1  0
 15 16  1  0
 17 16  2  0
 18  5  1  0
 18 19  1  0
 19 20  1  0
 21 20  1  0
 22 21  1  0
 23 18  1  0
 23 22  1  0
 24  6  1  0
  2 25  1  0
  3 26  1  0
  4 27  1  0
  7 28  1  0
  8 29  1  0
  9 30  1  0
 14 31  1  0
 17 32  1  0
 19 33  1  0
 19 34  1  0
 20 35  1  0
 20 36  1  0
 21 37  1  0
 22 38  1  0
 22 39  1  0
 23 40  1  0
 23 41  1  0
 24 42  1  0
 24 43  1  0
M  ISO  8  25  14  26  14  27  14  28  14  29  14  30  14  31  14  32  14
M  ISO  8  33  13  34  13  35  13  36  13  37   5  38  13  39  13  40  13
M  ISO  1  41  13
M  END
>  <minimizedAffinity>  (1) 
-6.09197235

>  <minimizedRMSD>  (1) 
0.27826342

$$$$
