
     RDKit          3D

 42 46  0  0  0  0  0  0  0  0999 V2000
   48.3310   31.0920   48.5540 C   0  0  0  0  0  0  0  0  0  0  0  0
   49.3580   31.7310   49.2070 C   0  0  0  0  0  0  0  0  0  0  0  0
   50.4230   31.0510   49.7350 C   0  0  0  0  0  0  0  0  0  0  0  0
   50.4340   29.6680   49.5850 C   0  0  0  0  0  0  0  0  0  0  0  0
   49.4180   29.0100   48.9370 C   0  0  0  0  0  0  0  0  0  0  0  0
   48.3510   29.7190   48.4120 C   0  0  0  0  0  0  0  0  0  0  0  0
   44.4430   35.6400   44.6350 C   0  0  0  0  0  0  0  0  0  0  0  0
   45.1740   35.5360   43.4540 C   0  0  0  0  0  0  0  0  0  0  0  0
   46.2060   34.6190   43.3810 C   0  0  0  0  0  0  0  0  0  0  0  0
   46.4580   33.8570   44.4780 N   0  0  0  0  0  0  0  0  0  0  0  0
   45.7240   33.9780   45.6250 C   0  0  0  0  0  0  0  0  0  0  0  0
   44.7250   34.8550   45.7200 N   0  0  0  0  0  0  0  0  0  0  0  0
   46.0030   33.1720   46.7590 N   0  0  0  0  0  0  0  0  0  0  0  0
   47.2260   32.6000   46.8410 C   0  0  0  0  0  0  0  0  0  0  0  0
   47.2350   31.8820   48.0210 C   0  0  0  0  0  0  0  0  0  0  0  0
   46.0380   32.0260   48.6270 N   0  0  0  0  0  0  0  0  0  0  0  0
   45.2810   32.8040   47.8750 C   0  0  0  0  0  0  0  0  0  0  0  0
   49.4390   27.5940   48.7900 N   0  0  0  0  0  0  0  0  0  0  0  0
   48.8260   26.8740   47.8250 C   0  0  0  0  0  0  0  0  0  0  0  0
   49.0580   25.5420   47.9890 N   0  0  0  0  0  0  0  0  0  0  0  0
   49.8330   25.4680   49.0880 C   0  0  0  0  0  0  0  0  0  0  0  0
   50.4190   24.4380   49.7960 C   0  0  0  0  0  0  0  0  0  0  0  0
   51.1740   24.6230   50.8980 N   0  0  0  0  0  0  0  0  0  0  0  0
   51.3810   25.8930   51.3520 C   0  0  0  0  0  0  0  0  0  0  0  0
   50.8300   26.9280   50.6940 N   0  0  0  0  0  0  0  0  0  0  0  0
   50.0910   26.7230   49.6120 C   0  0  0  0  0  0  0  0  0  0  0  0
   50.2550   23.1030   49.3960 N   0  0  0  0  0  0  0  0  0  0  0  0
   47.3150   29.0230   47.7460 N   0  0  0  0  0  0  0  0  0  0  0  0
   49.3232   32.8257   49.3089 H   0  0  0  0  0  0  0  0  0  0  0  0
   51.2364   31.5768   50.2564 H   0  0  0  0  0  0  0  0  0  0  0  0
   51.2749   29.0890   49.9944 H   0  0  0  0  0  0  0  0  0  0  0  0
   43.6214   36.3687   44.6970 H   0  0  0  0  0  0  0  0  0  0  0  0
   44.9335   36.1747   42.5913 H   0  0  0  0  0  0  0  0  0  0  0  0
   46.8041   34.5095   42.4644 H   0  0  0  0  0  0  0  0  0  0  0  0
   48.0474   32.6887   46.1148 H   0  0  0  0  0  0  0  0  0  0  0  0
   44.2481   33.1076   48.1008 H   0  0  0  0  0  0  0  0  0  0  0  0
   48.2202   27.3060   47.0148 H   0  0  0  0  0  0  0  0  0  0  0  0
   51.9935   26.0686   52.2487 H   0  0  0  0  0  0  0  0  0  0  0  0
   50.6987   22.3457   49.9349 H   0  0  0  0  0  0  0  0  0  0  0  0
   49.6909   22.8804   48.5635 H   0  0  0  0  0  0  0  0  0  0  0  0
   47.3583   27.9978   47.6561 H   0  0  0  0  0  0  0  0  0  0  0  0
   46.5174   29.5414   47.3510 H   0  0  0  0  0  0  0  0  0  0  0  0
  1  2  2  0
  2  3  1  0
  4  3  2  0
  5  4  1  0
  6  1  1  0
  6  5  2  0
  7 12  2  0
  8  7  1  0
  9  8  2  0
  9 10  1  0
 10 11  2  0
 11 12  1  0
 11 13  1  0
 13 14  1  0
 13 17  1  0
 14 15  2  0
 15  1  1  0
 15 16  1  0
 17 16  2  0
 18  5  1  0
 18 26  1  0
 19 20  2  0
 19 18  1  0
 20 21  1  0
 21 26  2  0
 21 22  1  0
 22 23  2  0
 23 24  1  0
 25 24  2  0
 26 25  1  0
 27 22  1  0
 28  6  1  0
  2 29  1  0
  3 30  1  0
  4 31  1  0
  7 32  1  0
  8 33  1  0
  9 34  1  0
 14 35  1  0
 17 36  1  0
 19 37  1  0
 24 38  1  0
 27 39  1  0
 27 40  1  0
 28 41  1  0
 28 42  1  0
M  ISO  8  29  14  30  14  31  14  32  14  33  14  34  14  35  14  36  14
M  ISO  2  37  14  38  14
M  END
>  <minimizedAffinity>  (1) 
-6.56636524

>  <minimizedRMSD>  (1) 
0.776340961

$$$$
