
     RDKit          3D

 41 44  0  0  0  0  0  0  0  0999 V2000
   48.1610   30.9260   48.3670 C   0  0  0  0  0  0  0  0  0  0  0  0
   49.0930   31.4600   49.2160 C   0  0  0  0  0  0  0  0  0  0  0  0
   50.1230   30.7300   49.7280 C   0  0  0  0  0  0  0  0  0  0  0  0
   50.2100   29.4030   49.3640 C   0  0  0  0  0  0  0  0  0  0  0  0
   49.2860   28.8480   48.5150 C   0  0  0  0  0  0  0  0  0  0  0  0
   48.2470   29.6090   48.0050 C   0  0  0  0  0  0  0  0  0  0  0  0
   44.4670   35.7720   44.6330 C   0  0  0  0  0  0  0  0  0  0  0  0
   45.1780   35.6940   43.4500 C   0  0  0  0  0  0  0  0  0  0  0  0
   46.1740   34.7300   43.3430 C   0  0  0  0  0  0  0  0  0  0  0  0
   46.4020   33.9110   44.4000 N   0  0  0  0  0  0  0  0  0  0  0  0
   45.6790   34.0220   45.5480 C   0  0  0  0  0  0  0  0  0  0  0  0
   44.7160   34.9390   45.6790 N   0  0  0  0  0  0  0  0  0  0  0  0
   45.9220   33.1610   46.6550 N   0  0  0  0  0  0  0  0  0  0  0  0
   47.1120   32.5440   46.7140 C   0  0  0  0  0  0  0  0  0  0  0  0
   47.0920   31.7800   47.8660 C   0  0  0  0  0  0  0  0  0  0  0  0
   45.9000   31.9450   48.4810 N   0  0  0  0  0  0  0  0  0  0  0  0
   45.1800   32.7780   47.7570 C   0  0  0  0  0  0  0  0  0  0  0  0
   49.3590   27.4800   48.1260 N   0  0  0  0  0  0  0  0  0  0  0  0
   49.5550   26.6880   46.9040 C   0  0  0  0  0  0  0  0  0  0  0  0
   48.4060   25.6990   46.9670 C   0  0  0  0  0  0  0  0  0  0  0  0
   48.0010   25.6630   48.4340 C   0  0  0  0  0  0  0  0  0  0  0  0
   49.2280   26.3460   49.0540 C   0  0  0  0  0  0  0  0  0  0  0  0
   47.3010   29.0150   47.1280 N   0  0  0  0  0  0  0  0  0  0  0  0
   49.0067   32.5203   49.4957 H   0  0  0  0  0  0  0  0  0  0  0  0
   50.8594   31.1833   50.4079 H   0  0  0  0  0  0  0  0  0  0  0  0
   51.0286   28.7829   49.7583 H   0  0  0  0  0  0  0  0  0  0  0  0
   43.6763   36.5304   44.7313 H   0  0  0  0  0  0  0  0  0  0  0  0
   44.9614   36.3768   42.6152 H   0  0  0  0  0  0  0  0  0  0  0  0
   46.7650   34.6334   42.4203 H   0  0  0  0  0  0  0  0  0  0  0  0
   47.9371   32.6289   45.9915 H   0  0  0  0  0  0  0  0  0  0  0  0
   44.1586   33.1129   47.9905 H   0  0  0  0  0  0  0  0  0  0  0  0
   50.5259   26.1710   46.9166 H   0  0  0  0  0  0  0  0  0  0  0  0
   49.5634   27.2931   45.9854 H   0  0  0  0  0  0  0  0  0  0  0  0
   47.5673   26.0397   46.3421 H   0  0  0  0  0  0  0  0  0  0  0  0
   48.6933   24.7056   46.5920 H   0  0  0  0  0  0  0  0  0  0  0  0
   47.0779   26.2320   48.6187 H   0  0  0  0  0  0  0  0  0  0  0  0
   47.7716   24.6633   48.8314 H   0  0  0  0  0  0  0  0  0  0  0  0
   50.1145   25.6949   49.0363 H   0  0  0  0  0  0  0  0  0  0  0  0
   49.1314   26.6149   50.1162 H   0  0  0  0  0  0  0  0  0  0  0  0
   47.3893   28.0213   46.8718 H   0  0  0  0  0  0  0  0  0  0  0  0
   46.5266   29.5779   46.7481 H   0  0  0  0  0  0  0  0  0  0  0  0
  1  2  2  0
  2  3  1  0
  4  3  2  0
  5  4  1  0
  6  1  1  0
  6  5  2  0
  7 12  2  0
  8  7  1  0
  9  8  2  0
  9 10  1  0
 10 11  2  0
 11 12  1  0
 11 13  1  0
 13 14  1  0
 13 17  1  0
 14 15  2  0
 15  1  1  0
 15 16  1  0
 17 16  2  0
 18  5  1  0
 18 22  1  0
 19 20  1  0
 19 18  1  0
 20 21  1  0
 21 22  1  0
 23  6  1  0
  2 24  1  0
  3 25  1  0
  4 26  1  0
  7 27  1  0
  8 28  1  0
  9 29  1  0
 14 30  1  0
 17 31  1  0
 19 32  1  0
 19 33  1  0
 20 34  1  0
 20 35  1  0
 21 36  1  0
 21 37  1  0
 22 38  1  0
 22 39  1  0
 23 40  1  0
 23 41  1  0
M  ISO  8  24  14  25  14  26  14  27  14  28  14  29  14  30  14  31  14
M  ISO  8  32  13  33  13  34  13  35  13  36  13  37  13  38  13  39  13
M  END
>  <minimizedAffinity>  (1) 
-5.85896778

>  <minimizedRMSD>  (1) 
0.140919149

$$$$
