
     RDKit          3D

 36 39  0  0  0  0  0  0  0  0999 V2000
   48.3370   31.1150   48.6110 C   0  0  0  0  0  0  0  0  0  0  0  0
   49.3510   31.7830   49.2680 C   0  0  0  0  0  0  0  0  0  0  0  0
   50.4100   31.1140   49.8040 C   0  0  0  0  0  0  0  0  0  0  0  0
   50.4530   29.7460   49.6800 C   0  0  0  0  0  0  0  0  0  0  0  0
   49.4330   29.0580   49.0160 C   0  0  0  0  0  0  0  0  0  0  0  0
   48.3710   29.7420   48.4800 C   0  0  0  0  0  0  0  0  0  0  0  0
   44.4540   35.6060   44.6140 C   0  0  0  0  0  0  0  0  0  0  0  0
   45.2060   35.5040   43.4360 C   0  0  0  0  0  0  0  0  0  0  0  0
   46.2570   34.5920   43.3850 C   0  0  0  0  0  0  0  0  0  0  0  0
   46.5070   33.8410   44.4810 N   0  0  0  0  0  0  0  0  0  0  0  0
   45.7510   33.9630   45.6240 C   0  0  0  0  0  0  0  0  0  0  0  0
   44.7420   34.8320   45.6860 N   0  0  0  0  0  0  0  0  0  0  0  0
   46.0240   33.1660   46.7660 N   0  0  0  0  0  0  0  0  0  0  0  0
   47.2440   32.6050   46.8670 C   0  0  0  0  0  0  0  0  0  0  0  0
   47.2390   31.8910   48.0630 C   0  0  0  0  0  0  0  0  0  0  0  0
   46.0290   32.0310   48.6570 N   0  0  0  0  0  0  0  0  0  0  0  0
   45.2870   32.8010   47.8780 C   0  0  0  0  0  0  0  0  0  0  0  0
   49.6130   27.6530   48.9470 N   0  0  0  0  0  0  0  0  0  0  0  0
   49.2050   26.8330   47.9970 N   0  0  0  0  0  0  0  0  0  0  0  0
   49.5200   25.5640   48.2260 C   0  0  0  0  0  0  0  0  0  0  0  0
   50.1890   25.5220   49.4170 C   0  0  0  0  0  0  0  0  0  0  0  0
   50.2150   26.8400   49.8140 C   0  0  0  0  0  0  0  0  0  0  0  0
   47.3480   29.0450   47.8180 N   0  0  0  0  0  0  0  0  0  0  0  0
   49.3029   32.8780   49.3606 H   0  0  0  0  0  0  0  0  0  0  0  0
   51.2128   31.6568   50.3245 H   0  0  0  0  0  0  0  0  0  0  0  0
   51.2983   29.1868   50.1074 H   0  0  0  0  0  0  0  0  0  0  0  0
   43.6211   36.3225   44.6679 H   0  0  0  0  0  0  0  0  0  0  0  0
   44.9699   36.1341   42.5658 H   0  0  0  0  0  0  0  0  0  0  0  0
   46.8680   34.4854   42.4765 H   0  0  0  0  0  0  0  0  0  0  0  0
   48.0747   32.6927   46.1513 H   0  0  0  0  0  0  0  0  0  0  0  0
   44.2491   33.1029   48.0822 H   0  0  0  0  0  0  0  0  0  0  0  0
   49.2862   24.7063   47.5781 H   0  0  0  0  0  0  0  0  0  0  0  0
   50.6065   24.6455   49.9342 H   0  0  0  0  0  0  0  0  0  0  0  0
   50.6830   27.1851   50.7477 H   0  0  0  0  0  0  0  0  0  0  0  0
   47.3952   28.0196   47.7326 H   0  0  0  0  0  0  0  0  0  0  0  0
   46.5502   29.5590   47.4176 H   0  0  0  0  0  0  0  0  0  0  0  0
  1  2  2  0
  2  3  1  0
  4  3  2  0
  5  4  1  0
  6  1  1  0
  6  5  2  0
  7 12  2  0
  8  7  1  0
  9  8  2  0
  9 10  1  0
 10 11  2  0
 11 12  1  0
 11 13  1  0
 13 14  1  0
 13 17  1  0
 14 15  2  0
 15  1  1  0
 15 16  1  0
 17 16  2  0
 18  5  1  0
 18 22  1  0
 19 20  2  0
 19 18  1  0
 20 21  1  0
 21 22  2  0
 23  6  1  0
  2 24  1  0
  3 25  1  0
  4 26  1  0
  7 27  1  0
  8 28  1  0
  9 29  1  0
 14 30  1  0
 17 31  1  0
 20 32  1  0
 21 33  1  0
 22 34  1  0
 23 35  1  0
 23 36  1  0
M  ISO  8  24  14  25  14  26  14  27  14  28  14  29  14  30  14  31  14
M  ISO  3  32  14  33  14  34  14
M  END
>  <minimizedAffinity>  (1) 
-5.81608868

>  <minimizedRMSD>  (1) 
0.776890576

$$$$
