
     RDKit          3D

 37 40  0  0  0  0  0  0  0  0999 V2000
   48.1640   30.9090   48.3820 C   0  0  0  0  0  0  0  0  0  0  0  0
   49.1030   31.4590   49.2240 C   0  0  0  0  0  0  0  0  0  0  0  0
   50.1280   30.7060   49.7380 C   0  0  0  0  0  0  0  0  0  0  0  0
   50.1910   29.3690   49.3810 C   0  0  0  0  0  0  0  0  0  0  0  0
   49.2600   28.8110   48.5420 C   0  0  0  0  0  0  0  0  0  0  0  0
   48.2240   29.5740   48.0240 C   0  0  0  0  0  0  0  0  0  0  0  0
   44.4820   35.7540   44.6190 C   0  0  0  0  0  0  0  0  0  0  0  0
   45.2100   35.6720   43.4390 C   0  0  0  0  0  0  0  0  0  0  0  0
   46.2120   34.7110   43.3420 C   0  0  0  0  0  0  0  0  0  0  0  0
   46.4390   33.8970   44.3950 N   0  0  0  0  0  0  0  0  0  0  0  0
   45.7010   34.0070   45.5410 C   0  0  0  0  0  0  0  0  0  0  0  0
   44.7230   34.9220   45.6760 N   0  0  0  0  0  0  0  0  0  0  0  0
   45.9360   33.1520   46.6510 N   0  0  0  0  0  0  0  0  0  0  0  0
   47.1260   32.5250   46.7190 C   0  0  0  0  0  0  0  0  0  0  0  0
   47.0980   31.7690   47.8730 C   0  0  0  0  0  0  0  0  0  0  0  0
   45.9060   31.9390   48.4930 N   0  0  0  0  0  0  0  0  0  0  0  0
   45.2000   32.7790   47.7480 C   0  0  0  0  0  0  0  0  0  0  0  0
   49.3150   27.4040   48.1590 C   0  0  0  0  0  0  0  0  0  0  0  0
   49.2200   26.3540   49.0190 C   0  0  0  0  0  0  0  0  0  0  0  0
   49.2780   25.0380   48.6050 C   0  0  0  0  0  0  0  0  0  0  0  0
   49.4360   24.7670   47.3010 N   0  0  0  0  0  0  0  0  0  0  0  0
   49.5300   25.7940   46.4480 C   0  0  0  0  0  0  0  0  0  0  0  0
   49.4710   27.0740   46.8650 N   0  0  0  0  0  0  0  0  0  0  0  0
   47.2690   28.9930   47.1600 N   0  0  0  0  0  0  0  0  0  0  0  0
   49.0303   32.5238   49.4903 H   0  0  0  0  0  0  0  0  0  0  0  0
   50.8758   31.1495   50.4119 H   0  0  0  0  0  0  0  0  0  0  0  0
   51.0034   28.7425   49.7780 H   0  0  0  0  0  0  0  0  0  0  0  0
   43.6883   36.5107   44.7052 H   0  0  0  0  0  0  0  0  0  0  0  0
   44.9993   36.3514   42.5999 H   0  0  0  0  0  0  0  0  0  0  0  0
   46.8089   34.6162   42.4229 H   0  0  0  0  0  0  0  0  0  0  0  0
   47.9542   32.6004   45.9990 H   0  0  0  0  0  0  0  0  0  0  0  0
   44.1804   33.1241   47.9746 H   0  0  0  0  0  0  0  0  0  0  0  0
   49.0913   26.5627   50.0913 H   0  0  0  0  0  0  0  0  0  0  0  0
   49.1955   24.2208   49.3367 H   0  0  0  0  0  0  0  0  0  0  0  0
   49.6592   25.5872   45.3754 H   0  0  0  0  0  0  0  0  0  0  0  0
   47.3390   27.9960   46.9109 H   0  0  0  0  0  0  0  0  0  0  0  0
   46.5027   29.5664   46.7793 H   0  0  0  0  0  0  0  0  0  0  0  0
  1  2  2  0
  2  3  1  0
  4  3  2  0
  5  4  1  0
  6  1  1  0
  6  5  2  0
  7 12  2  0
  8  7  1  0
  9  8  2  0
  9 10  1  0
 10 11  2  0
 11 12  1  0
 11 13  1  0
 13 14  1  0
 13 17  1  0
 14 15  2  0
 15  1  1  0
 15 16  1  0
 17 16  2  0
 18  5  1  0
 18 19  2  0
 20 19  1  0
 21 20  2  0
 22 23  2  0
 22 21  1  0
 23 18  1  0
 24  6  1  0
  2 25  1  0
  3 26  1  0
  4 27  1  0
  7 28  1  0
  8 29  1  0
  9 30  1  0
 14 31  1  0
 17 32  1  0
 19 33  1  0
 20 34  1  0
 22 35  1  0
 24 36  1  0
 24 37  1  0
M  ISO  8  25  14  26  14  27  14  28  14  29  14  30  14  31  14  32  14
M  ISO  3  33  14  34  14  35  14
M  END
>  <minimizedAffinity>  (1) 
-5.81176567

>  <minimizedRMSD>  (1) 
0.654994845

$$$$
