
     RDKit          3D

 38 41  0  0  0  0  0  0  0  0999 V2000
   48.1340   30.9050   48.3660 C   0  0  0  0  0  0  0  0  0  0  0  0
   49.0840   31.4600   49.2100 C   0  0  0  0  0  0  0  0  0  0  0  0
   50.1090   30.6920   49.7040 C   0  0  0  0  0  0  0  0  0  0  0  0
   50.1830   29.3610   49.3550 C   0  0  0  0  0  0  0  0  0  0  0  0
   49.2440   28.8180   48.5240 C   0  0  0  0  0  0  0  0  0  0  0  0
   48.2020   29.5850   48.0170 C   0  0  0  0  0  0  0  0  0  0  0  0
   44.4700   35.7860   44.6360 C   0  0  0  0  0  0  0  0  0  0  0  0
   45.1910   35.6810   43.4430 C   0  0  0  0  0  0  0  0  0  0  0  0
   46.1720   34.7150   43.3260 C   0  0  0  0  0  0  0  0  0  0  0  0
   46.3940   33.9000   44.3940 N   0  0  0  0  0  0  0  0  0  0  0  0
   45.6780   34.0230   45.5430 C   0  0  0  0  0  0  0  0  0  0  0  0
   44.7290   34.9490   45.6730 N   0  0  0  0  0  0  0  0  0  0  0  0
   45.9170   33.1570   46.6510 N   0  0  0  0  0  0  0  0  0  0  0  0
   47.1100   32.5300   46.7080 C   0  0  0  0  0  0  0  0  0  0  0  0
   47.0670   31.7650   47.8690 C   0  0  0  0  0  0  0  0  0  0  0  0
   45.8890   31.9390   48.4700 N   0  0  0  0  0  0  0  0  0  0  0  0
   45.1680   32.7790   47.7550 C   0  0  0  0  0  0  0  0  0  0  0  0
   49.2970   27.4040   48.1250 C   0  0  0  0  0  0  0  0  0  0  0  0
   49.2920   26.3760   49.0570 C   0  0  0  0  0  0  0  0  0  0  0  0
   49.3700   25.0710   48.5720 C   0  0  0  0  0  0  0  0  0  0  0  0
   49.4490   24.7780   47.2310 C   0  0  0  0  0  0  0  0  0  0  0  0
   49.4530   25.8370   46.3040 C   0  0  0  0  0  0  0  0  0  0  0  0
   49.3760   27.0020   46.8790 N   0  0  0  0  0  0  0  0  0  0  0  0
   47.2460   28.9910   47.1660 N   0  0  0  0  0  0  0  0  0  0  0  0
   49.0158   32.5228   49.4855 H   0  0  0  0  0  0  0  0  0  0  0  0
   50.8633   31.1344   50.3714 H   0  0  0  0  0  0  0  0  0  0  0  0
   50.9988   28.7350   49.7457 H   0  0  0  0  0  0  0  0  0  0  0  0
   43.6871   36.5523   44.7352 H   0  0  0  0  0  0  0  0  0  0  0  0
   44.9793   36.3613   42.6049 H   0  0  0  0  0  0  0  0  0  0  0  0
   46.7551   34.6078   42.3995 H   0  0  0  0  0  0  0  0  0  0  0  0
   47.9396   32.6072   45.9898 H   0  0  0  0  0  0  0  0  0  0  0  0
   44.1497   33.1207   47.9925 H   0  0  0  0  0  0  0  0  0  0  0  0
   49.2290   26.5824   50.1356 H   0  0  0  0  0  0  0  0  0  0  0  0
   49.3683   24.2404   49.2931 H   0  0  0  0  0  0  0  0  0  0  0  0
   49.5080   23.7343   46.8887 H   0  0  0  0  0  0  0  0  0  0  0  0
   49.5144   25.6958   45.2148 H   0  0  0  0  0  0  0  0  0  0  0  0
   47.3238   27.9936   46.9209 H   0  0  0  0  0  0  0  0  0  0  0  0
   46.4704   29.5548   46.7899 H   0  0  0  0  0  0  0  0  0  0  0  0
  1  2  2  0
  2  3  1  0
  4  3  2  0
  5  4  1  0
  6  1  1  0
  6  5  2  0
  7 12  2  0
  8  7  1  0
  9  8  2  0
  9 10  1  0
 10 11  2  0
 11 12  1  0
 11 13  1  0
 13 14  1  0
 13 17  1  0
 14 15  2  0
 15  1  1  0
 15 16  1  0
 17 16  2  0
 18  5  1  0
 18 19  2  0
 20 19  1  0
 21 20  2  0
 22 23  2  0
 22 21  1  0
 23 18  1  0
 24  6  1  0
  2 25  1  0
  3 26  1  0
  4 27  1  0
  7 28  1  0
  8 29  1  0
  9 30  1  0
 14 31  1  0
 17 32  1  0
 19 33  1  0
 20 34  1  0
 21 35  1  0
 22 36  1  0
 24 37  1  0
 24 38  1  0
M  ISO  8  25  14  26  14  27  14  28  14  29  14  30  14  31  14  32  14
M  ISO  4  33  14  34  14  35  14  36  14
M  END
>  <minimizedAffinity>  (1) 
-5.81203032

>  <minimizedRMSD>  (1) 
0.268182188

$$$$
