
     RDKit          3D

 44 47  0  0  0  0  0  0  0  0999 V2000
   48.1410   30.8790   48.3630 C   0  0  0  0  0  0  0  0  0  0  0  0
   49.0660   31.3910   49.2340 C   0  0  0  0  0  0  0  0  0  0  0  0
   50.0960   30.6320   49.7270 C   0  0  0  0  0  0  0  0  0  0  0  0
   50.1810   29.3140   49.3190 C   0  0  0  0  0  0  0  0  0  0  0  0
   49.2530   28.7820   48.4390 C   0  0  0  0  0  0  0  0  0  0  0  0
   48.2280   29.5650   47.9570 C   0  0  0  0  0  0  0  0  0  0  0  0
   44.4740   35.7710   44.6530 C   0  0  0  0  0  0  0  0  0  0  0  0
   45.1910   35.6800   43.4620 C   0  0  0  0  0  0  0  0  0  0  0  0
   46.1840   34.7070   43.3430 C   0  0  0  0  0  0  0  0  0  0  0  0
   46.4070   33.8910   44.3980 N   0  0  0  0  0  0  0  0  0  0  0  0
   45.6810   34.0060   45.5620 C   0  0  0  0  0  0  0  0  0  0  0  0
   44.7320   34.9300   45.6860 N   0  0  0  0  0  0  0  0  0  0  0  0
   45.9350   33.1370   46.6520 N   0  0  0  0  0  0  0  0  0  0  0  0
   47.1230   32.5090   46.7120 C   0  0  0  0  0  0  0  0  0  0  0  0
   47.0730   31.7390   47.8760 C   0  0  0  0  0  0  0  0  0  0  0  0
   45.8870   31.9120   48.4830 N   0  0  0  0  0  0  0  0  0  0  0  0
   45.1830   32.7620   47.7480 C   0  0  0  0  0  0  0  0  0  0  0  0
   49.4140   27.4150   48.0700 N   0  0  0  0  0  0  0  0  0  0  0  0
   49.0380   26.3240   48.9770 C   0  0  0  0  0  0  0  0  0  0  0  0
   47.8370   25.6250   48.3770 C   0  0  0  0  0  0  0  0  0  0  0  0
   48.0960   25.3240   46.9330 C   0  0  0  0  0  0  0  0  0  0  0  0
   49.5580   25.5250   46.5960 C   0  0  0  0  0  0  0  0  0  0  0  0
   49.9590   26.9770   46.7780 C   0  0  0  0  0  0  0  0  0  0  0  0
   47.3010   28.9900   47.0620 N   0  0  0  0  0  0  0  0  0  0  0  0
   48.9799   32.4420   49.5471 H   0  0  0  0  0  0  0  0  0  0  0  0
   50.8314   31.0584   50.4251 H   0  0  0  0  0  0  0  0  0  0  0  0
   50.9959   28.6797   49.6980 H   0  0  0  0  0  0  0  0  0  0  0  0
   43.6888   36.5343   44.7572 H   0  0  0  0  0  0  0  0  0  0  0  0
   44.9775   36.3648   42.6281 H   0  0  0  0  0  0  0  0  0  0  0  0
   46.7690   34.6065   42.4169 H   0  0  0  0  0  0  0  0  0  0  0  0
   47.9556   32.5856   45.9973 H   0  0  0  0  0  0  0  0  0  0  0  0
   44.1650   33.1118   47.9745 H   0  0  0  0  0  0  0  0  0  0  0  0
   49.8731   25.6152   49.0779 H   0  0  0  0  0  0  0  0  0  0  0  0
   48.7977   26.7169   49.9760 H   0  0  0  0  0  0  0  0  0  0  0  0
   47.6526   24.6856   48.9187 H   0  0  0  0  0  0  0  0  0  0  0  0
   46.9564   26.2790   48.4600 H   0  0  0  0  0  0  0  0  0  0  0  0
   47.8186   24.2797   46.7269 H   0  0  0  0  0  0  0  0  0  0  0  0
   47.4947   26.0086   46.3167 H   0  0  0  0  0  0  0  0  0  0  0  0
   49.7304   25.2318   45.5499 H   0  0  0  0  0  0  0  0  0  0  0  0
   50.1640   24.9047   47.2728 H   0  0  0  0  0  0  0  0  0  0  0  0
   51.0552   27.0687   46.7799 H   0  0  0  0  0  0  0  0  0  0  0  0
   49.5696   27.5974   45.9573 H   0  0  0  0  0  0  0  0  0  0  0  0
   47.3994   28.0037   46.7818 H   0  0  0  0  0  0  0  0  0  0  0  0
   46.5260   29.5565   46.6888 H   0  0  0  0  0  0  0  0  0  0  0  0
  1  2  2  0
  2  3  1  0
  4  3  2  0
  5  4  1  0
  6  1  1  0
  6  5  2  0
  7 12  2  0
  8  7  1  0
  9  8  2  0
  9 10  1  0
 10 11  2  0
 11 12  1  0
 11 13  1  0
 13 14  1  0
 13 17  1  0
 14 15  2  0
 15  1  1  0
 15 16  1  0
 17 16  2  0
 18  5  1  0
 18 19  1  0
 20 19  1  0
 21 20  1  0
 22 23  1  0
 22 21  1  0
 23 18  1  0
 24  6  1  0
  2 25  1  0
  3 26  1  0
  4 27  1  0
  7 28  1  0
  8 29  1  0
  9 30  1  0
 14 31  1  0
 17 32  1  0
 19 33  1  0
 19 34  1  0
 20 35  1  0
 20 36  1  0
 21 37  1  0
 21 38  1  0
 22 39  1  0
 22 40  1  0
 23 41  1  0
 23 42  1  0
 24 43  1  0
 24 44  1  0
M  ISO  8  25  14  26  14  27  14  28  14  29  14  30  14  31  14  32  14
M  ISO  8  33  13  34  13  35  13  36  13  37  13  38  13  39  13  40  13
M  ISO  2  41  13  42  13
M  END
>  <minimizedAffinity>  (1) 
-5.8520937

>  <minimizedRMSD>  (1) 
0.161777571

$$$$
