
     RDKit          3D

 36 39  0  0  0  0  0  0  0  0999 V2000
   48.1730   31.0090   48.4200 C   0  0  0  0  0  0  0  0  0  0  0  0
   49.0990   31.5770   49.2740 C   0  0  0  0  0  0  0  0  0  0  0  0
   50.1340   30.8730   49.8060 C   0  0  0  0  0  0  0  0  0  0  0  0
   50.2290   29.5220   49.4500 C   0  0  0  0  0  0  0  0  0  0  0  0
   49.3060   28.9260   48.5900 C   0  0  0  0  0  0  0  0  0  0  0  0
   48.2810   29.6800   48.0810 C   0  0  0  0  0  0  0  0  0  0  0  0
   44.4560   35.7630   44.5880 C   0  0  0  0  0  0  0  0  0  0  0  0
   45.1880   35.6770   43.4180 C   0  0  0  0  0  0  0  0  0  0  0  0
   46.1930   34.7360   43.3360 C   0  0  0  0  0  0  0  0  0  0  0  0
   46.4280   33.9280   44.4000 N   0  0  0  0  0  0  0  0  0  0  0  0
   45.6850   34.0400   45.5380 C   0  0  0  0  0  0  0  0  0  0  0  0
   44.7090   34.9420   45.6440 N   0  0  0  0  0  0  0  0  0  0  0  0
   45.9260   33.1940   46.6620 N   0  0  0  0  0  0  0  0  0  0  0  0
   47.1300   32.5940   46.7310 C   0  0  0  0  0  0  0  0  0  0  0  0
   47.0940   31.8460   47.9000 C   0  0  0  0  0  0  0  0  0  0  0  0
   45.9030   32.0010   48.5040 N   0  0  0  0  0  0  0  0  0  0  0  0
   45.1740   32.8200   47.7650 C   0  0  0  0  0  0  0  0  0  0  0  0
   49.4850   27.5300   48.2820 C   0  0  0  0  0  0  0  0  0  0  0  0
   49.1010   26.3970   48.8650 C   0  0  0  0  0  0  0  0  0  0  0  0
   49.4110   25.1790   48.3540 C   0  0  0  0  0  0  0  0  0  0  0  0
   50.1820   25.2090   47.1430 C   0  0  0  0  0  0  0  0  0  0  0  0
   50.4040   27.0390   46.8330 S   0  0  0  0  0  0  0  0  0  0  0  0
   47.3520   29.0810   47.2160 N   0  0  0  0  0  0  0  0  0  0  0  0
   48.9949   32.6408   49.5339 H   0  0  0  0  0  0  0  0  0  0  0  0
   50.8620   31.3426   50.4838 H   0  0  0  0  0  0  0  0  0  0  0  0
   51.0512   28.9160   49.8583 H   0  0  0  0  0  0  0  0  0  0  0  0
   43.6527   36.5103   44.6671 H   0  0  0  0  0  0  0  0  0  0  0  0
   44.9733   36.3449   42.5707 H   0  0  0  0  0  0  0  0  0  0  0  0
   46.7956   34.6420   42.4206 H   0  0  0  0  0  0  0  0  0  0  0  0
   47.9616   32.6784   46.0160 H   0  0  0  0  0  0  0  0  0  0  0  0
   44.1478   33.1480   47.9871 H   0  0  0  0  0  0  0  0  0  0  0  0
   48.5123   26.4498   49.7927 H   0  0  0  0  0  0  0  0  0  0  0  0
   49.0955   24.2395   48.8313 H   0  0  0  0  0  0  0  0  0  0  0  0
   50.5513   24.3630   46.5447 H   0  0  0  0  0  0  0  0  0  0  0  0
   47.4447   28.0850   46.9705 H   0  0  0  0  0  0  0  0  0  0  0  0
   46.5776   29.6374   46.8267 H   0  0  0  0  0  0  0  0  0  0  0  0
  1  2  2  0
  2  3  1  0
  4  3  2  0
  5  4  1  0
  6  1  1  0
  6  5  2  0
  7 12  2  0
  8  7  1  0
  9  8  2  0
  9 10  1  0
 10 11  2  0
 11 12  1  0
 11 13  1  0
 13 14  1  0
 13 17  1  0
 14 15  2  0
 15  1  1  0
 15 16  1  0
 17 16  2  0
 18  5  1  0
 18 19  2  0
 20 19  1  0
 21 20  2  0
 22 21  1  0
 22 18  1  0
 23  6  1  0
  2 24  1  0
  3 25  1  0
  4 26  1  0
  7 27  1  0
  8 28  1  0
  9 29  1  0
 14 30  1  0
 17 31  1  0
 19 32  1  0
 20 33  1  0
 21 34  1  0
 23 35  1  0
 23 36  1  0
M  ISO  8  24  14  25  14  26  14  27  14  28  14  29  14  30  14  31  14
M  ISO  3  32  14  33  14  34  14
M  END
>  <minimizedAffinity>  (1) 
-5.75364685

>  <minimizedRMSD>  (1) 
0.203629851

$$$$
