
     RDKit          3D

 33 34  0  0  0  0  0  0  0  0999 V2000
   45.4650   35.1580   42.7980 C   0  0  0  0  0  0  0  0  0  0  0  0
   45.0400   34.6150   45.1920 C   0  0  0  0  0  0  0  0  0  0  0  0
   45.7730   34.3570   44.0210 C   0  0  0  0  0  0  0  0  0  0  0  0
   46.7420   33.3570   44.1030 C   0  0  0  0  0  0  0  0  0  0  0  0
   46.9340   32.7000   45.2560 N   0  0  0  0  0  0  0  0  0  0  0  0
   46.2110   32.9770   46.3590 C   0  0  0  0  0  0  0  0  0  0  0  0
   45.2670   33.9360   46.3140 N   0  0  0  0  0  0  0  0  0  0  0  0
   46.5690   35.0070   41.8010 C   0  0  0  0  0  0  0  0  0  0  0  0
   45.2780   36.5920   43.2160 C   0  0  0  0  0  0  0  0  0  0  0  0
   44.1390   34.6690   42.2310 C   0  0  0  0  0  0  0  0  0  0  0  0
   43.5140   35.7030   41.5770 O   0  0  0  0  0  0  0  0  0  0  0  0
   42.3090   35.4490   40.9260 C   0  0  0  0  0  0  0  0  0  0  0  0
   41.0730   35.4490   41.5510 C   0  0  0  0  0  0  0  0  0  0  0  0
   40.1550   35.1520   40.5470 C   0  0  0  0  0  0  0  0  0  0  0  0
   40.8030   34.9830   39.3860 N   0  0  0  0  0  0  0  0  0  0  0  0
   42.0910   35.1600   39.6080 N   0  0  0  0  0  0  0  0  0  0  0  0
   40.2110   34.6620   38.0980 C   0  0  0  0  0  0  0  0  0  0  0  0
   38.8240   34.6570   38.1680 F   0  0  0  0  0  0  0  0  0  0  0  0
   40.5460   35.6340   37.1780 F   0  0  0  0  0  0  0  0  0  0  0  0
   40.6810   33.4360   37.6740 F   0  0  0  0  0  0  0  0  0  0  0  0
   44.2631   35.3937   45.1810 H   0  0  0  0  0  0  0  0  0  0  0  0
   47.3494   33.1071   43.2206 H   0  0  0  0  0  0  0  0  0  0  0  0
   46.3912   32.4223   47.2916 H   0  0  0  0  0  0  0  0  0  0  0  0
   47.5249   34.8763   42.3294 H   0  0  0  0  0  0  0  0  0  0  0  0
   46.3754   34.1270   41.1701 H   0  0  0  0  0  0  0  0  0  0  0  0
   46.6189   35.9067   41.1701 H   0  0  0  0  0  0  0  0  0  0  0  0
   45.2697   36.6557   44.3141 H   0  0  0  0  0  0  0  0  0  0  0  0
   46.1044   37.2002   42.8197 H   0  0  0  0  0  0  0  0  0  0  0  0
   44.3232   36.9679   42.8197 H   0  0  0  0  0  0  0  0  0  0  0  0
   44.3229   33.8458   41.5249 H   0  0  0  0  0  0  0  0  0  0  0  0
   43.4982   34.3114   43.0504 H   0  0  0  0  0  0  0  0  0  0  0  0
   40.8618   35.6422   42.6131 H   0  0  0  0  0  0  0  0  0  0  0  0
   39.0669   35.0690   40.6853 H   0  0  0  0  0  0  0  0  0  0  0  0
  1  9  1  0
  1  3  1  0
  2  7  2  0
  3  4  2  0
  3  2  1  0
  4  5  1  0
  5  6  2  0
  7  6  1  0
  8  1  1  0
 10  1  1  0
 11 10  1  0
 12 13  1  0
 12 11  1  0
 14 13  2  0
 15 16  1  0
 15 14  1  0
 16 12  2  0
 17 18  1  0
 17 15  1  0
 19 17  1  0
 20 17  1  0
  2 21  1  0
  4 22  1  0
  6 23  1  0
  8 24  1  0
  8 25  1  0
  8 26  1  0
  9 27  1  0
  9 28  1  0
  9 29  1  0
 10 30  1  0
 10 31  1  0
 13 32  1  0
 14 33  1  0
M  ISO  8  21  14  22  14  23  14  24   8  25   8  26   8  27   8  28   8
M  ISO  5  29   8  30   8  31   8  32  14  33  14
M  END
>  <minimizedAffinity>  (1) 
-5.62537766

>  <minimizedRMSD>  (1) 
0.780712485

$$$$
