
     RDKit          3D

 31 33  0  0  0  0  0  0  0  0999 V2000
   44.4510   35.8300   44.5730 C   0  0  0  0  0  0  0  0  0  0  0  0
   45.1700   35.7290   43.3880 C   0  0  0  0  0  0  0  0  0  0  0  0
   46.1570   34.7600   43.2860 C   0  0  0  0  0  0  0  0  0  0  0  0
   46.3850   33.9440   44.3490 N   0  0  0  0  0  0  0  0  0  0  0  0
   45.6490   34.0790   45.5040 C   0  0  0  0  0  0  0  0  0  0  0  0
   44.6940   35.0070   45.6190 N   0  0  0  0  0  0  0  0  0  0  0  0
   45.8780   33.2270   46.6280 N   0  0  0  0  0  0  0  0  0  0  0  0
   47.0740   32.6070   46.6930 C   0  0  0  0  0  0  0  0  0  0  0  0
   47.0420   31.8590   47.8520 C   0  0  0  0  0  0  0  0  0  0  0  0
   45.8500   32.0310   48.4630 N   0  0  0  0  0  0  0  0  0  0  0  0
   45.1430   32.8630   47.7190 C   0  0  0  0  0  0  0  0  0  0  0  0
   48.1070   31.0020   48.3730 C   0  0  0  0  0  0  0  0  0  0  0  0
   49.0460   31.5530   49.2030 C   0  0  0  0  0  0  0  0  0  0  0  0
   50.0710   30.8070   49.7280 C   0  0  0  0  0  0  0  0  0  0  0  0
   50.1370   29.4720   49.3950 C   0  0  0  0  0  0  0  0  0  0  0  0
   49.1970   28.9140   48.5610 C   0  0  0  0  0  0  0  0  0  0  0  0
   48.1720   29.6800   48.0430 C   0  0  0  0  0  0  0  0  0  0  0  0
   47.2150   29.0730   47.1840 N   0  0  0  0  0  0  0  0  0  0  0  0
   49.3130   27.5170   48.2470 N   0  0  0  0  0  0  0  0  0  0  0  0
   43.6668   36.5962   44.6625 H   0  0  0  0  0  0  0  0  0  0  0  0
   44.9601   36.4053   42.5462 H   0  0  0  0  0  0  0  0  0  0  0  0
   46.7444   34.6538   42.3621 H   0  0  0  0  0  0  0  0  0  0  0  0
   47.9019   32.6820   45.9726 H   0  0  0  0  0  0  0  0  0  0  0  0
   44.1229   33.2080   47.9434 H   0  0  0  0  0  0  0  0  0  0  0  0
   48.9770   32.6214   49.4556 H   0  0  0  0  0  0  0  0  0  0  0  0
   50.8181   31.2617   50.3952 H   0  0  0  0  0  0  0  0  0  0  0  0
   50.9476   28.8478   49.7992 H   0  0  0  0  0  0  0  0  0  0  0  0
   47.2914   28.0720   46.9536 H   0  0  0  0  0  0  0  0  0  0  0  0
   46.4454   29.6343   46.7922 H   0  0  0  0  0  0  0  0  0  0  0  0
   48.6243   27.0700   47.6251 H   0  0  0  0  0  0  0  0  0  0  0  0
   50.0849   26.9623   48.6438 H   0  0  0  0  0  0  0  0  0  0  0  0
  1  6  2  0
  2  1  1  0
  3  2  2  0
  3  4  1  0
  4  5  2  0
  5  6  1  0
  5  7  1  0
  7  8  1  0
  7 11  1  0
  8  9  2  0
  9 12  1  0
  9 10  1  0
 11 10  2  0
 12 13  2  0
 13 14  1  0
 15 14  2  0
 16 15  1  0
 17 12  1  0
 17 16  2  0
 18 17  1  0
 19 16  1  0
  1 20  1  0
  2 21  1  0
  3 22  1  0
  8 23  1  0
 11 24  1  0
 13 25  1  0
 14 26  1  0
 15 27  1  0
 18 28  1  0
 18 29  1  0
 19 30  1  0
 19 31  1  0
M  ISO  8  20  14  21  14  22  14  23  14  24  14  25  14  26  14  27  14
M  END
>  <minimizedAffinity>  (1) 
-5.7189889

>  <minimizedRMSD>  (1) 
0.0541706234

$$$$
