
     RDKit          3D

 40 43  0  0  0  0  0  0  0  0999 V2000
   48.0250   30.7320   48.4280 C   0  0  0  0  0  0  0  0  0  0  0  0
   48.7840   31.1410   49.5050 C   0  0  0  0  0  0  0  0  0  0  0  0
   49.7580   30.3280   50.0170 C   0  0  0  0  0  0  0  0  0  0  0  0
   49.9740   29.0720   49.4280 C   0  0  0  0  0  0  0  0  0  0  0  0
   49.1990   28.6920   48.3510 C   0  0  0  0  0  0  0  0  0  0  0  0
   48.2240   29.5000   47.8350 C   0  0  0  0  0  0  0  0  0  0  0  0
   44.5480   35.7310   44.6670 C   0  0  0  0  0  0  0  0  0  0  0  0
   45.2610   35.6000   43.4800 C   0  0  0  0  0  0  0  0  0  0  0  0
   46.2170   34.5940   43.3700 C   0  0  0  0  0  0  0  0  0  0  0  0
   46.3970   33.7880   44.4520 N   0  0  0  0  0  0  0  0  0  0  0  0
   45.6840   33.9440   45.5950 C   0  0  0  0  0  0  0  0  0  0  0  0
   44.7610   34.9010   45.7260 N   0  0  0  0  0  0  0  0  0  0  0  0
   45.9060   33.0780   46.7000 N   0  0  0  0  0  0  0  0  0  0  0  0
   47.0560   32.3940   46.7590 C   0  0  0  0  0  0  0  0  0  0  0  0
   47.0020   31.6400   47.9260 C   0  0  0  0  0  0  0  0  0  0  0  0
   45.8310   31.8810   48.5420 N   0  0  0  0  0  0  0  0  0  0  0  0
   45.1540   32.7510   47.8100 C   0  0  0  0  0  0  0  0  0  0  0  0
   47.4530   29.0730   46.7330 N   0  0  0  0  0  0  0  0  0  0  0  0
   49.4580   27.3820   47.7730 C   0  0  0  0  0  0  0  0  0  0  0  0
   50.0510   27.1810   46.6920 O   0  0  0  0  0  0  0  0  0  0  0  0
   48.9940   26.2080   48.5050 C   0  0  0  0  0  0  0  0  0  0  0  0
   49.8690   25.4330   49.2410 C   0  0  0  0  0  0  0  0  0  0  0  0
   49.5630   24.3070   49.9750 C   0  0  0  0  0  0  0  0  0  0  0  0
   48.2170   23.9430   49.9460 C   0  0  0  0  0  0  0  0  0  0  0  0
   47.3050   24.7060   49.2120 C   0  0  0  0  0  0  0  0  0  0  0  0
   47.7130   25.7950   48.5260 N   0  0  0  0  0  0  0  0  0  0  0  0
   48.6047   32.1284   49.9555 H   0  0  0  0  0  0  0  0  0  0  0  0
   50.3624   30.6533   50.8766 H   0  0  0  0  0  0  0  0  0  0  0  0
   50.7511   28.3993   49.8199 H   0  0  0  0  0  0  0  0  0  0  0  0
   43.7923   36.5257   44.7529 H   0  0  0  0  0  0  0  0  0  0  0  0
   45.0719   36.2828   42.6386 H   0  0  0  0  0  0  0  0  0  0  0  0
   46.8017   34.4564   42.4485 H   0  0  0  0  0  0  0  0  0  0  0  0
   47.8790   32.4230   46.0297 H   0  0  0  0  0  0  0  0  0  0  0  0
   44.1560   33.1482   48.0472 H   0  0  0  0  0  0  0  0  0  0  0  0
   46.7200   29.6862   46.3488 H   0  0  0  0  0  0  0  0  0  0  0  0
   47.6232   28.1481   46.3128 H   0  0  0  0  0  0  0  0  0  0  0  0
   50.9229   25.7481   49.2415 H   0  0  0  0  0  0  0  0  0  0  0  0
   50.3196   23.7411   50.5383 H   0  0  0  0  0  0  0  0  0  0  0  0
   47.8739   23.0568   50.5000 H   0  0  0  0  0  0  0  0  0  0  0  0
   46.2440   24.4165   49.1929 H   0  0  0  0  0  0  0  0  0  0  0  0
  1  2  2  0
  2  3  1  0
  4  3  2  0
  5  4  1  0
  6  5  2  0
  6  1  1  0
  7 12  2  0
  8  7  1  0
  9  8  2  0
  9 10  1  0
 10 11  2  0
 11 12  1  0
 11 13  1  0
 13 14  1  0
 13 17  1  0
 14 15  2  0
 15  1  1  0
 15 16  1  0
 17 16  2  0
 18  6  1  0
 19  5  1  0
 19 21  1  0
 20 19  2  0
 21 26  1  0
 21 22  2  0
 22 23  1  0
 24 23  2  0
 25 24  1  0
 26 25  2  0
  2 27  1  0
  3 28  1  0
  4 29  1  0
  7 30  1  0
  8 31  1  0
  9 32  1  0
 14 33  1  0
 17 34  1  0
 18 35  1  0
 18 36  1  0
 22 37  1  0
 23 38  1  0
 24 39  1  0
 25 40  1  0
M  ISO  8  27  14  28  14  29  14  30  14  31  14  32  14  33  14  34  14
M  ISO  4  37  14  38  14  39  14  40  14
M  END
>  <minimizedAffinity>  (1) 
-6.18332148

>  <minimizedRMSD>  (1) 
2.40101361

$$$$
