
     RDKit          3D

 46 49  0  0  0  0  0  0  0  0999 V2000
   48.0730   31.0510   48.3770 C   0  0  0  0  0  0  0  0  0  0  0  0
   49.0100   31.6300   49.2260 C   0  0  0  0  0  0  0  0  0  0  0  0
   50.0300   30.8810   49.7590 C   0  0  0  0  0  0  0  0  0  0  0  0
   50.1110   29.5210   49.4290 C   0  0  0  0  0  0  0  0  0  0  0  0
   49.1790   28.9820   48.5950 C   0  0  0  0  0  0  0  0  0  0  0  0
   48.1460   29.7070   48.0490 C   0  0  0  0  0  0  0  0  0  0  0  0
   44.4470   35.8330   44.4750 C   0  0  0  0  0  0  0  0  0  0  0  0
   45.2000   35.7190   43.3020 C   0  0  0  0  0  0  0  0  0  0  0  0
   46.2010   34.7640   43.2320 C   0  0  0  0  0  0  0  0  0  0  0  0
   46.4070   33.9720   44.3170 N   0  0  0  0  0  0  0  0  0  0  0  0
   45.6550   34.1040   45.4540 C   0  0  0  0  0  0  0  0  0  0  0  0
   44.6770   35.0220   45.5530 N   0  0  0  0  0  0  0  0  0  0  0  0
   45.8810   33.2720   46.5790 N   0  0  0  0  0  0  0  0  0  0  0  0
   47.0610   32.6410   46.6670 C   0  0  0  0  0  0  0  0  0  0  0  0
   47.0230   31.9040   47.8430 C   0  0  0  0  0  0  0  0  0  0  0  0
   45.8400   32.1010   48.4360 N   0  0  0  0  0  0  0  0  0  0  0  0
   45.1420   32.9340   47.6690 C   0  0  0  0  0  0  0  0  0  0  0  0
   49.3020   27.5750   48.2510 C   0  0  0  0  0  0  0  0  0  0  0  0
   48.3680   26.7610   48.2310 O   0  0  0  0  0  0  0  0  0  0  0  0
   50.5770   27.0270   47.8990 N   0  0  0  0  0  0  0  0  0  0  0  0
   51.1520   25.9480   48.6770 C   0  0  0  0  0  0  0  0  0  0  0  0
   52.4750   26.3030   49.3110 C   0  0  0  0  0  0  0  0  0  0  0  0
   53.4500   26.4370   48.1340 C   0  0  0  0  0  0  0  0  0  0  0  0
   52.9060   27.5390   47.2940 C   0  0  0  0  0  0  0  0  0  0  0  0
   51.4810   27.3570   46.8450 C   0  0  0  0  0  0  0  0  0  0  0  0
   47.1960   29.1230   47.2010 N   0  0  0  0  0  0  0  0  0  0  0  0
   48.9332   32.6991   49.4731 H   0  0  0  0  0  0  0  0  0  0  0  0
   50.7694   31.3394   50.4321 H   0  0  0  0  0  0  0  0  0  0  0  0
   50.9182   28.8962   49.8390 H   0  0  0  0  0  0  0  0  0  0  0  0
   43.6523   36.5914   44.5324 H   0  0  0  0  0  0  0  0  0  0  0  0
   44.9998   36.3796   42.4455 H   0  0  0  0  0  0  0  0  0  0  0  0
   46.8117   34.6500   42.3242 H   0  0  0  0  0  0  0  0  0  0  0  0
   47.8934   32.6963   45.9501 H   0  0  0  0  0  0  0  0  0  0  0  0
   44.1248   33.2936   47.8833 H   0  0  0  0  0  0  0  0  0  0  0  0
   50.4445   25.6784   49.4750 H   0  0  0  0  0  0  0  0  0  0  0  0
   51.3378   25.1131   47.9853 H   0  0  0  0  0  0  0  0  0  0  0  0
   52.3987   27.2525   49.8611 H   0  0  0  0  0  0  0  0  0  0  0  0
   52.8035   25.5459   50.0382 H   0  0  0  0  0  0  0  0  0  0  0  0
   54.4575   26.6901   48.4957 H   0  0  0  0  0  0  0  0  0  0  0  0
   53.5404   25.4978   47.5685 H   0  0  0  0  0  0  0  0  0  0  0  0
   52.9634   28.4708   47.8757 H   0  0  0  0  0  0  0  0  0  0  0  0
   53.5155   27.5552   46.3785 H   0  0  0  0  0  0  0  0  0  0  0  0
   51.1425   28.2947   46.3802 H   0  0  0  0  0  0  0  0  0  0  0  0
   51.4745   26.5096   46.1437 H   0  0  0  0  0  0  0  0  0  0  0  0
   47.2620   28.1225   46.9652 H   0  0  0  0  0  0  0  0  0  0  0  0
   46.4315   29.6941   46.8133 H   0  0  0  0  0  0  0  0  0  0  0  0
  1  2  2  0
  2  3  1  0
  4  3  2  0
  5  4  1  0
  6  1  1  0
  6  5  2  0
  7 12  2  0
  8  7  1  0
  9  8  2  0
  9 10  1  0
 10 11  2  0
 11 12  1  0
 11 13  1  0
 13 14  1  0
 13 17  1  0
 14 15  2  0
 15  1  1  0
 15 16  1  0
 17 16  2  0
 18  5  1  0
 19 18  2  0
 20 18  1  0
 20 21  1  0
 21 22  1  0
 23 22  1  0
 24 23  1  0
 25 24  1  0
 25 20  1  0
 26  6  1  0
  2 27  1  0
  3 28  1  0
  4 29  1  0
  7 30  1  0
  8 31  1  0
  9 32  1  0
 14 33  1  0
 17 34  1  0
 21 35  1  0
 21 36  1  0
 22 37  1  0
 22 38  1  0
 23 39  1  0
 23 40  1  0
 24 41  1  0
 24 42  1  0
 25 43  1  0
 25 44  1  0
 26 45  1  0
 26 46  1  0
M  ISO  8  27  14  28  14  29  14  30  14  31  14  32  14  33  14  34  14
M  ISO  8  35  13  36  13  37  13  38  13  39  13  40  13  41  13  42  13
M  ISO  2  43  13  44  13
M  END
>  <minimizedAffinity>  (1) 
-5.88344049

>  <minimizedRMSD>  (1) 
1.77873731

$$$$
