
     RDKit          3D

 38 41  0  0  0  0  0  0  0  0999 V2000
   48.0970   30.9900   48.3310 C   0  0  0  0  0  0  0  0  0  0  0  0
   48.9980   31.5170   49.2190 C   0  0  0  0  0  0  0  0  0  0  0  0
   50.0140   30.7570   49.7330 C   0  0  0  0  0  0  0  0  0  0  0  0
   50.1110   29.4120   49.3240 C   0  0  0  0  0  0  0  0  0  0  0  0
   49.1900   28.9020   48.4270 C   0  0  0  0  0  0  0  0  0  0  0  0
   48.1810   29.6660   47.9200 C   0  0  0  0  0  0  0  0  0  0  0  0
   44.4400   35.8320   44.5370 C   0  0  0  0  0  0  0  0  0  0  0  0
   45.1650   35.7380   43.3630 C   0  0  0  0  0  0  0  0  0  0  0  0
   46.1630   34.7800   43.2680 C   0  0  0  0  0  0  0  0  0  0  0  0
   46.3760   33.9800   44.3450 N   0  0  0  0  0  0  0  0  0  0  0  0
   45.6430   34.0990   45.4900 C   0  0  0  0  0  0  0  0  0  0  0  0
   44.6680   35.0160   45.6170 N   0  0  0  0  0  0  0  0  0  0  0  0
   45.8940   33.2470   46.5900 N   0  0  0  0  0  0  0  0  0  0  0  0
   47.0740   32.6100   46.6560 C   0  0  0  0  0  0  0  0  0  0  0  0
   47.0410   31.8560   47.8230 C   0  0  0  0  0  0  0  0  0  0  0  0
   45.8630   32.0490   48.4310 N   0  0  0  0  0  0  0  0  0  0  0  0
   45.1530   32.8910   47.6950 C   0  0  0  0  0  0  0  0  0  0  0  0
   47.2640   29.1200   47.0120 N   0  0  0  0  0  0  0  0  0  0  0  0
   49.3480   27.5140   48.0480 C   0  0  0  0  0  0  0  0  0  0  0  0
   48.6410   26.5680   48.4750 O   0  0  0  0  0  0  0  0  0  0  0  0
   51.9640   25.8540   46.1680 N   0  0  0  0  0  0  0  0  0  0  0  0
   51.0860   25.9410   47.1800 N   0  0  0  0  0  0  0  0  0  0  0  0
   50.3940   27.0900   47.0960 C   0  0  0  0  0  0  0  0  0  0  0  0
   50.8900   27.7160   45.9720 C   0  0  0  0  0  0  0  0  0  0  0  0
   51.8720   26.9450   45.3890 C   0  0  0  0  0  0  0  0  0  0  0  0
   48.9031   32.5695   49.5242 H   0  0  0  0  0  0  0  0  0  0  0  0
   50.7348   31.1844   50.4456 H   0  0  0  0  0  0  0  0  0  0  0  0
   50.9147   28.7713   49.7159 H   0  0  0  0  0  0  0  0  0  0  0  0
   43.6480   36.5920   44.6082 H   0  0  0  0  0  0  0  0  0  0  0  0
   44.9536   36.4114   42.5193 H   0  0  0  0  0  0  0  0  0  0  0  0
   46.7618   34.6715   42.3517 H   0  0  0  0  0  0  0  0  0  0  0  0
   47.9002   32.6723   45.9324 H   0  0  0  0  0  0  0  0  0  0  0  0
   44.1387   33.2472   47.9280 H   0  0  0  0  0  0  0  0  0  0  0  0
   47.3491   28.1348   46.7237 H   0  0  0  0  0  0  0  0  0  0  0  0
   46.5049   29.7038   46.6329 H   0  0  0  0  0  0  0  0  0  0  0  0
   52.6114   25.0683   46.0120 H   0  0  0  0  0  0  0  0  0  0  0  0
   50.5502   28.6917   45.5946 H   0  0  0  0  0  0  0  0  0  0  0  0
   52.4536   27.1729   44.4836 H   0  0  0  0  0  0  0  0  0  0  0  0
  1  2  2  0
  2  3  1  0
  4  3  2  0
  5  4  1  0
  6  1  1  0
  6  5  2  0
  7 12  2  0
  8  7  1  0
  9  8  2  0
  9 10  1  0
 10 11  2  0
 11 12  1  0
 11 13  1  0
 13 14  1  0
 13 17  1  0
 14 15  2  0
 15  1  1  0
 15 16  1  0
 17 16  2  0
 18  6  1  0
 19  5  1  0
 19 20  2  0
 21 22  1  0
 23 22  2  0
 23 19  1  0
 24 23  1  0
 25 24  2  0
 25 21  1  0
  2 26  1  0
  3 27  1  0
  4 28  1  0
  7 29  1  0
  8 30  1  0
  9 31  1  0
 14 32  1  0
 17 33  1  0
 18 34  1  0
 18 35  1  0
 21 36  1  0
 24 37  1  0
 25 38  1  0
M  ISO  8  26  14  27  14  28  14  29  14  30  14  31  14  32  14  33  14
M  ISO  3  36   9  37  14  38  14
M  END
>  <minimizedAffinity>  (1) 
-5.4588089

>  <minimizedRMSD>  (1) 
1.05705297

$$$$
