
     RDKit          3D

 38 41  0  0  0  0  0  0  0  0999 V2000
   48.1490   30.9630   48.3820 C   0  0  0  0  0  0  0  0  0  0  0  0
   49.0480   31.5160   49.2700 C   0  0  0  0  0  0  0  0  0  0  0  0
   50.0710   30.7780   49.7890 C   0  0  0  0  0  0  0  0  0  0  0  0
   50.1940   29.4550   49.4070 C   0  0  0  0  0  0  0  0  0  0  0  0
   49.3090   28.9030   48.5310 C   0  0  0  0  0  0  0  0  0  0  0  0
   48.2660   29.6480   47.9980 C   0  0  0  0  0  0  0  0  0  0  0  0
   44.4600   35.7870   44.6150 C   0  0  0  0  0  0  0  0  0  0  0  0
   45.1860   35.7060   43.4370 C   0  0  0  0  0  0  0  0  0  0  0  0
   46.2030   34.7380   43.3200 C   0  0  0  0  0  0  0  0  0  0  0  0
   46.4280   33.9210   44.3750 N   0  0  0  0  0  0  0  0  0  0  0  0
   45.6880   34.0350   45.5200 C   0  0  0  0  0  0  0  0  0  0  0  0
   44.7100   34.9570   45.6490 N   0  0  0  0  0  0  0  0  0  0  0  0
   45.9140   33.1810   46.6400 N   0  0  0  0  0  0  0  0  0  0  0  0
   47.1160   32.5650   46.7130 C   0  0  0  0  0  0  0  0  0  0  0  0
   47.0860   31.8060   47.8710 C   0  0  0  0  0  0  0  0  0  0  0  0
   45.8880   31.9760   48.4650 N   0  0  0  0  0  0  0  0  0  0  0  0
   45.1740   32.8070   47.7250 C   0  0  0  0  0  0  0  0  0  0  0  0
   47.3510   29.0730   47.0900 N   0  0  0  0  0  0  0  0  0  0  0  0
   49.4370   27.5030   48.1240 C   0  0  0  0  0  0  0  0  0  0  0  0
   48.8580   26.5770   48.7350 O   0  0  0  0  0  0  0  0  0  0  0  0
   50.2860   27.1670   46.9450 C   0  0  0  0  0  0  0  0  0  0  0  0
   51.4470   26.3340   47.1610 C   0  0  0  0  0  0  0  0  0  0  0  0
   52.1250   26.2200   45.4550 S   0  0  0  0  0  0  0  0  0  0  0  0
   50.7390   27.3060   44.7460 C   0  0  0  0  0  0  0  0  0  0  0  0
   50.1010   27.5420   45.7170 N   0  0  0  0  0  0  0  0  0  0  0  0
   50.6780   27.6170   43.4130 O   0  0  0  0  0  0  0  0  0  0  0  0
   48.9381   32.5701   49.5646 H   0  0  0  0  0  0  0  0  0  0  0  0
   50.7836   31.2263   50.4970 H   0  0  0  0  0  0  0  0  0  0  0  0
   51.0129   28.8434   49.8136 H   0  0  0  0  0  0  0  0  0  0  0  0
   43.6654   36.5419   44.7086 H   0  0  0  0  0  0  0  0  0  0  0  0
   44.9705   36.3899   42.6028 H   0  0  0  0  0  0  0  0  0  0  0  0
   46.7966   34.6490   42.3982 H   0  0  0  0  0  0  0  0  0  0  0  0
   47.9478   32.6497   45.9982 H   0  0  0  0  0  0  0  0  0  0  0  0
   44.1503   33.1426   47.9472 H   0  0  0  0  0  0  0  0  0  0  0  0
   47.4523   28.0864   46.8122 H   0  0  0  0  0  0  0  0  0  0  0  0
   46.5821   29.6401   46.7052 H   0  0  0  0  0  0  0  0  0  0  0  0
   51.8235   25.8885   48.0936 H   0  0  0  0  0  0  0  0  0  0  0  0
   49.9436   28.1857   43.0705 H   0  0  0  0  0  0  0  0  0  0  0  0
  1  2  2  0
  2  3  1  0
  4  3  2  0
  5  4  1  0
  6  1  1  0
  6  5  2  0
  7 12  2  0
  8  7  1  0
  9  8  2  0
  9 10  1  0
 10 11  2  0
 11 12  1  0
 11 13  1  0
 13 14  1  0
 13 17  1  0
 14 15  2  0
 15  1  1  0
 15 16  1  0
 17 16  2  0
 18  6  1  0
 19  5  1  0
 19 20  2  0
 21 22  2  0
 21 19  1  0
 23 22  1  0
 24 23  1  0
 24 25  2  0
 25 21  1  0
 26 24  1  0
  2 27  1  0
  3 28  1  0
  4 29  1  0
  7 30  1  0
  8 31  1  0
  9 32  1  0
 14 33  1  0
 17 34  1  0
 18 35  1  0
 18 36  1  0
 22 37  1  0
 26 38  1  0
M  ISO  8  27  14  28  14  29  14  30  14  31  14  32  14  33  14  34  14
M  ISO  2  37  14  38   3
M  END
>  <minimizedAffinity>  (1) 
-5.51295424

>  <minimizedRMSD>  (1) 
0.0381900296

$$$$
