
     RDKit          3D

 37 39  0  0  0  0  0  0  0  0999 V2000
   45.6460   35.1130   42.9110 C   0  0  0  0  0  0  0  0  0  0  0  0
   45.1000   34.5460   45.2600 C   0  0  0  0  0  0  0  0  0  0  0  0
   45.9050   34.2920   44.1290 C   0  0  0  0  0  0  0  0  0  0  0  0
   46.8620   33.2990   44.2570 C   0  0  0  0  0  0  0  0  0  0  0  0
   46.9840   32.6390   45.4160 N   0  0  0  0  0  0  0  0  0  0  0  0
   46.2000   32.9020   46.4880 C   0  0  0  0  0  0  0  0  0  0  0  0
   45.2580   33.8610   46.4030 N   0  0  0  0  0  0  0  0  0  0  0  0
   46.8900   35.1480   42.0620 C   0  0  0  0  0  0  0  0  0  0  0  0
   45.2760   36.5060   43.3190 C   0  0  0  0  0  0  0  0  0  0  0  0
   44.4790   34.5310   42.1610 C   0  0  0  0  0  0  0  0  0  0  0  0
   43.4250   35.4340   42.1950 O   0  0  0  0  0  0  0  0  0  0  0  0
   42.3250   35.1620   41.3960 C   0  0  0  0  0  0  0  0  0  0  0  0
   41.0080   35.3970   41.7750 C   0  0  0  0  0  0  0  0  0  0  0  0
   40.2230   34.9920   40.7030 C   0  0  0  0  0  0  0  0  0  0  0  0
   41.0250   34.5360   39.7210 N   0  0  0  0  0  0  0  0  0  0  0  0
   42.2640   34.6400   40.1400 N   0  0  0  0  0  0  0  0  0  0  0  0
   40.5200   34.0360   38.4580 C   0  0  0  0  0  0  0  0  0  0  0  0
   40.1730   35.1700   37.4390 C   0  0  0  0  0  0  0  0  0  0  0  0
   39.1140   34.2850   38.0570 C   0  0  0  0  0  0  0  0  0  0  0  0
   44.3245   35.3241   45.2032 H   0  0  0  0  0  0  0  0  0  0  0  0
   47.5194   33.0533   43.4099 H   0  0  0  0  0  0  0  0  0  0  0  0
   46.3314   32.3363   47.4222 H   0  0  0  0  0  0  0  0  0  0  0  0
   47.7770   35.1730   42.7121 H   0  0  0  0  0  0  0  0  0  0  0  0
   46.9259   34.2505   41.4270 H   0  0  0  0  0  0  0  0  0  0  0  0
   46.8754   36.0461   41.4270 H   0  0  0  0  0  0  0  0  0  0  0  0
   45.2579   36.5740   44.4167 H   0  0  0  0  0  0  0  0  0  0  0  0
   46.0172   37.2141   42.9199 H   0  0  0  0  0  0  0  0  0  0  0  0
   44.2811   36.7529   42.9199 H   0  0  0  0  0  0  0  0  0  0  0  0
   44.1710   33.5865   42.6332 H   0  0  0  0  0  0  0  0  0  0  0  0
   44.7676   34.3353   41.1177 H   0  0  0  0  0  0  0  0  0  0  0  0
   40.6589   35.8179   42.7294 H   0  0  0  0  0  0  0  0  0  0  0  0
   39.1246   35.0364   40.6624 H   0  0  0  0  0  0  0  0  0  0  0  0
   41.1278   33.1199   38.4954 H   0  0  0  0  0  0  0  0  0  0  0  0
   40.4368   35.0632   36.3765 H   0  0  0  0  0  0  0  0  0  0  0  0
   40.3564   36.2522   37.3664 H   0  0  0  0  0  0  0  0  0  0  0  0
   38.4100   34.7114   38.7867 H   0  0  0  0  0  0  0  0  0  0  0  0
   38.3178   33.6493   37.6424 H   0  0  0  0  0  0  0  0  0  0  0  0
  1  9  1  0
  1  3  1  0
  2  7  2  0
  3  4  2  0
  3  2  1  0
  4  5  1  0
  5  6  2  0
  7  6  1  0
  8  1  1  0
 10 11  1  0
 10  1  1  0
 12 13  1  0
 12 11  1  0
 14 13  2  0
 15 16  1  0
 15 14  1  0
 16 12  2  0
 17 15  1  0
 18 19  1  0
 18 17  1  0
 19 17  1  0
  2 20  1  0
  4 21  1  0
  6 22  1  0
  8 23  1  0
  8 24  1  0
  8 25  1  0
  9 26  1  0
  9 27  1  0
  9 28  1  0
 10 29  1  0
 10 30  1  0
 13 31  1  0
 14 32  1  0
 17 33  1  0
 18 34  1  0
 18 35  1  0
 19 36  1  0
 19 37  1  0
M  ISO  8  20  14  21  14  22  14  23   8  24   8  25   8  26   8  27   8
M  ISO  8  28   8  29   8  30   8  31  14  32  14  33  13  34  13  35  13
M  ISO  2  36  13  37  13
M  END
>  <minimizedAffinity>  (1) 
-5.27209282

>  <minimizedRMSD>  (1) 
0.648684323

$$$$
