
     RDKit          3D

 40 43  0  0  0  0  0  0  0  0999 V2000
   48.1230   30.9330   48.4310 C   0  0  0  0  0  0  0  0  0  0  0  0
   48.9990   31.4650   49.3600 C   0  0  0  0  0  0  0  0  0  0  0  0
   50.0190   30.7190   49.8800 C   0  0  0  0  0  0  0  0  0  0  0  0
   50.1580   29.4070   49.4550 C   0  0  0  0  0  0  0  0  0  0  0  0
   49.2990   28.8800   48.5410 C   0  0  0  0  0  0  0  0  0  0  0  0
   48.2630   29.6370   48.0120 C   0  0  0  0  0  0  0  0  0  0  0  0
   44.4930   35.7690   44.6150 C   0  0  0  0  0  0  0  0  0  0  0  0
   45.2160   35.6630   43.4480 C   0  0  0  0  0  0  0  0  0  0  0  0
   46.2110   34.6850   43.3480 C   0  0  0  0  0  0  0  0  0  0  0  0
   46.4290   33.8720   44.4060 N   0  0  0  0  0  0  0  0  0  0  0  0
   45.6930   34.0090   45.5440 C   0  0  0  0  0  0  0  0  0  0  0  0
   44.7220   34.9420   45.6800 N   0  0  0  0  0  0  0  0  0  0  0  0
   45.8980   33.1640   46.6880 N   0  0  0  0  0  0  0  0  0  0  0  0
   47.0960   32.5370   46.7420 C   0  0  0  0  0  0  0  0  0  0  0  0
   47.0580   31.7910   47.9200 C   0  0  0  0  0  0  0  0  0  0  0  0
   45.8770   31.9820   48.5260 N   0  0  0  0  0  0  0  0  0  0  0  0
   45.1690   32.8160   47.7800 C   0  0  0  0  0  0  0  0  0  0  0  0
   47.3690   29.0880   47.0610 N   0  0  0  0  0  0  0  0  0  0  0  0
   49.4480   27.4970   48.0950 C   0  0  0  0  0  0  0  0  0  0  0  0
   48.8840   26.5430   48.6980 O   0  0  0  0  0  0  0  0  0  0  0  0
   50.2790   27.1980   46.9040 C   0  0  0  0  0  0  0  0  0  0  0  0
   51.0420   25.9750   46.8960 C   0  0  0  0  0  0  0  0  0  0  0  0
   51.8660   26.0750   45.2650 S   0  0  0  0  0  0  0  0  0  0  0  0
   51.0510   27.7420   44.8630 C   0  0  0  0  0  0  0  0  0  0  0  0
   50.4020   27.9330   45.8390 N   0  0  0  0  0  0  0  0  0  0  0  0
   51.1470   28.6290   43.6720 C   0  0  0  0  0  0  0  0  0  0  0  0
   51.7690   28.3810   42.6060 O   0  0  0  0  0  0  0  0  0  0  0  0
   50.4880   29.8440   43.7490 O   0  0  0  0  0  0  0  0  0  0  0  0
   48.8722   32.5078   49.6862 H   0  0  0  0  0  0  0  0  0  0  0  0
   50.7126   31.1490   50.6176 H   0  0  0  0  0  0  0  0  0  0  0  0
   50.9704   28.7861   49.8605 H   0  0  0  0  0  0  0  0  0  0  0  0
   43.7110   36.5387   44.6928 H   0  0  0  0  0  0  0  0  0  0  0  0
   45.0135   36.3393   42.6044 H   0  0  0  0  0  0  0  0  0  0  0  0
   46.8039   34.5795   42.4275 H   0  0  0  0  0  0  0  0  0  0  0  0
   47.9196   32.6015   46.0157 H   0  0  0  0  0  0  0  0  0  0  0  0
   44.1529   33.1704   48.0081 H   0  0  0  0  0  0  0  0  0  0  0  0
   47.4818   28.1121   46.7515 H   0  0  0  0  0  0  0  0  0  0  0  0
   46.6059   29.6646   46.6787 H   0  0  0  0  0  0  0  0  0  0  0  0
   51.1106   25.1912   47.6647 H   0  0  0  0  0  0  0  0  0  0  0  0
   50.5187   30.4731   42.9852 H   0  0  0  0  0  0  0  0  0  0  0  0
  1  2  2  0
  2  3  1  0
  4  3  2  0
  5  4  1  0
  6  1  1  0
  6  5  2  0
  7 12  2  0
  8  7  1  0
  9  8  2  0
  9 10  1  0
 10 11  2  0
 11 12  1  0
 11 13  1  0
 13 14  1  0
 13 17  1  0
 14 15  2  0
 15  1  1  0
 15 16  1  0
 17 16  2  0
 18  6  1  0
 19  5  1  0
 19 20  2  0
 21 19  1  0
 22 21  2  0
 23 22  1  0
 24 23  1  0
 24 25  2  0
 25 21  1  0
 26 28  1  0
 26 24  1  0
 27 26  2  0
  2 29  1  0
  3 30  1  0
  4 31  1  0
  7 32  1  0
  8 33  1  0
  9 34  1  0
 14 35  1  0
 17 36  1  0
 18 37  1  0
 18 38  1  0
 22 39  1  0
 28 40  1  0
M  ISO  8  29  14  30  14  31  14  32  14  33  14  34  14  35  14  36  14
M  ISO  2  39  14  40   3
M  END
>  <minimizedAffinity>  (1) 
-5.45318985

>  <minimizedRMSD>  (1) 
0.574373126

$$$$
