
     RDKit          3D

 42 45  0  0  0  0  0  0  0  0999 V2000
   48.1590   30.9940   48.4040 C   0  0  0  0  0  0  0  0  0  0  0  0
   49.0470   31.5440   49.2880 C   0  0  0  0  0  0  0  0  0  0  0  0
   50.0710   30.8110   49.8120 C   0  0  0  0  0  0  0  0  0  0  0  0
   50.2030   29.4790   49.4290 C   0  0  0  0  0  0  0  0  0  0  0  0
   49.3050   28.9340   48.5400 C   0  0  0  0  0  0  0  0  0  0  0  0
   48.2850   29.6780   48.0240 C   0  0  0  0  0  0  0  0  0  0  0  0
   44.4590   35.7850   44.5930 C   0  0  0  0  0  0  0  0  0  0  0  0
   45.2000   35.6880   43.4150 C   0  0  0  0  0  0  0  0  0  0  0  0
   46.2010   34.7350   43.3210 C   0  0  0  0  0  0  0  0  0  0  0  0
   46.4280   33.9230   44.3810 N   0  0  0  0  0  0  0  0  0  0  0  0
   45.6870   34.0380   45.5230 C   0  0  0  0  0  0  0  0  0  0  0  0
   44.6990   34.9600   45.6520 N   0  0  0  0  0  0  0  0  0  0  0  0
   45.9130   33.1900   46.6510 N   0  0  0  0  0  0  0  0  0  0  0  0
   47.1190   32.5840   46.7210 C   0  0  0  0  0  0  0  0  0  0  0  0
   47.0920   31.8300   47.8850 C   0  0  0  0  0  0  0  0  0  0  0  0
   45.8900   31.9940   48.4830 N   0  0  0  0  0  0  0  0  0  0  0  0
   45.1690   32.8200   47.7350 C   0  0  0  0  0  0  0  0  0  0  0  0
   47.3700   29.0950   47.1060 N   0  0  0  0  0  0  0  0  0  0  0  0
   49.4470   27.5400   48.1430 C   0  0  0  0  0  0  0  0  0  0  0  0
   48.8880   26.5900   48.7640 O   0  0  0  0  0  0  0  0  0  0  0  0
   50.2850   27.1890   46.9600 C   0  0  0  0  0  0  0  0  0  0  0  0
   51.6280   26.7240   47.1360 C   0  0  0  0  0  0  0  0  0  0  0  0
   52.1890   26.4450   45.4320 S   0  0  0  0  0  0  0  0  0  0  0  0
   50.5150   27.0020   44.7250 C   0  0  0  0  0  0  0  0  0  0  0  0
   49.9130   27.2610   45.7080 N   0  0  0  0  0  0  0  0  0  0  0  0
   50.2060   27.0460   43.3380 N   0  0  0  0  0  0  0  0  0  0  0  0
   52.3110   26.5430   48.4300 C   0  0  0  0  0  0  0  0  0  0  0  0
   48.9328   32.5979   49.5818 H   0  0  0  0  0  0  0  0  0  0  0  0
   50.7783   31.2632   50.5229 H   0  0  0  0  0  0  0  0  0  0  0  0
   51.0208   28.8655   49.8349 H   0  0  0  0  0  0  0  0  0  0  0  0
   43.6649   36.5424   44.6692 H   0  0  0  0  0  0  0  0  0  0  0  0
   44.9917   36.3609   42.5701 H   0  0  0  0  0  0  0  0  0  0  0  0
   46.7999   34.6396   42.4033 H   0  0  0  0  0  0  0  0  0  0  0  0
   47.9490   32.6706   46.0043 H   0  0  0  0  0  0  0  0  0  0  0  0
   44.1428   33.1515   47.9520 H   0  0  0  0  0  0  0  0  0  0  0  0
   47.4758   28.1084   46.8298 H   0  0  0  0  0  0  0  0  0  0  0  0
   46.6011   29.6591   46.7168 H   0  0  0  0  0  0  0  0  0  0  0  0
   49.2753   27.3595   43.0274 H   0  0  0  0  0  0  0  0  0  0  0  0
   50.9128   26.7644   42.6437 H   0  0  0  0  0  0  0  0  0  0  0  0
   51.6010   26.7312   49.2488 H   0  0  0  0  0  0  0  0  0  0  0  0
   52.6907   25.5132   48.5033 H   0  0  0  0  0  0  0  0  0  0  0  0
   53.1509   27.2496   48.5033 H   0  0  0  0  0  0  0  0  0  0  0  0
  1  2  2  0
  2  3  1  0
  4  3  2  0
  5  4  1  0
  6  1  1  0
  6  5  2  0
  7 12  2  0
  8  7  1  0
  9  8  2  0
  9 10  1  0
 10 11  2  0
 11 12  1  0
 11 13  1  0
 13 14  1  0
 13 17  1  0
 14 15  2  0
 15  1  1  0
 15 16  1  0
 17 16  2  0
 18  6  1  0
 19  5  1  0
 19 20  2  0
 21 22  2  0
 21 19  1  0
 22 27  1  0
 23 22  1  0
 24 23  1  0
 24 25  2  0
 25 21  1  0
 26 24  1  0
  2 28  1  0
  3 29  1  0
  4 30  1  0
  7 31  1  0
  8 32  1  0
  9 33  1  0
 14 34  1  0
 17 35  1  0
 18 36  1  0
 18 37  1  0
 26 38  1  0
 26 39  1  0
 27 40  1  0
 27 41  1  0
 27 42  1  0
M  ISO  8  28  14  29  14  30  14  31  14  32  14  33  14  34  14  35  14
M  ISO  3  40   8  41   8  42   8
M  END
>  <minimizedAffinity>  (1) 
-5.53666925

>  <minimizedRMSD>  (1) 
0.269768864

$$$$
