
     RDKit          3D

 37 39  0  0  0  0  0  0  0  0999 V2000
   45.8980   34.7020   42.6920 C   0  0  0  0  0  0  0  0  0  0  0  0
   45.2310   34.4540   45.0790 C   0  0  0  0  0  0  0  0  0  0  0  0
   46.0700   34.0280   44.0270 C   0  0  0  0  0  0  0  0  0  0  0  0
   46.9830   33.0270   44.3060 C   0  0  0  0  0  0  0  0  0  0  0  0
   47.0410   32.5000   45.5510 N   0  0  0  0  0  0  0  0  0  0  0  0
   46.2190   32.9330   46.5360 C   0  0  0  0  0  0  0  0  0  0  0  0
   45.3150   33.9120   46.2950 N   0  0  0  0  0  0  0  0  0  0  0  0
   47.2490   35.1220   42.1760 C   0  0  0  0  0  0  0  0  0  0  0  0
   45.0000   35.8800   42.8530 C   0  0  0  0  0  0  0  0  0  0  0  0
   45.2220   33.7300   41.7510 C   0  0  0  0  0  0  0  0  0  0  0  0
   44.1330   33.1790   42.3850 O   0  0  0  0  0  0  0  0  0  0  0  0
   42.9910   32.9250   41.6260 C   0  0  0  0  0  0  0  0  0  0  0  0
   42.2350   31.7530   41.7400 C   0  0  0  0  0  0  0  0  0  0  0  0
   41.2010   31.9280   40.8030 C   0  0  0  0  0  0  0  0  0  0  0  0
   41.3390   33.1120   40.1860 N   0  0  0  0  0  0  0  0  0  0  0  0
   42.4000   33.6960   40.6790 N   0  0  0  0  0  0  0  0  0  0  0  0
   40.4640   33.6090   39.1780 C   0  0  0  0  0  0  0  0  0  0  0  0
   39.1600   33.3120   38.8310 C   0  0  0  0  0  0  0  0  0  0  0  0
   38.7890   34.1120   37.7470 C   0  0  0  0  0  0  0  0  0  0  0  0
   39.9410   34.8680   37.5040 C   0  0  0  0  0  0  0  0  0  0  0  0
   40.8880   34.5460   38.3560 O   0  0  0  0  0  0  0  0  0  0  0  0
   44.4934   35.2485   44.8925 H   0  0  0  0  0  0  0  0  0  0  0  0
   47.6590   32.6610   43.5192 H   0  0  0  0  0  0  0  0  0  0  0  0
   46.2860   32.4864   47.5390 H   0  0  0  0  0  0  0  0  0  0  0  0
   47.9173   35.3298   43.0247 H   0  0  0  0  0  0  0  0  0  0  0  0
   47.6749   34.3139   41.5632 H   0  0  0  0  0  0  0  0  0  0  0  0
   47.1416   36.0292   41.5632 H   0  0  0  0  0  0  0  0  0  0  0  0
   44.8470   36.0808   43.9236 H   0  0  0  0  0  0  0  0  0  0  0  0
   45.4593   36.7590   42.3771 H   0  0  0  0  0  0  0  0  0  0  0  0
   44.0308   35.6700   42.3771 H   0  0  0  0  0  0  0  0  0  0  0  0
   45.9285   32.9342   41.4723 H   0  0  0  0  0  0  0  0  0  0  0  0
   44.8963   34.2572   40.8422 H   0  0  0  0  0  0  0  0  0  0  0  0
   42.4088   30.8954   42.4066 H   0  0  0  0  0  0  0  0  0  0  0  0
   40.3983   31.2023   40.6051 H   0  0  0  0  0  0  0  0  0  0  0  0
   38.5191   32.5680   39.3267 H   0  0  0  0  0  0  0  0  0  0  0  0
   37.8267   34.1404   37.2149 H   0  0  0  0  0  0  0  0  0  0  0  0
   40.0399   35.6248   36.7118 H   0  0  0  0  0  0  0  0  0  0  0  0
  1  9  1  0
  1  3  1  0
  2  7  2  0
  3  4  2  0
  3  2  1  0
  4  5  1  0
  5  6  2  0
  7  6  1  0
  8  1  1  0
 10 11  1  0
 10  1  1  0
 12 13  1  0
 12 11  1  0
 14 13  2  0
 15 16  1  0
 15 14  1  0
 16 12  2  0
 17 15  1  0
 18 17  2  0
 19 18  1  0
 20 19  2  0
 20 21  1  0
 21 17  1  0
  2 22  1  0
  4 23  1  0
  6 24  1  0
  8 25  1  0
  8 26  1  0
  8 27  1  0
  9 28  1  0
  9 29  1  0
  9 30  1  0
 10 31  1  0
 10 32  1  0
 13 33  1  0
 14 34  1  0
 18 35  1  0
 19 36  1  0
 20 37  1  0
M  ISO  8  22  14  23  14  24  14  25   8  26   8  27   8  28   8  29   8
M  ISO  8  30   8  31   8  32   8  33  14  34  14  35  14  36  14  37  14
M  END
>  <minimizedAffinity>  (1) 
-5.10274935

>  <minimizedRMSD>  (1) 
2.02298903

$$$$
