
     RDKit          3D

 30 31  0  0  1  0  0  0  0  0999 V2000
   46.6450   33.7140   42.6220 C   0  0  1  0  0  0  0  0  0  0  0  0
   45.8430   33.7020   44.9190 C   0  0  0  0  0  0  0  0  0  0  0  0
   45.8610   34.3050   43.6640 C   0  0  0  0  0  0  0  0  0  0  0  0
   45.1250   35.4820   43.5930 C   0  0  0  0  0  0  0  0  0  0  0  0
   44.4690   35.9560   44.6810 N   0  0  0  0  0  0  0  0  0  0  0  0
   44.4920   35.3310   45.8600 C   0  0  0  0  0  0  0  0  0  0  0  0
   45.1890   34.1810   45.9890 N   0  0  0  0  0  0  0  0  0  0  0  0
   46.9650   34.6610   41.5710 N   0  0  0  0  0  0  0  0  0  0  0  0
   46.5880   34.0540   40.3030 C   0  0  0  0  0  0  0  0  0  0  0  0
   47.8600   33.5230   39.6070 C   0  0  0  0  0  0  0  0  0  0  0  0
   48.6700   34.6370   39.2080 N   0  0  0  0  0  0  0  0  0  0  0  0
   48.8510   35.5760   40.3000 C   0  0  0  0  0  0  0  0  0  0  0  0
   48.3590   34.9870   41.6120 C   0  0  0  0  0  0  0  0  0  0  0  0
   47.9900   33.3030   43.3000 C   0  0  0  0  0  0  0  0  0  0  0  0
   46.0897   32.8803   42.1675 H   0  0  0  0  0  0  0  0  0  0  0  0
   46.4057   32.7649   45.0426 H   0  0  0  0  0  0  0  0  0  0  0  0
   45.0741   36.0351   42.6436 H   0  0  0  0  0  0  0  0  0  0  0  0
   43.9478   35.7489   46.7198 H   0  0  0  0  0  0  0  0  0  0  0  0
   45.8912   33.2223   40.4841 H   0  0  0  0  0  0  0  0  0  0  0  0
   46.0963   34.8013   39.6628 H   0  0  0  0  0  0  0  0  0  0  0  0
   48.4246   32.8869   40.3046 H   0  0  0  0  0  0  0  0  0  0  0  0
   47.5816   32.9291   38.7239 H   0  0  0  0  0  0  0  0  0  0  0  0
   49.5922   34.2905   38.9072 H   0  0  0  0  0  0  0  0  0  0  0  0
   49.9200   35.8181   40.3928 H   0  0  0  0  0  0  0  0  0  0  0  0
   48.2680   36.4831   40.0825 H   0  0  0  0  0  0  0  0  0  0  0  0
   48.5277   35.7202   42.4145 H   0  0  0  0  0  0  0  0  0  0  0  0
   48.9175   34.0571   41.7946 H   0  0  0  0  0  0  0  0  0  0  0  0
   47.8752   33.3381   44.3934 H   0  0  0  0  0  0  0  0  0  0  0  0
   48.2588   32.2817   42.9921 H   0  0  0  0  0  0  0  0  0  0  0  0
   48.7837   33.9996   42.9921 H   0  0  0  0  0  0  0  0  0  0  0  0
  1 14  1  0
  1  3  1  0
  2  7  2  0
  3  2  1  0
  4  3  2  0
  4  5  1  0
  5  6  2  0
  6  7  1  0
  8 13  1  0
  8  1  1  0
  9  8  1  0
 10  9  1  0
 11 10  1  0
 11 12  1  0
 12 13  1  0
  1 15  1  6
  2 16  1  0
  4 17  1  0
  6 18  1  0
  9 19  1  0
  9 20  1  0
 10 21  1  0
 10 22  1  0
 11 23  1  0
 12 24  1  0
 12 25  1  0
 13 26  1  0
 13 27  1  0
 14 28  1  0
 14 29  1  0
 14 30  1  0
M  ISO  8  15   8  16  14  17  14  18  14  19  13  20  13  21  13  22  13
M  ISO  8  23   5  24  13  25  13  26  13  27  13  28   8  29   8  30   8
M  END
>  <minimizedAffinity>  (1) 
-4.18783855

>  <minimizedRMSD>  (1) 
3.5608778

$$$$
