
     RDKit          3D

 42 44  0  0  1  0  0  0  0  0999 V2000
   45.9820   34.8660   42.7400 C   0  0  0  0  0  0  0  0  0  0  0  0
   45.2590   34.5060   45.1060 C   0  0  0  0  0  0  0  0  0  0  0  0
   46.1150   34.1210   44.0460 C   0  0  0  0  0  0  0  0  0  0  0  0
   47.0110   33.0850   44.2950 C   0  0  0  0  0  0  0  0  0  0  0  0
   47.0230   32.5050   45.5140 N   0  0  0  0  0  0  0  0  0  0  0  0
   46.1970   32.8930   46.5030 C   0  0  0  0  0  0  0  0  0  0  0  0
   45.3130   33.9000   46.2910 N   0  0  0  0  0  0  0  0  0  0  0  0
   47.3500   35.2180   42.2330 C   0  0  0  0  0  0  0  0  0  0  0  0
   45.1520   36.0870   42.9620 C   0  0  0  0  0  0  0  0  0  0  0  0
   45.2450   33.9810   41.7620 C   0  0  0  0  0  0  0  0  0  0  0  0
   44.0950   33.4990   42.3690 O   0  0  0  0  0  0  0  0  0  0  0  0
   43.0660   33.0780   41.5270 C   0  0  0  0  0  0  0  0  0  0  0  0
   42.3850   31.8670   41.7200 C   0  0  0  0  0  0  0  0  0  0  0  0
   41.4450   31.8220   40.6770 C   0  0  0  0  0  0  0  0  0  0  0  0
   41.5700   32.9440   39.9190 N   0  0  0  0  0  0  0  0  0  0  0  0
   42.5290   33.6680   40.4380 N   0  0  0  0  0  0  0  0  0  0  0  0
   39.4490   33.6090   39.0230 N   0  0  0  0  0  0  0  0  0  0  0  0
   39.0540   34.2290   37.7480 C   0  0  0  0  0  0  0  0  0  0  0  0
   40.1330   35.2660   37.4480 C   0  0  0  0  0  0  0  0  0  0  0  0
   41.2730   34.7810   38.3150 C   0  0  0  0  0  0  0  0  0  0  0  0
   40.8560   33.3740   38.7550 C   0  0  1  0  0  0  0  0  0  0  0  0
   44.5364   35.3202   44.9482 H   0  0  0  0  0  0  0  0  0  0  0  0
   47.7002   32.7434   43.5087 H   0  0  0  0  0  0  0  0  0  0  0  0
   46.2386   32.3941   47.4825 H   0  0  0  0  0  0  0  0  0  0  0  0
   48.0235   35.3913   43.0853 H   0  0  0  0  0  0  0  0  0  0  0  0
   47.7384   34.3905   41.6211 H   0  0  0  0  0  0  0  0  0  0  0  0
   47.2908   36.1302   41.6211 H   0  0  0  0  0  0  0  0  0  0  0  0
   45.0349   36.2593   44.0421 H   0  0  0  0  0  0  0  0  0  0  0  0
   45.6476   36.9556   42.5037 H   0  0  0  0  0  0  0  0  0  0  0  0
   44.1620   35.9457   42.5037 H   0  0  0  0  0  0  0  0  0  0  0  0
   45.8887   33.1384   41.4693 H   0  0  0  0  0  0  0  0  0  0  0  0
   44.9781   34.5591   40.8651 H   0  0  0  0  0  0  0  0  0  0  0  0
   42.5500   31.1202   42.5106 H   0  0  0  0  0  0  0  0  0  0  0  0
   40.7240   31.0100   40.5017 H   0  0  0  0  0  0  0  0  0  0  0  0
   39.3118   34.2482   39.8189 H   0  0  0  0  0  0  0  0  0  0  0  0
   39.0139   33.4737   36.9493 H   0  0  0  0  0  0  0  0  0  0  0  0
   38.0548   34.6850   37.8080 H   0  0  0  0  0  0  0  0  0  0  0  0
   40.4088   35.2613   36.3832 H   0  0  0  0  0  0  0  0  0  0  0  0
   39.8258   36.3023   37.6524 H   0  0  0  0  0  0  0  0  0  0  0  0
   42.2100   34.7458   37.7398 H   0  0  0  0  0  0  0  0  0  0  0  0
   41.4574   35.4470   39.1708 H   0  0  0  0  0  0  0  0  0  0  0  0
   41.0594   32.5748   38.0270 H   0  0  0  0  0  0  0  0  0  0  0  0
  1  9  1  0
  1  3  1  0
  2  7  2  0
  3  4  2  0
  3  2  1  0
  4  5  1  0
  5  6  2  0
  7  6  1  0
  8  1  1  0
 10 11  1  0
 10  1  1  0
 12 13  1  0
 12 11  1  0
 14 13  2  0
 15 16  1  0
 15 14  1  0
 16 12  2  0
 18 17  1  0
 19 18  1  0
 19 20  1  0
 21 20  1  0
 21 17  1  0
 21 15  1  0
  2 22  1  0
  4 23  1  0
  6 24  1  0
  8 25  1  0
  8 26  1  0
  8 27  1  0
  9 28  1  0
  9 29  1  0
  9 30  1  0
 10 31  1  0
 10 32  1  0
 13 33  1  0
 14 34  1  0
 17 35  1  0
 18 36  1  0
 18 37  1  0
 19 38  1  0
 19 39  1  0
 20 40  1  0
 20 41  1  0
 21 42  1  6
M  ISO  8  22  14  23  14  24  14  25   8  26   8  27   8  28   8  29   8
M  ISO  8  30   8  31   8  32   8  33  14  34  14  35   5  36  13  37  13
M  ISO  5  38  13  39  13  40  13  41  13  42  13
M  END
>  <minimizedAffinity>  (1) 
-5.04692316

>  <minimizedRMSD>  (1) 
2.03539062

$$$$
