
     RDKit          3D

 33 34  0  0  0  0  0  0  0  0999 V2000
   45.5700   35.0610   42.8560 C   0  0  0  0  0  0  0  0  0  0  0  0
   45.1060   34.5230   45.2300 C   0  0  0  0  0  0  0  0  0  0  0  0
   45.8660   34.2630   44.0760 C   0  0  0  0  0  0  0  0  0  0  0  0
   46.8310   33.2780   44.1830 C   0  0  0  0  0  0  0  0  0  0  0  0
   47.0020   32.6250   45.3470 N   0  0  0  0  0  0  0  0  0  0  0  0
   46.2580   32.8990   46.4330 C   0  0  0  0  0  0  0  0  0  0  0  0
   45.2970   33.8620   46.3660 N   0  0  0  0  0  0  0  0  0  0  0  0
   46.7740   35.0530   41.9480 C   0  0  0  0  0  0  0  0  0  0  0  0
   45.2590   36.4730   43.2520 C   0  0  0  0  0  0  0  0  0  0  0  0
   44.3590   34.4870   42.1710 C   0  0  0  0  0  0  0  0  0  0  0  0
   43.2970   35.3530   42.3500 O   0  0  0  0  0  0  0  0  0  0  0  0
   42.3040   35.3610   41.3700 C   0  0  0  0  0  0  0  0  0  0  0  0
   40.9490   35.4630   41.6580 C   0  0  0  0  0  0  0  0  0  0  0  0
   40.3030   35.4350   40.4280 C   0  0  0  0  0  0  0  0  0  0  0  0
   41.2300   35.3210   39.4410 N   0  0  0  0  0  0  0  0  0  0  0  0
   42.4160   35.2780   40.0170 N   0  0  0  0  0  0  0  0  0  0  0  0
   41.0770   35.2500   38.0060 C   0  0  0  0  0  0  0  0  0  0  0  0
   44.3277   35.2993   45.1907 H   0  0  0  0  0  0  0  0  0  0  0  0
   47.4595   33.0281   43.3155 H   0  0  0  0  0  0  0  0  0  0  0  0
   46.4245   32.3484   47.3706 H   0  0  0  0  0  0  0  0  0  0  0  0
   47.6912   35.0469   42.5553 H   0  0  0  0  0  0  0  0  0  0  0  0
   46.7486   34.1550   41.3132 H   0  0  0  0  0  0  0  0  0  0  0  0
   46.7605   35.9513   41.3132 H   0  0  0  0  0  0  0  0  0  0  0  0
   45.2419   36.5508   44.3491 H   0  0  0  0  0  0  0  0  0  0  0  0
   46.0306   37.1453   42.8487 H   0  0  0  0  0  0  0  0  0  0  0  0
   44.2763   36.7589   42.8487 H   0  0  0  0  0  0  0  0  0  0  0  0
   44.1157   33.5075   42.6084 H   0  0  0  0  0  0  0  0  0  0  0  0
   44.5612   34.3585   41.0974 H   0  0  0  0  0  0  0  0  0  0  0  0
   40.4846   35.5481   42.6515 H   0  0  0  0  0  0  0  0  0  0  0  0
   39.2150   35.4955   40.2774 H   0  0  0  0  0  0  0  0  0  0  0  0
   40.1039   34.7984   37.7629 H   0  0  0  0  0  0  0  0  0  0  0  0
   41.1273   36.2635   37.5813 H   0  0  0  0  0  0  0  0  0  0  0  0
   41.8834   34.6341   37.5813 H   0  0  0  0  0  0  0  0  0  0  0  0
  1  9  1  0
  1  3  1  0
  2  7  2  0
  3  4  2  0
  3  2  1  0
  4  5  1  0
  5  6  2  0
  7  6  1  0
  8  1  1  0
 10 11  1  0
 10  1  1  0
 12 13  1  0
 12 11  1  0
 14 13  2  0
 15 16  1  0
 15 14  1  0
 16 12  2  0
 17 15  1  0
  2 18  1  0
  4 19  1  0
  6 20  1  0
  8 21  1  0
  8 22  1  0
  8 23  1  0
  9 24  1  0
  9 25  1  0
  9 26  1  0
 10 27  1  0
 10 28  1  0
 13 29  1  0
 14 30  1  0
 17 31  1  0
 17 32  1  0
 17 33  1  0
M  ISO  8  18  14  19  14  20  14  21   8  22   8  23   8  24   8  25   8
M  ISO  8  26   8  27   8  28   8  29  14  30  14  31   8  32   8  33   8
M  END
>  <minimizedAffinity>  (1) 
-4.84467745

>  <minimizedRMSD>  (1) 
0.236790702

$$$$
