
     RDKit          3D

 23 24  0  0  1  0  0  0  0  0999 V2000
   46.8750   35.1470   41.8870 C   0  0  2  0  0  0  0  0  0  0  0  0
   45.2400   36.0930   43.4690 C   0  0  0  0  0  0  0  0  0  0  0  0
   46.1420   35.0720   43.1510 C   0  0  0  0  0  0  0  0  0  0  0  0
   46.2820   34.0260   44.0870 C   0  0  0  0  0  0  0  0  0  0  0  0
   45.5400   34.0760   45.2230 N   0  0  0  0  0  0  0  0  0  0  0  0
   44.6900   35.0720   45.4850 C   0  0  0  0  0  0  0  0  0  0  0  0
   44.5500   36.0640   44.6120 N   0  0  0  0  0  0  0  0  0  0  0  0
   46.3180   34.3080   40.8730 N   0  0  0  0  0  0  0  0  0  0  0  0
   47.0520   33.6680   39.9800 N   0  0  0  0  0  0  0  0  0  0  0  0
   46.2200   32.9720   39.1780 C   0  0  0  0  0  0  0  0  0  0  0  0
   44.9180   33.1950   39.5970 C   0  0  0  0  0  0  0  0  0  0  0  0
   45.0040   34.0550   40.6860 C   0  0  0  0  0  0  0  0  0  0  0  0
   48.3380   34.9020   42.1720 C   0  0  0  0  0  0  0  0  0  0  0  0
   46.7771   36.1541   41.4554 H   0  0  0  0  0  0  0  0  0  0  0  0
   45.0974   36.9296   42.7692 H   0  0  0  0  0  0  0  0  0  0  0  0
   46.9743   33.1915   43.9014 H   0  0  0  0  0  0  0  0  0  0  0  0
   44.1086   35.0713   46.4188 H   0  0  0  0  0  0  0  0  0  0  0  0
   46.5237   32.3351   38.3341 H   0  0  0  0  0  0  0  0  0  0  0  0
   44.0012   32.7760   39.1567 H   0  0  0  0  0  0  0  0  0  0  0  0
   44.1667   34.4516   41.2790 H   0  0  0  0  0  0  0  0  0  0  0  0
   48.5001   34.8748   43.2596 H   0  0  0  0  0  0  0  0  0  0  0  0
   48.6413   33.9406   41.7320 H   0  0  0  0  0  0  0  0  0  0  0  0
   48.9380   35.7122   41.7320 H   0  0  0  0  0  0  0  0  0  0  0  0
  1 13  1  0
  1  3  1  0
  2  7  2  0
  3  2  1  0
  3  4  2  0
  4  5  1  0
  5  6  2  0
  7  6  1  0
  8  1  1  0
  9  8  1  0
 10 11  1  0
 10  9  2  0
 11 12  2  0
 12  8  1  0
  1 14  1  6
  2 15  1  0
  4 16  1  0
  6 17  1  0
 10 18  1  0
 11 19  1  0
 12 20  1  0
 13 21  1  0
 13 22  1  0
 13 23  1  0
M  ISO  8  14   8  15  14  16  14  17  14  18  14  19  14  20  14  21   8
M  ISO  2  22   8  23   8
M  END
>  <minimizedAffinity>  (1) 
-3.92752719

>  <minimizedRMSD>  (1) 
1.06225216

$$$$
