
     RDKit          3D

 30 31  0  0  1  0  0  0  0  0999 V2000
   46.4300   34.2000   42.2130 C   0  0  2  0  0  0  0  0  0  0  0  0
   45.2110   35.9130   43.5130 C   0  0  0  0  0  0  0  0  0  0  0  0
   45.7650   34.6470   43.4050 C   0  0  0  0  0  0  0  0  0  0  0  0
   45.6490   33.8200   44.5430 C   0  0  0  0  0  0  0  0  0  0  0  0
   45.0200   34.2890   45.6500 N   0  0  0  0  0  0  0  0  0  0  0  0
   44.5070   35.5340   45.6780 C   0  0  0  0  0  0  0  0  0  0  0  0
   44.6010   36.3380   44.6190 N   0  0  0  0  0  0  0  0  0  0  0  0
   45.4860   33.8520   41.0960 C   0  0  0  0  0  0  0  0  0  0  0  0
   45.9570   33.3850   39.8790 C   0  0  0  0  0  0  0  0  0  0  0  0
   44.8140   33.1850   39.1290 C   0  0  0  0  0  0  0  0  0  0  0  0
   43.7060   33.5370   39.9180 C   0  0  0  0  0  0  0  0  0  0  0  0
   44.1800   33.9230   41.0750 O   0  0  0  0  0  0  0  0  0  0  0  0
   47.3670   33.0640   42.5150 C   0  0  0  0  0  0  0  0  0  0  0  0
   48.5440   33.5780   43.2030 N   0  0  0  0  0  0  0  0  0  0  0  0
   49.5810   34.1700   42.4350 C   0  0  0  0  0  0  0  0  0  0  0  0
   49.8330   33.7460   41.2440 N   0  0  0  0  0  0  0  0  0  0  0  0
   50.3570   35.2380   42.9660 N   0  0  0  0  0  0  0  0  0  0  0  0
   50.5790   34.1630   40.6760 H   0  0  0  0  0  0  0  0  0  0  0  0
   47.0206   35.0538   41.8495 H   0  0  0  0  0  0  0  0  0  0  0  0
   45.2775   36.5939   42.6516 H   0  0  0  0  0  0  0  0  0  0  0  0
   46.0658   32.8021   44.5325 H   0  0  0  0  0  0  0  0  0  0  0  0
   44.0032   35.8925   46.5878 H   0  0  0  0  0  0  0  0  0  0  0  0
   47.0013   33.2130   39.5791 H   0  0  0  0  0  0  0  0  0  0  0  0
   44.7778   32.8145   38.0939 H   0  0  0  0  0  0  0  0  0  0  0  0
   42.6476   33.4961   39.6213 H   0  0  0  0  0  0  0  0  0  0  0  0
   46.8584   32.3293   43.1565 H   0  0  0  0  0  0  0  0  0  0  0  0
   47.6724   32.5797   41.5757 H   0  0  0  0  0  0  0  0  0  0  0  0
   48.6223   33.5131   44.2280 H   0  0  0  0  0  0  0  0  0  0  0  0
   51.1070   35.6604   42.4004 H   0  0  0  0  0  0  0  0  0  0  0  0
   50.1687   35.5887   43.9160 H   0  0  0  0  0  0  0  0  0  0  0  0
  1 13  1  0
  1  3  1  0
  2  7  2  0
  3  2  1  0
  3  4  2  0
  4  5  1  0
  5  6  2  0
  7  6  1  0
  8  1  1  0
  9  8  2  0
 10  9  1  0
 10 11  2  0
 11 12  1  0
 12  8  1  0
 13 14  1  0
 15 17  1  0
 15 14  1  0
 16 15  2  0
 18 16  1  0
  1 19  1  6
  2 20  1  0
  4 21  1  0
  6 22  1  0
  9 23  1  0
 10 24  1  0
 11 25  1  0
 13 26  1  0
 13 27  1  0
 14 28  1  0
 17 29  1  0
 17 30  1  0
M  ISO  8  19   8  20  14  21  14  22  14  23  14  24  14  25  14  26   8
M  ISO  1  27   8
M  END
>  <minimizedAffinity>  (1) 
-4.92913914

>  <minimizedRMSD>  (1) 
2.37981296

$$$$
