
     RDKit          3D

 23 24  0  0  1  0  0  0  0  0999 V2000
   47.7250   35.1630   41.6730 C   0  0  2  0  0  0  0  0  0  0  0  0
   45.7250   35.5390   43.0610 C   0  0  0  0  0  0  0  0  0  0  0  0
   46.9030   34.8260   42.8200 C   0  0  0  0  0  0  0  0  0  0  0  0
   47.2340   33.7910   43.7240 C   0  0  0  0  0  0  0  0  0  0  0  0
   46.3850   33.5600   44.7640 N   0  0  0  0  0  0  0  0  0  0  0  0
   45.2710   34.2740   44.9480 C   0  0  0  0  0  0  0  0  0  0  0  0
   44.9380   35.2530   44.1100 N   0  0  0  0  0  0  0  0  0  0  0  0
   47.3890   34.3910   40.4470 C   0  0  0  0  0  0  0  0  0  0  0  0
   48.2110   34.4030   39.3210 C   0  0  0  0  0  0  0  0  0  0  0  0
   47.5820   33.5890   38.4140 C   0  0  0  0  0  0  0  0  0  0  0  0
   46.4110   33.1100   39.0040 C   0  0  0  0  0  0  0  0  0  0  0  0
   46.3550   33.6220   40.2080 O   0  0  0  0  0  0  0  0  0  0  0  0
   49.1810   34.9840   42.0550 C   0  0  0  0  0  0  0  0  0  0  0  0
   47.5224   36.2116   41.4098 H   0  0  0  0  0  0  0  0  0  0  0  0
   45.4372   36.3510   42.3770 H   0  0  0  0  0  0  0  0  0  0  0  0
   48.1470   33.1918   43.5921 H   0  0  0  0  0  0  0  0  0  0  0  0
   44.6191   34.0494   45.8050 H   0  0  0  0  0  0  0  0  0  0  0  0
   49.1579   34.9469   39.1888 H   0  0  0  0  0  0  0  0  0  0  0  0
   47.9377   33.3547   37.3998 H   0  0  0  0  0  0  0  0  0  0  0  0
   45.6760   32.4322   38.5453 H   0  0  0  0  0  0  0  0  0  0  0  0
   49.2738   34.9726   43.1510 H   0  0  0  0  0  0  0  0  0  0  0  0
   49.5533   34.0333   41.6456 H   0  0  0  0  0  0  0  0  0  0  0  0
   49.7725   35.8162   41.6456 H   0  0  0  0  0  0  0  0  0  0  0  0
  1 13  1  0
  1  3  1  0
  2  7  2  0
  3  2  1  0
  3  4  2  0
  4  5  1  0
  5  6  2  0
  7  6  1  0
  8  1  1  0
  9  8  2  0
 10 11  2  0
 10  9  1  0
 11 12  1  0
 12  8  1  0
  1 14  1  6
  2 15  1  0
  4 16  1  0
  6 17  1  0
  9 18  1  0
 10 19  1  0
 11 20  1  0
 13 21  1  0
 13 22  1  0
 13 23  1  0
M  ISO  8  14   8  15  14  16  14  17  14  18  14  19  14  20  14  21   8
M  ISO  2  22   8  23   8
M  END
>  <minimizedAffinity>  (1) 
-4.17202234

>  <minimizedRMSD>  (1) 
1.43375027

$$$$
