
     RDKit          3D

 28 30  0  0  1  0  0  0  0  0999 V2000
   48.0640   34.6990   40.7300 C   0  0  2  0  0  0  0  0  0  0  0  0
   46.9690   34.7430   42.9440 C   0  0  0  0  0  0  0  0  0  0  0  0
   46.8890   34.6120   41.5580 C   0  0  0  0  0  0  0  0  0  0  0  0
   45.6130   34.3790   41.0170 C   0  0  0  0  0  0  0  0  0  0  0  0
   44.5420   34.2920   41.8430 N   0  0  0  0  0  0  0  0  0  0  0  0
   44.6810   34.4270   43.1750 C   0  0  0  0  0  0  0  0  0  0  0  0
   45.8660   34.6480   43.7140 N   0  0  0  0  0  0  0  0  0  0  0  0
   47.8610   34.1550   39.3460 C   0  0  0  0  0  0  0  0  0  0  0  0
   48.5420   34.6810   38.2590 C   0  0  0  0  0  0  0  0  0  0  0  0
   48.0890   33.9330   37.1880 C   0  0  0  0  0  0  0  0  0  0  0  0
   47.1660   32.9980   37.6670 C   0  0  0  0  0  0  0  0  0  0  0  0
   47.0800   33.1860   38.9600 O   0  0  0  0  0  0  0  0  0  0  0  0
   49.2380   34.0870   41.4170 C   0  0  0  0  0  0  0  0  0  0  0  0
   49.1900   32.6170   41.1100 C   0  0  0  0  0  0  0  0  0  0  0  0
   49.9520   31.9510   40.1980 N   0  0  0  0  0  0  0  0  0  0  0  0
   49.5850   30.7050   40.2600 O   0  0  0  0  0  0  0  0  0  0  0  0
   48.6380   30.5300   41.1490 C   0  0  0  0  0  0  0  0  0  0  0  0
   48.3730   31.7120   41.6940 N   0  0  0  0  0  0  0  0  0  0  0  0
   48.2747   35.7688   40.5844 H   0  0  0  0  0  0  0  0  0  0  0  0
   47.9456   34.9264   43.4159 H   0  0  0  0  0  0  0  0  0  0  0  0
   45.4844   34.2680   39.9302 H   0  0  0  0  0  0  0  0  0  0  0  0
   43.7955   34.3522   43.8233 H   0  0  0  0  0  0  0  0  0  0  0  0
   49.2731   35.5028   38.2505 H   0  0  0  0  0  0  0  0  0  0  0  0
   48.4008   34.0527   36.1399 H   0  0  0  0  0  0  0  0  0  0  0  0
   46.6191   32.2506   37.0735 H   0  0  0  0  0  0  0  0  0  0  0  0
   50.1725   34.5249   41.0362 H   0  0  0  0  0  0  0  0  0  0  0  0
   49.2053   34.2693   42.5013 H   0  0  0  0  0  0  0  0  0  0  0  0
   48.1505   29.5761   41.3988 H   0  0  0  0  0  0  0  0  0  0  0  0
  1 13  1  0
  1  3  1  0
  2  7  2  0
  3  2  1  0
  4  3  2  0
  4  5  1  0
  5  6  2  0
  6  7  1  0
  8  1  1  0
  9  8  2  0
 10 11  2  0
 10  9  1  0
 11 12  1  0
 12  8  1  0
 14 13  1  0
 14 18  1  0
 15 16  1  0
 15 14  2  0
 16 17  1  0
 17 18  2  0
  1 19  1  6
  2 20  1  0
  4 21  1  0
  6 22  1  0
  9 23  1  0
 10 24  1  0
 11 25  1  0
 13 26  1  0
 13 27  1  0
 17 28  1  0
M  ISO  8  19   8  20  14  21  14  22  14  23  14  24  14  25  14  26   8
M  ISO  2  27   8  28  14
M  END
>  <minimizedAffinity>  (1) 
-3.87621737

>  <minimizedRMSD>  (1) 
3.74017692

$$$$
