
     RDKit          3D

 24 25  0  0  1  0  0  0  0  0999 V2000
   47.0170   34.7530   41.9400 C   0  0  2  0  0  0  0  0  0  0  0  0
   45.3720   36.0540   43.2670 C   0  0  0  0  0  0  0  0  0  0  0  0
   46.1770   34.9030   43.1320 C   0  0  0  0  0  0  0  0  0  0  0  0
   46.1320   33.9860   44.1900 C   0  0  0  0  0  0  0  0  0  0  0  0
   45.3370   34.2600   45.2510 N   0  0  0  0  0  0  0  0  0  0  0  0
   44.6000   35.3610   45.3250 C   0  0  0  0  0  0  0  0  0  0  0  0
   44.6110   36.2520   44.3510 N   0  0  0  0  0  0  0  0  0  0  0  0
   46.2650   34.1120   40.8150 C   0  0  0  0  0  0  0  0  0  0  0  0
   46.9340   33.6250   39.7080 C   0  0  0  0  0  0  0  0  0  0  0  0
   45.9540   33.1180   38.8860 C   0  0  0  0  0  0  0  0  0  0  0  0
   44.7180   33.3170   39.5260 C   0  0  0  0  0  0  0  0  0  0  0  0
   44.9770   33.9110   40.6660 O   0  0  0  0  0  0  0  0  0  0  0  0
   48.2360   33.9850   42.3330 C   0  0  0  0  0  0  0  0  0  0  0  0
   49.7020   35.0190   42.4340 S   0  0  0  0  0  0  0  0  0  0  0  0
   47.3210   35.7390   41.5586 H   0  0  0  0  0  0  0  0  0  0  0  0
   45.3695   36.8055   42.4638 H   0  0  0  0  0  0  0  0  0  0  0  0
   46.7298   33.0631   44.1594 H   0  0  0  0  0  0  0  0  0  0  0  0
   43.9709   35.5337   46.2106 H   0  0  0  0  0  0  0  0  0  0  0  0
   48.0183   33.6396   39.5235 H   0  0  0  0  0  0  0  0  0  0  0  0
   46.1093   32.6432   37.9060 H   0  0  0  0  0  0  0  0  0  0  0  0
   43.7268   33.0303   39.1447 H   0  0  0  0  0  0  0  0  0  0  0  0
   48.0607   33.5253   43.3169 H   0  0  0  0  0  0  0  0  0  0  0  0
   48.4163   33.2266   41.5569 H   0  0  0  0  0  0  0  0  0  0  0  0
   50.0153   35.2399   43.7493 H   0  0  0  0  0  0  0  0  0  0  0  0
  1 13  1  0
  1  3  1  0
  2  7  2  0
  3  2  1  0
  3  4  2  0
  4  5  1  0
  5  6  2  0
  7  6  1  0
  8  1  1  0
  9  8  2  0
 10 11  2  0
 10  9  1  0
 11 12  1  0
 12  8  1  0
 13 14  1  0
  1 15  1  6
  2 16  1  0
  4 17  1  0
  6 18  1  0
  9 19  1  0
 10 20  1  0
 11 21  1  0
 13 22  1  0
 13 23  1  0
 14 24  1  0
M  ISO  8  15   8  16  14  17  14  18  14  19  14  20  14  21  14  22   8
M  ISO  2  23   8  24  11
M  END
>  <minimizedAffinity>  (1) 
-4.13956928

>  <minimizedRMSD>  (1) 
1.35541451

$$$$
