
     RDKit          3D

 25 26  0  0  1  0  0  0  0  0999 V2000
   47.9590   34.8000   41.9900 C   0  0  2  0  0  0  0  0  0  0  0  0
   45.8900   35.7240   42.9660 C   0  0  0  0  0  0  0  0  0  0  0  0
   46.9110   34.7870   42.9720 C   0  0  0  0  0  0  0  0  0  0  0  0
   46.8790   33.8130   44.0120 C   0  0  0  0  0  0  0  0  0  0  0  0
   45.8770   33.8520   44.9190 N   0  0  0  0  0  0  0  0  0  0  0  0
   44.9130   34.7910   44.8570 C   0  0  0  0  0  0  0  0  0  0  0  0
   44.9220   35.7090   43.8950 N   0  0  0  0  0  0  0  0  0  0  0  0
   47.5440   34.2250   40.6650 C   0  0  0  0  0  0  0  0  0  0  0  0
   48.2520   34.5040   39.5040 C   0  0  0  0  0  0  0  0  0  0  0  0
   47.5700   33.8110   38.5220 C   0  0  0  0  0  0  0  0  0  0  0  0
   46.4960   33.1510   39.1170 C   0  0  0  0  0  0  0  0  0  0  0  0
   46.5330   33.4360   40.3930 O   0  0  0  0  0  0  0  0  0  0  0  0
   49.1970   34.1270   42.5190 C   0  0  0  0  0  0  0  0  0  0  0  0
   50.1090   35.1800   42.9710 N   0  0  0  0  0  0  0  0  0  0  0  0
   48.1902   35.8579   41.7964 H   0  0  0  0  0  0  0  0  0  0  0  0
   45.8728   36.4964   42.1830 H   0  0  0  0  0  0  0  0  0  0  0  0
   47.6590   33.0400   44.0759 H   0  0  0  0  0  0  0  0  0  0  0  0
   44.1107   34.7984   45.6094 H   0  0  0  0  0  0  0  0  0  0  0  0
   49.1485   35.1315   39.3917 H   0  0  0  0  0  0  0  0  0  0  0  0
   47.8302   33.7847   37.4535 H   0  0  0  0  0  0  0  0  0  0  0  0
   45.7579   32.5121   38.6100 H   0  0  0  0  0  0  0  0  0  0  0  0
   48.9364   33.4685   43.3607 H   0  0  0  0  0  0  0  0  0  0  0  0
   49.6693   33.5133   41.7378 H   0  0  0  0  0  0  0  0  0  0  0  0
   50.1266   35.2003   44.0006 H   0  0  0  0  0  0  0  0  0  0  0  0
   51.0566   34.9896   42.6151 H   0  0  0  0  0  0  0  0  0  0  0  0
  1 13  1  0
  1  3  1  0
  2  3  2  0
  2  7  1  0
  3  4  1  0
  4  5  2  0
  6  5  1  0
  7  6  2  0
  8  1  1  0
  9  8  2  0
 10 11  2  0
 10  9  1  0
 11 12  1  0
 12  8  1  0
 13 14  1  0
  1 15  1  6
  2 16  1  0
  4 17  1  0
  6 18  1  0
  9 19  1  0
 10 20  1  0
 11 21  1  0
 13 22  1  0
 13 23  1  0
 14 24  1  0
 14 25  1  0
M  ISO  8  15   8  16  14  17  14  18  14  19  14  20  14  21  14  22   8
M  ISO  3  23   8  24   5  25   5
M  END
>  <minimizedAffinity>  (1) 
-4.6128068

>  <minimizedRMSD>  (1) 
0.522703588

$$$$
