
     RDKit          3D

 44 48  0  0  1  0  0  0  0  0999 V2000
   46.1460   32.9210   40.5920 C   0  0  0  0  0  0  0  0  0  0  0  0
   45.8320   32.9590   39.1820 N   0  0  0  0  0  0  0  0  0  0  0  0
   46.7970   33.1520   38.2870 N   0  0  0  0  0  0  0  0  0  0  0  0
   46.3640   33.1720   37.0490 C   0  0  0  0  0  0  0  0  0  0  0  0
   45.0160   32.9810   37.0990 C   0  0  0  0  0  0  0  0  0  0  0  0
   44.7380   32.8550   38.4420 C   0  0  0  0  0  0  0  0  0  0  0  0
   43.4590   32.6350   39.0840 N   0  0  0  0  0  0  0  0  0  0  0  0
   42.9210   31.6990   39.8890 C   0  0  0  0  0  0  0  0  0  0  0  0
   41.6670   32.0360   40.1680 N   0  0  0  0  0  0  0  0  0  0  0  0
   41.3900   33.1940   39.5410 C   0  0  0  0  0  0  0  0  0  0  0  0
   40.1970   33.9210   39.5470 C   0  0  0  0  0  0  0  0  0  0  0  0
   39.1870   33.5330   40.1900 O   0  0  0  0  0  0  0  0  0  0  0  0
   40.1450   35.0640   38.8410 N   0  0  0  0  0  0  0  0  0  0  0  0
   41.2460   35.4450   38.1670 C   0  0  0  0  0  0  0  0  0  0  0  0
   41.3410   36.6260   37.3790 N   0  0  0  0  0  0  0  0  0  0  0  0
   42.3910   34.7440   38.1620 N   0  0  0  0  0  0  0  0  0  0  0  0
   42.5230   33.5790   38.8510 C   0  0  0  0  0  0  0  0  0  0  0  0
   46.5660   34.2450   41.0850 C   0  0  2  0  0  0  0  0  0  0  0  0
   48.6140   35.4530   41.7360 C   0  0  0  0  0  0  0  0  0  0  0  0
   47.8910   34.2910   41.5940 C   0  0  0  0  0  0  0  0  0  0  0  0
   48.5410   33.1120   41.9650 C   0  0  0  0  0  0  0  0  0  0  0  0
   49.8120   33.1270   42.4330 N   0  0  0  0  0  0  0  0  0  0  0  0
   50.4650   34.3160   42.5450 C   0  0  0  0  0  0  0  0  0  0  0  0
   49.8720   35.4500   42.2030 N   0  0  0  0  0  0  0  0  0  0  0  0
   45.5440   34.8600   42.0280 C   0  0  0  0  0  0  0  0  0  0  0  0
   44.2530   35.1670   41.5680 C   0  0  0  0  0  0  0  0  0  0  0  0
   43.6500   35.6970   42.7010 C   0  0  0  0  0  0  0  0  0  0  0  0
   44.5840   35.6840   43.7640 C   0  0  0  0  0  0  0  0  0  0  0  0
   45.6900   35.1740   43.3000 O   0  0  0  0  0  0  0  0  0  0  0  0
   46.9618   32.2020   40.7578 H   0  0  0  0  0  0  0  0  0  0  0  0
   45.2416   32.6182   41.1402 H   0  0  0  0  0  0  0  0  0  0  0  0
   46.9726   33.3155   36.1440 H   0  0  0  0  0  0  0  0  0  0  0  0
   44.3094   32.9373   36.2571 H   0  0  0  0  0  0  0  0  0  0  0  0
   43.4372   30.7998   40.2564 H   0  0  0  0  0  0  0  0  0  0  0  0
   39.2864   35.6324   38.8166 H   0  0  0  0  0  0  0  0  0  0  0  0
   42.2201   36.8505   36.8915 H   0  0  0  0  0  0  0  0  0  0  0  0
   40.5307   37.2564   37.2961 H   0  0  0  0  0  0  0  0  0  0  0  0
   46.5994   34.8853   40.1912 H   0  0  0  0  0  0  0  0  0  0  0  0
   48.1482   36.4103   41.4592 H   0  0  0  0  0  0  0  0  0  0  0  0
   48.0105   32.1525   41.8754 H   0  0  0  0  0  0  0  0  0  0  0  0
   51.4975   34.3354   42.9240 H   0  0  0  0  0  0  0  0  0  0  0  0
   43.8272   35.0238   40.5639 H   0  0  0  0  0  0  0  0  0  0  0  0
   42.6157   36.0664   42.7622 H   0  0  0  0  0  0  0  0  0  0  0  0
   44.4092   36.0383   44.7906 H   0  0  0  0  0  0  0  0  0  0  0  0
  1 18  1  0
  2  1  1  0
  3  2  1  0
  4  5  1  0
  4  3  2  0
  5  6  2  0
  6  7  1  0
  6  2  1  0
  7  8  1  0
  8  9  2  0
 10 11  1  0
 10  9  1  0
 11 12  2  0
 13 11  1  0
 14 13  1  0
 15 14  1  0
 16 14  2  0
 16 17  1  0
 17  7  1  0
 17 10  2  0
 18 20  1  0
 18 25  1  0
 19 24  2  0
 20 19  1  0
 20 21  2  0
 21 22  1  0
 22 23  2  0
 24 23  1  0
 25 29  1  0
 26 25  2  0
 26 27  1  0
 27 28  2  0
 29 28  1  0
  1 30  1  0
  1 31  1  0
  4 32  1  0
  5 33  1  0
  8 34  1  0
 13 35  1  0
 15 36  1  0
 15 37  1  0
 18 38  1  6
 19 39  1  0
 21 40  1  0
 23 41  1  0
 26 42  1  0
 27 43  1  0
 28 44  1  0
M  ISO  8  30   8  31   8  32  14  33  14  34  14  35   9  38   8  39  14
M  ISO  5  40  14  41  14  42  14  43  14  44  14
M  END
>  <minimizedAffinity>  (1) 
-5.86766768

>  <minimizedRMSD>  (1) 
5.70862389

$$$$
