
     RDKit          3D

 42 44  0  0  1  0  0  0  0  0999 V2000
   46.6030   34.2090   40.7530 C   0  0  2  0  0  0  0  0  0  0  0  0
   48.5380   35.4780   41.5600 C   0  0  0  0  0  0  0  0  0  0  0  0
   47.8610   34.2970   41.3890 C   0  0  0  0  0  0  0  0  0  0  0  0
   48.5120   33.1530   41.8390 C   0  0  0  0  0  0  0  0  0  0  0  0
   49.7400   33.1980   42.4100 N   0  0  0  0  0  0  0  0  0  0  0  0
   50.3490   34.4140   42.5440 C   0  0  0  0  0  0  0  0  0  0  0  0
   49.7530   35.5270   42.1260 N   0  0  0  0  0  0  0  0  0  0  0  0
   45.4680   34.7230   41.6200 C   0  0  0  0  0  0  0  0  0  0  0  0
   44.1980   34.9300   41.0770 C   0  0  0  0  0  0  0  0  0  0  0  0
   43.4740   35.3920   42.1660 C   0  0  0  0  0  0  0  0  0  0  0  0
   44.3240   35.4420   43.2910 C   0  0  0  0  0  0  0  0  0  0  0  0
   45.4970   35.0310   42.9000 O   0  0  0  0  0  0  0  0  0  0  0  0
   46.3450   32.8830   40.1830 C   0  0  0  0  0  0  0  0  0  0  0  0
   46.0280   32.8940   38.8100 N   0  0  0  0  0  0  0  0  0  0  0  0
   44.7680   32.7180   38.3980 N   0  0  0  0  0  0  0  0  0  0  0  0
   44.6240   32.7400   37.1060 C   0  0  0  0  0  0  0  0  0  0  0  0
   45.8550   32.9450   36.5980 C   0  0  0  0  0  0  0  0  0  0  0  0
   46.7180   33.0380   37.6800 C   0  0  0  0  0  0  0  0  0  0  0  0
   48.1870   33.2420   37.5930 C   0  0  0  0  0  0  0  0  0  0  0  0
   48.5660   34.6940   37.6890 C   0  0  0  0  0  0  0  0  0  0  0  0
   48.5580   32.9670   36.0960 C   0  0  0  0  0  0  0  0  0  0  0  0
   49.0610   32.2660   38.2590 C   0  0  0  0  0  0  0  0  0  0  0  0
   46.6479   34.8933   39.8930 H   0  0  0  0  0  0  0  0  0  0  0  0
   48.0696   36.4142   41.2223 H   0  0  0  0  0  0  0  0  0  0  0  0
   48.0131   32.1790   41.7275 H   0  0  0  0  0  0  0  0  0  0  0  0
   51.3464   34.4731   43.0042 H   0  0  0  0  0  0  0  0  0  0  0  0
   43.8572   34.7673   40.0439 H   0  0  0  0  0  0  0  0  0  0  0  0
   42.4107   35.6735   42.1545 H   0  0  0  0  0  0  0  0  0  0  0  0
   44.0487   35.7663   44.3054 H   0  0  0  0  0  0  0  0  0  0  0  0
   47.2449   32.2663   40.3239 H   0  0  0  0  0  0  0  0  0  0  0  0
   45.4651   32.4808   40.7064 H   0  0  0  0  0  0  0  0  0  0  0  0
   43.6876   32.6164   36.5423 H   0  0  0  0  0  0  0  0  0  0  0  0
   46.1230   33.0233   35.5340 H   0  0  0  0  0  0  0  0  0  0  0  0
   48.6417   34.9840   38.7474 H   0  0  0  0  0  0  0  0  0  0  0  0
   49.5358   34.8533   37.1949 H   0  0  0  0  0  0  0  0  0  0  0  0
   47.7977   35.3069   37.1949 H   0  0  0  0  0  0  0  0  0  0  0  0
   49.4410   32.3125   36.0513 H   0  0  0  0  0  0  0  0  0  0  0  0
   47.7119   32.4762   35.5928 H   0  0  0  0  0  0  0  0  0  0  0  0
   48.7816   33.9192   35.5928 H   0  0  0  0  0  0  0  0  0  0  0  0
   48.9655   32.3726   39.3497 H   0  0  0  0  0  0  0  0  0  0  0  0
   48.7667   31.2483   37.9629 H   0  0  0  0  0  0  0  0  0  0  0  0
   50.1049   32.4466   37.9629 H   0  0  0  0  0  0  0  0  0  0  0  0
  1  3  1  0
  1  8  1  0
  2  7  2  0
  3  2  1  0
  3  4  2  0
  4  5  1  0
  5  6  2  0
  7  6  1  0
  8 12  1  0
  9  8  2  0
  9 10  1  0
 10 11  2  0
 12 11  1  0
 13  1  1  0
 14 13  1  0
 15 14  1  0
 16 15  2  0
 17 16  1  0
 17 18  2  0
 18 14  1  0
 19 18  1  0
 19 20  1  0
 19 22  1  0
 21 19  1  0
  1 23  1  6
  2 24  1  0
  4 25  1  0
  6 26  1  0
  9 27  1  0
 10 28  1  0
 11 29  1  0
 13 30  1  0
 13 31  1  0
 16 32  1  0
 17 33  1  0
 20 34  1  0
 20 35  1  0
 20 36  1  0
 21 37  1  0
 21 38  1  0
 21 39  1  0
 22 40  1  0
 22 41  1  0
 22 42  1  0
M  ISO  8  23   8  24  14  25  14  26  14  27  14  28  14  29  14  30   8
M  ISO  8  31   8  32  14  33  14  34   8  35   8  36   8  37   8  38   8
M  ISO  4  39   8  40   8  41   8  42   8
M  END
>  <minimizedAffinity>  (1) 
-4.80702066

>  <minimizedRMSD>  (1) 
0.766358256

$$$$
