
     RDKit          3D

 37 39  0  0  1  0  0  0  0  0999 V2000
   46.5630   34.0620   41.8400 C   0  0  2  0  0  0  0  0  0  0  0  0
   48.7980   35.0130   42.2540 C   0  0  0  0  0  0  0  0  0  0  0  0
   47.9590   33.9380   42.0610 C   0  0  0  0  0  0  0  0  0  0  0  0
   48.5650   32.6800   42.0610 C   0  0  0  0  0  0  0  0  0  0  0  0
   49.9000   32.5360   42.2390 N   0  0  0  0  0  0  0  0  0  0  0  0
   50.6650   33.6500   42.4240 C   0  0  0  0  0  0  0  0  0  0  0  0
   50.1170   34.8670   42.4310 N   0  0  0  0  0  0  0  0  0  0  0  0
   45.8230   34.6390   43.0380 C   0  0  0  0  0  0  0  0  0  0  0  0
   45.2120   35.8950   42.9550 C   0  0  0  0  0  0  0  0  0  0  0  0
   44.6650   36.0530   44.2190 C   0  0  0  0  0  0  0  0  0  0  0  0
   44.9660   34.9100   44.9870 C   0  0  0  0  0  0  0  0  0  0  0  0
   45.6560   34.1010   44.2340 O   0  0  0  0  0  0  0  0  0  0  0  0
   45.9250   32.8350   41.3260 C   0  0  0  0  0  0  0  0  0  0  0  0
   45.5460   32.9750   39.9450 N   0  0  0  0  0  0  0  0  0  0  0  0
   44.2700   33.2130   39.6260 N   0  0  0  0  0  0  0  0  0  0  0  0
   44.0830   33.2980   38.3200 C   0  0  0  0  0  0  0  0  0  0  0  0
   45.2870   33.1080   37.7320 C   0  0  0  0  0  0  0  0  0  0  0  0
   46.1690   32.9110   38.7660 C   0  0  0  0  0  0  0  0  0  0  0  0
   47.5520   32.6390   38.6340 N   0  0  0  0  0  0  0  0  0  0  0  0
   48.4800   33.6150   38.1790 C   0  0  0  0  0  0  0  0  0  0  0  0
   48.4040   34.8030   38.6670 N   0  0  0  0  0  0  0  0  0  0  0  0
   49.5190   33.3700   37.2090 N   0  0  0  0  0  0  0  0  0  0  0  0
   47.7580   35.1710   39.3580 H   0  0  0  0  0  0  0  0  0  0  0  0
   46.4740   34.7990   41.0283 H   0  0  0  0  0  0  0  0  0  0  0  0
   48.3698   36.0262   42.2630 H   0  0  0  0  0  0  0  0  0  0  0  0
   47.9434   31.7846   41.9129 H   0  0  0  0  0  0  0  0  0  0  0  0
   51.7501   33.5438   42.5696 H   0  0  0  0  0  0  0  0  0  0  0  0
   45.1749   36.5854   42.0995 H   0  0  0  0  0  0  0  0  0  0  0  0
   44.0914   36.9254   44.5651 H   0  0  0  0  0  0  0  0  0  0  0  0
   44.6718   34.7332   46.0321 H   0  0  0  0  0  0  0  0  0  0  0  0
   46.6331   31.9984   41.4190 H   0  0  0  0  0  0  0  0  0  0  0  0
   45.0156   32.6466   41.9155 H   0  0  0  0  0  0  0  0  0  0  0  0
   43.1283   33.4875   37.8076 H   0  0  0  0  0  0  0  0  0  0  0  0
   45.5114   33.1108   36.6551 H   0  0  0  0  0  0  0  0  0  0  0  0
   47.8984   31.6998   38.8764 H   0  0  0  0  0  0  0  0  0  0  0  0
   50.1536   34.1320   36.9304 H   0  0  0  0  0  0  0  0  0  0  0  0
   49.6264   32.4331   36.7949 H   0  0  0  0  0  0  0  0  0  0  0  0
  1  3  1  0
  1  8  1  0
  2  7  2  0
  3  4  2  0
  3  2  1  0
  4  5  1  0
  5  6  2  0
  6  7  1  0
  8 12  1  0
  9  8  2  0
  9 10  1  0
 10 11  2  0
 12 11  1  0
 13  1  1  0
 14 13  1  0
 15 14  1  0
 16 15  2  0
 17 16  1  0
 17 18  2  0
 18 14  1  0
 19 18  1  0
 20 19  1  0
 20 21  2  0
 21 23  1  0
 22 20  1  0
  1 24  1  6
  2 25  1  0
  4 26  1  0
  6 27  1  0
  9 28  1  0
 10 29  1  0
 11 30  1  0
 13 31  1  0
 13 32  1  0
 16 33  1  0
 17 34  1  0
 19 35  1  0
 22 36  1  0
 22 37  1  0
M  ISO  8  24   8  25  14  26  14  27  14  28  14  29  14  30  14  31   8
M  ISO  3  32   8  33  14  34  14
M  END
>  <minimizedAffinity>  (1) 
-5.17015219

>  <minimizedRMSD>  (1) 
1.48521578

$$$$
