
     RDKit          3D

 42 45  0  0  1  0  0  0  0  0999 V2000
   44.9480   34.3220   41.6120 C   0  0  2  0  0  0  0  0  0  0  0  0
   44.5030   35.7670   43.5490 C   0  0  0  0  0  0  0  0  0  0  0  0
   44.8790   34.5600   43.0090 C   0  0  0  0  0  0  0  0  0  0  0  0
   45.2260   33.5560   43.9130 C   0  0  0  0  0  0  0  0  0  0  0  0
   45.1910   33.7710   45.2520 N   0  0  0  0  0  0  0  0  0  0  0  0
   44.8080   34.9920   45.7170 C   0  0  0  0  0  0  0  0  0  0  0  0
   44.4690   35.9730   44.8750 N   0  0  0  0  0  0  0  0  0  0  0  0
   46.3580   34.4490   41.0530 C   0  0  0  0  0  0  0  0  0  0  0  0
   46.6880   33.8660   39.8180 C   0  0  0  0  0  0  0  0  0  0  0  0
   48.0300   34.2070   39.6880 C   0  0  0  0  0  0  0  0  0  0  0  0
   48.4310   34.9470   40.8020 C   0  0  0  0  0  0  0  0  0  0  0  0
   47.3980   35.0650   41.5860 O   0  0  0  0  0  0  0  0  0  0  0  0
   43.9690   35.0920   40.8190 C   0  0  0  0  0  0  0  0  0  0  0  0
   42.6260   34.6000   41.0260 N   0  0  0  0  0  0  0  0  0  0  0  0
   41.7330   35.3650   41.6420 N   0  0  0  0  0  0  0  0  0  0  0  0
   40.5610   34.7800   41.7710 C   0  0  0  0  0  0  0  0  0  0  0  0
   40.6630   33.5430   41.2090 C   0  0  0  0  0  0  0  0  0  0  0  0
   41.9650   33.4850   40.7630 C   0  0  0  0  0  0  0  0  0  0  0  0
   42.5780   32.3840   40.0890 N   0  0  0  0  0  0  0  0  0  0  0  0
   42.5350   31.0000   40.5960 C   0  0  0  0  0  0  0  0  0  0  0  0
   44.0430   30.8170   40.8110 C   0  0  0  0  0  0  0  0  0  0  0  0
   44.5540   31.3740   39.4920 C   0  0  0  0  0  0  0  0  0  0  0  0
   43.3560   32.1100   38.8830 C   0  0  0  0  0  0  0  0  0  0  0  0
   44.6550   33.2674   41.5024 H   0  0  0  0  0  0  0  0  0  0  0  0
   44.2215   36.5888   42.8741 H   0  0  0  0  0  0  0  0  0  0  0  0
   45.5340   32.5708   43.5328 H   0  0  0  0  0  0  0  0  0  0  0  0
   44.7771   35.1737   46.8014 H   0  0  0  0  0  0  0  0  0  0  0  0
   46.0503   33.2894   39.1318 H   0  0  0  0  0  0  0  0  0  0  0  0
   48.6752   33.9358   38.8394 H   0  0  0  0  0  0  0  0  0  0  0  0
   49.4359   35.3557   40.9841 H   0  0  0  0  0  0  0  0  0  0  0  0
   44.2228   35.0042   39.7523 H   0  0  0  0  0  0  0  0  0  0  0  0
   44.0086   36.1428   41.1419 H   0  0  0  0  0  0  0  0  0  0  0  0
   39.6659   35.2097   42.2444 H   0  0  0  0  0  0  0  0  0  0  0  0
   39.8852   32.7692   41.1297 H   0  0  0  0  0  0  0  0  0  0  0  0
   41.9653   30.9151   41.5331 H   0  0  0  0  0  0  0  0  0  0  0  0
   42.0419   30.2595   39.9491 H   0  0  0  0  0  0  0  0  0  0  0  0
   44.4084   31.3978   41.6708 H   0  0  0  0  0  0  0  0  0  0  0  0
   44.3619   29.7895   41.0403 H   0  0  0  0  0  0  0  0  0  0  0  0
   45.3889   32.0694   39.6633 H   0  0  0  0  0  0  0  0  0  0  0  0
   44.9344   30.5832   38.8287 H   0  0  0  0  0  0  0  0  0  0  0  0
   43.6624   33.0373   38.3768 H   0  0  0  0  0  0  0  0  0  0  0  0
   42.8175   31.5488   38.1051 H   0  0  0  0  0  0  0  0  0  0  0  0
  1  3  1  0
  2  7  2  0
  3  2  1  0
  3  4  2  0
  4  5  1  0
  5  6  2  0
  7  6  1  0
  8 12  1  0
  8  1  1  0
  9  8  2  0
 10  9  1  0
 10 11  2  0
 11 12  1  0
 13 14  1  0
 13  1  1  0
 14 15  1  0
 15 16  2  0
 17 16  1  0
 18 14  1  0
 18 17  2  0
 19 20  1  0
 19 18  1  0
 20 21  1  0
 22 21  1  0
 23 22  1  0
 23 19  1  0
  1 24  1  1
  2 25  1  0
  4 26  1  0
  6 27  1  0
  9 28  1  0
 10 29  1  0
 11 30  1  0
 13 31  1  0
 13 32  1  0
 16 33  1  0
 17 34  1  0
 20 35  1  0
 20 36  1  0
 21 37  1  0
 21 38  1  0
 22 39  1  0
 22 40  1  0
 23 41  1  0
 23 42  1  0
M  ISO  8  24   8  25  14  26  14  27  14  28  14  29  14  30  14  31   8
M  ISO  8  32   8  33  14  34  14  35  13  36  13  37  13  38  13  39  13
M  ISO  3  40  13  41  13  42  13
M  END
>  <minimizedAffinity>  (1) 
-4.95771551

>  <minimizedRMSD>  (1) 
5.30795956

$$$$
