
     RDKit          3D

 43 46  0  0  1  0  0  0  0  0999 V2000
   46.2250   32.8170   40.1060 C   0  0  0  0  0  0  0  0  0  0  0  0
   46.4610   32.7210   38.7000 N   0  0  0  0  0  0  0  0  0  0  0  0
   45.4940   32.9700   37.8250 N   0  0  0  0  0  0  0  0  0  0  0  0
   45.8560   32.8400   36.5730 C   0  0  0  0  0  0  0  0  0  0  0  0
   47.1730   32.4730   36.5950 C   0  0  0  0  0  0  0  0  0  0  0  0
   47.4930   32.4150   37.9390 C   0  0  0  0  0  0  0  0  0  0  0  0
   51.5760   31.4220   38.7700 C   0  0  0  0  0  0  0  0  0  0  0  0
   50.6440   31.3560   39.7850 C   0  0  0  0  0  0  0  0  0  0  0  0
   49.3200   31.6640   39.5640 C   0  0  0  0  0  0  0  0  0  0  0  0
   48.8440   32.0510   38.3360 C   0  0  0  0  0  0  0  0  0  0  0  0
   49.8340   32.1000   37.3440 C   0  0  0  0  0  0  0  0  0  0  0  0
   51.1700   31.8030   37.5080 C   0  0  0  0  0  0  0  0  0  0  0  0
   53.2610   31.0340   39.0300 S   0  0  0  0  0  0  0  0  0  0  0  0
   53.4340   29.5380   38.8170 O   0  0  0  0  0  0  0  0  0  0  0  0
   54.1020   31.7000   37.9910 O   0  0  0  0  0  0  0  0  0  0  0  0
   46.4270   34.1850   40.6170 C   0  0  2  0  0  0  0  0  0  0  0  0
   48.4620   35.4570   41.1640 C   0  0  0  0  0  0  0  0  0  0  0  0
   47.6390   34.3670   41.3280 C   0  0  0  0  0  0  0  0  0  0  0  0
   48.0770   33.4030   42.2380 C   0  0  0  0  0  0  0  0  0  0  0  0
   49.2430   33.5420   42.9110 N   0  0  0  0  0  0  0  0  0  0  0  0
   50.0070   34.6500   42.6950 C   0  0  0  0  0  0  0  0  0  0  0  0
   49.6150   35.5890   41.8330 N   0  0  0  0  0  0  0  0  0  0  0  0
   45.2120   34.7110   41.3670 C   0  0  0  0  0  0  0  0  0  0  0  0
   43.9430   34.6740   40.7740 C   0  0  0  0  0  0  0  0  0  0  0  0
   43.1330   35.2290   41.7520 C   0  0  0  0  0  0  0  0  0  0  0  0
   43.9300   35.5670   42.8580 C   0  0  0  0  0  0  0  0  0  0  0  0
   45.1610   35.2360   42.5750 O   0  0  0  0  0  0  0  0  0  0  0  0
   46.9168   32.1392   40.6275 H   0  0  0  0  0  0  0  0  0  0  0  0
   45.1761   32.5415   40.2899 H   0  0  0  0  0  0  0  0  0  0  0  0
   45.2276   32.9948   35.6836 H   0  0  0  0  0  0  0  0  0  0  0  0
   47.8301   32.2696   35.7366 H   0  0  0  0  0  0  0  0  0  0  0  0
   50.9651   31.0510   40.7919 H   0  0  0  0  0  0  0  0  0  0  0  0
   48.6152   31.5972   40.4059 H   0  0  0  0  0  0  0  0  0  0  0  0
   49.5132   32.4051   36.3370 H   0  0  0  0  0  0  0  0  0  0  0  0
   51.8802   31.8669   36.6704 H   0  0  0  0  0  0  0  0  0  0  0  0
   53.6272   31.4372   40.2871 H   0  0  0  0  0  0  0  0  0  0  0  0
   46.5378   34.8128   39.7205 H   0  0  0  0  0  0  0  0  0  0  0  0
   48.1631   36.2471   40.4595 H   0  0  0  0  0  0  0  0  0  0  0  0
   47.4598   32.5093   42.4121 H   0  0  0  0  0  0  0  0  0  0  0  0
   50.9564   34.7708   43.2372 H   0  0  0  0  0  0  0  0  0  0  0  0
   43.6601   34.2980   39.7797 H   0  0  0  0  0  0  0  0  0  0  0  0
   42.0461   35.3798   41.6749 H   0  0  0  0  0  0  0  0  0  0  0  0
   43.5803   36.0275   43.7938 H   0  0  0  0  0  0  0  0  0  0  0  0
  1 16  1  0
  2  1  1  0
  3  2  1  0
  4  5  1  0
  4  3  2  0
  5  6  2  0
  6 10  1  0
  6  2  1  0
  7 13  1  0
  7  8  2  0
  9  8  1  0
 10  9  2  0
 11 12  2  0
 11 10  1  0
 12  7  1  0
 14 13  2  0
 15 13  2  0
 16 18  1  0
 16 23  1  0
 17 18  2  0
 17 22  1  0
 18 19  1  0
 19 20  2  0
 21 20  1  0
 22 21  2  0
 23 27  1  0
 24 23  2  0
 24 25  1  0
 25 26  2  0
 27 26  1  0
  1 28  1  0
  1 29  1  0
  4 30  1  0
  5 31  1  0
  8 32  1  0
  9 33  1  0
 11 34  1  0
 12 35  1  0
 13 36  1  0
 16 37  1  6
 17 38  1  0
 19 39  1  0
 21 40  1  0
 24 41  1  0
 25 42  1  0
 26 43  1  0
M  ISO  8  28   8  29   8  30  14  31  14  32  14  33  14  34  14  35  14
M  ISO  8  36  11  37   8  38  14  39  14  40  14  41  14  42  14  43  14
M  END
>  <minimizedAffinity>  (1) 
-4.95056343

>  <minimizedRMSD>  (1) 
1.33658993

$$$$
