
     RDKit          3D

 38 41  0  0  1  0  0  0  0  0999 V2000
   46.5190   34.2400   40.7610 C   0  0  2  0  0  0  0  0  0  0  0  0
   48.5480   35.5010   41.3750 C   0  0  0  0  0  0  0  0  0  0  0  0
   47.7680   34.3460   41.4200 C   0  0  0  0  0  0  0  0  0  0  0  0
   48.2920   33.2740   42.1290 C   0  0  0  0  0  0  0  0  0  0  0  0
   49.4880   33.3280   42.7460 N   0  0  0  0  0  0  0  0  0  0  0  0
   50.2110   34.4890   42.6660 C   0  0  0  0  0  0  0  0  0  0  0  0
   49.7450   35.5260   42.0050 N   0  0  0  0  0  0  0  0  0  0  0  0
   45.3560   34.7600   41.5860 C   0  0  0  0  0  0  0  0  0  0  0  0
   44.0860   34.8870   41.0610 C   0  0  0  0  0  0  0  0  0  0  0  0
   43.3320   35.3800   42.0920 C   0  0  0  0  0  0  0  0  0  0  0  0
   44.1700   35.5360   43.2050 C   0  0  0  0  0  0  0  0  0  0  0  0
   45.3640   35.1550   42.8550 O   0  0  0  0  0  0  0  0  0  0  0  0
   46.2720   32.9060   40.1910 C   0  0  0  0  0  0  0  0  0  0  0  0
   46.4390   32.8670   38.7790 N   0  0  0  0  0  0  0  0  0  0  0  0
   45.4160   33.1120   37.9520 N   0  0  0  0  0  0  0  0  0  0  0  0
   45.7440   33.0090   36.6880 C   0  0  0  0  0  0  0  0  0  0  0  0
   47.0500   32.6800   36.6510 C   0  0  0  0  0  0  0  0  0  0  0  0
   47.4470   32.6000   37.9800 C   0  0  0  0  0  0  0  0  0  0  0  0
   48.8170   32.2040   38.2550 C   0  0  0  0  0  0  0  0  0  0  0  0
   49.7780   32.1350   37.2700 C   0  0  0  0  0  0  0  0  0  0  0  0
   51.0740   31.7590   37.4420 C   0  0  0  0  0  0  0  0  0  0  0  0
   51.4390   31.4340   38.6700 N   0  0  0  0  0  0  0  0  0  0  0  0
   50.5900   31.4660   39.7000 C   0  0  0  0  0  0  0  0  0  0  0  0
   49.3630   31.8500   39.3840 N   0  0  0  0  0  0  0  0  0  0  0  0
   46.5914   34.9187   39.8984 H   0  0  0  0  0  0  0  0  0  0  0  0
   48.1918   36.3875   40.8299 H   0  0  0  0  0  0  0  0  0  0  0  0
   47.7077   32.3440   42.1893 H   0  0  0  0  0  0  0  0  0  0  0  0
   51.1917   34.5545   43.1599 H   0  0  0  0  0  0  0  0  0  0  0  0
   43.7534   34.6457   40.0406 H   0  0  0  0  0  0  0  0  0  0  0  0
   42.2576   35.6128   42.0538 H   0  0  0  0  0  0  0  0  0  0  0  0
   43.8722   35.9123   44.1948 H   0  0  0  0  0  0  0  0  0  0  0  0
   46.9753   32.1938   40.6473 H   0  0  0  0  0  0  0  0  0  0  0  0
   45.2257   32.6438   40.4067 H   0  0  0  0  0  0  0  0  0  0  0  0
   45.0811   33.1617   35.8236 H   0  0  0  0  0  0  0  0  0  0  0  0
   47.6701   32.5107   35.7584 H   0  0  0  0  0  0  0  0  0  0  0  0
   49.4687   32.4092   36.2506 H   0  0  0  0  0  0  0  0  0  0  0  0
   51.7826   31.7271   36.6013 H   0  0  0  0  0  0  0  0  0  0  0  0
   50.8851   31.1961   40.7247 H   0  0  0  0  0  0  0  0  0  0  0  0
  1  3  1  0
  1  8  1  0
  2  3  2  0
  2  7  1  0
  3  4  1  0
  4  5  2  0
  6  5  1  0
  7  6  2  0
  8 12  1  0
  9  8  2  0
  9 10  1  0
 10 11  2  0
 12 11  1  0
 13  1  1  0
 14 13  1  0
 15 14  1  0
 16 15  2  0
 17 16  1  0
 17 18  2  0
 18 19  1  0
 18 14  1  0
 19 24  2  0
 20 21  2  0
 20 19  1  0
 21 22  1  0
 22 23  2  0
 24 23  1  0
  1 25  1  6
  2 26  1  0
  4 27  1  0
  6 28  1  0
  9 29  1  0
 10 30  1  0
 11 31  1  0
 13 32  1  0
 13 33  1  0
 16 34  1  0
 17 35  1  0
 20 36  1  0
 21 37  1  0
 23 38  1  0
M  ISO  8  25   8  26  14  27  14  28  14  29  14  30  14  31  14  32   8
M  ISO  6  33   8  34  14  35  14  36  14  37  14  38  14
M  END
>  <minimizedAffinity>  (1) 
-4.78553247

>  <minimizedRMSD>  (1) 
0.282994688

$$$$
