
     RDKit          3D

 36 38  0  0  1  0  0  0  0  0999 V2000
   46.5520   34.1780   40.8100 C   0  0  2  0  0  0  0  0  0  0  0  0
   48.5180   35.4650   41.5520 C   0  0  0  0  0  0  0  0  0  0  0  0
   47.8310   34.2810   41.4150 C   0  0  0  0  0  0  0  0  0  0  0  0
   48.4730   33.1370   41.8890 C   0  0  0  0  0  0  0  0  0  0  0  0
   49.7070   33.2000   42.4510 N   0  0  0  0  0  0  0  0  0  0  0  0
   50.3250   34.4100   42.5510 C   0  0  0  0  0  0  0  0  0  0  0  0
   49.7390   35.5080   42.1110 N   0  0  0  0  0  0  0  0  0  0  0  0
   45.4370   34.7370   41.6800 C   0  0  0  0  0  0  0  0  0  0  0  0
   44.1650   34.9660   41.1360 C   0  0  0  0  0  0  0  0  0  0  0  0
   43.4580   35.4650   42.2250 C   0  0  0  0  0  0  0  0  0  0  0  0
   44.3150   35.5110   43.3380 C   0  0  0  0  0  0  0  0  0  0  0  0
   45.4850   35.0650   42.9590 O   0  0  0  0  0  0  0  0  0  0  0  0
   46.2440   32.8420   40.2840 C   0  0  0  0  0  0  0  0  0  0  0  0
   45.9630   32.8640   38.8740 N   0  0  0  0  0  0  0  0  0  0  0  0
   44.7150   32.6950   38.4360 N   0  0  0  0  0  0  0  0  0  0  0  0
   44.6170   32.7280   37.1290 C   0  0  0  0  0  0  0  0  0  0  0  0
   45.8740   32.9300   36.6430 C   0  0  0  0  0  0  0  0  0  0  0  0
   46.6610   33.0060   37.7640 C   0  0  0  0  0  0  0  0  0  0  0  0
   48.1450   33.2250   37.8050 C   0  0  0  0  0  0  0  0  0  0  0  0
   48.5420   34.6320   37.5040 C   0  0  0  0  0  0  0  0  0  0  0  0
   46.6092   34.8276   39.9241 H   0  0  0  0  0  0  0  0  0  0  0  0
   48.0570   36.3980   41.1957 H   0  0  0  0  0  0  0  0  0  0  0  0
   47.9686   32.1630   41.8056 H   0  0  0  0  0  0  0  0  0  0  0  0
   51.3253   34.4729   43.0043 H   0  0  0  0  0  0  0  0  0  0  0  0
   43.8147   34.7943   40.1075 H   0  0  0  0  0  0  0  0  0  0  0  0
   42.4020   35.7729   42.2165 H   0  0  0  0  0  0  0  0  0  0  0  0
   44.0495   35.8596   44.3470 H   0  0  0  0  0  0  0  0  0  0  0  0
   47.1068   32.1835   40.4629 H   0  0  0  0  0  0  0  0  0  0  0  0
   45.3454   32.4747   40.8013 H   0  0  0  0  0  0  0  0  0  0  0  0
   43.6963   32.6144   36.5379 H   0  0  0  0  0  0  0  0  0  0  0  0
   46.1863   33.0132   35.5916 H   0  0  0  0  0  0  0  0  0  0  0  0
   48.5085   32.9671   38.8107 H   0  0  0  0  0  0  0  0  0  0  0  0
   48.5904   32.5870   37.0274 H   0  0  0  0  0  0  0  0  0  0  0  0
   48.6963   35.1789   38.4458 H   0  0  0  0  0  0  0  0  0  0  0  0
   49.4755   34.6331   36.9222 H   0  0  0  0  0  0  0  0  0  0  0  0
   47.7467   35.1209   36.9222 H   0  0  0  0  0  0  0  0  0  0  0  0
  1  3  1  0
  1  8  1  0
  2  7  2  0
  3  2  1  0
  3  4  2  0
  4  5  1  0
  5  6  2  0
  7  6  1  0
  8 12  1  0
  9  8  2  0
  9 10  1  0
 10 11  2  0
 12 11  1  0
 13  1  1  0
 14 13  1  0
 15 14  1  0
 16 15  2  0
 17 16  1  0
 17 18  2  0
 18 19  1  0
 18 14  1  0
 20 19  1  0
  1 21  1  6
  2 22  1  0
  4 23  1  0
  6 24  1  0
  9 25  1  0
 10 26  1  0
 11 27  1  0
 13 28  1  0
 13 29  1  0
 16 30  1  0
 17 31  1  0
 19 32  1  0
 19 33  1  0
 20 34  1  0
 20 35  1  0
 20 36  1  0
M  ISO  8  21   8  22  14  23  14  24  14  25  14  26  14  27  14  28   8
M  ISO  8  29   8  30  14  31  14  32   8  33   8  34   8  35   8  36   8
M  END
>  <minimizedAffinity>  (1) 
-4.45520973

>  <minimizedRMSD>  (1) 
0.63083148

$$$$
