
     RDKit          3D

 32 34  0  0  1  0  0  0  0  0999 V2000
   46.5770   34.2340   40.7610 C   0  0  2  0  0  0  0  0  0  0  0  0
   48.5570   35.4800   41.5330 C   0  0  0  0  0  0  0  0  0  0  0  0
   47.8420   34.3130   41.3970 C   0  0  0  0  0  0  0  0  0  0  0  0
   48.4440   33.1600   41.9090 C   0  0  0  0  0  0  0  0  0  0  0  0
   49.6640   33.2040   42.5020 N   0  0  0  0  0  0  0  0  0  0  0  0
   50.3080   34.3990   42.5980 C   0  0  0  0  0  0  0  0  0  0  0  0
   49.7620   35.5140   42.1220 N   0  0  0  0  0  0  0  0  0  0  0  0
   45.4420   34.7510   41.6340 C   0  0  0  0  0  0  0  0  0  0  0  0
   44.1540   34.9110   41.0970 C   0  0  0  0  0  0  0  0  0  0  0  0
   43.4320   35.3890   42.1790 C   0  0  0  0  0  0  0  0  0  0  0  0
   44.2930   35.4920   43.2840 C   0  0  0  0  0  0  0  0  0  0  0  0
   45.4820   35.1000   42.9100 O   0  0  0  0  0  0  0  0  0  0  0  0
   46.2730   32.9150   40.1800 C   0  0  0  0  0  0  0  0  0  0  0  0
   46.3820   32.9380   38.7380 N   0  0  0  0  0  0  0  0  0  0  0  0
   45.2910   33.0730   37.9900 N   0  0  0  0  0  0  0  0  0  0  0  0
   45.5380   33.0680   36.7020 C   0  0  0  0  0  0  0  0  0  0  0  0
   46.8830   32.9200   36.5580 C   0  0  0  0  0  0  0  0  0  0  0  0
   47.3600   32.8430   37.8480 C   0  0  0  0  0  0  0  0  0  0  0  0
   48.7230   32.6820   38.3030 N   0  0  0  0  0  0  0  0  0  0  0  0
   46.6589   34.9177   39.9032 H   0  0  0  0  0  0  0  0  0  0  0  0
   48.1270   36.4157   41.1464 H   0  0  0  0  0  0  0  0  0  0  0  0
   47.9181   32.1971   41.8296 H   0  0  0  0  0  0  0  0  0  0  0  0
   51.2970   34.4432   43.0775 H   0  0  0  0  0  0  0  0  0  0  0  0
   43.8056   34.7077   40.0736 H   0  0  0  0  0  0  0  0  0  0  0  0
   42.3623   35.6452   42.1734 H   0  0  0  0  0  0  0  0  0  0  0  0
   44.0148   35.8417   44.2891 H   0  0  0  0  0  0  0  0  0  0  0  0
   46.9812   32.1750   40.5811 H   0  0  0  0  0  0  0  0  0  0  0  0
   45.2394   32.6485   40.4458 H   0  0  0  0  0  0  0  0  0  0  0  0
   44.7992   33.1649   35.8928 H   0  0  0  0  0  0  0  0  0  0  0  0
   47.4594   32.8725   35.6223 H   0  0  0  0  0  0  0  0  0  0  0  0
   48.9278   32.6406   39.3116 H   0  0  0  0  0  0  0  0  0  0  0  0
   49.4892   32.6087   37.6185 H   0  0  0  0  0  0  0  0  0  0  0  0
  1  3  1  0
  1  8  1  0
  2  7  2  0
  3  2  1  0
  3  4  2  0
  4  5  1  0
  5  6  2  0
  7  6  1  0
  8 12  1  0
  9  8  2  0
  9 10  1  0
 10 11  2  0
 12 11  1  0
 13  1  1  0
 14 13  1  0
 15 14  1  0
 16 15  2  0
 17 16  1  0
 17 18  2  0
 18 19  1  0
 18 14  1  0
  1 20  1  6
  2 21  1  0
  4 22  1  0
  6 23  1  0
  9 24  1  0
 10 25  1  0
 11 26  1  0
 13 27  1  0
 13 28  1  0
 16 29  1  0
 17 30  1  0
 19 31  1  0
 19 32  1  0
M  ISO  8  20   8  21  14  22  14  23  14  24  14  25  14  26  14  27   8
M  ISO  3  28   8  29  14  30  14
M  END
>  <minimizedAffinity>  (1) 
-4.34090757

>  <minimizedRMSD>  (1) 
0.0925557017

$$$$
