
     RDKit          3D

 39 41  0  0  1  0  0  0  0  0999 V2000
   46.2130   32.8250   40.2710 C   0  0  0  0  0  0  0  0  0  0  0  0
   46.0910   32.8450   38.8180 N   0  0  0  0  0  0  0  0  0  0  0  0
   44.9150   33.0890   38.2530 N   0  0  0  0  0  0  0  0  0  0  0  0
   44.9660   33.0680   36.9370 C   0  0  0  0  0  0  0  0  0  0  0  0
   46.2420   32.7970   36.5920 C   0  0  0  0  0  0  0  0  0  0  0  0
   46.8970   32.6680   37.7980 C   0  0  0  0  0  0  0  0  0  0  0  0
   46.8900   32.6400   35.3350 N   0  0  0  0  0  0  0  0  0  0  0  0
   46.1730   32.2540   34.1840 C   0  0  0  0  0  0  0  0  0  0  0  0
   45.0590   32.8220   33.9220 N   0  0  0  0  0  0  0  0  0  0  0  0
   46.6880   31.2490   33.3200 N   0  0  0  0  0  0  0  0  0  0  0  0
   44.6220   33.5580   34.4870 H   0  0  0  0  0  0  0  0  0  0  0  0
   48.3040   32.3760   38.0360 N   0  0  0  0  0  0  0  0  0  0  0  0
   46.5620   34.1450   40.7930 C   0  0  2  0  0  0  0  0  0  0  0  0
   48.5010   35.4410   41.5820 C   0  0  0  0  0  0  0  0  0  0  0  0
   47.8300   34.2680   41.3890 C   0  0  0  0  0  0  0  0  0  0  0  0
   48.5050   33.1210   41.8020 C   0  0  0  0  0  0  0  0  0  0  0  0
   49.7410   33.1590   42.3570 N   0  0  0  0  0  0  0  0  0  0  0  0
   50.3340   34.3870   42.5100 C   0  0  0  0  0  0  0  0  0  0  0  0
   49.7220   35.4920   42.1300 N   0  0  0  0  0  0  0  0  0  0  0  0
   45.4390   34.7250   41.6730 C   0  0  0  0  0  0  0  0  0  0  0  0
   44.1650   34.9580   41.1280 C   0  0  0  0  0  0  0  0  0  0  0  0
   43.4700   35.4720   42.2160 C   0  0  0  0  0  0  0  0  0  0  0  0
   44.3440   35.5200   43.3300 C   0  0  0  0  0  0  0  0  0  0  0  0
   45.5020   35.0620   42.9460 O   0  0  0  0  0  0  0  0  0  0  0  0
   46.9979   32.1085   40.5548 H   0  0  0  0  0  0  0  0  0  0  0  0
   45.2430   32.5287   40.6968 H   0  0  0  0  0  0  0  0  0  0  0  0
   44.1257   33.2393   36.2482 H   0  0  0  0  0  0  0  0  0  0  0  0
   47.9031   32.8118   35.2645 H   0  0  0  0  0  0  0  0  0  0  0  0
   46.1596   30.9712   32.4806 H   0  0  0  0  0  0  0  0  0  0  0  0
   47.5894   30.7988   33.5335 H   0  0  0  0  0  0  0  0  0  0  0  0
   48.6599   32.3079   39.0002 H   0  0  0  0  0  0  0  0  0  0  0  0
   48.9430   32.2377   37.2402 H   0  0  0  0  0  0  0  0  0  0  0  0
   46.6559   34.7662   39.8901 H   0  0  0  0  0  0  0  0  0  0  0  0
   48.0199   36.3815   41.2753 H   0  0  0  0  0  0  0  0  0  0  0  0
   48.0147   32.1449   41.6723 H   0  0  0  0  0  0  0  0  0  0  0  0
   51.3369   34.4510   42.9572 H   0  0  0  0  0  0  0  0  0  0  0  0
   43.8090   34.7793   40.1027 H   0  0  0  0  0  0  0  0  0  0  0  0
   42.4166   35.7889   42.2128 H   0  0  0  0  0  0  0  0  0  0  0  0
   44.0906   35.8794   44.3383 H   0  0  0  0  0  0  0  0  0  0  0  0
  1 13  1  0
  2  1  1  0
  3  2  1  0
  4  3  2  0
  5  4  1  0
  5  6  2  0
  6 12  1  0
  6  2  1  0
  7  5  1  0
  8  7  1  0
  9  8  2  0
  9 11  1  0
 10  8  1  0
 13 15  1  0
 13 20  1  0
 14 19  2  0
 15 14  1  0
 15 16  2  0
 16 17  1  0
 17 18  2  0
 19 18  1  0
 20 24  1  0
 21 20  2  0
 21 22  1  0
 22 23  2  0
 24 23  1  0
  1 25  1  0
  1 26  1  0
  4 27  1  0
  7 28  1  0
 10 29  1  0
 10 30  1  0
 12 31  1  0
 12 32  1  0
 13 33  1  6
 14 34  1  0
 16 35  1  0
 18 36  1  0
 21 37  1  0
 22 38  1  0
 23 39  1  0
M  ISO  8  25   8  26   8  27  14  33   8  34  14  35  14  36  14  37  14
M  ISO  2  38  14  39  14
M  END
>  <minimizedAffinity>  (1) 
-5.97670126

>  <minimizedRMSD>  (1) 
0.549472153

$$$$
