
     RDKit          3D

 42 45  0  0  1  0  0  0  0  0999 V2000
   46.2690   32.6790   40.0370 C   0  0  0  0  0  0  0  0  0  0  0  0
   46.2200   32.7140   38.5790 N   0  0  0  0  0  0  0  0  0  0  0  0
   45.2260   33.3220   37.9450 N   0  0  0  0  0  0  0  0  0  0  0  0
   45.3100   33.2740   36.6480 C   0  0  0  0  0  0  0  0  0  0  0  0
   46.4440   32.5830   36.3800 C   0  0  0  0  0  0  0  0  0  0  0  0
   46.9710   32.2580   37.6010 C   0  0  0  0  0  0  0  0  0  0  0  0
   47.0650   32.2070   35.1540 N   0  0  0  0  0  0  0  0  0  0  0  0
   48.2770   32.7750   34.9180 C   0  0  0  0  0  0  0  0  0  0  0  0
   48.9530   32.4670   33.7500 C   0  0  0  0  0  0  0  0  0  0  0  0
   48.4250   31.5850   32.8030 C   0  0  0  0  0  0  0  0  0  0  0  0
   49.0310   31.2940   31.7340 O   0  0  0  0  0  0  0  0  0  0  0  0
   47.2230   31.0660   33.1120 N   0  0  0  0  0  0  0  0  0  0  0  0
   46.5500   31.3470   34.2320 C   0  0  0  0  0  0  0  0  0  0  0  0
   45.4380   30.8840   34.5470 O   0  0  0  0  0  0  0  0  0  0  0  0
   48.1810   31.5190   37.9060 N   0  0  0  0  0  0  0  0  0  0  0  0
   46.5900   33.9940   40.5870 C   0  0  2  0  0  0  0  0  0  0  0  0
   48.4600   35.2960   41.5200 C   0  0  0  0  0  0  0  0  0  0  0  0
   47.8340   34.1170   41.2280 C   0  0  0  0  0  0  0  0  0  0  0  0
   48.5330   32.9680   41.5880 C   0  0  0  0  0  0  0  0  0  0  0  0
   49.7490   33.0040   42.1850 N   0  0  0  0  0  0  0  0  0  0  0  0
   50.2980   34.2370   42.4380 C   0  0  0  0  0  0  0  0  0  0  0  0
   49.6620   35.3480   42.1100 N   0  0  0  0  0  0  0  0  0  0  0  0
   45.4370   34.5630   41.4310 C   0  0  0  0  0  0  0  0  0  0  0  0
   44.1740   34.7810   40.8400 C   0  0  0  0  0  0  0  0  0  0  0  0
   43.4390   35.2900   41.9050 C   0  0  0  0  0  0  0  0  0  0  0  0
   44.2780   35.3500   43.0460 C   0  0  0  0  0  0  0  0  0  0  0  0
   45.4450   34.9060   42.6980 O   0  0  0  0  0  0  0  0  0  0  0  0
   47.0394   31.9602   40.3529 H   0  0  0  0  0  0  0  0  0  0  0  0
   45.2797   32.3771   40.4114 H   0  0  0  0  0  0  0  0  0  0  0  0
   44.6067   33.7048   35.9202 H   0  0  0  0  0  0  0  0  0  0  0  0
   48.7159   33.4719   35.6472 H   0  0  0  0  0  0  0  0  0  0  0  0
   49.9332   32.9294   33.5619 H   0  0  0  0  0  0  0  0  0  0  0  0
   46.7942   30.4106   32.4431 H   0  0  0  0  0  0  0  0  0  0  0  0
   48.4494   31.3524   38.8864 H   0  0  0  0  0  0  0  0  0  0  0  0
   48.7720   31.1607   37.1423 H   0  0  0  0  0  0  0  0  0  0  0  0
   46.7093   34.6235   39.6928 H   0  0  0  0  0  0  0  0  0  0  0  0
   47.9575   36.2395   41.2605 H   0  0  0  0  0  0  0  0  0  0  0  0
   48.0784   31.9884   41.3787 H   0  0  0  0  0  0  0  0  0  0  0  0
   51.2838   34.3010   42.9218 H   0  0  0  0  0  0  0  0  0  0  0  0
   43.8537   34.5960   39.8041 H   0  0  0  0  0  0  0  0  0  0  0  0
   42.3828   35.5952   41.8682 H   0  0  0  0  0  0  0  0  0  0  0  0
   43.9908   35.7084   44.0455 H   0  0  0  0  0  0  0  0  0  0  0  0
  1 16  1  0
  2  1  1  0
  3  2  1  0
  4  3  2  0
  5  4  1  0
  5  6  2  0
  6 15  1  0
  6  2  1  0
  7  5  1  0
  8  7  1  0
  9  8  2  0
 10 12  1  0
 10  9  1  0
 11 10  2  0
 12 13  1  0
 13 14  2  0
 13  7  1  0
 16 18  1  0
 16 23  1  0
 17 22  2  0
 18 17  1  0
 18 19  2  0
 19 20  1  0
 20 21  2  0
 22 21  1  0
 23 27  1  0
 24 23  2  0
 24 25  1  0
 25 26  2  0
 27 26  1  0
  1 28  1  0
  1 29  1  0
  4 30  1  0
  8 31  1  0
  9 32  1  0
 12 33  1  0
 15 34  1  0
 15 35  1  0
 16 36  1  6
 17 37  1  0
 19 38  1  0
 21 39  1  0
 24 40  1  0
 25 41  1  0
 26 42  1  0
M  ISO  8  28   8  29   8  30  14  31  14  32  14  33   9  36   8  37  14
M  ISO  5  38  14  39  14  40  14  41  14  42  14
M  END
>  <minimizedAffinity>  (1) 
-5.45523357

>  <minimizedRMSD>  (1) 
1.01958299

$$$$
