
     RDKit          3D

 40 43  0  0  1  0  0  0  0  0999 V2000
   46.5880   34.0750   40.6480 C   0  0  2  0  0  0  0  0  0  0  0  0
   48.4750   35.4000   41.4950 C   0  0  0  0  0  0  0  0  0  0  0  0
   47.8290   34.2160   41.2910 C   0  0  0  0  0  0  0  0  0  0  0  0
   48.4990   33.0850   41.7400 C   0  0  0  0  0  0  0  0  0  0  0  0
   49.7140   33.1410   42.3420 N   0  0  0  0  0  0  0  0  0  0  0  0
   50.2870   34.3780   42.5050 C   0  0  0  0  0  0  0  0  0  0  0  0
   49.6740   35.4700   42.0890 N   0  0  0  0  0  0  0  0  0  0  0  0
   45.4250   34.6510   41.4750 C   0  0  0  0  0  0  0  0  0  0  0  0
   44.1500   34.8050   40.8920 C   0  0  0  0  0  0  0  0  0  0  0  0
   43.4110   35.3410   41.9400 C   0  0  0  0  0  0  0  0  0  0  0  0
   44.2540   35.4780   43.0610 C   0  0  0  0  0  0  0  0  0  0  0  0
   45.4500   35.0550   42.7410 O   0  0  0  0  0  0  0  0  0  0  0  0
   46.2730   32.7450   40.1320 C   0  0  0  0  0  0  0  0  0  0  0  0
   46.3440   32.7080   38.6750 N   0  0  0  0  0  0  0  0  0  0  0  0
   45.3130   33.1180   37.9480 N   0  0  0  0  0  0  0  0  0  0  0  0
   45.5240   33.0190   36.6570 C   0  0  0  0  0  0  0  0  0  0  0  0
   46.7640   32.5140   36.4950 C   0  0  0  0  0  0  0  0  0  0  0  0
   47.2290   32.3400   37.7790 C   0  0  0  0  0  0  0  0  0  0  0  0
   47.4480   32.2240   35.2450 C   0  0  0  0  0  0  0  0  0  0  0  0
   48.6120   32.8030   34.7950 C   0  0  0  0  0  0  0  0  0  0  0  0
   49.2000   32.4740   33.5960 C   0  0  0  0  0  0  0  0  0  0  0  0
   48.6030   31.5310   32.8150 N   0  0  0  0  0  0  0  0  0  0  0  0
   47.4470   30.9430   33.2380 C   0  0  0  0  0  0  0  0  0  0  0  0
   46.9260   31.3050   34.4120 N   0  0  0  0  0  0  0  0  0  0  0  0
   48.5120   31.8300   38.2070 N   0  0  0  0  0  0  0  0  0  0  0  0
   46.7119   34.6888   39.7436 H   0  0  0  0  0  0  0  0  0  0  0  0
   47.9943   36.3309   41.1598 H   0  0  0  0  0  0  0  0  0  0  0  0
   48.0246   32.1022   41.6017 H   0  0  0  0  0  0  0  0  0  0  0  0
   51.2712   34.4599   42.9893 H   0  0  0  0  0  0  0  0  0  0  0  0
   43.8240   34.5629   39.8697 H   0  0  0  0  0  0  0  0  0  0  0  0
   42.3459   35.6129   41.9010 H   0  0  0  0  0  0  0  0  0  0  0  0
   43.9558   35.8749   44.0426 H   0  0  0  0  0  0  0  0  0  0  0  0
   46.9924   32.0219   40.5437 H   0  0  0  0  0  0  0  0  0  0  0  0
   45.2466   32.4906   40.4349 H   0  0  0  0  0  0  0  0  0  0  0  0
   44.8216   33.2958   35.8570 H   0  0  0  0  0  0  0  0  0  0  0  0
   49.0953   33.5652   35.4239 H   0  0  0  0  0  0  0  0  0  0  0  0
   50.1321   32.9618   33.2747 H   0  0  0  0  0  0  0  0  0  0  0  0
   46.9509   30.1805   32.6195 H   0  0  0  0  0  0  0  0  0  0  0  0
   48.7268   31.7536   39.2115 H   0  0  0  0  0  0  0  0  0  0  0  0
   49.2115   31.5430   37.5075 H   0  0  0  0  0  0  0  0  0  0  0  0
  1  3  1  0
  1  8  1  0
  2  7  2  0
  3  2  1  0
  3  4  2  0
  4  5  1  0
  5  6  2  0
  7  6  1  0
  8 12  1  0
  9  8  2  0
  9 10  1  0
 10 11  2  0
 12 11  1  0
 13  1  1  0
 14 13  1  0
 15 14  1  0
 16 15  2  0
 17 16  1  0
 17 18  2  0
 18 25  1  0
 18 14  1  0
 19 17  1  0
 20 19  2  0
 21 20  1  0
 22 23  1  0
 22 21  2  0
 23 24  2  0
 24 19  1  0
  1 26  1  6
  2 27  1  0
  4 28  1  0
  6 29  1  0
  9 30  1  0
 10 31  1  0
 11 32  1  0
 13 33  1  0
 13 34  1  0
 16 35  1  0
 20 36  1  0
 21 37  1  0
 23 38  1  0
 25 39  1  0
 25 40  1  0
M  ISO  8  26   8  27  14  28  14  29  14  30  14  31  14  32  14  33   8
M  ISO  5  34   8  35  14  36  14  37  14  38  14
M  END
>  <minimizedAffinity>  (1) 
-5.18317175

>  <minimizedRMSD>  (1) 
0.554160893

$$$$
