
     RDKit          3D

 45 48  0  0  1  0  0  0  0  0999 V2000
   46.3130   32.7040   40.0580 C   0  0  0  0  0  0  0  0  0  0  0  0
   46.3390   32.6970   38.5990 N   0  0  0  0  0  0  0  0  0  0  0  0
   45.2650   33.0640   37.9120 N   0  0  0  0  0  0  0  0  0  0  0  0
   45.4300   33.0050   36.6140 C   0  0  0  0  0  0  0  0  0  0  0  0
   46.7000   32.5680   36.4010 C   0  0  0  0  0  0  0  0  0  0  0  0
   47.2150   32.3940   37.6710 C   0  0  0  0  0  0  0  0  0  0  0  0
   48.6420   31.6190   32.7660 C   0  0  0  0  0  0  0  0  0  0  0  0
   47.4370   31.0320   33.1200 C   0  0  0  0  0  0  0  0  0  0  0  0
   46.8530   31.3780   34.3130 C   0  0  0  0  0  0  0  0  0  0  0  0
   47.4470   32.3090   35.1740 C   0  0  0  0  0  0  0  0  0  0  0  0
   48.6450   32.8780   34.7970 C   0  0  0  0  0  0  0  0  0  0  0  0
   49.2410   32.5360   33.6010 C   0  0  0  0  0  0  0  0  0  0  0  0
   49.3470   31.1370   31.2240 S   0  0  0  0  0  0  0  0  0  0  0  0
   49.4750   32.3110   30.2980 O   0  0  0  0  0  0  0  0  0  0  0  0
   50.6740   30.4760   31.4270 O   0  0  0  0  0  0  0  0  0  0  0  0
   48.5430   31.9430   38.0540 N   0  0  0  0  0  0  0  0  0  0  0  0
   46.6170   34.0330   40.5860 C   0  0  2  0  0  0  0  0  0  0  0  0
   48.4730   35.3640   41.4860 C   0  0  0  0  0  0  0  0  0  0  0  0
   47.8510   34.1740   41.2450 C   0  0  0  0  0  0  0  0  0  0  0  0
   48.5360   33.0420   41.6700 C   0  0  0  0  0  0  0  0  0  0  0  0
   49.7430   33.1040   42.2840 N   0  0  0  0  0  0  0  0  0  0  0  0
   50.2950   34.3440   42.4850 C   0  0  0  0  0  0  0  0  0  0  0  0
   49.6670   35.4350   42.0930 N   0  0  0  0  0  0  0  0  0  0  0  0
   45.4440   34.5980   41.4100 C   0  0  0  0  0  0  0  0  0  0  0  0
   44.1780   34.7700   40.8110 C   0  0  0  0  0  0  0  0  0  0  0  0
   43.4280   35.2870   41.8590 C   0  0  0  0  0  0  0  0  0  0  0  0
   44.2440   35.3960   42.9850 C   0  0  0  0  0  0  0  0  0  0  0  0
   45.4490   34.9730   42.6820 O   0  0  0  0  0  0  0  0  0  0  0  0
   47.0600   31.9892   40.4336 H   0  0  0  0  0  0  0  0  0  0  0  0
   45.3034   32.4201   40.3897 H   0  0  0  0  0  0  0  0  0  0  0  0
   44.6856   33.2596   35.8452 H   0  0  0  0  0  0  0  0  0  0  0  0
   46.9560   30.2998   32.4547 H   0  0  0  0  0  0  0  0  0  0  0  0
   45.8976   30.9139   34.5990 H   0  0  0  0  0  0  0  0  0  0  0  0
   49.1304   33.6122   35.4568 H   0  0  0  0  0  0  0  0  0  0  0  0
   50.1974   32.9970   33.3133 H   0  0  0  0  0  0  0  0  0  0  0  0
   48.5013   30.2295   30.6425 H   0  0  0  0  0  0  0  0  0  0  0  0
   48.7911   31.8595   39.0502 H   0  0  0  0  0  0  0  0  0  0  0  0
   49.2357   31.7070   37.3292 H   0  0  0  0  0  0  0  0  0  0  0  0
   46.7453   34.6524   39.6860 H   0  0  0  0  0  0  0  0  0  0  0  0
   47.9793   36.2956   41.1723 H   0  0  0  0  0  0  0  0  0  0  0  0
   48.0801   32.0552   41.5013 H   0  0  0  0  0  0  0  0  0  0  0  0
   51.2739   34.4289   42.9795 H   0  0  0  0  0  0  0  0  0  0  0  0
   43.8656   34.5509   39.7793 H   0  0  0  0  0  0  0  0  0  0  0  0
   42.3649   35.5650   41.8094 H   0  0  0  0  0  0  0  0  0  0  0  0
   43.9286   35.7752   43.9682 H   0  0  0  0  0  0  0  0  0  0  0  0
  1 17  1  0
  2  1  1  0
  3  2  1  0
  4  3  2  0
  5  4  1  0
  5  6  2  0
  6 16  1  0
  6  2  1  0
  7  8  2  0
  7 12  1  0
  8  9  1  0
  9 10  2  0
 10  5  1  0
 11 10  1  0
 12 11  2  0
 13 15  2  0
 13  7  1  0
 14 13  2  0
 17 19  1  0
 17 24  1  0
 18 23  2  0
 19 18  1  0
 19 20  2  0
 20 21  1  0
 21 22  2  0
 23 22  1  0
 24 28  1  0
 25 24  2  0
 25 26  1  0
 26 27  2  0
 28 27  1  0
  1 29  1  0
  1 30  1  0
  4 31  1  0
  8 32  1  0
  9 33  1  0
 11 34  1  0
 12 35  1  0
 13 36  1  0
 16 37  1  0
 16 38  1  0
 17 39  1  6
 18 40  1  0
 20 41  1  0
 22 42  1  0
 25 43  1  0
 26 44  1  0
 27 45  1  0
M  ISO  8  29   8  30   8  31  14  32  14  33  14  34  14  35  14  36  11
M  ISO  7  39   8  40  14  41  14  42  14  43  14  44  14  45  14
M  END
>  <minimizedAffinity>  (1) 
-5.67412233

>  <minimizedRMSD>  (1) 
0.666288137

$$$$
