
     RDKit          3D

 34 36  0  0  1  0  0  0  0  0999 V2000
   46.5900   34.2210   40.7640 C   0  0  2  0  0  0  0  0  0  0  0  0
   48.5550   35.4750   41.5400 C   0  0  0  0  0  0  0  0  0  0  0  0
   47.8380   34.3220   41.3980 C   0  0  0  0  0  0  0  0  0  0  0  0
   48.4420   33.1810   41.9030 C   0  0  0  0  0  0  0  0  0  0  0  0
   49.6590   33.1900   42.4960 N   0  0  0  0  0  0  0  0  0  0  0  0
   50.3100   34.3960   42.5950 C   0  0  0  0  0  0  0  0  0  0  0  0
   49.7570   35.5200   42.1210 N   0  0  0  0  0  0  0  0  0  0  0  0
   45.4400   34.7480   41.6420 C   0  0  0  0  0  0  0  0  0  0  0  0
   44.1500   34.9120   41.0920 C   0  0  0  0  0  0  0  0  0  0  0  0
   43.4310   35.3930   42.1800 C   0  0  0  0  0  0  0  0  0  0  0  0
   44.2930   35.4910   43.2880 C   0  0  0  0  0  0  0  0  0  0  0  0
   45.4880   35.0930   42.9200 O   0  0  0  0  0  0  0  0  0  0  0  0
   46.2680   32.9260   40.1730 C   0  0  0  0  0  0  0  0  0  0  0  0
   46.3850   32.9560   38.7200 N   0  0  0  0  0  0  0  0  0  0  0  0
   45.3030   33.0880   37.9690 N   0  0  0  0  0  0  0  0  0  0  0  0
   45.5620   33.0920   36.6860 C   0  0  0  0  0  0  0  0  0  0  0  0
   46.9080   32.9550   36.5550 C   0  0  0  0  0  0  0  0  0  0  0  0
   47.3680   32.8750   37.8490 C   0  0  0  0  0  0  0  0  0  0  0  0
   48.7310   32.7280   38.2850 N   0  0  0  0  0  0  0  0  0  0  0  0
   47.7010   32.9010   35.3770 N   0  0  0  0  0  0  0  0  0  0  0  0
   46.7001   34.8870   39.8955 H   0  0  0  0  0  0  0  0  0  0  0  0
   48.1224   36.4114   41.1579 H   0  0  0  0  0  0  0  0  0  0  0  0
   47.9074   32.2234   41.8179 H   0  0  0  0  0  0  0  0  0  0  0  0
   51.3008   34.4390   43.0710 H   0  0  0  0  0  0  0  0  0  0  0  0
   43.8036   34.7111   40.0675 H   0  0  0  0  0  0  0  0  0  0  0  0
   42.3625   35.6544   42.1756 H   0  0  0  0  0  0  0  0  0  0  0  0
   44.0126   35.8417   44.2922 H   0  0  0  0  0  0  0  0  0  0  0  0
   46.9601   32.1696   40.5715 H   0  0  0  0  0  0  0  0  0  0  0  0
   45.2272   32.6795   40.4297 H   0  0  0  0  0  0  0  0  0  0  0  0
   44.8305   33.1879   35.8701 H   0  0  0  0  0  0  0  0  0  0  0  0
   48.9476   32.6798   39.2908 H   0  0  0  0  0  0  0  0  0  0  0  0
   49.4903   32.6709   37.5914 H   0  0  0  0  0  0  0  0  0  0  0  0
   48.7228   32.7928   35.4485 H   0  0  0  0  0  0  0  0  0  0  0  0
   47.2540   32.9700   34.4516 H   0  0  0  0  0  0  0  0  0  0  0  0
  1  3  1  0
  1  8  1  0
  2  7  2  0
  3  2  1  0
  3  4  2  0
  4  5  1  0
  5  6  2  0
  7  6  1  0
  8 12  1  0
  9  8  2  0
  9 10  1  0
 10 11  2  0
 12 11  1  0
 13  1  1  0
 14 13  1  0
 15 14  1  0
 16 15  2  0
 17 16  1  0
 17 18  2  0
 18 19  1  0
 18 14  1  0
 20 17  1  0
  1 21  1  6
  2 22  1  0
  4 23  1  0
  6 24  1  0
  9 25  1  0
 10 26  1  0
 11 27  1  0
 13 28  1  0
 13 29  1  0
 16 30  1  0
 19 31  1  0
 19 32  1  0
 20 33  1  0
 20 34  1  0
M  ISO  8  21   8  22  14  23  14  24  14  25  14  26  14  27  14  28   8
M  ISO  2  29   8  30  14
M  END
>  <minimizedAffinity>  (1) 
-4.70611286

>  <minimizedRMSD>  (1) 
0.0287690647

$$$$
