
     RDKit          3D

 33 35  0  0  1  0  0  0  0  0999 V2000
   46.6000   34.1790   40.6900 C   0  0  2  0  0  0  0  0  0  0  0  0
   48.5490   35.4750   41.4460 C   0  0  0  0  0  0  0  0  0  0  0  0
   47.8310   34.3180   41.3540 C   0  0  0  0  0  0  0  0  0  0  0  0
   48.4140   33.2020   41.9540 C   0  0  0  0  0  0  0  0  0  0  0  0
   49.6100   33.2540   42.5860 N   0  0  0  0  0  0  0  0  0  0  0  0
   50.2610   34.4610   42.6280 C   0  0  0  0  0  0  0  0  0  0  0  0
   49.7360   35.5340   42.0710 N   0  0  0  0  0  0  0  0  0  0  0  0
   45.4230   34.7110   41.5280 C   0  0  0  0  0  0  0  0  0  0  0  0
   44.1360   34.8060   40.9470 C   0  0  0  0  0  0  0  0  0  0  0  0
   43.3860   35.3170   42.0040 C   0  0  0  0  0  0  0  0  0  0  0  0
   44.2270   35.4960   43.1170 C   0  0  0  0  0  0  0  0  0  0  0  0
   45.4330   35.1200   42.7840 O   0  0  0  0  0  0  0  0  0  0  0  0
   46.3120   32.8640   40.1230 C   0  0  0  0  0  0  0  0  0  0  0  0
   46.5590   32.8440   38.6850 N   0  0  0  0  0  0  0  0  0  0  0  0
   45.5670   33.0410   37.8270 N   0  0  0  0  0  0  0  0  0  0  0  0
   45.9280   32.9970   36.5770 C   0  0  0  0  0  0  0  0  0  0  0  0
   47.2650   32.7500   36.5890 C   0  0  0  0  0  0  0  0  0  0  0  0
   47.6090   32.6640   37.9100 C   0  0  0  0  0  0  0  0  0  0  0  0
   48.9050   32.4150   38.4960 N   0  0  0  0  0  0  0  0  0  0  0  0
   48.4090   32.5630   35.2060 S   0  0  0  0  0  0  0  0  0  0  0  0
   46.7208   34.8209   39.8049 H   0  0  0  0  0  0  0  0  0  0  0  0
   48.1413   36.3906   40.9926 H   0  0  0  0  0  0  0  0  0  0  0  0
   47.8805   32.2410   41.9120 H   0  0  0  0  0  0  0  0  0  0  0  0
   51.2351   34.5343   43.1338 H   0  0  0  0  0  0  0  0  0  0  0  0
   43.8128   34.5450   39.9285 H   0  0  0  0  0  0  0  0  0  0  0  0
   42.3101   35.5438   41.9731 H   0  0  0  0  0  0  0  0  0  0  0  0
   43.9217   35.8857   44.0993 H   0  0  0  0  0  0  0  0  0  0  0  0
   46.9555   32.1153   40.6081 H   0  0  0  0  0  0  0  0  0  0  0  0
   45.2505   32.6343   40.2974 H   0  0  0  0  0  0  0  0  0  0  0  0
   45.2851   33.1316   35.6946 H   0  0  0  0  0  0  0  0  0  0  0  0
   49.0087   32.3784   39.5201 H   0  0  0  0  0  0  0  0  0  0  0  0
   49.7258   32.2740   37.8899 H   0  0  0  0  0  0  0  0  0  0  0  0
   49.6755   32.3560   35.6857 H   0  0  0  0  0  0  0  0  0  0  0  0
  1  3  1  0
  1  8  1  0
  2  7  2  0
  3  2  1  0
  3  4  2  0
  4  5  1  0
  5  6  2  0
  7  6  1  0
  8 12  1  0
  9  8  2  0
  9 10  1  0
 10 11  2  0
 12 11  1  0
 13  1  1  0
 14 13  1  0
 15 14  1  0
 16 17  1  0
 16 15  2  0
 17 18  2  0
 18 19  1  0
 18 14  1  0
 20 17  1  0
  1 21  1  6
  2 22  1  0
  4 23  1  0
  6 24  1  0
  9 25  1  0
 10 26  1  0
 11 27  1  0
 13 28  1  0
 13 29  1  0
 16 30  1  0
 19 31  1  0
 19 32  1  0
 20 33  1  0
M  ISO  8  21   8  22  14  23  14  24  14  25  14  26  14  27  14  28   8
M  ISO  3  29   8  30  14  33  11
M  END
>  <minimizedAffinity>  (1) 
-4.49989271

>  <minimizedRMSD>  (1) 
0.250376105

$$$$
