
     RDKit          3D

 26 28  0  0  0  0  0  0  0  0999 V2000
   46.0060   34.5880   41.5280 C   0  0  0  0  0  0  0  0  0  0  0  0
   46.4370   33.8610   40.4220 C   0  0  0  0  0  0  0  0  0  0  0  0
   45.4610   33.3440   39.6130 C   0  0  0  0  0  0  0  0  0  0  0  0
   44.1500   33.4780   39.7980 N   0  0  0  0  0  0  0  0  0  0  0  0
   43.7500   34.1980   40.8910 C   0  0  0  0  0  0  0  0  0  0  0  0
   44.6610   34.7440   41.7450 N   0  0  0  0  0  0  0  0  0  0  0  0
   42.3230   34.4050   41.1860 C   0  0  0  0  0  0  0  0  0  0  0  0
   41.5840   35.4830   41.5170 N   0  0  0  0  0  0  0  0  0  0  0  0
   40.3620   35.0590   41.6580 O   0  0  0  0  0  0  0  0  0  0  0  0
   40.2520   33.7790   41.4410 C   0  0  0  0  0  0  0  0  0  0  0  0
   41.4850   33.3790   41.1460 N   0  0  0  0  0  0  0  0  0  0  0  0
   46.9090   35.1650   42.4280 O   0  0  0  0  0  0  0  0  0  0  0  0
   47.8510   34.3130   43.0650 C   0  0  0  0  0  0  0  0  0  0  0  0
   49.0620   34.4510   42.8340 O   0  0  0  0  0  0  0  0  0  0  0  0
   46.3890   33.6400   45.0210 C   0  0  0  0  0  0  0  0  0  0  0  0
   47.2730   33.3200   43.9660 C   0  0  0  0  0  0  0  0  0  0  0  0
   47.6290   31.9810   43.7520 C   0  0  0  0  0  0  0  0  0  0  0  0
   47.0840   31.0290   44.6030 N   0  0  0  0  0  0  0  0  0  0  0  0
   46.2470   31.4030   45.5910 C   0  0  0  0  0  0  0  0  0  0  0  0
   45.9020   32.6650   45.8040 N   0  0  0  0  0  0  0  0  0  0  0  0
   47.5056   33.7098   40.2092 H   0  0  0  0  0  0  0  0  0  0  0  0
   45.7886   32.7684   38.7347 H   0  0  0  0  0  0  0  0  0  0  0  0
   39.3406   33.1651   41.4909 H   0  0  0  0  0  0  0  0  0  0  0  0
   46.1006   34.6863   45.2001 H   0  0  0  0  0  0  0  0  0  0  0  0
   48.3143   31.6954   42.9404 H   0  0  0  0  0  0  0  0  0  0  0  0
   45.8317   30.6263   46.2500 H   0  0  0  0  0  0  0  0  0  0  0  0
  1  6  1  0
  1 12  1  0
  2  1  2  0
  3  4  2  0
  3  2  1  0
  4  5  1  0
  5  7  1  0
  5  6  2  0
  7  8  2  0
  8  9  1  0
 10  9  1  0
 11  7  1  0
 11 10  2  0
 12 13  1  0
 13 16  1  0
 14 13  2  0
 15 20  2  0
 16 15  1  0
 17 16  2  0
 17 18  1  0
 18 19  2  0
 19 20  1  0
  2 21  1  0
  3 22  1  0
 10 23  1  0
 15 24  1  0
 17 25  1  0
 19 26  1  0
M  ISO  6  21  14  22  14  23  14  24  14  25  14  26  14
M  END
>  <minimizedAffinity>  (1) 
-4.4829812

>  <minimizedRMSD>  (1) 
6.56655169

$$$$
