
     RDKit          3D

 31 33  0  0  0  0  0  0  0  0999 V2000
   45.8660   31.5780   39.3050 C   0  0  0  0  0  0  0  0  0  0  0  0
   45.4010   30.3290   38.9040 C   0  0  0  0  0  0  0  0  0  0  0  0
   44.0400   30.1720   38.8200 C   0  0  0  0  0  0  0  0  0  0  0  0
   43.1490   31.1180   39.0910 N   0  0  0  0  0  0  0  0  0  0  0  0
   43.6140   32.3310   39.4800 C   0  0  0  0  0  0  0  0  0  0  0  0
   44.9530   32.5520   39.5840 N   0  0  0  0  0  0  0  0  0  0  0  0
   42.7150   33.4100   39.7920 N   0  0  0  0  0  0  0  0  0  0  0  0
   42.6940   34.4080   38.8890 C   0  0  0  0  0  0  0  0  0  0  0  0
   41.8170   35.4500   39.2050 C   0  0  0  0  0  0  0  0  0  0  0  0
   41.0670   35.3960   40.3630 C   0  0  0  0  0  0  0  0  0  0  0  0
   40.3100   36.3900   40.5470 O   0  0  0  0  0  0  0  0  0  0  0  0
   41.1290   34.3670   41.2350 N   0  0  0  0  0  0  0  0  0  0  0  0
   41.9820   33.3600   40.9200 C   0  0  0  0  0  0  0  0  0  0  0  0
   42.0480   32.3970   41.7260 O   0  0  0  0  0  0  0  0  0  0  0  0
   47.2340   31.8380   39.4220 O   0  0  0  0  0  0  0  0  0  0  0  0
   47.7770   31.9720   40.7290 C   0  0  0  0  0  0  0  0  0  0  0  0
   47.7880   30.9780   41.4870 O   0  0  0  0  0  0  0  0  0  0  0  0
   48.1700   34.4110   40.1970 C   0  0  0  0  0  0  0  0  0  0  0  0
   48.2830   33.3010   41.0640 C   0  0  0  0  0  0  0  0  0  0  0  0
   48.9010   33.4450   42.3080 C   0  0  0  0  0  0  0  0  0  0  0  0
   49.3850   34.6830   42.6510 N   0  0  0  0  0  0  0  0  0  0  0  0
   49.2570   35.7240   41.7890 C   0  0  0  0  0  0  0  0  0  0  0  0
   48.6650   35.5900   40.5950 N   0  0  0  0  0  0  0  0  0  0  0  0
   46.0915   29.5066   38.6657 H   0  0  0  0  0  0  0  0  0  0  0  0
   43.6593   29.1893   38.5047 H   0  0  0  0  0  0  0  0  0  0  0  0
   43.3138   34.4041   37.9802 H   0  0  0  0  0  0  0  0  0  0  0  0
   41.7244   36.3138   38.5303 H   0  0  0  0  0  0  0  0  0  0  0  0
   40.5595   34.3475   42.0930 H   0  0  0  0  0  0  0  0  0  0  0  0
   47.6852   34.3088   39.2149 H   0  0  0  0  0  0  0  0  0  0  0  0
   48.9973   32.5904   42.9938 H   0  0  0  0  0  0  0  0  0  0  0  0
   49.6519   36.7085   42.0803 H   0  0  0  0  0  0  0  0  0  0  0  0
  1 15  1  0
  1  6  1  0
  2  1  2  0
  3  2  1  0
  3  4  2  0
  4  5  1  0
  5  6  2  0
  5  7  1  0
  7 13  1  0
  8  9  2  0
  8  7  1  0
  9 10  1  0
 10 11  2  0
 10 12  1  0
 13 12  1  0
 13 14  2  0
 15 16  1  0
 16 19  1  0
 16 17  2  0
 18 23  2  0
 18 19  1  0
 19 20  2  0
 20 21  1  0
 22 21  2  0
 23 22  1  0
  2 24  1  0
  3 25  1  0
  8 26  1  0
  9 27  1  0
 12 28  1  0
 18 29  1  0
 20 30  1  0
 22 31  1  0
M  ISO  8  24  14  25  14  26  14  27  14  28   9  29  14  30  14  31  14
M  END
>  <minimizedAffinity>  (1) 
-4.45057154

>  <minimizedRMSD>  (1) 
8.20676613

$$$$
