
     RDKit          3D

 24 25  0  0  0  0  0  0  0  0999 V2000
   45.1680   33.1430   42.5570 C   0  0  0  0  0  0  0  0  0  0  0  0
   44.0900   33.5390   42.0870 O   0  0  0  0  0  0  0  0  0  0  0  0
   45.8410   31.6790   44.5040 C   0  0  0  0  0  0  0  0  0  0  0  0
   45.4480   32.9300   43.9830 C   0  0  0  0  0  0  0  0  0  0  0  0
   45.3080   34.0330   44.8280 C   0  0  0  0  0  0  0  0  0  0  0  0
   45.5690   33.8400   46.1620 N   0  0  0  0  0  0  0  0  0  0  0  0
   45.9440   32.6280   46.6290 C   0  0  0  0  0  0  0  0  0  0  0  0
   46.0780   31.5640   45.8230 N   0  0  0  0  0  0  0  0  0  0  0  0
   46.2410   32.8650   41.6870 O   0  0  0  0  0  0  0  0  0  0  0  0
   47.4060   33.6350   41.8000 C   0  0  0  0  0  0  0  0  0  0  0  0
   47.3600   35.0330   41.7000 C   0  0  0  0  0  0  0  0  0  0  0  0
   48.5610   35.6850   41.8260 C   0  0  0  0  0  0  0  0  0  0  0  0
   49.7390   35.1000   42.0290 N   0  0  0  0  0  0  0  0  0  0  0  0
   49.7470   33.7510   42.1200 C   0  0  0  0  0  0  0  0  0  0  0  0
   48.6090   33.0100   42.0090 N   0  0  0  0  0  0  0  0  0  0  0  0
   51.0040   33.0150   42.3450 C   0  0  0  0  0  0  0  0  0  0  0  0
   45.9521   30.8090   43.8401 H   0  0  0  0  0  0  0  0  0  0  0  0
   45.0013   35.0158   44.4408 H   0  0  0  0  0  0  0  0  0  0  0  0
   46.1456   32.5106   47.7040 H   0  0  0  0  0  0  0  0  0  0  0  0
   46.4177   35.5746   41.5307 H   0  0  0  0  0  0  0  0  0  0  0  0
   48.5490   36.7825   41.7531 H   0  0  0  0  0  0  0  0  0  0  0  0
   51.1801   32.9119   43.4259 H   0  0  0  0  0  0  0  0  0  0  0  0
   50.9312   32.0168   41.8885 H   0  0  0  0  0  0  0  0  0  0  0  0
   51.8388   33.5670   41.8885 H   0  0  0  0  0  0  0  0  0  0  0  0
  1  4  1  0
  2  1  2  0
  3  8  2  0
  4  3  1  0
  4  5  2  0
  5  6  1  0
  6  7  2  0
  8  7  1  0
  9 10  1  0
  9  1  1  0
 10 15  1  0
 11 10  2  0
 11 12  1  0
 12 13  2  0
 13 14  1  0
 14 16  1  0
 15 14  2  0
  3 17  1  0
  5 18  1  0
  7 19  1  0
 11 20  1  0
 12 21  1  0
 16 22  1  0
 16 23  1  0
 16 24  1  0
M  ISO  8  17  14  18  14  19  14  20  14  21  14  22   8  23   8  24   8
M  END
>  <minimizedAffinity>  (1) 
-3.82244635

>  <minimizedRMSD>  (1) 
0.564900994

$$$$
