
     RDKit          3D

 47 50  0  0  0  0  0  0  0  0999 V2000
   43.4830   34.6770   42.0070 O   0  0  0  0  0  0  0  0  0  0  0  0
   42.7120   34.5600   40.8730 C   0  0  0  0  0  0  0  0  0  0  0  0
   42.9500   35.2990   39.7270 C   0  0  0  0  0  0  0  0  0  0  0  0
   41.9850   34.9200   38.7990 C   0  0  0  0  0  0  0  0  0  0  0  0
   41.2040   33.9860   39.3880 N   0  0  0  0  0  0  0  0  0  0  0  0
   41.6330   33.7720   40.6150 N   0  0  0  0  0  0  0  0  0  0  0  0
   40.1170   33.4080   38.6650 C   0  0  0  0  0  0  0  0  0  0  0  0
   38.9250   34.0430   38.3180 C   0  0  0  0  0  0  0  0  0  0  0  0
   38.1240   33.1560   37.6120 C   0  0  0  0  0  0  0  0  0  0  0  0
   38.8390   32.0300   37.5530 N   0  0  0  0  0  0  0  0  0  0  0  0
   40.0300   32.1650   38.1780 N   0  0  0  0  0  0  0  0  0  0  0  0
   38.5180   30.7700   36.9450 C   0  0  0  0  0  0  0  0  0  0  0  0
   38.4760   29.6540   37.7730 C   0  0  0  0  0  0  0  0  0  0  0  0
   38.1660   28.4110   37.2110 C   0  0  0  0  0  0  0  0  0  0  0  0
   37.9200   28.3910   35.8500 C   0  0  0  0  0  0  0  0  0  0  0  0
   37.9530   29.4780   35.0000 C   0  0  0  0  0  0  0  0  0  0  0  0
   38.2670   30.7070   35.5940 C   0  0  0  0  0  0  0  0  0  0  0  0
   44.7060   34.0170   42.0460 C   0  0  0  0  0  0  0  0  0  0  0  0
   45.6680   34.8490   42.8900 C   0  0  0  0  0  0  0  0  0  0  0  0
   45.1340   34.4580   45.2760 C   0  0  0  0  0  0  0  0  0  0  0  0
   45.9300   34.1290   44.1550 C   0  0  0  0  0  0  0  0  0  0  0  0
   46.8790   33.1490   44.3690 C   0  0  0  0  0  0  0  0  0  0  0  0
   47.0150   32.5670   45.5690 N   0  0  0  0  0  0  0  0  0  0  0  0
   46.2360   32.9140   46.6050 C   0  0  0  0  0  0  0  0  0  0  0  0
   45.2810   33.8710   46.4650 N   0  0  0  0  0  0  0  0  0  0  0  0
   46.9530   35.0850   42.1560 C   0  0  0  0  0  0  0  0  0  0  0  0
   45.0020   36.1580   43.1750 C   0  0  0  0  0  0  0  0  0  0  0  0
   43.7475   36.0419   39.5787 H   0  0  0  0  0  0  0  0  0  0  0  0
   41.8772   35.3083   37.7755 H   0  0  0  0  0  0  0  0  0  0  0  0
   38.6613   35.0820   38.5646 H   0  0  0  0  0  0  0  0  0  0  0  0
   37.1232   33.3398   37.1942 H   0  0  0  0  0  0  0  0  0  0  0  0
   38.6826   29.7466   38.8495 H   0  0  0  0  0  0  0  0  0  0  0  0
   38.1202   27.4963   37.8203 H   0  0  0  0  0  0  0  0  0  0  0  0
   37.6748   27.4164   35.4027 H   0  0  0  0  0  0  0  0  0  0  0  0
   37.7457   29.3849   33.9237 H   0  0  0  0  0  0  0  0  0  0  0  0
   38.3128   31.6196   34.9816 H   0  0  0  0  0  0  0  0  0  0  0  0
   44.5785   33.0223   42.4979 H   0  0  0  0  0  0  0  0  0  0  0  0
   45.1035   33.8914   41.0281 H   0  0  0  0  0  0  0  0  0  0  0  0
   44.3600   35.2314   45.1630 H   0  0  0  0  0  0  0  0  0  0  0  0
   47.5343   32.8407   43.5410 H   0  0  0  0  0  0  0  0  0  0  0  0
   46.3717   32.4188   47.5778 H   0  0  0  0  0  0  0  0  0  0  0  0
   47.7670   35.2345   42.8806 H   0  0  0  0  0  0  0  0  0  0  0  0
   47.1798   34.2135   41.5243 H   0  0  0  0  0  0  0  0  0  0  0  0
   46.8554   35.9802   41.5243 H   0  0  0  0  0  0  0  0  0  0  0  0
   44.9284   36.3027   44.2629 H   0  0  0  0  0  0  0  0  0  0  0  0
   45.5945   36.9741   42.7358 H   0  0  0  0  0  0  0  0  0  0  0  0
   43.9935   36.1596   42.7358 H   0  0  0  0  0  0  0  0  0  0  0  0
  1 18  1  0
  2  1  1  0
  3  2  1  0
  4  5  1  0
  4  3  2  0
  5  6  1  0
  6  2  2  0
  7  5  1  0
  8  7  1  0
  9  8  2  0
 10  9  1  0
 10 11  1  0
 11  7  2  0
 12 10  1  0
 12 13  2  0
 14 13  1  0
 15 14  2  0
 16 17  2  0
 16 15  1  0
 17 12  1  0
 18 19  1  0
 19 27  1  0
 19 21  1  0
 20 25  2  0
 21 22  2  0
 21 20  1  0
 22 23  1  0
 23 24  2  0
 25 24  1  0
 26 19  1  0
  3 28  1  0
  4 29  1  0
  8 30  1  0
  9 31  1  0
 13 32  1  0
 14 33  1  0
 15 34  1  0
 16 35  1  0
 17 36  1  0
 18 37  1  0
 18 38  1  0
 20 39  1  0
 22 40  1  0
 24 41  1  0
 26 42  1  0
 26 43  1  0
 26 44  1  0
 27 45  1  0
 27 46  1  0
 27 47  1  0
M  ISO  8  28  14  29  14  30  14  31  14  32  14  33  14  34  14  35  14
M  ISO  8  36  14  37   8  38   8  39  14  40  14  41  14  42   8  43   8
M  ISO  4  44   8  45   8  46   8  47   8
M  END
>  <minimizedAffinity>  (1) 
-6.0153861

>  <minimizedRMSD>  (1) 
2.5123024

$$$$
