
     RDKit          3D

 45 48  0  0  0  0  0  0  0  0999 V2000
   46.8500   33.3700   39.0870 C   0  0  0  0  0  0  0  0  0  0  0  0
   47.9940   34.0550   38.6490 C   0  0  0  0  0  0  0  0  0  0  0  0
   48.5680   34.8920   39.5650 C   0  0  0  0  0  0  0  0  0  0  0  0
   48.1480   35.1050   40.7990 N   0  0  0  0  0  0  0  0  0  0  0  0
   47.0340   34.4270   41.2010 C   0  0  0  0  0  0  0  0  0  0  0  0
   46.3920   33.5720   40.3630 N   0  0  0  0  0  0  0  0  0  0  0  0
   46.5090   34.5880   42.5000 N   0  0  0  0  0  0  0  0  0  0  0  0
   46.0460   35.8540   43.0330 C   0  0  0  0  0  0  0  0  0  0  0  0
   44.8630   35.5260   43.9290 C   0  0  0  0  0  0  0  0  0  0  0  0
   44.1590   34.3570   43.4580 N   0  0  0  0  0  0  0  0  0  0  0  0
   44.9060   33.1440   43.4780 C   0  0  0  0  0  0  0  0  0  0  0  0
   46.3890   33.4780   43.4250 C   0  0  0  0  0  0  0  0  0  0  0  0
   46.1670   32.4770   38.2340 O   0  0  0  0  0  0  0  0  0  0  0  0
   45.0220   32.9490   37.5580 C   0  0  0  0  0  0  0  0  0  0  0  0
   45.1500   33.5890   36.5140 O   0  0  0  0  0  0  0  0  0  0  0  0
   43.1210   31.3450   38.0450 C   0  0  0  0  0  0  0  0  0  0  0  0
   43.7350   32.6080   38.2060 C   0  0  0  0  0  0  0  0  0  0  0  0
   43.1320   33.5760   38.9910 C   0  0  0  0  0  0  0  0  0  0  0  0
   41.9390   33.2870   39.6030 N   0  0  0  0  0  0  0  0  0  0  0  0
   41.3790   32.0700   39.4290 C   0  0  0  0  0  0  0  0  0  0  0  0
   41.9480   31.1260   38.6740 N   0  0  0  0  0  0  0  0  0  0  0  0
   40.1490   31.6550   40.0100 N   0  0  0  0  0  0  0  0  0  0  0  0
   39.9000   30.3250   40.0580 C   0  0  0  0  0  0  0  0  0  0  0  0
   38.6900   29.9130   40.6290 C   0  0  0  0  0  0  0  0  0  0  0  0
   37.8140   30.8920   41.1140 C   0  0  0  0  0  0  0  0  0  0  0  0
   36.6990   30.5610   41.6420 O   0  0  0  0  0  0  0  0  0  0  0  0
   38.1530   32.2010   41.0180 N   0  0  0  0  0  0  0  0  0  0  0  0
   39.3190   32.6090   40.4700 C   0  0  0  0  0  0  0  0  0  0  0  0
   39.6220   33.8290   40.3870 O   0  0  0  0  0  0  0  0  0  0  0  0
   48.4019   33.9269   37.6355 H   0  0  0  0  0  0  0  0  0  0  0  0
   49.4656   35.4406   39.2435 H   0  0  0  0  0  0  0  0  0  0  0  0
   46.8438   36.3377   43.6157 H   0  0  0  0  0  0  0  0  0  0  0  0
   45.7611   36.5487   42.2291 H   0  0  0  0  0  0  0  0  0  0  0  0
   45.2274   35.3383   44.9498 H   0  0  0  0  0  0  0  0  0  0  0  0
   44.1689   36.3793   43.9154 H   0  0  0  0  0  0  0  0  0  0  0  0
   43.8650   34.5331   42.4867 H   0  0  0  0  0  0  0  0  0  0  0  0
   44.6851   32.5895   44.4020 H   0  0  0  0  0  0  0  0  0  0  0  0
   44.6325   32.5234   42.6119 H   0  0  0  0  0  0  0  0  0  0  0  0
   46.9641   32.6131   43.0627 H   0  0  0  0  0  0  0  0  0  0  0  0
   46.7830   33.7342   44.4195 H   0  0  0  0  0  0  0  0  0  0  0  0
   43.5859   30.5641   37.4253 H   0  0  0  0  0  0  0  0  0  0  0  0
   43.6024   34.5617   39.1219 H   0  0  0  0  0  0  0  0  0  0  0  0
   40.6219   29.5951   39.6629 H   0  0  0  0  0  0  0  0  0  0  0  0
   38.4334   28.8454   40.6951 H   0  0  0  0  0  0  0  0  0  0  0  0
   37.4979   32.9107   41.3759 H   0  0  0  0  0  0  0  0  0  0  0  0
  1  6  1  0
  2  1  2  0
  2  3  1  0
  3  4  2  0
  4  5  1  0
  5  7  1  0
  6  5  2  0
  7  8  1  0
  7 12  1  0
  8  9  1  0
 10 11  1  0
 10  9  1  0
 12 11  1  0
 13  1  1  0
 14 17  1  0
 14 13  1  0
 15 14  2  0
 16 17  2  0
 16 21  1  0
 17 18  1  0
 18 19  2  0
 20 19  1  0
 20 22  1  0
 21 20  2  0
 22 23  1  0
 22 28  1  0
 23 24  2  0
 24 25  1  0
 25 26  2  0
 27 25  1  0
 28 27  1  0
 29 28  2  0
  2 30  1  0
  3 31  1  0
  8 32  1  0
  8 33  1  0
  9 34  1  0
  9 35  1  0
 10 36  1  0
 11 37  1  0
 11 38  1  0
 12 39  1  0
 12 40  1  0
 16 41  1  0
 18 42  1  0
 23 43  1  0
 24 44  1  0
 27 45  1  0
M  ISO  8  30  14  31  14  32  13  33  13  34  13  35  13  36   5  37  13
M  ISO  8  38  13  39  13  40  13  41  14  42  14  43  14  44  14  45   9
M  END
>  <minimizedAffinity>  (1) 
-6.24914026

>  <minimizedRMSD>  (1) 
1.53167582

$$$$
