
     RDKit          3D

 16 17  0  0  0  0  0  0  0  0999 V2000
   44.4820   35.9480   44.7040 C   0  0  0  0  0  0  0  0  0  0  0  0
   45.2130   35.9040   43.5100 C   0  0  0  0  0  0  0  0  0  0  0  0
   46.1380   34.8850   43.2900 C   0  0  0  0  0  0  0  0  0  0  0  0
   46.2560   33.9870   44.2960 N   0  0  0  0  0  0  0  0  0  0  0  0
   45.5610   34.0180   45.4430 C   0  0  0  0  0  0  0  0  0  0  0  0
   44.6810   35.0050   45.6270 N   0  0  0  0  0  0  0  0  0  0  0  0
   46.9480   34.7730   42.0530 C   0  0  0  0  0  0  0  0  0  0  0  0
   46.5620   33.9920   41.0230 C   0  0  0  0  0  0  0  0  0  0  0  0
   47.8700   34.2010   39.7830 S   0  0  0  0  0  0  0  0  0  0  0  0
   48.7850   35.3950   40.9480 C   0  0  0  0  0  0  0  0  0  0  0  0
   48.0800   35.4130   41.8680 N   0  0  0  0  0  0  0  0  0  0  0  0
   43.7515   36.7515   44.8790 H   0  0  0  0  0  0  0  0  0  0  0  0
   45.0564   36.6767   42.7430 H   0  0  0  0  0  0  0  0  0  0  0  0
   45.7126   33.2482   46.2139 H   0  0  0  0  0  0  0  0  0  0  0  0
   45.6582   33.3691   40.9511 H   0  0  0  0  0  0  0  0  0  0  0  0
   49.7340   35.9283   40.7900 H   0  0  0  0  0  0  0  0  0  0  0  0
  1  6  2  0
  2  1  1  0
  3  2  2  0
  3  4  1  0
  4  5  2  0
  5  6  1  0
  7  3  1  0
  8  7  2  0
  9 10  1  0
  9  8  1  0
 10 11  2  0
 11  7  1  0
  1 12  1  0
  2 13  1  0
  5 14  1  0
  8 15  1  0
 10 16  1  0
M  ISO  5  12  14  13  14  14  14  15  14  16  14
M  END
>  <minimizedAffinity>  (1) 
-4.05193043

>  <minimizedRMSD>  (1) 
1.23925996

$$$$
