
     RDKit          3D

 50 53  0  0  0  0  0  0  0  0999 V2000
   47.4350   32.6520   39.8020 C   0  0  0  0  0  0  0  0  0  0  0  0
   48.2390   33.5450   39.0890 C   0  0  0  0  0  0  0  0  0  0  0  0
   48.4850   34.7550   39.7140 C   0  0  0  0  0  0  0  0  0  0  0  0
   48.0240   35.1050   40.9000 N   0  0  0  0  0  0  0  0  0  0  0  0
   47.2440   34.2090   41.5650 C   0  0  0  0  0  0  0  0  0  0  0  0
   46.9460   32.9990   41.0380 N   0  0  0  0  0  0  0  0  0  0  0  0
   46.7100   34.5120   42.8460 N   0  0  0  0  0  0  0  0  0  0  0  0
   45.8220   35.6350   43.0990 C   0  0  0  0  0  0  0  0  0  0  0  0
   44.8690   35.1620   44.1710 C   0  0  0  0  0  0  0  0  0  0  0  0
   44.6210   33.7290   44.0850 N   0  0  0  0  0  0  0  0  0  0  0  0
   45.7640   32.9120   44.2960 C   0  0  0  0  0  0  0  0  0  0  0  0
   47.0200   33.7050   44.0160 C   0  0  0  0  0  0  0  0  0  0  0  0
   47.1160   31.3830   39.2590 O   0  0  0  0  0  0  0  0  0  0  0  0
   46.2250   31.3280   38.1830 C   0  0  0  0  0  0  0  0  0  0  0  0
   46.5940   30.8320   37.1040 O   0  0  0  0  0  0  0  0  0  0  0  0
   43.9340   31.2190   39.2640 C   0  0  0  0  0  0  0  0  0  0  0  0
   44.8810   31.8880   38.4460 C   0  0  0  0  0  0  0  0  0  0  0  0
   44.5700   33.1120   37.8550 C   0  0  0  0  0  0  0  0  0  0  0  0
   43.3190   33.6410   38.0940 N   0  0  0  0  0  0  0  0  0  0  0  0
   42.4580   32.9700   38.8750 C   0  0  0  0  0  0  0  0  0  0  0  0
   42.7320   31.8070   39.4450 N   0  0  0  0  0  0  0  0  0  0  0  0
   41.1820   33.5700   39.0840 N   0  0  0  0  0  0  0  0  0  0  0  0
   40.6780   33.9390   40.3930 C   0  0  0  0  0  0  0  0  0  0  0  0
   39.6400   35.0610   40.2590 C   0  0  0  0  0  0  0  0  0  0  0  0
   38.4240   34.4150   39.6700 C   0  0  0  0  0  0  0  0  0  0  0  0
   38.7980   33.6990   38.4170 C   0  0  0  0  0  0  0  0  0  0  0  0
   40.2390   33.8820   38.0270 C   0  0  0  0  0  0  0  0  0  0  0  0
   48.6489   33.3026   38.0974 H   0  0  0  0  0  0  0  0  0  0  0  0
   49.1143   35.4823   39.1802 H   0  0  0  0  0  0  0  0  0  0  0  0
   46.3943   36.5061   43.4505 H   0  0  0  0  0  0  0  0  0  0  0  0
   45.2896   35.9476   42.1886 H   0  0  0  0  0  0  0  0  0  0  0  0
   45.3015   35.3894   45.1565 H   0  0  0  0  0  0  0  0  0  0  0  0
   43.9105   35.6826   44.0283 H   0  0  0  0  0  0  0  0  0  0  0  0
   43.9160   33.4828   44.7944 H   0  0  0  0  0  0  0  0  0  0  0  0
   45.7767   32.5646   45.3396 H   0  0  0  0  0  0  0  0  0  0  0  0
   45.7221   32.0472   43.6175 H   0  0  0  0  0  0  0  0  0  0  0  0
   47.8632   33.0304   43.8066 H   0  0  0  0  0  0  0  0  0  0  0  0
   47.3147   34.3245   44.8758 H   0  0  0  0  0  0  0  0  0  0  0  0
   44.1712   30.2536   39.7349 H   0  0  0  0  0  0  0  0  0  0  0  0
   45.2978   33.6379   37.2196 H   0  0  0  0  0  0  0  0  0  0  0  0
   40.2081   33.0623   40.8627 H   0  0  0  0  0  0  0  0  0  0  0  0
   41.5136   34.2927   41.0149 H   0  0  0  0  0  0  0  0  0  0  0  0
   39.4079   35.4894   41.2452 H   0  0  0  0  0  0  0  0  0  0  0  0
   40.0090   35.8845   39.6300 H   0  0  0  0  0  0  0  0  0  0  0  0
   38.0046   33.6976   40.3908 H   0  0  0  0  0  0  0  0  0  0  0  0
   37.6740   35.1864   39.4411 H   0  0  0  0  0  0  0  0  0  0  0  0
   38.6103   32.6247   38.5609 H   0  0  0  0  0  0  0  0  0  0  0  0
   38.1877   34.1252   37.6071 H   0  0  0  0  0  0  0  0  0  0  0  0
   40.4511   33.2259   37.1699 H   0  0  0  0  0  0  0  0  0  0  0  0
   40.3705   34.9477   37.7885 H   0  0  0  0  0  0  0  0  0  0  0  0
  1  6  2  0
  2  3  2  0
  2  1  1  0
  3  4  1  0
  4  5  2  0
  5  7  1  0
  6  5  1  0
  7  8  1  0
  7 12  1  0
  8  9  1  0
 10  9  1  0
 10 11  1  0
 12 11  1  0
 13  1  1  0
 14 17  1  0
 14 13  1  0
 15 14  2  0
 16 21  2  0
 17 16  1  0
 18 19  1  0
 18 17  2  0
 19 20  2  0
 20 22  1  0
 20 21  1  0
 22 23  1  0
 24 23  1  0
 25 24  1  0
 26 25  1  0
 27 26  1  0
 27 22  1  0
  2 28  1  0
  3 29  1  0
  8 30  1  0
  8 31  1  0
  9 32  1  0
  9 33  1  0
 10 34  1  0
 11 35  1  0
 11 36  1  0
 12 37  1  0
 12 38  1  0
 16 39  1  0
 18 40  1  0
 23 41  1  0
 23 42  1  0
 24 43  1  0
 24 44  1  0
 25 45  1  0
 25 46  1  0
 26 47  1  0
 26 48  1  0
 27 49  1  0
 27 50  1  0
M  ISO  8  28  14  29  14  30  13  31  13  32  13  33  13  34   5  35  13
M  ISO  8  36  13  37  13  38  13  39  14  40  14  41  13  42  13  43  13
M  ISO  7  44  13  45  13  46  13  47  13  48  13  49  13  50  13
M  END
>  <minimizedAffinity>  (1) 
-5.8599968

>  <minimizedRMSD>  (1) 
0.938979566

$$$$
