
     RDKit          3D

 47 50  0  0  0  0  0  0  0  0999 V2000
   46.9700   32.6280   39.5710 C   0  0  0  0  0  0  0  0  0  0  0  0
   47.8680   33.4310   38.8510 C   0  0  0  0  0  0  0  0  0  0  0  0
   48.2920   34.5620   39.4910 C   0  0  0  0  0  0  0  0  0  0  0  0
   47.9350   34.9450   40.6930 N   0  0  0  0  0  0  0  0  0  0  0  0
   47.0610   34.1520   41.3760 C   0  0  0  0  0  0  0  0  0  0  0  0
   46.5750   33.0030   40.8330 N   0  0  0  0  0  0  0  0  0  0  0  0
   46.6180   34.4910   42.6870 N   0  0  0  0  0  0  0  0  0  0  0  0
   45.9040   35.7180   43.0030 C   0  0  0  0  0  0  0  0  0  0  0  0
   44.9300   35.3410   44.0930 C   0  0  0  0  0  0  0  0  0  0  0  0
   44.4870   33.9610   43.9820 N   0  0  0  0  0  0  0  0  0  0  0  0
   45.5120   32.9950   44.1390 C   0  0  0  0  0  0  0  0  0  0  0  0
   46.8500   33.6220   43.8200 C   0  0  0  0  0  0  0  0  0  0  0  0
   46.4580   31.4380   39.0240 O   0  0  0  0  0  0  0  0  0  0  0  0
   45.6500   31.5300   37.8720 C   0  0  0  0  0  0  0  0  0  0  0  0
   46.1070   31.2260   36.7580 O   0  0  0  0  0  0  0  0  0  0  0  0
   43.2010   31.1330   38.3580 C   0  0  0  0  0  0  0  0  0  0  0  0
   44.2760   32.0000   38.1260 C   0  0  0  0  0  0  0  0  0  0  0  0
   44.0820   33.3880   38.1260 C   0  0  0  0  0  0  0  0  0  0  0  0
   42.8070   33.8590   38.3610 N   0  0  0  0  0  0  0  0  0  0  0  0
   41.7890   32.9810   38.5820 C   0  0  0  0  0  0  0  0  0  0  0  0
   41.9910   31.6740   38.5780 N   0  0  0  0  0  0  0  0  0  0  0  0
   40.4910   33.5120   38.8190 N   0  0  0  0  0  0  0  0  0  0  0  0
   39.8230   33.5740   40.1220 C   0  0  0  0  0  0  0  0  0  0  0  0
   38.3670   33.7710   39.8400 C   0  0  0  0  0  0  0  0  0  0  0  0
   38.2500   33.5130   38.3480 C   0  0  0  0  0  0  0  0  0  0  0  0
   39.5670   34.0920   37.8620 C   0  0  0  0  0  0  0  0  0  0  0  0
   48.2082   33.1677   37.8386 H   0  0  0  0  0  0  0  0  0  0  0  0
   48.9965   35.2094   38.9484 H   0  0  0  0  0  0  0  0  0  0  0  0
   46.6023   36.4894   43.3598 H   0  0  0  0  0  0  0  0  0  0  0  0
   45.3935   36.1346   42.1222 H   0  0  0  0  0  0  0  0  0  0  0  0
   45.4197   35.4782   45.0684 H   0  0  0  0  0  0  0  0  0  0  0  0
   44.0459   35.9879   43.9937 H   0  0  0  0  0  0  0  0  0  0  0  0
   43.7747   33.7935   44.7069 H   0  0  0  0  0  0  0  0  0  0  0  0
   45.5162   32.6305   45.1769 H   0  0  0  0  0  0  0  0  0  0  0  0
   45.3297   32.1531   43.4549 H   0  0  0  0  0  0  0  0  0  0  0  0
   47.5854   32.8454   43.5628 H   0  0  0  0  0  0  0  0  0  0  0  0
   47.2524   34.1771   44.6802 H   0  0  0  0  0  0  0  0  0  0  0  0
   43.3429   30.0422   38.3601 H   0  0  0  0  0  0  0  0  0  0  0  0
   44.9186   34.0788   37.9446 H   0  0  0  0  0  0  0  0  0  0  0  0
   39.9801   32.6363   40.6753 H   0  0  0  0  0  0  0  0  0  0  0  0
   40.2246   34.3921   40.7380 H   0  0  0  0  0  0  0  0  0  0  0  0
   37.7568   33.0554   40.4107 H   0  0  0  0  0  0  0  0  0  0  0  0
   38.0087   34.7701   40.1288 H   0  0  0  0  0  0  0  0  0  0  0  0
   38.1728   32.4383   38.1267 H   0  0  0  0  0  0  0  0  0  0  0  0
   37.3565   33.9483   37.8766 H   0  0  0  0  0  0  0  0  0  0  0  0
   39.7949   33.7719   36.8346 H   0  0  0  0  0  0  0  0  0  0  0  0
   39.5909   35.1908   37.8154 H   0  0  0  0  0  0  0  0  0  0  0  0
  1  6  2  0
  2  3  2  0
  2  1  1  0
  3  4  1  0
  4  5  2  0
  5  7  1  0
  6  5  1  0
  7  8  1  0
  7 12  1  0
  8  9  1  0
 10  9  1  0
 10 11  1  0
 12 11  1  0
 13  1  1  0
 14 17  1  0
 14 13  1  0
 15 14  2  0
 16 21  2  0
 17 16  1  0
 18 17  2  0
 18 19  1  0
 19 20  2  0
 20 22  1  0
 21 20  1  0
 22 23  1  0
 24 23  1  0
 25 24  1  0
 26 25  1  0
 26 22  1  0
  2 27  1  0
  3 28  1  0
  8 29  1  0
  8 30  1  0
  9 31  1  0
  9 32  1  0
 10 33  1  0
 11 34  1  0
 11 35  1  0
 12 36  1  0
 12 37  1  0
 16 38  1  0
 18 39  1  0
 23 40  1  0
 23 41  1  0
 24 42  1  0
 24 43  1  0
 25 44  1  0
 25 45  1  0
 26 46  1  0
 26 47  1  0
M  ISO  8  27  14  28  14  29  13  30  13  31  13  32  13  33   5  34  13
M  ISO  8  35  13  36  13  37  13  38  14  39  14  40  13  41  13  42  13
M  ISO  5  43  13  44  13  45  13  46  13  47  13
M  END
>  <minimizedAffinity>  (1) 
-5.7609601

>  <minimizedRMSD>  (1) 
0.941120267

$$$$
