
     RDKit          3D

 45 48  0  0  0  0  0  0  0  0999 V2000
   47.3840   32.6590   39.8200 C   0  0  0  0  0  0  0  0  0  0  0  0
   48.1970   33.5470   39.1070 C   0  0  0  0  0  0  0  0  0  0  0  0
   48.4460   34.7490   39.7280 C   0  0  0  0  0  0  0  0  0  0  0  0
   47.9870   35.1110   40.9090 N   0  0  0  0  0  0  0  0  0  0  0  0
   47.2040   34.2260   41.5710 C   0  0  0  0  0  0  0  0  0  0  0  0
   46.8970   33.0120   41.0490 N   0  0  0  0  0  0  0  0  0  0  0  0
   46.6700   34.5430   42.8540 N   0  0  0  0  0  0  0  0  0  0  0  0
   45.7960   35.6590   43.1190 C   0  0  0  0  0  0  0  0  0  0  0  0
   44.8200   35.1930   44.1840 C   0  0  0  0  0  0  0  0  0  0  0  0
   44.5860   33.7760   44.0940 N   0  0  0  0  0  0  0  0  0  0  0  0
   45.7130   32.9520   44.3200 C   0  0  0  0  0  0  0  0  0  0  0  0
   46.9740   33.7470   44.0230 C   0  0  0  0  0  0  0  0  0  0  0  0
   47.0570   31.3930   39.2860 O   0  0  0  0  0  0  0  0  0  0  0  0
   46.1670   31.3340   38.1860 C   0  0  0  0  0  0  0  0  0  0  0  0
   46.5780   30.9360   37.0830 O   0  0  0  0  0  0  0  0  0  0  0  0
   43.9020   31.0260   39.2710 C   0  0  0  0  0  0  0  0  0  0  0  0
   44.7920   31.7730   38.4830 C   0  0  0  0  0  0  0  0  0  0  0  0
   44.3870   32.9980   37.9370 C   0  0  0  0  0  0  0  0  0  0  0  0
   43.1170   33.4360   38.1910 N   0  0  0  0  0  0  0  0  0  0  0  0
   42.2900   32.6840   38.9570 C   0  0  0  0  0  0  0  0  0  0  0  0
   42.6770   31.5150   39.4790 N   0  0  0  0  0  0  0  0  0  0  0  0
   40.9250   33.1520   39.2320 C   0  0  0  0  0  0  0  0  0  0  0  0
   40.1660   33.7300   38.2220 C   0  0  0  0  0  0  0  0  0  0  0  0
   38.8760   34.1850   38.4330 C   0  0  0  0  0  0  0  0  0  0  0  0
   38.3840   34.0260   39.7340 C   0  0  0  0  0  0  0  0  0  0  0  0
   39.0870   33.4610   40.7780 C   0  0  0  0  0  0  0  0  0  0  0  0
   40.3660   33.0320   40.4910 C   0  0  0  0  0  0  0  0  0  0  0  0
   48.6090   33.3007   38.1173 H   0  0  0  0  0  0  0  0  0  0  0  0
   49.0825   35.4693   39.1932 H   0  0  0  0  0  0  0  0  0  0  0  0
   46.3765   36.5189   43.4846 H   0  0  0  0  0  0  0  0  0  0  0  0
   45.2699   35.9797   42.2077 H   0  0  0  0  0  0  0  0  0  0  0  0
   45.2342   35.4256   45.1762 H   0  0  0  0  0  0  0  0  0  0  0  0
   43.8633   35.7136   44.0302 H   0  0  0  0  0  0  0  0  0  0  0  0
   43.8687   33.5290   44.7907 H   0  0  0  0  0  0  0  0  0  0  0  0
   45.7238   32.6214   45.3691 H   0  0  0  0  0  0  0  0  0  0  0  0
   45.6663   32.0700   43.6643 H   0  0  0  0  0  0  0  0  0  0  0  0
   47.8151   33.0687   43.8168 H   0  0  0  0  0  0  0  0  0  0  0  0
   47.2675   34.3757   44.8766 H   0  0  0  0  0  0  0  0  0  0  0  0
   44.2061   30.0625   39.7060 H   0  0  0  0  0  0  0  0  0  0  0  0
   45.0747   33.5934   37.3185 H   0  0  0  0  0  0  0  0  0  0  0  0
   40.6060   33.8296   37.2188 H   0  0  0  0  0  0  0  0  0  0  0  0
   38.2768   34.6414   37.6313 H   0  0  0  0  0  0  0  0  0  0  0  0
   37.3619   34.3773   39.9389 H   0  0  0  0  0  0  0  0  0  0  0  0
   38.6518   33.3584   41.7830 H   0  0  0  0  0  0  0  0  0  0  0  0
   40.9642   32.5771   41.2943 H   0  0  0  0  0  0  0  0  0  0  0  0
  1  6  2  0
  2  3  2  0
  2  1  1  0
  3  4  1  0
  4  5  2  0
  5  7  1  0
  6  5  1  0
  7  8  1  0
  7 12  1  0
  8  9  1  0
 10  9  1  0
 10 11  1  0
 12 11  1  0
 13  1  1  0
 14 17  1  0
 14 13  1  0
 15 14  2  0
 16 21  2  0
 17 16  1  0
 18 19  1  0
 18 17  2  0
 19 20  2  0
 20 22  1  0
 20 21  1  0
 22 27  2  0
 23 24  2  0
 23 22  1  0
 24 25  1  0
 25 26  2  0
 27 26  1  0
  2 28  1  0
  3 29  1  0
  8 30  1  0
  8 31  1  0
  9 32  1  0
  9 33  1  0
 10 34  1  0
 11 35  1  0
 11 36  1  0
 12 37  1  0
 12 38  1  0
 16 39  1  0
 18 40  1  0
 23 41  1  0
 24 42  1  0
 25 43  1  0
 26 44  1  0
 27 45  1  0
M  ISO  8  28  14  29  14  30  13  31  13  32  13  33  13  34   5  35  13
M  ISO  8  36  13  37  13  38  13  39  14  40  14  41  14  42  14  43  14
M  ISO  2  44  14  45  14
M  END
>  <minimizedAffinity>  (1) 
-5.6887989

>  <minimizedRMSD>  (1) 
0.683707297

$$$$
