
     RDKit          3D

 41 44  0  0  0  0  0  0  0  0999 V2000
   47.1300   32.4550   39.7810 C   0  0  0  0  0  0  0  0  0  0  0  0
   47.9310   33.2740   38.9860 C   0  0  0  0  0  0  0  0  0  0  0  0
   48.2750   34.4960   39.5390 C   0  0  0  0  0  0  0  0  0  0  0  0
   47.9020   34.9170   40.7290 N   0  0  0  0  0  0  0  0  0  0  0  0
   47.1240   34.0990   41.4800 C   0  0  0  0  0  0  0  0  0  0  0  0
   46.7400   32.8890   41.0230 N   0  0  0  0  0  0  0  0  0  0  0  0
   46.6800   34.4830   42.7760 N   0  0  0  0  0  0  0  0  0  0  0  0
   45.8630   35.6550   43.0430 C   0  0  0  0  0  0  0  0  0  0  0  0
   44.9380   35.2660   44.1810 C   0  0  0  0  0  0  0  0  0  0  0  0
   44.6310   33.8470   44.1690 N   0  0  0  0  0  0  0  0  0  0  0  0
   45.7500   32.9850   44.3570 C   0  0  0  0  0  0  0  0  0  0  0  0
   47.0170   33.7170   43.9580 C   0  0  0  0  0  0  0  0  0  0  0  0
   46.7180   31.1840   39.3200 O   0  0  0  0  0  0  0  0  0  0  0  0
   45.6800   31.1260   38.3700 C   0  0  0  0  0  0  0  0  0  0  0  0
   45.8300   30.4890   37.3220 O   0  0  0  0  0  0  0  0  0  0  0  0
   43.5880   31.4420   39.7550 C   0  0  0  0  0  0  0  0  0  0  0  0
   44.4620   31.8700   38.7450 C   0  0  0  0  0  0  0  0  0  0  0  0
   44.1990   33.0510   38.0390 C   0  0  0  0  0  0  0  0  0  0  0  0
   43.0700   33.7590   38.3710 N   0  0  0  0  0  0  0  0  0  0  0  0
   42.2570   33.3040   39.3560 C   0  0  0  0  0  0  0  0  0  0  0  0
   42.5000   32.1900   40.0260 N   0  0  0  0  0  0  0  0  0  0  0  0
   41.1040   34.0970   39.6410 N   0  0  0  0  0  0  0  0  0  0  0  0
   39.7850   33.9930   39.4320 C   0  0  0  0  0  0  0  0  0  0  0  0
   39.1600   35.0780   39.9350 N   0  0  0  0  0  0  0  0  0  0  0  0
   40.0970   35.8600   40.4590 C   0  0  0  0  0  0  0  0  0  0  0  0
   41.2880   35.2630   40.2810 N   0  0  0  0  0  0  0  0  0  0  0  0
   48.2679   32.9690   37.9842 H   0  0  0  0  0  0  0  0  0  0  0  0
   48.9080   35.1657   38.9383 H   0  0  0  0  0  0  0  0  0  0  0  0
   46.4968   36.5042   43.3382 H   0  0  0  0  0  0  0  0  0  0  0  0
   45.2984   35.9656   42.1515 H   0  0  0  0  0  0  0  0  0  0  0  0
   45.4239   35.5166   45.1355 H   0  0  0  0  0  0  0  0  0  0  0  0
   43.9954   35.8195   44.0582 H   0  0  0  0  0  0  0  0  0  0  0  0
   43.9543   33.6605   44.9228 H   0  0  0  0  0  0  0  0  0  0  0  0
   45.8133   32.6900   45.4148 H   0  0  0  0  0  0  0  0  0  0  0  0
   45.6318   32.0855   43.7349 H   0  0  0  0  0  0  0  0  0  0  0  0
   47.8186   32.9984   43.7321 H   0  0  0  0  0  0  0  0  0  0  0  0
   47.3798   34.3659   44.7688 H   0  0  0  0  0  0  0  0  0  0  0  0
   43.7862   30.5156   40.3140 H   0  0  0  0  0  0  0  0  0  0  0  0
   44.8749   33.4000   37.2444 H   0  0  0  0  0  0  0  0  0  0  0  0
   39.2874   33.1517   38.9274 H   0  0  0  0  0  0  0  0  0  0  0  0
   39.9277   36.8282   40.9529 H   0  0  0  0  0  0  0  0  0  0  0  0
  1  6  2  0
  2  3  2  0
  2  1  1  0
  3  4  1  0
  4  5  2  0
  5  7  1  0
  6  5  1  0
  7  8  1  0
  7 12  1  0
  8  9  1  0
 10  9  1  0
 10 11  1  0
 12 11  1  0
 13  1  1  0
 14 17  1  0
 14 13  1  0
 15 14  2  0
 16 21  2  0
 17 16  1  0
 18 19  1  0
 18 17  2  0
 19 20  2  0
 20 22  1  0
 20 21  1  0
 22 26  1  0
 23 22  1  0
 23 24  2  0
 24 25  1  0
 26 25  2  0
  2 27  1  0
  3 28  1  0
  8 29  1  0
  8 30  1  0
  9 31  1  0
  9 32  1  0
 10 33  1  0
 11 34  1  0
 11 35  1  0
 12 36  1  0
 12 37  1  0
 16 38  1  0
 18 39  1  0
 23 40  1  0
 25 41  1  0
M  ISO  8  27  14  28  14  29  13  30  13  31  13  32  13  33   5  34  13
M  ISO  7  35  13  36  13  37  13  38  14  39  14  40  14  41  14
M  END
>  <minimizedAffinity>  (1) 
-5.43349028

>  <minimizedRMSD>  (1) 
1.07376242

$$$$
