
     RDKit          3D

 47 49  0  0  0  0  0  0  0  0999 V2000
   46.2870   32.6840   39.1020 C   0  0  0  0  0  0  0  0  0  0  0  0
   47.2880   33.3500   38.3880 C   0  0  0  0  0  0  0  0  0  0  0  0
   48.0100   34.2940   39.1010 C   0  0  0  0  0  0  0  0  0  0  0  0
   47.8160   34.5870   40.3680 N   0  0  0  0  0  0  0  0  0  0  0  0
   46.8390   33.9220   41.0290 C   0  0  0  0  0  0  0  0  0  0  0  0
   46.0750   32.9830   40.4240 N   0  0  0  0  0  0  0  0  0  0  0  0
   46.5710   34.1870   42.4020 N   0  0  0  0  0  0  0  0  0  0  0  0
   46.1660   35.4820   42.9150 C   0  0  0  0  0  0  0  0  0  0  0  0
   45.2060   35.1920   44.0520 C   0  0  0  0  0  0  0  0  0  0  0  0
   44.4720   33.9710   43.8270 N   0  0  0  0  0  0  0  0  0  0  0  0
   45.2630   32.7940   43.7910 C   0  0  0  0  0  0  0  0  0  0  0  0
   46.6890   33.1570   43.4130 C   0  0  0  0  0  0  0  0  0  0  0  0
   45.4880   31.7020   38.4730 O   0  0  0  0  0  0  0  0  0  0  0  0
   44.4410   32.1280   37.6390 C   0  0  0  0  0  0  0  0  0  0  0  0
   44.5450   32.0020   36.4170 O   0  0  0  0  0  0  0  0  0  0  0  0
   42.3270   31.9020   39.0060 C   0  0  0  0  0  0  0  0  0  0  0  0
   43.2840   32.7050   38.3440 C   0  0  0  0  0  0  0  0  0  0  0  0
   43.1520   34.0940   38.3460 C   0  0  0  0  0  0  0  0  0  0  0  0
   42.0830   34.6560   38.9970 N   0  0  0  0  0  0  0  0  0  0  0  0
   41.1890   33.8330   39.6180 C   0  0  0  0  0  0  0  0  0  0  0  0
   41.3080   32.5040   39.6210 N   0  0  0  0  0  0  0  0  0  0  0  0
   40.0360   34.4610   40.3170 C   0  0  0  0  0  0  0  0  0  0  0  0
   39.9380   33.9280   41.7520 C   0  0  0  0  0  0  0  0  0  0  0  0
   40.1960   35.9590   40.4280 C   0  0  0  0  0  0  0  0  0  0  0  0
   38.7110   34.1680   39.6610 C   0  0  0  0  0  0  0  0  0  0  0  0
   47.4896   33.1381   37.3276 H   0  0  0  0  0  0  0  0  0  0  0  0
   48.8036   34.8380   38.5678 H   0  0  0  0  0  0  0  0  0  0  0  0
   47.0401   36.0387   43.2838 H   0  0  0  0  0  0  0  0  0  0  0  0
   45.6960   36.0985   42.1346 H   0  0  0  0  0  0  0  0  0  0  0  0
   45.7777   35.0980   44.9871 H   0  0  0  0  0  0  0  0  0  0  0  0
   44.4854   36.0208   44.1146 H   0  0  0  0  0  0  0  0  0  0  0  0
   43.7816   33.8690   44.5846 H   0  0  0  0  0  0  0  0  0  0  0  0
   45.2560   32.3165   44.7819 H   0  0  0  0  0  0  0  0  0  0  0  0
   44.8512   32.0967   43.0466 H   0  0  0  0  0  0  0  0  0  0  0  0
   47.2147   32.2795   43.0083 H   0  0  0  0  0  0  0  0  0  0  0  0
   47.2662   33.5033   44.2830 H   0  0  0  0  0  0  0  0  0  0  0  0
   42.4207   30.8060   39.0137 H   0  0  0  0  0  0  0  0  0  0  0  0
   43.8919   34.7273   37.8347 H   0  0  0  0  0  0  0  0  0  0  0  0
   40.0900   34.7548   42.4614 H   0  0  0  0  0  0  0  0  0  0  0  0
   38.9435   33.4859   41.9118 H   0  0  0  0  0  0  0  0  0  0  0  0
   40.7102   33.1611   41.9118 H   0  0  0  0  0  0  0  0  0  0  0  0
   40.2267   36.2468   41.4892 H   0  0  0  0  0  0  0  0  0  0  0  0
   41.1319   36.2651   39.9378 H   0  0  0  0  0  0  0  0  0  0  0  0
   39.3458   36.4559   39.9378 H   0  0  0  0  0  0  0  0  0  0  0  0
   37.9479   33.9993   40.4351 H   0  0  0  0  0  0  0  0  0  0  0  0
   38.4151   35.0224   39.0346 H   0  0  0  0  0  0  0  0  0  0  0  0
   38.8030   33.2685   39.0346 H   0  0  0  0  0  0  0  0  0  0  0  0
  1  6  2  0
  2  3  2  0
  2  1  1  0
  3  4  1  0
  4  5  2  0
  5  7  1  0
  6  5  1  0
  7  8  1  0
  7 12  1  0
  8  9  1  0
 10  9  1  0
 11 10  1  0
 12 11  1  0
 13  1  1  0
 14 17  1  0
 14 13  1  0
 15 14  2  0
 16 21  2  0
 17 18  2  0
 17 16  1  0
 18 19  1  0
 19 20  2  0
 20 21  1  0
 20 22  1  0
 22 24  1  0
 22 23  1  0
 25 22  1  0
  2 26  1  0
  3 27  1  0
  8 28  1  0
  8 29  1  0
  9 30  1  0
  9 31  1  0
 10 32  1  0
 11 33  1  0
 11 34  1  0
 12 35  1  0
 12 36  1  0
 16 37  1  0
 18 38  1  0
 23 39  1  0
 23 40  1  0
 23 41  1  0
 24 42  1  0
 24 43  1  0
 24 44  1  0
 25 45  1  0
 25 46  1  0
 25 47  1  0
M  ISO  8  26  14  27  14  28  13  29  13  30  13  31  13  32   5  33  13
M  ISO  8  34  13  35  13  36  13  37  14  38  14  39   8  40   8  41   8
M  ISO  6  42   8  43   8  44   8  45   8  46   8  47   8
M  END
>  <minimizedAffinity>  (1) 
-5.60117579

>  <minimizedRMSD>  (1) 
1.54136515

$$$$
