
     RDKit          3D

 42 45  0  0  0  0  0  0  0  0999 V2000
   47.1370   32.6340   39.7560 C   0  0  0  0  0  0  0  0  0  0  0  0
   48.0030   33.4600   39.0180 C   0  0  0  0  0  0  0  0  0  0  0  0
   48.3530   34.6360   39.6210 C   0  0  0  0  0  0  0  0  0  0  0  0
   47.9500   35.0460   40.8100 N   0  0  0  0  0  0  0  0  0  0  0  0
   47.1160   34.2290   41.4970 C   0  0  0  0  0  0  0  0  0  0  0  0
   46.7110   33.0440   40.9870 N   0  0  0  0  0  0  0  0  0  0  0  0
   46.6260   34.5840   42.7910 N   0  0  0  0  0  0  0  0  0  0  0  0
   45.8450   35.7710   43.0440 C   0  0  0  0  0  0  0  0  0  0  0  0
   44.8620   35.3880   44.1290 C   0  0  0  0  0  0  0  0  0  0  0  0
   44.5030   33.9790   44.0620 N   0  0  0  0  0  0  0  0  0  0  0  0
   45.5780   33.0790   44.2710 C   0  0  0  0  0  0  0  0  0  0  0  0
   46.8910   33.7580   43.9510 C   0  0  0  0  0  0  0  0  0  0  0  0
   46.7120   31.3940   39.2270 O   0  0  0  0  0  0  0  0  0  0  0  0
   45.7690   31.3940   38.1950 C   0  0  0  0  0  0  0  0  0  0  0  0
   46.1000   30.9850   37.0730 O   0  0  0  0  0  0  0  0  0  0  0  0
   43.5430   31.1450   39.3560 C   0  0  0  0  0  0  0  0  0  0  0  0
   44.4340   31.8950   38.5600 C   0  0  0  0  0  0  0  0  0  0  0  0
   44.0670   33.1450   38.0930 C   0  0  0  0  0  0  0  0  0  0  0  0
   42.8260   33.6240   38.4270 N   0  0  0  0  0  0  0  0  0  0  0  0
   42.0010   32.8830   39.1880 C   0  0  0  0  0  0  0  0  0  0  0  0
   42.3430   31.6840   39.6390 N   0  0  0  0  0  0  0  0  0  0  0  0
   40.6980   33.4680   39.4940 C   0  0  0  0  0  0  0  0  0  0  0  0
   40.1990   34.7410   39.3260 C   0  0  0  0  0  0  0  0  0  0  0  0
   38.9280   34.8150   39.7610 N   0  0  0  0  0  0  0  0  0  0  0  0
   38.5930   33.5790   40.2180 C   0  0  0  0  0  0  0  0  0  0  0  0
   39.6730   32.7940   40.0460 N   0  0  0  0  0  0  0  0  0  0  0  0
   48.3743   33.1787   38.0215 H   0  0  0  0  0  0  0  0  0  0  0  0
   49.0314   35.3006   39.0659 H   0  0  0  0  0  0  0  0  0  0  0  0
   46.4932   36.5915   43.3854 H   0  0  0  0  0  0  0  0  0  0  0  0
   45.3326   36.1222   42.1362 H   0  0  0  0  0  0  0  0  0  0  0  0
   45.3165   35.5932   45.1095 H   0  0  0  0  0  0  0  0  0  0  0  0
   43.9466   35.9807   43.9850 H   0  0  0  0  0  0  0  0  0  0  0  0
   43.7883   33.7963   44.7808 H   0  0  0  0  0  0  0  0  0  0  0  0
   45.5824   32.7546   45.3221 H   0  0  0  0  0  0  0  0  0  0  0  0
   45.4523   32.2073   43.6120 H   0  0  0  0  0  0  0  0  0  0  0  0
   47.6648   33.0104   43.7221 H   0  0  0  0  0  0  0  0  0  0  0  0
   47.2610   34.3522   44.7996 H   0  0  0  0  0  0  0  0  0  0  0  0
   43.8207   30.1499   39.7338 H   0  0  0  0  0  0  0  0  0  0  0  0
   44.7525   33.7387   37.4704 H   0  0  0  0  0  0  0  0  0  0  0  0
   40.7625   35.5818   38.8952 H   0  0  0  0  0  0  0  0  0  0  0  0
   37.6254   33.2783   40.6460 H   0  0  0  0  0  0  0  0  0  0  0  0
   39.7100   31.7979   40.3056 H   0  0  0  0  0  0  0  0  0  0  0  0
  1  6  2  0
  2  3  2  0
  2  1  1  0
  3  4  1  0
  4  5  2  0
  5  7  1  0
  6  5  1  0
  7  8  1  0
  7 12  1  0
  8  9  1  0
 10  9  1  0
 10 11  1  0
 12 11  1  0
 13  1  1  0
 14 17  1  0
 14 13  1  0
 15 14  2  0
 16 21  2  0
 17 16  1  0
 18 19  1  0
 18 17  2  0
 19 20  2  0
 20 22  1  0
 20 21  1  0
 22 26  1  0
 23 22  2  0
 23 24  1  0
 24 25  2  0
 26 25  1  0
  2 27  1  0
  3 28  1  0
  8 29  1  0
  8 30  1  0
  9 31  1  0
  9 32  1  0
 10 33  1  0
 11 34  1  0
 11 35  1  0
 12 36  1  0
 12 37  1  0
 16 38  1  0
 18 39  1  0
 23 40  1  0
 25 41  1  0
 26 42  1  0
M  ISO  8  27  14  28  14  29  13  30  13  31  13  32  13  33   5  34  13
M  ISO  8  35  13  36  13  37  13  38  14  39  14  40  14  41  14  42   9
M  END
>  <minimizedAffinity>  (1) 
-5.09175062

>  <minimizedRMSD>  (1) 
0.682614088

$$$$
