
     RDKit          3D

 44 47  0  0  0  0  0  0  0  0999 V2000
   44.8820   34.0500   41.9910 C   0  0  0  0  0  0  0  0  0  0  0  0
   45.7930   34.8700   42.8960 C   0  0  0  0  0  0  0  0  0  0  0  0
   45.1840   34.4470   45.2580 C   0  0  0  0  0  0  0  0  0  0  0  0
   46.0090   34.1270   44.1540 C   0  0  0  0  0  0  0  0  0  0  0  0
   46.9440   33.1300   44.3790 C   0  0  0  0  0  0  0  0  0  0  0  0
   47.0330   32.5320   45.5740 N   0  0  0  0  0  0  0  0  0  0  0  0
   46.2290   32.8690   46.5920 C   0  0  0  0  0  0  0  0  0  0  0  0
   45.2900   33.8380   46.4390 N   0  0  0  0  0  0  0  0  0  0  0  0
   47.1060   35.1300   42.2190 C   0  0  0  0  0  0  0  0  0  0  0  0
   45.1010   36.1650   43.1780 C   0  0  0  0  0  0  0  0  0  0  0  0
   43.6010   34.5830   42.0760 O   0  0  0  0  0  0  0  0  0  0  0  0
   42.7840   34.5150   40.9700 C   0  0  0  0  0  0  0  0  0  0  0  0
   42.8950   35.3750   39.8950 C   0  0  0  0  0  0  0  0  0  0  0  0
   41.9110   35.0020   38.9830 C   0  0  0  0  0  0  0  0  0  0  0  0
   41.2430   33.9530   39.5110 N   0  0  0  0  0  0  0  0  0  0  0  0
   41.7560   33.6610   40.6870 N   0  0  0  0  0  0  0  0  0  0  0  0
   40.1670   33.3540   38.7920 C   0  0  0  0  0  0  0  0  0  0  0  0
   38.9110   33.9140   38.5740 C   0  0  0  0  0  0  0  0  0  0  0  0
   38.1370   33.0330   37.8290 C   0  0  0  0  0  0  0  0  0  0  0  0
   38.9340   31.9810   37.6200 N   0  0  0  0  0  0  0  0  0  0  0  0
   40.1460   32.1630   38.1890 N   0  0  0  0  0  0  0  0  0  0  0  0
   38.5690   30.8130   36.8920 C   0  0  0  0  0  0  0  0  0  0  0  0
   38.4290   29.6470   37.6410 C   0  0  0  0  0  0  0  0  0  0  0  0
   38.0720   28.6410   36.7380 C   0  0  0  0  0  0  0  0  0  0  0  0
   38.0200   29.2650   35.5010 C   0  0  0  0  0  0  0  0  0  0  0  0
   38.3170   30.5350   35.6290 O   0  0  0  0  0  0  0  0  0  0  0  0
   44.8728   33.0010   42.3220 H   0  0  0  0  0  0  0  0  0  0  0  0
   45.2427   34.0847   40.9524 H   0  0  0  0  0  0  0  0  0  0  0  0
   44.4228   35.2317   45.1366 H   0  0  0  0  0  0  0  0  0  0  0  0
   47.6210   32.8261   43.5670 H   0  0  0  0  0  0  0  0  0  0  0  0
   46.3306   32.3562   47.5598 H   0  0  0  0  0  0  0  0  0  0  0  0
   47.8861   35.2845   42.9790 H   0  0  0  0  0  0  0  0  0  0  0  0
   47.3718   34.2671   41.5908 H   0  0  0  0  0  0  0  0  0  0  0  0
   47.0229   36.0291   41.5908 H   0  0  0  0  0  0  0  0  0  0  0  0
   45.0235   36.3101   44.2656 H   0  0  0  0  0  0  0  0  0  0  0  0
   45.6773   36.9921   42.7379 H   0  0  0  0  0  0  0  0  0  0  0  0
   44.0931   36.1456   42.7379 H   0  0  0  0  0  0  0  0  0  0  0  0
   43.6195   36.1948   39.7814 H   0  0  0  0  0  0  0  0  0  0  0  0
   41.7135   35.4753   38.0098 H   0  0  0  0  0  0  0  0  0  0  0  0
   38.5828   34.8998   38.9352 H   0  0  0  0  0  0  0  0  0  0  0  0
   37.1004   33.1706   37.4877 H   0  0  0  0  0  0  0  0  0  0  0  0
   38.5710   29.5392   38.7265 H   0  0  0  0  0  0  0  0  0  0  0  0
   37.8748   27.5821   36.9611 H   0  0  0  0  0  0  0  0  0  0  0  0
   37.7670   28.7679   34.5529 H   0  0  0  0  0  0  0  0  0  0  0  0
  1 11  1  0
  1  2  1  0
  2 10  1  0
  2  4  1  0
  3  8  2  0
  4  5  2  0
  4  3  1  0
  5  6  1  0
  6  7  2  0
  8  7  1  0
  9  2  1  0
 12 11  1  0
 13 12  1  0
 14 15  1  0
 14 13  2  0
 15 16  1  0
 16 12  2  0
 17 15  1  0
 18 17  1  0
 19 18  2  0
 20 19  1  0
 20 21  1  0
 21 17  2  0
 22 20  1  0
 22 23  2  0
 24 23  1  0
 25 26  1  0
 25 24  2  0
 26 22  1  0
  1 27  1  0
  1 28  1  0
  3 29  1  0
  5 30  1  0
  7 31  1  0
  9 32  1  0
  9 33  1  0
  9 34  1  0
 10 35  1  0
 10 36  1  0
 10 37  1  0
 13 38  1  0
 14 39  1  0
 18 40  1  0
 19 41  1  0
 23 42  1  0
 24 43  1  0
 25 44  1  0
M  ISO  8  27   8  28   8  29  14  30  14  31  14  32   8  33   8  34   8
M  ISO  8  35   8  36   8  37   8  38  14  39  14  40  14  41  14  42  14
M  ISO  2  43  14  44  14
M  END
>  <minimizedAffinity>  (1) 
-5.90336943

>  <minimizedRMSD>  (1) 
2.04062366

$$$$
