
     RDKit          3D

 36 38  0  0  0  0  0  0  0  0999 V2000
   46.8740   34.3700   42.1050 C   0  0  0  0  0  0  0  0  0  0  0  0
   44.5330   35.8970   44.7030 C   0  0  0  0  0  0  0  0  0  0  0  0
   45.2160   35.7430   43.4720 C   0  0  0  0  0  0  0  0  0  0  0  0
   46.0920   34.6540   43.3400 C   0  0  0  0  0  0  0  0  0  0  0  0
   46.2340   33.8160   44.3930 N   0  0  0  0  0  0  0  0  0  0  0  0
   45.5660   33.9880   45.5630 C   0  0  0  0  0  0  0  0  0  0  0  0
   44.7180   35.0320   45.7070 N   0  0  0  0  0  0  0  0  0  0  0  0
   45.8940   34.3440   40.9540 C   0  0  0  0  0  0  0  0  0  0  0  0
   47.9780   35.3460   41.8490 C   0  0  0  0  0  0  0  0  0  0  0  0
   47.4740   32.9940   42.2290 C   0  0  0  0  0  0  0  0  0  0  0  0
   47.8570   32.4740   40.9280 C   0  0  0  0  0  0  0  0  0  0  0  0
   47.0930   32.2160   39.8470 N   0  0  0  0  0  0  0  0  0  0  0  0
   47.6340   31.7330   38.7180 C   0  0  0  0  0  0  0  0  0  0  0  0
   48.9440   31.4630   38.5470 N   0  0  0  0  0  0  0  0  0  0  0  0
   49.7480   31.7090   39.6150 C   0  0  0  0  0  0  0  0  0  0  0  0
   51.0810   31.4280   39.4230 C   0  0  0  0  0  0  0  0  0  0  0  0
   51.9580   31.6530   40.4650 C   0  0  0  0  0  0  0  0  0  0  0  0
   51.4790   32.1500   41.6580 C   0  0  0  0  0  0  0  0  0  0  0  0
   50.1360   32.4220   41.8180 C   0  0  0  0  0  0  0  0  0  0  0  0
   49.2170   32.2100   40.7960 C   0  0  0  0  0  0  0  0  0  0  0  0
   43.8398   36.7407   44.8358 H   0  0  0  0  0  0  0  0  0  0  0  0
   45.0650   36.4536   42.6461 H   0  0  0  0  0  0  0  0  0  0  0  0
   45.7142   33.2799   46.3916 H   0  0  0  0  0  0  0  0  0  0  0  0
   44.8671   34.3168   41.3473 H   0  0  0  0  0  0  0  0  0  0  0  0
   46.0271   35.2460   40.3386 H   0  0  0  0  0  0  0  0  0  0  0  0
   46.0748   33.4503   40.3386 H   0  0  0  0  0  0  0  0  0  0  0  0
   48.3816   35.7028   42.8080 H   0  0  0  0  0  0  0  0  0  0  0  0
   48.7770   34.8536   41.2753 H   0  0  0  0  0  0  0  0  0  0  0  0
   47.5873   36.1994   41.2753 H   0  0  0  0  0  0  0  0  0  0  0  0
   48.3650   33.0467   42.8719 H   0  0  0  0  0  0  0  0  0  0  0  0
   46.7217   32.3218   42.6675 H   0  0  0  0  0  0  0  0  0  0  0  0
   46.9595   31.5435   37.8700 H   0  0  0  0  0  0  0  0  0  0  0  0
   51.4398   31.0330   38.4611 H   0  0  0  0  0  0  0  0  0  0  0  0
   53.0299   31.4375   40.3443 H   0  0  0  0  0  0  0  0  0  0  0  0
   52.1744   32.3316   42.4907 H   0  0  0  0  0  0  0  0  0  0  0  0
   49.7820   32.8178   42.7813 H   0  0  0  0  0  0  0  0  0  0  0  0
  1 10  1  0
  1  4  1  0
  2  7  2  0
  3  2  1  0
  4  3  2  0
  4  5  1  0
  5  6  2  0
  6  7  1  0
  8  1  1  0
  9  1  1  0
 11 10  1  0
 12 11  2  0
 13 12  1  0
 14 13  2  0
 14 15  1  0
 15 20  2  0
 16 15  1  0
 16 17  2  0
 17 18  1  0
 18 19  2  0
 20 11  1  0
 20 19  1  0
  2 21  1  0
  3 22  1  0
  6 23  1  0
  8 24  1  0
  8 25  1  0
  8 26  1  0
  9 27  1  0
  9 28  1  0
  9 29  1  0
 10 30  1  0
 10 31  1  0
 13 32  1  0
 16 33  1  0
 17 34  1  0
 18 35  1  0
 19 36  1  0
M  ISO  8  21  14  22  14  23  14  24   8  25   8  26   8  27   8  28   8
M  ISO  8  29   8  30   8  31   8  32  14  33  14  34  14  35  14  36  14
M  END
>  <minimizedAffinity>  (1) 
-5.06382084

>  <minimizedRMSD>  (1) 
1.43871021

$$$$
