
     RDKit          3D

 36 38  0  0  0  0  0  0  0  0999 V2000
   47.3420   34.2490   42.2220 C   0  0  0  0  0  0  0  0  0  0  0  0
   44.6590   36.0770   44.2130 C   0  0  0  0  0  0  0  0  0  0  0  0
   45.5390   35.7910   43.1470 C   0  0  0  0  0  0  0  0  0  0  0  0
   46.3790   34.6550   43.2650 C   0  0  0  0  0  0  0  0  0  0  0  0
   46.2810   33.9180   44.3940 N   0  0  0  0  0  0  0  0  0  0  0  0
   45.4300   34.2130   45.3990 C   0  0  0  0  0  0  0  0  0  0  0  0
   44.6240   35.2900   45.3040 N   0  0  0  0  0  0  0  0  0  0  0  0
   46.5260   33.7790   41.0210 C   0  0  0  0  0  0  0  0  0  0  0  0
   48.3220   35.3070   41.8300 C   0  0  0  0  0  0  0  0  0  0  0  0
   48.1230   33.0770   42.7000 C   0  0  0  0  0  0  0  0  0  0  0  0
   49.4710   32.9150   42.1740 C   0  0  0  0  0  0  0  0  0  0  0  0
   50.6930   33.4790   42.4370 C   0  0  0  0  0  0  0  0  0  0  0  0
   51.6710   32.9840   41.6630 N   0  0  0  0  0  0  0  0  0  0  0  0
   51.0730   32.0830   40.8850 C   0  0  0  0  0  0  0  0  0  0  0  0
   51.6500   31.2820   39.8990 C   0  0  0  0  0  0  0  0  0  0  0  0
   50.8530   30.3900   39.1840 C   0  0  0  0  0  0  0  0  0  0  0  0
   49.5090   30.2970   39.4420 C   0  0  0  0  0  0  0  0  0  0  0  0
   48.9640   31.1060   40.4270 C   0  0  0  0  0  0  0  0  0  0  0  0
   49.7150   31.9960   41.1530 C   0  0  0  0  0  0  0  0  0  0  0  0
   43.9952   36.9520   44.1513 H   0  0  0  0  0  0  0  0  0  0  0  0
   45.5720   36.4299   42.2522 H   0  0  0  0  0  0  0  0  0  0  0  0
   45.3938   33.5756   46.2948 H   0  0  0  0  0  0  0  0  0  0  0  0
   45.6227   33.2587   41.3724 H   0  0  0  0  0  0  0  0  0  0  0  0
   46.2353   34.6480   40.4125 H   0  0  0  0  0  0  0  0  0  0  0  0
   47.1318   33.0915   40.4125 H   0  0  0  0  0  0  0  0  0  0  0  0
   48.7473   35.7661   42.7346 H   0  0  0  0  0  0  0  0  0  0  0  0
   49.1289   34.8565   41.2334 H   0  0  0  0  0  0  0  0  0  0  0  0
   47.8111   36.0771   41.2334 H   0  0  0  0  0  0  0  0  0  0  0  0
   48.2023   33.1565   43.7943 H   0  0  0  0  0  0  0  0  0  0  0  0
   47.5692   32.1997   42.3344 H   0  0  0  0  0  0  0  0  0  0  0  0
   50.8542   34.2541   43.2006 H   0  0  0  0  0  0  0  0  0  0  0  0
   52.6676   33.2442   41.6691 H   0  0  0  0  0  0  0  0  0  0  0  0
   52.7270   31.3541   39.6874 H   0  0  0  0  0  0  0  0  0  0  0  0
   51.3050   29.7559   38.4071 H   0  0  0  0  0  0  0  0  0  0  0  0
   48.8766   29.5949   38.8788 H   0  0  0  0  0  0  0  0  0  0  0  0
   47.8864   31.0316   40.6350 H   0  0  0  0  0  0  0  0  0  0  0  0
  1 10  1  0
  1  4  1  0
  2  7  2  0
  3  4  2  0
  3  2  1  0
  4  5  1  0
  5  6  2  0
  7  6  1  0
  8  1  1  0
  9  1  1  0
 11 12  2  0
 11 10  1  0
 13 12  1  0
 14 19  2  0
 14 13  1  0
 15 14  1  0
 16 17  1  0
 16 15  2  0
 17 18  2  0
 18 19  1  0
 19 11  1  0
  2 20  1  0
  3 21  1  0
  6 22  1  0
  8 23  1  0
  8 24  1  0
  8 25  1  0
  9 26  1  0
  9 27  1  0
  9 28  1  0
 10 29  1  0
 10 30  1  0
 12 31  1  0
 13 32  1  0
 15 33  1  0
 16 34  1  0
 17 35  1  0
 18 36  1  0
M  ISO  8  20  14  21  14  22  14  23   8  24   8  25   8  26   8  27   8
M  ISO  8  28   8  29   8  30   8  31  14  32   9  33  14  34  14  35  14
M  ISO  1  36  14
M  END
>  <minimizedAffinity>  (1) 
-5.3438201

>  <minimizedRMSD>  (1) 
4.17113543

$$$$
