
     RDKit          3D

 36 38  0  0  0  0  0  0  0  0999 V2000
   46.9350   32.5480   39.7350 C   0  0  0  0  0  0  0  0  0  0  0  0
   47.8030   33.3230   38.9650 C   0  0  0  0  0  0  0  0  0  0  0  0
   48.2320   34.5000   39.5360 C   0  0  0  0  0  0  0  0  0  0  0  0
   47.8830   34.9280   40.7290 N   0  0  0  0  0  0  0  0  0  0  0  0
   47.0370   34.1570   41.4590 C   0  0  0  0  0  0  0  0  0  0  0  0
   46.5680   32.9940   40.9820 N   0  0  0  0  0  0  0  0  0  0  0  0
   46.6150   34.5600   42.7620 N   0  0  0  0  0  0  0  0  0  0  0  0
   45.8880   35.7870   43.0330 C   0  0  0  0  0  0  0  0  0  0  0  0
   44.9470   35.4530   44.1650 C   0  0  0  0  0  0  0  0  0  0  0  0
   44.5160   34.0640   44.1180 N   0  0  0  0  0  0  0  0  0  0  0  0
   45.5560   33.1220   44.3020 C   0  0  0  0  0  0  0  0  0  0  0  0
   46.8930   33.7480   43.9270 C   0  0  0  0  0  0  0  0  0  0  0  0
   46.4330   31.3250   39.2510 O   0  0  0  0  0  0  0  0  0  0  0  0
   45.4150   31.3550   38.2760 C   0  0  0  0  0  0  0  0  0  0  0  0
   45.6090   30.8460   37.1640 O   0  0  0  0  0  0  0  0  0  0  0  0
   43.2900   31.4590   39.6460 C   0  0  0  0  0  0  0  0  0  0  0  0
   44.1680   32.0180   38.6970 C   0  0  0  0  0  0  0  0  0  0  0  0
   43.8680   33.2400   38.1220 C   0  0  0  0  0  0  0  0  0  0  0  0
   42.7160   33.8860   38.4890 N   0  0  0  0  0  0  0  0  0  0  0  0
   41.9020   33.3030   39.4100 C   0  0  0  0  0  0  0  0  0  0  0  0
   42.1820   32.1270   39.9690 N   0  0  0  0  0  0  0  0  0  0  0  0
   40.3820   34.1220   39.9160 S   0  0  0  0  0  0  0  0  0  0  0  0
   48.1256   33.0118   37.9605 H   0  0  0  0  0  0  0  0  0  0  0  0
   48.9181   35.1294   38.9502 H   0  0  0  0  0  0  0  0  0  0  0  0
   46.5811   36.5871   43.3319 H   0  0  0  0  0  0  0  0  0  0  0  0
   45.3483   36.1476   42.1449 H   0  0  0  0  0  0  0  0  0  0  0  0
   45.4611   35.6341   45.1205 H   0  0  0  0  0  0  0  0  0  0  0  0
   44.0560   36.0907   44.0682 H   0  0  0  0  0  0  0  0  0  0  0  0
   43.8154   33.9190   44.8589 H   0  0  0  0  0  0  0  0  0  0  0  0
   45.5825   32.8088   45.3561 H   0  0  0  0  0  0  0  0  0  0  0  0
   45.3718   32.2482   43.6597 H   0  0  0  0  0  0  0  0  0  0  0  0
   47.6309   32.9682   43.6872 H   0  0  0  0  0  0  0  0  0  0  0  0
   47.3164   34.3407   44.7512 H   0  0  0  0  0  0  0  0  0  0  0  0
   43.5144   30.4884   40.1125 H   0  0  0  0  0  0  0  0  0  0  0  0
   44.5453   33.6876   37.3797 H   0  0  0  0  0  0  0  0  0  0  0  0
   40.3160   34.1576   41.2839 H   0  0  0  0  0  0  0  0  0  0  0  0
  1  6  2  0
  2  3  2  0
  2  1  1  0
  3  4  1  0
  4  5  2  0
  5  7  1  0
  6  5  1  0
  7  8  1  0
  7 12  1  0
  8  9  1  0
 10  9  1  0
 10 11  1  0
 12 11  1  0
 13  1  1  0
 14 17  1  0
 14 13  1  0
 15 14  2  0
 16 21  2  0
 17 16  1  0
 18 19  1  0
 18 17  2  0
 19 20  2  0
 20 22  1  0
 20 21  1  0
  2 23  1  0
  3 24  1  0
  8 25  1  0
  8 26  1  0
  9 27  1  0
  9 28  1  0
 10 29  1  0
 11 30  1  0
 11 31  1  0
 12 32  1  0
 12 33  1  0
 16 34  1  0
 18 35  1  0
 22 36  1  0
M  ISO  8  23  14  24  14  25  13  26  13  27  13  28  13  29   5  30  13
M  ISO  6  31  13  32  13  33  13  34  14  35  14  36  11
M  END
>  <minimizedAffinity>  (1) 
-4.23425007

>  <minimizedRMSD>  (1) 
0.677454293

$$$$
