
     RDKit          3D

 35 36  0  0  0  0  0  0  0  0999 V2000
   47.2220   34.2970   42.1720 C   0  0  0  0  0  0  0  0  0  0  0  0
   44.6260   36.2220   44.1570 C   0  0  0  0  0  0  0  0  0  0  0  0
   45.4880   35.8990   43.0930 C   0  0  0  0  0  0  0  0  0  0  0  0
   46.2810   34.7480   43.2090 C   0  0  0  0  0  0  0  0  0  0  0  0
   46.1680   34.0120   44.3490 N   0  0  0  0  0  0  0  0  0  0  0  0
   45.3280   34.3490   45.3600 C   0  0  0  0  0  0  0  0  0  0  0  0
   44.5600   35.4510   45.2640 N   0  0  0  0  0  0  0  0  0  0  0  0
   46.3950   33.9690   40.9280 C   0  0  0  0  0  0  0  0  0  0  0  0
   48.3170   35.2530   41.8500 C   0  0  0  0  0  0  0  0  0  0  0  0
   47.8590   33.0020   42.6160 C   0  0  0  0  0  0  0  0  0  0  0  0
   50.9420   31.6220   39.9580 C   0  0  0  0  0  0  0  0  0  0  0  0
   51.2230   32.1240   41.2320 C   0  0  0  0  0  0  0  0  0  0  0  0
   50.2040   32.5650   42.0730 C   0  0  0  0  0  0  0  0  0  0  0  0
   48.8780   32.5100   41.6510 C   0  0  0  0  0  0  0  0  0  0  0  0
   48.5900   32.0160   40.3950 C   0  0  0  0  0  0  0  0  0  0  0  0
   49.6080   31.5860   39.5760 C   0  0  0  0  0  0  0  0  0  0  0  0
   52.2720   31.0870   38.9570 S   0  0  0  0  0  0  0  0  0  0  0  0
   52.3390   32.0400   37.7960 O   0  0  0  0  0  0  0  0  0  0  0  0
   53.5980   31.2010   39.6870 O   0  0  0  0  0  0  0  0  0  0  0  0
   43.9939   37.1194   44.0860 H   0  0  0  0  0  0  0  0  0  0  0  0
   45.5386   36.5319   42.1947 H   0  0  0  0  0  0  0  0  0  0  0  0
   45.2742   33.7200   46.2608 H   0  0  0  0  0  0  0  0  0  0  0  0
   45.4126   33.5794   41.2330 H   0  0  0  0  0  0  0  0  0  0  0  0
   46.2577   34.8807   40.3281 H   0  0  0  0  0  0  0  0  0  0  0  0
   46.9199   33.2110   40.3281 H   0  0  0  0  0  0  0  0  0  0  0  0
   48.7556   35.6360   42.7832 H   0  0  0  0  0  0  0  0  0  0  0  0
   49.0929   34.7381   41.2644 H   0  0  0  0  0  0  0  0  0  0  0  0
   47.9115   36.0913   41.2644 H   0  0  0  0  0  0  0  0  0  0  0  0
   48.3440   33.1629   43.5901 H   0  0  0  0  0  0  0  0  0  0  0  0
   47.0652   32.2433   42.6807 H   0  0  0  0  0  0  0  0  0  0  0  0
   52.2667   32.1716   41.5762 H   0  0  0  0  0  0  0  0  0  0  0  0
   50.4469   32.9572   43.0716 H   0  0  0  0  0  0  0  0  0  0  0  0
   47.5470   31.9662   40.0491 H   0  0  0  0  0  0  0  0  0  0  0  0
   49.3548   31.1980   38.5783 H   0  0  0  0  0  0  0  0  0  0  0  0
   52.0694   29.7813   38.5952 H   0  0  0  0  0  0  0  0  0  0  0  0
  1 10  1  0
  1  4  1  0
  2  7  2  0
  3  4  2  0
  3  2  1  0
  4  5  1  0
  5  6  2  0
  7  6  1  0
  8  1  1  0
  9  1  1  0
 11 12  2  0
 12 13  1  0
 14 13  2  0
 14 10  1  0
 15 14  1  0
 16 11  1  0
 16 15  2  0
 17 19  2  0
 17 11  1  0
 18 17  2  0
  2 20  1  0
  3 21  1  0
  6 22  1  0
  8 23  1  0
  8 24  1  0
  8 25  1  0
  9 26  1  0
  9 27  1  0
  9 28  1  0
 10 29  1  0
 10 30  1  0
 12 31  1  0
 13 32  1  0
 15 33  1  0
 16 34  1  0
 17 35  1  0
M  ISO  8  20  14  21  14  22  14  23   8  24   8  25   8  26   8  27   8
M  ISO  8  28   8  29   8  30   8  31  14  32  14  33  14  34  14  35  11
M  END
>  <minimizedAffinity>  (1) 
-4.96827459

>  <minimizedRMSD>  (1) 
1.04187799

$$$$
