
     RDKit          3D

 31 32  0  0  0  0  0  0  0  0999 V2000
   47.1260   34.2550   42.1470 C   0  0  0  0  0  0  0  0  0  0  0  0
   44.6120   36.1320   44.2930 C   0  0  0  0  0  0  0  0  0  0  0  0
   45.4180   35.8450   43.1630 C   0  0  0  0  0  0  0  0  0  0  0  0
   46.2240   34.6970   43.2400 C   0  0  0  0  0  0  0  0  0  0  0  0
   46.1850   33.9360   44.3760 N   0  0  0  0  0  0  0  0  0  0  0  0
   45.3970   34.2520   45.4310 C   0  0  0  0  0  0  0  0  0  0  0  0
   44.6130   35.3520   45.3820 N   0  0  0  0  0  0  0  0  0  0  0  0
   46.3110   34.2320   40.8720 C   0  0  0  0  0  0  0  0  0  0  0  0
   48.3650   35.0880   41.9940 C   0  0  0  0  0  0  0  0  0  0  0  0
   47.5810   32.8410   42.4240 C   0  0  0  0  0  0  0  0  0  0  0  0
   48.8760   32.5190   41.7820 C   0  0  0  0  0  0  0  0  0  0  0  0
   50.1350   32.6780   42.3230 C   0  0  0  0  0  0  0  0  0  0  0  0
   51.2640   32.3360   41.6130 C   0  0  0  0  0  0  0  0  0  0  0  0
   51.1770   31.8160   40.3210 C   0  0  0  0  0  0  0  0  0  0  0  0
   49.9050   31.6710   39.8120 C   0  0  0  0  0  0  0  0  0  0  0  0
   48.8100   32.0110   40.5190 N   0  0  0  0  0  0  0  0  0  0  0  0
   43.9661   37.0222   44.2752 H   0  0  0  0  0  0  0  0  0  0  0  0
   45.4127   36.4886   42.2709 H   0  0  0  0  0  0  0  0  0  0  0  0
   45.3949   33.6140   46.3271 H   0  0  0  0  0  0  0  0  0  0  0  0
   45.2402   34.2018   41.1218 H   0  0  0  0  0  0  0  0  0  0  0  0
   46.5249   35.1365   40.2837 H   0  0  0  0  0  0  0  0  0  0  0  0
   46.5756   33.3410   40.2837 H   0  0  0  0  0  0  0  0  0  0  0  0
   48.7554   35.3505   42.9883 H   0  0  0  0  0  0  0  0  0  0  0  0
   49.1249   34.5167   41.4408 H   0  0  0  0  0  0  0  0  0  0  0  0
   48.1227   36.0074   41.4408 H   0  0  0  0  0  0  0  0  0  0  0  0
   47.6861   32.7122   43.5114 H   0  0  0  0  0  0  0  0  0  0  0  0
   46.8249   32.1614   42.0039 H   0  0  0  0  0  0  0  0  0  0  0  0
   50.2388   33.0852   43.3396 H   0  0  0  0  0  0  0  0  0  0  0  0
   52.2534   32.4753   42.0730 H   0  0  0  0  0  0  0  0  0  0  0  0
   52.0709   31.5384   39.7432 H   0  0  0  0  0  0  0  0  0  0  0  0
   49.7798   31.2652   38.7973 H   0  0  0  0  0  0  0  0  0  0  0  0
  1 10  1  0
  1  4  1  0
  2  7  2  0
  3  4  2  0
  3  2  1  0
  4  5  1  0
  5  6  2  0
  7  6  1  0
  8  1  1  0
  9  1  1  0
 11 12  2  0
 11 10  1  0
 13 12  1  0
 14 13  2  0
 15 14  1  0
 15 16  2  0
 16 11  1  0
  2 17  1  0
  3 18  1  0
  6 19  1  0
  8 20  1  0
  8 21  1  0
  8 22  1  0
  9 23  1  0
  9 24  1  0
  9 25  1  0
 10 26  1  0
 10 27  1  0
 12 28  1  0
 13 29  1  0
 14 30  1  0
 15 31  1  0
M  ISO  8  17  14  18  14  19  14  20   8  21   8  22   8  23   8  24   8
M  ISO  7  25   8  26   8  27   8  28  14  29  14  30  14  31  14
M  END
>  <minimizedAffinity>  (1) 
-4.56829071

>  <minimizedRMSD>  (1) 
0.707442462

$$$$
