
     RDKit          3D

 32 33  0  0  0  0  0  0  0  0999 V2000
   46.8730   33.5920   43.3100 C   0  0  0  0  0  0  0  0  0  0  0  0
   50.2130   32.0770   42.2890 C   0  0  0  0  0  0  0  0  0  0  0  0
   48.8530   32.1340   42.6420 C   0  0  0  0  0  0  0  0  0  0  0  0
   48.2780   33.3840   42.9290 C   0  0  0  0  0  0  0  0  0  0  0  0
   49.0900   34.4680   42.8450 N   0  0  0  0  0  0  0  0  0  0  0  0
   50.4010   34.3930   42.5020 C   0  0  0  0  0  0  0  0  0  0  0  0
   50.9540   33.1940   42.2250 N   0  0  0  0  0  0  0  0  0  0  0  0
   46.0420   32.5900   42.5170 C   0  0  0  0  0  0  0  0  0  0  0  0
   46.6170   33.4400   44.7820 C   0  0  0  0  0  0  0  0  0  0  0  0
   46.4500   34.9700   42.8950 C   0  0  0  0  0  0  0  0  0  0  0  0
   45.0560   35.1190   42.5960 N   0  0  0  0  0  0  0  0  0  0  0  0
   44.7320   34.7940   41.3090 C   0  0  0  0  0  0  0  0  0  0  0  0
   43.4450   34.8720   40.8270 C   0  0  0  0  0  0  0  0  0  0  0  0
   42.4320   35.2940   41.6570 C   0  0  0  0  0  0  0  0  0  0  0  0
   41.2280   35.3950   41.3020 O   0  0  0  0  0  0  0  0  0  0  0  0
   42.7850   35.6110   42.9370 N   0  0  0  0  0  0  0  0  0  0  0  0
   44.0490   35.5270   43.3890 C   0  0  0  0  0  0  0  0  0  0  0  0
   44.3830   35.8120   44.5460 O   0  0  0  0  0  0  0  0  0  0  0  0
   50.6752   31.1048   42.0625 H   0  0  0  0  0  0  0  0  0  0  0  0
   48.2494   31.2158   42.6927 H   0  0  0  0  0  0  0  0  0  0  0  0
   51.0108   35.3070   42.4500 H   0  0  0  0  0  0  0  0  0  0  0  0
   45.4977   31.9337   43.2119 H   0  0  0  0  0  0  0  0  0  0  0  0
   45.3230   33.1300   41.8834 H   0  0  0  0  0  0  0  0  0  0  0  0
   46.7056   31.9833   41.8834 H   0  0  0  0  0  0  0  0  0  0  0  0
   47.4285   33.9219   45.3470 H   0  0  0  0  0  0  0  0  0  0  0  0
   45.6589   33.9157   45.0386 H   0  0  0  0  0  0  0  0  0  0  0  0
   46.5760   32.3711   45.0386 H   0  0  0  0  0  0  0  0  0  0  0  0
   46.6980   35.6624   43.7130 H   0  0  0  0  0  0  0  0  0  0  0  0
   46.9864   35.1837   41.9587 H   0  0  0  0  0  0  0  0  0  0  0  0
   45.5306   34.4569   40.6318 H   0  0  0  0  0  0  0  0  0  0  0  0
   43.2276   34.5985   39.7840 H   0  0  0  0  0  0  0  0  0  0  0  0
   42.0506   35.9287   43.5856 H   0  0  0  0  0  0  0  0  0  0  0  0
  1  9  1  0
  2  3  2  0
  3  4  1  0
  4  1  1  0
  5  4  2  0
  6  5  1  0
  7  2  1  0
  7  6  2  0
  8  1  1  0
 10  1  1  0
 11 10  1  0
 11 17  1  0
 12 11  1  0
 13 12  2  0
 13 14  1  0
 14 16  1  0
 15 14  2  0
 16 17  1  0
 17 18  2  0
  2 19  1  0
  3 20  1  0
  6 21  1  0
  8 22  1  0
  8 23  1  0
  8 24  1  0
  9 25  1  0
  9 26  1  0
  9 27  1  0
 10 28  1  0
 10 29  1  0
 12 30  1  0
 13 31  1  0
 16 32  1  0
M  ISO  8  19  14  20  14  21  14  22   8  23   8  24   8  25   8  26   8
M  ISO  6  27   8  28   8  29   8  30  14  31  14  32   9
M  END
>  <minimizedAffinity>  (1) 
-5.06342745

>  <minimizedRMSD>  (1) 
6.20818138

$$$$
