
     RDKit          3D

 44 47  0  0  0  0  0  0  0  0999 V2000
   44.8870   34.0050   41.9640 C   0  0  0  0  0  0  0  0  0  0  0  0
   45.7860   34.8380   42.8640 C   0  0  0  0  0  0  0  0  0  0  0  0
   45.1870   34.4360   45.2340 C   0  0  0  0  0  0  0  0  0  0  0  0
   46.0060   34.1060   44.1300 C   0  0  0  0  0  0  0  0  0  0  0  0
   46.9420   33.1110   44.3570 C   0  0  0  0  0  0  0  0  0  0  0  0
   47.0370   32.5220   45.5580 N   0  0  0  0  0  0  0  0  0  0  0  0
   46.2350   32.8690   46.5780 C   0  0  0  0  0  0  0  0  0  0  0  0
   45.2970   33.8390   46.4180 N   0  0  0  0  0  0  0  0  0  0  0  0
   47.1010   35.1220   42.1960 C   0  0  0  0  0  0  0  0  0  0  0  0
   45.0780   36.1260   43.1350 C   0  0  0  0  0  0  0  0  0  0  0  0
   43.5950   34.5090   42.0580 O   0  0  0  0  0  0  0  0  0  0  0  0
   42.7840   34.4330   40.9450 C   0  0  0  0  0  0  0  0  0  0  0  0
   42.9030   35.2950   39.8700 C   0  0  0  0  0  0  0  0  0  0  0  0
   41.9370   34.9290   38.9460 C   0  0  0  0  0  0  0  0  0  0  0  0
   41.2660   33.8780   39.4640 N   0  0  0  0  0  0  0  0  0  0  0  0
   41.7640   33.5740   40.6580 N   0  0  0  0  0  0  0  0  0  0  0  0
   40.1980   33.2690   38.7410 C   0  0  0  0  0  0  0  0  0  0  0  0
   38.9500   33.8210   38.4990 C   0  0  0  0  0  0  0  0  0  0  0  0
   38.1650   32.9520   37.7630 C   0  0  0  0  0  0  0  0  0  0  0  0
   38.9580   31.8960   37.5780 N   0  0  0  0  0  0  0  0  0  0  0  0
   40.1690   32.0690   38.1530 N   0  0  0  0  0  0  0  0  0  0  0  0
   38.6000   30.7040   36.8610 C   0  0  0  0  0  0  0  0  0  0  0  0
   38.3080   30.5030   35.5770 C   0  0  0  0  0  0  0  0  0  0  0  0
   37.9930   29.2690   35.1200 C   0  0  0  0  0  0  0  0  0  0  0  0
   37.9920   28.2450   36.0480 C   0  0  0  0  0  0  0  0  0  0  0  0
   38.4680   29.1410   37.6260 S   0  0  0  0  0  0  0  0  0  0  0  0
   44.9022   32.9548   42.2910 H   0  0  0  0  0  0  0  0  0  0  0  0
   45.2399   34.0532   40.9233 H   0  0  0  0  0  0  0  0  0  0  0  0
   44.4259   35.2202   45.1088 H   0  0  0  0  0  0  0  0  0  0  0  0
   47.6145   32.8006   43.5438 H   0  0  0  0  0  0  0  0  0  0  0  0
   46.3383   32.3643   47.5499 H   0  0  0  0  0  0  0  0  0  0  0  0
   47.8728   35.2887   42.9618 H   0  0  0  0  0  0  0  0  0  0  0  0
   47.3862   34.2647   41.5685 H   0  0  0  0  0  0  0  0  0  0  0  0
   47.0070   36.0205   41.5685 H   0  0  0  0  0  0  0  0  0  0  0  0
   44.9949   36.2772   44.2214 H   0  0  0  0  0  0  0  0  0  0  0  0
   45.6461   36.9570   42.6915 H   0  0  0  0  0  0  0  0  0  0  0  0
   44.0719   36.0917   42.6915 H   0  0  0  0  0  0  0  0  0  0  0  0
   43.6277   36.1162   39.7677 H   0  0  0  0  0  0  0  0  0  0  0  0
   41.7515   35.4058   37.9722 H   0  0  0  0  0  0  0  0  0  0  0  0
   38.6279   34.8143   38.8449 H   0  0  0  0  0  0  0  0  0  0  0  0
   37.1322   33.0974   37.4134 H   0  0  0  0  0  0  0  0  0  0  0  0
   38.3232   31.3524   34.8782 H   0  0  0  0  0  0  0  0  0  0  0  0
   37.7498   29.0898   34.0623 H   0  0  0  0  0  0  0  0  0  0  0  0
   37.7692   27.1781   35.8995 H   0  0  0  0  0  0  0  0  0  0  0  0
  1 11  1  0
  1  2  1  0
  2 10  1  0
  2  4  1  0
  3  8  2  0
  4  5  2  0
  4  3  1  0
  5  6  1  0
  6  7  2  0
  8  7  1  0
  9  2  1  0
 12 11  1  0
 13 12  1  0
 14 15  1  0
 14 13  2  0
 15 16  1  0
 16 12  2  0
 17 15  1  0
 18 17  1  0
 19 18  2  0
 20 19  1  0
 20 21  1  0
 21 17  2  0
 22 20  1  0
 22 26  1  0
 23 22  2  0
 24 23  1  0
 24 25  2  0
 25 26  1  0
  1 27  1  0
  1 28  1  0
  3 29  1  0
  5 30  1  0
  7 31  1  0
  9 32  1  0
  9 33  1  0
  9 34  1  0
 10 35  1  0
 10 36  1  0
 10 37  1  0
 13 38  1  0
 14 39  1  0
 18 40  1  0
 19 41  1  0
 23 42  1  0
 24 43  1  0
 25 44  1  0
M  ISO  8  27   8  28   8  29  14  30  14  31  14  32   8  33   8  34   8
M  ISO  8  35   8  36   8  37   8  38  14  39  14  40  14  41  14  42  14
M  ISO  2  43  14  44  14
M  END
>  <minimizedAffinity>  (1) 
-5.82042551

>  <minimizedRMSD>  (1) 
2.14793777

$$$$
