
     RDKit          3D

 44 47  0  0  0  0  0  0  0  0999 V2000
   43.6530   34.5510   41.9620 O   0  0  0  0  0  0  0  0  0  0  0  0
   42.8180   34.3870   40.8800 C   0  0  0  0  0  0  0  0  0  0  0  0
   42.6610   35.3580   39.9110 C   0  0  0  0  0  0  0  0  0  0  0  0
   41.7570   34.8650   38.9790 C   0  0  0  0  0  0  0  0  0  0  0  0
   41.3940   33.6330   39.3950 N   0  0  0  0  0  0  0  0  0  0  0  0
   42.0210   33.3340   40.5310 N   0  0  0  0  0  0  0  0  0  0  0  0
   40.4640   32.8520   38.6450 C   0  0  0  0  0  0  0  0  0  0  0  0
   39.0950   33.0940   38.5320 C   0  0  0  0  0  0  0  0  0  0  0  0
   38.5160   32.1320   37.7210 C   0  0  0  0  0  0  0  0  0  0  0  0
   39.5330   31.3430   37.3670 N   0  0  0  0  0  0  0  0  0  0  0  0
   40.6960   31.7610   37.9100 N   0  0  0  0  0  0  0  0  0  0  0  0
   39.4450   30.1900   36.5230 C   0  0  0  0  0  0  0  0  0  0  0  0
   38.3110   29.4850   36.1780 C   0  0  0  0  0  0  0  0  0  0  0  0
   38.7300   28.4630   35.3500 C   0  0  0  0  0  0  0  0  0  0  0  0
   40.0650   28.5420   35.1980 N   0  0  0  0  0  0  0  0  0  0  0  0
   40.4820   29.5860   35.9090 N   0  0  0  0  0  0  0  0  0  0  0  0
   44.9530   34.0690   41.8750 C   0  0  0  0  0  0  0  0  0  0  0  0
   45.8310   34.9020   42.8000 C   0  0  0  0  0  0  0  0  0  0  0  0
   45.1800   34.4930   45.1550 C   0  0  0  0  0  0  0  0  0  0  0  0
   46.0200   34.1630   44.0660 C   0  0  0  0  0  0  0  0  0  0  0  0
   46.9440   33.1650   44.3080 C   0  0  0  0  0  0  0  0  0  0  0  0
   47.0130   32.5660   45.5080 N   0  0  0  0  0  0  0  0  0  0  0  0
   46.1930   32.9130   46.5120 C   0  0  0  0  0  0  0  0  0  0  0  0
   45.2640   33.8870   46.3400 N   0  0  0  0  0  0  0  0  0  0  0  0
   47.1610   35.1810   42.1650 C   0  0  0  0  0  0  0  0  0  0  0  0
   45.1170   36.1880   43.0630 C   0  0  0  0  0  0  0  0  0  0  0  0
   43.1588   36.3385   39.8825 H   0  0  0  0  0  0  0  0  0  0  0  0
   41.4038   35.3805   38.0737 H   0  0  0  0  0  0  0  0  0  0  0  0
   38.5567   33.9234   39.0140 H   0  0  0  0  0  0  0  0  0  0  0  0
   37.4582   32.0392   37.4338 H   0  0  0  0  0  0  0  0  0  0  0  0
   37.2798   29.6949   36.4983 H   0  0  0  0  0  0  0  0  0  0  0  0
   38.0782   27.7063   34.8889 H   0  0  0  0  0  0  0  0  0  0  0  0
   40.6541   27.9114   34.6357 H   0  0  0  0  0  0  0  0  0  0  0  0
   44.9808   33.0140   42.1851 H   0  0  0  0  0  0  0  0  0  0  0  0
   45.3166   34.1400   40.8393 H   0  0  0  0  0  0  0  0  0  0  0  0
   44.4261   35.2823   45.0189 H   0  0  0  0  0  0  0  0  0  0  0  0
   47.6323   32.8569   43.5072 H   0  0  0  0  0  0  0  0  0  0  0  0
   46.2747   32.4032   47.4833 H   0  0  0  0  0  0  0  0  0  0  0  0
   47.9158   35.3393   42.9494 H   0  0  0  0  0  0  0  0  0  0  0  0
   47.4557   34.3251   41.5400 H   0  0  0  0  0  0  0  0  0  0  0  0
   47.0869   36.0831   41.5400 H   0  0  0  0  0  0  0  0  0  0  0  0
   45.0304   36.3440   44.1484 H   0  0  0  0  0  0  0  0  0  0  0  0
   45.6827   37.0193   42.6171 H   0  0  0  0  0  0  0  0  0  0  0  0
   44.1123   36.1474   42.6171 H   0  0  0  0  0  0  0  0  0  0  0  0
  2  1  1  0
  3  2  1  0
  4  5  1  0
  4  3  2  0
  5  6  1  0
  6  2  2  0
  7  5  1  0
  8  7  1  0
  9  8  2  0
 10  9  1  0
 10 11  1  0
 11  7  2  0
 12 10  1  0
 13 12  1  0
 14 13  2  0
 15 14  1  0
 15 16  1  0
 16 12  2  0
 17  1  1  0
 17 18  1  0
 18 26  1  0
 18 20  1  0
 19 24  2  0
 20 21  2  0
 20 19  1  0
 21 22  1  0
 22 23  2  0
 24 23  1  0
 25 18  1  0
  3 27  1  0
  4 28  1  0
  8 29  1  0
  9 30  1  0
 13 31  1  0
 14 32  1  0
 15 33  1  0
 17 34  1  0
 17 35  1  0
 19 36  1  0
 21 37  1  0
 23 38  1  0
 25 39  1  0
 25 40  1  0
 25 41  1  0
 26 42  1  0
 26 43  1  0
 26 44  1  0
M  ISO  8  27  14  28  14  29  14  30  14  31  14  32  14  33   9  34   8
M  ISO  8  35   8  36  14  37  14  38  14  39   8  40   8  41   8  42   8
M  ISO  2  43   8  44   8
M  END
>  <minimizedAffinity>  (1) 
-5.80398273

>  <minimizedRMSD>  (1) 
2.30497265

$$$$
