
     RDKit          3D

 34 35  0  0  0  0  0  0  0  0999 V2000
   47.5020   34.5150   41.9260 C   0  0  0  0  0  0  0  0  0  0  0  0
   44.7400   35.9030   44.1640 C   0  0  0  0  0  0  0  0  0  0  0  0
   45.6000   35.7990   43.0500 C   0  0  0  0  0  0  0  0  0  0  0  0
   46.5420   34.7450   43.0310 C   0  0  0  0  0  0  0  0  0  0  0  0
   46.5590   33.8940   44.0900 N   0  0  0  0  0  0  0  0  0  0  0  0
   45.7190   34.0260   45.1410 C   0  0  0  0  0  0  0  0  0  0  0  0
   44.8160   35.0220   45.1790 N   0  0  0  0  0  0  0  0  0  0  0  0
   46.6530   34.2220   40.6750 C   0  0  0  0  0  0  0  0  0  0  0  0
   48.4330   35.6270   41.6640 C   0  0  0  0  0  0  0  0  0  0  0  0
   48.2480   33.2430   42.2060 C   0  0  0  0  0  0  0  0  0  0  0  0
   49.4670   33.1320   41.5210 N   0  0  0  0  0  0  0  0  0  0  0  0
   49.5760   32.3060   40.3860 C   0  0  0  0  0  0  0  0  0  0  0  0
   50.8110   31.4400   40.5680 C   0  0  0  0  0  0  0  0  0  0  0  0
   51.1620   31.6550   42.0210 C   0  0  0  0  0  0  0  0  0  0  0  0
   50.6780   33.0820   42.2500 C   0  0  0  0  0  0  0  0  0  0  0  0
   43.9981   36.7142   44.2035 H   0  0  0  0  0  0  0  0  0  0  0  0
   45.5391   36.5179   42.2197 H   0  0  0  0  0  0  0  0  0  0  0  0
   45.7747   33.3106   45.9747 H   0  0  0  0  0  0  0  0  0  0  0  0
   45.6545   33.8774   40.9820 H   0  0  0  0  0  0  0  0  0  0  0  0
   46.5560   35.1387   40.0747 H   0  0  0  0  0  0  0  0  0  0  0  0
   47.1420   33.4406   40.0747 H   0  0  0  0  0  0  0  0  0  0  0  0
   48.7830   36.0450   42.6194 H   0  0  0  0  0  0  0  0  0  0  0  0
   49.2941   35.2564   41.0885 H   0  0  0  0  0  0  0  0  0  0  0  0
   47.9168   36.4095   41.0885 H   0  0  0  0  0  0  0  0  0  0  0  0
   48.4525   33.1928   43.2857 H   0  0  0  0  0  0  0  0  0  0  0  0
   47.6108   32.4176   41.8558 H   0  0  0  0  0  0  0  0  0  0  0  0
   49.6799   32.9229   39.4812 H   0  0  0  0  0  0  0  0  0  0  0  0
   48.6777   31.6810   40.2741 H   0  0  0  0  0  0  0  0  0  0  0  0
   50.5857   30.3821   40.3675 H   0  0  0  0  0  0  0  0  0  0  0  0
   51.6292   31.6998   39.8802 H   0  0  0  0  0  0  0  0  0  0  0  0
   50.6320   30.9430   42.6708 H   0  0  0  0  0  0  0  0  0  0  0  0
   52.2273   31.5036   42.2494 H   0  0  0  0  0  0  0  0  0  0  0  0
   51.4032   33.8119   41.8611 H   0  0  0  0  0  0  0  0  0  0  0  0
   50.5520   33.3298   43.3143 H   0  0  0  0  0  0  0  0  0  0  0  0
  1 10  1  0
  1  4  1  0
  2  7  2  0
  3  2  1  0
  4  3  2  0
  4  5  1  0
  5  6  2  0
  6  7  1  0
  8  1  1  0
  9  1  1  0
 11 10  1  0
 11 15  1  0
 12 13  1  0
 12 11  1  0
 13 14  1  0
 14 15  1  0
  2 16  1  0
  3 17  1  0
  6 18  1  0
  8 19  1  0
  8 20  1  0
  8 21  1  0
  9 22  1  0
  9 23  1  0
  9 24  1  0
 10 25  1  0
 10 26  1  0
 12 27  1  0
 12 28  1  0
 13 29  1  0
 13 30  1  0
 14 31  1  0
 14 32  1  0
 15 33  1  0
 15 34  1  0
M  ISO  8  16  14  17  14  18  14  19   8  20   8  21   8  22   8  23   8
M  ISO  8  24   8  25   8  26   8  27  13  28  13  29  13  30  13  31  13
M  ISO  3  32  13  33  13  34  13
M  END
>  <minimizedAffinity>  (1) 
-4.49505997

>  <minimizedRMSD>  (1) 
1.80996096

$$$$
