
     RDKit          3D

 30 31  0  0  0  0  0  0  0  0999 V2000
   47.1240   34.2700   42.1290 C   0  0  0  0  0  0  0  0  0  0  0  0
   44.6160   36.1150   44.3170 C   0  0  0  0  0  0  0  0  0  0  0  0
   45.4180   35.8250   43.1980 C   0  0  0  0  0  0  0  0  0  0  0  0
   46.2420   34.6770   43.2370 C   0  0  0  0  0  0  0  0  0  0  0  0
   46.2110   33.9120   44.3630 N   0  0  0  0  0  0  0  0  0  0  0  0
   45.4250   34.2200   45.4260 C   0  0  0  0  0  0  0  0  0  0  0  0
   44.6330   35.3190   45.3950 N   0  0  0  0  0  0  0  0  0  0  0  0
   46.2850   34.2420   40.8620 C   0  0  0  0  0  0  0  0  0  0  0  0
   48.3560   35.1090   41.9680 C   0  0  0  0  0  0  0  0  0  0  0  0
   47.5690   32.8410   42.3690 C   0  0  0  0  0  0  0  0  0  0  0  0
   48.8700   32.5350   41.7700 C   0  0  0  0  0  0  0  0  0  0  0  0
   50.1290   32.6770   42.3180 C   0  0  0  0  0  0  0  0  0  0  0  0
   51.2540   32.3220   41.5710 C   0  0  0  0  0  0  0  0  0  0  0  0
   51.1120   31.8410   40.3140 N   0  0  0  0  0  0  0  0  0  0  0  0
   49.8760   31.7040   39.7820 C   0  0  0  0  0  0  0  0  0  0  0  0
   48.7920   32.0450   40.5010 N   0  0  0  0  0  0  0  0  0  0  0  0
   43.9684   37.0041   44.3069 H   0  0  0  0  0  0  0  0  0  0  0  0
   45.4042   36.4772   42.3123 H   0  0  0  0  0  0  0  0  0  0  0  0
   45.4310   33.5745   46.3166 H   0  0  0  0  0  0  0  0  0  0  0  0
   45.2185   34.2064   41.1292 H   0  0  0  0  0  0  0  0  0  0  0  0
   46.4847   35.1473   40.2699 H   0  0  0  0  0  0  0  0  0  0  0  0
   46.5446   33.3520   40.2699 H   0  0  0  0  0  0  0  0  0  0  0  0
   48.7494   35.3769   42.9597 H   0  0  0  0  0  0  0  0  0  0  0  0
   49.1168   34.5405   41.4131 H   0  0  0  0  0  0  0  0  0  0  0  0
   48.1057   36.0252   41.4131 H   0  0  0  0  0  0  0  0  0  0  0  0
   47.6351   32.6727   43.4540 H   0  0  0  0  0  0  0  0  0  0  0  0
   46.8267   32.1827   41.8940 H   0  0  0  0  0  0  0  0  0  0  0  0
   50.2455   33.0684   43.3394 H   0  0  0  0  0  0  0  0  0  0  0  0
   52.2584   32.4336   42.0054 H   0  0  0  0  0  0  0  0  0  0  0  0
   49.7575   31.3134   38.7605 H   0  0  0  0  0  0  0  0  0  0  0  0
  1 10  1  0
  1  4  1  0
  2  7  2  0
  3  4  2  0
  3  2  1  0
  4  5  1  0
  5  6  2  0
  7  6  1  0
  8  1  1  0
  9  1  1  0
 11 12  2  0
 11 10  1  0
 13 12  1  0
 14 13  2  0
 15 14  1  0
 15 16  2  0
 16 11  1  0
  2 17  1  0
  3 18  1  0
  6 19  1  0
  8 20  1  0
  8 21  1  0
  8 22  1  0
  9 23  1  0
  9 24  1  0
  9 25  1  0
 10 26  1  0
 10 27  1  0
 12 28  1  0
 13 29  1  0
 15 30  1  0
M  ISO  8  17  14  18  14  19  14  20   8  21   8  22   8  23   8  24   8
M  ISO  6  25   8  26   8  27   8  28  14  29  14  30  14
M  END
>  <minimizedAffinity>  (1) 
-4.52540064

>  <minimizedRMSD>  (1) 
0.704230189

$$$$
