
     RDKit          3D

 52 55  0  0  0  0  0  0  0  0999 V2000
   43.6080   34.5150   41.9870 O   0  0  0  0  0  0  0  0  0  0  0  0
   42.7810   34.3740   40.8950 C   0  0  0  0  0  0  0  0  0  0  0  0
   42.7190   35.2930   39.8700 C   0  0  0  0  0  0  0  0  0  0  0  0
   41.7820   34.8150   38.9560 C   0  0  0  0  0  0  0  0  0  0  0  0
   41.3090   33.6480   39.4380 N   0  0  0  0  0  0  0  0  0  0  0  0
   41.8940   33.3740   40.5900 N   0  0  0  0  0  0  0  0  0  0  0  0
   40.3230   32.9160   38.7090 C   0  0  0  0  0  0  0  0  0  0  0  0
   38.9830   33.2730   38.5610 C   0  0  0  0  0  0  0  0  0  0  0  0
   38.3450   32.3150   37.7810 C   0  0  0  0  0  0  0  0  0  0  0  0
   39.3000   31.4210   37.4860 N   0  0  0  0  0  0  0  0  0  0  0  0
   40.4810   31.7730   38.0360 N   0  0  0  0  0  0  0  0  0  0  0  0
   37.6940   28.1020   35.4150 N   0  0  0  0  0  0  0  0  0  0  0  0
   38.3590   29.1500   34.7010 C   0  0  0  0  0  0  0  0  0  0  0  0
   38.2390   30.4220   35.5180 C   0  0  0  0  0  0  0  0  0  0  0  0
   39.1690   30.2150   36.6920 C   0  0  0  0  0  0  0  0  0  0  0  0
   38.6530   29.0470   37.4940 C   0  0  0  0  0  0  0  0  0  0  0  0
   37.5510   28.3020   36.8200 C   0  0  0  0  0  0  0  0  0  0  0  0
   44.9080   34.0310   41.9000 C   0  0  0  0  0  0  0  0  0  0  0  0
   45.7880   34.8690   42.8140 C   0  0  0  0  0  0  0  0  0  0  0  0
   45.1700   34.4740   45.1790 C   0  0  0  0  0  0  0  0  0  0  0  0
   45.9960   34.1380   44.0820 C   0  0  0  0  0  0  0  0  0  0  0  0
   46.9240   33.1420   44.3200 C   0  0  0  0  0  0  0  0  0  0  0  0
   47.0110   32.5530   45.5250 N   0  0  0  0  0  0  0  0  0  0  0  0
   46.2040   32.9070   46.5360 C   0  0  0  0  0  0  0  0  0  0  0  0
   45.2700   33.8790   46.3670 N   0  0  0  0  0  0  0  0  0  0  0  0
   47.1100   35.1530   42.1620 C   0  0  0  0  0  0  0  0  0  0  0  0
   45.0660   36.1510   43.0740 C   0  0  0  0  0  0  0  0  0  0  0  0
   43.2979   36.2248   39.7889 H   0  0  0  0  0  0  0  0  0  0  0  0
   41.4834   35.3002   38.0150 H   0  0  0  0  0  0  0  0  0  0  0  0
   38.5081   34.1670   38.9913 H   0  0  0  0  0  0  0  0  0  0  0  0
   37.2890   32.2949   37.4735 H   0  0  0  0  0  0  0  0  0  0  0  0
   38.2290   27.2335   35.2722 H   0  0  0  0  0  0  0  0  0  0  0  0
   39.4197   28.8933   34.5633 H   0  0  0  0  0  0  0  0  0  0  0  0
   37.9019   29.2874   33.7100 H   0  0  0  0  0  0  0  0  0  0  0  0
   38.5513   31.2944   34.9252 H   0  0  0  0  0  0  0  0  0  0  0  0
   37.2040   30.6152   35.8367 H   0  0  0  0  0  0  0  0  0  0  0  0
   40.1849   29.9875   36.3369 H   0  0  0  0  0  0  0  0  0  0  0  0
   39.4863   28.3510   37.6708 H   0  0  0  0  0  0  0  0  0  0  0  0
   38.2428   29.4538   38.4301 H   0  0  0  0  0  0  0  0  0  0  0  0
   36.6177   28.8600   36.9864 H   0  0  0  0  0  0  0  0  0  0  0  0
   37.5616   27.2954   37.2634 H   0  0  0  0  0  0  0  0  0  0  0  0
   44.9358   32.9785   42.2185 H   0  0  0  0  0  0  0  0  0  0  0  0
   45.2686   34.0936   40.8627 H   0  0  0  0  0  0  0  0  0  0  0  0
   44.4123   35.2603   45.0461 H   0  0  0  0  0  0  0  0  0  0  0  0
   47.6008   32.8269   43.5121 H   0  0  0  0  0  0  0  0  0  0  0  0
   46.2992   32.4059   47.5106 H   0  0  0  0  0  0  0  0  0  0  0  0
   47.8733   35.3170   42.9369 H   0  0  0  0  0  0  0  0  0  0  0  0
   47.4014   34.2970   41.5357 H   0  0  0  0  0  0  0  0  0  0  0  0
   47.0241   36.0532   41.5357 H   0  0  0  0  0  0  0  0  0  0  0  0
   44.9774   36.3084   44.1591 H   0  0  0  0  0  0  0  0  0  0  0  0
   45.6271   36.9850   42.6272 H   0  0  0  0  0  0  0  0  0  0  0  0
   44.0620   36.1035   42.6272 H   0  0  0  0  0  0  0  0  0  0  0  0
  2  1  1  0
  3  2  1  0
  4  5  1  0
  4  3  2  0
  5  6  1  0
  6  2  2  0
  7  5  1  0
  8  7  1  0
  9  8  2  0
 10  9  1  0
 10 11  1  0
 11  7  2  0
 12 17  1  0
 13 12  1  0
 13 14  1  0
 14 15  1  0
 15 10  1  0
 15 16  1  0
 17 16  1  0
 18  1  1  0
 18 19  1  0
 19 27  1  0
 19 21  1  0
 20 25  2  0
 21 22  2  0
 21 20  1  0
 22 23  1  0
 23 24  2  0
 25 24  1  0
 26 19  1  0
  3 28  1  0
  4 29  1  0
  8 30  1  0
  9 31  1  0
 12 32  1  0
 13 33  1  0
 13 34  1  0
 14 35  1  0
 14 36  1  0
 15 37  1  0
 16 38  1  0
 16 39  1  0
 17 40  1  0
 17 41  1  0
 18 42  1  0
 18 43  1  0
 20 44  1  0
 22 45  1  0
 24 46  1  0
 26 47  1  0
 26 48  1  0
 26 49  1  0
 27 50  1  0
 27 51  1  0
 27 52  1  0
M  ISO  8  28  14  29  14  30  14  31  14  32   5  33  13  34  13  35  13
M  ISO  8  36  13  37  13  38  13  39  13  40  13  41  13  42   8  43   8
M  ISO  8  44  14  45  14  46  14  47   8  48   8  49   8  50   8  51   8
M  ISO  1  52   8
M  END
>  <minimizedAffinity>  (1) 
-5.69563437

>  <minimizedRMSD>  (1) 
2.31757402

$$$$
