
     RDKit          3D

 38 39  0  0  0  0  0  0  0  0999 V2000
   47.4690   34.5060   42.0360 C   0  0  0  0  0  0  0  0  0  0  0  0
   44.7060   35.9780   44.1780 C   0  0  0  0  0  0  0  0  0  0  0  0
   45.5880   35.8390   43.0790 C   0  0  0  0  0  0  0  0  0  0  0  0
   46.5000   34.7610   43.1100 C   0  0  0  0  0  0  0  0  0  0  0  0
   46.4810   33.9140   44.1940 N   0  0  0  0  0  0  0  0  0  0  0  0
   45.6140   34.0890   45.2200 C   0  0  0  0  0  0  0  0  0  0  0  0
   44.7310   35.1140   45.2150 N   0  0  0  0  0  0  0  0  0  0  0  0
   46.6850   34.1470   40.7880 C   0  0  0  0  0  0  0  0  0  0  0  0
   48.4200   35.6050   41.7620 C   0  0  0  0  0  0  0  0  0  0  0  0
   48.2790   33.2860   42.4100 C   0  0  0  0  0  0  0  0  0  0  0  0
   47.9180   32.1640   41.6350 O   0  0  0  0  0  0  0  0  0  0  0  0
   51.3360   31.7500   39.4880 N   0  0  0  0  0  0  0  0  0  0  0  0
   49.9730   31.8750   39.0380 C   0  0  0  0  0  0  0  0  0  0  0  0
   48.9880   31.0680   39.8550 C   0  0  0  0  0  0  0  0  0  0  0  0
   49.0560   31.4560   41.3120 C   0  0  0  0  0  0  0  0  0  0  0  0
   50.2430   32.3330   41.6170 C   0  0  0  0  0  0  0  0  0  0  0  0
   51.4920   31.9110   40.9050 C   0  0  0  0  0  0  0  0  0  0  0  0
   43.9845   36.8083   44.1870 H   0  0  0  0  0  0  0  0  0  0  0  0
   45.5638   36.5430   42.2342 H   0  0  0  0  0  0  0  0  0  0  0  0
   45.6281   33.3887   46.0681 H   0  0  0  0  0  0  0  0  0  0  0  0
   45.7197   33.7050   41.0759 H   0  0  0  0  0  0  0  0  0  0  0  0
   46.5094   35.0544   40.1916 H   0  0  0  0  0  0  0  0  0  0  0  0
   47.2573   33.4212   40.1916 H   0  0  0  0  0  0  0  0  0  0  0  0
   48.7815   36.0228   42.7132 H   0  0  0  0  0  0  0  0  0  0  0  0
   49.2721   35.2171   41.1845 H   0  0  0  0  0  0  0  0  0  0  0  0
   47.9137   36.3925   41.1845 H   0  0  0  0  0  0  0  0  0  0  0  0
   49.3454   33.5027   42.2489 H   0  0  0  0  0  0  0  0  0  0  0  0
   48.0801   33.0522   43.4663 H   0  0  0  0  0  0  0  0  0  0  0  0
   51.9020   32.4687   39.0147 H   0  0  0  0  0  0  0  0  0  0  0  0
   49.6845   32.9350   39.0935 H   0  0  0  0  0  0  0  0  0  0  0  0
   49.9358   31.4841   38.0105 H   0  0  0  0  0  0  0  0  0  0  0  0
   47.9708   31.2532   39.4795 H   0  0  0  0  0  0  0  0  0  0  0  0
   49.2422   30.0019   39.7616 H   0  0  0  0  0  0  0  0  0  0  0  0
   49.1476   30.5288   41.8967 H   0  0  0  0  0  0  0  0  0  0  0  0
   50.0017   33.3634   41.3171 H   0  0  0  0  0  0  0  0  0  0  0  0
   50.4400   32.2499   42.6960 H   0  0  0  0  0  0  0  0  0  0  0  0
   51.8216   30.9501   41.3270 H   0  0  0  0  0  0  0  0  0  0  0  0
   52.2269   32.7161   41.0524 H   0  0  0  0  0  0  0  0  0  0  0  0
  1 10  1  0
  1  4  1  0
  2  7  2  0
  3  4  2  0
  3  2  1  0
  4  5  1  0
  5  6  2  0
  7  6  1  0
  8  1  1  0
  9  1  1  0
 11 10  1  0
 12 17  1  0
 13 12  1  0
 13 14  1  0
 14 15  1  0
 15 16  1  0
 15 11  1  0
 17 16  1  0
  2 18  1  0
  3 19  1  0
  6 20  1  0
  8 21  1  0
  8 22  1  0
  8 23  1  0
  9 24  1  0
  9 25  1  0
  9 26  1  0
 10 27  1  0
 10 28  1  0
 12 29  1  0
 13 30  1  0
 13 31  1  0
 14 32  1  0
 14 33  1  0
 15 34  1  0
 16 35  1  0
 16 36  1  0
 17 37  1  0
 17 38  1  0
M  ISO  8  18  14  19  14  20  14  21   8  22   8  23   8  24   8  25   8
M  ISO  8  26   8  27   8  28   8  29   5  30  13  31  13  32  13  33  13
M  ISO  5  34  13  35  13  36  13  37  13  38  13
M  END
>  <minimizedAffinity>  (1) 
-4.53267956

>  <minimizedRMSD>  (1) 
2.52444339

$$$$
