
     RDKit          3D

 36 37  0  0  0  0  0  0  0  0999 V2000
   47.2890   34.4670   41.9850 C   0  0  0  0  0  0  0  0  0  0  0  0
   44.6700   36.0040   44.2460 C   0  0  0  0  0  0  0  0  0  0  0  0
   45.4960   35.8330   43.1060 C   0  0  0  0  0  0  0  0  0  0  0  0
   46.3830   34.7470   43.1100 C   0  0  0  0  0  0  0  0  0  0  0  0
   46.4150   33.9120   44.1870 N   0  0  0  0  0  0  0  0  0  0  0  0
   45.6050   34.1130   45.2610 C   0  0  0  0  0  0  0  0  0  0  0  0
   44.7360   35.1520   45.2910 N   0  0  0  0  0  0  0  0  0  0  0  0
   46.4500   34.1920   40.7510 C   0  0  0  0  0  0  0  0  0  0  0  0
   48.3160   35.5080   41.7150 C   0  0  0  0  0  0  0  0  0  0  0  0
   48.0400   33.1790   42.2690 C   0  0  0  0  0  0  0  0  0  0  0  0
   49.3990   33.2910   41.9930 O   0  0  0  0  0  0  0  0  0  0  0  0
   49.8470   32.1600   41.3460 C   0  0  0  0  0  0  0  0  0  0  0  0
   51.3420   31.9770   41.4400 C   0  0  0  0  0  0  0  0  0  0  0  0
   51.7410   31.5380   40.0370 C   0  0  0  0  0  0  0  0  0  0  0  0
   50.4730   31.0330   39.3900 C   0  0  0  0  0  0  0  0  0  0  0  0
   49.4750   32.0800   39.9050 C   0  0  0  0  0  0  0  0  0  0  0  0
   43.9629   36.8459   44.2793 H   0  0  0  0  0  0  0  0  0  0  0  0
   45.4430   36.5249   42.2525 H   0  0  0  0  0  0  0  0  0  0  0  0
   45.6561   33.4231   46.1162 H   0  0  0  0  0  0  0  0  0  0  0  0
   45.4458   33.8628   41.0563 H   0  0  0  0  0  0  0  0  0  0  0  0
   46.3682   35.1104   40.1511 H   0  0  0  0  0  0  0  0  0  0  0  0
   46.9277   33.4034   40.1511 H   0  0  0  0  0  0  0  0  0  0  0  0
   48.7015   35.8987   42.6683 H   0  0  0  0  0  0  0  0  0  0  0  0
   49.1425   35.0669   41.1385 H   0  0  0  0  0  0  0  0  0  0  0  0
   47.8637   36.3284   41.1385 H   0  0  0  0  0  0  0  0  0  0  0  0
   47.9143   32.9225   43.3313 H   0  0  0  0  0  0  0  0  0  0  0  0
   47.6264   32.3961   41.6163 H   0  0  0  0  0  0  0  0  0  0  0  0
   49.3288   31.3552   41.8880 H   0  0  0  0  0  0  0  0  0  0  0  0
   51.8365   32.9215   41.7110 H   0  0  0  0  0  0  0  0  0  0  0  0
   51.6349   31.2514   42.2131 H   0  0  0  0  0  0  0  0  0  0  0  0
   52.1482   32.3884   39.4704 H   0  0  0  0  0  0  0  0  0  0  0  0
   52.5209   30.7627   40.0609 H   0  0  0  0  0  0  0  0  0  0  0  0
   50.2152   30.0201   39.7329 H   0  0  0  0  0  0  0  0  0  0  0  0
   50.5186   30.9359   38.2952 H   0  0  0  0  0  0  0  0  0  0  0  0
   49.6114   33.0478   39.4003 H   0  0  0  0  0  0  0  0  0  0  0  0
   48.4208   31.8209   39.7272 H   0  0  0  0  0  0  0  0  0  0  0  0
  1 10  1  0
  1  4  1  0
  2  7  2  0
  3  4  2  0
  3  2  1  0
  4  5  1  0
  5  6  2  0
  6  7  1  0
  8  1  1  0
  9  1  1  0
 11 10  1  0
 12 13  1  0
 12 11  1  0
 14 13  1  0
 15 16  1  0
 15 14  1  0
 16 12  1  0
  2 17  1  0
  3 18  1  0
  6 19  1  0
  8 20  1  0
  8 21  1  0
  8 22  1  0
  9 23  1  0
  9 24  1  0
  9 25  1  0
 10 26  1  0
 10 27  1  0
 12 28  1  0
 13 29  1  0
 13 30  1  0
 14 31  1  0
 14 32  1  0
 15 33  1  0
 15 34  1  0
 16 35  1  0
 16 36  1  0
M  ISO  8  17  14  18  14  19  14  20   8  21   8  22   8  23   8  24   8
M  ISO  8  25   8  26   8  27   8  28  13  29  13  30  13  31  13  32  13
M  ISO  4  33  13  34  13  35  13  36  13
M  END
>  <minimizedAffinity>  (1) 
-4.37973261

>  <minimizedRMSD>  (1) 
2.52011514

$$$$
