
     RDKit          3D

 25 25  0  0  0  0  0  0  0  0999 V2000
   47.3260   34.4700   42.0040 C   0  0  0  0  0  0  0  0  0  0  0  0
   44.6610   36.0220   44.2280 C   0  0  0  0  0  0  0  0  0  0  0  0
   45.5020   35.8500   43.1090 C   0  0  0  0  0  0  0  0  0  0  0  0
   46.3980   34.7590   43.1130 C   0  0  0  0  0  0  0  0  0  0  0  0
   46.3960   33.9380   44.1950 N   0  0  0  0  0  0  0  0  0  0  0  0
   45.5660   34.1400   45.2550 C   0  0  0  0  0  0  0  0  0  0  0  0
   44.7060   35.1750   45.2700 N   0  0  0  0  0  0  0  0  0  0  0  0
   46.4620   34.1730   40.7750 C   0  0  0  0  0  0  0  0  0  0  0  0
   48.3070   35.5270   41.7110 C   0  0  0  0  0  0  0  0  0  0  0  0
   48.0730   33.1960   42.3190 C   0  0  0  0  0  0  0  0  0  0  0  0
   49.0760   32.9260   41.3570 O   0  0  0  0  0  0  0  0  0  0  0  0
   50.3710   32.6340   41.7530 C   0  0  0  0  0  0  0  0  0  0  0  0
   51.1120   33.4440   42.3710 O   0  0  0  0  0  0  0  0  0  0  0  0
   43.9550   36.8653   44.2481 H   0  0  0  0  0  0  0  0  0  0  0  0
   45.4610   36.5457   42.2579 H   0  0  0  0  0  0  0  0  0  0  0  0
   45.5987   33.4486   46.1099 H   0  0  0  0  0  0  0  0  0  0  0  0
   45.4680   33.8313   41.0995 H   0  0  0  0  0  0  0  0  0  0  0  0
   46.3567   35.0865   40.1714 H   0  0  0  0  0  0  0  0  0  0  0  0
   46.9406   33.3878   40.1714 H   0  0  0  0  0  0  0  0  0  0  0  0
   48.6919   35.9417   42.6543 H   0  0  0  0  0  0  0  0  0  0  0  0
   49.1395   35.1037   41.1298 H   0  0  0  0  0  0  0  0  0  0  0  0
   47.8229   36.3257   41.1298 H   0  0  0  0  0  0  0  0  0  0  0  0
   48.5447   33.2944   43.3079 H   0  0  0  0  0  0  0  0  0  0  0  0
   47.3532   32.3643   42.3068 H   0  0  0  0  0  0  0  0  0  0  0  0
   50.7749   31.6391   41.5144 H   0  0  0  0  0  0  0  0  0  0  0  0
  1 10  1  0
  1  4  1  0
  2  7  2  0
  3  4  2  0
  3  2  1  0
  4  5  1  0
  5  6  2  0
  6  7  1  0
  8  1  1  0
  9  1  1  0
 11 12  1  0
 11 10  1  0
 12 13  2  0
  2 14  1  0
  3 15  1  0
  6 16  1  0
  8 17  1  0
  8 18  1  0
  8 19  1  0
  9 20  1  0
  9 21  1  0
  9 22  1  0
 10 23  1  0
 10 24  1  0
 12 25  1  0
M  ISO  8  14  14  15  14  16  14  17   8  18   8  19   8  20   8  21   8
M  ISO  4  22   8  23   8  24   8  25   6
M  END
>  <minimizedAffinity>  (1) 
-4.01686907

>  <minimizedRMSD>  (1) 
1.79949498

$$$$
