
     RDKit          3D

 26 26  0  0  0  0  0  0  0  0999 V2000
   47.3510   34.4530   42.0100 C   0  0  0  0  0  0  0  0  0  0  0  0
   44.6760   36.0180   44.2020 C   0  0  0  0  0  0  0  0  0  0  0  0
   45.5240   35.8330   43.0980 C   0  0  0  0  0  0  0  0  0  0  0  0
   46.4130   34.7470   43.1160 C   0  0  0  0  0  0  0  0  0  0  0  0
   46.4130   33.9170   44.2130 N   0  0  0  0  0  0  0  0  0  0  0  0
   45.5710   34.1400   45.2610 C   0  0  0  0  0  0  0  0  0  0  0  0
   44.7120   35.1810   45.2540 N   0  0  0  0  0  0  0  0  0  0  0  0
   46.5230   34.1880   40.7710 C   0  0  0  0  0  0  0  0  0  0  0  0
   48.3740   35.4930   41.7670 C   0  0  0  0  0  0  0  0  0  0  0  0
   48.0740   33.1620   42.3520 C   0  0  0  0  0  0  0  0  0  0  0  0
   47.6600   32.1010   41.5310 O   0  0  0  0  0  0  0  0  0  0  0  0
   47.6670   30.8780   42.1780 C   0  0  0  0  0  0  0  0  0  0  0  0
   43.9704   36.8618   44.2063 H   0  0  0  0  0  0  0  0  0  0  0  0
   45.4923   36.5217   42.2409 H   0  0  0  0  0  0  0  0  0  0  0  0
   45.5917   33.4610   46.1262 H   0  0  0  0  0  0  0  0  0  0  0  0
   45.5139   33.8650   41.0665 H   0  0  0  0  0  0  0  0  0  0  0  0
   46.4529   35.1086   40.1730 H   0  0  0  0  0  0  0  0  0  0  0  0
   47.0005   33.3978   40.1730 H   0  0  0  0  0  0  0  0  0  0  0  0
   48.7471   35.8723   42.7297 H   0  0  0  0  0  0  0  0  0  0  0  0
   49.2082   35.0603   41.1953 H   0  0  0  0  0  0  0  0  0  0  0  0
   47.9276   36.3199   41.1953 H   0  0  0  0  0  0  0  0  0  0  0  0
   49.1555   33.3136   42.2202 H   0  0  0  0  0  0  0  0  0  0  0  0
   47.8362   32.9018   43.3940 H   0  0  0  0  0  0  0  0  0  0  0  0
   47.6661   31.0389   43.2662 H   0  0  0  0  0  0  0  0  0  0  0  0
   46.7721   30.3063   41.8911 H   0  0  0  0  0  0  0  0  0  0  0  0
   48.5684   30.3166   41.8911 H   0  0  0  0  0  0  0  0  0  0  0  0
  1 10  1  0
  1  4  1  0
  2  7  2  0
  3  4  2  0
  3  2  1  0
  4  5  1  0
  5  6  2  0
  7  6  1  0
  8  1  1  0
  9  1  1  0
 11 12  1  0
 11 10  1  0
  2 13  1  0
  3 14  1  0
  6 15  1  0
  8 16  1  0
  8 17  1  0
  8 18  1  0
  9 19  1  0
  9 20  1  0
  9 21  1  0
 10 22  1  0
 10 23  1  0
 12 24  1  0
 12 25  1  0
 12 26  1  0
M  ISO  8  13  14  14  14  15  14  16   8  17   8  18   8  19   8  20   8
M  ISO  6  21   8  22   8  23   8  24   8  25   8  26   8
M  END
>  <minimizedAffinity>  (1) 
-3.6657958

>  <minimizedRMSD>  (1) 
0.26422143

$$$$
