
     RDKit          3D

 28 29  0  0  0  0  0  0  0  0999 V2000
   47.0120   34.4240   42.1310 C   0  0  0  0  0  0  0  0  0  0  0  0
   44.5430   35.8740   44.6340 C   0  0  0  0  0  0  0  0  0  0  0  0
   45.2740   35.7410   43.4320 C   0  0  0  0  0  0  0  0  0  0  0  0
   46.1910   34.6740   43.3230 C   0  0  0  0  0  0  0  0  0  0  0  0
   46.3130   33.8370   44.3900 N   0  0  0  0  0  0  0  0  0  0  0  0
   45.5910   33.9990   45.5280 C   0  0  0  0  0  0  0  0  0  0  0  0
   44.7130   35.0070   45.6520 N   0  0  0  0  0  0  0  0  0  0  0  0
   46.0590   34.2700   40.9560 C   0  0  0  0  0  0  0  0  0  0  0  0
   48.0450   35.4450   41.8470 C   0  0  0  0  0  0  0  0  0  0  0  0
   47.7050   33.0890   42.3040 C   0  0  0  0  0  0  0  0  0  0  0  0
   48.0610   32.5200   41.0820 O   0  0  0  0  0  0  0  0  0  0  0  0
   49.3940   32.2150   40.8380 C   0  0  0  0  0  0  0  0  0  0  0  0
   50.3720   32.6450   41.6630 N   0  0  0  0  0  0  0  0  0  0  0  0
   51.5310   32.2390   41.2350 O   0  0  0  0  0  0  0  0  0  0  0  0
   51.3750   31.5390   40.1340 C   0  0  0  0  0  0  0  0  0  0  0  0
   50.0530   31.5220   39.8850 N   0  0  0  0  0  0  0  0  0  0  0  0
   43.8232   36.6989   44.7407 H   0  0  0  0  0  0  0  0  0  0  0  0
   45.1320   36.4503   42.6033 H   0  0  0  0  0  0  0  0  0  0  0  0
   45.7274   33.2938   46.3611 H   0  0  0  0  0  0  0  0  0  0  0  0
   45.0382   34.1050   41.3310 H   0  0  0  0  0  0  0  0  0  0  0  0
   46.0815   35.1834   40.3435 H   0  0  0  0  0  0  0  0  0  0  0  0
   46.3680   33.4101   40.3435 H   0  0  0  0  0  0  0  0  0  0  0  0
   48.4425   35.8379   42.7945 H   0  0  0  0  0  0  0  0  0  0  0  0
   48.8615   34.9892   41.2677 H   0  0  0  0  0  0  0  0  0  0  0  0
   47.5988   36.2668   41.2677 H   0  0  0  0  0  0  0  0  0  0  0  0
   48.6146   33.2369   42.9047 H   0  0  0  0  0  0  0  0  0  0  0  0
   47.0029   32.4055   42.8039 H   0  0  0  0  0  0  0  0  0  0  0  0
   52.1661   31.0627   39.5362 H   0  0  0  0  0  0  0  0  0  0  0  0
  1 10  1  0
  1  4  1  0
  2  7  2  0
  3  2  1  0
  4  3  2  0
  4  5  1  0
  5  6  2  0
  6  7  1  0
  8  1  1  0
  9  1  1  0
 11 10  1  0
 12 11  1  0
 12 13  2  0
 14 13  1  0
 15 14  1  0
 16 15  2  0
 16 12  1  0
  2 17  1  0
  3 18  1  0
  6 19  1  0
  8 20  1  0
  8 21  1  0
  8 22  1  0
  9 23  1  0
  9 24  1  0
  9 25  1  0
 10 26  1  0
 10 27  1  0
 15 28  1  0
M  ISO  8  17  14  18  14  19  14  20   8  21   8  22   8  23   8  24   8
M  ISO  4  25   8  26   8  27   8  28  14
M  END
>  <minimizedAffinity>  (1) 
-4.36327887

>  <minimizedRMSD>  (1) 
2.37168169

$$$$
