
     RDKit          3D

 38 40  0  0  0  0  0  0  0  0999 V2000
   47.1170   34.4450   42.0380 C   0  0  0  0  0  0  0  0  0  0  0  0
   44.5970   36.0200   44.4100 C   0  0  0  0  0  0  0  0  0  0  0  0
   45.3770   35.8390   43.2460 C   0  0  0  0  0  0  0  0  0  0  0  0
   46.2520   34.7380   43.1990 C   0  0  0  0  0  0  0  0  0  0  0  0
   46.2910   33.9180   44.2750 N   0  0  0  0  0  0  0  0  0  0  0  0
   45.5290   34.1240   45.3740 C   0  0  0  0  0  0  0  0  0  0  0  0
   44.6840   35.1720   45.4420 N   0  0  0  0  0  0  0  0  0  0  0  0
   46.2130   34.2230   40.8420 C   0  0  0  0  0  0  0  0  0  0  0  0
   48.1490   35.4490   41.7420 C   0  0  0  0  0  0  0  0  0  0  0  0
   47.8070   33.1230   42.2970 C   0  0  0  0  0  0  0  0  0  0  0  0
   48.2710   32.5180   41.1370 O   0  0  0  0  0  0  0  0  0  0  0  0
   49.6270   32.2680   40.9730 C   0  0  0  0  0  0  0  0  0  0  0  0
   50.5230   32.7470   41.8500 N   0  0  0  0  0  0  0  0  0  0  0  0
   51.7220   32.3840   41.4890 O   0  0  0  0  0  0  0  0  0  0  0  0
   51.6630   31.6750   40.3960 C   0  0  0  0  0  0  0  0  0  0  0  0
   50.3530   31.5920   40.0560 N   0  0  0  0  0  0  0  0  0  0  0  0
   52.7750   31.1110   39.7120 N   0  0  0  0  0  0  0  0  0  0  0  0
   53.5670   30.2770   40.4140 C   0  0  0  0  0  0  0  0  0  0  0  0
   54.6900   29.6310   39.9340 C   0  0  0  0  0  0  0  0  0  0  0  0
   55.0030   29.8850   38.6040 C   0  0  0  0  0  0  0  0  0  0  0  0
   56.0160   29.3190   38.1240 O   0  0  0  0  0  0  0  0  0  0  0  0
   54.2090   30.7210   37.9000 N   0  0  0  0  0  0  0  0  0  0  0  0
   53.1200   31.3260   38.4240 C   0  0  0  0  0  0  0  0  0  0  0  0
   52.3830   32.0990   37.7770 O   0  0  0  0  0  0  0  0  0  0  0  0
   43.9055   36.8734   44.4693 H   0  0  0  0  0  0  0  0  0  0  0  0
   45.3024   36.5388   42.4006 H   0  0  0  0  0  0  0  0  0  0  0  0
   45.6000   33.4276   46.2225 H   0  0  0  0  0  0  0  0  0  0  0  0
   45.1995   33.9741   41.1896 H   0  0  0  0  0  0  0  0  0  0  0  0
   46.1775   35.1391   40.2342 H   0  0  0  0  0  0  0  0  0  0  0  0
   46.6059   33.3947   40.2342 H   0  0  0  0  0  0  0  0  0  0  0  0
   48.5561   35.8451   42.6840 H   0  0  0  0  0  0  0  0  0  0  0  0
   48.9579   34.9829   41.1602 H   0  0  0  0  0  0  0  0  0  0  0  0
   47.7053   36.2704   41.1602 H   0  0  0  0  0  0  0  0  0  0  0  0
   48.6616   33.2988   42.9669 H   0  0  0  0  0  0  0  0  0  0  0  0
   47.0653   32.4469   42.7472 H   0  0  0  0  0  0  0  0  0  0  0  0
   53.2949   30.0940   41.4640 H   0  0  0  0  0  0  0  0  0  0  0  0
   55.2954   28.9609   40.5621 H   0  0  0  0  0  0  0  0  0  0  0  0
   54.4453   30.9066   36.9148 H   0  0  0  0  0  0  0  0  0  0  0  0
  1 10  1  0
  1  4  1  0
  2  7  2  0
  3  2  1  0
  4  3  2  0
  4  5  1  0
  5  6  2  0
  6  7  1  0
  8  1  1  0
  9  1  1  0
 11 10  1  0
 12 11  1  0
 12 13  2  0
 14 13  1  0
 15 14  1  0
 16 15  2  0
 16 12  1  0
 17 15  1  0
 17 18  1  0
 19 18  2  0
 20 19  1  0
 21 20  2  0
 22 23  1  0
 22 20  1  0
 23 17  1  0
 24 23  2  0
  2 25  1  0
  3 26  1  0
  6 27  1  0
  8 28  1  0
  8 29  1  0
  8 30  1  0
  9 31  1  0
  9 32  1  0
  9 33  1  0
 10 34  1  0
 10 35  1  0
 18 36  1  0
 19 37  1  0
 22 38  1  0
M  ISO  8  25  14  26  14  27  14  28   8  29   8  30   8  31   8  32   8
M  ISO  6  33   8  34   8  35   8  36  14  37  14  38   9
M  END
>  <minimizedAffinity>  (1) 
-5.5727973

>  <minimizedRMSD>  (1) 
0.416556716

$$$$
