
     RDKit          3D

 42 45  0  0  0  0  0  0  0  0999 V2000
   47.8540   33.1200   42.3470 C   0  0  0  0  0  0  0  0  0  0  0  0
   47.1720   34.4440   42.0340 C   0  0  0  0  0  0  0  0  0  0  0  0
   44.6040   36.0900   44.3040 C   0  0  0  0  0  0  0  0  0  0  0  0
   45.4180   35.8790   43.1710 C   0  0  0  0  0  0  0  0  0  0  0  0
   46.2830   34.7600   43.1580 C   0  0  0  0  0  0  0  0  0  0  0  0
   46.2680   33.9610   44.2490 N   0  0  0  0  0  0  0  0  0  0  0  0
   45.4730   34.1890   45.3270 C   0  0  0  0  0  0  0  0  0  0  0  0
   44.6470   35.2520   45.3470 N   0  0  0  0  0  0  0  0  0  0  0  0
   46.2940   34.1840   40.8200 C   0  0  0  0  0  0  0  0  0  0  0  0
   48.2250   35.4380   41.7440 C   0  0  0  0  0  0  0  0  0  0  0  0
   48.1990   32.4320   41.1800 O   0  0  0  0  0  0  0  0  0  0  0  0
   49.5490   32.2230   40.9010 C   0  0  0  0  0  0  0  0  0  0  0  0
   50.5040   32.5390   41.7890 N   0  0  0  0  0  0  0  0  0  0  0  0
   51.6760   32.2530   41.3030 O   0  0  0  0  0  0  0  0  0  0  0  0
   51.5380   31.7450   40.0960 C   0  0  0  0  0  0  0  0  0  0  0  0
   50.2260   31.7280   39.8510 N   0  0  0  0  0  0  0  0  0  0  0  0
   52.6050   31.2950   39.2090 C   0  0  0  0  0  0  0  0  0  0  0  0
   52.7490   31.5600   37.8630 C   0  0  0  0  0  0  0  0  0  0  0  0
   53.8740   30.9570   37.4050 N   0  0  0  0  0  0  0  0  0  0  0  0
   54.4460   30.3080   38.4590 C   0  0  0  0  0  0  0  0  0  0  0  0
   55.6040   29.5390   38.5490 C   0  0  0  0  0  0  0  0  0  0  0  0
   55.9670   28.9840   39.7590 C   0  0  0  0  0  0  0  0  0  0  0  0
   55.1790   29.1940   40.8740 C   0  0  0  0  0  0  0  0  0  0  0  0
   54.0210   29.9580   40.8050 C   0  0  0  0  0  0  0  0  0  0  0  0
   53.6800   30.5070   39.5680 C   0  0  0  0  0  0  0  0  0  0  0  0
   48.7666   33.3169   42.9287 H   0  0  0  0  0  0  0  0  0  0  0  0
   47.1511   32.4970   42.9195 H   0  0  0  0  0  0  0  0  0  0  0  0
   43.9248   36.9549   44.3306 H   0  0  0  0  0  0  0  0  0  0  0  0
   45.3807   36.5701   42.3160 H   0  0  0  0  0  0  0  0  0  0  0  0
   45.5043   33.5029   46.1862 H   0  0  0  0  0  0  0  0  0  0  0  0
   45.2884   33.8862   41.1518 H   0  0  0  0  0  0  0  0  0  0  0  0
   46.2242   35.1000   40.2150 H   0  0  0  0  0  0  0  0  0  0  0  0
   46.7343   33.3777   40.2150 H   0  0  0  0  0  0  0  0  0  0  0  0
   48.6345   35.8246   42.6889 H   0  0  0  0  0  0  0  0  0  0  0  0
   49.0289   34.9618   41.1635 H   0  0  0  0  0  0  0  0  0  0  0  0
   47.7959   36.2680   41.1635 H   0  0  0  0  0  0  0  0  0  0  0  0
   52.0595   32.1654   37.2563 H   0  0  0  0  0  0  0  0  0  0  0  0
   54.2306   30.9842   36.4391 H   0  0  0  0  0  0  0  0  0  0  0  0
   56.2274   29.3746   37.6578 H   0  0  0  0  0  0  0  0  0  0  0  0
   56.8808   28.3764   39.8355 H   0  0  0  0  0  0  0  0  0  0  0  0
   55.4742   28.7476   41.8350 H   0  0  0  0  0  0  0  0  0  0  0  0
   53.3948   30.1244   41.6939 H   0  0  0  0  0  0  0  0  0  0  0  0
  2  1  1  0
  2  5  1  0
  3  8  2  0
  4  3  1  0
  5  4  2  0
  5  6  1  0
  6  7  2  0
  7  8  1  0
  9  2  1  0
 10  2  1  0
 11  1  1  0
 12 11  1  0
 12 13  2  0
 14 13  1  0
 15 14  1  0
 16 15  2  0
 16 12  1  0
 17 25  1  0
 17 15  1  0
 18 17  2  0
 19 18  1  0
 19 20  1  0
 20 21  2  0
 20 25  1  0
 21 22  1  0
 22 23  2  0
 24 23  1  0
 25 24  2  0
  1 26  1  0
  1 27  1  0
  3 28  1  0
  4 29  1  0
  7 30  1  0
  9 31  1  0
  9 32  1  0
  9 33  1  0
 10 34  1  0
 10 35  1  0
 10 36  1  0
 18 37  1  0
 19 38  1  0
 21 39  1  0
 22 40  1  0
 23 41  1  0
 24 42  1  0
M  ISO  8  26   8  27   8  28  14  29  14  30  14  31   8  32   8  33   8
M  ISO  8  34   8  35   8  36   8  37  14  38   9  39  14  40  14  41  14
M  ISO  1  42  14
M  END
>  <minimizedAffinity>  (1) 
-5.44459772

>  <minimizedRMSD>  (1) 
0.822394252

$$$$
