
     RDKit          3D

 35 37  0  0  0  0  0  0  0  0999 V2000
   47.1040   34.4150   42.0170 C   0  0  0  0  0  0  0  0  0  0  0  0
   44.6020   36.0640   44.3700 C   0  0  0  0  0  0  0  0  0  0  0  0
   45.3800   35.8580   43.2120 C   0  0  0  0  0  0  0  0  0  0  0  0
   46.2410   34.7390   43.1700 C   0  0  0  0  0  0  0  0  0  0  0  0
   46.2630   33.9310   44.2540 N   0  0  0  0  0  0  0  0  0  0  0  0
   45.5030   34.1540   45.3570 C   0  0  0  0  0  0  0  0  0  0  0  0
   44.6750   35.2220   45.4090 N   0  0  0  0  0  0  0  0  0  0  0  0
   46.1990   34.2240   40.8170 C   0  0  0  0  0  0  0  0  0  0  0  0
   48.1710   35.4110   41.7410 C   0  0  0  0  0  0  0  0  0  0  0  0
   47.7740   33.0820   42.2940 C   0  0  0  0  0  0  0  0  0  0  0  0
   48.1640   32.4520   41.1190 O   0  0  0  0  0  0  0  0  0  0  0  0
   49.5130   32.2230   40.8850 C   0  0  0  0  0  0  0  0  0  0  0  0
   50.4440   32.4890   41.8340 N   0  0  0  0  0  0  0  0  0  0  0  0
   51.6160   32.1930   41.3820 O   0  0  0  0  0  0  0  0  0  0  0  0
   51.5340   31.7320   40.1530 C   0  0  0  0  0  0  0  0  0  0  0  0
   50.2220   31.7500   39.8430 N   0  0  0  0  0  0  0  0  0  0  0  0
   52.5990   31.2960   39.3040 N   0  0  0  0  0  0  0  0  0  0  0  0
   53.5780   30.5130   39.7120 N   0  0  0  0  0  0  0  0  0  0  0  0
   54.4450   30.2640   38.6920 C   0  0  0  0  0  0  0  0  0  0  0  0
   53.8840   30.9800   37.6330 C   0  0  0  0  0  0  0  0  0  0  0  0
   52.7260   31.6310   38.0080 C   0  0  0  0  0  0  0  0  0  0  0  0
   43.9249   36.9294   44.4207 H   0  0  0  0  0  0  0  0  0  0  0  0
   45.3178   36.5525   42.3613 H   0  0  0  0  0  0  0  0  0  0  0  0
   45.5610   33.4635   46.2113 H   0  0  0  0  0  0  0  0  0  0  0  0
   45.1763   34.0082   41.1597 H   0  0  0  0  0  0  0  0  0  0  0  0
   46.1964   35.1414   40.2100 H   0  0  0  0  0  0  0  0  0  0  0  0
   46.5673   33.3838   40.2100 H   0  0  0  0  0  0  0  0  0  0  0  0
   48.5752   35.7883   42.6919 H   0  0  0  0  0  0  0  0  0  0  0  0
   48.9768   34.9346   41.1634 H   0  0  0  0  0  0  0  0  0  0  0  0
   47.7511   36.2477   41.1634 H   0  0  0  0  0  0  0  0  0  0  0  0
   48.6625   33.2522   42.9197 H   0  0  0  0  0  0  0  0  0  0  0  0
   47.0498   32.4332   42.8084 H   0  0  0  0  0  0  0  0  0  0  0  0
   55.3589   29.6518   38.7004 H   0  0  0  0  0  0  0  0  0  0  0  0
   54.3133   31.0205   36.6210 H   0  0  0  0  0  0  0  0  0  0  0  0
   52.0688   32.2672   37.3970 H   0  0  0  0  0  0  0  0  0  0  0  0
  1 10  1  0
  1  4  1  0
  2  7  2  0
  3  2  1  0
  4  3  2  0
  4  5  1  0
  5  6  2  0
  6  7  1  0
  8  1  1  0
  9  1  1  0
 11 10  1  0
 12 11  1  0
 12 13  2  0
 14 13  1  0
 15 14  1  0
 16 15  2  0
 16 12  1  0
 17 18  1  0
 17 15  1  0
 19 18  2  0
 20 21  2  0
 20 19  1  0
 21 17  1  0
  2 22  1  0
  3 23  1  0
  6 24  1  0
  8 25  1  0
  8 26  1  0
  8 27  1  0
  9 28  1  0
  9 29  1  0
  9 30  1  0
 10 31  1  0
 10 32  1  0
 19 33  1  0
 20 34  1  0
 21 35  1  0
M  ISO  8  22  14  23  14  24  14  25   8  26   8  27   8  28   8  29   8
M  ISO  6  30   8  31   8  32   8  33  14  34  14  35  14
M  END
>  <minimizedAffinity>  (1) 
-5.23356819

>  <minimizedRMSD>  (1) 
0.364994079

$$$$
