
     RDKit          3D

 43 45  0  0  0  0  0  0  0  0999 V2000
   46.9270   34.4110   42.1460 C   0  0  0  0  0  0  0  0  0  0  0  0
   44.5210   35.9330   44.6630 C   0  0  0  0  0  0  0  0  0  0  0  0
   45.2360   35.7790   43.4520 C   0  0  0  0  0  0  0  0  0  0  0  0
   46.1260   34.6810   43.3510 C   0  0  0  0  0  0  0  0  0  0  0  0
   46.2410   33.8470   44.4110 N   0  0  0  0  0  0  0  0  0  0  0  0
   45.5280   34.0410   45.5540 C   0  0  0  0  0  0  0  0  0  0  0  0
   44.6770   35.0700   45.6840 N   0  0  0  0  0  0  0  0  0  0  0  0
   45.9570   34.3020   40.9770 C   0  0  0  0  0  0  0  0  0  0  0  0
   48.0080   35.3850   41.8660 C   0  0  0  0  0  0  0  0  0  0  0  0
   47.5690   33.0380   42.3080 C   0  0  0  0  0  0  0  0  0  0  0  0
   47.7080   32.3870   41.0830 O   0  0  0  0  0  0  0  0  0  0  0  0
   48.9760   32.0790   40.6190 C   0  0  0  0  0  0  0  0  0  0  0  0
   50.0780   32.3210   41.3720 N   0  0  0  0  0  0  0  0  0  0  0  0
   51.1340   31.9500   40.7250 O   0  0  0  0  0  0  0  0  0  0  0  0
   50.7930   31.4590   39.5440 C   0  0  0  0  0  0  0  0  0  0  0  0
   49.4510   31.5380   39.4780 N   0  0  0  0  0  0  0  0  0  0  0  0
   51.7360   30.9740   38.6170 N   0  0  0  0  0  0  0  0  0  0  0  0
   52.6490   31.7440   37.7590 C   0  0  0  0  0  0  0  0  0  0  0  0
   54.0820   31.3500   38.0120 C   0  0  0  0  0  0  0  0  0  0  0  0
   54.2420   30.2880   39.0630 C   0  0  0  0  0  0  0  0  0  0  0  0
   53.2520   29.1790   38.9990 C   0  0  0  0  0  0  0  0  0  0  0  0
   51.9230   29.5510   38.3910 C   0  0  0  0  0  0  0  0  0  0  0  0
   43.8228   36.7759   44.7725 H   0  0  0  0  0  0  0  0  0  0  0  0
   45.1058   36.4858   42.6192 H   0  0  0  0  0  0  0  0  0  0  0  0
   45.6524   33.3378   46.3906 H   0  0  0  0  0  0  0  0  0  0  0  0
   44.9324   34.1869   41.3603 H   0  0  0  0  0  0  0  0  0  0  0  0
   46.0187   35.2127   40.3632 H   0  0  0  0  0  0  0  0  0  0  0  0
   46.2193   33.4277   40.3632 H   0  0  0  0  0  0  0  0  0  0  0  0
   48.4211   35.7572   42.8151 H   0  0  0  0  0  0  0  0  0  0  0  0
   48.8039   34.8932   41.2875 H   0  0  0  0  0  0  0  0  0  0  0  0
   47.6015   36.2277   41.2875 H   0  0  0  0  0  0  0  0  0  0  0  0
   48.5636   33.1606   42.7616 H   0  0  0  0  0  0  0  0  0  0  0  0
   46.9164   32.4273   42.9492 H   0  0  0  0  0  0  0  0  0  0  0  0
   52.5267   32.8160   37.9729 H   0  0  0  0  0  0  0  0  0  0  0  0
   52.4060   31.5331   36.7071 H   0  0  0  0  0  0  0  0  0  0  0  0
   54.5097   30.9739   37.0709 H   0  0  0  0  0  0  0  0  0  0  0  0
   54.6007   32.2470   38.3811 H   0  0  0  0  0  0  0  0  0  0  0  0
   55.2470   29.8535   38.9575 H   0  0  0  0  0  0  0  0  0  0  0  0
   54.0785   30.7877   40.0292 H   0  0  0  0  0  0  0  0  0  0  0  0
   53.6871   28.3662   38.3990 H   0  0  0  0  0  0  0  0  0  0  0  0
   53.0456   28.8882   40.0396 H   0  0  0  0  0  0  0  0  0  0  0  0
   51.1144   28.9824   38.8735 H   0  0  0  0  0  0  0  0  0  0  0  0
   51.9042   29.3184   37.3160 H   0  0  0  0  0  0  0  0  0  0  0  0
  1 10  1  0
  1  4  1  0
  2  7  2  0
  3  2  1  0
  4  3  2  0
  4  5  1  0
  5  6  2  0
  6  7  1  0
  8  1  1  0
  9  1  1  0
 11 10  1  0
 12 11  1  0
 12 13  2  0
 14 13  1  0
 15 14  1  0
 16 15  2  0
 16 12  1  0
 17 15  1  0
 18 19  1  0
 18 17  1  0
 19 20  1  0
 21 20  1  0
 22 17  1  0
 22 21  1  0
  2 23  1  0
  3 24  1  0
  6 25  1  0
  8 26  1  0
  8 27  1  0
  8 28  1  0
  9 29  1  0
  9 30  1  0
  9 31  1  0
 10 32  1  0
 10 33  1  0
 18 34  1  0
 18 35  1  0
 19 36  1  0
 19 37  1  0
 20 38  1  0
 20 39  1  0
 21 40  1  0
 21 41  1  0
 22 42  1  0
 22 43  1  0
M  ISO  8  23  14  24  14  25  14  26   8  27   8  28   8  29   8  30   8
M  ISO  8  31   8  32   8  33   8  34  13  35  13  36  13  37  13  38  13
M  ISO  5  39  13  40  13  41  13  42  13  43  13
M  END
>  <minimizedAffinity>  (1) 
-5.19570923

>  <minimizedRMSD>  (1) 
0.758671224

$$$$
