
     RDKit          3D

 34 36  0  0  0  0  0  0  0  0999 V2000
   46.9250   34.4100   42.0780 C   0  0  0  0  0  0  0  0  0  0  0  0
   44.5380   36.0530   44.5400 C   0  0  0  0  0  0  0  0  0  0  0  0
   45.2630   35.8530   43.3540 C   0  0  0  0  0  0  0  0  0  0  0  0
   46.1150   34.7350   43.2550 C   0  0  0  0  0  0  0  0  0  0  0  0
   46.1820   33.9000   44.3410 N   0  0  0  0  0  0  0  0  0  0  0  0
   45.4650   34.1260   45.4730 C   0  0  0  0  0  0  0  0  0  0  0  0
   44.6490   35.1900   45.5790 N   0  0  0  0  0  0  0  0  0  0  0  0
   45.9710   34.2830   40.9020 C   0  0  0  0  0  0  0  0  0  0  0  0
   48.0140   35.3770   41.7820 C   0  0  0  0  0  0  0  0  0  0  0  0
   47.5540   33.0490   42.2810 C   0  0  0  0  0  0  0  0  0  0  0  0
   48.0780   32.5470   41.0880 O   0  0  0  0  0  0  0  0  0  0  0  0
   49.4410   32.2950   41.0010 C   0  0  0  0  0  0  0  0  0  0  0  0
   50.2640   32.5250   42.0520 N   0  0  0  0  0  0  0  0  0  0  0  0
   51.4910   32.2200   41.7480 O   0  0  0  0  0  0  0  0  0  0  0  0
   51.5420   31.7870   40.5190 C   0  0  0  0  0  0  0  0  0  0  0  0
   50.2700   31.8340   40.0540 N   0  0  0  0  0  0  0  0  0  0  0  0
   52.5750   31.3250   39.6620 N   0  0  0  0  0  0  0  0  0  0  0  0
   53.7090   30.6100   39.7870 C   0  0  0  0  0  0  0  0  0  0  0  0
   54.2930   30.4920   38.5610 N   0  0  0  0  0  0  0  0  0  0  0  0
   53.4860   31.1520   37.6800 C   0  0  0  0  0  0  0  0  0  0  0  0
   52.4500   31.6470   38.3830 N   0  0  0  0  0  0  0  0  0  0  0  0
   43.8703   36.9228   44.6269 H   0  0  0  0  0  0  0  0  0  0  0  0
   45.1673   36.5582   42.5152 H   0  0  0  0  0  0  0  0  0  0  0  0
   45.5535   33.4266   46.3174 H   0  0  0  0  0  0  0  0  0  0  0  0
   44.9452   34.1464   41.2751 H   0  0  0  0  0  0  0  0  0  0  0  0
   46.0201   35.1956   40.2898 H   0  0  0  0  0  0  0  0  0  0  0  0
   46.2571   33.4150   40.2898 H   0  0  0  0  0  0  0  0  0  0  0  0
   48.4371   35.7527   42.7253 H   0  0  0  0  0  0  0  0  0  0  0  0
   48.8018   34.8754   41.2008 H   0  0  0  0  0  0  0  0  0  0  0  0
   47.6091   36.2186   41.2008 H   0  0  0  0  0  0  0  0  0  0  0  0
   48.3647   33.1359   43.0194 H   0  0  0  0  0  0  0  0  0  0  0  0
   46.7757   32.3572   42.6355 H   0  0  0  0  0  0  0  0  0  0  0  0
   54.1003   30.1897   40.7252 H   0  0  0  0  0  0  0  0  0  0  0  0
   53.6512   31.2594   36.5978 H   0  0  0  0  0  0  0  0  0  0  0  0
  1 10  1  0
  1  4  1  0
  2  7  2  0
  3  2  1  0
  4  3  2  0
  4  5  1  0
  5  6  2  0
  6  7  1  0
  8  1  1  0
  9  1  1  0
 11 10  1  0
 12 11  1  0
 12 13  2  0
 14 13  1  0
 15 14  1  0
 16 15  2  0
 16 12  1  0
 17 18  1  0
 17 15  1  0
 19 18  2  0
 20 21  2  0
 20 19  1  0
 21 17  1  0
  2 22  1  0
  3 23  1  0
  6 24  1  0
  8 25  1  0
  8 26  1  0
  8 27  1  0
  9 28  1  0
  9 29  1  0
  9 30  1  0
 10 31  1  0
 10 32  1  0
 18 33  1  0
 20 34  1  0
M  ISO  8  22  14  23  14  24  14  25   8  26   8  27   8  28   8  29   8
M  ISO  5  30   8  31   8  32   8  33  14  34  14
M  END
>  <minimizedAffinity>  (1) 
-5.15807867

>  <minimizedRMSD>  (1) 
0.515084922

$$$$
