
     RDKit          3D

 31 32  0  0  0  0  0  0  0  0999 V2000
   47.2070   34.4390   42.0460 C   0  0  0  0  0  0  0  0  0  0  0  0
   44.6230   36.0910   44.2910 C   0  0  0  0  0  0  0  0  0  0  0  0
   45.4440   35.8750   43.1720 C   0  0  0  0  0  0  0  0  0  0  0  0
   46.3040   34.7620   43.1660 C   0  0  0  0  0  0  0  0  0  0  0  0
   46.2810   33.9590   44.2570 N   0  0  0  0  0  0  0  0  0  0  0  0
   45.4770   34.1940   45.3220 C   0  0  0  0  0  0  0  0  0  0  0  0
   44.6510   35.2490   45.3460 N   0  0  0  0  0  0  0  0  0  0  0  0
   46.3480   34.1680   40.8350 C   0  0  0  0  0  0  0  0  0  0  0  0
   48.2540   35.4470   41.7670 C   0  0  0  0  0  0  0  0  0  0  0  0
   47.9170   33.1360   42.3910 C   0  0  0  0  0  0  0  0  0  0  0  0
   48.1310   32.3600   41.2540 O   0  0  0  0  0  0  0  0  0  0  0  0
   49.4450   32.1380   40.8360 C   0  0  0  0  0  0  0  0  0  0  0  0
   50.4840   32.2330   41.6940 N   0  0  0  0  0  0  0  0  0  0  0  0
   51.5960   31.9870   41.0850 O   0  0  0  0  0  0  0  0  0  0  0  0
   51.3580   31.7190   39.8110 C   0  0  0  0  0  0  0  0  0  0  0  0
   50.0240   31.8140   39.6630 N   0  0  0  0  0  0  0  0  0  0  0  0
   52.2570   31.3790   38.6940 C   0  0  0  0  0  0  0  0  0  0  0  0
   52.7730   30.2490   38.5420 O   0  0  0  0  0  0  0  0  0  0  0  0
   52.5310   32.3830   37.7760 O   0  0  0  0  0  0  0  0  0  0  0  0
   43.9473   36.9589   44.3080 H   0  0  0  0  0  0  0  0  0  0  0  0
   45.4149   36.5643   42.3152 H   0  0  0  0  0  0  0  0  0  0  0  0
   45.5027   33.5075   46.1811 H   0  0  0  0  0  0  0  0  0  0  0  0
   45.3457   33.8518   41.1597 H   0  0  0  0  0  0  0  0  0  0  0  0
   46.2659   35.0839   40.2313 H   0  0  0  0  0  0  0  0  0  0  0  0
   46.8063   33.3708   40.2313 H   0  0  0  0  0  0  0  0  0  0  0  0
   48.6543   35.8323   42.7164 H   0  0  0  0  0  0  0  0  0  0  0  0
   49.0659   34.9819   41.1886 H   0  0  0  0  0  0  0  0  0  0  0  0
   47.8201   36.2760   41.1886 H   0  0  0  0  0  0  0  0  0  0  0  0
   48.8873   33.3684   42.8541 H   0  0  0  0  0  0  0  0  0  0  0  0
   47.2809   32.5671   43.0851 H   0  0  0  0  0  0  0  0  0  0  0  0
   53.1296   32.2021   37.0085 H   0  0  0  0  0  0  0  0  0  0  0  0
  1 10  1  0
  1  4  1  0
  2  7  2  0
  3  2  1  0
  4  3  2  0
  4  5  1  0
  5  6  2  0
  6  7  1  0
  8  1  1  0
  9  1  1  0
 11 10  1  0
 12 11  1  0
 12 13  2  0
 14 13  1  0
 15 14  1  0
 16 15  2  0
 16 12  1  0
 17 15  1  0
 18 17  2  0
 19 17  1  0
  2 20  1  0
  3 21  1  0
  6 22  1  0
  8 23  1  0
  8 24  1  0
  8 25  1  0
  9 26  1  0
  9 27  1  0
  9 28  1  0
 10 29  1  0
 10 30  1  0
 19 31  1  0
M  ISO  8  20  14  21  14  22  14  23   8  24   8  25   8  26   8  27   8
M  ISO  4  28   8  29   8  30   8  31   3
M  END
>  <minimizedAffinity>  (1) 
-4.98748159

>  <minimizedRMSD>  (1) 
0.513575613

$$$$
