
     RDKit          3D

 35 37  0  0  0  0  0  0  0  0999 V2000
   47.1530   34.4210   42.0270 C   0  0  0  0  0  0  0  0  0  0  0  0
   44.6180   36.0140   44.3690 C   0  0  0  0  0  0  0  0  0  0  0  0
   45.4070   35.8220   43.2200 C   0  0  0  0  0  0  0  0  0  0  0  0
   46.2840   34.7290   43.1590 C   0  0  0  0  0  0  0  0  0  0  0  0
   46.3130   33.9090   44.2420 N   0  0  0  0  0  0  0  0  0  0  0  0
   45.5420   34.1170   45.3400 C   0  0  0  0  0  0  0  0  0  0  0  0
   44.7030   35.1570   45.4050 N   0  0  0  0  0  0  0  0  0  0  0  0
   46.2520   34.2180   40.8170 C   0  0  0  0  0  0  0  0  0  0  0  0
   48.2000   35.4260   41.7360 C   0  0  0  0  0  0  0  0  0  0  0  0
   47.8360   33.0900   42.2860 C   0  0  0  0  0  0  0  0  0  0  0  0
   48.2230   32.4690   41.0930 O   0  0  0  0  0  0  0  0  0  0  0  0
   49.5690   32.2220   40.8630 C   0  0  0  0  0  0  0  0  0  0  0  0
   50.4890   32.5070   41.7980 N   0  0  0  0  0  0  0  0  0  0  0  0
   51.6860   32.2020   41.3880 O   0  0  0  0  0  0  0  0  0  0  0  0
   51.6030   31.7080   40.1750 C   0  0  0  0  0  0  0  0  0  0  0  0
   50.3070   31.7200   39.8540 N   0  0  0  0  0  0  0  0  0  0  0  0
   52.7030   31.2410   39.3480 C   0  0  0  0  0  0  0  0  0  0  0  0
   52.9590   31.6200   38.0500 C   0  0  0  0  0  0  0  0  0  0  0  0
   54.0880   30.9580   37.6130 C   0  0  0  0  0  0  0  0  0  0  0  0
   54.4680   30.1920   38.7010 C   0  0  0  0  0  0  0  0  0  0  0  0
   53.6340   30.3790   39.7050 O   0  0  0  0  0  0  0  0  0  0  0  0
   43.9277   36.8688   44.4217 H   0  0  0  0  0  0  0  0  0  0  0  0
   45.3366   36.5238   42.3759 H   0  0  0  0  0  0  0  0  0  0  0  0
   45.6082   33.4202   46.1886 H   0  0  0  0  0  0  0  0  0  0  0  0
   45.2307   33.9879   41.1548 H   0  0  0  0  0  0  0  0  0  0  0  0
   46.2397   35.1359   40.2109 H   0  0  0  0  0  0  0  0  0  0  0  0
   46.6345   33.3835   40.2109 H   0  0  0  0  0  0  0  0  0  0  0  0
   48.6065   35.8161   42.6808 H   0  0  0  0  0  0  0  0  0  0  0  0
   49.0078   34.9564   41.1555 H   0  0  0  0  0  0  0  0  0  0  0  0
   47.7639   36.2523   41.1555 H   0  0  0  0  0  0  0  0  0  0  0  0
   48.7288   33.2614   42.9052 H   0  0  0  0  0  0  0  0  0  0  0  0
   47.1215   32.4310   42.8010 H   0  0  0  0  0  0  0  0  0  0  0  0
   52.3632   32.3317   37.4596 H   0  0  0  0  0  0  0  0  0  0  0  0
   54.5734   31.0239   36.6281 H   0  0  0  0  0  0  0  0  0  0  0  0
   55.3408   29.5229   38.7249 H   0  0  0  0  0  0  0  0  0  0  0  0
  1 10  1  0
  1  4  1  0
  2  7  2  0
  3  2  1  0
  4  3  2  0
  4  5  1  0
  5  6  2  0
  6  7  1  0
  8  1  1  0
  9  1  1  0
 11 10  1  0
 12 11  1  0
 12 13  2  0
 14 13  1  0
 15 14  1  0
 16 15  2  0
 16 12  1  0
 17 21  1  0
 17 15  1  0
 18 17  2  0
 19 18  1  0
 19 20  2  0
 20 21  1  0
  2 22  1  0
  3 23  1  0
  6 24  1  0
  8 25  1  0
  8 26  1  0
  8 27  1  0
  9 28  1  0
  9 29  1  0
  9 30  1  0
 10 31  1  0
 10 32  1  0
 18 33  1  0
 19 34  1  0
 20 35  1  0
M  ISO  8  22  14  23  14  24  14  25   8  26   8  27   8  28   8  29   8
M  ISO  6  30   8  31   8  32   8  33  14  34  14  35  14
M  END
>  <minimizedAffinity>  (1) 
-5.02724838

>  <minimizedRMSD>  (1) 
0.390162528

$$$$
