
     RDKit          3D

 30 31  0  0  0  0  0  0  0  0999 V2000
   47.3060   34.4420   42.0000 C   0  0  0  0  0  0  0  0  0  0  0  0
   44.6650   36.0320   44.2280 C   0  0  0  0  0  0  0  0  0  0  0  0
   45.5030   35.8300   43.1210 C   0  0  0  0  0  0  0  0  0  0  0  0
   46.3890   34.7480   43.0970 C   0  0  0  0  0  0  0  0  0  0  0  0
   46.3820   33.9290   44.1920 N   0  0  0  0  0  0  0  0  0  0  0  0
   45.5590   34.1460   45.2520 C   0  0  0  0  0  0  0  0  0  0  0  0
   44.7130   35.1770   45.2780 N   0  0  0  0  0  0  0  0  0  0  0  0
   46.4530   34.1930   40.7660 C   0  0  0  0  0  0  0  0  0  0  0  0
   48.3430   35.4730   41.7320 C   0  0  0  0  0  0  0  0  0  0  0  0
   48.0160   33.1440   42.3150 C   0  0  0  0  0  0  0  0  0  0  0  0
   48.2630   32.3910   41.1730 O   0  0  0  0  0  0  0  0  0  0  0  0
   49.5660   32.1360   40.7920 C   0  0  0  0  0  0  0  0  0  0  0  0
   50.5850   32.3010   41.6470 N   0  0  0  0  0  0  0  0  0  0  0  0
   51.7160   32.0080   41.0920 O   0  0  0  0  0  0  0  0  0  0  0  0
   51.5120   31.6370   39.8510 C   0  0  0  0  0  0  0  0  0  0  0  0
   50.1720   31.7180   39.6700 N   0  0  0  0  0  0  0  0  0  0  0  0
   52.3230   31.1960   38.7220 C   0  0  0  0  0  0  0  0  0  0  0  0
   52.7260   31.8690   37.7390 O   0  0  0  0  0  0  0  0  0  0  0  0
   43.9694   36.8840   44.2435 H   0  0  0  0  0  0  0  0  0  0  0  0
   45.4631   36.5248   42.2692 H   0  0  0  0  0  0  0  0  0  0  0  0
   45.5914   33.4557   46.1078 H   0  0  0  0  0  0  0  0  0  0  0  0
   45.4394   33.8971   41.0745 H   0  0  0  0  0  0  0  0  0  0  0  0
   46.3996   35.1130   40.1654 H   0  0  0  0  0  0  0  0  0  0  0  0
   46.9029   33.3887   40.1654 H   0  0  0  0  0  0  0  0  0  0  0  0
   48.7313   35.8591   42.6860 H   0  0  0  0  0  0  0  0  0  0  0  0
   49.1657   35.0245   41.1559 H   0  0  0  0  0  0  0  0  0  0  0  0
   47.8992   36.2983   41.1559 H   0  0  0  0  0  0  0  0  0  0  0  0
   48.9750   33.3738   42.8023 H   0  0  0  0  0  0  0  0  0  0  0  0
   47.3636   32.5533   42.9749 H   0  0  0  0  0  0  0  0  0  0  0  0
   52.6209   30.1372   38.7315 H   0  0  0  0  0  0  0  0  0  0  0  0
  1 10  1  0
  1  4  1  0
  2  7  2  0
  3  2  1  0
  4  3  2  0
  4  5  1  0
  5  6  2  0
  6  7  1  0
  8  1  1  0
  9  1  1  0
 11 10  1  0
 12 11  1  0
 12 13  2  0
 14 13  1  0
 15 14  1  0
 16 15  2  0
 16 12  1  0
 17 15  1  0
 18 17  2  0
  2 19  1  0
  3 20  1  0
  6 21  1  0
  8 22  1  0
  8 23  1  0
  8 24  1  0
  9 25  1  0
  9 26  1  0
  9 27  1  0
 10 28  1  0
 10 29  1  0
 17 30  1  0
M  ISO  8  19  14  20  14  21  14  22   8  23   8  24   8  25   8  26   8
M  ISO  4  27   8  28   8  29   8  30   6
M  END
>  <minimizedAffinity>  (1) 
-4.54665899

>  <minimizedRMSD>  (1) 
0.449024171

$$$$
