
     RDKit          3D

 37 38  0  0  0  0  0  0  0  0999 V2000
   47.2140   34.4530   42.0320 C   0  0  0  0  0  0  0  0  0  0  0  0
   44.6390   36.0140   44.3510 C   0  0  0  0  0  0  0  0  0  0  0  0
   45.4420   35.8380   43.2080 C   0  0  0  0  0  0  0  0  0  0  0  0
   46.3300   34.7450   43.1550 C   0  0  0  0  0  0  0  0  0  0  0  0
   46.3470   33.9180   44.2390 N   0  0  0  0  0  0  0  0  0  0  0  0
   45.5540   34.1220   45.3260 C   0  0  0  0  0  0  0  0  0  0  0  0
   44.7100   35.1550   45.3840 N   0  0  0  0  0  0  0  0  0  0  0  0
   46.3370   34.2280   40.8170 C   0  0  0  0  0  0  0  0  0  0  0  0
   48.2500   35.4800   41.7630 C   0  0  0  0  0  0  0  0  0  0  0  0
   47.9210   33.1350   42.3070 C   0  0  0  0  0  0  0  0  0  0  0  0
   48.1490   32.4040   41.1480 O   0  0  0  0  0  0  0  0  0  0  0  0
   49.4440   32.0910   40.7820 C   0  0  0  0  0  0  0  0  0  0  0  0
   50.5060   32.4940   41.5270 N   0  0  0  0  0  0  0  0  0  0  0  0
   51.6060   32.0850   40.9890 O   0  0  0  0  0  0  0  0  0  0  0  0
   51.3380   31.4070   39.8870 C   0  0  0  0  0  0  0  0  0  0  0  0
   49.9920   31.4060   39.7510 N   0  0  0  0  0  0  0  0  0  0  0  0
   52.3550   30.7860   39.0050 C   0  0  0  0  0  0  0  0  0  0  0  0
   52.5380   31.7520   37.8340 C   0  0  0  0  0  0  0  0  0  0  0  0
   53.7030   30.6920   39.6870 C   0  0  0  0  0  0  0  0  0  0  0  0
   43.9442   36.8654   44.4001 H   0  0  0  0  0  0  0  0  0  0  0  0
   45.3771   36.5444   42.3673 H   0  0  0  0  0  0  0  0  0  0  0  0
   45.6094   33.4224   46.1731 H   0  0  0  0  0  0  0  0  0  0  0  0
   45.3193   33.9669   41.1427 H   0  0  0  0  0  0  0  0  0  0  0  0
   46.3043   35.1469   40.2131 H   0  0  0  0  0  0  0  0  0  0  0  0
   46.7507   33.4069   40.2131 H   0  0  0  0  0  0  0  0  0  0  0  0
   48.6396   35.8663   42.7164 H   0  0  0  0  0  0  0  0  0  0  0  0
   49.0716   35.0298   41.1866 H   0  0  0  0  0  0  0  0  0  0  0  0
   47.8070   36.3055   41.1866 H   0  0  0  0  0  0  0  0  0  0  0  0
   48.8878   33.3463   42.7872 H   0  0  0  0  0  0  0  0  0  0  0  0
   47.2694   32.5348   42.9591 H   0  0  0  0  0  0  0  0  0  0  0  0
   52.0239   29.7766   38.7195 H   0  0  0  0  0  0  0  0  0  0  0  0
   52.7297   32.7640   38.2201 H   0  0  0  0  0  0  0  0  0  0  0  0
   53.3904   31.4263   37.2198 H   0  0  0  0  0  0  0  0  0  0  0  0
   51.6255   31.7606   37.2198 H   0  0  0  0  0  0  0  0  0  0  0  0
   53.5634   30.7017   40.7781 H   0  0  0  0  0  0  0  0  0  0  0  0
   54.2001   29.7570   39.3893 H   0  0  0  0  0  0  0  0  0  0  0  0
   54.3251   31.5489   39.3893 H   0  0  0  0  0  0  0  0  0  0  0  0
  1 10  1  0
  1  4  1  0
  2  7  2  0
  3  2  1  0
  4  3  2  0
  4  5  1  0
  5  6  2  0
  6  7  1  0
  8  1  1  0
  9  1  1  0
 11 10  1  0
 12 11  1  0
 12 13  2  0
 14 13  1  0
 15 14  1  0
 16 15  2  0
 16 12  1  0
 17 19  1  0
 17 15  1  0
 18 17  1  0
  2 20  1  0
  3 21  1  0
  6 22  1  0
  8 23  1  0
  8 24  1  0
  8 25  1  0
  9 26  1  0
  9 27  1  0
  9 28  1  0
 10 29  1  0
 10 30  1  0
 17 31  1  0
 18 32  1  0
 18 33  1  0
 18 34  1  0
 19 35  1  0
 19 36  1  0
 19 37  1  0
M  ISO  8  20  14  21  14  22  14  23   8  24   8  25   8  26   8  27   8
M  ISO  8  28   8  29   8  30   8  31   8  32   8  33   8  34   8  35   8
M  ISO  2  36   8  37   8
M  END
>  <minimizedAffinity>  (1) 
-4.72567749

>  <minimizedRMSD>  (1) 
0.343677849

$$$$
