
     RDKit          3D

 43 46  0  0  0  0  0  0  0  0999 V2000
   45.1460   34.0210   41.7610 C   0  0  0  0  0  0  0  0  0  0  0  0
   45.8880   34.9110   42.7560 C   0  0  0  0  0  0  0  0  0  0  0  0
   45.2060   34.5030   45.1030 C   0  0  0  0  0  0  0  0  0  0  0  0
   46.0530   34.1650   44.0220 C   0  0  0  0  0  0  0  0  0  0  0  0
   46.9580   33.1510   44.2760 C   0  0  0  0  0  0  0  0  0  0  0  0
   47.0050   32.5500   45.4730 N   0  0  0  0  0  0  0  0  0  0  0  0
   46.1800   32.9060   46.4680 C   0  0  0  0  0  0  0  0  0  0  0  0
   45.2660   33.8950   46.2870 N   0  0  0  0  0  0  0  0  0  0  0  0
   47.2320   35.3000   42.2140 C   0  0  0  0  0  0  0  0  0  0  0  0
   45.0530   36.1280   42.9860 C   0  0  0  0  0  0  0  0  0  0  0  0
   43.7820   34.2340   41.9270 O   0  0  0  0  0  0  0  0  0  0  0  0
   42.9550   34.1020   40.8310 C   0  0  0  0  0  0  0  0  0  0  0  0
   42.9260   35.0210   39.7980 C   0  0  0  0  0  0  0  0  0  0  0  0
   41.9870   34.5600   38.8870 C   0  0  0  0  0  0  0  0  0  0  0  0
   41.4790   33.4050   39.3710 N   0  0  0  0  0  0  0  0  0  0  0  0
   42.0550   33.1320   40.5250 N   0  0  0  0  0  0  0  0  0  0  0  0
   40.4800   32.6940   38.6380 C   0  0  0  0  0  0  0  0  0  0  0  0
   39.1490   33.0790   38.4850 C   0  0  0  0  0  0  0  0  0  0  0  0
   38.4920   32.1290   37.6990 C   0  0  0  0  0  0  0  0  0  0  0  0
   39.4300   31.2230   37.4130 N   0  0  0  0  0  0  0  0  0  0  0  0
   40.6180   31.5480   37.9660 N   0  0  0  0  0  0  0  0  0  0  0  0
   39.3390   30.0100   36.6320 C   0  0  0  0  0  0  0  0  0  0  0  0
   40.3050   29.5390   35.6840 C   0  0  0  0  0  0  0  0  0  0  0  0
   39.4490   27.9440   35.1310 S   0  0  0  0  0  0  0  0  0  0  0  0
   37.9840   28.2660   36.3000 C   0  0  0  0  0  0  0  0  0  0  0  0
   38.2100   29.3370   36.8940 N   0  0  0  0  0  0  0  0  0  0  0  0
   45.3850   32.9649   41.9546 H   0  0  0  0  0  0  0  0  0  0  0  0
   45.4480   34.2647   40.7317 H   0  0  0  0  0  0  0  0  0  0  0  0
   44.4649   35.3032   44.9599 H   0  0  0  0  0  0  0  0  0  0  0  0
   47.6505   32.8325   43.4829 H   0  0  0  0  0  0  0  0  0  0  0  0
   46.2436   32.3931   47.4391 H   0  0  0  0  0  0  0  0  0  0  0  0
   47.9203   35.4992   43.0486 H   0  0  0  0  0  0  0  0  0  0  0  0
   47.6302   34.4802   41.5980 H   0  0  0  0  0  0  0  0  0  0  0  0
   47.1308   36.2057   41.5980 H   0  0  0  0  0  0  0  0  0  0  0  0
   44.9384   36.2951   44.0672 H   0  0  0  0  0  0  0  0  0  0  0  0
   45.5434   37.0007   42.5301 H   0  0  0  0  0  0  0  0  0  0  0  0
   44.0623   35.9845   42.5301 H   0  0  0  0  0  0  0  0  0  0  0  0
   43.5289   35.9373   39.7151 H   0  0  0  0  0  0  0  0  0  0  0  0
   41.7065   35.0467   37.9413 H   0  0  0  0  0  0  0  0  0  0  0  0
   38.6909   33.9829   38.9131 H   0  0  0  0  0  0  0  0  0  0  0  0
   37.4375   32.1278   37.3858 H   0  0  0  0  0  0  0  0  0  0  0  0
   41.2640   29.9766   35.3695 H   0  0  0  0  0  0  0  0  0  0  0  0
   37.0997   27.6244   36.4280 H   0  0  0  0  0  0  0  0  0  0  0  0
  1 11  1  0
  1  2  1  0
  2 10  1  0
  2  4  1  0
  3  8  2  0
  4  5  2  0
  4  3  1  0
  5  6  1  0
  6  7  2  0
  8  7  1  0
  9  2  1  0
 12 11  1  0
 13 12  1  0
 14 15  1  0
 14 13  2  0
 15 16  1  0
 16 12  2  0
 17 15  1  0
 18 17  1  0
 19 18  2  0
 20 19  1  0
 20 21  1  0
 21 17  2  0
 22 26  1  0
 22 20  1  0
 23 22  2  0
 24 23  1  0
 24 25  1  0
 25 26  2  0
  1 27  1  0
  1 28  1  0
  3 29  1  0
  5 30  1  0
  7 31  1  0
  9 32  1  0
  9 33  1  0
  9 34  1  0
 10 35  1  0
 10 36  1  0
 10 37  1  0
 13 38  1  0
 14 39  1  0
 18 40  1  0
 19 41  1  0
 23 42  1  0
 25 43  1  0
M  ISO  8  27   8  28   8  29  14  30  14  31  14  32   8  33   8  34   8
M  ISO  8  35   8  36   8  37   8  38  14  39  14  40  14  41  14  42  14
M  ISO  1  43  14
M  END
>  <minimizedAffinity>  (1) 
-5.38347149

>  <minimizedRMSD>  (1) 
2.42210269

$$$$
