
     RDKit          3D

 45 48  0  0  0  0  0  0  0  0999 V2000
   47.1810   33.8860   40.6130 C   0  0  0  0  0  0  0  0  0  0  0  0
   47.9060   34.1880   41.9000 C   0  0  0  0  0  0  0  0  0  0  0  0
   45.8450   33.9260   45.0740 C   0  0  0  0  0  0  0  0  0  0  0  0
   46.8520   33.5980   44.1280 C   0  0  0  0  0  0  0  0  0  0  0  0
   46.9230   34.3980   42.9700 C   0  0  0  0  0  0  0  0  0  0  0  0
   46.0400   35.4130   42.8340 N   0  0  0  0  0  0  0  0  0  0  0  0
   45.0930   35.6840   43.7730 C   0  0  0  0  0  0  0  0  0  0  0  0
   45.0020   34.9440   44.8790 N   0  0  0  0  0  0  0  0  0  0  0  0
   48.6310   35.5050   41.6930 C   0  0  0  0  0  0  0  0  0  0  0  0
   48.8780   33.0940   42.1430 C   0  0  0  0  0  0  0  0  0  0  0  0
   47.7460   34.5690   39.5300 O   0  0  0  0  0  0  0  0  0  0  0  0
   48.1070   33.8440   38.4050 C   0  0  0  0  0  0  0  0  0  0  0  0
   48.4360   32.5170   38.4750 N   0  0  0  0  0  0  0  0  0  0  0  0
   48.7320   32.0760   37.3080 O   0  0  0  0  0  0  0  0  0  0  0  0
   48.6250   33.0250   36.4140 C   0  0  0  0  0  0  0  0  0  0  0  0
   48.2390   34.1170   37.0990 N   0  0  0  0  0  0  0  0  0  0  0  0
   48.8450   32.9930   35.0380 O   0  0  0  0  0  0  0  0  0  0  0  0
   48.4610   31.8750   34.3200 C   0  0  0  0  0  0  0  0  0  0  0  0
   49.5650   31.2290   33.7680 C   0  0  0  0  0  0  0  0  0  0  0  0
   49.4020   30.0790   33.0070 C   0  0  0  0  0  0  0  0  0  0  0  0
   48.1300   29.5450   32.7780 C   0  0  0  0  0  0  0  0  0  0  0  0
   47.0580   30.2040   33.3360 C   0  0  0  0  0  0  0  0  0  0  0  0
   45.7410   29.7660   33.1680 C   0  0  0  0  0  0  0  0  0  0  0  0
   44.6950   30.4660   33.7410 C   0  0  0  0  0  0  0  0  0  0  0  0
   44.8940   31.6180   34.4980 C   0  0  0  0  0  0  0  0  0  0  0  0
   46.1950   32.0660   34.6740 C   0  0  0  0  0  0  0  0  0  0  0  0
   47.2120   31.3450   34.0910 C   0  0  0  0  0  0  0  0  0  0  0  0
   47.2333   32.8045   40.4193 H   0  0  0  0  0  0  0  0  0  0  0  0
   46.1373   34.2162   40.7209 H   0  0  0  0  0  0  0  0  0  0  0  0
   45.7567   33.3260   45.9917 H   0  0  0  0  0  0  0  0  0  0  0  0
   47.5442   32.7588   44.2914 H   0  0  0  0  0  0  0  0  0  0  0  0
   44.3962   36.5210   43.6185 H   0  0  0  0  0  0  0  0  0  0  0  0
   48.8744   35.9471   42.6704 H   0  0  0  0  0  0  0  0  0  0  0  0
   49.5589   35.3281   41.1293 H   0  0  0  0  0  0  0  0  0  0  0  0
   47.9853   36.1944   41.1293 H   0  0  0  0  0  0  0  0  0  0  0  0
   49.0054   32.9506   43.2261 H   0  0  0  0  0  0  0  0  0  0  0  0
   48.5032   32.1636   41.6915 H   0  0  0  0  0  0  0  0  0  0  0  0
   49.8461   33.3566   41.6915 H   0  0  0  0  0  0  0  0  0  0  0  0
   50.5741   31.6332   33.9364 H   0  0  0  0  0  0  0  0  0  0  0  0
   50.2848   29.5817   32.5788 H   0  0  0  0  0  0  0  0  0  0  0  0
   47.9916   28.6348   32.1761 H   0  0  0  0  0  0  0  0  0  0  0  0
   45.5359   28.8608   32.5776 H   0  0  0  0  0  0  0  0  0  0  0  0
   43.6684   30.0996   33.5935 H   0  0  0  0  0  0  0  0  0  0  0  0
   44.0445   32.1567   34.9432 H   0  0  0  0  0  0  0  0  0  0  0  0
   46.4075   32.9709   35.2622 H   0  0  0  0  0  0  0  0  0  0  0  0
  1  2  1  0
  2 10  1  0
  2  5  1  0
  4  3  2  0
  5  4  1  0
  6  5  2  0
  6  7  1  0
  7  8  2  0
  8  3  1  0
  9  2  1  0
 11  1  1  0
 12 13  2  0
 12 11  1  0
 14 13  1  0
 15 16  2  0
 15 14  1  0
 16 12  1  0
 17 15  1  0
 18 17  1  0
 19 18  2  0
 20 19  1  0
 21 20  2  0
 21 22  1  0
 22 27  2  0
 23 22  1  0
 23 24  2  0
 24 25  1  0
 25 26  2  0
 27 18  1  0
 27 26  1  0
  1 28  1  0
  1 29  1  0
  3 30  1  0
  4 31  1  0
  7 32  1  0
  9 33  1  0
  9 34  1  0
  9 35  1  0
 10 36  1  0
 10 37  1  0
 10 38  1  0
 19 39  1  0
 20 40  1  0
 21 41  1  0
 23 42  1  0
 24 43  1  0
 25 44  1  0
 26 45  1  0
M  ISO  8  28   8  29   8  30  14  31  14  32  14  33   8  34   8  35   8
M  ISO  8  36   8  37   8  38   8  39  14  40  14  41  14  42  14  43  14
M  ISO  2  44  14  45  14
M  END
>  <minimizedAffinity>  (1) 
-5.72311592

>  <minimizedRMSD>  (1) 
6.94008589

$$$$
