
     RDKit          3D

 35 36  0  0  0  0  0  0  0  0999 V2000
   47.2440   34.4620   42.0060 C   0  0  0  0  0  0  0  0  0  0  0  0
   44.6450   36.0520   44.2820 C   0  0  0  0  0  0  0  0  0  0  0  0
   45.4660   35.8640   43.1500 C   0  0  0  0  0  0  0  0  0  0  0  0
   46.3360   34.7670   43.1300 C   0  0  0  0  0  0  0  0  0  0  0  0
   46.3370   33.9370   44.2140 N   0  0  0  0  0  0  0  0  0  0  0  0
   45.5270   34.1640   45.2750 C   0  0  0  0  0  0  0  0  0  0  0  0
   44.6970   35.1960   45.3150 N   0  0  0  0  0  0  0  0  0  0  0  0
   46.3740   34.2090   40.7880 C   0  0  0  0  0  0  0  0  0  0  0  0
   48.2720   35.4820   41.7460 C   0  0  0  0  0  0  0  0  0  0  0  0
   47.9400   33.1410   42.3020 C   0  0  0  0  0  0  0  0  0  0  0  0
   48.1900   32.4240   41.1400 O   0  0  0  0  0  0  0  0  0  0  0  0
   49.4910   32.1090   40.7920 C   0  0  0  0  0  0  0  0  0  0  0  0
   50.5460   32.4990   41.5700 N   0  0  0  0  0  0  0  0  0  0  0  0
   51.6410   32.0800   41.0250 O   0  0  0  0  0  0  0  0  0  0  0  0
   51.4040   31.4310   39.9300 C   0  0  0  0  0  0  0  0  0  0  0  0
   50.0740   31.4450   39.7790 N   0  0  0  0  0  0  0  0  0  0  0  0
   52.3150   30.8300   39.0610 O   0  0  0  0  0  0  0  0  0  0  0  0
   52.8160   31.6350   38.0110 C   0  0  0  0  0  0  0  0  0  0  0  0
   54.2730   31.3020   37.7890 C   0  0  0  0  0  0  0  0  0  0  0  0
   43.9555   36.9083   44.3185 H   0  0  0  0  0  0  0  0  0  0  0  0
   45.4236   36.5636   42.3022 H   0  0  0  0  0  0  0  0  0  0  0  0
   45.5590   33.4713   46.1289 H   0  0  0  0  0  0  0  0  0  0  0  0
   45.3648   33.9155   41.1128 H   0  0  0  0  0  0  0  0  0  0  0  0
   46.3126   35.1265   40.1843 H   0  0  0  0  0  0  0  0  0  0  0  0
   46.8142   33.4016   40.1843 H   0  0  0  0  0  0  0  0  0  0  0  0
   48.6583   35.8653   42.7020 H   0  0  0  0  0  0  0  0  0  0  0  0
   49.0957   35.0341   41.1708 H   0  0  0  0  0  0  0  0  0  0  0  0
   47.8305   36.3092   41.1708 H   0  0  0  0  0  0  0  0  0  0  0  0
   48.8952   33.3461   42.8075 H   0  0  0  0  0  0  0  0  0  0  0  0
   47.2783   32.5391   42.9422 H   0  0  0  0  0  0  0  0  0  0  0  0
   52.2477   31.4362   37.0904 H   0  0  0  0  0  0  0  0  0  0  0  0
   52.7135   32.6977   38.2758 H   0  0  0  0  0  0  0  0  0  0  0  0
   54.7751   31.1872   38.7610 H   0  0  0  0  0  0  0  0  0  0  0  0
   54.3522   30.3626   37.2222 H   0  0  0  0  0  0  0  0  0  0  0  0
   54.7524   32.1137   37.2222 H   0  0  0  0  0  0  0  0  0  0  0  0
  1 10  1  0
  1  4  1  0
  2  7  2  0
  3  2  1  0
  4  3  2  0
  4  5  1  0
  5  6  2  0
  6  7  1  0
  8  1  1  0
  9  1  1  0
 11 10  1  0
 12 11  1  0
 12 13  2  0
 14 13  1  0
 15 14  1  0
 16 15  2  0
 16 12  1  0
 17 15  1  0
 18 17  1  0
 19 18  1  0
  2 20  1  0
  3 21  1  0
  6 22  1  0
  8 23  1  0
  8 24  1  0
  8 25  1  0
  9 26  1  0
  9 27  1  0
  9 28  1  0
 10 29  1  0
 10 30  1  0
 18 31  1  0
 18 32  1  0
 19 33  1  0
 19 34  1  0
 19 35  1  0
M  ISO  8  20  14  21  14  22  14  23   8  24   8  25   8  26   8  27   8
M  ISO  8  28   8  29   8  30   8  31   8  32   8  33   8  34   8  35   8
M  END
>  <minimizedAffinity>  (1) 
-4.60655832

>  <minimizedRMSD>  (1) 
0.798417151

$$$$
