
     RDKit          3D

 36 38  0  0  0  0  0  0  0  0999 V2000
   47.2930   34.4610   42.0270 C   0  0  0  0  0  0  0  0  0  0  0  0
   44.6650   35.9810   44.3050 C   0  0  0  0  0  0  0  0  0  0  0  0
   45.4950   35.8160   43.1650 C   0  0  0  0  0  0  0  0  0  0  0  0
   46.3930   34.7340   43.1390 C   0  0  0  0  0  0  0  0  0  0  0  0
   46.4120   33.9050   44.2210 N   0  0  0  0  0  0  0  0  0  0  0  0
   45.6040   34.0960   45.2920 C   0  0  0  0  0  0  0  0  0  0  0  0
   44.7400   35.1240   45.3310 N   0  0  0  0  0  0  0  0  0  0  0  0
   46.4220   34.1980   40.7960 C   0  0  0  0  0  0  0  0  0  0  0  0
   48.3060   35.4800   41.7400 C   0  0  0  0  0  0  0  0  0  0  0  0
   48.0090   33.1520   42.2980 C   0  0  0  0  0  0  0  0  0  0  0  0
   48.1960   32.3910   41.1550 O   0  0  0  0  0  0  0  0  0  0  0  0
   49.4740   32.0950   40.7200 C   0  0  0  0  0  0  0  0  0  0  0  0
   50.5590   32.3780   41.5010 N   0  0  0  0  0  0  0  0  0  0  0  0
   51.6360   32.0140   40.8910 O   0  0  0  0  0  0  0  0  0  0  0  0
   51.3630   31.4920   39.7250 C   0  0  0  0  0  0  0  0  0  0  0  0
   50.0350   31.5470   39.6340 N   0  0  0  0  0  0  0  0  0  0  0  0
   52.2210   30.9790   38.7600 O   0  0  0  0  0  0  0  0  0  0  0  0
   53.6110   31.1160   38.9970 C   0  0  0  0  0  0  0  0  0  0  0  0
   54.4070   31.1390   37.6980 C   0  0  0  0  0  0  0  0  0  0  0  0
   54.5760   30.0440   38.7110 C   0  0  0  0  0  0  0  0  0  0  0  0
   43.9545   36.8198   44.3457 H   0  0  0  0  0  0  0  0  0  0  0  0
   45.4370   36.5189   42.3208 H   0  0  0  0  0  0  0  0  0  0  0  0
   45.6563   33.3993   46.1416 H   0  0  0  0  0  0  0  0  0  0  0  0
   45.4150   33.8939   41.1176 H   0  0  0  0  0  0  0  0  0  0  0  0
   46.3529   35.1153   40.1929 H   0  0  0  0  0  0  0  0  0  0  0  0
   46.8722   33.3957   40.1929 H   0  0  0  0  0  0  0  0  0  0  0  0
   48.7027   35.8791   42.6852 H   0  0  0  0  0  0  0  0  0  0  0  0
   49.1248   35.0298   41.1597 H   0  0  0  0  0  0  0  0  0  0  0  0
   47.8509   36.2962   41.1597 H   0  0  0  0  0  0  0  0  0  0  0  0
   48.9932   33.3748   42.7358 H   0  0  0  0  0  0  0  0  0  0  0  0
   47.3779   32.5672   42.9834 H   0  0  0  0  0  0  0  0  0  0  0  0
   53.4635   31.7212   39.9036 H   0  0  0  0  0  0  0  0  0  0  0  0
   55.2026   31.8836   37.5477 H   0  0  0  0  0  0  0  0  0  0  0  0
   54.1655   31.1911   36.6261 H   0  0  0  0  0  0  0  0  0  0  0  0
   54.2137   29.0305   38.4840 H   0  0  0  0  0  0  0  0  0  0  0  0
   55.4376   29.6227   39.2497 H   0  0  0  0  0  0  0  0  0  0  0  0
  1 10  1  0
  1  4  1  0
  2  7  2  0
  3  2  1  0
  4  3  2  0
  4  5  1  0
  5  6  2  0
  6  7  1  0
  8  1  1  0
  9  1  1  0
 11 10  1  0
 12 11  1  0
 12 13  2  0
 14 13  1  0
 15 14  1  0
 16 15  2  0
 16 12  1  0
 17 18  1  0
 17 15  1  0
 19 20  1  0
 19 18  1  0
 20 18  1  0
  2 21  1  0
  3 22  1  0
  6 23  1  0
  8 24  1  0
  8 25  1  0
  8 26  1  0
  9 27  1  0
  9 28  1  0
  9 29  1  0
 10 30  1  0
 10 31  1  0
 18 32  1  0
 19 33  1  0
 19 34  1  0
 20 35  1  0
 20 36  1  0
M  ISO  8  21  14  22  14  23  14  24   8  25   8  26   8  27   8  28   8
M  ISO  8  29   8  30   8  31   8  32  13  33  13  34  13  35  13  36  13
M  END
>  <minimizedAffinity>  (1) 
-4.69949627

>  <minimizedRMSD>  (1) 
0.760544002

$$$$
