
     RDKit          3D

 49 52  0  0  0  0  0  0  0  0999 V2000
   47.5490   33.0130   42.1510 C   0  0  0  0  0  0  0  0  0  0  0  0
   46.9740   34.3980   42.0250 C   0  0  0  0  0  0  0  0  0  0  0  0
   44.5970   35.9770   44.5240 C   0  0  0  0  0  0  0  0  0  0  0  0
   45.3160   35.8040   43.3160 C   0  0  0  0  0  0  0  0  0  0  0  0
   46.1790   34.6900   43.2130 C   0  0  0  0  0  0  0  0  0  0  0  0
   46.2620   33.8660   44.2720 N   0  0  0  0  0  0  0  0  0  0  0  0
   45.5510   34.0780   45.4070 C   0  0  0  0  0  0  0  0  0  0  0  0
   44.7310   35.1140   45.5350 N   0  0  0  0  0  0  0  0  0  0  0  0
   46.0070   34.3420   40.8290 C   0  0  0  0  0  0  0  0  0  0  0  0
   48.0610   35.3500   41.7190 C   0  0  0  0  0  0  0  0  0  0  0  0
   47.3600   32.2610   40.9980 O   0  0  0  0  0  0  0  0  0  0  0  0
   48.4610   31.8560   40.2680 C   0  0  0  0  0  0  0  0  0  0  0  0
   49.7190   32.3020   40.5610 N   0  0  0  0  0  0  0  0  0  0  0  0
   50.5480   31.7670   39.7280 O   0  0  0  0  0  0  0  0  0  0  0  0
   49.9520   30.9880   38.8870 C   0  0  0  0  0  0  0  0  0  0  0  0
   48.6730   31.0390   39.2130 N   0  0  0  0  0  0  0  0  0  0  0  0
   50.5040   30.2460   37.8540 O   0  0  0  0  0  0  0  0  0  0  0  0
   51.2320   30.9980   34.5740 N   0  0  0  0  0  0  0  0  0  0  0  0
   51.4860   30.6140   35.8420 N   0  0  0  0  0  0  0  0  0  0  0  0
   50.3120   30.6260   36.5490 C   0  0  0  0  0  0  0  0  0  0  0  0
   49.3430   31.0280   35.6710 C   0  0  0  0  0  0  0  0  0  0  0  0
   49.9280   31.2570   34.4480 C   0  0  0  0  0  0  0  0  0  0  0  0
   49.2120   31.6880   33.2990 N   0  0  0  0  0  0  0  0  0  0  0  0
   48.9710   30.8160   32.1640 C   0  0  0  0  0  0  0  0  0  0  0  0
   48.6750   31.7660   30.9970 C   0  0  0  0  0  0  0  0  0  0  0  0
   49.5130   32.8520   30.9610 O   0  0  0  0  0  0  0  0  0  0  0  0
   49.4660   33.6830   32.0540 C   0  0  0  0  0  0  0  0  0  0  0  0
   48.6760   33.0300   33.1850 C   0  0  0  0  0  0  0  0  0  0  0  0
   48.6281   33.0937   42.3487 H   0  0  0  0  0  0  0  0  0  0  0  0
   47.0287   32.5043   42.9759 H   0  0  0  0  0  0  0  0  0  0  0  0
   43.9176   36.8354   44.6314 H   0  0  0  0  0  0  0  0  0  0  0  0
   45.2059   36.5149   42.4838 H   0  0  0  0  0  0  0  0  0  0  0  0
   45.6566   33.3724   46.2443 H   0  0  0  0  0  0  0  0  0  0  0  0
   44.9720   34.2821   41.1968 H   0  0  0  0  0  0  0  0  0  0  0  0
   46.1270   35.2486   40.2177 H   0  0  0  0  0  0  0  0  0  0  0  0
   46.2308   33.4553   40.2177 H   0  0  0  0  0  0  0  0  0  0  0  0
   48.4925   35.7279   42.6576 H   0  0  0  0  0  0  0  0  0  0  0  0
   48.8418   34.8399   41.1357 H   0  0  0  0  0  0  0  0  0  0  0  0
   47.6583   36.1912   41.1357 H   0  0  0  0  0  0  0  0  0  0  0  0
   51.9321   31.0786   33.8229 H   0  0  0  0  0  0  0  0  0  0  0  0
   48.2748   31.1479   35.9044 H   0  0  0  0  0  0  0  0  0  0  0  0
   49.8596   30.2040   31.9498 H   0  0  0  0  0  0  0  0  0  0  0  0
   48.1447   30.1135   32.3478 H   0  0  0  0  0  0  0  0  0  0  0  0
   48.7842   31.2082   30.0552 H   0  0  0  0  0  0  0  0  0  0  0  0
   47.6518   32.1457   31.1346 H   0  0  0  0  0  0  0  0  0  0  0  0
   50.4905   33.8873   32.3984 H   0  0  0  0  0  0  0  0  0  0  0  0
   48.9694   34.6218   31.7675 H   0  0  0  0  0  0  0  0  0  0  0  0
   48.8191   33.5834   34.1248 H   0  0  0  0  0  0  0  0  0  0  0  0
   47.5951   33.0245   32.9810 H   0  0  0  0  0  0  0  0  0  0  0  0
  2  1  1  0
  2  5  1  0
  3  8  2  0
  4  3  1  0
  5  4  2  0
  5  6  1  0
  6  7  2  0
  7  8  1  0
  9  2  1  0
 10  2  1  0
 11  1  1  0
 12 13  2  0
 12 11  1  0
 14 13  1  0
 15 16  2  0
 15 14  1  0
 16 12  1  0
 17 15  1  0
 18 19  1  0
 19 20  2  0
 20 17  1  0
 21 20  1  0
 22 18  1  0
 22 21  2  0
 23 22  1  0
 24 23  1  0
 25 24  1  0
 26 25  1  0
 26 27  1  0
 27 28  1  0
 28 23  1  0
  1 29  1  0
  1 30  1  0
  3 31  1  0
  4 32  1  0
  7 33  1  0
  9 34  1  0
  9 35  1  0
  9 36  1  0
 10 37  1  0
 10 38  1  0
 10 39  1  0
 18 40  1  0
 21 41  1  0
 24 42  1  0
 24 43  1  0
 25 44  1  0
 25 45  1  0
 27 46  1  0
 27 47  1  0
 28 48  1  0
 28 49  1  0
M  ISO  8  29   8  30   8  31  14  32  14  33  14  34   8  35   8  36   8
M  ISO  8  37   8  38   8  39   8  40   9  41  14  42  13  43  13  44  13
M  ISO  5  45  13  46  13  47  13  48  13  49  13
M  END
>  <minimizedAffinity>  (1) 
-5.76872683

>  <minimizedRMSD>  (1) 
1.64254296

$$$$
