
     RDKit          3D

 43 46  0  0  0  0  0  0  0  0999 V2000
   47.9990   33.1440   42.3480 C   0  0  0  0  0  0  0  0  0  0  0  0
   47.2940   34.4420   42.0530 C   0  0  0  0  0  0  0  0  0  0  0  0
   44.6570   36.0390   44.2640 C   0  0  0  0  0  0  0  0  0  0  0  0
   45.5000   35.8470   43.1420 C   0  0  0  0  0  0  0  0  0  0  0  0
   46.3790   34.7460   43.1450 C   0  0  0  0  0  0  0  0  0  0  0  0
   46.3620   33.9420   44.2190 N   0  0  0  0  0  0  0  0  0  0  0  0
   45.5350   34.1650   45.2750 C   0  0  0  0  0  0  0  0  0  0  0  0
   44.6980   35.1980   45.2930 N   0  0  0  0  0  0  0  0  0  0  0  0
   46.4400   34.1840   40.7990 C   0  0  0  0  0  0  0  0  0  0  0  0
   48.3050   35.4760   41.7390 C   0  0  0  0  0  0  0  0  0  0  0  0
   48.0170   32.3010   41.2400 O   0  0  0  0  0  0  0  0  0  0  0  0
   49.2290   31.9740   40.6650 C   0  0  0  0  0  0  0  0  0  0  0  0
   50.4120   32.3160   41.2420 N   0  0  0  0  0  0  0  0  0  0  0  0
   51.3730   31.8860   40.4950 O   0  0  0  0  0  0  0  0  0  0  0  0
   50.9360   31.2760   39.4520 C   0  0  0  0  0  0  0  0  0  0  0  0
   49.6190   31.3240   39.5450 N   0  0  0  0  0  0  0  0  0  0  0  0
   51.6540   30.6800   38.4230 O   0  0  0  0  0  0  0  0  0  0  0  0
   51.6920   30.3950   34.9970 N   0  0  0  0  0  0  0  0  0  0  0  0
   52.1330   30.2170   36.2590 N   0  0  0  0  0  0  0  0  0  0  0  0
   51.2590   30.8230   37.1170 C   0  0  0  0  0  0  0  0  0  0  0  0
   50.2760   31.3720   36.3440 C   0  0  0  0  0  0  0  0  0  0  0  0
   50.5560   31.1010   35.0290 C   0  0  0  0  0  0  0  0  0  0  0  0
   49.7160   31.5380   33.9200 C   0  0  0  0  0  0  0  0  0  0  0  0
   48.9120   30.7640   33.0950 C   0  0  0  0  0  0  0  0  0  0  0  0
   48.3260   31.6010   32.2160 N   0  0  0  0  0  0  0  0  0  0  0  0
   48.7460   32.8610   32.4740 C   0  0  0  0  0  0  0  0  0  0  0  0
   49.5940   32.8160   33.5150 N   0  0  0  0  0  0  0  0  0  0  0  0
   49.0351   33.3616   42.6465 H   0  0  0  0  0  0  0  0  0  0  0  0
   47.4530   32.6347   43.1558 H   0  0  0  0  0  0  0  0  0  0  0  0
   43.9622   36.8915   44.2842 H   0  0  0  0  0  0  0  0  0  0  0  0
   45.4691   36.5408   42.2889 H   0  0  0  0  0  0  0  0  0  0  0  0
   45.5589   33.4764   46.1324 H   0  0  0  0  0  0  0  0  0  0  0  0
   45.4276   33.8781   41.1014 H   0  0  0  0  0  0  0  0  0  0  0  0
   46.3813   35.1045   40.1996 H   0  0  0  0  0  0  0  0  0  0  0  0
   46.9007   33.3850   40.1996 H   0  0  0  0  0  0  0  0  0  0  0  0
   48.7093   35.8895   42.6747 H   0  0  0  0  0  0  0  0  0  0  0  0
   49.1208   35.0256   41.1545 H   0  0  0  0  0  0  0  0  0  0  0  0
   47.8364   36.2814   41.1545 H   0  0  0  0  0  0  0  0  0  0  0  0
   52.1548   30.0442   34.1463 H   0  0  0  0  0  0  0  0  0  0  0  0
   49.4069   31.9360   36.7135 H   0  0  0  0  0  0  0  0  0  0  0  0
   48.7783   29.6735   33.1484 H   0  0  0  0  0  0  0  0  0  0  0  0
   48.4451   33.7660   31.9260 H   0  0  0  0  0  0  0  0  0  0  0  0
   50.0722   33.6262   33.9343 H   0  0  0  0  0  0  0  0  0  0  0  0
  2  1  1  0
  2  5  1  0
  3  8  2  0
  4  5  2  0
  4  3  1  0
  5  6  1  0
  6  7  2  0
  7  8  1  0
  9  2  1  0
 10  2  1  0
 11  1  1  0
 12 11  1  0
 12 13  2  0
 14 13  1  0
 15 16  2  0
 15 14  1  0
 16 12  1  0
 17 15  1  0
 18 22  1  0
 18 19  1  0
 19 20  2  0
 20 17  1  0
 21 20  1  0
 22 21  2  0
 23 22  1  0
 24 23  2  0
 25 26  2  0
 25 24  1  0
 26 27  1  0
 27 23  1  0
  1 28  1  0
  1 29  1  0
  3 30  1  0
  4 31  1  0
  7 32  1  0
  9 33  1  0
  9 34  1  0
  9 35  1  0
 10 36  1  0
 10 37  1  0
 10 38  1  0
 18 39  1  0
 21 40  1  0
 24 41  1  0
 26 42  1  0
 27 43  1  0
M  ISO  8  28   8  29   8  30  14  31  14  32  14  33   8  34   8  35   8
M  ISO  8  36   8  37   8  38   8  39   9  40  14  41  14  42  14  43   9
M  END
>  <minimizedAffinity>  (1) 
-5.5421443

>  <minimizedRMSD>  (1) 
0.774706542

$$$$
