
     RDKit          3D

 39 41  0  0  0  0  0  0  0  0999 V2000
   48.0430   33.1550   42.3340 C   0  0  0  0  0  0  0  0  0  0  0  0
   47.3370   34.4490   42.0430 C   0  0  0  0  0  0  0  0  0  0  0  0
   44.6670   36.0260   44.2290 C   0  0  0  0  0  0  0  0  0  0  0  0
   45.5210   35.8430   43.1130 C   0  0  0  0  0  0  0  0  0  0  0  0
   46.4080   34.7530   43.1210 C   0  0  0  0  0  0  0  0  0  0  0  0
   46.3890   33.9480   44.1940 N   0  0  0  0  0  0  0  0  0  0  0  0
   45.5550   34.1520   45.2500 C   0  0  0  0  0  0  0  0  0  0  0  0
   44.7070   35.1840   45.2560 N   0  0  0  0  0  0  0  0  0  0  0  0
   46.4940   34.1890   40.7820 C   0  0  0  0  0  0  0  0  0  0  0  0
   48.3420   35.4870   41.7450 C   0  0  0  0  0  0  0  0  0  0  0  0
   48.2150   32.3760   41.1890 O   0  0  0  0  0  0  0  0  0  0  0  0
   49.4980   32.0740   40.7730 C   0  0  0  0  0  0  0  0  0  0  0  0
   50.6010   32.4690   41.4810 N   0  0  0  0  0  0  0  0  0  0  0  0
   51.6640   32.0540   40.8700 O   0  0  0  0  0  0  0  0  0  0  0  0
   51.3680   31.4070   39.8000 C   0  0  0  0  0  0  0  0  0  0  0  0
   50.0490   31.4150   39.7330 N   0  0  0  0  0  0  0  0  0  0  0  0
   52.2200   30.8110   38.8810 O   0  0  0  0  0  0  0  0  0  0  0  0
   52.4290   29.9950   35.5480 N   0  0  0  0  0  0  0  0  0  0  0  0
   52.8130   30.0360   36.8290 N   0  0  0  0  0  0  0  0  0  0  0  0
   51.8840   30.7300   37.5530 C   0  0  0  0  0  0  0  0  0  0  0  0
   50.9170   31.1120   36.6660 C   0  0  0  0  0  0  0  0  0  0  0  0
   51.2670   30.6490   35.4180 C   0  0  0  0  0  0  0  0  0  0  0  0
   50.4260   30.8970   34.2330 C   0  0  0  0  0  0  0  0  0  0  0  0
   49.5150   30.1060   33.8480 O   0  0  0  0  0  0  0  0  0  0  0  0
   50.6000   32.0410   33.4650 O   0  0  0  0  0  0  0  0  0  0  0  0
   49.0317   33.3797   42.7607 H   0  0  0  0  0  0  0  0  0  0  0  0
   47.4213   32.5838   43.0392 H   0  0  0  0  0  0  0  0  0  0  0  0
   43.9648   36.8726   44.2451 H   0  0  0  0  0  0  0  0  0  0  0  0
   45.4903   36.5377   42.2607 H   0  0  0  0  0  0  0  0  0  0  0  0
   45.5795   33.4612   46.1057 H   0  0  0  0  0  0  0  0  0  0  0  0
   45.4811   33.8766   41.0761 H   0  0  0  0  0  0  0  0  0  0  0  0
   46.4345   35.1105   40.1843 H   0  0  0  0  0  0  0  0  0  0  0  0
   46.9639   33.3940   40.1843 H   0  0  0  0  0  0  0  0  0  0  0  0
   48.7375   35.8955   42.6866 H   0  0  0  0  0  0  0  0  0  0  0  0
   49.1642   35.0450   41.1631 H   0  0  0  0  0  0  0  0  0  0  0  0
   47.8737   36.2945   41.1631 H   0  0  0  0  0  0  0  0  0  0  0  0
   52.9442   29.5344   34.7842 H   0  0  0  0  0  0  0  0  0  0  0  0
   50.0134   31.6906   36.9081 H   0  0  0  0  0  0  0  0  0  0  0  0
   50.0288   32.1961   32.6714 H   0  0  0  0  0  0  0  0  0  0  0  0
  2  1  1  0
  2  5  1  0
  3  8  2  0
  4  5  2  0
  4  3  1  0
  5  6  1  0
  6  7  2  0
  7  8  1  0
  9  2  1  0
 10  2  1  0
 11  1  1  0
 12 11  1  0
 12 13  2  0
 14 13  1  0
 15 14  1  0
 16 15  2  0
 16 12  1  0
 17 15  1  0
 18 19  1  0
 19 20  2  0
 20 17  1  0
 21 20  1  0
 22 18  1  0
 22 21  2  0
 23 22  1  0
 24 23  2  0
 25 23  1  0
  1 26  1  0
  1 27  1  0
  3 28  1  0
  4 29  1  0
  7 30  1  0
  9 31  1  0
  9 32  1  0
  9 33  1  0
 10 34  1  0
 10 35  1  0
 10 36  1  0
 18 37  1  0
 21 38  1  0
 25 39  1  0
M  ISO  8  26   8  27   8  28  14  29  14  30  14  31   8  32   8  33   8
M  ISO  6  34   8  35   8  36   8  37   9  38  14  39   3
M  END
>  <minimizedAffinity>  (1) 
-5.0756259

>  <minimizedRMSD>  (1) 
0.335593075

$$$$
