
     RDKit          3D

 37 39  0  0  0  0  0  0  0  0999 V2000
   48.0350   33.1440   42.3280 C   0  0  0  0  0  0  0  0  0  0  0  0
   47.3340   34.4420   42.0360 C   0  0  0  0  0  0  0  0  0  0  0  0
   44.6690   36.0210   44.2270 C   0  0  0  0  0  0  0  0  0  0  0  0
   45.5200   35.8380   43.1110 C   0  0  0  0  0  0  0  0  0  0  0  0
   46.4090   34.7420   43.1200 C   0  0  0  0  0  0  0  0  0  0  0  0
   46.3910   33.9400   44.1940 N   0  0  0  0  0  0  0  0  0  0  0  0
   45.5560   34.1550   45.2440 C   0  0  0  0  0  0  0  0  0  0  0  0
   44.7100   35.1820   45.2560 N   0  0  0  0  0  0  0  0  0  0  0  0
   46.4960   34.1940   40.7700 C   0  0  0  0  0  0  0  0  0  0  0  0
   48.3480   35.4830   41.7380 C   0  0  0  0  0  0  0  0  0  0  0  0
   48.2370   32.3900   41.1760 O   0  0  0  0  0  0  0  0  0  0  0  0
   49.5270   32.0840   40.7880 C   0  0  0  0  0  0  0  0  0  0  0  0
   50.6200   32.5020   41.5100 N   0  0  0  0  0  0  0  0  0  0  0  0
   51.6800   32.0770   40.9210 O   0  0  0  0  0  0  0  0  0  0  0  0
   51.4120   31.4050   39.8580 C   0  0  0  0  0  0  0  0  0  0  0  0
   50.0940   31.4030   39.7690 N   0  0  0  0  0  0  0  0  0  0  0  0
   52.2850   30.7930   38.9700 O   0  0  0  0  0  0  0  0  0  0  0  0
   52.5770   29.9530   35.6530 N   0  0  0  0  0  0  0  0  0  0  0  0
   52.9300   30.0050   36.9420 N   0  0  0  0  0  0  0  0  0  0  0  0
   51.9790   30.7010   37.6340 C   0  0  0  0  0  0  0  0  0  0  0  0
   51.0320   31.0700   36.7190 C   0  0  0  0  0  0  0  0  0  0  0  0
   51.4080   30.6030   35.4860 C   0  0  0  0  0  0  0  0  0  0  0  0
   50.5960   30.8560   34.3890 O   0  0  0  0  0  0  0  0  0  0  0  0
   49.0114   33.3627   42.7851 H   0  0  0  0  0  0  0  0  0  0  0  0
   47.3987   32.5599   43.0091 H   0  0  0  0  0  0  0  0  0  0  0  0
   43.9662   36.8670   44.2424 H   0  0  0  0  0  0  0  0  0  0  0  0
   45.4893   36.5323   42.2584 H   0  0  0  0  0  0  0  0  0  0  0  0
   45.5798   33.4663   46.1014 H   0  0  0  0  0  0  0  0  0  0  0  0
   45.4779   33.8927   41.0574 H   0  0  0  0  0  0  0  0  0  0  0  0
   46.4506   35.1172   40.1737 H   0  0  0  0  0  0  0  0  0  0  0  0
   46.9603   33.3948   40.1737 H   0  0  0  0  0  0  0  0  0  0  0  0
   48.7440   35.8895   42.6803 H   0  0  0  0  0  0  0  0  0  0  0  0
   49.1693   35.0390   41.1564 H   0  0  0  0  0  0  0  0  0  0  0  0
   47.8826   36.2924   41.1564 H   0  0  0  0  0  0  0  0  0  0  0  0
   53.1136   29.4895   34.9060 H   0  0  0  0  0  0  0  0  0  0  0  0
   50.1202   31.6458   36.9362 H   0  0  0  0  0  0  0  0  0  0  0  0
   49.7572   31.3695   34.5020 H   0  0  0  0  0  0  0  0  0  0  0  0
  2  1  1  0
  2  5  1  0
  3  8  2  0
  4  5  2  0
  4  3  1  0
  5  6  1  0
  6  7  2  0
  7  8  1  0
  9  2  1  0
 10  2  1  0
 11  1  1  0
 12 11  1  0
 12 13  2  0
 14 13  1  0
 15 14  1  0
 16 15  2  0
 16 12  1  0
 17 15  1  0
 18 19  1  0
 19 20  2  0
 20 17  1  0
 21 20  1  0
 22 18  1  0
 22 21  2  0
 23 22  1  0
  1 24  1  0
  1 25  1  0
  3 26  1  0
  4 27  1  0
  7 28  1  0
  9 29  1  0
  9 30  1  0
  9 31  1  0
 10 32  1  0
 10 33  1  0
 10 34  1  0
 18 35  1  0
 21 36  1  0
 23 37  1  0
M  ISO  8  24   8  25   8  26  14  27  14  28  14  29   8  30   8  31   8
M  ISO  6  32   8  33   8  34   8  35   9  36  14  37   3
M  END
>  <minimizedAffinity>  (1) 
-4.81314802

>  <minimizedRMSD>  (1) 
0.103375152

$$$$
