
     RDKit          3D

 19 19  0  0  0  0  0  0  0  0999 V2000
   46.1770   34.8560   43.2000 C   0  0  0  0  0  0  0  0  0  0  0  0
   45.2600   35.9070   43.3040 C   0  0  0  0  0  0  0  0  0  0  0  0
   44.5080   36.0300   44.4820 C   0  0  0  0  0  0  0  0  0  0  0  0
   44.7090   35.1220   45.4630 N   0  0  0  0  0  0  0  0  0  0  0  0
   45.6120   34.1110   45.3280 C   0  0  0  0  0  0  0  0  0  0  0  0
   46.3400   33.9760   44.2090 N   0  0  0  0  0  0  0  0  0  0  0  0
   46.9630   34.7410   41.9460 C   0  0  0  0  0  0  0  0  0  0  0  0
   45.8130   33.1130   46.4420 C   0  0  0  0  0  0  0  0  0  0  0  0
   46.9670   32.2050   46.1680 C   0  0  0  0  0  0  0  0  0  0  0  0
   45.1310   36.6228   42.4787 H   0  0  0  0  0  0  0  0  0  0  0  0
   43.7759   36.8419   44.6038 H   0  0  0  0  0  0  0  0  0  0  0  0
   48.0240   34.5858   42.1912 H   0  0  0  0  0  0  0  0  0  0  0  0
   46.5937   33.8873   41.3588 H   0  0  0  0  0  0  0  0  0  0  0  0
   46.8537   35.6647   41.3588 H   0  0  0  0  0  0  0  0  0  0  0  0
   46.0024   33.6576   47.3788 H   0  0  0  0  0  0  0  0  0  0  0  0
   44.9040   32.4986   46.5204 H   0  0  0  0  0  0  0  0  0  0  0  0
   47.3998   31.8645   47.1202 H   0  0  0  0  0  0  0  0  0  0  0  0
   46.6201   31.3351   45.5910 H   0  0  0  0  0  0  0  0  0  0  0  0
   47.7309   32.7468   45.5910 H   0  0  0  0  0  0  0  0  0  0  0  0
  1  2  2  0
  1  6  1  0
  2  3  1  0
  3  4  2  0
  5  4  1  0
  5  8  1  0
  6  5  2  0
  7  1  1  0
  9  8  1  0
  2 10  1  0
  3 11  1  0
  7 12  1  0
  7 13  1  0
  7 14  1  0
  8 15  1  0
  8 16  1  0
  9 17  1  0
  9 18  1  0
  9 19  1  0
M  ISO  8  10  14  11  14  12   8  13   8  14   8  15   8  16   8  17   8
M  ISO  2  18   8  19   8
M  END
>  <minimizedAffinity>  (1) 
-3.51825356

>  <minimizedRMSD>  (1) 
3.20429969

$$$$
