
     RDKit          3D

 33 36  0  0  1  0  0  0  0  0999 V2000
   44.6190   34.6500   42.4130 C   0  0  1  0  0  0  0  0  0  0  0  0
   44.1570   36.0910   42.6660 C   0  0  0  0  0  0  0  0  0  0  0  0
   43.7170   35.3360   41.4590 C   0  0  2  0  0  0  0  0  0  0  0  0
   42.3230   34.9320   41.3510 N   0  0  0  0  0  0  0  0  0  0  0  0
   41.3020   35.7980   41.2050 C   0  0  0  0  0  0  0  0  0  0  0  0
   40.1390   35.1630   41.1320 N   0  0  0  0  0  0  0  0  0  0  0  0
   40.4150   33.8610   41.2320 C   0  0  0  0  0  0  0  0  0  0  0  0
   39.6740   32.7110   41.2290 C   0  0  0  0  0  0  0  0  0  0  0  0
   40.2490   31.5050   41.3520 N   0  0  0  0  0  0  0  0  0  0  0  0
   41.5720   31.3860   41.4830 C   0  0  0  0  0  0  0  0  0  0  0  0
   42.3240   32.5030   41.4900 N   0  0  0  0  0  0  0  0  0  0  0  0
   41.7700   33.7050   41.3690 C   0  0  0  0  0  0  0  0  0  0  0  0
   38.2770   32.7440   41.0950 N   0  0  0  0  0  0  0  0  0  0  0  0
   47.7110   34.2740   40.4620 C   0  0  0  0  0  0  0  0  0  0  0  0
   48.7130   34.2060   41.4480 C   0  0  0  0  0  0  0  0  0  0  0  0
   48.3040   34.3030   42.7960 C   0  0  0  0  0  0  0  0  0  0  0  0
   46.9890   34.4520   43.0630 N   0  0  0  0  0  0  0  0  0  0  0  0
   46.0600   34.5120   42.0820 C   0  0  0  0  0  0  0  0  0  0  0  0
   46.4080   34.4240   40.7630 N   0  0  0  0  0  0  0  0  0  0  0  0
   48.1610   34.1540   39.0590 C   0  0  0  0  0  0  0  0  0  0  0  0
   44.5743   33.6813   42.9323 H   0  0  0  0  0  0  0  0  0  0  0  0
   43.4425   36.3098   43.4732 H   0  0  0  0  0  0  0  0  0  0  0  0
   44.6543   37.0544   42.8522 H   0  0  0  0  0  0  0  0  0  0  0  0
   43.7591   35.5198   40.3753 H   0  0  0  0  0  0  0  0  0  0  0  0
   41.4172   36.8907   41.1530 H   0  0  0  0  0  0  0  0  0  0  0  0
   42.0388   30.3950   41.5833 H   0  0  0  0  0  0  0  0  0  0  0  0
   37.7387   31.8658   41.0953 H   0  0  0  0  0  0  0  0  0  0  0  0
   37.7903   33.6464   40.9964 H   0  0  0  0  0  0  0  0  0  0  0  0
   49.7725   34.0822   41.1792 H   0  0  0  0  0  0  0  0  0  0  0  0
   49.0411   34.2581   43.6113 H   0  0  0  0  0  0  0  0  0  0  0  0
   49.2237   33.8706   39.0377 H   0  0  0  0  0  0  0  0  0  0  0  0
   47.5657   33.3832   38.5476 H   0  0  0  0  0  0  0  0  0  0  0  0
   48.0285   35.1189   38.5476 H   0  0  0  0  0  0  0  0  0  0  0  0
  1  2  1  0
  3  1  1  0
  3  2  1  0
  4 12  1  0
  4  3  1  0
  5  4  1  0
  6  5  2  0
  6  7  1  0
  7 12  2  0
  8  7  1  0
  8  9  2  0
  9 10  1  0
 10 11  2  0
 12 11  1  0
 13  8  1  0
 14 19  2  0
 14 15  1  0
 15 16  2  0
 16 17  1  0
 18  1  1  0
 18 17  2  0
 19 18  1  0
 20 14  1  0
  1 21  1  1
  2 22  1  0
  2 23  1  0
  3 24  1  6
  5 25  1  0
 10 26  1  0
 13 27  1  0
 13 28  1  0
 15 29  1  0
 16 30  1  0
 20 31  1  0
 20 32  1  0
 20 33  1  0
M  ISO  8  21  13  22  13  23  13  24  13  25  14  26  14  29  14  30  14
M  ISO  3  31   8  32   8  33   8
M  END
>  <minimizedAffinity>  (1) 
-5.77921581

>  <minimizedRMSD>  (1) 
4.27412462

$$$$
