
     RDKit          3D

 30 32  0  0  1  0  0  0  0  0999 V2000
   41.9600   34.8160   41.4320 C   0  0  1  0  0  0  0  0  0  0  0  0
   41.2140   36.1560   41.4360 C   0  0  0  0  0  0  0  0  0  0  0  0
   41.4420   35.4120   40.1710 C   0  0  2  0  0  0  0  0  0  0  0  0
   45.5930   34.3970   41.0820 C   0  0  0  0  0  0  0  0  0  0  0  0
   46.1080   34.9910   42.2280 C   0  0  0  0  0  0  0  0  0  0  0  0
   45.1820   35.5630   43.1460 C   0  0  0  0  0  0  0  0  0  0  0  0
   43.8540   35.4890   42.8390 N   0  0  0  0  0  0  0  0  0  0  0  0
   43.4140   34.9050   41.7180 C   0  0  0  0  0  0  0  0  0  0  0  0
   44.2880   34.3490   40.8240 N   0  0  0  0  0  0  0  0  0  0  0  0
   46.5770   33.7850   40.1310 C   0  0  0  0  0  0  0  0  0  0  0  0
   40.3380   34.7620   39.4320 C   0  0  0  0  0  0  0  0  0  0  0  0
   39.3480   34.1130   40.1760 C   0  0  0  0  0  0  0  0  0  0  0  0
   38.2710   33.4720   39.5950 C   0  0  0  0  0  0  0  0  0  0  0  0
   38.1700   33.4740   38.2280 C   0  0  0  0  0  0  0  0  0  0  0  0
   39.1590   34.1220   37.4860 C   0  0  0  0  0  0  0  0  0  0  0  0
   40.2320   34.7600   38.0620 C   0  0  0  0  0  0  0  0  0  0  0  0
   41.8532   33.8324   41.9128 H   0  0  0  0  0  0  0  0  0  0  0  0
   40.2023   36.2241   41.8625 H   0  0  0  0  0  0  0  0  0  0  0  0
   41.4306   37.1722   41.7972 H   0  0  0  0  0  0  0  0  0  0  0  0
   41.8872   35.6856   39.2031 H   0  0  0  0  0  0  0  0  0  0  0  0
   47.1910   35.0183   42.4188 H   0  0  0  0  0  0  0  0  0  0  0  0
   45.5253   36.0483   44.0716 H   0  0  0  0  0  0  0  0  0  0  0  0
   47.3764   33.2878   40.7001 H   0  0  0  0  0  0  0  0  0  0  0  0
   46.0640   33.0464   39.4975 H   0  0  0  0  0  0  0  0  0  0  0  0
   47.0127   34.5717   39.4975 H   0  0  0  0  0  0  0  0  0  0  0  0
   39.4304   34.1128   41.2729 H   0  0  0  0  0  0  0  0  0  0  0  0
   37.5123   32.9718   40.2148 H   0  0  0  0  0  0  0  0  0  0  0  0
   37.3275   32.9755   37.7263 H   0  0  0  0  0  0  0  0  0  0  0  0
   39.0760   34.1222   36.3891 H   0  0  0  0  0  0  0  0  0  0  0  0
   40.9896   35.2583   37.4393 H   0  0  0  0  0  0  0  0  0  0  0  0
  1  2  1  0
  1  8  1  0
  3  1  1  0
  3  2  1  0
  4  5  2  0
  5  6  1  0
  7  6  2  0
  8  7  1  0
  9  4  1  0
  9  8  2  0
 10  4  1  0
 11  3  1  0
 11 12  2  0
 13 12  1  0
 14 13  2  0
 15 16  2  0
 15 14  1  0
 16 11  1  0
  1 17  1  1
  2 18  1  0
  2 19  1  0
  3 20  1  6
  5 21  1  0
  6 22  1  0
 10 23  1  0
 10 24  1  0
 10 25  1  0
 12 26  1  0
 13 27  1  0
 14 28  1  0
 15 29  1  0
 16 30  1  0
M  ISO  8  17  13  18  13  19  13  20  13  21  14  22  14  23   8  24   8
M  ISO  6  25   8  26  14  27  14  28  14  29  14  30  14
M  END
>  <minimizedAffinity>  (1) 
-5.59560776

>  <minimizedRMSD>  (1) 
2.44948959

$$$$
