
     RDKit          3D

 25 27  0  0  1  0  0  0  0  0999 V2000
   40.4510   35.5180   39.3500 C   0  0  1  0  0  0  0  0  0  0  0  0
   39.6530   34.6310   38.3960 C   0  0  0  0  0  0  0  0  0  0  0  0
   39.2050   34.8460   39.8010 C   0  0  1  0  0  0  0  0  0  0  0  0
   43.5230   35.0560   41.3040 C   0  0  0  0  0  0  0  0  0  0  0  0
   44.2400   34.1130   40.5400 C   0  0  0  0  0  0  0  0  0  0  0  0
   43.6680   33.6240   39.3510 C   0  0  0  0  0  0  0  0  0  0  0  0
   42.4440   34.0950   39.0080 N   0  0  0  0  0  0  0  0  0  0  0  0
   41.7810   34.9910   39.7530 C   0  0  0  0  0  0  0  0  0  0  0  0
   42.3240   35.4600   40.8880 N   0  0  0  0  0  0  0  0  0  0  0  0
   44.1680   35.5490   42.5380 C   0  0  0  0  0  0  0  0  0  0  0  0
   39.2040   33.5960   40.5980 C   0  0  0  0  0  0  0  0  0  0  0  0
   39.7950   33.2030   41.7390 N   0  0  0  0  0  0  0  0  0  0  0  0
   39.4910   32.0050   42.0510 O   0  0  0  0  0  0  0  0  0  0  0  0
   38.6860   31.5460   41.1350 C   0  0  0  0  0  0  0  0  0  0  0  0
   38.4820   32.5000   40.2130 N   0  0  0  0  0  0  0  0  0  0  0  0
   40.8011   36.5601   39.3874 H   0  0  0  0  0  0  0  0  0  0  0  0
   39.0928   35.0795   37.5623 H   0  0  0  0  0  0  0  0  0  0  0  0
   39.8755   33.7545   37.7697 H   0  0  0  0  0  0  0  0  0  0  0  0
   38.3376   35.2537   40.3409 H   0  0  0  0  0  0  0  0  0  0  0  0
   45.2306   33.7650   40.8680 H   0  0  0  0  0  0  0  0  0  0  0  0
   44.1935   32.8883   38.7244 H   0  0  0  0  0  0  0  0  0  0  0  0
   43.6398   35.1452   43.4143 H   0  0  0  0  0  0  0  0  0  0  0  0
   45.2177   35.2209   42.5593 H   0  0  0  0  0  0  0  0  0  0  0  0
   44.1269   36.6480   42.5593 H   0  0  0  0  0  0  0  0  0  0  0  0
   38.2445   30.5386   41.1197 H   0  0  0  0  0  0  0  0  0  0  0  0
  1  8  1  0
  1  3  1  0
  2  1  1  0
  2  3  1  0
  3 11  1  0
  4 10  1  0
  5  4  2  0
  6  5  1  0
  7  6  2  0
  7  8  1  0
  8  9  2  0
  9  4  1  0
 11 12  2  0
 12 13  1  0
 14 13  1  0
 15 11  1  0
 15 14  2  0
  1 16  1  6
  2 17  1  0
  2 18  1  0
  3 19  1  6
  5 20  1  0
  6 21  1  0
 10 22  1  0
 10 23  1  0
 10 24  1  0
 14 25  1  0
M  ISO  8  16  13  17  13  18  13  19  13  20  14  21  14  22   8  23   8
M  ISO  2  24   8  25  14
M  END
>  <minimizedAffinity>  (1) 
-4.73954678

>  <minimizedRMSD>  (1) 
5.24496889

$$$$
