
     RDKit          3D

 27 29  0  0  1  0  0  0  0  0999 V2000
   42.1240   34.6510   41.2860 C   0  0  1  0  0  0  0  0  0  0  0  0
   41.2450   35.9070   41.4090 C   0  0  0  0  0  0  0  0  0  0  0  0
   41.6390   35.3630   40.0800 C   0  0  2  0  0  0  0  0  0  0  0  0
   45.7970   34.5760   41.2960 C   0  0  0  0  0  0  0  0  0  0  0  0
   46.1260   35.1520   42.5330 C   0  0  0  0  0  0  0  0  0  0  0  0
   45.0620   35.5820   43.3770 C   0  0  0  0  0  0  0  0  0  0  0  0
   43.8010   35.4040   42.9240 N   0  0  0  0  0  0  0  0  0  0  0  0
   43.5300   34.8470   41.7310 C   0  0  0  0  0  0  0  0  0  0  0  0
   44.5310   34.4260   40.9010 N   0  0  0  0  0  0  0  0  0  0  0  0
   46.9340   34.1270   40.4560 C   0  0  0  0  0  0  0  0  0  0  0  0
   40.5540   34.8300   39.2900 N   0  0  0  0  0  0  0  0  0  0  0  0
   40.4280   34.8160   37.9640 N   0  0  0  0  0  0  0  0  0  0  0  0
   39.2520   34.2160   37.6710 C   0  0  0  0  0  0  0  0  0  0  0  0
   38.6180   33.8400   38.8460 C   0  0  0  0  0  0  0  0  0  0  0  0
   39.4650   34.2420   39.8520 C   0  0  0  0  0  0  0  0  0  0  0  0
   42.0899   33.5991   41.6060 H   0  0  0  0  0  0  0  0  0  0  0  0
   40.2044   35.8230   41.7554 H   0  0  0  0  0  0  0  0  0  0  0  0
   41.3299   36.8790   41.9169 H   0  0  0  0  0  0  0  0  0  0  0  0
   42.1678   35.7348   39.1900 H   0  0  0  0  0  0  0  0  0  0  0  0
   47.1754   35.2680   42.8418 H   0  0  0  0  0  0  0  0  0  0  0  0
   45.2586   36.0403   44.3575 H   0  0  0  0  0  0  0  0  0  0  0  0
   47.7614   33.8003   41.1031 H   0  0  0  0  0  0  0  0  0  0  0  0
   46.6120   33.2885   39.8210 H   0  0  0  0  0  0  0  0  0  0  0  0
   47.2718   34.9592   39.8210 H   0  0  0  0  0  0  0  0  0  0  0  0
   38.8588   34.0515   36.6570 H   0  0  0  0  0  0  0  0  0  0  0  0
   37.6485   33.3309   38.9504 H   0  0  0  0  0  0  0  0  0  0  0  0
   39.2906   34.1099   40.9300 H   0  0  0  0  0  0  0  0  0  0  0  0
  1  2  1  0
  1  8  1  0
  3  1  1  0
  3  2  1  0
  4  5  2  0
  5  6  1  0
  7  6  2  0
  8  7  1  0
  9  4  1  0
  9  8  2  0
 10  4  1  0
 11 15  1  0
 11  3  1  0
 12 11  1  0
 13 12  2  0
 13 14  1  0
 14 15  2  0
  1 16  1  6
  2 17  1  0
  2 18  1  0
  3 19  1  6
  5 20  1  0
  6 21  1  0
 10 22  1  0
 10 23  1  0
 10 24  1  0
 13 25  1  0
 14 26  1  0
 15 27  1  0
M  ISO  8  16  13  17  13  18  13  19  13  20  14  21  14  22   8  23   8
M  ISO  4  24   8  25  14  26  14  27  14
M  END
>  <minimizedAffinity>  (1) 
-4.69310951

>  <minimizedRMSD>  (1) 
2.11480832

$$$$
