
     RDKit          3D

 32 33  0  0  1  0  0  0  0  0999 V2000
   46.3550   34.5220   41.8130 C   0  0  0  0  0  0  0  0  0  0  0  0
   46.1340   35.0020   43.1150 C   0  0  0  0  0  0  0  0  0  0  0  0
   44.8370   35.4660   43.4510 C   0  0  0  0  0  0  0  0  0  0  0  0
   43.8830   35.4200   42.4900 N   0  0  0  0  0  0  0  0  0  0  0  0
   44.1270   34.9550   41.2520 C   0  0  0  0  0  0  0  0  0  0  0  0
   45.3640   34.5000   40.8930 N   0  0  0  0  0  0  0  0  0  0  0  0
   43.0440   34.8950   40.2340 C   0  0  1  0  0  0  0  0  0  0  0  0
   42.4590   33.4940   40.0130 C   0  0  0  0  0  0  0  0  0  0  0  0
   41.6660   34.5640   40.6740 C   0  0  2  0  0  0  0  0  0  0  0  0
   40.4530   35.0660   39.9840 C   0  0  0  0  0  0  0  0  0  0  0  0
   40.1170   36.4380   40.5610 C   0  0  0  0  0  0  0  0  0  0  0  0
   39.2290   34.2170   40.1070 C   0  0  0  0  0  0  0  0  0  0  0  0
   40.7790   35.3150   38.5090 C   0  0  0  0  0  0  0  0  0  0  0  0
   47.7090   34.0280   41.4850 C   0  0  0  0  0  0  0  0  0  0  0  0
   46.9473   35.0174   43.8555 H   0  0  0  0  0  0  0  0  0  0  0  0
   44.6130   35.8501   44.4571 H   0  0  0  0  0  0  0  0  0  0  0  0
   43.4717   35.7005   39.6189 H   0  0  0  0  0  0  0  0  0  0  0  0
   42.1970   33.1575   38.9990 H   0  0  0  0  0  0  0  0  0  0  0  0
   42.7607   32.4680   40.2706 H   0  0  0  0  0  0  0  0  0  0  0  0
   41.1514   34.6903   41.6379 H   0  0  0  0  0  0  0  0  0  0  0  0
   40.1295   36.3868   41.6597 H   0  0  0  0  0  0  0  0  0  0  0  0
   40.8620   37.1718   40.2196 H   0  0  0  0  0  0  0  0  0  0  0  0
   39.1172   36.7445   40.2196 H   0  0  0  0  0  0  0  0  0  0  0  0
   38.9989   34.0574   41.1707 H   0  0  0  0  0  0  0  0  0  0  0  0
   38.3818   34.7224   39.6204 H   0  0  0  0  0  0  0  0  0  0  0  0
   39.4056   33.2464   39.6204 H   0  0  0  0  0  0  0  0  0  0  0  0
   41.6511   35.9811   38.4336 H   0  0  0  0  0  0  0  0  0  0  0  0
   41.0052   34.3576   38.0168 H   0  0  0  0  0  0  0  0  0  0  0  0
   39.9149   35.7851   38.0168 H   0  0  0  0  0  0  0  0  0  0  0  0
   48.2611   33.8266   42.4149 H   0  0  0  0  0  0  0  0  0  0  0  0
   47.6289   33.1012   40.8980 H   0  0  0  0  0  0  0  0  0  0  0  0
   48.2446   34.7886   40.8980 H   0  0  0  0  0  0  0  0  0  0  0  0
  1  2  2  0
  2  3  1  0
  4  3  2  0
  5  4  1  0
  6  5  2  0
  6  1  1  0
  7  9  1  0
  7  5  1  0
  8  7  1  0
  8  9  1  0
 10 12  1  0
 10 11  1  0
 10  9  1  0
 13 10  1  0
 14  1  1  0
  2 15  1  0
  3 16  1  0
  7 17  1  6
  8 18  1  0
  8 19  1  0
  9 20  1  1
 11 21  1  0
 11 22  1  0
 11 23  1  0
 12 24  1  0
 12 25  1  0
 12 26  1  0
 13 27  1  0
 13 28  1  0
 13 29  1  0
 14 30  1  0
 14 31  1  0
 14 32  1  0
M  ISO  8  15  14  16  14  17  13  18  13  19  13  20  13  21   8  22   8
M  ISO  8  23   8  24   8  25   8  26   8  27   8  28   8  29   8  30   8
M  ISO  2  31   8  32   8
M  END
>  <minimizedAffinity>  (1) 
-4.72587776

>  <minimizedRMSD>  (1) 
2.32589555

$$$$
