
     RDKit          3D

 27 29  0  0  1  0  0  0  0  0999 V2000
   40.7580   35.7260   39.5900 C   0  0  1  0  0  0  0  0  0  0  0  0
   39.9870   34.8930   38.5610 C   0  0  0  0  0  0  0  0  0  0  0  0
   39.4970   35.0360   39.9620 C   0  0  1  0  0  0  0  0  0  0  0  0
   43.8140   35.1270   41.5420 C   0  0  0  0  0  0  0  0  0  0  0  0
   44.5000   34.1540   40.7990 C   0  0  0  0  0  0  0  0  0  0  0  0
   43.8750   33.6990   39.5990 C   0  0  0  0  0  0  0  0  0  0  0  0
   42.6760   34.2210   39.2470 N   0  0  0  0  0  0  0  0  0  0  0  0
   42.0600   35.1550   39.9960 C   0  0  0  0  0  0  0  0  0  0  0  0
   42.6210   35.6050   41.1330 N   0  0  0  0  0  0  0  0  0  0  0  0
   44.4510   35.6110   42.7860 C   0  0  0  0  0  0  0  0  0  0  0  0
   39.4730   33.7580   40.7140 C   0  0  0  0  0  0  0  0  0  0  0  0
   38.5260   32.7960   40.3420 C   0  0  0  0  0  0  0  0  0  0  0  0
   38.6680   31.6740   41.1640 C   0  0  0  0  0  0  0  0  0  0  0  0
   39.6980   32.0140   41.9960 C   0  0  0  0  0  0  0  0  0  0  0  0
   40.1130   33.1930   41.7010 O   0  0  0  0  0  0  0  0  0  0  0  0
   41.1089   36.7628   39.6989 H   0  0  0  0  0  0  0  0  0  0  0  0
   39.4546   35.3880   37.7354 H   0  0  0  0  0  0  0  0  0  0  0  0
   40.2262   34.0505   37.8955 H   0  0  0  0  0  0  0  0  0  0  0  0
   38.6065   35.4139   40.4856 H   0  0  0  0  0  0  0  0  0  0  0  0
   45.4737   33.7604   41.1260 H   0  0  0  0  0  0  0  0  0  0  0  0
   44.3592   32.9370   38.9706 H   0  0  0  0  0  0  0  0  0  0  0  0
   43.9144   35.2033   43.6554 H   0  0  0  0  0  0  0  0  0  0  0  0
   45.4996   35.2797   42.8139 H   0  0  0  0  0  0  0  0  0  0  0  0
   44.4128   36.7100   42.8139 H   0  0  0  0  0  0  0  0  0  0  0  0
   37.7888   32.9054   39.5330 H   0  0  0  0  0  0  0  0  0  0  0  0
   38.0884   30.7393   41.1456 H   0  0  0  0  0  0  0  0  0  0  0  0
   40.1075   31.3770   42.7938 H   0  0  0  0  0  0  0  0  0  0  0  0
  1  3  1  0
  1  8  1  0
  2  1  1  0
  2  3  1  0
  3 11  1  0
  4 10  1  0
  5  4  2  0
  6  5  1  0
  7  6  2  0
  7  8  1  0
  8  9  2  0
  9  4  1  0
 11 15  1  0
 12 11  2  0
 12 13  1  0
 13 14  2  0
 15 14  1  0
  1 16  1  6
  2 17  1  0
  2 18  1  0
  3 19  1  6
  5 20  1  0
  6 21  1  0
 10 22  1  0
 10 23  1  0
 10 24  1  0
 12 25  1  0
 13 26  1  0
 14 27  1  0
M  ISO  8  16  13  17  13  18  13  19  13  20  14  21  14  22   8  23   8
M  ISO  4  24   8  25  14  26  14  27  14
M  END
>  <minimizedAffinity>  (1) 
-4.85109806

>  <minimizedRMSD>  (1) 
4.99369001

$$$$
