
     RDKit          3D

 29 30  0  0  1  0  0  0  0  0999 V2000
   44.1420   33.9350   40.1760 C   0  0  0  0  0  0  0  0  0  0  0  0
   44.9290   34.5240   41.1820 C   0  0  0  0  0  0  0  0  0  0  0  0
   44.2620   35.3040   42.1690 C   0  0  0  0  0  0  0  0  0  0  0  0
   42.9180   35.4270   42.0720 N   0  0  0  0  0  0  0  0  0  0  0  0
   42.2100   34.8430   41.0890 C   0  0  0  0  0  0  0  0  0  0  0  0
   42.8180   34.0870   40.1240 N   0  0  0  0  0  0  0  0  0  0  0  0
   40.7290   34.9820   41.0390 C   0  0  1  0  0  0  0  0  0  0  0  0
   40.2240   36.3630   40.6000 C   0  0  0  0  0  0  0  0  0  0  0  0
   40.0700   35.1820   39.7220 C   0  0  2  0  0  0  0  0  0  0  0  0
   38.7570   34.4490   39.5640 C   0  0  0  0  0  0  0  0  0  0  0  0
   38.6690   33.8370   38.1870 C   0  0  0  0  0  0  0  0  0  0  0  0
   38.8480   33.3050   40.5790 C   0  0  0  0  0  0  0  0  0  0  0  0
   44.8640   33.1130   39.1700 C   0  0  0  0  0  0  0  0  0  0  0  0
   46.0202   34.3870   41.2054 H   0  0  0  0  0  0  0  0  0  0  0  0
   44.8203   35.7900   42.9827 H   0  0  0  0  0  0  0  0  0  0  0  0
   40.5651   34.2890   41.8774 H   0  0  0  0  0  0  0  0  0  0  0  0
   39.3435   36.8094   41.0853 H   0  0  0  0  0  0  0  0  0  0  0  0
   40.6695   37.3634   40.4964 H   0  0  0  0  0  0  0  0  0  0  0  0
   40.3180   35.0438   38.6593 H   0  0  0  0  0  0  0  0  0  0  0  0
   37.8920   35.1130   39.7085 H   0  0  0  0  0  0  0  0  0  0  0  0
   38.5130   32.7519   38.2773 H   0  0  0  0  0  0  0  0  0  0  0  0
   37.8259   34.2844   37.6401 H   0  0  0  0  0  0  0  0  0  0  0  0
   39.6040   34.0287   37.6401 H   0  0  0  0  0  0  0  0  0  0  0  0
   38.8153   33.7161   41.5988 H   0  0  0  0  0  0  0  0  0  0  0  0
   38.0017   32.6175   40.4335 H   0  0  0  0  0  0  0  0  0  0  0  0
   39.7923   32.7600   40.4335 H   0  0  0  0  0  0  0  0  0  0  0  0
   45.5054   32.3828   39.6852 H   0  0  0  0  0  0  0  0  0  0  0  0
   44.1357   32.5812   38.5401 H   0  0  0  0  0  0  0  0  0  0  0  0
   45.4853   33.7666   38.5401 H   0  0  0  0  0  0  0  0  0  0  0  0
  1  2  2  0
  2  3  1  0
  4  3  2  0
  5  4  1  0
  6  1  1  0
  6  5  2  0
  7  5  1  0
  8  7  1  0
  9  8  1  0
  9  7  1  0
 10  9  1  0
 10 12  1  0
 11 10  1  0
 13  1  1  0
  2 14  1  0
  3 15  1  0
  7 16  1  1
  8 17  1  0
  8 18  1  0
  9 19  1  6
 10 20  1  0
 11 21  1  0
 11 22  1  0
 11 23  1  0
 12 24  1  0
 12 25  1  0
 12 26  1  0
 13 27  1  0
 13 28  1  0
 13 29  1  0
M  ISO  8  14  14  15  14  16  13  17  13  18  13  19  13  20   8  21   8
M  ISO  8  22   8  23   8  24   8  25   8  26   8  27   8  28   8  29   8
M  END
>  <minimizedAffinity>  (1) 
-4.5608201

>  <minimizedRMSD>  (1) 
2.92330003

$$$$
