
     RDKit          3D

 27 28  0  0  1  0  0  0  0  0999 V2000
   41.6050   34.8120   41.3780 C   0  0  1  0  0  0  0  0  0  0  0  0
   40.9850   36.1930   41.1200 C   0  0  0  0  0  0  0  0  0  0  0  0
   41.0760   35.1810   40.0400 C   0  0  2  0  0  0  0  0  0  0  0  0
   45.1970   34.2080   40.8830 C   0  0  0  0  0  0  0  0  0  0  0  0
   45.7910   34.8190   41.9860 C   0  0  0  0  0  0  0  0  0  0  0  0
   44.9310   35.4630   42.9220 C   0  0  0  0  0  0  0  0  0  0  0  0
   43.5980   35.4390   42.6800 N   0  0  0  0  0  0  0  0  0  0  0  0
   43.0760   34.8360   41.5980 C   0  0  0  0  0  0  0  0  0  0  0  0
   43.8780   34.2100   40.6830 N   0  0  0  0  0  0  0  0  0  0  0  0
   46.1080   33.5190   39.9130 C   0  0  0  0  0  0  0  0  0  0  0  0
   39.9040   34.5340   39.4970 N   0  0  0  0  0  0  0  0  0  0  0  0
   39.7440   34.5030   38.0840 C   0  0  0  0  0  0  0  0  0  0  0  0
   40.4430   35.2460   37.2930 N   0  0  0  0  0  0  0  0  0  0  0  0
   38.7920   33.6370   37.4740 N   0  0  0  0  0  0  0  0  0  0  0  0
   40.3730   35.2700   36.2590 H   0  0  0  0  0  0  0  0  0  0  0  0
   41.4373   33.9595   42.0526 H   0  0  0  0  0  0  0  0  0  0  0  0
   40.0083   36.4507   41.5554 H   0  0  0  0  0  0  0  0  0  0  0  0
   41.3121   37.2355   41.2472 H   0  0  0  0  0  0  0  0  0  0  0  0
   41.4951   35.1922   39.0230 H   0  0  0  0  0  0  0  0  0  0  0  0
   46.8816   34.8046   42.1284 H   0  0  0  0  0  0  0  0  0  0  0  0
   45.3366   35.9640   43.8133 H   0  0  0  0  0  0  0  0  0  0  0  0
   46.8663   32.9455   40.4662 H   0  0  0  0  0  0  0  0  0  0  0  0
   45.5214   32.8365   39.2804 H   0  0  0  0  0  0  0  0  0  0  0  0
   46.6050   34.2692   39.2804 H   0  0  0  0  0  0  0  0  0  0  0  0
   39.2020   34.1060   40.1174 H   0  0  0  0  0  0  0  0  0  0  0  0
   38.6880   33.6261   36.4493 H   0  0  0  0  0  0  0  0  0  0  0  0
   38.2075   33.0216   38.0575 H   0  0  0  0  0  0  0  0  0  0  0  0
  1  8  1  0
  2  1  1  0
  3  2  1  0
  3  1  1  0
  4  5  2  0
  5  6  1  0
  7  6  2  0
  8  7  1  0
  9  4  1  0
  9  8  2  0
 10  4  1  0
 11  3  1  0
 12 11  1  0
 13 12  2  0
 14 12  1  0
 15 13  1  0
  1 16  1  1
  2 17  1  0
  2 18  1  0
  3 19  1  6
  5 20  1  0
  6 21  1  0
 10 22  1  0
 10 23  1  0
 10 24  1  0
 11 25  1  0
 14 26  1  0
 14 27  1  0
M  ISO  8  16  13  17  13  18  13  19  13  20  14  21  14  22   8  23   8
M  ISO  1  24   8
M  END
>  <minimizedAffinity>  (1) 
-4.13132572

>  <minimizedRMSD>  (1) 
1.79145479

$$$$
