
     RDKit          3D

 23 24  0  0  1  0  0  0  0  0999 V2000
   45.4450   34.2970   40.9810 C   0  0  0  0  0  0  0  0  0  0  0  0
   45.9150   35.0770   42.0470 C   0  0  0  0  0  0  0  0  0  0  0  0
   44.9400   35.6800   42.8600 C   0  0  0  0  0  0  0  0  0  0  0  0
   43.6360   35.4840   42.5850 N   0  0  0  0  0  0  0  0  0  0  0  0
   43.2320   34.7210   41.5410 C   0  0  0  0  0  0  0  0  0  0  0  0
   44.1420   34.1170   40.7270 N   0  0  0  0  0  0  0  0  0  0  0  0
   41.7890   34.5100   41.2680 C   0  0  1  0  0  0  0  0  0  0  0  0
   40.9920   35.8040   41.0540 C   0  0  0  0  0  0  0  0  0  0  0  0
   41.2550   34.8600   39.9280 C   0  0  1  0  0  0  0  0  0  0  0  0
   42.1820   35.4180   38.8670 C   0  0  0  0  0  0  0  0  0  0  0  0
   46.4790   33.6400   40.1220 C   0  0  0  0  0  0  0  0  0  0  0  0
   46.9903   35.2100   42.2370 H   0  0  0  0  0  0  0  0  0  0  0  0
   45.2391   36.3064   43.7133 H   0  0  0  0  0  0  0  0  0  0  0  0
   41.7202   33.6118   41.8992 H   0  0  0  0  0  0  0  0  0  0  0  0
   39.9774   35.9040   41.4671 H   0  0  0  0  0  0  0  0  0  0  0  0
   41.1673   36.8741   41.2390 H   0  0  0  0  0  0  0  0  0  0  0  0
   40.6560   34.2840   39.2073 H   0  0  0  0  0  0  0  0  0  0  0  0
   43.0284   35.9275   39.3508 H   0  0  0  0  0  0  0  0  0  0  0  0
   42.5584   34.5963   38.2400 H   0  0  0  0  0  0  0  0  0  0  0  0
   41.6321   36.1353   38.2400 H   0  0  0  0  0  0  0  0  0  0  0  0
   47.2349   33.1597   40.7606 H   0  0  0  0  0  0  0  0  0  0  0  0
   45.9995   32.8806   39.4869 H   0  0  0  0  0  0  0  0  0  0  0  0
   46.9628   34.3967   39.4869 H   0  0  0  0  0  0  0  0  0  0  0  0
  1  2  2  0
  2  3  1  0
  4  3  2  0
  5  4  1  0
  6  1  1  0
  6  5  2  0
  7  5  1  0
  8  7  1  0
  9  8  1  0
  9  7  1  0
 10  9  1  0
 11  1  1  0
  2 12  1  0
  3 13  1  0
  7 14  1  1
  8 15  1  0
  8 16  1  0
  9 17  1  6
 10 18  1  0
 10 19  1  0
 10 20  1  0
 11 21  1  0
 11 22  1  0
 11 23  1  0
M  ISO  8  12  14  13  14  14  13  15  13  16  13  17  13  18   8  19   8
M  ISO  4  20   8  21   8  22   8  23   8
M  END
>  <minimizedAffinity>  (1) 
-3.4347403

>  <minimizedRMSD>  (1) 
1.51661932

$$$$
