
     RDKit          3D

 50 54  0  0  1  0  0  0  0  0999 V2000
   41.9160   33.8170   39.9570 C   0  0  2  0  0  0  0  0  0  0  0  0
   41.5620   34.1550   38.5390 C   0  0  0  0  0  0  0  0  0  0  0  0
   40.1250   33.9520   38.1880 C   0  0  0  0  0  0  0  0  0  0  0  0
   39.2320   34.7120   39.1140 C   0  0  0  0  0  0  0  0  0  0  0  0
   40.0270   35.2820   40.2920 C   0  0  0  0  0  0  0  0  0  0  0  0
   40.7730   34.1160   40.8300 C   0  0  1  0  0  0  0  0  0  0  0  0
   39.8320   33.0240   41.0160 N   0  0  0  0  0  0  0  0  0  0  0  0
   38.5320   32.8490   40.6310 C   0  0  0  0  0  0  0  0  0  0  0  0
   38.1050   31.6430   41.0440 N   0  0  0  0  0  0  0  0  0  0  0  0
   39.1330   31.0330   41.7000 C   0  0  0  0  0  0  0  0  0  0  0  0
   39.0950   29.7800   42.2740 C   0  0  0  0  0  0  0  0  0  0  0  0
   38.0700   29.0590   42.2450 O   0  0  0  0  0  0  0  0  0  0  0  0
   40.2120   29.3630   42.8710 N   0  0  0  0  0  0  0  0  0  0  0  0
   41.2880   30.1710   42.8780 C   0  0  0  0  0  0  0  0  0  0  0  0
   42.4950   29.7190   43.5240 N   0  0  0  0  0  0  0  0  0  0  0  0
   41.2730   31.3860   42.3020 N   0  0  0  0  0  0  0  0  0  0  0  0
   40.2070   31.8970   41.6800 C   0  0  0  0  0  0  0  0  0  0  0  0
   44.0830   34.1660   41.4090 C   0  0  1  0  0  0  0  0  0  0  0  0
   43.2290   35.4600   41.5130 C   0  0  0  0  0  0  0  0  0  0  0  0
   43.1570   34.5840   40.3800 C   0  0  2  0  0  0  0  0  0  0  0  0
   47.4650   34.1940   39.9730 C   0  0  0  0  0  0  0  0  0  0  0  0
   48.2400   34.7930   40.9830 C   0  0  0  0  0  0  0  0  0  0  0  0
   47.5610   35.2060   42.1790 C   0  0  0  0  0  0  0  0  0  0  0  0
   46.2350   34.9900   42.2490 N   0  0  0  0  0  0  0  0  0  0  0  0
   45.5400   34.4170   41.2630 C   0  0  0  0  0  0  0  0  0  0  0  0
   46.1350   34.0030   40.0980 N   0  0  0  0  0  0  0  0  0  0  0  0
   48.1770   33.7550   38.7450 C   0  0  0  0  0  0  0  0  0  0  0  0
   42.1425   32.7438   40.0403 H   0  0  0  0  0  0  0  0  0  0  0  0
   41.8104   35.2127   38.3669 H   0  0  0  0  0  0  0  0  0  0  0  0
   42.1369   33.4657   37.9031 H   0  0  0  0  0  0  0  0  0  0  0  0
   39.9542   34.2996   37.1584 H   0  0  0  0  0  0  0  0  0  0  0  0
   39.8914   32.8809   38.2785 H   0  0  0  0  0  0  0  0  0  0  0  0
   38.7614   35.5394   38.5627 H   0  0  0  0  0  0  0  0  0  0  0  0
   38.4654   34.0269   39.5052 H   0  0  0  0  0  0  0  0  0  0  0  0
   40.7206   36.0649   39.9515 H   0  0  0  0  0  0  0  0  0  0  0  0
   39.3800   35.7518   41.0475 H   0  0  0  0  0  0  0  0  0  0  0  0
   41.2155   34.3181   41.8166 H   0  0  0  0  0  0  0  0  0  0  0  0
   37.9300   33.5800   40.0713 H   0  0  0  0  0  0  0  0  0  0  0  0
   40.2506   28.4367   43.3198 H   0  0  0  0  0  0  0  0  0  0  0  0
   43.3285   30.3239   43.5393 H   0  0  0  0  0  0  0  0  0  0  0  0
   42.5238   28.7911   43.9703 H   0  0  0  0  0  0  0  0  0  0  0  0
   44.2360   33.2219   41.9524 H   0  0  0  0  0  0  0  0  0  0  0  0
   42.3924   35.5186   42.2248 H   0  0  0  0  0  0  0  0  0  0  0  0
   43.4299   36.5294   41.6745 H   0  0  0  0  0  0  0  0  0  0  0  0
   43.2688   34.7460   39.2978 H   0  0  0  0  0  0  0  0  0  0  0  0
   49.3234   34.9392   40.8613 H   0  0  0  0  0  0  0  0  0  0  0  0
   48.1054   35.6818   43.0080 H   0  0  0  0  0  0  0  0  0  0  0  0
   49.0823   33.1968   39.0258 H   0  0  0  0  0  0  0  0  0  0  0  0
   47.5165   33.1071   38.1500 H   0  0  0  0  0  0  0  0  0  0  0  0
   48.4593   34.6361   38.1500 H   0  0  0  0  0  0  0  0  0  0  0  0
  1 20  1  0
  1  6  1  0
  2  1  1  0
  3  2  1  0
  3  4  1  0
  4  5  1  0
  5  6  1  0
  6  7  1  0
  7 17  1  0
  8  7  1  0
  8  9  2  0
  9 10  1  0
 10 11  1  0
 11 13  1  0
 12 11  2  0
 13 14  1  0
 14 15  1  0
 16 14  2  0
 17 10  2  0
 17 16  1  0
 18 19  1  0
 20 18  1  0
 20 19  1  0
 21 26  2  0
 21 22  1  0
 22 23  2  0
 23 24  1  0
 25 18  1  0
 25 24  2  0
 26 25  1  0
 27 21  1  0
  1 28  1  6
  2 29  1  0
  2 30  1  0
  3 31  1  0
  3 32  1  0
  4 33  1  0
  4 34  1  0
  5 35  1  0
  5 36  1  0
  6 37  1  1
  8 38  1  0
 13 39  1  0
 15 40  1  0
 15 41  1  0
 18 42  1  1
 19 43  1  0
 19 44  1  0
 20 45  1  6
 22 46  1  0
 23 47  1  0
 27 48  1  0
 27 49  1  0
 27 50  1  0
M  ISO  8  28  13  29  13  30  13  31  13  32  13  33  13  34  13  35  13
M  ISO  8  36  13  37  13  38  14  39   9  42  13  43  13  44  13  45  13
M  ISO  5  46  14  47  14  48   8  49   8  50   8
M  END
>  <minimizedAffinity>  (1) 
-7.52146769

>  <minimizedRMSD>  (1) 
2.58240795

$$$$
