
     RDKit          3D

 50 54  0  0  1  0  0  0  0  0999 V2000
   41.1330   34.0240   38.9820 C   0  0  2  0  0  0  0  0  0  0  0  0
   40.4470   34.9640   38.0380 C   0  0  0  0  0  0  0  0  0  0  0  0
   39.1550   34.4120   37.4940 C   0  0  0  0  0  0  0  0  0  0  0  0
   38.2030   34.1250   38.6030 C   0  0  0  0  0  0  0  0  0  0  0  0
   38.9270   34.0510   39.9380 C   0  0  0  0  0  0  0  0  0  0  0  0
   40.1380   33.2280   39.7330 C   0  0  1  0  0  0  0  0  0  0  0  0
   39.8690   31.9040   39.1180 C   0  0  0  0  0  0  0  0  0  0  0  0
   40.3900   31.3480   38.0250 N   0  0  0  0  0  0  0  0  0  0  0  0
   40.1500   30.1970   37.4640 C   0  0  0  0  0  0  0  0  0  0  0  0
   39.2550   29.3820   38.0030 N   0  0  0  0  0  0  0  0  0  0  0  0
   38.6190   29.7950   39.1370 C   0  0  0  0  0  0  0  0  0  0  0  0
   37.7030   28.9100   39.6600 C   0  0  0  0  0  0  0  0  0  0  0  0
   37.0350   29.2590   40.8010 C   0  0  0  0  0  0  0  0  0  0  0  0
   37.2960   30.4800   41.3900 C   0  0  0  0  0  0  0  0  0  0  0  0
   38.2300   31.3070   40.7990 C   0  0  0  0  0  0  0  0  0  0  0  0
   38.9350   31.0310   39.6640 C   0  0  0  0  0  0  0  0  0  0  0  0
   42.4810   34.3640   41.2310 C   0  0  1  0  0  0  0  0  0  0  0  0
   41.5950   35.6110   40.9860 C   0  0  0  0  0  0  0  0  0  0  0  0
   42.0510   34.7760   39.9230 C   0  0  2  0  0  0  0  0  0  0  0  0
   46.1520   34.5990   41.3370 C   0  0  0  0  0  0  0  0  0  0  0  0
   46.3880   35.1500   42.6070 C   0  0  0  0  0  0  0  0  0  0  0  0
   45.2630   35.4590   43.4250 C   0  0  0  0  0  0  0  0  0  0  0  0
   44.0300   35.1990   42.9230 N   0  0  0  0  0  0  0  0  0  0  0  0
   43.8520   34.6720   41.7040 C   0  0  0  0  0  0  0  0  0  0  0  0
   44.9080   34.3600   40.8850 N   0  0  0  0  0  0  0  0  0  0  0  0
   47.3340   34.2650   40.4990 C   0  0  0  0  0  0  0  0  0  0  0  0
   41.7525   33.3321   38.3924 H   0  0  0  0  0  0  0  0  0  0  0  0
   40.2308   35.9012   38.5717 H   0  0  0  0  0  0  0  0  0  0  0  0
   41.1220   35.1244   37.1844 H   0  0  0  0  0  0  0  0  0  0  0  0
   38.7051   35.1487   36.8121 H   0  0  0  0  0  0  0  0  0  0  0  0
   39.3664   33.4766   36.9552 H   0  0  0  0  0  0  0  0  0  0  0  0
   37.4496   34.9253   38.6464 H   0  0  0  0  0  0  0  0  0  0  0  0
   37.7235   33.1539   38.4104 H   0  0  0  0  0  0  0  0  0  0  0  0
   39.2094   35.0609   40.2702 H   0  0  0  0  0  0  0  0  0  0  0  0
   38.2798   33.6083   40.7094 H   0  0  0  0  0  0  0  0  0  0  0  0
   40.5507   32.9723   40.7201 H   0  0  0  0  0  0  0  0  0  0  0  0
   40.6864   29.9038   36.5495 H   0  0  0  0  0  0  0  0  0  0  0  0
   37.5127   27.9434   39.1707 H   0  0  0  0  0  0  0  0  0  0  0  0
   36.2975   28.5741   41.2448 H   0  0  0  0  0  0  0  0  0  0  0  0
   36.7726   30.7864   42.3077 H   0  0  0  0  0  0  0  0  0  0  0  0
   38.4229   32.2741   41.2863 H   0  0  0  0  0  0  0  0  0  0  0  0
   42.4417   33.4117   41.7801 H   0  0  0  0  0  0  0  0  0  0  0  0
   40.5353   35.6075   41.2811 H   0  0  0  0  0  0  0  0  0  0  0  0
   41.6502   36.6820   41.2310 H   0  0  0  0  0  0  0  0  0  0  0  0
   42.6136   34.9537   38.9946 H   0  0  0  0  0  0  0  0  0  0  0  0
   47.4126   35.3378   42.9604 H   0  0  0  0  0  0  0  0  0  0  0  0
   45.3899   35.8929   44.4278 H   0  0  0  0  0  0  0  0  0  0  0  0
   48.1879   34.0237   41.1491 H   0  0  0  0  0  0  0  0  0  0  0  0
   47.1000   33.3978   39.8640 H   0  0  0  0  0  0  0  0  0  0  0  0
   47.5885   35.1264   39.8640 H   0  0  0  0  0  0  0  0  0  0  0  0
  1  6  1  0
  1 19  1  0
  2  1  1  0
  3  2  1  0
  3  4  1  0
  4  5  1  0
  6  5  1  0
  7 16  1  0
  7  6  1  0
  8  7  2  0
  9 10  2  0
  9  8  1  0
 10 11  1  0
 11 12  1  0
 11 16  2  0
 12 13  2  0
 13 14  1  0
 15 14  2  0
 16 15  1  0
 17 24  1  0
 18 17  1  0
 19 18  1  0
 19 17  1  0
 20 21  2  0
 21 22  1  0
 23 22  2  0
 24 23  1  0
 25 20  1  0
 25 24  2  0
 26 20  1  0
  1 27  1  6
  2 28  1  0
  2 29  1  0
  3 30  1  0
  3 31  1  0
  4 32  1  0
  4 33  1  0
  5 34  1  0
  5 35  1  0
  6 36  1  1
  9 37  1  0
 12 38  1  0
 13 39  1  0
 14 40  1  0
 15 41  1  0
 17 42  1  1
 18 43  1  0
 18 44  1  0
 19 45  1  6
 21 46  1  0
 22 47  1  0
 26 48  1  0
 26 49  1  0
 26 50  1  0
M  ISO  8  27  13  28  13  29  13  30  13  31  13  32  13  33  13  34  13
M  ISO  8  35  13  36  13  37  14  38  14  39  14  40  14  41  14  42  13
M  ISO  8  43  13  44  13  45  13  46  14  47  14  48   8  49   8  50   8
M  END
>  <minimizedAffinity>  (1) 
-6.86712456

>  <minimizedRMSD>  (1) 
0.41535908

$$$$
