
     RDKit          3D

 47 51  0  0  1  0  0  0  0  0999 V2000
   41.2350   33.7360   39.2920 C   0  0  2  0  0  0  0  0  0  0  0  0
   40.5510   34.5630   38.2140 C   0  0  0  0  0  0  0  0  0  0  0  0
   39.2170   33.9980   37.8330 C   0  0  0  0  0  0  0  0  0  0  0  0
   38.2920   34.0640   39.0200 C   0  0  0  0  0  0  0  0  0  0  0  0
   39.0930   34.1220   40.3200 C   0  0  0  0  0  0  0  0  0  0  0  0
   40.2430   33.2000   40.2190 C   0  0  1  0  0  0  0  0  0  0  0  0
   39.8010   31.8810   39.8410 N   0  0  0  0  0  0  0  0  0  0  0  0
   40.4650   31.2110   38.8470 C   0  0  0  0  0  0  0  0  0  0  0  0
   39.9350   30.0010   38.6010 N   0  0  0  0  0  0  0  0  0  0  0  0
   38.8900   29.8200   39.4290 C   0  0  0  0  0  0  0  0  0  0  0  0
   37.9200   28.8910   39.7400 C   0  0  0  0  0  0  0  0  0  0  0  0
   36.9750   29.0570   40.6820 N   0  0  0  0  0  0  0  0  0  0  0  0
   36.9800   30.2140   41.3670 C   0  0  0  0  0  0  0  0  0  0  0  0
   37.8980   31.1230   41.0900 N   0  0  0  0  0  0  0  0  0  0  0  0
   38.8530   30.9860   40.1570 C   0  0  0  0  0  0  0  0  0  0  0  0
   42.6790   34.4430   41.3780 C   0  0  1  0  0  0  0  0  0  0  0  0
   41.9400   35.7060   40.8630 C   0  0  0  0  0  0  0  0  0  0  0  0
   42.2590   34.6100   40.0020 C   0  0  2  0  0  0  0  0  0  0  0  0
   46.3570   34.5470   41.2350 C   0  0  0  0  0  0  0  0  0  0  0  0
   46.7060   35.0400   42.5030 C   0  0  0  0  0  0  0  0  0  0  0  0
   45.6500   35.3520   43.4080 C   0  0  0  0  0  0  0  0  0  0  0  0
   44.3660   35.1550   42.9940 N   0  0  0  0  0  0  0  0  0  0  0  0
   44.0900   34.6840   41.7770 C   0  0  0  0  0  0  0  0  0  0  0  0
   45.0670   34.3690   40.8660 N   0  0  0  0  0  0  0  0  0  0  0  0
   47.4590   34.2120   40.3140 C   0  0  0  0  0  0  0  0  0  0  0  0
   41.7567   32.8780   38.8430 H   0  0  0  0  0  0  0  0  0  0  0  0
   40.4085   35.5871   38.5894 H   0  0  0  0  0  0  0  0  0  0  0  0
   41.1919   34.5516   37.3201 H   0  0  0  0  0  0  0  0  0  0  0  0
   38.7932   34.5833   37.0037 H   0  0  0  0  0  0  0  0  0  0  0  0
   39.3365   32.9514   37.5163 H   0  0  0  0  0  0  0  0  0  0  0  0
   37.6649   34.9643   38.9407 H   0  0  0  0  0  0  0  0  0  0  0  0
   37.6616   33.1626   39.0304 H   0  0  0  0  0  0  0  0  0  0  0  0
   39.4559   35.1474   40.4839 H   0  0  0  0  0  0  0  0  0  0  0  0
   38.4528   33.8259   41.1641 H   0  0  0  0  0  0  0  0  0  0  0  0
   40.7246   33.1094   41.2038 H   0  0  0  0  0  0  0  0  0  0  0  0
   41.3347   31.6182   38.3105 H   0  0  0  0  0  0  0  0  0  0  0  0
   37.9191   27.9460   39.1770 H   0  0  0  0  0  0  0  0  0  0  0  0
   36.2289   30.4015   42.1485 H   0  0  0  0  0  0  0  0  0  0  0  0
   42.5448   33.6429   42.1208 H   0  0  0  0  0  0  0  0  0  0  0  0
   40.8970   35.8974   41.1555 H   0  0  0  0  0  0  0  0  0  0  0  0
   42.1315   36.7892   40.8663 H   0  0  0  0  0  0  0  0  0  0  0  0
   42.7940   34.5420   39.0433 H   0  0  0  0  0  0  0  0  0  0  0  0
   47.7591   35.1806   42.7881 H   0  0  0  0  0  0  0  0  0  0  0  0
   45.8653   35.7415   44.4140 H   0  0  0  0  0  0  0  0  0  0  0  0
   48.3527   33.9403   40.8950 H   0  0  0  0  0  0  0  0  0  0  0  0
   47.1619   33.3636   39.6800 H   0  0  0  0  0  0  0  0  0  0  0  0
   47.6844   35.0822   39.6800 H   0  0  0  0  0  0  0  0  0  0  0  0
  1 18  1  0
  1  6  1  0
  2  1  1  0
  3  2  1  0
  3  4  1  0
  4  5  1  0
  6  5  1  0
  7 15  1  0
  7  6  1  0
  8  7  1  0
  9  8  2  0
  9 10  1  0
 10 11  2  0
 10 15  1  0
 11 12  1  0
 12 13  2  0
 14 13  1  0
 15 14  2  0
 16 23  1  0
 17 16  1  0
 18 17  1  0
 18 16  1  0
 19 20  2  0
 20 21  1  0
 22 21  2  0
 23 22  1  0
 24 19  1  0
 24 23  2  0
 25 19  1  0
  1 26  1  6
  2 27  1  0
  2 28  1  0
  3 29  1  0
  3 30  1  0
  4 31  1  0
  4 32  1  0
  5 33  1  0
  5 34  1  0
  6 35  1  1
  8 36  1  0
 11 37  1  0
 13 38  1  0
 16 39  1  1
 17 40  1  0
 17 41  1  0
 18 42  1  6
 20 43  1  0
 21 44  1  0
 25 45  1  0
 25 46  1  0
 25 47  1  0
M  ISO  8  26  13  27  13  28  13  29  13  30  13  31  13  32  13  33  13
M  ISO  8  34  13  35  13  36  14  37  14  38  14  39  13  40  13  41  13
M  ISO  6  42  13  43  14  44  14  45   8  46   8  47   8
M  END
>  <minimizedAffinity>  (1) 
-6.38431501

>  <minimizedRMSD>  (1) 
1.29013741

$$$$
