
     RDKit          3D

 46 49  0  0  1  0  0  0  0  0999 V2000
   40.9320   33.6640   39.4130 C   0  0  2  0  0  0  0  0  0  0  0  0
   40.5250   34.2500   38.0920 C   0  0  0  0  0  0  0  0  0  0  0  0
   39.1950   33.8100   37.5890 C   0  0  0  0  0  0  0  0  0  0  0  0
   38.1170   34.1120   38.5910 C   0  0  0  0  0  0  0  0  0  0  0  0
   38.7160   34.4420   39.9470 C   0  0  0  0  0  0  0  0  0  0  0  0
   39.7520   33.4420   40.2450 C   0  0  1  0  0  0  0  0  0  0  0  0
   39.2760   32.0510   40.1630 C   0  0  0  0  0  0  0  0  0  0  0  0
   38.1770   31.7710   40.9980 C   0  0  0  0  0  0  0  0  0  0  0  0
   37.5350   30.5300   41.1310 C   0  0  0  0  0  0  0  0  0  0  0  0
   38.0250   29.4880   40.3740 C   0  0  0  0  0  0  0  0  0  0  0  0
   39.0970   29.6920   39.5360 C   0  0  0  0  0  0  0  0  0  0  0  0
   39.6720   30.9350   39.4600 C   0  0  0  0  0  0  0  0  0  0  0  0
   42.3450   34.4830   41.4820 C   0  0  1  0  0  0  0  0  0  0  0  0
   41.5740   35.7070   40.9200 C   0  0  0  0  0  0  0  0  0  0  0  0
   41.9310   34.5880   40.1000 C   0  0  2  0  0  0  0  0  0  0  0  0
   46.0250   34.6160   41.3650 C   0  0  0  0  0  0  0  0  0  0  0  0
   46.3530   35.2340   42.5890 C   0  0  0  0  0  0  0  0  0  0  0  0
   45.2740   35.6210   43.4550 C   0  0  0  0  0  0  0  0  0  0  0  0
   44.0010   35.3680   43.0440 N   0  0  0  0  0  0  0  0  0  0  0  0
   43.7500   34.7790   41.8730 C   0  0  0  0  0  0  0  0  0  0  0  0
   44.7500   34.3940   41.0150 N   0  0  0  0  0  0  0  0  0  0  0  0
   47.1490   34.2200   40.5070 C   0  0  0  0  0  0  0  0  0  0  0  0
   41.4198   32.6914   39.2513 H   0  0  0  0  0  0  0  0  0  0  0  0
   40.5046   35.3448   38.1967 H   0  0  0  0  0  0  0  0  0  0  0  0
   41.2632   33.8937   37.3584 H   0  0  0  0  0  0  0  0  0  0  0  0
   38.9723   34.3379   36.6500 H   0  0  0  0  0  0  0  0  0  0  0  0
   39.2244   32.7233   37.4207 H   0  0  0  0  0  0  0  0  0  0  0  0
   37.5279   34.9715   38.2385 H   0  0  0  0  0  0  0  0  0  0  0  0
   37.4757   33.2245   38.6962 H   0  0  0  0  0  0  0  0  0  0  0  0
   39.1637   35.4465   39.9223 H   0  0  0  0  0  0  0  0  0  0  0  0
   37.9359   34.4248   40.7223 H   0  0  0  0  0  0  0  0  0  0  0  0
   40.0321   33.5854   41.2990 H   0  0  0  0  0  0  0  0  0  0  0  0
   37.7852   32.6025   41.6023 H   0  0  0  0  0  0  0  0  0  0  0  0
   36.6793   30.3952   41.8089 H   0  0  0  0  0  0  0  0  0  0  0  0
   37.5593   28.4936   40.4397 H   0  0  0  0  0  0  0  0  0  0  0  0
   39.4909   28.8626   38.9302 H   0  0  0  0  0  0  0  0  0  0  0  0
   40.5259   31.0508   38.7763 H   0  0  0  0  0  0  0  0  0  0  0  0
   42.2272   33.7077   42.2534 H   0  0  0  0  0  0  0  0  0  0  0  0
   40.5241   35.8789   41.1995 H   0  0  0  0  0  0  0  0  0  0  0  0
   41.7344   36.7947   40.8863 H   0  0  0  0  0  0  0  0  0  0  0  0
   42.4768   34.4976   39.1492 H   0  0  0  0  0  0  0  0  0  0  0  0
   47.4007   35.4140   42.8717 H   0  0  0  0  0  0  0  0  0  0  0  0
   45.4706   36.1075   44.4218 H   0  0  0  0  0  0  0  0  0  0  0  0
   48.0012   33.9198   41.1344 H   0  0  0  0  0  0  0  0  0  0  0  0
   46.8454   33.3747   39.8719 H   0  0  0  0  0  0  0  0  0  0  0  0
   47.4423   35.0689   39.8719 H   0  0  0  0  0  0  0  0  0  0  0  0
  1 15  1  0
  1  6  1  0
  2  1  1  0
  3  2  1  0
  3  4  1  0
  4  5  1  0
  5  6  1  0
  7  6  1  0
  7  8  2  0
  8  9  1  0
 10  9  2  0
 11 10  1  0
 12 11  2  0
 12  7  1  0
 13 20  1  0
 14 13  1  0
 15 14  1  0
 15 13  1  0
 16 17  2  0
 17 18  1  0
 19 18  2  0
 20 19  1  0
 21 16  1  0
 21 20  2  0
 22 16  1  0
  1 23  1  6
  2 24  1  0
  2 25  1  0
  3 26  1  0
  3 27  1  0
  4 28  1  0
  4 29  1  0
  5 30  1  0
  5 31  1  0
  6 32  1  1
  8 33  1  0
  9 34  1  0
 10 35  1  0
 11 36  1  0
 12 37  1  0
 13 38  1  1
 14 39  1  0
 14 40  1  0
 15 41  1  6
 17 42  1  0
 18 43  1  0
 22 44  1  0
 22 45  1  0
 22 46  1  0
M  ISO  8  23  13  24  13  25  13  26  13  27  13  28  13  29  13  30  13
M  ISO  8  31  13  32  13  33  14  34  14  35  14  36  14  37  14  38  13
M  ISO  8  39  13  40  13  41  13  42  14  43  14  44   8  45   8  46   8
M  END
>  <minimizedAffinity>  (1) 
-6.16041088

>  <minimizedRMSD>  (1) 
1.36699295

$$$$
