
     RDKit          3D

 49 52  0  0  1  0  0  0  0  0999 V2000
   41.1060   33.9380   39.0860 C   0  0  2  0  0  0  0  0  0  0  0  0
   40.2020   34.8570   38.2870 C   0  0  0  0  0  0  0  0  0  0  0  0
   38.9650   34.1350   37.8170 C   0  0  0  0  0  0  0  0  0  0  0  0
   38.1450   33.7650   39.0400 C   0  0  0  0  0  0  0  0  0  0  0  0
   39.0280   33.6680   40.2780 C   0  0  0  0  0  0  0  0  0  0  0  0
   40.2930   33.0220   39.9060 C   0  0  1  0  0  0  0  0  0  0  0  0
   42.4510   34.4490   41.2910 C   0  0  1  0  0  0  0  0  0  0  0  0
   41.5900   35.6940   40.9580 C   0  0  0  0  0  0  0  0  0  0  0  0
   42.0370   34.7780   39.9460 C   0  0  2  0  0  0  0  0  0  0  0  0
   46.1270   34.6570   41.3660 C   0  0  0  0  0  0  0  0  0  0  0  0
   46.3870   35.2420   42.6110 C   0  0  0  0  0  0  0  0  0  0  0  0
   45.2620   35.5860   43.4320 C   0  0  0  0  0  0  0  0  0  0  0  0
   44.0140   35.3270   42.9590 N   0  0  0  0  0  0  0  0  0  0  0  0
   43.8230   34.7650   41.7610 C   0  0  0  0  0  0  0  0  0  0  0  0
   44.8700   34.4200   40.9410 N   0  0  0  0  0  0  0  0  0  0  0  0
   47.2910   34.2940   40.5340 C   0  0  0  0  0  0  0  0  0  0  0  0
   39.9730   31.7470   39.2360 N   0  0  0  0  0  0  0  0  0  0  0  0
   38.8790   31.9490   38.3050 C   0  0  0  0  0  0  0  0  0  0  0  0
   38.8250   30.9890   37.1650 C   0  0  0  0  0  0  0  0  0  0  0  0
   39.7490   29.9570   37.3650 O   0  0  0  0  0  0  0  0  0  0  0  0
   40.9870   30.6230   37.2630 C   0  0  0  0  0  0  0  0  0  0  0  0
   41.1990   31.3790   38.5500 C   0  0  0  0  0  0  0  0  0  0  0  0
   41.7170   33.3253   38.4068 H   0  0  0  0  0  0  0  0  0  0  0  0
   39.9030   35.7051   38.9205 H   0  0  0  0  0  0  0  0  0  0  0  0
   40.7562   35.2075   37.4038 H   0  0  0  0  0  0  0  0  0  0  0  0
   38.3774   34.7911   37.1580 H   0  0  0  0  0  0  0  0  0  0  0  0
   39.2406   33.2312   37.2538 H   0  0  0  0  0  0  0  0  0  0  0  0
   37.3769   34.5349   39.2050 H   0  0  0  0  0  0  0  0  0  0  0  0
   37.6760   32.7854   38.8653 H   0  0  0  0  0  0  0  0  0  0  0  0
   39.2286   34.6763   40.6692 H   0  0  0  0  0  0  0  0  0  0  0  0
   38.5202   33.0771   41.0545 H   0  0  0  0  0  0  0  0  0  0  0  0
   40.9074   32.7919   40.7889 H   0  0  0  0  0  0  0  0  0  0  0  0
   42.3905   33.5350   41.9001 H   0  0  0  0  0  0  0  0  0  0  0  0
   40.5291   35.7298   41.2463 H   0  0  0  0  0  0  0  0  0  0  0  0
   41.6652   36.7774   41.1331 H   0  0  0  0  0  0  0  0  0  0  0  0
   42.5962   34.9030   39.0070 H   0  0  0  0  0  0  0  0  0  0  0  0
   47.4170   35.4311   42.9477 H   0  0  0  0  0  0  0  0  0  0  0  0
   45.4056   36.0480   44.4199 H   0  0  0  0  0  0  0  0  0  0  0  0
   48.1382   34.0298   41.1840 H   0  0  0  0  0  0  0  0  0  0  0  0
   47.0337   33.4334   39.8990 H   0  0  0  0  0  0  0  0  0  0  0  0
   47.5685   35.1483   39.8990 H   0  0  0  0  0  0  0  0  0  0  0  0
   37.9362   31.8641   38.8653 H   0  0  0  0  0  0  0  0  0  0  0  0
   39.0396   32.9415   37.8587 H   0  0  0  0  0  0  0  0  0  0  0  0
   39.0661   31.5181   36.2313 H   0  0  0  0  0  0  0  0  0  0  0  0
   37.8137   30.5611   37.1004 H   0  0  0  0  0  0  0  0  0  0  0  0
   41.7964   29.8922   37.1184 H   0  0  0  0  0  0  0  0  0  0  0  0
   40.9891   31.3100   36.4039 H   0  0  0  0  0  0  0  0  0  0  0  0
   41.7958   30.7486   39.2255 H   0  0  0  0  0  0  0  0  0  0  0  0
   41.7051   32.3186   38.2836 H   0  0  0  0  0  0  0  0  0  0  0  0
  1  6  1  0
  1  9  1  0
  2  1  1  0
  3  2  1  0
  3  4  1  0
  4  5  1  0
  6  5  1  0
  7 14  1  0
  8  7  1  0
  9  8  1  0
  9  7  1  0
 10 11  2  0
 11 12  1  0
 13 12  2  0
 14 13  1  0
 15 10  1  0
 15 14  2  0
 16 10  1  0
 17  6  1  0
 18 17  1  0
 19 20  1  0
 19 18  1  0
 21 20  1  0
 21 22  1  0
 22 17  1  0
  1 23  1  6
  2 24  1  0
  2 25  1  0
  3 26  1  0
  3 27  1  0
  4 28  1  0
  4 29  1  0
  5 30  1  0
  5 31  1  0
  6 32  1  1
  7 33  1  1
  8 34  1  0
  8 35  1  0
  9 36  1  6
 11 37  1  0
 12 38  1  0
 16 39  1  0
 16 40  1  0
 16 41  1  0
 18 42  1  0
 18 43  1  0
 19 44  1  0
 19 45  1  0
 21 46  1  0
 21 47  1  0
 22 48  1  0
 22 49  1  0
M  ISO  8  23  13  24  13  25  13  26  13  27  13  28  13  29  13  30  13
M  ISO  8  31  13  32  13  33  13  34  13  35  13  36  13  37  14  38  14
M  ISO  8  39   8  40   8  41   8  42  13  43  13  44  13  45  13  46  13
M  ISO  3  47  13  48  13  49  13
M  END
>  <minimizedAffinity>  (1) 
-5.85181618

>  <minimizedRMSD>  (1) 
0.190223187

$$$$
