
     RDKit          3D

 50 53  0  0  1  0  0  0  0  0999 V2000
   41.9970   33.9030   39.6420 C   0  0  2  0  0  0  0  0  0  0  0  0
   41.5260   34.7850   38.5240 C   0  0  0  0  0  0  0  0  0  0  0  0
   40.1410   34.3840   38.0580 C   0  0  0  0  0  0  0  0  0  0  0  0
   39.1780   34.6980   39.1750 C   0  0  0  0  0  0  0  0  0  0  0  0
   39.9010   34.6990   40.5340 C   0  0  0  0  0  0  0  0  0  0  0  0
   40.8570   33.5650   40.5410 C   0  0  1  0  0  0  0  0  0  0  0  0
   43.5210   34.2550   41.7550 C   0  0  1  0  0  0  0  0  0  0  0  0
   42.9170   35.6280   41.3590 C   0  0  0  0  0  0  0  0  0  0  0  0
   43.1110   34.5680   40.4060 C   0  0  2  0  0  0  0  0  0  0  0  0
   47.1820   34.5520   41.5020 C   0  0  0  0  0  0  0  0  0  0  0  0
   47.6110   34.3410   42.8160 C   0  0  0  0  0  0  0  0  0  0  0  0
   46.6120   34.1120   43.8020 C   0  0  0  0  0  0  0  0  0  0  0  0
   45.3020   34.1080   43.4210 N   0  0  0  0  0  0  0  0  0  0  0  0
   44.9510   34.3150   42.1510 C   0  0  0  0  0  0  0  0  0  0  0  0
   45.8740   34.5410   41.1630 N   0  0  0  0  0  0  0  0  0  0  0  0
   48.2260   34.7770   40.4730 C   0  0  0  0  0  0  0  0  0  0  0  0
   40.1860   32.3220   40.1770 N   0  0  0  0  0  0  0  0  0  0  0  0
   39.2640   31.9980   41.2020 C   0  0  0  0  0  0  0  0  0  0  0  0
   39.2850   30.5700   41.6730 C   0  0  0  0  0  0  0  0  0  0  0  0
   40.6020   30.0190   41.6670 N   0  0  0  0  0  0  0  0  0  0  0  0
   40.9150   29.9400   40.2310 C   0  0  0  0  0  0  0  0  0  0  0  0
   41.1830   31.3710   39.8380 C   0  0  0  0  0  0  0  0  0  0  0  0
   42.3915   32.9683   39.2170 H   0  0  0  0  0  0  0  0  0  0  0  0
   41.4989   35.8269   38.8757 H   0  0  0  0  0  0  0  0  0  0  0  0
   42.2226   34.6796   37.6792 H   0  0  0  0  0  0  0  0  0  0  0  0
   39.8688   34.9527   37.1566 H   0  0  0  0  0  0  0  0  0  0  0  0
   40.1108   33.3127   37.8103 H   0  0  0  0  0  0  0  0  0  0  0  0
   38.7348   35.6896   39.0013 H   0  0  0  0  0  0  0  0  0  0  0  0
   38.3939   33.9267   39.1926 H   0  0  0  0  0  0  0  0  0  0  0  0
   40.4436   35.6464   40.6683 H   0  0  0  0  0  0  0  0  0  0  0  0
   39.1759   34.5947   41.3546 H   0  0  0  0  0  0  0  0  0  0  0  0
   41.2577   33.4009   41.5522 H   0  0  0  0  0  0  0  0  0  0  0  0
   43.3080   33.4155   42.4332 H   0  0  0  0  0  0  0  0  0  0  0  0
   41.9035   35.9049   41.6847 H   0  0  0  0  0  0  0  0  0  0  0  0
   43.2223   36.6813   41.4444 H   0  0  0  0  0  0  0  0  0  0  0  0
   43.6345   34.4985   39.4411 H   0  0  0  0  0  0  0  0  0  0  0  0
   48.6796   34.3517   43.0769 H   0  0  0  0  0  0  0  0  0  0  0  0
   46.8904   33.9413   44.8524 H   0  0  0  0  0  0  0  0  0  0  0  0
   49.1875   34.9842   40.9654 H   0  0  0  0  0  0  0  0  0  0  0  0
   48.3216   33.8788   39.8452 H   0  0  0  0  0  0  0  0  0  0  0  0
   47.9432   35.6348   39.8452 H   0  0  0  0  0  0  0  0  0  0  0  0
   39.4808   32.6420   42.0670 H   0  0  0  0  0  0  0  0  0  0  0  0
   38.2659   32.1547   40.7669 H   0  0  0  0  0  0  0  0  0  0  0  0
   38.8888   30.5294   42.6984 H   0  0  0  0  0  0  0  0  0  0  0  0
   38.6681   29.9774   40.9814 H   0  0  0  0  0  0  0  0  0  0  0  0
   41.2647   30.6360   42.1579 H   0  0  0  0  0  0  0  0  0  0  0  0
   41.8028   29.3140   40.0580 H   0  0  0  0  0  0  0  0  0  0  0  0
   40.1034   29.4843   39.6447 H   0  0  0  0  0  0  0  0  0  0  0  0
   41.3121   31.3982   38.7459 H   0  0  0  0  0  0  0  0  0  0  0  0
   42.0727   31.6671   40.4131 H   0  0  0  0  0  0  0  0  0  0  0  0
  1  9  1  0
  1  6  1  0
  2  1  1  0
  3  2  1  0
  3  4  1  0
  4  5  1  0
  5  6  1  0
  7 14  1  0
  8  7  1  0
  9  8  1  0
  9  7  1  0
 10 11  2  0
 11 12  1  0
 13 12  2  0
 14 13  1  0
 15 10  1  0
 15 14  2  0
 16 10  1  0
 17  6  1  0
 17 18  1  0
 18 19  1  0
 20 19  1  0
 21 20  1  0
 22 17  1  0
 22 21  1  0
  1 23  1  6
  2 24  1  0
  2 25  1  0
  3 26  1  0
  3 27  1  0
  4 28  1  0
  4 29  1  0
  5 30  1  0
  5 31  1  0
  6 32  1  1
  7 33  1  1
  8 34  1  0
  8 35  1  0
  9 36  1  6
 11 37  1  0
 12 38  1  0
 16 39  1  0
 16 40  1  0
 16 41  1  0
 18 42  1  0
 18 43  1  0
 19 44  1  0
 19 45  1  0
 20 46  1  0
 21 47  1  0
 21 48  1  0
 22 49  1  0
 22 50  1  0
M  ISO  8  23  13  24  13  25  13  26  13  27  13  28  13  29  13  30  13
M  ISO  8  31  13  32  13  33  13  34  13  35  13  36  13  37  14  38  14
M  ISO  8  39   8  40   8  41   8  42  13  43  13  44  13  45  13  46   5
M  ISO  4  47  13  48  13  49  13  50  13
M  END
>  <minimizedAffinity>  (1) 
-5.86337185

>  <minimizedRMSD>  (1) 
2.34801602

$$$$
