
     RDKit          3D

 54 56  0  0  1  0  0  0  0  0999 V2000
   41.1480   33.9140   39.1240 C   0  0  0  0  0  0  0  0  0  0  0  0
   40.3330   34.7540   38.1700 C   0  0  0  0  0  0  0  0  0  0  0  0
   39.0460   34.1260   37.7430 C   0  0  0  0  0  0  0  0  0  0  0  0
   38.1320   33.9150   38.9360 C   0  0  0  0  0  0  0  0  0  0  0  0
   38.9800   33.8280   40.2130 C   0  0  0  0  0  0  0  0  0  0  0  0
   40.1830   33.0360   39.9000 C   0  0  0  0  0  0  0  0  0  0  0  0
   42.4550   34.4440   41.3240 C   0  0  1  0  0  0  0  0  0  0  0  0
   41.6140   35.6940   40.9500 C   0  0  0  0  0  0  0  0  0  0  0  0
   42.0680   34.7700   39.9790 C   0  0  2  0  0  0  0  0  0  0  0  0
   46.1420   34.6570   41.3640 C   0  0  0  0  0  0  0  0  0  0  0  0
   46.3900   35.2570   42.6200 C   0  0  0  0  0  0  0  0  0  0  0  0
   45.2720   35.5960   43.4290 C   0  0  0  0  0  0  0  0  0  0  0  0
   44.0230   35.3280   42.9600 N   0  0  0  0  0  0  0  0  0  0  0  0
   43.8490   34.7550   41.7570 C   0  0  0  0  0  0  0  0  0  0  0  0
   44.8910   34.4080   40.9330 N   0  0  0  0  0  0  0  0  0  0  0  0
   47.3050   34.3070   40.5350 C   0  0  0  0  0  0  0  0  0  0  0  0
   40.4820   31.8800   40.6240 C   0  0  0  0  0  0  0  0  0  0  0  0
   39.9680   31.9130   42.0530 C   0  0  0  0  0  0  0  0  0  0  0  0
   40.6320   30.8180   42.8530 C   0  0  0  0  0  0  0  0  0  0  0  0
   40.4560   29.4820   42.2290 C   0  0  0  0  0  0  0  0  0  0  0  0
   40.6840   29.4810   40.7330 C   0  0  0  0  0  0  0  0  0  0  0  0
   39.8640   30.5820   40.1040 C   0  0  0  0  0  0  0  0  0  0  0  0
   41.7572   33.2051   38.5441 H   0  0  0  0  0  0  0  0  0  0  0  0
   40.4545   33.3821   39.7919 H   0  0  0  0  0  0  0  0  0  0  0  0
   40.1029   35.7100   38.6631 H   0  0  0  0  0  0  0  0  0  0  0  0
   40.9402   34.8770   37.2611 H   0  0  0  0  0  0  0  0  0  0  0  0
   38.5463   34.7840   37.0168 H   0  0  0  0  0  0  0  0  0  0  0  0
   39.2629   33.1493   37.2858 H   0  0  0  0  0  0  0  0  0  0  0  0
   37.4314   34.7592   39.0165 H   0  0  0  0  0  0  0  0  0  0  0  0
   37.5638   32.9822   38.8056 H   0  0  0  0  0  0  0  0  0  0  0  0
   39.2707   34.8376   40.5390 H   0  0  0  0  0  0  0  0  0  0  0  0
   38.4073   33.3540   41.0238 H   0  0  0  0  0  0  0  0  0  0  0  0
   40.0948   32.7331   38.8462 H   0  0  0  0  0  0  0  0  0  0  0  0
   41.0032   33.7162   40.1731 H   0  0  0  0  0  0  0  0  0  0  0  0
   42.3666   33.5520   41.9616 H   0  0  0  0  0  0  0  0  0  0  0  0
   40.5471   35.7456   41.2128 H   0  0  0  0  0  0  0  0  0  0  0  0
   41.6965   36.7794   41.1087 H   0  0  0  0  0  0  0  0  0  0  0  0
   42.6441   34.8903   39.0497 H   0  0  0  0  0  0  0  0  0  0  0  0
   47.4170   35.4553   42.9605 H   0  0  0  0  0  0  0  0  0  0  0  0
   45.4132   36.0653   44.4138 H   0  0  0  0  0  0  0  0  0  0  0  0
   48.1549   34.0512   41.1849 H   0  0  0  0  0  0  0  0  0  0  0  0
   47.0562   33.4439   39.9000 H   0  0  0  0  0  0  0  0  0  0  0  0
   47.5739   35.1640   39.9000 H   0  0  0  0  0  0  0  0  0  0  0  0
   41.5780   31.8794   40.5299 H   0  0  0  0  0  0  0  0  0  0  0  0
   40.2009   32.8890   42.5038 H   0  0  0  0  0  0  0  0  0  0  0  0
   38.8789   31.7586   42.0542 H   0  0  0  0  0  0  0  0  0  0  0  0
   41.7077   31.0356   42.9267 H   0  0  0  0  0  0  0  0  0  0  0  0
   40.1600   30.7917   43.8462 H   0  0  0  0  0  0  0  0  0  0  0  0
   41.1707   28.7849   42.6908 H   0  0  0  0  0  0  0  0  0  0  0  0
   39.4117   29.1805   42.3978 H   0  0  0  0  0  0  0  0  0  0  0  0
   41.7504   29.6511   40.5234 H   0  0  0  0  0  0  0  0  0  0  0  0
   40.3813   28.5100   40.3141 H   0  0  0  0  0  0  0  0  0  0  0  0
   38.8109   30.5043   40.4121 H   0  0  0  0  0  0  0  0  0  0  0  0
   39.8747   30.5298   39.0053 H   0  0  0  0  0  0  0  0  0  0  0  0
  1  9  1  0
  2  1  1  0
  3  2  1  0
  3  4  1  0
  4  5  1  0
  6  5  1  0
  6 17  1  0
  7 14  1  0
  8  7  1  0
  9  8  1  0
  9  7  1  0
 10 11  2  0
 11 12  1  0
 13 12  2  0
 14 13  1  0
 15 10  1  0
 15 14  2  0
 16 10  1  0
 17 18  1  0
 18 19  1  0
 20 19  1  0
 21 20  1  0
 22 17  1  0
 22 21  1  0
  1 23  1  0
  1 24  1  0
  2 25  1  0
  2 26  1  0
  3 27  1  0
  3 28  1  0
  4 29  1  0
  4 30  1  0
  5 31  1  0
  5 32  1  0
  6 33  1  0
  6 34  1  0
  7 35  1  1
  8 36  1  0
  8 37  1  0
  9 38  1  6
 11 39  1  0
 12 40  1  0
 16 41  1  0
 16 42  1  0
 16 43  1  0
 17 44  1  0
 18 45  1  0
 18 46  1  0
 19 47  1  0
 19 48  1  0
 20 49  1  0
 20 50  1  0
 21 51  1  0
 21 52  1  0
 22 53  1  0
 22 54  1  0
M  ISO  8  23   8  24   8  25   8  26   8  27   8  28   8  29   8  30   8
M  ISO  8  31   8  32   8  33   8  34   8  35  13  36  13  37  13  38  13
M  ISO  8  39  14  40  14  41   8  42   8  43   8  44  13  45  13  46  13
M  ISO  8  47  13  48  13  49  13  50  13  51  13  52  13  53  13  54  13
M  END
>  <minimizedAffinity>  (1) 
-6.11476469

>  <minimizedRMSD>  (1) 
0.220127165

$$$$
