
     RDKit          3D

 44 47  0  0  1  0  0  0  0  0999 V2000
   41.1730   33.9580   38.9700 C   0  0  2  0  0  0  0  0  0  0  0  0
   40.2940   34.8490   38.1460 C   0  0  0  0  0  0  0  0  0  0  0  0
   39.0010   34.2650   37.7040 C   0  0  0  0  0  0  0  0  0  0  0  0
   38.2130   33.7320   38.8580 C   0  0  0  0  0  0  0  0  0  0  0  0
   39.0670   33.6410   40.1110 C   0  0  0  0  0  0  0  0  0  0  0  0
   40.3520   33.0380   39.7450 C   0  0  1  0  0  0  0  0  0  0  0  0
   42.4710   34.4400   41.2120 C   0  0  1  0  0  0  0  0  0  0  0  0
   41.5980   35.6830   40.8960 C   0  0  0  0  0  0  0  0  0  0  0  0
   42.0690   34.8050   39.8680 C   0  0  2  0  0  0  0  0  0  0  0  0
   46.1420   34.6650   41.3600 C   0  0  0  0  0  0  0  0  0  0  0  0
   46.3640   35.2650   42.6210 C   0  0  0  0  0  0  0  0  0  0  0  0
   45.2190   35.6080   43.4180 C   0  0  0  0  0  0  0  0  0  0  0  0
   43.9900   35.3330   42.9060 N   0  0  0  0  0  0  0  0  0  0  0  0
   43.8350   34.7640   41.7050 C   0  0  0  0  0  0  0  0  0  0  0  0
   44.8970   34.4180   40.9070 N   0  0  0  0  0  0  0  0  0  0  0  0
   47.3290   34.3060   40.5740 C   0  0  0  0  0  0  0  0  0  0  0  0
   40.1600   31.7440   39.0650 C   0  0  0  0  0  0  0  0  0  0  0  0
   40.6870   31.2570   37.8910 C   0  0  0  0  0  0  0  0  0  0  0  0
   40.4530   30.0400   37.2990 C   0  0  0  0  0  0  0  0  0  0  0  0
   39.5830   29.2420   37.9850 N   0  0  0  0  0  0  0  0  0  0  0  0
   39.0460   29.7050   39.1520 C   0  0  0  0  0  0  0  0  0  0  0  0
   39.2960   30.8970   39.7060 N   0  0  0  0  0  0  0  0  0  0  0  0
   41.8216   33.3609   38.3121 H   0  0  0  0  0  0  0  0  0  0  0  0
   40.0711   35.7459   38.7426 H   0  0  0  0  0  0  0  0  0  0  0  0
   40.8584   35.0490   37.2233 H   0  0  0  0  0  0  0  0  0  0  0  0
   38.4115   35.0445   37.1992 H   0  0  0  0  0  0  0  0  0  0  0  0
   39.2168   33.4304   37.0207 H   0  0  0  0  0  0  0  0  0  0  0  0
   37.3622   34.4019   39.0515 H   0  0  0  0  0  0  0  0  0  0  0  0
   37.8608   32.7217   38.6024 H   0  0  0  0  0  0  0  0  0  0  0  0
   39.2317   34.6473   40.5236 H   0  0  0  0  0  0  0  0  0  0  0  0
   38.5620   33.0280   40.8720 H   0  0  0  0  0  0  0  0  0  0  0  0
   40.9050   32.8316   40.6732 H   0  0  0  0  0  0  0  0  0  0  0  0
   42.4141   33.5100   41.7967 H   0  0  0  0  0  0  0  0  0  0  0  0
   40.5325   35.6975   41.1691 H   0  0  0  0  0  0  0  0  0  0  0  0
   41.6572   36.7621   41.1009 H   0  0  0  0  0  0  0  0  0  0  0  0
   42.6314   34.9756   38.9382 H   0  0  0  0  0  0  0  0  0  0  0  0
   47.3842   35.4634   42.9814 H   0  0  0  0  0  0  0  0  0  0  0  0
   45.3326   36.0762   44.4069 H   0  0  0  0  0  0  0  0  0  0  0  0
   48.1569   34.0556   41.2537 H   0  0  0  0  0  0  0  0  0  0  0  0
   47.0997   33.4370   39.9397 H   0  0  0  0  0  0  0  0  0  0  0  0
   47.6197   35.1564   39.9397 H   0  0  0  0  0  0  0  0  0  0  0  0
   41.3818   31.9251   37.3609 H   0  0  0  0  0  0  0  0  0  0  0  0
   40.9257   29.7346   36.3538 H   0  0  0  0  0  0  0  0  0  0  0  0
   38.3477   29.0408   39.6823 H   0  0  0  0  0  0  0  0  0  0  0  0
  1  6  1  0
  1  9  1  0
  2  1  1  0
  3  2  1  0
  3  4  1  0
  4  5  1  0
  6  5  1  0
  7 14  1  0
  8  7  1  0
  9  8  1  0
  9  7  1  0
 10 11  2  0
 11 12  1  0
 13 12  2  0
 14 13  1  0
 15 10  1  0
 15 14  2  0
 16 10  1  0
 17 22  1  0
 17  6  1  0
 18 17  2  0
 19 18  1  0
 19 20  2  0
 20 21  1  0
 21 22  2  0
  1 23  1  6
  2 24  1  0
  2 25  1  0
  3 26  1  0
  3 27  1  0
  4 28  1  0
  4 29  1  0
  5 30  1  0
  5 31  1  0
  6 32  1  1
  7 33  1  1
  8 34  1  0
  8 35  1  0
  9 36  1  6
 11 37  1  0
 12 38  1  0
 16 39  1  0
 16 40  1  0
 16 41  1  0
 18 42  1  0
 19 43  1  0
 21 44  1  0
M  ISO  8  23  13  24  13  25  13  26  13  27  13  28  13  29  13  30  13
M  ISO  8  31  13  32  13  33  13  34  13  35  13  36  13  37  14  38  14
M  ISO  6  39   8  40   8  41   8  42  14  43  14  44  14
M  END
>  <minimizedAffinity>  (1) 
-5.80522776

>  <minimizedRMSD>  (1) 
0.688747525

$$$$
