
     RDKit          3D

 43 46  0  0  1  0  0  0  0  0999 V2000
   42.2690   34.4900   41.4590 C   0  0  1  0  0  0  0  0  0  0  0  0
   41.5340   35.6540   40.7450 C   0  0  0  0  0  0  0  0  0  0  0  0
   41.8920   34.4420   40.0700 C   0  0  2  0  0  0  0  0  0  0  0  0
   40.9090   33.4680   39.4490 C   0  0  2  0  0  0  0  0  0  0  0  0
   40.4780   33.9500   38.1030 C   0  0  0  0  0  0  0  0  0  0  0  0
   39.1420   33.4630   37.6470 C   0  0  0  0  0  0  0  0  0  0  0  0
   38.0830   33.8810   38.6180 C   0  0  0  0  0  0  0  0  0  0  0  0
   38.6830   34.2490   39.9680 C   0  0  0  0  0  0  0  0  0  0  0  0
   39.7280   33.2850   40.3070 C   0  0  1  0  0  0  0  0  0  0  0  0
   39.2340   31.8570   40.2650 C   0  0  0  0  0  0  0  0  0  0  0  0
   38.0890   31.4130   41.0780 C   0  0  0  0  0  0  0  0  0  0  0  0
   39.4200   30.9770   41.5340 C   0  0  0  0  0  0  0  0  0  0  0  0
   45.9560   34.6300   41.3940 C   0  0  0  0  0  0  0  0  0  0  0  0
   46.2630   35.2880   42.5920 C   0  0  0  0  0  0  0  0  0  0  0  0
   45.1660   35.7020   43.4210 C   0  0  0  0  0  0  0  0  0  0  0  0
   43.9020   35.4330   42.9990 N   0  0  0  0  0  0  0  0  0  0  0  0
   43.6690   34.8010   41.8460 C   0  0  0  0  0  0  0  0  0  0  0  0
   44.6840   34.3870   41.0200 N   0  0  0  0  0  0  0  0  0  0  0  0
   47.0900   34.1960   40.5470 C   0  0  0  0  0  0  0  0  0  0  0  0
   42.1176   33.8116   42.3115 H   0  0  0  0  0  0  0  0  0  0  0  0
   40.4809   35.8723   40.9760 H   0  0  0  0  0  0  0  0  0  0  0  0
   41.7135   36.7284   40.5919 H   0  0  0  0  0  0  0  0  0  0  0  0
   42.4607   34.2300   39.1526 H   0  0  0  0  0  0  0  0  0  0  0  0
   41.4198   32.4995   39.3439 H   0  0  0  0  0  0  0  0  0  0  0  0
   40.4478   35.0493   38.1296 H   0  0  0  0  0  0  0  0  0  0  0  0
   41.2090   33.5456   37.3873 H   0  0  0  0  0  0  0  0  0  0  0  0
   38.9175   33.8893   36.6581 H   0  0  0  0  0  0  0  0  0  0  0  0
   39.1609   32.3649   37.5858 H   0  0  0  0  0  0  0  0  0  0  0  0
   37.5502   34.7539   38.2130 H   0  0  0  0  0  0  0  0  0  0  0  0
   37.3933   33.0366   38.7637 H   0  0  0  0  0  0  0  0  0  0  0  0
   39.1166   35.2586   39.9153 H   0  0  0  0  0  0  0  0  0  0  0  0
   37.8986   34.2309   40.7389 H   0  0  0  0  0  0  0  0  0  0  0  0
   40.0232   33.4835   41.3479 H   0  0  0  0  0  0  0  0  0  0  0  0
   39.4875   31.7977   39.1963 H   0  0  0  0  0  0  0  0  0  0  0  0
   37.5306   32.1515   41.6719 H   0  0  0  0  0  0  0  0  0  0  0  0
   37.1583   30.8762   40.8420 H   0  0  0  0  0  0  0  0  0  0  0  0
   39.7215   29.9234   41.4396 H   0  0  0  0  0  0  0  0  0  0  0  0
   39.9973   31.0510   42.4674 H   0  0  0  0  0  0  0  0  0  0  0  0
   47.3052   35.4803   42.8866 H   0  0  0  0  0  0  0  0  0  0  0  0
   45.3439   36.2234   44.3731 H   0  0  0  0  0  0  0  0  0  0  0  0
   47.9250   33.8764   41.1878 H   0  0  0  0  0  0  0  0  0  0  0  0
   46.7728   33.3557   39.9119 H   0  0  0  0  0  0  0  0  0  0  0  0
   47.4148   35.0334   39.9119 H   0  0  0  0  0  0  0  0  0  0  0  0
  1 17  1  0
  2  1  1  0
  3  2  1  0
  3  1  1  0
  4  3  1  0
  4  9  1  0
  5  4  1  0
  6  5  1  0
  6  7  1  0
  7  8  1  0
  8  9  1  0
 10  9  1  0
 10 11  1  0
 10 12  1  0
 11 12  1  0
 13 14  2  0
 14 15  1  0
 16 15  2  0
 17 16  1  0
 18 13  1  0
 18 17  2  0
 19 13  1  0
  1 20  1  1
  2 21  1  0
  2 22  1  0
  3 23  1  6
  4 24  1  6
  5 25  1  0
  5 26  1  0
  6 27  1  0
  6 28  1  0
  7 29  1  0
  7 30  1  0
  8 31  1  0
  8 32  1  0
  9 33  1  1
 10 34  1  0
 11 35  1  0
 11 36  1  0
 12 37  1  0
 12 38  1  0
 14 39  1  0
 15 40  1  0
 19 41  1  0
 19 42  1  0
 19 43  1  0
M  ISO  8  20  13  21  13  22  13  23  13  24  13  25  13  26  13  27  13
M  ISO  8  28  13  29  13  30  13  31  13  32  13  33  13  34  13  35  13
M  ISO  8  36  13  37  13  38  13  39  14  40  14  41   8  42   8  43   8
M  END
>  <minimizedAffinity>  (1) 
-5.49027157

>  <minimizedRMSD>  (1) 
1.15683866

$$$$
