
     RDKit          3D

 37 39  0  0  1  0  0  0  0  0999 V2000
   42.4590   34.4180   41.1930 C   0  0  1  0  0  0  0  0  0  0  0  0
   41.5830   35.6630   40.9020 C   0  0  0  0  0  0  0  0  0  0  0  0
   42.0510   34.7980   39.8570 C   0  0  2  0  0  0  0  0  0  0  0  0
   41.1630   33.9610   38.9680 C   0  0  2  0  0  0  0  0  0  0  0  0
   40.2650   34.8720   38.1560 C   0  0  0  0  0  0  0  0  0  0  0  0
   39.0240   34.1890   37.6660 C   0  0  0  0  0  0  0  0  0  0  0  0
   38.2200   33.6880   38.8250 C   0  0  0  0  0  0  0  0  0  0  0  0
   39.0580   33.6570   40.1200 C   0  0  0  0  0  0  0  0  0  0  0  0
   40.3220   33.0310   39.7460 C   0  0  1  0  0  0  0  0  0  0  0  0
   39.8870   31.6310   38.6360 S   0  0  0  0  0  0  0  0  0  0  0  0
   46.1290   34.6550   41.3490 C   0  0  0  0  0  0  0  0  0  0  0  0
   46.3510   35.2540   42.6090 C   0  0  0  0  0  0  0  0  0  0  0  0
   45.2160   35.5890   43.3960 C   0  0  0  0  0  0  0  0  0  0  0  0
   44.0020   35.3090   42.8860 N   0  0  0  0  0  0  0  0  0  0  0  0
   43.8200   34.7430   41.6960 C   0  0  0  0  0  0  0  0  0  0  0  0
   44.8790   34.4000   40.8940 N   0  0  0  0  0  0  0  0  0  0  0  0
   47.3150   34.2910   40.5320 C   0  0  0  0  0  0  0  0  0  0  0  0
   42.4089   33.4763   41.7593 H   0  0  0  0  0  0  0  0  0  0  0  0
   40.5192   35.6717   41.1816 H   0  0  0  0  0  0  0  0  0  0  0  0
   41.6413   36.7391   41.1223 H   0  0  0  0  0  0  0  0  0  0  0  0
   42.6055   34.9857   38.9257 H   0  0  0  0  0  0  0  0  0  0  0  0
   41.8138   33.3657   38.3107 H   0  0  0  0  0  0  0  0  0  0  0  0
   39.9702   35.7247   38.7853 H   0  0  0  0  0  0  0  0  0  0  0  0
   40.8352   35.1912   37.2711 H   0  0  0  0  0  0  0  0  0  0  0  0
   38.4206   34.9031   37.0864 H   0  0  0  0  0  0  0  0  0  0  0  0
   39.3090   33.3373   37.0309 H   0  0  0  0  0  0  0  0  0  0  0  0
   37.3553   34.3513   38.9741 H   0  0  0  0  0  0  0  0  0  0  0  0
   37.8913   32.6625   38.6008 H   0  0  0  0  0  0  0  0  0  0  0  0
   39.2290   34.6777   40.4928 H   0  0  0  0  0  0  0  0  0  0  0  0
   38.5494   33.1054   40.9244 H   0  0  0  0  0  0  0  0  0  0  0  0
   40.8715   32.7238   40.6480 H   0  0  0  0  0  0  0  0  0  0  0  0
   39.5476   30.5387   39.3901 H   0  0  0  0  0  0  0  0  0  0  0  0
   47.3706   35.4549   42.9697 H   0  0  0  0  0  0  0  0  0  0  0  0
   45.3253   36.0593   44.3844 H   0  0  0  0  0  0  0  0  0  0  0  0
   48.1530   34.0338   41.1965 H   0  0  0  0  0  0  0  0  0  0  0  0
   47.0716   33.4262   39.8973 H   0  0  0  0  0  0  0  0  0  0  0  0
   47.5986   35.1434   39.8973 H   0  0  0  0  0  0  0  0  0  0  0  0
  1 15  1  0
  2  1  1  0
  3  2  1  0
  3  1  1  0
  4  9  1  0
  4  3  1  0
  5  4  1  0
  6  5  1  0
  6  7  1  0
  7  8  1  0
  9  8  1  0
 10  9  1  0
 11 12  2  0
 12 13  1  0
 14 13  2  0
 15 14  1  0
 16 11  1  0
 16 15  2  0
 17 11  1  0
  1 18  1  1
  2 19  1  0
  2 20  1  0
  3 21  1  6
  4 22  1  6
  5 23  1  0
  5 24  1  0
  6 25  1  0
  6 26  1  0
  7 27  1  0
  7 28  1  0
  8 29  1  0
  8 30  1  0
  9 31  1  1
 10 32  1  0
 12 33  1  0
 13 34  1  0
 17 35  1  0
 17 36  1  0
 17 37  1  0
M  ISO  8  18  13  19  13  20  13  21  13  22  13  23  13  24  13  25  13
M  ISO  8  26  13  27  13  28  13  29  13  30  13  31  13  32  11  33  14
M  ISO  4  34  14  35   8  36   8  37   8
M  END
>  <minimizedAffinity>  (1) 
-5.48668718

>  <minimizedRMSD>  (1) 
0.0448743254

$$$$
