
     RDKit          3D

 38 40  0  0  1  0  0  0  0  0999 V2000
   42.5390   34.4010   41.0820 C   0  0  1  0  0  0  0  0  0  0  0  0
   41.6340   35.6390   40.8510 C   0  0  0  0  0  0  0  0  0  0  0  0
   42.1520   34.8720   39.7630 C   0  0  2  0  0  0  0  0  0  0  0  0
   41.2830   34.1160   38.7900 C   0  0  2  0  0  0  0  0  0  0  0  0
   40.2970   35.0250   38.1310 C   0  0  0  0  0  0  0  0  0  0  0  0
   39.0930   34.2960   37.5870 C   0  0  0  0  0  0  0  0  0  0  0  0
   38.3570   33.6340   38.7130 C   0  0  0  0  0  0  0  0  0  0  0  0
   39.2590   33.4460   39.9270 C   0  0  0  0  0  0  0  0  0  0  0  0
   40.5620   33.0030   39.4670 C   0  0  1  0  0  0  0  0  0  0  0  0
   40.4260   31.8900   38.4990 C   0  0  0  0  0  0  0  0  0  0  0  0
   41.0170   31.3550   37.5990 O   0  0  0  0  0  0  0  0  0  0  0  0
   46.1930   34.6390   41.3720 C   0  0  0  0  0  0  0  0  0  0  0  0
   46.3730   35.2240   42.6490 C   0  0  0  0  0  0  0  0  0  0  0  0
   45.2140   35.5480   43.3950 C   0  0  0  0  0  0  0  0  0  0  0  0
   44.0060   35.2780   42.8450 N   0  0  0  0  0  0  0  0  0  0  0  0
   43.8800   34.7240   41.6330 C   0  0  0  0  0  0  0  0  0  0  0  0
   44.9680   34.3900   40.8640 N   0  0  0  0  0  0  0  0  0  0  0  0
   47.4070   34.2800   40.5900 C   0  0  0  0  0  0  0  0  0  0  0  0
   42.5003   33.4224   41.5828 H   0  0  0  0  0  0  0  0  0  0  0  0
   40.5631   35.5975   41.0989 H   0  0  0  0  0  0  0  0  0  0  0  0
   41.6551   36.6975   41.1496 H   0  0  0  0  0  0  0  0  0  0  0  0
   42.7398   35.1242   38.8681 H   0  0  0  0  0  0  0  0  0  0  0  0
   41.9458   33.6931   38.0207 H   0  0  0  0  0  0  0  0  0  0  0  0
   39.9544   35.7647   38.8696 H   0  0  0  0  0  0  0  0  0  0  0  0
   40.8061   35.4996   37.2792 H   0  0  0  0  0  0  0  0  0  0  0  0
   38.4266   35.0128   37.0850 H   0  0  0  0  0  0  0  0  0  0  0  0
   39.4219   33.5331   36.8660 H   0  0  0  0  0  0  0  0  0  0  0  0
   37.4985   34.2602   38.9976 H   0  0  0  0  0  0  0  0  0  0  0  0
   38.0196   32.6436   38.3735 H   0  0  0  0  0  0  0  0  0  0  0  0
   39.3600   34.3997   40.4657 H   0  0  0  0  0  0  0  0  0  0  0  0
   38.8249   32.6987   40.6075 H   0  0  0  0  0  0  0  0  0  0  0  0
   41.1259   32.6667   40.3496 H   0  0  0  0  0  0  0  0  0  0  0  0
   39.4621   31.3838   38.6561 H   0  0  0  0  0  0  0  0  0  0  0  0
   47.3792   35.4201   43.0479 H   0  0  0  0  0  0  0  0  0  0  0  0
   45.2923   36.0057   44.3922 H   0  0  0  0  0  0  0  0  0  0  0  0
   48.2288   34.0370   41.2796 H   0  0  0  0  0  0  0  0  0  0  0  0
   47.1901   33.4075   39.9561 H   0  0  0  0  0  0  0  0  0  0  0  0
   47.6995   35.1301   39.9561 H   0  0  0  0  0  0  0  0  0  0  0  0
  1 16  1  0
  2  1  1  0
  3  2  1  0
  3  1  1  0
  4  9  1  0
  4  3  1  0
  5  4  1  0
  6  5  1  0
  6  7  1  0
  7  8  1  0
  9  8  1  0
 10  9  1  0
 11 10  2  0
 12 13  2  0
 13 14  1  0
 15 14  2  0
 16 15  1  0
 17 12  1  0
 17 16  2  0
 18 12  1  0
  1 19  1  1
  2 20  1  0
  2 21  1  0
  3 22  1  6
  4 23  1  6
  5 24  1  0
  5 25  1  0
  6 26  1  0
  6 27  1  0
  7 28  1  0
  7 29  1  0
  8 30  1  0
  8 31  1  0
  9 32  1  1
 10 33  1  0
 13 34  1  0
 14 35  1  0
 18 36  1  0
 18 37  1  0
 18 38  1  0
M  ISO  8  19  13  20  13  21  13  22  13  23  13  24  13  25  13  26  13
M  ISO  8  27  13  28  13  29  13  30  13  31  13  32  13  33   6  34  14
M  ISO  4  35  14  36   8  37   8  38   8
M  END
>  <minimizedAffinity>  (1) 
-5.31208611

>  <minimizedRMSD>  (1) 
0.415022045

$$$$
