
     RDKit          3D

 39 41  0  0  1  0  0  0  0  0999 V2000
   41.2150   34.0530   38.8630 C   0  0  2  0  0  0  0  0  0  0  0  0
   40.2450   34.9670   38.1750 C   0  0  0  0  0  0  0  0  0  0  0  0
   39.0310   34.2370   37.6630 C   0  0  0  0  0  0  0  0  0  0  0  0
   38.2780   33.6450   38.8200 C   0  0  0  0  0  0  0  0  0  0  0  0
   39.1840   33.4880   40.0390 C   0  0  0  0  0  0  0  0  0  0  0  0
   40.4820   32.9830   39.5840 C   0  0  1  0  0  0  0  0  0  0  0  0
   42.4990   34.3970   41.1310 C   0  0  1  0  0  0  0  0  0  0  0  0
   41.6110   35.6450   40.8770 C   0  0  0  0  0  0  0  0  0  0  0  0
   42.0980   34.8390   39.8080 C   0  0  2  0  0  0  0  0  0  0  0  0
   46.1630   34.6390   41.3530 C   0  0  0  0  0  0  0  0  0  0  0  0
   46.3620   35.2360   42.6190 C   0  0  0  0  0  0  0  0  0  0  0  0
   45.2100   35.5640   43.3850 C   0  0  0  0  0  0  0  0  0  0  0  0
   43.9940   35.2870   42.8570 N   0  0  0  0  0  0  0  0  0  0  0  0
   43.8530   34.7200   41.6530 C   0  0  0  0  0  0  0  0  0  0  0  0
   44.9260   34.3810   40.8680 N   0  0  0  0  0  0  0  0  0  0  0  0
   47.3680   34.2830   40.5590 C   0  0  0  0  0  0  0  0  0  0  0  0
   40.3040   31.8270   38.6780 C   0  0  0  0  0  0  0  0  0  0  0  0
   39.4850   30.8950   38.5690 O   0  0  0  0  0  0  0  0  0  0  0  0
   41.3290   31.7970   37.7100 O   0  0  0  0  0  0  0  0  0  0  0  0
   41.8607   33.5806   38.1080 H   0  0  0  0  0  0  0  0  0  0  0  0
   39.9186   35.7375   38.8890 H   0  0  0  0  0  0  0  0  0  0  0  0
   40.7589   35.4106   37.3095 H   0  0  0  0  0  0  0  0  0  0  0  0
   38.3802   34.9409   37.1236 H   0  0  0  0  0  0  0  0  0  0  0  0
   39.3466   33.4335   36.9812 H   0  0  0  0  0  0  0  0  0  0  0  0
   37.4380   34.3064   39.0788 H   0  0  0  0  0  0  0  0  0  0  0  0
   37.9093   32.6510   38.5267 H   0  0  0  0  0  0  0  0  0  0  0  0
   39.3159   34.4621   40.5326 H   0  0  0  0  0  0  0  0  0  0  0  0
   38.7349   32.7870   40.7579 H   0  0  0  0  0  0  0  0  0  0  0  0
   41.0560   32.6644   40.4666 H   0  0  0  0  0  0  0  0  0  0  0  0
   42.4535   33.4324   41.6578 H   0  0  0  0  0  0  0  0  0  0  0  0
   40.5435   35.6298   41.1418 H   0  0  0  0  0  0  0  0  0  0  0  0
   41.6547   36.7113   41.1437 H   0  0  0  0  0  0  0  0  0  0  0  0
   42.6688   35.0660   38.8955 H   0  0  0  0  0  0  0  0  0  0  0  0
   47.3741   35.4399   42.9986 H   0  0  0  0  0  0  0  0  0  0  0  0
   45.3036   36.0291   44.3774 H   0  0  0  0  0  0  0  0  0  0  0  0
   48.1966   34.0382   41.2398 H   0  0  0  0  0  0  0  0  0  0  0  0
   47.1451   33.4123   39.9248 H   0  0  0  0  0  0  0  0  0  0  0  0
   47.6541   35.1350   39.9248 H   0  0  0  0  0  0  0  0  0  0  0  0
   41.3462   31.0783   37.0294 H   0  0  0  0  0  0  0  0  0  0  0  0
  1  6  1  0
  1  9  1  0
  2  1  1  0
  3  2  1  0
  3  4  1  0
  4  5  1  0
  6  5  1  0
  7 14  1  0
  8  7  1  0
  9  8  1  0
  9  7  1  0
 10 11  2  0
 11 12  1  0
 13 12  2  0
 14 13  1  0
 15 10  1  0
 15 14  2  0
 16 10  1  0
 17  6  1  0
 18 17  2  0
 19 17  1  0
  1 20  1  6
  2 21  1  0
  2 22  1  0
  3 23  1  0
  3 24  1  0
  4 25  1  0
  4 26  1  0
  5 27  1  0
  5 28  1  0
  6 29  1  1
  7 30  1  1
  8 31  1  0
  8 32  1  0
  9 33  1  6
 11 34  1  0
 12 35  1  0
 16 36  1  0
 16 37  1  0
 16 38  1  0
 19 39  1  0
M  ISO  8  20  13  21  13  22  13  23  13  24  13  25  13  26  13  27  13
M  ISO  8  28  13  29  13  30  13  31  13  32  13  33  13  34  14  35  14
M  ISO  4  36   8  37   8  38   8  39   3
M  END
>  <minimizedAffinity>  (1) 
-5.47610569

>  <minimizedRMSD>  (1) 
0.550231278

$$$$
