
     RDKit          3D

 47 50  0  0  1  0  0  0  0  0999 V2000
   41.1710   33.8550   39.4230 C   0  0  2  0  0  0  0  0  0  0  0  0
   40.1950   34.7900   38.7440 C   0  0  0  0  0  0  0  0  0  0  0  0
   38.8750   34.1190   38.4580 C   0  0  0  0  0  0  0  0  0  0  0  0
   38.2380   33.7270   39.7450 C   0  0  0  0  0  0  0  0  0  0  0  0
   39.2720   33.6100   40.8610 C   0  0  0  0  0  0  0  0  0  0  0  0
   40.4580   32.9550   40.3260 C   0  0  1  0  0  0  0  0  0  0  0  0
   42.7570   34.3380   41.4510 C   0  0  1  0  0  0  0  0  0  0  0  0
   41.9900   35.6560   41.0870 C   0  0  0  0  0  0  0  0  0  0  0  0
   42.2360   34.6390   40.1490 C   0  0  2  0  0  0  0  0  0  0  0  0
   46.4200   34.4660   41.0750 C   0  0  0  0  0  0  0  0  0  0  0  0
   46.8520   34.9080   42.3360 C   0  0  0  0  0  0  0  0  0  0  0  0
   45.8530   35.1720   43.3190 C   0  0  0  0  0  0  0  0  0  0  0  0
   44.5560   34.9800   42.9760 N   0  0  0  0  0  0  0  0  0  0  0  0
   44.1990   34.5610   41.7670 C   0  0  0  0  0  0  0  0  0  0  0  0
   45.1090   34.2870   40.7690 N   0  0  0  0  0  0  0  0  0  0  0  0
   47.4570   34.1640   40.0380 C   0  0  0  0  0  0  0  0  0  0  0  0
   40.0720   31.7220   39.5920 C   0  0  0  0  0  0  0  0  0  0  0  0
   39.2490   30.8060   39.7730 O   0  0  0  0  0  0  0  0  0  0  0  0
   40.8400   31.5830   38.4150 O   0  0  0  0  0  0  0  0  0  0  0  0
   40.2670   30.7280   37.3680 C   0  0  0  0  0  0  0  0  0  0  0  0
   41.0260   29.6760   36.8690 C   0  0  0  0  0  0  0  0  0  0  0  0
   40.4420   28.9030   35.8860 C   0  0  0  0  0  0  0  0  0  0  0  0
   39.1830   29.1520   35.4210 N   0  0  0  0  0  0  0  0  0  0  0  0
   38.5190   30.1850   35.9550 C   0  0  0  0  0  0  0  0  0  0  0  0
   39.0450   30.9680   36.9160 N   0  0  0  0  0  0  0  0  0  0  0  0
   41.6728   33.2426   38.6594 H   0  0  0  0  0  0  0  0  0  0  0  0
   40.0186   35.6559   39.3990 H   0  0  0  0  0  0  0  0  0  0  0  0
   40.6335   35.0999   37.7839 H   0  0  0  0  0  0  0  0  0  0  0  0
   38.2168   34.8161   37.9187 H   0  0  0  0  0  0  0  0  0  0  0  0
   39.0407   33.2247   37.8394 H   0  0  0  0  0  0  0  0  0  0  0  0
   37.4944   34.4883   40.0235 H   0  0  0  0  0  0  0  0  0  0  0  0
   37.7585   32.7461   39.6111 H   0  0  0  0  0  0  0  0  0  0  0  0
   39.5359   34.6125   41.2288 H   0  0  0  0  0  0  0  0  0  0  0  0
   38.8611   33.0224   41.6952 H   0  0  0  0  0  0  0  0  0  0  0  0
   41.1179   32.6892   41.1650 H   0  0  0  0  0  0  0  0  0  0  0  0
   42.6750   33.4704   42.1222 H   0  0  0  0  0  0  0  0  0  0  0  0
   40.9719   35.8307   41.4652 H   0  0  0  0  0  0  0  0  0  0  0  0
   42.1906   36.7353   41.1573 H   0  0  0  0  0  0  0  0  0  0  0  0
   42.7065   34.6443   39.1547 H   0  0  0  0  0  0  0  0  0  0  0  0
   47.9207   35.0454   42.5572 H   0  0  0  0  0  0  0  0  0  0  0  0
   46.1270   35.5210   44.3255 H   0  0  0  0  0  0  0  0  0  0  0  0
   48.4006   33.8892   40.5322 H   0  0  0  0  0  0  0  0  0  0  0  0
   47.1150   33.3281   39.4100 H   0  0  0  0  0  0  0  0  0  0  0  0
   47.6173   35.0528   39.4100 H   0  0  0  0  0  0  0  0  0  0  0  0
   42.0412   29.4698   37.2390 H   0  0  0  0  0  0  0  0  0  0  0  0
   41.0088   28.0599   35.4641 H   0  0  0  0  0  0  0  0  0  0  0  0
   37.5030   30.4027   35.5941 H   0  0  0  0  0  0  0  0  0  0  0  0
  1  9  1  0
  1  6  1  0
  2  1  1  0
  3  2  1  0
  3  4  1  0
  4  5  1  0
  6  5  1  0
  7 14  1  0
  8  7  1  0
  9  8  1  0
  9  7  1  0
 10 11  2  0
 11 12  1  0
 13 12  2  0
 14 13  1  0
 15 10  1  0
 15 14  2  0
 16 10  1  0
 17 18  2  0
 17  6  1  0
 19 17  1  0
 20 19  1  0
 21 20  2  0
 22 21  1  0
 23 22  2  0
 23 24  1  0
 24 25  2  0
 25 20  1  0
  1 26  1  6
  2 27  1  0
  2 28  1  0
  3 29  1  0
  3 30  1  0
  4 31  1  0
  4 32  1  0
  5 33  1  0
  5 34  1  0
  6 35  1  1
  7 36  1  1
  8 37  1  0
  8 38  1  0
  9 39  1  6
 11 40  1  0
 12 41  1  0
 16 42  1  0
 16 43  1  0
 16 44  1  0
 21 45  1  0
 22 46  1  0
 24 47  1  0
M  ISO  8  26  13  27  13  28  13  29  13  30  13  31  13  32  13  33  13
M  ISO  8  34  13  35  13  36  13  37  13  38  13  39  13  40  14  41  14
M  ISO  6  42   8  43   8  44   8  45  14  46  14  47  14
M  END
>  <minimizedAffinity>  (1) 
-5.53346062

>  <minimizedRMSD>  (1) 
1.08253121

$$$$
