
     RDKit          3D

 46 49  0  0  1  0  0  0  0  0999 V2000
   41.0980   33.8200   39.3990 C   0  0  2  0  0  0  0  0  0  0  0  0
   40.0910   34.7180   38.7160 C   0  0  0  0  0  0  0  0  0  0  0  0
   38.7780   34.0190   38.4760 C   0  0  0  0  0  0  0  0  0  0  0  0
   38.1730   33.6490   39.7860 C   0  0  0  0  0  0  0  0  0  0  0  0
   39.2330   33.5800   40.8810 C   0  0  0  0  0  0  0  0  0  0  0  0
   40.4200   32.9310   40.3370 C   0  0  1  0  0  0  0  0  0  0  0  0
   42.6260   34.4570   41.4270 C   0  0  1  0  0  0  0  0  0  0  0  0
   41.9170   35.7560   40.9040 C   0  0  0  0  0  0  0  0  0  0  0  0
   42.1620   34.6430   40.0820 C   0  0  2  0  0  0  0  0  0  0  0  0
   46.2980   34.5070   41.1510 C   0  0  0  0  0  0  0  0  0  0  0  0
   46.6980   35.0050   42.4130 C   0  0  0  0  0  0  0  0  0  0  0  0
   45.6830   35.3260   43.3420 C   0  0  0  0  0  0  0  0  0  0  0  0
   44.3930   35.1390   42.9730 N   0  0  0  0  0  0  0  0  0  0  0  0
   44.0640   34.6690   41.7750 C   0  0  0  0  0  0  0  0  0  0  0  0
   44.9940   34.3340   40.8150 N   0  0  0  0  0  0  0  0  0  0  0  0
   47.3610   34.1400   40.1610 C   0  0  0  0  0  0  0  0  0  0  0  0
   40.0370   31.6740   39.6460 C   0  0  0  0  0  0  0  0  0  0  0  0
   39.2530   30.7430   39.8750 O   0  0  0  0  0  0  0  0  0  0  0  0
   40.7570   31.5340   38.4380 O   0  0  0  0  0  0  0  0  0  0  0  0
   40.1780   30.7160   37.3820 C   0  0  0  0  0  0  0  0  0  0  0  0
   38.9060   30.8360   36.8640 C   0  0  0  0  0  0  0  0  0  0  0  0
   38.8670   29.8370   35.9030 C   0  0  0  0  0  0  0  0  0  0  0  0
   40.0490   29.1650   35.8560 N   0  0  0  0  0  0  0  0  0  0  0  0
   40.8400   29.7090   36.7600 N   0  0  0  0  0  0  0  0  0  0  0  0
   41.5976   33.1970   38.6425 H   0  0  0  0  0  0  0  0  0  0  0  0
   39.9131   35.5984   39.3510 H   0  0  0  0  0  0  0  0  0  0  0  0
   40.5040   35.0073   37.7384 H   0  0  0  0  0  0  0  0  0  0  0  0
   38.0972   34.6912   37.9332 H   0  0  0  0  0  0  0  0  0  0  0  0
   38.9466   33.1116   37.8775 H   0  0  0  0  0  0  0  0  0  0  0  0
   37.4215   34.4039   40.0606 H   0  0  0  0  0  0  0  0  0  0  0  0
   37.7072   32.6573   39.6879 H   0  0  0  0  0  0  0  0  0  0  0  0
   39.4868   34.5965   41.2161 H   0  0  0  0  0  0  0  0  0  0  0  0
   38.8510   33.0077   41.7392 H   0  0  0  0  0  0  0  0  0  0  0  0
   41.1047   32.6970   41.1655 H   0  0  0  0  0  0  0  0  0  0  0  0
   42.4909   33.6632   42.1765 H   0  0  0  0  0  0  0  0  0  0  0  0
   40.8925   35.9984   41.2228 H   0  0  0  0  0  0  0  0  0  0  0  0
   42.1514   36.8303   40.8748 H   0  0  0  0  0  0  0  0  0  0  0  0
   42.6672   34.5368   39.1106 H   0  0  0  0  0  0  0  0  0  0  0  0
   47.7612   35.1376   42.6622 H   0  0  0  0  0  0  0  0  0  0  0  0
   45.9337   35.7176   44.3389 H   0  0  0  0  0  0  0  0  0  0  0  0
   48.2689   33.8265   40.6971 H   0  0  0  0  0  0  0  0  0  0  0  0
   47.0042   33.3130   39.5295 H   0  0  0  0  0  0  0  0  0  0  0  0
   47.5904   35.0110   39.5295 H   0  0  0  0  0  0  0  0  0  0  0  0
   38.1164   31.5488   37.1441 H   0  0  0  0  0  0  0  0  0  0  0  0
   37.9981   29.6176   35.2651 H   0  0  0  0  0  0  0  0  0  0  0  0
   40.2821   28.3794   35.2319 H   0  0  0  0  0  0  0  0  0  0  0  0
  1  9  1  0
  1  6  1  0
  2  1  1  0
  3  2  1  0
  3  4  1  0
  4  5  1  0
  6  5  1  0
  7 14  1  0
  8  7  1  0
  9  8  1  0
  9  7  1  0
 10 11  2  0
 11 12  1  0
 13 12  2  0
 14 13  1  0
 15 10  1  0
 15 14  2  0
 16 10  1  0
 17 18  2  0
 17  6  1  0
 19 17  1  0
 20 19  1  0
 21 20  1  0
 22 21  2  0
 23 22  1  0
 23 24  1  0
 24 20  2  0
  1 25  1  6
  2 26  1  0
  2 27  1  0
  3 28  1  0
  3 29  1  0
  4 30  1  0
  4 31  1  0
  5 32  1  0
  5 33  1  0
  6 34  1  1
  7 35  1  1
  8 36  1  0
  8 37  1  0
  9 38  1  6
 11 39  1  0
 12 40  1  0
 16 41  1  0
 16 42  1  0
 16 43  1  0
 21 44  1  0
 22 45  1  0
 23 46  1  0
M  ISO  8  25  13  26  13  27  13  28  13  29  13  30  13  31  13  32  13
M  ISO  8  33  13  34  13  35  13  36  13  37  13  38  13  39  14  40  14
M  ISO  6  41   8  42   8  43   8  44  14  45  14  46   9
M  END
>  <minimizedAffinity>  (1) 
-5.41537857

>  <minimizedRMSD>  (1) 
1.06534195

$$$$
