
     RDKit          3D

 51 53  0  0  1  0  0  0  0  0999 V2000
   40.8660   33.0760   39.6590 C   0  0  2  0  0  0  0  0  0  0  0  0
   40.4610   33.2070   38.2170 C   0  0  0  0  0  0  0  0  0  0  0  0
   39.0660   32.6900   37.9700 C   0  0  0  0  0  0  0  0  0  0  0  0
   38.0980   33.5220   38.7370 C   0  0  0  0  0  0  0  0  0  0  0  0
   38.7790   34.2210   39.9100 C   0  0  0  0  0  0  0  0  0  0  0  0
   39.7080   33.2870   40.5250 C   0  0  1  0  0  0  0  0  0  0  0  0
   42.2390   34.6140   41.2740 C   0  0  1  0  0  0  0  0  0  0  0  0
   41.8850   35.4280   39.9810 C   0  0  0  0  0  0  0  0  0  0  0  0
   41.9880   34.0260   39.9890 C   0  0  2  0  0  0  0  0  0  0  0  0
   45.9180   34.5500   41.4060 C   0  0  0  0  0  0  0  0  0  0  0  0
   46.1970   35.2130   42.6200 C   0  0  0  0  0  0  0  0  0  0  0  0
   45.1030   35.6810   43.3780 C   0  0  0  0  0  0  0  0  0  0  0  0
   43.8610   35.4670   42.8960 N   0  0  0  0  0  0  0  0  0  0  0  0
   43.6390   34.8390   41.7480 C   0  0  0  0  0  0  0  0  0  0  0  0
   44.6560   34.3540   40.9530 N   0  0  0  0  0  0  0  0  0  0  0  0
   47.0670   34.0220   40.6030 C   0  0  0  0  0  0  0  0  0  0  0  0
   39.0290   31.9910   40.7890 C   0  0  0  0  0  0  0  0  0  0  0  0
   37.8870   31.6640   41.1320 O   0  0  0  0  0  0  0  0  0  0  0  0
   39.9100   30.9260   40.5980 O   0  0  0  0  0  0  0  0  0  0  0  0
   40.3130   30.0540   41.6880 C   0  0  0  0  0  0  0  0  0  0  0  0
   39.2670   29.1300   42.1590 C   0  0  0  0  0  0  0  0  0  0  0  0
   40.6830   30.9600   42.8430 C   0  0  0  0  0  0  0  0  0  0  0  0
   41.5430   29.3100   41.2830 C   0  0  0  0  0  0  0  0  0  0  0  0
   41.2410   32.0567   39.8334 H   0  0  0  0  0  0  0  0  0  0  0  0
   40.5013   34.2688   37.9324 H   0  0  0  0  0  0  0  0  0  0  0  0
   41.1568   32.6053   37.6139 H   0  0  0  0  0  0  0  0  0  0  0  0
   38.8349   32.7507   36.8963 H   0  0  0  0  0  0  0  0  0  0  0  0
   38.9950   31.6417   38.2957 H   0  0  0  0  0  0  0  0  0  0  0  0
   37.6682   34.2814   38.0673 H   0  0  0  0  0  0  0  0  0  0  0  0
   37.3107   32.8639   39.1333 H   0  0  0  0  0  0  0  0  0  0  0  0
   39.3253   35.1049   39.5492 H   0  0  0  0  0  0  0  0  0  0  0  0
   38.0272   34.5449   40.6448 H   0  0  0  0  0  0  0  0  0  0  0  0
   40.0532   33.7123   41.4789 H   0  0  0  0  0  0  0  0  0  0  0  0
   41.8522   34.4264   42.2865 H   0  0  0  0  0  0  0  0  0  0  0  0
   42.6502   36.0400   39.4810 H   0  0  0  0  0  0  0  0  0  0  0  0
   41.1212   36.1652   39.6926 H   0  0  0  0  0  0  0  0  0  0  0  0
   42.5722   33.3206   39.3798 H   0  0  0  0  0  0  0  0  0  0  0  0
   47.2316   35.3599   42.9635 H   0  0  0  0  0  0  0  0  0  0  0  0
   45.2578   36.2045   44.3330 H   0  0  0  0  0  0  0  0  0  0  0  0
   47.8534   33.6606   41.2819 H   0  0  0  0  0  0  0  0  0  0  0  0
   46.7206   33.1927   39.9687 H   0  0  0  0  0  0  0  0  0  0  0  0
   47.4707   34.8249   39.9687 H   0  0  0  0  0  0  0  0  0  0  0  0
   39.2552   29.1195   43.2589 H   0  0  0  0  0  0  0  0  0  0  0  0
   38.2877   29.4633   41.7849 H   0  0  0  0  0  0  0  0  0  0  0  0
   39.4770   28.1171   41.7849 H   0  0  0  0  0  0  0  0  0  0  0  0
   40.4735   30.4469   43.7932 H   0  0  0  0  0  0  0  0  0  0  0  0
   41.7537   31.2061   42.7875 H   0  0  0  0  0  0  0  0  0  0  0  0
   40.0907   31.8853   42.7875 H   0  0  0  0  0  0  0  0  0  0  0  0
   42.0856   28.9818   42.1818 H   0  0  0  0  0  0  0  0  0  0  0  0
   41.2598   28.4316   40.6845 H   0  0  0  0  0  0  0  0  0  0  0  0
   42.1895   29.9686   40.6845 H   0  0  0  0  0  0  0  0  0  0  0  0
  1  9  1  0
  1  6  1  0
  2  1  1  0
  3  2  1  0
  3  4  1  0
  4  5  1  0
  5  6  1  0
  6 17  1  0
  7 14  1  0
  8  9  1  0
  8  7  1  0
  9  7  1  0
 10 11  2  0
 11 12  1  0
 13 12  2  0
 14 13  1  0
 15 10  1  0
 15 14  2  0
 16 10  1  0
 17 18  2  0
 19 17  1  0
 19 20  1  0
 20 21  1  0
 20 22  1  0
 23 20  1  0
  1 24  1  6
  2 25  1  0
  2 26  1  0
  3 27  1  0
  3 28  1  0
  4 29  1  0
  4 30  1  0
  5 31  1  0
  5 32  1  0
  6 33  1  1
  7 34  1  1
  8 35  1  0
  8 36  1  0
  9 37  1  6
 11 38  1  0
 12 39  1  0
 16 40  1  0
 16 41  1  0
 16 42  1  0
 21 43  1  0
 21 44  1  0
 21 45  1  0
 22 46  1  0
 22 47  1  0
 22 48  1  0
 23 49  1  0
 23 50  1  0
 23 51  1  0
M  ISO  8  24  13  25  13  26  13  27  13  28  13  29  13  30  13  31  13
M  ISO  8  32  13  33  13  34  13  35  13  36  13  37  13  38  14  39  14
M  ISO  8  40   8  41   8  42   8  43   8  44   8  45   8  46   8  47   8
M  ISO  4  48   8  49   8  50   8  51   8
M  END
>  <minimizedAffinity>  (1) 
-5.54557371

>  <minimizedRMSD>  (1) 
2.78519607

$$$$
