
     RDKit          3D

 41 43  0  0  1  0  0  0  0  0999 V2000
   41.2300   34.0740   38.8950 C   0  0  2  0  0  0  0  0  0  0  0  0
   40.2350   34.9950   38.2260 C   0  0  0  0  0  0  0  0  0  0  0  0
   39.0470   34.2470   37.6770 C   0  0  0  0  0  0  0  0  0  0  0  0
   38.3090   33.6140   38.8060 C   0  0  0  0  0  0  0  0  0  0  0  0
   39.2120   33.4260   40.0200 C   0  0  0  0  0  0  0  0  0  0  0  0
   40.5230   32.9850   39.5650 C   0  0  1  0  0  0  0  0  0  0  0  0
   42.5100   34.3970   41.1590 C   0  0  1  0  0  0  0  0  0  0  0  0
   41.6240   35.6640   40.8930 C   0  0  0  0  0  0  0  0  0  0  0  0
   42.1010   34.8420   39.8580 C   0  0  2  0  0  0  0  0  0  0  0  0
   46.1780   34.6590   41.3900 C   0  0  0  0  0  0  0  0  0  0  0  0
   46.3750   35.2620   42.6420 C   0  0  0  0  0  0  0  0  0  0  0  0
   45.2130   35.5890   43.4040 C   0  0  0  0  0  0  0  0  0  0  0  0
   43.9970   35.2970   42.8740 N   0  0  0  0  0  0  0  0  0  0  0  0
   43.8710   34.7250   41.6830 C   0  0  0  0  0  0  0  0  0  0  0  0
   44.9460   34.3820   40.8910 N   0  0  0  0  0  0  0  0  0  0  0  0
   47.3890   34.2940   40.5880 C   0  0  0  0  0  0  0  0  0  0  0  0
   40.3730   31.8390   38.6270 C   0  0  0  0  0  0  0  0  0  0  0  0
   39.5770   30.8940   38.5220 O   0  0  0  0  0  0  0  0  0  0  0  0
   41.3830   31.8680   37.6470 O   0  0  0  0  0  0  0  0  0  0  0  0
   41.7540   30.6010   37.0050 C   0  0  0  0  0  0  0  0  0  0  0  0
   42.5470   30.5770   36.0300 O   0  0  0  0  0  0  0  0  0  0  0  0
   41.8898   33.6383   38.1303 H   0  0  0  0  0  0  0  0  0  0  0  0
   39.8808   35.7300   38.9638 H   0  0  0  0  0  0  0  0  0  0  0  0
   40.7433   35.4868   37.3835 H   0  0  0  0  0  0  0  0  0  0  0  0
   38.3829   34.9465   37.1482 H   0  0  0  0  0  0  0  0  0  0  0  0
   39.3877   33.4721   36.9745 H   0  0  0  0  0  0  0  0  0  0  0  0
   37.4614   34.2569   39.0857 H   0  0  0  0  0  0  0  0  0  0  0  0
   37.9551   32.6251   38.4792 H   0  0  0  0  0  0  0  0  0  0  0  0
   39.3093   34.3795   40.5597 H   0  0  0  0  0  0  0  0  0  0  0  0
   38.7783   32.6743   40.6959 H   0  0  0  0  0  0  0  0  0  0  0  0
   41.1075   32.6705   40.4422 H   0  0  0  0  0  0  0  0  0  0  0  0
   42.4662   33.4310   41.6834 H   0  0  0  0  0  0  0  0  0  0  0  0
   40.5564   35.6630   41.1582 H   0  0  0  0  0  0  0  0  0  0  0  0
   41.6749   36.7339   41.1432 H   0  0  0  0  0  0  0  0  0  0  0  0
   42.6753   35.0550   38.9443 H   0  0  0  0  0  0  0  0  0  0  0  0
   47.3855   35.4744   43.0213 H   0  0  0  0  0  0  0  0  0  0  0  0
   45.2999   36.0640   44.3924 H   0  0  0  0  0  0  0  0  0  0  0  0
   48.2172   34.0444   41.2675 H   0  0  0  0  0  0  0  0  0  0  0  0
   47.1604   33.4248   39.9537 H   0  0  0  0  0  0  0  0  0  0  0  0
   47.6788   35.1447   39.9537 H   0  0  0  0  0  0  0  0  0  0  0  0
   41.3316   29.6583   37.3829 H   0  0  0  0  0  0  0  0  0  0  0  0
  1  6  1  0
  1  9  1  0
  2  1  1  0
  3  2  1  0
  3  4  1  0
  4  5  1  0
  6  5  1  0
  7 14  1  0
  8  7  1  0
  9  8  1  0
  9  7  1  0
 10 11  2  0
 11 12  1  0
 13 12  2  0
 14 13  1  0
 15 10  1  0
 15 14  2  0
 16 10  1  0
 17  6  1  0
 18 17  2  0
 19 17  1  0
 20 19  1  0
 21 20  2  0
  1 22  1  6
  2 23  1  0
  2 24  1  0
  3 25  1  0
  3 26  1  0
  4 27  1  0
  4 28  1  0
  5 29  1  0
  5 30  1  0
  6 31  1  1
  7 32  1  1
  8 33  1  0
  8 34  1  0
  9 35  1  6
 11 36  1  0
 12 37  1  0
 16 38  1  0
 16 39  1  0
 16 40  1  0
 20 41  1  0
M  ISO  8  22  13  23  13  24  13  25  13  26  13  27  13  28  13  29  13
M  ISO  8  30  13  31  13  32  13  33  13  34  13  35  13  36  14  37  14
M  ISO  4  38   8  39   8  40   8  41   6
M  END
>  <minimizedAffinity>  (1) 
-5.20361948

>  <minimizedRMSD>  (1) 
0.299307704

$$$$
