
     RDKit          3D

 46 49  0  0  1  0  0  0  0  0999 V2000
   40.8920   33.0770   39.6820 C   0  0  2  0  0  0  0  0  0  0  0  0
   40.5170   33.1810   38.2210 C   0  0  0  0  0  0  0  0  0  0  0  0
   39.1270   32.6650   37.9550 C   0  0  0  0  0  0  0  0  0  0  0  0
   38.1440   33.5150   38.6840 C   0  0  0  0  0  0  0  0  0  0  0  0
   38.8040   34.2430   39.8520 C   0  0  0  0  0  0  0  0  0  0  0  0
   39.7170   33.3240   40.5140 C   0  0  1  0  0  0  0  0  0  0  0  0
   42.2690   34.6170   41.2950 C   0  0  1  0  0  0  0  0  0  0  0  0
   41.9000   35.4350   40.0090 C   0  0  0  0  0  0  0  0  0  0  0  0
   42.0110   34.0340   40.0110 C   0  0  2  0  0  0  0  0  0  0  0  0
   45.9540   34.5530   41.3940 C   0  0  0  0  0  0  0  0  0  0  0  0
   46.2390   35.2350   42.6010 C   0  0  0  0  0  0  0  0  0  0  0  0
   45.1520   35.7130   43.3620 C   0  0  0  0  0  0  0  0  0  0  0  0
   43.8960   35.4940   42.8960 N   0  0  0  0  0  0  0  0  0  0  0  0
   43.6740   34.8500   41.7570 C   0  0  0  0  0  0  0  0  0  0  0  0
   44.6860   34.3560   40.9630 N   0  0  0  0  0  0  0  0  0  0  0  0
   47.0990   34.0240   40.5920 C   0  0  0  0  0  0  0  0  0  0  0  0
   39.0270   32.0380   40.7950 C   0  0  0  0  0  0  0  0  0  0  0  0
   37.8670   31.7070   41.0970 O   0  0  0  0  0  0  0  0  0  0  0  0
   39.9310   30.9620   40.6820 O   0  0  0  0  0  0  0  0  0  0  0  0
   40.0910   30.0480   41.8500 C   0  0  0  0  0  0  0  0  0  0  0  0
   40.7310   30.7350   42.9930 C   0  0  0  0  0  0  0  0  0  0  0  0
   41.5480   29.8300   42.1370 C   0  0  0  0  0  0  0  0  0  0  0  0
   41.2545   32.0596   39.8904 H   0  0  0  0  0  0  0  0  0  0  0  0
   40.5680   34.2366   37.9159 H   0  0  0  0  0  0  0  0  0  0  0  0
   41.2232   32.5648   37.6452 H   0  0  0  0  0  0  0  0  0  0  0  0
   38.9195   32.7050   36.8755 H   0  0  0  0  0  0  0  0  0  0  0  0
   39.0454   31.6240   38.3010 H   0  0  0  0  0  0  0  0  0  0  0  0
   37.7261   34.2575   37.9883 H   0  0  0  0  0  0  0  0  0  0  0  0
   37.3496   32.8663   39.0817 H   0  0  0  0  0  0  0  0  0  0  0  0
   39.3614   35.1146   39.4783 H   0  0  0  0  0  0  0  0  0  0  0  0
   38.0376   34.5884   40.5615 H   0  0  0  0  0  0  0  0  0  0  0  0
   40.0427   33.7801   41.4605 H   0  0  0  0  0  0  0  0  0  0  0  0
   41.8918   34.4219   42.3097 H   0  0  0  0  0  0  0  0  0  0  0  0
   42.6577   36.0533   39.5054 H   0  0  0  0  0  0  0  0  0  0  0  0
   41.1300   36.1692   39.7298 H   0  0  0  0  0  0  0  0  0  0  0  0
   42.5944   33.3336   39.3953 H   0  0  0  0  0  0  0  0  0  0  0  0
   47.2759   35.3875   42.9351 H   0  0  0  0  0  0  0  0  0  0  0  0
   45.3176   36.2491   44.3081 H   0  0  0  0  0  0  0  0  0  0  0  0
   47.8850   33.6608   41.2704 H   0  0  0  0  0  0  0  0  0  0  0  0
   46.7506   33.1956   39.9577 H   0  0  0  0  0  0  0  0  0  0  0  0
   47.5040   34.8263   39.9577 H   0  0  0  0  0  0  0  0  0  0  0  0
   39.2036   29.4099   41.7261 H   0  0  0  0  0  0  0  0  0  0  0  0
   40.8969   31.8218   42.9560 H   0  0  0  0  0  0  0  0  0  0  0  0
   40.5229   30.8005   44.0711 H   0  0  0  0  0  0  0  0  0  0  0  0
   41.8945   28.8627   42.5298 H   0  0  0  0  0  0  0  0  0  0  0  0
   42.4813   29.9281   41.5631 H   0  0  0  0  0  0  0  0  0  0  0  0
  1  9  1  0
  1  6  1  0
  2  1  1  0
  3  2  1  0
  3  4  1  0
  4  5  1  0
  5  6  1  0
  6 17  1  0
  7 14  1  0
  8  9  1  0
  8  7  1  0
  9  7  1  0
 10 11  2  0
 11 12  1  0
 13 12  2  0
 14 13  1  0
 15 10  1  0
 15 14  2  0
 16 10  1  0
 17 18  2  0
 19 17  1  0
 19 20  1  0
 20 22  1  0
 20 21  1  0
 22 21  1  0
  1 23  1  6
  2 24  1  0
  2 25  1  0
  3 26  1  0
  3 27  1  0
  4 28  1  0
  4 29  1  0
  5 30  1  0
  5 31  1  0
  6 32  1  1
  7 33  1  1
  8 34  1  0
  8 35  1  0
  9 36  1  6
 11 37  1  0
 12 38  1  0
 16 39  1  0
 16 40  1  0
 16 41  1  0
 20 42  1  0
 21 43  1  0
 21 44  1  0
 22 45  1  0
 22 46  1  0
M  ISO  8  23  13  24  13  25  13  26  13  27  13  28  13  29  13  30  13
M  ISO  8  31  13  32  13  33  13  34  13  35  13  36  13  37  14  38  14
M  ISO  8  39   8  40   8  41   8  42  13  43  13  44  13  45  13  46  13
M  END
>  <minimizedAffinity>  (1) 
-5.41345692

>  <minimizedRMSD>  (1) 
2.48291683

$$$$
