
     RDKit          3D

 30 33  0  0  0  0  0  0  0  0999 V2000
   48.5490   35.2050   40.7210 C   0  0  0  0  0  0  0  0  0  0  0  0
   48.3010   34.0410   39.9460 C   0  0  0  0  0  0  0  0  0  0  0  0
   47.2370   33.1980   40.3360 C   0  0  0  0  0  0  0  0  0  0  0  0
   46.5050   33.5550   41.4410 N   0  0  0  0  0  0  0  0  0  0  0  0
   46.7880   34.6790   42.1420 C   0  0  0  0  0  0  0  0  0  0  0  0
   47.7830   35.4850   41.7950 N   0  0  0  0  0  0  0  0  0  0  0  0
   45.9660   34.9820   43.2970 N   0  0  0  0  0  0  0  0  0  0  0  0
   45.0980   35.9620   43.5980 C   0  0  0  0  0  0  0  0  0  0  0  0
   44.6160   35.7390   44.8320 N   0  0  0  0  0  0  0  0  0  0  0  0
   45.2000   34.5880   45.3130 C   0  0  0  0  0  0  0  0  0  0  0  0
   45.0020   33.9790   46.5410 C   0  0  0  0  0  0  0  0  0  0  0  0
   45.7060   32.8490   46.7650 N   0  0  0  0  0  0  0  0  0  0  0  0
   46.5380   32.3680   45.8360 C   0  0  0  0  0  0  0  0  0  0  0  0
   46.7020   32.9910   44.6580 N   0  0  0  0  0  0  0  0  0  0  0  0
   46.0420   34.1280   44.3410 C   0  0  0  0  0  0  0  0  0  0  0  0
   47.3370   31.1800   45.9530 C   0  0  0  0  0  0  0  0  0  0  0  0
   47.9610   30.1590   45.2710 C   0  0  0  0  0  0  0  0  0  0  0  0
   48.6470   29.2120   45.9630 C   0  0  0  0  0  0  0  0  0  0  0  0
   48.6810   29.3480   47.4920 C   0  0  0  0  0  0  0  0  0  0  0  0
   47.6510   30.9210   47.7090 S   0  0  0  0  0  0  0  0  0  0  0  0
   44.1280   34.4830   47.5120 N   0  0  0  0  0  0  0  0  0  0  0  0
   49.3705   35.8819   40.4437 H   0  0  0  0  0  0  0  0  0  0  0  0
   48.9193   33.8030   39.0679 H   0  0  0  0  0  0  0  0  0  0  0  0
   47.0021   32.2835   39.7716 H   0  0  0  0  0  0  0  0  0  0  0  0
   44.8276   36.8046   42.9446 H   0  0  0  0  0  0  0  0  0  0  0  0
   47.9044   30.1105   44.1735 H   0  0  0  0  0  0  0  0  0  0  0  0
   49.1564   28.3831   45.4496 H   0  0  0  0  0  0  0  0  0  0  0  0
   49.1662   28.7119   48.2469 H   0  0  0  0  0  0  0  0  0  0  0  0
   44.0170   33.9911   48.4101 H   0  0  0  0  0  0  0  0  0  0  0  0
   43.5961   35.3456   47.3281 H   0  0  0  0  0  0  0  0  0  0  0  0
  1  6  2  0
  2  3  2  0
  2  1  1  0
  3  4  1  0
  4  5  2  0
  5  7  1  0
  6  5  1  0
  7  8  1  0
  7 15  1  0
  8  9  2  0
  9 10  1  0
 10 11  2  0
 11 12  1  0
 11 21  1  0
 13 16  1  0
 13 12  2  0
 14 13  1  0
 15 14  2  0
 15 10  1  0
 16 20  1  0
 17 16  2  0
 17 18  1  0
 18 19  2  0
 19 20  1  0
  1 22  1  0
  2 23  1  0
  3 24  1  0
  8 25  1  0
 17 26  1  0
 18 27  1  0
 19 28  1  0
 21 29  1  0
 21 30  1  0
M  ISO  7  22  14  23  14  24  14  25  14  26  14  27  14  28  14
M  END
>  <minimizedAffinity>  (1) 
-6.20312309

>  <minimizedRMSD>  (1) 
0.749429524

$$$$
