
     RDKit          3D

 30 33  0  0  0  0  0  0  0  0999 V2000
   48.5270   35.2260   40.7130 C   0  0  0  0  0  0  0  0  0  0  0  0
   48.3100   34.0650   39.9450 C   0  0  0  0  0  0  0  0  0  0  0  0
   47.2790   33.2080   40.3410 C   0  0  0  0  0  0  0  0  0  0  0  0
   46.5540   33.5580   41.4480 N   0  0  0  0  0  0  0  0  0  0  0  0
   46.7970   34.6800   42.1500 C   0  0  0  0  0  0  0  0  0  0  0  0
   47.7720   35.5050   41.7870 N   0  0  0  0  0  0  0  0  0  0  0  0
   45.9770   34.9620   43.3010 N   0  0  0  0  0  0  0  0  0  0  0  0
   45.0860   35.9320   43.5970 C   0  0  0  0  0  0  0  0  0  0  0  0
   44.6030   35.7090   44.8310 N   0  0  0  0  0  0  0  0  0  0  0  0
   45.1990   34.5800   45.3210 C   0  0  0  0  0  0  0  0  0  0  0  0
   45.0300   33.9570   46.5320 C   0  0  0  0  0  0  0  0  0  0  0  0
   45.7590   32.8320   46.7640 N   0  0  0  0  0  0  0  0  0  0  0  0
   46.6010   32.3660   45.8370 C   0  0  0  0  0  0  0  0  0  0  0  0
   46.7490   32.9930   44.6580 N   0  0  0  0  0  0  0  0  0  0  0  0
   46.0650   34.1110   44.3520 C   0  0  0  0  0  0  0  0  0  0  0  0
   47.3780   31.1460   46.1140 C   0  0  0  0  0  0  0  0  0  0  0  0
   47.6310   30.6210   47.3700 C   0  0  0  0  0  0  0  0  0  0  0  0
   48.3890   29.4730   47.2600 C   0  0  0  0  0  0  0  0  0  0  0  0
   48.5650   29.3550   45.8780 C   0  0  0  0  0  0  0  0  0  0  0  0
   47.9560   30.3530   45.2750 O   0  0  0  0  0  0  0  0  0  0  0  0
   44.1470   34.4410   47.5140 N   0  0  0  0  0  0  0  0  0  0  0  0
   49.3322   35.9184   40.4264 H   0  0  0  0  0  0  0  0  0  0  0  0
   48.9301   33.8407   39.0646 H   0  0  0  0  0  0  0  0  0  0  0  0
   47.0584   32.2859   39.7833 H   0  0  0  0  0  0  0  0  0  0  0  0
   44.8026   36.7659   42.9380 H   0  0  0  0  0  0  0  0  0  0  0  0
   47.2791   31.0556   48.3173 H   0  0  0  0  0  0  0  0  0  0  0  0
   48.7614   28.8155   48.0594 H   0  0  0  0  0  0  0  0  0  0  0  0
   49.1249   28.5534   45.3740 H   0  0  0  0  0  0  0  0  0  0  0  0
   44.0501   33.9426   48.4102 H   0  0  0  0  0  0  0  0  0  0  0  0
   43.5973   35.2938   47.3370 H   0  0  0  0  0  0  0  0  0  0  0  0
  1  6  2  0
  2  3  2  0
  2  1  1  0
  3  4  1  0
  4  5  2  0
  5  7  1  0
  6  5  1  0
  7  8  1  0
  7 15  1  0
  8  9  2  0
  9 10  1  0
 10 11  2  0
 11 12  1  0
 11 21  1  0
 13 16  1  0
 13 12  2  0
 14 13  1  0
 15 14  2  0
 15 10  1  0
 16 17  2  0
 18 17  1  0
 19 18  2  0
 20 19  1  0
 20 16  1  0
  1 22  1  0
  2 23  1  0
  3 24  1  0
  8 25  1  0
 17 26  1  0
 18 27  1  0
 19 28  1  0
 21 29  1  0
 21 30  1  0
M  ISO  7  22  14  23  14  24  14  25  14  26  14  27  14  28  14
M  END
>  <minimizedAffinity>  (1) 
-6.2259016

>  <minimizedRMSD>  (1) 
0.808403552

$$$$
