
     RDKit          3D

 30 32  0  0  0  0  0  0  0  0999 V2000
   48.4150   35.2630   40.8040 C   0  0  0  0  0  0  0  0  0  0  0  0
   48.1570   34.1730   39.9390 C   0  0  0  0  0  0  0  0  0  0  0  0
   47.1740   33.2470   40.3240 C   0  0  0  0  0  0  0  0  0  0  0  0
   46.5310   33.4590   41.5110 N   0  0  0  0  0  0  0  0  0  0  0  0
   46.8080   34.5160   42.3110 C   0  0  0  0  0  0  0  0  0  0  0  0
   47.7350   35.3980   41.9570 N   0  0  0  0  0  0  0  0  0  0  0  0
   46.0770   34.6470   43.5330 N   0  0  0  0  0  0  0  0  0  0  0  0
   45.1910   35.5410   44.0020 C   0  0  0  0  0  0  0  0  0  0  0  0
   44.8090   35.1740   45.2400 N   0  0  0  0  0  0  0  0  0  0  0  0
   45.4660   34.0320   45.5530 C   0  0  0  0  0  0  0  0  0  0  0  0
   45.4110   33.2680   46.7090 C   0  0  0  0  0  0  0  0  0  0  0  0
   46.1710   32.1650   46.7690 N   0  0  0  0  0  0  0  0  0  0  0  0
   46.9650   31.8140   45.7300 C   0  0  0  0  0  0  0  0  0  0  0  0
   47.0020   32.5670   44.6220 N   0  0  0  0  0  0  0  0  0  0  0  0
   46.2660   33.6880   44.4910 C   0  0  0  0  0  0  0  0  0  0  0  0
   47.7650   30.6360   45.8160 N   0  0  0  0  0  0  0  0  0  0  0  0
   47.9950   29.9960   47.0660 C   0  0  0  0  0  0  0  0  0  0  0  0
   47.1030   30.0920   47.9830 N   0  0  0  0  0  0  0  0  0  0  0  0
   49.1980   29.2770   47.2520 N   0  0  0  0  0  0  0  0  0  0  0  0
   47.2830   29.6140   48.9060 H   0  0  0  0  0  0  0  0  0  0  0  0
   44.5990   33.6060   47.7980 N   0  0  0  0  0  0  0  0  0  0  0  0
   49.1784   36.0065   40.5312 H   0  0  0  0  0  0  0  0  0  0  0  0
   48.7090   34.0549   38.9949 H   0  0  0  0  0  0  0  0  0  0  0  0
   46.9299   32.3806   39.6917 H   0  0  0  0  0  0  0  0  0  0  0  0
   44.8346   36.4303   43.4615 H   0  0  0  0  0  0  0  0  0  0  0  0
   48.1824   30.2428   44.9604 H   0  0  0  0  0  0  0  0  0  0  0  0
   49.3834   28.8067   48.1494 H   0  0  0  0  0  0  0  0  0  0  0  0
   49.8890   29.2235   46.4901 H   0  0  0  0  0  0  0  0  0  0  0  0
   44.5889   33.0095   48.6376 H   0  0  0  0  0  0  0  0  0  0  0  0
   44.0116   34.4512   47.7597 H   0  0  0  0  0  0  0  0  0  0  0  0
  1  6  2  0
  2  3  2  0
  2  1  1  0
  3  4  1  0
  4  5  2  0
  5  7  1  0
  6  5  1  0
  7  8  1  0
  7 15  1  0
  8  9  2  0
  9 10  1  0
 10 11  2  0
 11 12  1  0
 11 21  1  0
 13 16  1  0
 13 12  2  0
 14 13  1  0
 15 14  2  0
 15 10  1  0
 16 17  1  0
 17 19  1  0
 17 18  2  0
 18 20  1  0
  1 22  1  0
  2 23  1  0
  3 24  1  0
  8 25  1  0
 16 26  1  0
 19 27  1  0
 19 28  1  0
 21 29  1  0
 21 30  1  0
M  ISO  4  22  14  23  14  24  14  25  14
M  END
>  <minimizedAffinity>  (1) 
-6.39615154

>  <minimizedRMSD>  (1) 
0.0721148029

$$$$
