
     RDKit          3D

 32 35  0  0  0  0  0  0  0  0999 V2000
   48.5320   35.2210   40.7140 C   0  0  0  0  0  0  0  0  0  0  0  0
   48.3080   34.0570   39.9530 C   0  0  0  0  0  0  0  0  0  0  0  0
   47.2760   33.2100   40.3490 C   0  0  0  0  0  0  0  0  0  0  0  0
   46.5380   33.5500   41.4540 N   0  0  0  0  0  0  0  0  0  0  0  0
   46.7920   34.6810   42.1550 C   0  0  0  0  0  0  0  0  0  0  0  0
   47.7760   35.5040   41.7890 N   0  0  0  0  0  0  0  0  0  0  0  0
   45.9720   34.9640   43.2990 N   0  0  0  0  0  0  0  0  0  0  0  0
   45.0800   35.9330   43.5900 C   0  0  0  0  0  0  0  0  0  0  0  0
   44.5950   35.7130   44.8260 N   0  0  0  0  0  0  0  0  0  0  0  0
   45.1930   34.5910   45.3140 C   0  0  0  0  0  0  0  0  0  0  0  0
   45.0240   33.9680   46.5360 C   0  0  0  0  0  0  0  0  0  0  0  0
   45.7550   32.8450   46.7720 N   0  0  0  0  0  0  0  0  0  0  0  0
   46.6030   32.3710   45.8500 C   0  0  0  0  0  0  0  0  0  0  0  0
   46.7380   33.0080   44.6710 N   0  0  0  0  0  0  0  0  0  0  0  0
   46.0560   34.1180   44.3610 C   0  0  0  0  0  0  0  0  0  0  0  0
   47.3720   31.1640   46.1350 C   0  0  0  0  0  0  0  0  0  0  0  0
   47.5930   30.8060   47.4690 C   0  0  0  0  0  0  0  0  0  0  0  0
   48.3300   29.6500   47.6420 C   0  0  0  0  0  0  0  0  0  0  0  0
   48.8360   28.8700   46.6430 C   0  0  0  0  0  0  0  0  0  0  0  0
   48.5600   29.3170   45.3490 C   0  0  0  0  0  0  0  0  0  0  0  0
   47.8420   30.4410   45.1070 N   0  0  0  0  0  0  0  0  0  0  0  0
   44.1350   34.4560   47.5140 N   0  0  0  0  0  0  0  0  0  0  0  0
   49.3390   35.9099   40.4238 H   0  0  0  0  0  0  0  0  0  0  0  0
   48.9280   33.8247   39.0746 H   0  0  0  0  0  0  0  0  0  0  0  0
   47.0576   32.2892   39.7883 H   0  0  0  0  0  0  0  0  0  0  0  0
   44.7963   36.7642   42.9277 H   0  0  0  0  0  0  0  0  0  0  0  0
   47.2104   31.3979   48.3135 H   0  0  0  0  0  0  0  0  0  0  0  0
   48.5261   29.3303   48.6761 H   0  0  0  0  0  0  0  0  0  0  0  0
   49.4175   27.9578   46.8420 H   0  0  0  0  0  0  0  0  0  0  0  0
   48.9390   28.7360   44.4953 H   0  0  0  0  0  0  0  0  0  0  0  0
   44.0372   33.9629   48.4130 H   0  0  0  0  0  0  0  0  0  0  0  0
   43.5829   35.3058   47.3300 H   0  0  0  0  0  0  0  0  0  0  0  0
  1  6  2  0
  2  3  2  0
  2  1  1  0
  3  4  1  0
  4  5  2  0
  5  7  1  0
  6  5  1  0
  7  8  1  0
  7 15  1  0
  8  9  2  0
  9 10  1  0
 10 11  2  0
 11 12  1  0
 11 22  1  0
 13 16  1  0
 13 12  2  0
 14 13  1  0
 15 14  2  0
 15 10  1  0
 16 17  2  0
 17 18  1  0
 19 18  2  0
 20 19  1  0
 21 20  2  0
 21 16  1  0
  1 23  1  0
  2 24  1  0
  3 25  1  0
  8 26  1  0
 17 27  1  0
 18 28  1  0
 19 29  1  0
 20 30  1  0
 22 31  1  0
 22 32  1  0
M  ISO  8  23  14  24  14  25  14  26  14  27  14  28  14  29  14  30  14
M  END
>  <minimizedAffinity>  (1) 
-6.37967873

>  <minimizedRMSD>  (1) 
0.952108383

$$$$
