
     RDKit          3D

 30 33  0  0  0  0  0  0  0  0999 V2000
   48.5610   35.2130   40.7170 C   0  0  0  0  0  0  0  0  0  0  0  0
   48.3010   34.0520   39.9370 C   0  0  0  0  0  0  0  0  0  0  0  0
   47.2410   33.2210   40.3210 C   0  0  0  0  0  0  0  0  0  0  0  0
   46.5250   33.5910   41.4270 N   0  0  0  0  0  0  0  0  0  0  0  0
   46.7950   34.6880   42.1380 C   0  0  0  0  0  0  0  0  0  0  0  0
   47.8080   35.5080   41.7950 N   0  0  0  0  0  0  0  0  0  0  0  0
   45.9840   34.9890   43.2850 N   0  0  0  0  0  0  0  0  0  0  0  0
   45.1250   35.9860   43.5920 C   0  0  0  0  0  0  0  0  0  0  0  0
   44.6340   35.7700   44.8220 N   0  0  0  0  0  0  0  0  0  0  0  0
   45.1900   34.6250   45.2960 C   0  0  0  0  0  0  0  0  0  0  0  0
   44.9950   33.9940   46.5110 C   0  0  0  0  0  0  0  0  0  0  0  0
   45.6780   32.8510   46.7330 N   0  0  0  0  0  0  0  0  0  0  0  0
   46.5210   32.3440   45.8000 C   0  0  0  0  0  0  0  0  0  0  0  0
   46.6890   32.9780   44.6310 N   0  0  0  0  0  0  0  0  0  0  0  0
   46.0430   34.1260   44.3330 C   0  0  0  0  0  0  0  0  0  0  0  0
   44.1310   34.4840   47.4940 N   0  0  0  0  0  0  0  0  0  0  0  0
   47.2380   31.0830   46.1170 C   0  0  0  0  0  0  0  0  0  0  0  0
   46.7720   30.1520   47.1570 C   0  0  0  0  0  0  0  0  0  0  0  0
   47.8880   31.0600   47.4830 C   0  0  0  0  0  0  0  0  0  0  0  0
   49.3893   35.8801   40.4359 H   0  0  0  0  0  0  0  0  0  0  0  0
   48.9156   33.8135   39.0565 H   0  0  0  0  0  0  0  0  0  0  0  0
   46.9944   32.3092   39.7573 H   0  0  0  0  0  0  0  0  0  0  0  0
   44.8702   36.8350   42.9407 H   0  0  0  0  0  0  0  0  0  0  0  0
   44.0212   33.9756   48.3831 H   0  0  0  0  0  0  0  0  0  0  0  0
   43.6040   35.3535   47.3295 H   0  0  0  0  0  0  0  0  0  0  0  0
   47.5170   30.9311   45.0639 H   0  0  0  0  0  0  0  0  0  0  0  0
   45.7890   30.3064   47.6259 H   0  0  0  0  0  0  0  0  0  0  0  0
   46.6311   29.0621   47.2037 H   0  0  0  0  0  0  0  0  0  0  0  0
   48.9066   30.6627   47.6039 H   0  0  0  0  0  0  0  0  0  0  0  0
   48.0893   31.8041   48.2677 H   0  0  0  0  0  0  0  0  0  0  0  0
  1  6  2  0
  2  3  2  0
  2  1  1  0
  3  4  1  0
  4  5  2  0
  5  7  1  0
  6  5  1  0
  7  8  1  0
  7 15  1  0
  8  9  2  0
  9 10  1  0
 10 11  2  0
 11 12  1  0
 11 16  1  0
 13 17  1  0
 13 12  2  0
 14 13  1  0
 15 14  2  0
 15 10  1  0
 17 18  1  0
 17 19  1  0
 18 19  1  0
  1 20  1  0
  2 21  1  0
  3 22  1  0
  8 23  1  0
 16 24  1  0
 16 25  1  0
 17 26  1  0
 18 27  1  0
 18 28  1  0
 19 29  1  0
 19 30  1  0
M  ISO  8  20  14  21  14  22  14  23  14  26  13  27  13  28  13  29  13
M  ISO  1  30  13
M  END
>  <minimizedAffinity>  (1) 
-5.93647432

>  <minimizedRMSD>  (1) 
0.723097205

$$$$
