
     RDKit          3D

 24 24  0  0  0  0  0  0  0  0999 V2000
   48.2310   34.3240   41.8190 C   0  0  0  0  0  0  0  0  0  0  0  0
   46.1330   33.8620   44.8170 C   0  0  0  0  0  0  0  0  0  0  0  0
   45.0910   34.8160   44.6350 C   0  0  0  0  0  0  0  0  0  0  0  0
   45.1240   35.6110   43.4810 C   0  0  0  0  0  0  0  0  0  0  0  0
   46.1480   35.4350   42.5900 N   0  0  0  0  0  0  0  0  0  0  0  0
   47.1110   34.5180   42.8080 C   0  0  0  0  0  0  0  0  0  0  0  0
   47.1000   33.7420   43.9110 N   0  0  0  0  0  0  0  0  0  0  0  0
   47.6270   34.4870   40.4270 C   0  0  0  0  0  0  0  0  0  0  0  0
   48.7420   32.9190   41.8860 C   0  0  0  0  0  0  0  0  0  0  0  0
   49.2940   35.3570   42.0040 C   0  0  0  0  0  0  0  0  0  0  0  0
   50.1570   35.1050   43.1170 N   0  0  0  0  0  0  0  0  0  0  0  0
   46.1382   33.2212   45.7111 H   0  0  0  0  0  0  0  0  0  0  0  0
   44.2859   34.9254   45.3766 H   0  0  0  0  0  0  0  0  0  0  0  0
   44.3420   36.3619   43.2950 H   0  0  0  0  0  0  0  0  0  0  0  0
   46.5686   34.7726   40.5177 H   0  0  0  0  0  0  0  0  0  0  0  0
   48.1725   35.2701   39.8800 H   0  0  0  0  0  0  0  0  0  0  0  0
   47.7045   33.5358   39.8800 H   0  0  0  0  0  0  0  0  0  0  0  0
   48.8513   32.6184   42.9385 H   0  0  0  0  0  0  0  0  0  0  0  0
   48.0311   32.2460   41.3844 H   0  0  0  0  0  0  0  0  0  0  0  0
   49.7192   32.8599   41.3844 H   0  0  0  0  0  0  0  0  0  0  0  0
   49.9066   35.3915   41.0910 H   0  0  0  0  0  0  0  0  0  0  0  0
   48.7829   36.3102   42.2045 H   0  0  0  0  0  0  0  0  0  0  0  0
   49.6389   35.2563   43.9943 H   0  0  0  0  0  0  0  0  0  0  0  0
   50.4909   34.1314   43.0790 H   0  0  0  0  0  0  0  0  0  0  0  0
  1  9  1  0
  1 10  1  0
  1  6  1  0
  3  2  2  0
  4  3  1  0
  5  6  1  0
  5  4  2  0
  6  7  2  0
  7  2  1  0
  8  1  1  0
 10 11  1  0
  2 12  1  0
  3 13  1  0
  4 14  1  0
  8 15  1  0
  8 16  1  0
  8 17  1  0
  9 18  1  0
  9 19  1  0
  9 20  1  0
 10 21  1  0
 10 22  1  0
 11 23  1  0
 11 24  1  0
M  ISO  8  12  14  13  14  14  14  15   8  16   8  17   8  18   8  19   8
M  ISO  5  20   8  21   8  22   8  23   5  24   5
M  END
>  <minimizedAffinity>  (1) 
-4.23883533

>  <minimizedRMSD>  (1) 
0.7431252

$$$$
