
     RDKit          3D

 29 29  0  0  0  0  0  0  0  0999 V2000
   47.6190   34.0520   42.3110 C   0  0  0  0  0  0  0  0  0  0  0  0
   45.4250   34.2420   45.2790 C   0  0  0  0  0  0  0  0  0  0  0  0
   44.6240   35.3730   45.0300 C   0  0  0  0  0  0  0  0  0  0  0  0
   44.8400   36.0720   43.8370 C   0  0  0  0  0  0  0  0  0  0  0  0
   45.8070   35.6310   42.9740 N   0  0  0  0  0  0  0  0  0  0  0  0
   46.5510   34.5380   43.2600 C   0  0  0  0  0  0  0  0  0  0  0  0
   46.3670   33.8430   44.4010 N   0  0  0  0  0  0  0  0  0  0  0  0
   47.6420   32.5480   42.3800 C   0  0  0  0  0  0  0  0  0  0  0  0
   48.9590   34.5440   42.7560 C   0  0  0  0  0  0  0  0  0  0  0  0
   47.2780   34.4690   40.8950 C   0  0  0  0  0  0  0  0  0  0  0  0
   48.4730   34.5430   40.0770 N   0  0  0  0  0  0  0  0  0  0  0  0
   48.2190   34.4040   38.6950 C   0  0  0  0  0  0  0  0  0  0  0  0
   47.1990   33.8870   38.1280 N   0  0  0  0  0  0  0  0  0  0  0  0
   49.0840   34.8320   37.6320 N   0  0  0  0  0  0  0  0  0  0  0  0
   46.4330   33.5050   38.7090 H   0  0  0  0  0  0  0  0  0  0  0  0
   45.2792   33.6725   46.2087 H   0  0  0  0  0  0  0  0  0  0  0  0
   43.8556   35.6957   45.7479 H   0  0  0  0  0  0  0  0  0  0  0  0
   44.2415   36.9629   43.5961 H   0  0  0  0  0  0  0  0  0  0  0  0
   47.6469   32.2293   43.4328 H   0  0  0  0  0  0  0  0  0  0  0  0
   46.7499   32.1443   41.8788 H   0  0  0  0  0  0  0  0  0  0  0  0
   48.5460   32.1717   41.8788 H   0  0  0  0  0  0  0  0  0  0  0  0
   48.9979   34.5583   43.8552 H   0  0  0  0  0  0  0  0  0  0  0  0
   49.7420   33.8747   42.3701 H   0  0  0  0  0  0  0  0  0  0  0  0
   49.1229   35.5610   42.3701 H   0  0  0  0  0  0  0  0  0  0  0  0
   46.5876   33.7322   40.4586 H   0  0  0  0  0  0  0  0  0  0  0  0
   46.8091   35.4636   40.9241 H   0  0  0  0  0  0  0  0  0  0  0  0
   49.4161   34.6834   40.4665 H   0  0  0  0  0  0  0  0  0  0  0  0
   48.8065   34.6843   36.6511 H   0  0  0  0  0  0  0  0  0  0  0  0
   49.9820   35.2867   37.8503 H   0  0  0  0  0  0  0  0  0  0  0  0
  1  8  1  0
  1  9  1  0
  1  6  1  0
  3  2  2  0
  4  3  1  0
  5  6  1  0
  5  4  2  0
  6  7  2  0
  7  2  1  0
 10  1  1  0
 11 10  1  0
 12 11  1  0
 13 12  2  0
 13 15  1  0
 14 12  1  0
  2 16  1  0
  3 17  1  0
  4 18  1  0
  8 19  1  0
  8 20  1  0
  8 21  1  0
  9 22  1  0
  9 23  1  0
  9 24  1  0
 10 25  1  0
 10 26  1  0
 11 27  1  0
 14 28  1  0
 14 29  1  0
M  ISO  8  16  14  17  14  18  14  19   8  20   8  21   8  22   8  23   8
M  ISO  3  24   8  25   8  26   8
M  END
>  <minimizedAffinity>  (1) 
-4.83427715

>  <minimizedRMSD>  (1) 
1.96506274

$$$$
