
     RDKit          3D

 29 30  0  0  0  0  0  0  0  0999 V2000
   46.0600   33.4130   40.8490 C   0  0  0  0  0  0  0  0  0  0  0  0
   45.4490   34.0900   44.4140 C   0  0  0  0  0  0  0  0  0  0  0  0
   44.8810   35.3780   44.4130 C   0  0  0  0  0  0  0  0  0  0  0  0
   44.7110   36.0150   43.1750 C   0  0  0  0  0  0  0  0  0  0  0  0
   45.1010   35.3620   42.0370 N   0  0  0  0  0  0  0  0  0  0  0  0
   45.6390   34.1300   42.0860 C   0  0  0  0  0  0  0  0  0  0  0  0
   45.8120   33.4980   43.2680 N   0  0  0  0  0  0  0  0  0  0  0  0
   44.8400   33.3210   39.9390 C   0  0  0  0  0  0  0  0  0  0  0  0
   46.4810   32.0090   41.1520 C   0  0  0  0  0  0  0  0  0  0  0  0
   47.1550   34.1760   40.1310 C   0  0  0  0  0  0  0  0  0  0  0  0
   48.2950   34.3440   41.0770 C   0  0  0  0  0  0  0  0  0  0  0  0
   48.7440   35.5130   41.6780 C   0  0  0  0  0  0  0  0  0  0  0  0
   49.8340   35.2100   42.4890 C   0  0  0  0  0  0  0  0  0  0  0  0
   49.9880   33.8360   42.3280 C   0  0  0  0  0  0  0  0  0  0  0  0
   49.0770   33.3860   41.5050 O   0  0  0  0  0  0  0  0  0  0  0  0
   45.5968   33.5626   45.3680 H   0  0  0  0  0  0  0  0  0  0  0  0
   44.5808   35.8681   45.3509 H   0  0  0  0  0  0  0  0  0  0  0  0
   44.2718   37.0220   43.1196 H   0  0  0  0  0  0  0  0  0  0  0  0
   43.9294   33.2523   40.5523 H   0  0  0  0  0  0  0  0  0  0  0  0
   44.7877   34.2177   39.3041 H   0  0  0  0  0  0  0  0  0  0  0  0
   44.9228   32.4265   39.3041 H   0  0  0  0  0  0  0  0  0  0  0  0
   46.5238   31.8662   42.2418 H   0  0  0  0  0  0  0  0  0  0  0  0
   45.7540   31.3065   40.7184 H   0  0  0  0  0  0  0  0  0  0  0  0
   47.4746   31.8225   40.7184 H   0  0  0  0  0  0  0  0  0  0  0  0
   47.4843   33.6121   39.2458 H   0  0  0  0  0  0  0  0  0  0  0  0
   46.7840   35.1576   39.8012 H   0  0  0  0  0  0  0  0  0  0  0  0
   48.3097   36.5136   41.5364 H   0  0  0  0  0  0  0  0  0  0  0  0
   50.4316   35.8939   43.1096 H   0  0  0  0  0  0  0  0  0  0  0  0
   50.7583   33.2225   42.8182 H   0  0  0  0  0  0  0  0  0  0  0  0
  1  9  1  0
  1  6  1  0
  3  2  2  0
  4  3  1  0
  5  6  1  0
  5  4  2  0
  6  7  2  0
  7  2  1  0
  8  1  1  0
 10  1  1  0
 10 11  1  0
 11 15  1  0
 11 12  2  0
 12 13  1  0
 14 13  2  0
 15 14  1  0
  2 16  1  0
  3 17  1  0
  4 18  1  0
  8 19  1  0
  8 20  1  0
  8 21  1  0
  9 22  1  0
  9 23  1  0
  9 24  1  0
 10 25  1  0
 10 26  1  0
 12 27  1  0
 13 28  1  0
 14 29  1  0
M  ISO  8  16  14  17  14  18  14  19   8  20   8  21   8  22   8  23   8
M  ISO  6  24   8  25   8  26   8  27  14  28  14  29  14
M  END
>  <minimizedAffinity>  (1) 
-4.18961573

>  <minimizedRMSD>  (1) 
2.69234014

$$$$
