
     RDKit          3D

 43 46  0  0  0  0  0  0  0  0999 V2000
   46.4220   33.9950   41.7150 C   0  0  0  0  0  0  0  0  0  0  0  0
   45.4810   33.9840   45.2660 C   0  0  0  0  0  0  0  0  0  0  0  0
   44.7880   35.2200   45.4290 C   0  0  0  0  0  0  0  0  0  0  0  0
   44.6520   36.0540   44.2980 C   0  0  0  0  0  0  0  0  0  0  0  0
   45.2000   35.6080   43.1240 N   0  0  0  0  0  0  0  0  0  0  0  0
   45.8490   34.4230   43.0250 C   0  0  0  0  0  0  0  0  0  0  0  0
   45.9820   33.6320   44.0820 N   0  0  0  0  0  0  0  0  0  0  0  0
   45.3770   34.1950   40.6440 C   0  0  0  0  0  0  0  0  0  0  0  0
   46.7030   32.5130   41.7510 C   0  0  0  0  0  0  0  0  0  0  0  0
   47.6370   34.7870   41.3340 C   0  0  0  0  0  0  0  0  0  0  0  0
   48.9060   34.2470   41.8150 C   0  0  0  0  0  0  0  0  0  0  0  0
   50.0010   34.7710   42.3670 N   0  0  0  0  0  0  0  0  0  0  0  0
   50.8790   33.8460   42.6230 O   0  0  0  0  0  0  0  0  0  0  0  0
   50.4270   32.6840   42.2630 C   0  0  0  0  0  0  0  0  0  0  0  0
   49.2110   32.9340   41.7650 N   0  0  0  0  0  0  0  0  0  0  0  0
   50.8830   31.2810   42.2670 C   0  0  0  0  0  0  0  0  0  0  0  0
   50.4360   30.3220   43.1830 C   0  0  0  0  0  0  0  0  0  0  0  0
   50.8940   29.0300   43.1390 C   0  0  0  0  0  0  0  0  0  0  0  0
   51.8090   28.6040   42.2050 C   0  0  0  0  0  0  0  0  0  0  0  0
   52.2640   29.5320   41.2930 C   0  0  0  0  0  0  0  0  0  0  0  0
   53.1790   29.0760   40.3710 C   0  0  0  0  0  0  0  0  0  0  0  0
   53.6860   29.9350   39.4220 C   0  0  0  0  0  0  0  0  0  0  0  0
   53.2520   31.2450   39.4300 C   0  0  0  0  0  0  0  0  0  0  0  0
   52.3350   31.6340   40.3790 C   0  0  0  0  0  0  0  0  0  0  0  0
   51.7940   30.8250   41.3490 C   0  0  0  0  0  0  0  0  0  0  0  0
   45.6036   33.3125   46.1286 H   0  0  0  0  0  0  0  0  0  0  0  0
   44.3729   35.5139   46.4044 H   0  0  0  0  0  0  0  0  0  0  0  0
   44.1289   37.0199   44.3567 H   0  0  0  0  0  0  0  0  0  0  0  0
   44.4006   34.3819   41.1148 H   0  0  0  0  0  0  0  0  0  0  0  0
   45.6533   35.0566   40.0184 H   0  0  0  0  0  0  0  0  0  0  0  0
   45.3157   33.2923   40.0184 H   0  0  0  0  0  0  0  0  0  0  0  0
   46.7667   32.1772   42.7965 H   0  0  0  0  0  0  0  0  0  0  0  0
   45.8912   31.9734   41.2414 H   0  0  0  0  0  0  0  0  0  0  0  0
   47.6560   32.3080   41.2414 H   0  0  0  0  0  0  0  0  0  0  0  0
   47.6817   34.8350   40.2360 H   0  0  0  0  0  0  0  0  0  0  0  0
   47.5227   35.7712   41.8119 H   0  0  0  0  0  0  0  0  0  0  0  0
   49.7041   30.6097   43.9521 H   0  0  0  0  0  0  0  0  0  0  0  0
   50.5156   28.3082   43.8778 H   0  0  0  0  0  0  0  0  0  0  0  0
   52.1640   27.5630   42.1864 H   0  0  0  0  0  0  0  0  0  0  0  0
   53.5049   28.0256   40.3925 H   0  0  0  0  0  0  0  0  0  0  0  0
   54.4171   29.5866   38.6776 H   0  0  0  0  0  0  0  0  0  0  0  0
   53.6325   31.9653   38.6908 H   0  0  0  0  0  0  0  0  0  0  0  0
   52.0064   32.6836   40.3595 H   0  0  0  0  0  0  0  0  0  0  0  0
  1  9  1  0
  1  6  1  0
  2  3  2  0
  4  3  1  0
  5  4  2  0
  6  5  1  0
  6  7  2  0
  7  2  1  0
  8  1  1  0
 10  1  1  0
 10 11  1  0
 11 12  2  0
 12 13  1  0
 14 16  1  0
 14 13  1  0
 15 11  1  0
 15 14  2  0
 16 17  2  0
 18 17  1  0
 19 18  2  0
 20 25  2  0
 20 19  1  0
 21 20  1  0
 22 23  1  0
 22 21  2  0
 23 24  2  0
 24 25  1  0
 25 16  1  0
  2 26  1  0
  3 27  1  0
  4 28  1  0
  8 29  1  0
  8 30  1  0
  8 31  1  0
  9 32  1  0
  9 33  1  0
  9 34  1  0
 10 35  1  0
 10 36  1  0
 17 37  1  0
 18 38  1  0
 19 39  1  0
 21 40  1  0
 22 41  1  0
 23 42  1  0
 24 43  1  0
M  ISO  8  26  14  27  14  28  14  29   8  30   8  31   8  32   8  33   8
M  ISO  8  34   8  35   8  36   8  37  14  38  14  39  14  40  14  41  14
M  ISO  2  42  14  43  14
M  END
>  <minimizedAffinity>  (1) 
-5.35493946

>  <minimizedRMSD>  (1) 
1.67414021

$$$$
