
     RDKit          3D

 40 42  0  0  0  0  0  0  0  0999 V2000
   45.6890   33.9320   41.6030 C   0  0  0  0  0  0  0  0  0  0  0  0
   45.3750   33.9300   45.2650 C   0  0  0  0  0  0  0  0  0  0  0  0
   44.7830   35.1780   45.5380 C   0  0  0  0  0  0  0  0  0  0  0  0
   44.4910   36.0220   44.4580 C   0  0  0  0  0  0  0  0  0  0  0  0
   44.8030   35.5780   43.1950 N   0  0  0  0  0  0  0  0  0  0  0  0
   45.3710   34.3680   42.9900 C   0  0  0  0  0  0  0  0  0  0  0  0
   45.6490   33.5660   44.0120 N   0  0  0  0  0  0  0  0  0  0  0  0
   44.4990   34.2300   40.7140 C   0  0  0  0  0  0  0  0  0  0  0  0
   45.8620   32.4260   41.5850 C   0  0  0  0  0  0  0  0  0  0  0  0
   46.8780   34.6230   41.0250 C   0  0  0  0  0  0  0  0  0  0  0  0
   48.1590   34.2730   41.6390 C   0  0  0  0  0  0  0  0  0  0  0  0
   48.8260   34.6850   42.7410 N   0  0  0  0  0  0  0  0  0  0  0  0
   49.9670   34.0400   42.8480 O   0  0  0  0  0  0  0  0  0  0  0  0
   50.0770   33.2120   41.8490 C   0  0  0  0  0  0  0  0  0  0  0  0
   48.9900   33.3280   41.0900 N   0  0  0  0  0  0  0  0  0  0  0  0
   51.2160   32.2890   41.5870 C   0  0  0  0  0  0  0  0  0  0  0  0
   51.0360   31.5540   40.2590 C   0  0  0  0  0  0  0  0  0  0  0  0
   51.6280   30.1860   40.4590 C   0  0  0  0  0  0  0  0  0  0  0  0
   52.0850   30.1340   41.9110 C   0  0  0  0  0  0  0  0  0  0  0  0
   51.1450   31.1350   42.5550 C   0  0  0  0  0  0  0  0  0  0  0  0
   45.6140   33.2480   46.0944 H   0  0  0  0  0  0  0  0  0  0  0  0
   44.5560   35.4821   46.5705 H   0  0  0  0  0  0  0  0  0  0  0  0
   44.0275   37.0070   44.6157 H   0  0  0  0  0  0  0  0  0  0  0  0
   43.6207   34.4500   41.3386 H   0  0  0  0  0  0  0  0  0  0  0  0
   44.7243   35.0995   40.0790 H   0  0  0  0  0  0  0  0  0  0  0  0
   44.2880   33.3570   40.0790 H   0  0  0  0  0  0  0  0  0  0  0  0
   45.9052   32.0495   42.6177 H   0  0  0  0  0  0  0  0  0  0  0  0
   45.0109   31.9654   41.0621 H   0  0  0  0  0  0  0  0  0  0  0  0
   46.7954   32.1704   41.0621 H   0  0  0  0  0  0  0  0  0  0  0  0
   46.9324   34.3705   39.9558 H   0  0  0  0  0  0  0  0  0  0  0  0
   46.7306   35.6964   41.2149 H   0  0  0  0  0  0  0  0  0  0  0  0
   52.1273   32.9030   41.6370 H   0  0  0  0  0  0  0  0  0  0  0  0
   51.5643   32.0851   39.4535 H   0  0  0  0  0  0  0  0  0  0  0  0
   49.9760   31.4962   39.9709 H   0  0  0  0  0  0  0  0  0  0  0  0
   50.8714   29.4106   40.2685 H   0  0  0  0  0  0  0  0  0  0  0  0
   52.4635   30.0036   39.7671 H   0  0  0  0  0  0  0  0  0  0  0  0
   51.9562   29.1284   42.3378 H   0  0  0  0  0  0  0  0  0  0  0  0
   53.1517   30.3604   42.0557 H   0  0  0  0  0  0  0  0  0  0  0  0
   51.4962   31.4286   43.5552 H   0  0  0  0  0  0  0  0  0  0  0  0
   50.1271   30.7508   42.7173 H   0  0  0  0  0  0  0  0  0  0  0  0
  1  6  1  0
  2  3  2  0
  4  3  1  0
  5  4  2  0
  6  5  1  0
  6  7  2  0
  7  2  1  0
  8  1  1  0
  9  1  1  0
 10  1  1  0
 10 11  1  0
 11 12  2  0
 12 13  1  0
 14 13  1  0
 15 11  1  0
 15 14  2  0
 16 14  1  0
 16 20  1  0
 17 18  1  0
 17 16  1  0
 18 19  1  0
 19 20  1  0
  2 21  1  0
  3 22  1  0
  4 23  1  0
  8 24  1  0
  8 25  1  0
  8 26  1  0
  9 27  1  0
  9 28  1  0
  9 29  1  0
 10 30  1  0
 10 31  1  0
 16 32  1  0
 17 33  1  0
 17 34  1  0
 18 35  1  0
 18 36  1  0
 19 37  1  0
 19 38  1  0
 20 39  1  0
 20 40  1  0
M  ISO  8  21  14  22  14  23  14  24   8  25   8  26   8  27   8  28   8
M  ISO  8  29   8  30   8  31   8  32  13  33  13  34  13  35  13  36  13
M  ISO  4  37  13  38  13  39  13  40  13
M  END
>  <minimizedAffinity>  (1) 
-4.61824036

>  <minimizedRMSD>  (1) 
1.42851114

$$$$
