
     RDKit          3D

 29 30  0  0  0  0  0  0  0  0999 V2000
   45.6810   33.5670   41.4870 C   0  0  0  0  0  0  0  0  0  0  0  0
   45.3220   34.1230   45.0930 C   0  0  0  0  0  0  0  0  0  0  0  0
   44.7900   35.4250   45.1730 C   0  0  0  0  0  0  0  0  0  0  0  0
   44.5580   36.1020   43.9760 C   0  0  0  0  0  0  0  0  0  0  0  0
   44.8610   35.4630   42.7950 N   0  0  0  0  0  0  0  0  0  0  0  0
   45.3680   34.2180   42.7840 C   0  0  0  0  0  0  0  0  0  0  0  0
   45.5930   33.5630   43.9200 N   0  0  0  0  0  0  0  0  0  0  0  0
   44.4200   33.4710   40.6680 C   0  0  0  0  0  0  0  0  0  0  0  0
   46.1170   32.1300   41.7340 C   0  0  0  0  0  0  0  0  0  0  0  0
   46.7140   34.3020   40.6860 C   0  0  0  0  0  0  0  0  0  0  0  0
   47.9800   34.5510   41.3780 C   0  0  0  0  0  0  0  0  0  0  0  0
   48.5130   35.6200   41.9870 N   0  0  0  0  0  0  0  0  0  0  0  0
   49.7080   35.3290   42.4680 O   0  0  0  0  0  0  0  0  0  0  0  0
   49.9770   34.0840   42.1870 C   0  0  0  0  0  0  0  0  0  0  0  0
   48.9290   33.5750   41.5140 N   0  0  0  0  0  0  0  0  0  0  0  0
   51.2260   33.5400   42.6110 N   0  0  0  0  0  0  0  0  0  0  0  0
   45.5162   33.5606   46.0182 H   0  0  0  0  0  0  0  0  0  0  0  0
   44.5658   35.8906   46.1441 H   0  0  0  0  0  0  0  0  0  0  0  0
   44.1434   37.1209   43.9756 H   0  0  0  0  0  0  0  0  0  0  0  0
   43.5510   33.4048   41.3392 H   0  0  0  0  0  0  0  0  0  0  0  0
   44.3260   34.3646   40.0334 H   0  0  0  0  0  0  0  0  0  0  0  0
   44.4624   32.5735   40.0334 H   0  0  0  0  0  0  0  0  0  0  0  0
   46.1732   31.9449   42.8169 H   0  0  0  0  0  0  0  0  0  0  0  0
   45.3870   31.4425   41.2818 H   0  0  0  0  0  0  0  0  0  0  0  0
   47.1059   31.9640   41.2818 H   0  0  0  0  0  0  0  0  0  0  0  0
   46.2895   35.2737   40.3935 H   0  0  0  0  0  0  0  0  0  0  0  0
   46.9562   33.6525   39.8319 H   0  0  0  0  0  0  0  0  0  0  0  0
   51.4588   32.5592   42.3997 H   0  0  0  0  0  0  0  0  0  0  0  0
   51.8948   34.1281   43.1284 H   0  0  0  0  0  0  0  0  0  0  0  0
  1  9  1  0
  1  6  1  0
  2  3  2  0
  4  3  1  0
  5  4  2  0
  6  5  1  0
  6  7  2  0
  7  2  1  0
  8  1  1  0
 10 11  1  0
 10  1  1  0
 11 15  1  0
 11 12  2  0
 12 13  1  0
 14 13  1  0
 14 16  1  0
 15 14  2  0
  2 17  1  0
  3 18  1  0
  4 19  1  0
  8 20  1  0
  8 21  1  0
  8 22  1  0
  9 23  1  0
  9 24  1  0
  9 25  1  0
 10 26  1  0
 10 27  1  0
 16 28  1  0
 16 29  1  0
M  ISO  8  17  14  18  14  19  14  20   8  21   8  22   8  23   8  24   8
M  ISO  3  25   8  26   8  27   8
M  END
>  <minimizedAffinity>  (1) 
-4.65369272

>  <minimizedRMSD>  (1) 
0.411048889

$$$$
