
     RDKit          3D

 34 36  0  0  0  0  0  0  0  0999 V2000
   44.9370   34.3660   42.2140 C   0  0  0  0  0  0  0  0  0  0  0  0
   42.7160   34.4110   39.2880 C   0  0  0  0  0  0  0  0  0  0  0  0
   41.5830   35.1130   39.7440 C   0  0  0  0  0  0  0  0  0  0  0  0
   41.5840   35.5710   41.0640 C   0  0  0  0  0  0  0  0  0  0  0  0
   42.7000   35.3060   41.8360 N   0  0  0  0  0  0  0  0  0  0  0  0
   43.7580   34.6250   41.3360 C   0  0  0  0  0  0  0  0  0  0  0  0
   43.7630   34.1890   40.0890 N   0  0  0  0  0  0  0  0  0  0  0  0
   44.8390   35.2530   43.4300 C   0  0  0  0  0  0  0  0  0  0  0  0
   46.1910   34.7820   41.4760 C   0  0  0  0  0  0  0  0  0  0  0  0
   45.0160   32.9390   42.6810 C   0  0  0  0  0  0  0  0  0  0  0  0
   45.8210   32.7250   43.8710 C   0  0  0  0  0  0  0  0  0  0  0  0
   47.1200   32.9130   44.1810 N   0  0  0  0  0  0  0  0  0  0  0  0
   47.3550   32.5560   45.4240 O   0  0  0  0  0  0  0  0  0  0  0  0
   46.2470   32.1300   45.9660 C   0  0  0  0  0  0  0  0  0  0  0  0
   45.2970   32.2240   45.0370 N   0  0  0  0  0  0  0  0  0  0  0  0
   46.0860   31.6430   47.3340 C   0  0  0  0  0  0  0  0  0  0  0  0
   45.1310   32.0080   48.2610 C   0  0  0  0  0  0  0  0  0  0  0  0
   45.3330   31.3090   49.4410 C   0  0  0  0  0  0  0  0  0  0  0  0
   46.4230   30.5270   49.1930 N   0  0  0  0  0  0  0  0  0  0  0  0
   46.8530   30.7320   47.9580 N   0  0  0  0  0  0  0  0  0  0  0  0
   42.7396   34.0385   38.2533 H   0  0  0  0  0  0  0  0  0  0  0  0
   40.7241   35.2950   39.0813 H   0  0  0  0  0  0  0  0  0  0  0  0
   40.7262   36.1235   41.4750 H   0  0  0  0  0  0  0  0  0  0  0  0
   44.9070   34.6376   44.3392 H   0  0  0  0  0  0  0  0  0  0  0  0
   45.6620   35.9828   43.4188 H   0  0  0  0  0  0  0  0  0  0  0  0
   43.8766   35.7855   43.4188 H   0  0  0  0  0  0  0  0  0  0  0  0
   46.9749   35.0420   42.2026 H   0  0  0  0  0  0  0  0  0  0  0  0
   46.5376   33.9507   40.8445 H   0  0  0  0  0  0  0  0  0  0  0  0
   45.9720   35.6556   40.8445 H   0  0  0  0  0  0  0  0  0  0  0  0
   43.9938   32.5928   42.8940 H   0  0  0  0  0  0  0  0  0  0  0  0
   45.5082   32.3784   41.8726 H   0  0  0  0  0  0  0  0  0  0  0  0
   44.3304   32.7426   48.0895 H   0  0  0  0  0  0  0  0  0  0  0  0
   44.7460   31.3710   50.3692 H   0  0  0  0  0  0  0  0  0  0  0  0
   46.8482   29.8741   49.8667 H   0  0  0  0  0  0  0  0  0  0  0  0
  1 10  1  0
  1  8  1  0
  2  3  2  0
  2  7  1  0
  3  4  1  0
  4  5  2  0
  6  5  1  0
  6  1  1  0
  7  6  2  0
  9  1  1  0
 10 11  1  0
 11 12  2  0
 11 15  1  0
 12 13  1  0
 13 14  1  0
 14 16  1  0
 15 14  2  0
 16 20  2  0
 16 17  1  0
 17 18  2  0
 19 18  1  0
 20 19  1  0
  2 21  1  0
  3 22  1  0
  4 23  1  0
  8 24  1  0
  8 25  1  0
  8 26  1  0
  9 27  1  0
  9 28  1  0
  9 29  1  0
 10 30  1  0
 10 31  1  0
 17 32  1  0
 18 33  1  0
 19 34  1  0
M  ISO  8  21  14  22  14  23  14  24   8  25   8  26   8  27   8  28   8
M  ISO  6  29   8  30   8  31   8  32  14  33  14  34   9
M  END
>  <minimizedAffinity>  (1) 
-4.69772768

>  <minimizedRMSD>  (1) 
5.47695923

$$$$
