
     RDKit          3D

 40 42  0  0  0  0  0  0  0  0999 V2000
   47.5840   34.1400   40.8770 C   0  0  0  0  0  0  0  0  0  0  0  0
   48.2770   34.3870   37.2800 C   0  0  0  0  0  0  0  0  0  0  0  0
   47.3130   33.5420   36.6960 C   0  0  0  0  0  0  0  0  0  0  0  0
   46.4250   32.8880   37.5530 C   0  0  0  0  0  0  0  0  0  0  0  0
   46.5590   33.1200   38.9020 N   0  0  0  0  0  0  0  0  0  0  0  0
   47.4960   33.9360   39.4130 C   0  0  0  0  0  0  0  0  0  0  0  0
   48.3430   34.5600   38.6000 N   0  0  0  0  0  0  0  0  0  0  0  0
   46.2420   34.5640   41.4080 C   0  0  0  0  0  0  0  0  0  0  0  0
   48.5270   35.2930   41.1650 C   0  0  0  0  0  0  0  0  0  0  0  0
   48.0010   32.9060   41.6190 C   0  0  0  0  0  0  0  0  0  0  0  0
   49.4360   32.6070   41.5760 C   0  0  0  0  0  0  0  0  0  0  0  0
   50.4460   32.7350   42.4690 N   0  0  0  0  0  0  0  0  0  0  0  0
   51.5690   32.3120   41.9230 O   0  0  0  0  0  0  0  0  0  0  0  0
   51.3340   31.9120   40.7030 C   0  0  0  0  0  0  0  0  0  0  0  0
   50.0320   32.0860   40.4720 N   0  0  0  0  0  0  0  0  0  0  0  0
   54.3500   30.3470   38.1620 C   0  0  0  0  0  0  0  0  0  0  0  0
   54.3640   30.1430   39.5260 C   0  0  0  0  0  0  0  0  0  0  0  0
   53.3960   30.6410   40.3740 C   0  0  0  0  0  0  0  0  0  0  0  0
   52.3590   31.3850   39.8120 C   0  0  0  0  0  0  0  0  0  0  0  0
   52.3310   31.5990   38.4460 C   0  0  0  0  0  0  0  0  0  0  0  0
   53.3130   31.0910   37.5980 C   0  0  0  0  0  0  0  0  0  0  0  0
   55.6030   29.6910   37.1430 S   0  0  0  0  0  0  0  0  0  0  0  0
   56.9380   30.1630   37.5800 O   0  0  0  0  0  0  0  0  0  0  0  0
   55.3310   29.9090   35.6950 O   0  0  0  0  0  0  0  0  0  0  0  0
   48.9914   34.9160   36.6321 H   0  0  0  0  0  0  0  0  0  0  0  0
   47.2616   33.4025   35.6061 H   0  0  0  0  0  0  0  0  0  0  0  0
   45.6482   32.2132   37.1640 H   0  0  0  0  0  0  0  0  0  0  0  0
   46.2640   34.5571   42.5078 H   0  0  0  0  0  0  0  0  0  0  0  0
   46.0109   35.5789   41.0523 H   0  0  0  0  0  0  0  0  0  0  0  0
   45.4697   33.8661   41.0523 H   0  0  0  0  0  0  0  0  0  0  0  0
   48.6303   35.4193   42.2528 H   0  0  0  0  0  0  0  0  0  0  0  0
   49.5125   35.0793   40.7255 H   0  0  0  0  0  0  0  0  0  0  0  0
   48.1220   36.2165   40.7255 H   0  0  0  0  0  0  0  0  0  0  0  0
   47.7101   33.0279   42.6728 H   0  0  0  0  0  0  0  0  0  0  0  0
   47.4986   32.0647   41.1192 H   0  0  0  0  0  0  0  0  0  0  0  0
   55.1866   29.5548   39.9588 H   0  0  0  0  0  0  0  0  0  0  0  0
   53.4408   30.4572   41.4576 H   0  0  0  0  0  0  0  0  0  0  0  0
   51.5080   32.1885   38.0156 H   0  0  0  0  0  0  0  0  0  0  0  0
   53.2719   31.2715   36.5137 H   0  0  0  0  0  0  0  0  0  0  0  0
   55.6039   28.3293   37.2932 H   0  0  0  0  0  0  0  0  0  0  0  0
  1  9  1  0
  1  8  1  0
  1 10  1  0
  2  7  2  0
  3  2  1  0
  3  4  2  0
  4  5  1  0
  5  6  2  0
  6  1  1  0
  7  6  1  0
 11 10  1  0
 11 12  2  0
 13 12  1  0
 14 13  1  0
 15 14  2  0
 15 11  1  0
 16 17  2  0
 17 18  1  0
 19 18  2  0
 19 14  1  0
 20 19  1  0
 21 16  1  0
 21 20  2  0
 22 23  2  0
 22 16  1  0
 24 22  2  0
  2 25  1  0
  3 26  1  0
  4 27  1  0
  8 28  1  0
  8 29  1  0
  8 30  1  0
  9 31  1  0
  9 32  1  0
  9 33  1  0
 10 34  1  0
 10 35  1  0
 17 36  1  0
 18 37  1  0
 20 38  1  0
 21 39  1  0
 22 40  1  0
M  ISO  8  25  14  26  14  27  14  28   8  29   8  30   8  31   8  32   8
M  ISO  8  33   8  34   8  35   8  36  14  37  14  38  14  39  14  40  11
M  END
>  <minimizedAffinity>  (1) 
-4.65608072

>  <minimizedRMSD>  (1) 
5.40302801

$$$$
