
     RDKit          3D

 28 29  0  0  0  0  0  0  0  0999 V2000
   45.9110   33.9210   41.7240 C   0  0  0  0  0  0  0  0  0  0  0  0
   45.4000   33.9860   45.3690 C   0  0  0  0  0  0  0  0  0  0  0  0
   44.7430   35.2140   45.5860 C   0  0  0  0  0  0  0  0  0  0  0  0
   44.4790   36.0130   44.4720 C   0  0  0  0  0  0  0  0  0  0  0  0
   44.8730   35.5580   43.2440 N   0  0  0  0  0  0  0  0  0  0  0  0
   45.4990   34.3740   43.0910 C   0  0  0  0  0  0  0  0  0  0  0  0
   45.7580   33.6000   44.1370 N   0  0  0  0  0  0  0  0  0  0  0  0
   44.8040   34.2360   40.7490 C   0  0  0  0  0  0  0  0  0  0  0  0
   46.0630   32.4190   41.7350 C   0  0  0  0  0  0  0  0  0  0  0  0
   47.1500   34.5930   41.2390 C   0  0  0  0  0  0  0  0  0  0  0  0
   48.4060   33.9820   41.6650 C   0  0  0  0  0  0  0  0  0  0  0  0
   49.1460   34.0160   42.7960 N   0  0  0  0  0  0  0  0  0  0  0  0
   50.2120   33.2760   42.6610 O   0  0  0  0  0  0  0  0  0  0  0  0
   50.2220   32.7380   41.4750 C   0  0  0  0  0  0  0  0  0  0  0  0
   49.1210   33.1570   40.8400 N   0  0  0  0  0  0  0  0  0  0  0  0
   51.5550   31.6610   40.9690 S   0  0  0  0  0  0  0  0  0  0  0  0
   45.6226   33.3333   46.2260 H   0  0  0  0  0  0  0  0  0  0  0  0
   44.4487   35.5315   46.5972 H   0  0  0  0  0  0  0  0  0  0  0  0
   43.9684   36.9814   44.5790 H   0  0  0  0  0  0  0  0  0  0  0  0
   43.8902   34.4960   41.3033 H   0  0  0  0  0  0  0  0  0  0  0  0
   45.1031   35.0847   40.1163 H   0  0  0  0  0  0  0  0  0  0  0  0
   44.6115   33.3570   40.1163 H   0  0  0  0  0  0  0  0  0  0  0  0
   46.0992   32.0617   42.7747 H   0  0  0  0  0  0  0  0  0  0  0  0
   45.2067   31.9600   41.2191 H   0  0  0  0  0  0  0  0  0  0  0  0
   46.9939   32.1409   41.2191 H   0  0  0  0  0  0  0  0  0  0  0  0
   47.1374   35.6307   41.6038 H   0  0  0  0  0  0  0  0  0  0  0  0
   47.1298   34.5074   40.1425 H   0  0  0  0  0  0  0  0  0  0  0  0
   52.1802   31.1559   42.0785 H   0  0  0  0  0  0  0  0  0  0  0  0
  1  9  1  0
  1  6  1  0
  2  3  2  0
  4  3  1  0
  5  4  2  0
  6  5  1  0
  6  7  2  0
  7  2  1  0
  8  1  1  0
 10 11  1  0
 10  1  1  0
 11 12  2  0
 13 12  1  0
 14 13  1  0
 15 14  2  0
 15 11  1  0
 16 14  1  0
  2 17  1  0
  3 18  1  0
  4 19  1  0
  8 20  1  0
  8 21  1  0
  8 22  1  0
  9 23  1  0
  9 24  1  0
  9 25  1  0
 10 26  1  0
 10 27  1  0
 16 28  1  0
M  ISO  8  17  14  18  14  19  14  20   8  21   8  22   8  23   8  24   8
M  ISO  4  25   8  26   8  27   8  28  11
M  END
>  <minimizedAffinity>  (1) 
-4.13681984

>  <minimizedRMSD>  (1) 
1.27065325

$$$$
