
     RDKit          3D

 31 32  0  0  0  0  0  0  0  0999 V2000
   46.2460   34.8930   42.6110 C   0  0  0  0  0  0  0  0  0  0  0  0
   45.6570   33.5230   45.9590 C   0  0  0  0  0  0  0  0  0  0  0  0
   46.5130   32.4020   46.0050 C   0  0  0  0  0  0  0  0  0  0  0  0
   47.2900   32.1240   44.8790 C   0  0  0  0  0  0  0  0  0  0  0  0
   47.1750   32.9520   43.8020 N   0  0  0  0  0  0  0  0  0  0  0  0
   46.3480   34.0110   43.7970 C   0  0  0  0  0  0  0  0  0  0  0  0
   45.5940   34.2900   44.8750 N   0  0  0  0  0  0  0  0  0  0  0  0
   47.6370   35.3530   42.2290 C   0  0  0  0  0  0  0  0  0  0  0  0
   45.4940   36.1470   42.9450 C   0  0  0  0  0  0  0  0  0  0  0  0
   45.6550   34.1970   41.4250 C   0  0  0  0  0  0  0  0  0  0  0  0
   44.1970   34.0020   41.4800 C   0  0  0  0  0  0  0  0  0  0  0  0
   43.4240   32.9180   41.7060 N   0  0  0  0  0  0  0  0  0  0  0  0
   42.1640   33.2560   41.6510 O   0  0  0  0  0  0  0  0  0  0  0  0
   42.0780   34.5540   41.3920 C   0  0  0  0  0  0  0  0  0  0  0  0
   43.3200   35.0090   41.2870 N   0  0  0  0  0  0  0  0  0  0  0  0
   40.7890   35.0700   41.3020 O   0  0  0  0  0  0  0  0  0  0  0  0
   40.4950   35.7020   40.0560 C   0  0  0  0  0  0  0  0  0  0  0  0
   40.1160   36.9890   40.3750 F   0  0  0  0  0  0  0  0  0  0  0  0
   41.7040   35.8260   39.3600 F   0  0  0  0  0  0  0  0  0  0  0  0
   39.5940   35.0100   39.3060 F   0  0  0  0  0  0  0  0  0  0  0  0
   45.0333   33.7655   46.8321 H   0  0  0  0  0  0  0  0  0  0  0  0
   46.5664   31.7664   46.9012 H   0  0  0  0  0  0  0  0  0  0  0  0
   47.9743   31.2630   44.8613 H   0  0  0  0  0  0  0  0  0  0  0  0
   48.2223   35.5466   43.1400 H   0  0  0  0  0  0  0  0  0  0  0  0
   48.1316   34.5706   41.6347 H   0  0  0  0  0  0  0  0  0  0  0  0
   47.5677   36.2761   41.6347 H   0  0  0  0  0  0  0  0  0  0  0  0
   45.4289   36.2555   44.0377 H   0  0  0  0  0  0  0  0  0  0  0  0
   46.0210   37.0145   42.5211 H   0  0  0  0  0  0  0  0  0  0  0  0
   44.4805   36.0907   42.5211 H   0  0  0  0  0  0  0  0  0  0  0  0
   46.1284   33.2078   41.3391 H   0  0  0  0  0  0  0  0  0  0  0  0
   45.8452   34.8493   40.5599 H   0  0  0  0  0  0  0  0  0  0  0  0
  1  9  1  0
  1  6  1  0
  2  3  2  0
  4  3  1  0
  5  4  2  0
  6  5  1  0
  6  7  2  0
  7  2  1  0
  8  1  1  0
 10 11  1  0
 10  1  1  0
 11 12  2  0
 13 12  1  0
 14 13  1  0
 15 14  2  0
 15 11  1  0
 16 14  1  0
 17 18  1  0
 17 16  1  0
 19 17  1  0
 20 17  1  0
  2 21  1  0
  3 22  1  0
  4 23  1  0
  8 24  1  0
  8 25  1  0
  8 26  1  0
  9 27  1  0
  9 28  1  0
  9 29  1  0
 10 30  1  0
 10 31  1  0
M  ISO  8  21  14  22  14  23  14  24   8  25   8  26   8  27   8  28   8
M  ISO  3  29   8  30   8  31   8
M  END
>  <minimizedAffinity>  (1) 
-5.05165625

>  <minimizedRMSD>  (1) 
7.30506897

$$$$
