
     RDKit          3D

 28 30  0  0  0  0  0  0  0  0999 V2000
   45.9620   34.4890   41.9740 N   0  0  0  0  0  0  0  0  0  0  0  0
   45.3650   34.1030   40.8300 C   0  0  0  0  0  0  0  0  0  0  0  0
   46.2560   34.0000   39.8470 N   0  0  0  0  0  0  0  0  0  0  0  0
   47.4420   34.3330   40.3960 C   0  0  0  0  0  0  0  0  0  0  0  0
   47.2660   34.6400   41.7290 N   0  0  0  0  0  0  0  0  0  0  0  0
   48.7720   34.4030   39.8130 N   0  0  0  0  0  0  0  0  0  0  0  0
   44.4450   36.0240   45.0290 C   0  0  0  0  0  0  0  0  0  0  0  0
   44.8270   35.8980   43.6790 C   0  0  0  0  0  0  0  0  0  0  0  0
   45.5160   34.7500   43.3000 C   0  0  0  0  0  0  0  0  0  0  0  0
   45.7880   33.7990   44.2590 N   0  0  0  0  0  0  0  0  0  0  0  0
   45.3990   33.9670   45.5480 C   0  0  0  0  0  0  0  0  0  0  0  0
   44.7360   35.0720   45.9120 N   0  0  0  0  0  0  0  0  0  0  0  0
   43.9280   33.8590   40.7930 C   0  0  0  0  0  0  0  0  0  0  0  0
   43.2410   34.9710   40.3010 C   0  0  0  0  0  0  0  0  0  0  0  0
   41.8670   34.9710   40.1760 C   0  0  0  0  0  0  0  0  0  0  0  0
   41.1640   33.8350   40.5520 C   0  0  0  0  0  0  0  0  0  0  0  0
   41.8600   32.7590   41.0310 C   0  0  0  0  0  0  0  0  0  0  0  0
   43.2170   32.7390   41.1620 C   0  0  0  0  0  0  0  0  0  0  0  0
   49.5752   34.6816   40.3945 H   0  0  0  0  0  0  0  0  0  0  0  0
   48.9111   34.1740   38.8185 H   0  0  0  0  0  0  0  0  0  0  0  0
   43.8992   36.9208   45.3574 H   0  0  0  0  0  0  0  0  0  0  0  0
   44.5879   36.6832   42.9467 H   0  0  0  0  0  0  0  0  0  0  0  0
   45.6288   33.1936   46.2957 H   0  0  0  0  0  0  0  0  0  0  0  0
   43.8079   35.8666   40.0067 H   0  0  0  0  0  0  0  0  0  0  0  0
   41.3392   35.8538   39.7861 H   0  0  0  0  0  0  0  0  0  0  0  0
   40.0679   33.8004   40.4665 H   0  0  0  0  0  0  0  0  0  0  0  0
   41.2949   31.8625   41.3261 H   0  0  0  0  0  0  0  0  0  0  0  0
   43.7317   31.8491   41.5533 H   0  0  0  0  0  0  0  0  0  0  0  0
  1  9  1  0
  2  1  1  0
  3  4  1  0
  3  2  2  0
  4  5  2  0
  5  1  1  0
  6  4  1  0
  7 12  2  0
  8  7  1  0
  9  8  2  0
  9 10  1  0
 10 11  2  0
 11 12  1  0
 13  2  1  0
 13 18  1  0
 14 13  2  0
 15 14  1  0
 15 16  2  0
 16 17  1  0
 17 18  2  0
  6 19  1  0
  6 20  1  0
  7 21  1  0
  8 22  1  0
 11 23  1  0
 14 24  1  0
 15 25  1  0
 16 26  1  0
 17 27  1  0
 18 28  1  0
M  ISO  8  21  14  22  14  23  14  24  14  25  14  26  14  27  14  28  14
M  END
>  <minimizedAffinity>  (1) 
-5.13113117

>  <minimizedRMSD>  (1) 
1.23107636

$$$$
