
     RDKit          3D

 44 46  0  0  0  0  0  0  0  0999 V2000
   45.9200   33.9980   41.8130 C   0  0  0  0  0  0  0  0  0  0  0  0
   45.4550   33.8880   45.4500 C   0  0  0  0  0  0  0  0  0  0  0  0
   44.7620   35.0890   45.7200 C   0  0  0  0  0  0  0  0  0  0  0  0
   44.4570   35.9320   44.6570 C   0  0  0  0  0  0  0  0  0  0  0  0
   44.8510   35.5430   43.3980 N   0  0  0  0  0  0  0  0  0  0  0  0
   45.5110   34.3860   43.1830 C   0  0  0  0  0  0  0  0  0  0  0  0
   45.8080   33.5700   44.2030 N   0  0  0  0  0  0  0  0  0  0  0  0
   44.8100   34.3690   40.8500 C   0  0  0  0  0  0  0  0  0  0  0  0
   46.0740   32.5000   41.7230 C   0  0  0  0  0  0  0  0  0  0  0  0
   47.1560   34.6960   41.3500 C   0  0  0  0  0  0  0  0  0  0  0  0
   48.4220   34.0170   41.6810 C   0  0  0  0  0  0  0  0  0  0  0  0
   49.1410   33.9090   42.8180 N   0  0  0  0  0  0  0  0  0  0  0  0
   50.2060   33.1910   42.5970 O   0  0  0  0  0  0  0  0  0  0  0  0
   50.2180   32.8100   41.3280 C   0  0  0  0  0  0  0  0  0  0  0  0
   49.1210   33.3170   40.7630 N   0  0  0  0  0  0  0  0  0  0  0  0
   51.3000   32.0310   40.9330 O   0  0  0  0  0  0  0  0  0  0  0  0
   51.0910   30.8390   40.1740 C   0  0  0  0  0  0  0  0  0  0  0  0
   52.2620   29.9310   40.4910 C   0  0  0  0  0  0  0  0  0  0  0  0
   53.4980   30.7910   40.1950 C   0  0  0  0  0  0  0  0  0  0  0  0
   53.5840   30.9870   38.7190 C   0  0  0  0  0  0  0  0  0  0  0  0
   52.3860   31.6910   38.1850 C   0  0  0  0  0  0  0  0  0  0  0  0
   51.0920   31.1570   38.7010 C   0  0  0  0  0  0  0  0  0  0  0  0
   45.7064   33.2074   46.2768 H   0  0  0  0  0  0  0  0  0  0  0  0
   44.4703   35.3514   46.7477 H   0  0  0  0  0  0  0  0  0  0  0  0
   43.9189   36.8779   44.8176 H   0  0  0  0  0  0  0  0  0  0  0  0
   43.9165   34.6676   41.4179 H   0  0  0  0  0  0  0  0  0  0  0  0
   45.1387   35.2061   40.2166 H   0  0  0  0  0  0  0  0  0  0  0  0
   44.5692   33.5025   40.2166 H   0  0  0  0  0  0  0  0  0  0  0  0
   46.1178   32.0744   42.7364 H   0  0  0  0  0  0  0  0  0  0  0  0
   45.2148   32.0748   41.1835 H   0  0  0  0  0  0  0  0  0  0  0  0
   47.0017   32.2585   41.1835 H   0  0  0  0  0  0  0  0  0  0  0  0
   47.1753   35.6949   41.8101 H   0  0  0  0  0  0  0  0  0  0  0  0
   47.1002   34.7190   40.2517 H   0  0  0  0  0  0  0  0  0  0  0  0
   50.1269   30.3712   40.4224 H   0  0  0  0  0  0  0  0  0  0  0  0
   52.2436   29.6254   41.5475 H   0  0  0  0  0  0  0  0  0  0  0  0
   52.2452   29.0018   39.9026 H   0  0  0  0  0  0  0  0  0  0  0  0
   53.4024   31.7658   40.6955 H   0  0  0  0  0  0  0  0  0  0  0  0
   54.4060   30.2936   40.5667 H   0  0  0  0  0  0  0  0  0  0  0  0
   54.4793   31.5839   38.4905 H   0  0  0  0  0  0  0  0  0  0  0  0
   53.6384   29.9960   38.2447 H   0  0  0  0  0  0  0  0  0  0  0  0
   52.3879   31.5956   37.0891 H   0  0  0  0  0  0  0  0  0  0  0  0
   52.4554   32.7372   38.5175 H   0  0  0  0  0  0  0  0  0  0  0  0
   50.3103   31.9072   38.5108 H   0  0  0  0  0  0  0  0  0  0  0  0
   50.9132   30.2073   38.1755 H   0  0  0  0  0  0  0  0  0  0  0  0
  1  6  1  0
  2  3  2  0
  4  3  1  0
  5  4  2  0
  6  5  1  0
  6  7  2  0
  7  2  1  0
  8  1  1  0
  9  1  1  0
 10 11  1  0
 10  1  1  0
 11 12  2  0
 13 12  1  0
 14 13  1  0
 15 14  2  0
 15 11  1  0
 16 14  1  0
 17 18  1  0
 17 16  1  0
 19 18  1  0
 20 19  1  0
 21 22  1  0
 21 20  1  0
 22 17  1  0
  2 23  1  0
  3 24  1  0
  4 25  1  0
  8 26  1  0
  8 27  1  0
  8 28  1  0
  9 29  1  0
  9 30  1  0
  9 31  1  0
 10 32  1  0
 10 33  1  0
 17 34  1  0
 18 35  1  0
 18 36  1  0
 19 37  1  0
 19 38  1  0
 20 39  1  0
 20 40  1  0
 21 41  1  0
 21 42  1  0
 22 43  1  0
 22 44  1  0
M  ISO  8  23  14  24  14  25  14  26   8  27   8  28   8  29   8  30   8
M  ISO  8  31   8  32   8  33   8  34  13  35  13  36  13  37  13  38  13
M  ISO  6  39  13  40  13  41  13  42  13  43  13  44  13
M  END
>  <minimizedAffinity>  (1) 
-4.64297247

>  <minimizedRMSD>  (1) 
2.21909595

$$$$
