
     RDKit          3D

 39 42  0  0  0  0  0  0  0  0999 V2000
   47.1690   34.7210   41.3690 C   0  0  0  0  0  0  0  0  0  0  0  0
   48.3940   33.9670   41.6710 C   0  0  0  0  0  0  0  0  0  0  0  0
   49.1660   33.8440   42.7620 N   0  0  0  0  0  0  0  0  0  0  0  0
   50.1750   33.0330   42.5230 O   0  0  0  0  0  0  0  0  0  0  0  0
   50.0860   32.6130   41.2840 C   0  0  0  0  0  0  0  0  0  0  0  0
   48.9910   33.1830   40.7470 N   0  0  0  0  0  0  0  0  0  0  0  0
   51.0690   31.7360   40.8220 O   0  0  0  0  0  0  0  0  0  0  0  0
   53.5800   30.8230   37.0840 N   0  0  0  0  0  0  0  0  0  0  0  0
   54.3460   30.8850   38.1890 C   0  0  0  0  0  0  0  0  0  0  0  0
   53.5880   31.1570   39.2910 N   0  0  0  0  0  0  0  0  0  0  0  0
   52.3250   31.2620   38.8390 C   0  0  0  0  0  0  0  0  0  0  0  0
   51.1100   31.5200   39.4390 C   0  0  0  0  0  0  0  0  0  0  0  0
   50.0190   31.5520   38.6600 N   0  0  0  0  0  0  0  0  0  0  0  0
   49.9900   31.3560   37.3460 C   0  0  0  0  0  0  0  0  0  0  0  0
   51.1700   31.1100   36.7960 N   0  0  0  0  0  0  0  0  0  0  0  0
   52.3080   31.0580   37.4770 C   0  0  0  0  0  0  0  0  0  0  0  0
   45.8980   34.0600   41.8100 C   0  0  0  0  0  0  0  0  0  0  0  0
   45.4420   33.9050   45.4500 C   0  0  0  0  0  0  0  0  0  0  0  0
   44.7560   35.0900   45.7450 C   0  0  0  0  0  0  0  0  0  0  0  0
   44.4500   35.9480   44.6830 C   0  0  0  0  0  0  0  0  0  0  0  0
   44.8370   35.5760   43.4240 N   0  0  0  0  0  0  0  0  0  0  0  0
   45.4970   34.4200   43.1960 C   0  0  0  0  0  0  0  0  0  0  0  0
   45.7900   33.6030   44.2040 N   0  0  0  0  0  0  0  0  0  0  0  0
   44.8050   34.4950   40.8640 C   0  0  0  0  0  0  0  0  0  0  0  0
   45.9890   32.5590   41.6790 C   0  0  0  0  0  0  0  0  0  0  0  0
   47.2372   35.6986   41.8686 H   0  0  0  0  0  0  0  0  0  0  0  0
   47.1144   34.7959   40.2729 H   0  0  0  0  0  0  0  0  0  0  0  0
   53.9011   30.6331   36.1239 H   0  0  0  0  0  0  0  0  0  0  0  0
   55.4359   30.7365   38.2022 H   0  0  0  0  0  0  0  0  0  0  0  0
   49.0594   31.3949   36.7609 H   0  0  0  0  0  0  0  0  0  0  0  0
   45.6973   33.2117   46.2650 H   0  0  0  0  0  0  0  0  0  0  0  0
   44.4675   35.3378   46.7771 H   0  0  0  0  0  0  0  0  0  0  0  0
   43.9144   36.8933   44.8548 H   0  0  0  0  0  0  0  0  0  0  0  0
   43.9357   34.8410   41.4424 H   0  0  0  0  0  0  0  0  0  0  0  0
   45.1736   35.3150   40.2301 H   0  0  0  0  0  0  0  0  0  0  0  0
   44.5093   33.6460   40.2301 H   0  0  0  0  0  0  0  0  0  0  0  0
   46.0166   32.1045   42.6804 H   0  0  0  0  0  0  0  0  0  0  0  0
   45.1119   32.1850   41.1306 H   0  0  0  0  0  0  0  0  0  0  0  0
   46.9049   32.2937   41.1306 H   0  0  0  0  0  0  0  0  0  0  0  0
  1  2  1  0
  1 17  1  0
  2  3  2  0
  4  3  1  0
  5  4  1  0
  6  5  2  0
  6  2  1  0
  7  5  1  0
  8 16  1  0
  8  9  1  0
  9 10  2  0
 11 10  1  0
 11 12  2  0
 12  7  1  0
 13 12  1  0
 14 13  2  0
 15 14  1  0
 15 16  2  0
 16 11  1  0
 17 22  1  0
 18 19  2  0
 20 19  1  0
 21 20  2  0
 22 21  1  0
 22 23  2  0
 23 18  1  0
 24 17  1  0
 25 17  1  0
  1 26  1  0
  1 27  1  0
  8 28  1  0
  9 29  1  0
 14 30  1  0
 18 31  1  0
 19 32  1  0
 20 33  1  0
 24 34  1  0
 24 35  1  0
 24 36  1  0
 25 37  1  0
 25 38  1  0
 25 39  1  0
M  ISO  8  26   8  27   8  28   9  29  14  30  14  31  14  32  14  33  14
M  ISO  6  34   8  35   8  36   8  37   8  38   8  39   8
M  END
>  <minimizedAffinity>  (1) 
-5.04370832

>  <minimizedRMSD>  (1) 
2.84966731

$$$$
