
     RDKit          3D

 37 38  0  0  0  0  0  0  0  0999 V2000
   45.7300   33.8820   41.6550 C   0  0  0  0  0  0  0  0  0  0  0  0
   45.3740   33.9480   45.2940 C   0  0  0  0  0  0  0  0  0  0  0  0
   44.7690   35.1940   45.5460 C   0  0  0  0  0  0  0  0  0  0  0  0
   44.4840   36.0120   44.4560 C   0  0  0  0  0  0  0  0  0  0  0  0
   44.8070   35.5620   43.1930 N   0  0  0  0  0  0  0  0  0  0  0  0
   45.3870   34.3560   43.0200 C   0  0  0  0  0  0  0  0  0  0  0  0
   45.6650   33.5630   44.0530 N   0  0  0  0  0  0  0  0  0  0  0  0
   44.5570   34.1760   40.7290 C   0  0  0  0  0  0  0  0  0  0  0  0
   45.9320   32.4040   41.6340 C   0  0  0  0  0  0  0  0  0  0  0  0
   46.9150   34.6030   41.0690 C   0  0  0  0  0  0  0  0  0  0  0  0
   48.2070   34.2370   41.6420 C   0  0  0  0  0  0  0  0  0  0  0  0
   48.8610   34.5890   42.7640 N   0  0  0  0  0  0  0  0  0  0  0  0
   50.0110   33.9750   42.8300 O   0  0  0  0  0  0  0  0  0  0  0  0
   50.1440   33.2070   41.7600 C   0  0  0  0  0  0  0  0  0  0  0  0
   49.0360   33.3650   41.0260 N   0  0  0  0  0  0  0  0  0  0  0  0
   51.3160   32.4690   41.6540 O   0  0  0  0  0  0  0  0  0  0  0  0
   51.3270   31.5230   40.6010 C   0  0  0  0  0  0  0  0  0  0  0  0
   50.8250   30.1650   41.0400 C   0  0  0  0  0  0  0  0  0  0  0  0
   52.7760   31.3750   40.1870 C   0  0  0  0  0  0  0  0  0  0  0  0
   45.6103   33.2813   46.1364 H   0  0  0  0  0  0  0  0  0  0  0  0
   44.5291   35.5112   46.5716 H   0  0  0  0  0  0  0  0  0  0  0  0
   44.0118   36.9951   44.5990 H   0  0  0  0  0  0  0  0  0  0  0  0
   43.6630   34.4001   41.3295 H   0  0  0  0  0  0  0  0  0  0  0  0
   44.7988   35.0413   40.0944 H   0  0  0  0  0  0  0  0  0  0  0  0
   44.3621   33.2989   40.0944 H   0  0  0  0  0  0  0  0  0  0  0  0
   45.9836   32.0263   42.6658 H   0  0  0  0  0  0  0  0  0  0  0  0
   45.0908   31.9264   41.1103 H   0  0  0  0  0  0  0  0  0  0  0  0
   46.8705   32.1696   41.1103 H   0  0  0  0  0  0  0  0  0  0  0  0
   46.7674   35.6822   41.2224 H   0  0  0  0  0  0  0  0  0  0  0  0
   46.9566   34.3133   40.0086 H   0  0  0  0  0  0  0  0  0  0  0  0
   50.6695   31.8714   39.7909 H   0  0  0  0  0  0  0  0  0  0  0  0
   50.8077   30.1181   42.1389 H   0  0  0  0  0  0  0  0  0  0  0  0
   49.8087   30.0062   40.6502 H   0  0  0  0  0  0  0  0  0  0  0  0
   51.4936   29.3833   40.6502 H   0  0  0  0  0  0  0  0  0  0  0  0
   53.4089   31.3104   41.0843 H   0  0  0  0  0  0  0  0  0  0  0  0
   52.8946   30.4601   39.5880 H   0  0  0  0  0  0  0  0  0  0  0  0
   53.0771   32.2471   39.5880 H   0  0  0  0  0  0  0  0  0  0  0  0
  1  6  1  0
  2  3  2  0
  4  3  1  0
  5  4  2  0
  6  5  1  0
  6  7  2  0
  7  2  1  0
  8  1  1  0
  9  1  1  0
 10 11  1  0
 10  1  1  0
 11 12  2  0
 12 13  1  0
 14 13  1  0
 15 11  1  0
 15 14  2  0
 16 14  1  0
 17 18  1  0
 17 16  1  0
 19 17  1  0
  2 20  1  0
  3 21  1  0
  4 22  1  0
  8 23  1  0
  8 24  1  0
  8 25  1  0
  9 26  1  0
  9 27  1  0
  9 28  1  0
 10 29  1  0
 10 30  1  0
 17 31  1  0
 18 32  1  0
 18 33  1  0
 18 34  1  0
 19 35  1  0
 19 36  1  0
 19 37  1  0
M  ISO  8  20  14  21  14  22  14  23   8  24   8  25   8  26   8  27   8
M  ISO  8  28   8  29   8  30   8  31   8  32   8  33   8  34   8  35   8
M  ISO  2  36   8  37   8
M  END
>  <minimizedAffinity>  (1) 
-4.31290245

>  <minimizedRMSD>  (1) 
1.00617409

$$$$
