
     RDKit          3D

 35 37  0  0  0  0  0  0  0  0999 V2000
   45.2790   33.5340   41.5610 C   0  0  0  0  0  0  0  0  0  0  0  0
   45.4040   33.8900   45.2080 C   0  0  0  0  0  0  0  0  0  0  0  0
   44.8500   35.1710   45.4360 C   0  0  0  0  0  0  0  0  0  0  0  0
   44.4360   35.9080   44.3260 C   0  0  0  0  0  0  0  0  0  0  0  0
   44.5890   35.3450   43.0820 N   0  0  0  0  0  0  0  0  0  0  0  0
   45.1260   34.1130   42.9220 C   0  0  0  0  0  0  0  0  0  0  0  0
   45.5300   33.3910   43.9790 N   0  0  0  0  0  0  0  0  0  0  0  0
   43.9410   33.6290   40.8550 C   0  0  0  0  0  0  0  0  0  0  0  0
   45.6090   32.0660   41.6550 C   0  0  0  0  0  0  0  0  0  0  0  0
   46.2810   34.2610   40.7310 C   0  0  0  0  0  0  0  0  0  0  0  0
   47.5920   34.4490   41.3510 C   0  0  0  0  0  0  0  0  0  0  0  0
   48.1750   35.4670   42.0010 N   0  0  0  0  0  0  0  0  0  0  0  0
   49.3980   35.1330   42.3750 O   0  0  0  0  0  0  0  0  0  0  0  0
   49.6350   33.9100   41.9820 C   0  0  0  0  0  0  0  0  0  0  0  0
   48.5310   33.4850   41.3540 N   0  0  0  0  0  0  0  0  0  0  0  0
   50.8740   33.4100   42.2940 O   0  0  0  0  0  0  0  0  0  0  0  0
   51.3970   32.3000   41.5740 C   0  0  0  0  0  0  0  0  0  0  0  0
   51.0940   31.2480   42.6220 C   0  0  0  0  0  0  0  0  0  0  0  0
   51.4290   29.9650   42.3760 C   0  0  0  0  0  0  0  0  0  0  0  0
   52.0800   29.6110   41.0980 C   0  0  0  0  0  0  0  0  0  0  0  0
   52.1840   31.3300   40.2330 S   0  0  0  0  0  0  0  0  0  0  0  0
   45.7394   33.2904   46.0670 H   0  0  0  0  0  0  0  0  0  0  0  0
   44.7488   35.5731   46.4549 H   0  0  0  0  0  0  0  0  0  0  0  0
   43.9997   36.9109   44.4434 H   0  0  0  0  0  0  0  0  0  0  0  0
   43.1355   33.6862   41.6020 H   0  0  0  0  0  0  0  0  0  0  0  0
   43.9219   34.5308   40.2254 H   0  0  0  0  0  0  0  0  0  0  0  0
   43.7946   32.7390   40.2254 H   0  0  0  0  0  0  0  0  0  0  0  0
   45.6751   31.7721   42.7129 H   0  0  0  0  0  0  0  0  0  0  0  0
   44.8201   31.4804   41.1603 H   0  0  0  0  0  0  0  0  0  0  0  0
   46.5726   31.8744   41.1603 H   0  0  0  0  0  0  0  0  0  0  0  0
   45.8709   35.2545   40.4968 H   0  0  0  0  0  0  0  0  0  0  0  0
   46.4526   33.6330   39.8443 H   0  0  0  0  0  0  0  0  0  0  0  0
   50.6083   31.5266   43.5688 H   0  0  0  0  0  0  0  0  0  0  0  0
   51.2185   29.1858   43.1234 H   0  0  0  0  0  0  0  0  0  0  0  0
   52.4159   28.6280   40.7364 H   0  0  0  0  0  0  0  0  0  0  0  0
  1  9  1  0
  1  6  1  0
  2  3  2  0
  4  3  1  0
  5  4  2  0
  6  5  1  0
  6  7  2  0
  7  2  1  0
  8  1  1  0
 10 11  1  0
 10  1  1  0
 11 15  1  0
 11 12  2  0
 12 13  1  0
 14 16  1  0
 14 13  1  0
 15 14  2  0
 17 16  1  0
 17 18  2  0
 19 18  1  0
 20 19  2  0
 21 20  1  0
 21 17  1  0
  2 22  1  0
  3 23  1  0
  4 24  1  0
  8 25  1  0
  8 26  1  0
  8 27  1  0
  9 28  1  0
  9 29  1  0
  9 30  1  0
 10 31  1  0
 10 32  1  0
 18 33  1  0
 19 34  1  0
 20 35  1  0
M  ISO  8  22  14  23  14  24  14  25   8  26   8  27   8  28   8  29   8
M  ISO  6  30   8  31   8  32   8  33  14  34  14  35  14
M  END
>  <minimizedAffinity>  (1) 
-4.51177645

>  <minimizedRMSD>  (1) 
0.887142181

$$$$
