
     RDKit          3D

 35 37  0  0  0  0  0  0  0  0999 V2000
   45.7110   33.8850   41.6430 C   0  0  0  0  0  0  0  0  0  0  0  0
   45.3640   33.9640   45.3030 C   0  0  0  0  0  0  0  0  0  0  0  0
   44.7660   35.2050   45.5450 C   0  0  0  0  0  0  0  0  0  0  0  0
   44.4820   36.0180   44.4480 C   0  0  0  0  0  0  0  0  0  0  0  0
   44.8020   35.5550   43.2020 N   0  0  0  0  0  0  0  0  0  0  0  0
   45.3760   34.3550   43.0190 C   0  0  0  0  0  0  0  0  0  0  0  0
   45.6500   33.5740   44.0620 N   0  0  0  0  0  0  0  0  0  0  0  0
   44.5460   34.1550   40.7340 C   0  0  0  0  0  0  0  0  0  0  0  0
   45.9250   32.3900   41.6570 C   0  0  0  0  0  0  0  0  0  0  0  0
   46.9020   34.5870   41.0630 C   0  0  0  0  0  0  0  0  0  0  0  0
   48.1960   34.2320   41.6460 C   0  0  0  0  0  0  0  0  0  0  0  0
   48.8500   34.6050   42.7690 N   0  0  0  0  0  0  0  0  0  0  0  0
   49.9970   33.9910   42.8380 O   0  0  0  0  0  0  0  0  0  0  0  0
   50.1360   33.2110   41.7870 C   0  0  0  0  0  0  0  0  0  0  0  0
   49.0260   33.3560   41.0480 N   0  0  0  0  0  0  0  0  0  0  0  0
   51.3160   32.4720   41.6970 O   0  0  0  0  0  0  0  0  0  0  0  0
   51.3840   31.6520   40.5210 C   0  0  0  0  0  0  0  0  0  0  0  0
   51.8430   30.2620   40.5900 C   0  0  0  0  0  0  0  0  0  0  0  0
   52.8490   31.3080   40.1420 C   0  0  0  0  0  0  0  0  0  0  0  0
   45.6012   33.3015   46.1485 H   0  0  0  0  0  0  0  0  0  0  0  0
   44.5272   35.5296   46.5685 H   0  0  0  0  0  0  0  0  0  0  0  0
   44.0136   37.0043   44.5815 H   0  0  0  0  0  0  0  0  0  0  0  0
   43.6502   34.3626   41.3378 H   0  0  0  0  0  0  0  0  0  0  0  0
   44.7701   35.0250   40.0993 H   0  0  0  0  0  0  0  0  0  0  0  0
   44.3645   33.2751   40.0993 H   0  0  0  0  0  0  0  0  0  0  0  0
   45.9756   32.0366   42.6974 H   0  0  0  0  0  0  0  0  0  0  0  0
   45.0886   31.8950   41.1419 H   0  0  0  0  0  0  0  0  0  0  0  0
   46.8667   32.1496   41.1419 H   0  0  0  0  0  0  0  0  0  0  0  0
   46.9407   34.3546   39.9885 H   0  0  0  0  0  0  0  0  0  0  0  0
   46.7570   35.6546   41.2846 H   0  0  0  0  0  0  0  0  0  0  0  0
   50.4887   32.0952   40.0606 H   0  0  0  0  0  0  0  0  0  0  0  0
   51.9634   29.7784   41.5706 H   0  0  0  0  0  0  0  0  0  0  0  0
   51.4814   29.3178   40.1568 H   0  0  0  0  0  0  0  0  0  0  0  0
   53.1793   31.3518   39.0937 H   0  0  0  0  0  0  0  0  0  0  0  0
   53.8501   31.6354   40.4592 H   0  0  0  0  0  0  0  0  0  0  0  0
  1  9  1  0
  1  6  1  0
  2  3  2  0
  4  3  1  0
  5  4  2  0
  6  5  1  0
  6  7  2  0
  7  2  1  0
  8  1  1  0
 10  1  1  0
 10 11  1  0
 11 12  2  0
 12 13  1  0
 14 13  1  0
 15 11  1  0
 15 14  2  0
 16 14  1  0
 17 18  1  0
 17 16  1  0
 19 17  1  0
 19 18  1  0
  2 20  1  0
  3 21  1  0
  4 22  1  0
  8 23  1  0
  8 24  1  0
  8 25  1  0
  9 26  1  0
  9 27  1  0
  9 28  1  0
 10 29  1  0
 10 30  1  0
 17 31  1  0
 18 32  1  0
 18 33  1  0
 19 34  1  0
 19 35  1  0
M  ISO  8  20  14  21  14  22  14  23   8  24   8  25   8  26   8  27   8
M  ISO  8  28   8  29   8  30   8  31  13  32  13  33  13  34  13  35  13
M  END
>  <minimizedAffinity>  (1) 
-4.33917522

>  <minimizedRMSD>  (1) 
0.928948998

$$$$
