
     RDKit          3D

 45 48  0  0  0  0  0  0  0  0999 V2000
   48.8680   34.2730   41.8130 C   0  0  0  0  0  0  0  0  0  0  0  0
   49.8100   34.5810   42.7320 N   0  0  0  0  0  0  0  0  0  0  0  0
   50.8170   33.7320   42.6480 O   0  0  0  0  0  0  0  0  0  0  0  0
   50.5600   32.8700   41.6940 C   0  0  0  0  0  0  0  0  0  0  0  0
   49.3730   33.1860   41.1740 N   0  0  0  0  0  0  0  0  0  0  0  0
   47.5690   34.8490   41.4520 C   0  0  0  0  0  0  0  0  0  0  0  0
   46.3860   34.0450   41.8750 C   0  0  0  0  0  0  0  0  0  0  0  0
   45.3580   34.1030   45.3920 C   0  0  0  0  0  0  0  0  0  0  0  0
   44.6940   35.3300   45.5080 C   0  0  0  0  0  0  0  0  0  0  0  0
   44.5930   36.1420   44.3950 C   0  0  0  0  0  0  0  0  0  0  0  0
   45.1550   35.6910   43.2310 N   0  0  0  0  0  0  0  0  0  0  0  0
   45.7880   34.5090   43.1410 C   0  0  0  0  0  0  0  0  0  0  0  0
   45.8870   33.7210   44.2200 N   0  0  0  0  0  0  0  0  0  0  0  0
   45.3410   34.1830   40.7820 C   0  0  0  0  0  0  0  0  0  0  0  0
   46.7230   32.5760   41.9560 C   0  0  0  0  0  0  0  0  0  0  0  0
   51.5270   31.8900   41.4640 O   0  0  0  0  0  0  0  0  0  0  0  0
   51.9390   31.5180   40.2020 C   0  0  0  0  0  0  0  0  0  0  0  0
   53.2570   31.1470   39.9670 C   0  0  0  0  0  0  0  0  0  0  0  0
   53.3680   30.8290   38.6190 C   0  0  0  0  0  0  0  0  0  0  0  0
   52.1350   31.0090   38.0670 N   0  0  0  0  0  0  0  0  0  0  0  0
   51.2750   31.4220   39.0110 N   0  0  0  0  0  0  0  0  0  0  0  0
   51.5630   30.8640   36.7520 C   0  0  0  0  0  0  0  0  0  0  0  0
   52.3650   30.2370   35.8200 C   0  0  0  0  0  0  0  0  0  0  0  0
   51.8240   30.0940   34.5550 C   0  0  0  0  0  0  0  0  0  0  0  0
   50.5550   30.5650   34.2920 C   0  0  0  0  0  0  0  0  0  0  0  0
   49.7670   31.1900   35.2360 C   0  0  0  0  0  0  0  0  0  0  0  0
   50.2920   31.3450   36.5170 C   0  0  0  0  0  0  0  0  0  0  0  0
   47.4931   35.8412   41.9207 H   0  0  0  0  0  0  0  0  0  0  0  0
   47.5416   34.8834   40.3529 H   0  0  0  0  0  0  0  0  0  0  0  0
   45.4467   33.4462   46.2699 H   0  0  0  0  0  0  0  0  0  0  0  0
   44.2600   35.6423   46.4693 H   0  0  0  0  0  0  0  0  0  0  0  0
   44.0804   37.1141   44.4422 H   0  0  0  0  0  0  0  0  0  0  0  0
   44.3486   34.3141   41.2380 H   0  0  0  0  0  0  0  0  0  0  0  0
   45.5763   35.0579   40.1581 H   0  0  0  0  0  0  0  0  0  0  0  0
   45.3411   33.2770   40.1581 H   0  0  0  0  0  0  0  0  0  0  0  0
   46.7924   32.2734   43.0113 H   0  0  0  0  0  0  0  0  0  0  0  0
   45.9357   31.9912   41.4579 H   0  0  0  0  0  0  0  0  0  0  0  0
   47.6865   32.3928   41.4579 H   0  0  0  0  0  0  0  0  0  0  0  0
   54.0653   31.1115   40.7122 H   0  0  0  0  0  0  0  0  0  0  0  0
   54.2772   30.4957   38.0972 H   0  0  0  0  0  0  0  0  0  0  0  0
   53.3730   29.8732   36.0681 H   0  0  0  0  0  0  0  0  0  0  0  0
   52.4056   29.6050   33.7596 H   0  0  0  0  0  0  0  0  0  0  0  0
   50.1503   30.4357   33.2774 H   0  0  0  0  0  0  0  0  0  0  0  0
   48.7593   31.5533   34.9860 H   0  0  0  0  0  0  0  0  0  0  0  0
   49.7126   31.8343   37.3138 H   0  0  0  0  0  0  0  0  0  0  0  0
  1  2  2  0
  3  2  1  0
  4  3  1  0
  5  4  2  0
  5  1  1  0
  6  1  1  0
  6  7  1  0
  7 15  1  0
  7 12  1  0
  8  9  2  0
 10  9  1  0
 11 10  2  0
 12 11  1  0
 12 13  2  0
 13  8  1  0
 14  7  1  0
 16  4  1  0
 17 16  1  0
 18 17  1  0
 19 18  2  0
 20 19  1  0
 20 21  1  0
 21 17  2  0
 22 20  1  0
 23 22  2  0
 24 23  1  0
 25 24  2  0
 25 26  1  0
 26 27  2  0
 27 22  1  0
  6 28  1  0
  6 29  1  0
  8 30  1  0
  9 31  1  0
 10 32  1  0
 14 33  1  0
 14 34  1  0
 14 35  1  0
 15 36  1  0
 15 37  1  0
 15 38  1  0
 18 39  1  0
 19 40  1  0
 23 41  1  0
 24 42  1  0
 25 43  1  0
 26 44  1  0
 27 45  1  0
M  ISO  8  28   8  29   8  30  14  31  14  32  14  33   8  34   8  35   8
M  ISO  8  36   8  37   8  38   8  39  14  40  14  41  14  42  14  43  14
M  ISO  2  44  14  45  14
M  END
>  <minimizedAffinity>  (1) 
-5.49185276

>  <minimizedRMSD>  (1) 
1.95395684

$$$$
