
     RDKit          3D

 47 50  0  0  1  0  0  0  0  0999 V2000
   47.6820   34.7930   41.5310 C   0  0  0  0  0  0  0  0  0  0  0  0
   48.9550   34.1380   41.7950 C   0  0  0  0  0  0  0  0  0  0  0  0
   49.9120   34.3130   42.7330 N   0  0  0  0  0  0  0  0  0  0  0  0
   50.8890   33.4510   42.5370 O   0  0  0  0  0  0  0  0  0  0  0  0
   50.6050   32.7110   41.5000 C   0  0  0  0  0  0  0  0  0  0  0  0
   49.4160   33.1230   41.0310 N   0  0  0  0  0  0  0  0  0  0  0  0
   51.5380   31.7360   41.1450 O   0  0  0  0  0  0  0  0  0  0  0  0
   51.7880   31.3820   39.8250 C   0  0  0  0  0  0  0  0  0  0  0  0
   53.1080   31.3400   39.3730 C   0  0  0  0  0  0  0  0  0  0  0  0
   53.0400   30.9560   38.0190 C   0  0  0  0  0  0  0  0  0  0  0  0
   51.7310   30.7870   37.7240 N   0  0  0  0  0  0  0  0  0  0  0  0
   50.9750   31.0380   38.7910 N   0  0  0  0  0  0  0  0  0  0  0  0
   50.7560   31.4790   35.6430 N   0  0  0  0  0  0  0  0  0  0  0  0
   50.5990   30.8780   34.3160 C   0  0  0  0  0  0  0  0  0  0  0  0
   51.8730   30.0880   34.1460 C   0  0  0  0  0  0  0  0  0  0  0  0
   52.4600   29.9530   35.5360 C   0  0  0  0  0  0  0  0  0  0  0  0
   51.3060   30.3870   36.4000 C   0  0  1  0  0  0  0  0  0  0  0  0
   46.4640   34.0020   41.9110 C   0  0  0  0  0  0  0  0  0  0  0  0
   45.3640   34.1210   45.3950 C   0  0  0  0  0  0  0  0  0  0  0  0
   44.6900   35.3330   45.4960 C   0  0  0  0  0  0  0  0  0  0  0  0
   44.6120   36.1210   44.3540 C   0  0  0  0  0  0  0  0  0  0  0  0
   45.1980   35.6630   43.2040 N   0  0  0  0  0  0  0  0  0  0  0  0
   45.8420   34.4720   43.1630 C   0  0  0  0  0  0  0  0  0  0  0  0
   45.9180   33.7170   44.2570 N   0  0  0  0  0  0  0  0  0  0  0  0
   45.4580   34.1660   40.7840 C   0  0  0  0  0  0  0  0  0  0  0  0
   46.7690   32.5350   42.0050 C   0  0  0  0  0  0  0  0  0  0  0  0
   47.6628   35.7382   42.0934 H   0  0  0  0  0  0  0  0  0  0  0  0
   47.6294   34.9286   40.4407 H   0  0  0  0  0  0  0  0  0  0  0  0
   54.0151   31.5613   39.9545 H   0  0  0  0  0  0  0  0  0  0  0  0
   53.8891   30.8197   37.3331 H   0  0  0  0  0  0  0  0  0  0  0  0
   49.8494   31.7818   36.0268 H   0  0  0  0  0  0  0  0  0  0  0  0
   49.7185   30.2196   34.2823 H   0  0  0  0  0  0  0  0  0  0  0  0
   50.4413   31.6211   33.5204 H   0  0  0  0  0  0  0  0  0  0  0  0
   51.6557   29.0959   33.7234 H   0  0  0  0  0  0  0  0  0  0  0  0
   52.5709   30.5863   33.4571 H   0  0  0  0  0  0  0  0  0  0  0  0
   52.7512   28.9138   35.7488 H   0  0  0  0  0  0  0  0  0  0  0  0
   53.3781   30.5387   35.6911 H   0  0  0  0  0  0  0  0  0  0  0  0
   50.5793   29.5855   36.5986 H   0  0  0  0  0  0  0  0  0  0  0  0
   45.4408   33.4775   46.2838 H   0  0  0  0  0  0  0  0  0  0  0  0
   44.2356   35.6559   46.4443 H   0  0  0  0  0  0  0  0  0  0  0  0
   44.0917   37.0900   44.3733 H   0  0  0  0  0  0  0  0  0  0  0  0
   44.4561   34.3293   41.2077 H   0  0  0  0  0  0  0  0  0  0  0  0
   45.7393   35.0301   40.1642 H   0  0  0  0  0  0  0  0  0  0  0  0
   45.4503   33.2573   40.1642 H   0  0  0  0  0  0  0  0  0  0  0  0
   46.8303   32.2403   43.0630 H   0  0  0  0  0  0  0  0  0  0  0  0
   45.9708   31.9621   41.5104 H   0  0  0  0  0  0  0  0  0  0  0  0
   47.7294   32.3277   41.5104 H   0  0  0  0  0  0  0  0  0  0  0  0
  1  2  1  0
  1 18  1  0
  2  3  2  0
  4  3  1  0
  5  4  1  0
  6  5  2  0
  6  2  1  0
  7  5  1  0
  8  7  1  0
  9  8  1  0
 10  9  2  0
 11 10  1  0
 11 12  1  0
 12  8  2  0
 13 17  1  0
 14 13  1  0
 15 14  1  0
 15 16  1  0
 17 16  1  0
 17 11  1  0
 18 26  1  0
 18 23  1  0
 19 20  2  0
 21 20  1  0
 22 21  2  0
 23 22  1  0
 23 24  2  0
 24 19  1  0
 25 18  1  0
  1 27  1  0
  1 28  1  0
  9 29  1  0
 10 30  1  0
 13 31  1  0
 14 32  1  0
 14 33  1  0
 15 34  1  0
 15 35  1  0
 16 36  1  0
 16 37  1  0
 17 38  1  1
 19 39  1  0
 20 40  1  0
 21 41  1  0
 25 42  1  0
 25 43  1  0
 25 44  1  0
 26 45  1  0
 26 46  1  0
 26 47  1  0
M  ISO  8  27   8  28   8  29  14  30  14  31   5  32  13  33  13  34  13
M  ISO  8  35  13  36  13  37  13  38  13  39  14  40  14  41  14  42   8
M  ISO  5  43   8  44   8  45   8  46   8  47   8
M  END
>  <minimizedAffinity>  (1) 
-5.44268036

>  <minimizedRMSD>  (1) 
1.94218647

$$$$
