
     RDKit          3D

 44 47  0  0  0  0  0  0  0  0999 V2000
   47.2790   34.7350   41.2620 C   0  0  0  0  0  0  0  0  0  0  0  0
   48.5780   34.2060   41.7170 C   0  0  0  0  0  0  0  0  0  0  0  0
   49.4070   34.5260   42.7360 N   0  0  0  0  0  0  0  0  0  0  0  0
   50.4530   33.7460   42.7090 O   0  0  0  0  0  0  0  0  0  0  0  0
   50.3500   32.9150   41.7090 C   0  0  0  0  0  0  0  0  0  0  0  0
   49.1990   33.1770   41.0780 N   0  0  0  0  0  0  0  0  0  0  0  0
   51.3870   32.0050   41.5340 O   0  0  0  0  0  0  0  0  0  0  0  0
   51.8280   31.5890   40.2960 C   0  0  0  0  0  0  0  0  0  0  0  0
   53.1640   31.2190   40.1090 C   0  0  0  0  0  0  0  0  0  0  0  0
   53.2970   30.8520   38.7740 C   0  0  0  0  0  0  0  0  0  0  0  0
   52.0830   31.0020   38.2000 N   0  0  0  0  0  0  0  0  0  0  0  0
   51.1920   31.4390   39.0860 N   0  0  0  0  0  0  0  0  0  0  0  0
   51.8830   30.7070   36.8250 C   0  0  0  0  0  0  0  0  0  0  0  0
   52.7750   30.0430   36.0070 C   0  0  0  0  0  0  0  0  0  0  0  0
   52.4850   29.8030   34.6770 C   0  0  0  0  0  0  0  0  0  0  0  0
   51.2770   30.2250   34.1160 C   0  0  0  0  0  0  0  0  0  0  0  0
   50.4020   30.8900   34.9730 C   0  0  0  0  0  0  0  0  0  0  0  0
   50.7000   31.1210   36.2810 N   0  0  0  0  0  0  0  0  0  0  0  0
   46.0860   33.9750   41.7330 C   0  0  0  0  0  0  0  0  0  0  0  0
   45.4170   34.0080   45.3340 C   0  0  0  0  0  0  0  0  0  0  0  0
   44.7460   35.2210   45.5410 C   0  0  0  0  0  0  0  0  0  0  0  0
   44.5210   36.0300   44.4440 C   0  0  0  0  0  0  0  0  0  0  0  0
   44.9710   35.5920   43.2210 N   0  0  0  0  0  0  0  0  0  0  0  0
   45.6120   34.4180   43.0720 C   0  0  0  0  0  0  0  0  0  0  0  0
   45.8320   33.6310   44.1350 N   0  0  0  0  0  0  0  0  0  0  0  0
   44.9720   34.2020   40.7380 C   0  0  0  0  0  0  0  0  0  0  0  0
   46.3440   32.4860   41.7540 C   0  0  0  0  0  0  0  0  0  0  0  0
   47.1876   35.7702   41.6226 H   0  0  0  0  0  0  0  0  0  0  0  0
   47.2817   34.6514   40.1652 H   0  0  0  0  0  0  0  0  0  0  0  0
   53.9570   31.2184   40.8713 H   0  0  0  0  0  0  0  0  0  0  0  0
   54.2163   30.5053   38.2793 H   0  0  0  0  0  0  0  0  0  0  0  0
   53.7341   29.6986   36.4212 H   0  0  0  0  0  0  0  0  0  0  0  0
   53.2166   29.2716   34.0506 H   0  0  0  0  0  0  0  0  0  0  0  0
   51.0309   30.0430   33.0595 H   0  0  0  0  0  0  0  0  0  0  0  0
   49.4368   31.2405   34.5787 H   0  0  0  0  0  0  0  0  0  0  0  0
   45.6045   33.3490   46.1945 H   0  0  0  0  0  0  0  0  0  0  0  0
   44.4093   35.5193   46.5448 H   0  0  0  0  0  0  0  0  0  0  0  0
   43.9990   36.9929   44.5457 H   0  0  0  0  0  0  0  0  0  0  0  0
   44.0324   34.3935   41.2769 H   0  0  0  0  0  0  0  0  0  0  0  0
   45.2156   35.0690   40.1063 H   0  0  0  0  0  0  0  0  0  0  0  0
   44.8569   33.3088   40.1063 H   0  0  0  0  0  0  0  0  0  0  0  0
   46.4041   32.1390   42.7961 H   0  0  0  0  0  0  0  0  0  0  0  0
   45.5229   31.9643   41.2406 H   0  0  0  0  0  0  0  0  0  0  0  0
   47.2928   32.2710   41.2406 H   0  0  0  0  0  0  0  0  0  0  0  0
  1  2  1  0
  1 19  1  0
  2  3  2  0
  4  3  1  0
  5  4  1  0
  6  5  2  0
  6  2  1  0
  7  5  1  0
  8  7  1  0
  9  8  1  0
 10  9  2  0
 11 10  1  0
 11 12  1  0
 12  8  2  0
 13 11  1  0
 14 13  2  0
 15 14  1  0
 16 15  2  0
 16 17  1  0
 17 18  2  0
 18 13  1  0
 19 27  1  0
 19 24  1  0
 20 21  2  0
 22 21  1  0
 23 22  2  0
 24 23  1  0
 24 25  2  0
 25 20  1  0
 26 19  1  0
  1 28  1  0
  1 29  1  0
  9 30  1  0
 10 31  1  0
 14 32  1  0
 15 33  1  0
 16 34  1  0
 17 35  1  0
 20 36  1  0
 21 37  1  0
 22 38  1  0
 26 39  1  0
 26 40  1  0
 26 41  1  0
 27 42  1  0
 27 43  1  0
 27 44  1  0
M  ISO  8  28   8  29   8  30  14  31  14  32  14  33  14  34  14  35  14
M  ISO  8  36  14  37  14  38  14  39   8  40   8  41   8  42   8  43   8
M  ISO  1  44   8
M  END
>  <minimizedAffinity>  (1) 
-5.32623482

>  <minimizedRMSD>  (1) 
1.88281786

$$$$
