
     RDKit          3D

 25 26  0  0  0  0  0  0  0  0999 V2000
   44.4790   35.9530   44.7060 C   0  0  0  0  0  0  0  0  0  0  0  0
   45.1800   35.6610   43.5310 C   0  0  0  0  0  0  0  0  0  0  0  0
   46.0060   34.5460   43.4770 C   0  0  0  0  0  0  0  0  0  0  0  0
   46.0770   33.7940   44.6090 N   0  0  0  0  0  0  0  0  0  0  0  0
   45.4020   34.0800   45.7330 C   0  0  0  0  0  0  0  0  0  0  0  0
   44.6170   35.1480   45.7670 N   0  0  0  0  0  0  0  0  0  0  0  0
   46.7880   34.1630   42.2650 C   0  0  0  0  0  0  0  0  0  0  0  0
   46.3080   34.3960   41.0180 C   0  0  0  0  0  0  0  0  0  0  0  0
   47.6050   33.7610   39.9270 S   0  0  0  0  0  0  0  0  0  0  0  0
   48.6450   33.2560   41.4350 C   0  0  0  0  0  0  0  0  0  0  0  0
   47.9590   33.5920   42.3020 N   0  0  0  0  0  0  0  0  0  0  0  0
   50.0120   32.5890   41.4510 C   0  0  0  0  0  0  0  0  0  0  0  0
   50.9750   33.2990   42.3360 C   0  0  0  0  0  0  0  0  0  0  0  0
   49.7220   31.1530   41.9040 C   0  0  0  0  0  0  0  0  0  0  0  0
   43.8220   36.8338   44.7576 H   0  0  0  0  0  0  0  0  0  0  0  0
   45.0771   36.3135   42.6514 H   0  0  0  0  0  0  0  0  0  0  0  0
   45.4991   33.4342   46.6182 H   0  0  0  0  0  0  0  0  0  0  0  0
   45.3527   34.8624   40.7355 H   0  0  0  0  0  0  0  0  0  0  0  0
   50.5046   32.6123   40.4678 H   0  0  0  0  0  0  0  0  0  0  0  0
   50.7159   33.1079   43.3878 H   0  0  0  0  0  0  0  0  0  0  0  0
   51.9935   32.9340   42.1372 H   0  0  0  0  0  0  0  0  0  0  0  0
   50.9275   34.3798   42.1372 H   0  0  0  0  0  0  0  0  0  0  0  0
   49.7133   31.1099   43.0031 H   0  0  0  0  0  0  0  0  0  0  0  0
   48.7420   30.8373   41.5169 H   0  0  0  0  0  0  0  0  0  0  0  0
   50.5027   30.4817   41.5169 H   0  0  0  0  0  0  0  0  0  0  0  0
  1  6  2  0
  2  1  1  0
  3  2  2  0
  3  4  1  0
  4  5  2  0
  5  6  1  0
  7 11  1  0
  7  3  1  0
  8  7  2  0
  9  8  1  0
  9 10  1  0
 10 12  1  0
 10 11  2  0
 12 14  1  0
 12 13  1  0
  1 15  1  0
  2 16  1  0
  5 17  1  0
  8 18  1  0
 12 19  1  0
 13 20  1  0
 13 21  1  0
 13 22  1  0
 14 23  1  0
 14 24  1  0
 14 25  1  0
M  ISO  8  15  14  16  14  17  14  18  14  19   8  20   8  21   8  22   8
M  ISO  3  23   8  24   8  25   8
M  END
>  <minimizedAffinity>  (1) 
-4.24403572

>  <minimizedRMSD>  (1) 
2.15032601

$$$$
