
     RDKit          3D

 47 49  0  0  0  0  0  0  0  0999 V2000
   47.0250   34.6230   41.1390 C   0  0  0  0  0  0  0  0  0  0  0  0
   48.3160   34.1960   41.6630 C   0  0  0  0  0  0  0  0  0  0  0  0
   49.0390   34.5310   42.7590 N   0  0  0  0  0  0  0  0  0  0  0  0
   50.1610   33.8520   42.7870 O   0  0  0  0  0  0  0  0  0  0  0  0
   50.2030   33.0690   41.7350 C   0  0  0  0  0  0  0  0  0  0  0  0
   49.0860   33.2640   41.0380 N   0  0  0  0  0  0  0  0  0  0  0  0
   51.3290   32.2720   41.6040 O   0  0  0  0  0  0  0  0  0  0  0  0
   51.6880   31.6520   40.4070 C   0  0  0  0  0  0  0  0  0  0  0  0
   53.0310   31.2900   40.2120 C   0  0  0  0  0  0  0  0  0  0  0  0
   53.0520   30.7010   38.9310 C   0  0  0  0  0  0  0  0  0  0  0  0
   51.7970   30.7210   38.4220 N   0  0  0  0  0  0  0  0  0  0  0  0
   50.9670   31.2950   39.3090 N   0  0  0  0  0  0  0  0  0  0  0  0
   51.4340   30.2030   37.1270 C   0  0  0  0  0  0  0  0  0  0  0  0
   50.8320   28.8270   37.3140 C   0  0  0  0  0  0  0  0  0  0  0  0
   50.4660   31.1280   36.4400 C   0  0  0  0  0  0  0  0  0  0  0  0
   52.6590   30.0370   36.2450 C   0  0  0  0  0  0  0  0  0  0  0  0
   45.8420   33.8990   41.6800 C   0  0  0  0  0  0  0  0  0  0  0  0
   45.3760   33.9920   45.3160 C   0  0  0  0  0  0  0  0  0  0  0  0
   44.7560   35.2120   45.5510 C   0  0  0  0  0  0  0  0  0  0  0  0
   44.4880   36.0250   44.4450 C   0  0  0  0  0  0  0  0  0  0  0  0
   44.8500   35.5740   43.2020 N   0  0  0  0  0  0  0  0  0  0  0  0
   45.4580   34.3660   43.0310 C   0  0  0  0  0  0  0  0  0  0  0  0
   45.7110   33.5940   44.0910 N   0  0  0  0  0  0  0  0  0  0  0  0
   44.6910   34.1650   40.7350 C   0  0  0  0  0  0  0  0  0  0  0  0
   46.0610   32.4200   41.6850 C   0  0  0  0  0  0  0  0  0  0  0  0
   46.9026   35.6917   41.3692 H   0  0  0  0  0  0  0  0  0  0  0  0
   47.0481   34.4010   40.0619 H   0  0  0  0  0  0  0  0  0  0  0  0
   53.8753   31.4335   40.9023 H   0  0  0  0  0  0  0  0  0  0  0  0
   53.9410   30.2926   38.4280 H   0  0  0  0  0  0  0  0  0  0  0  0
   50.7375   28.6110   38.3884 H   0  0  0  0  0  0  0  0  0  0  0  0
   49.8376   28.7949   36.8447 H   0  0  0  0  0  0  0  0  0  0  0  0
   51.4833   28.0750   36.8447 H   0  0  0  0  0  0  0  0  0  0  0  0
   49.8878   31.6805   37.1953 H   0  0  0  0  0  0  0  0  0  0  0  0
   51.0218   31.8392   35.8113 H   0  0  0  0  0  0  0  0  0  0  0  0
   49.7808   30.5405   35.8113 H   0  0  0  0  0  0  0  0  0  0  0  0
   53.5517   29.9160   36.8763 H   0  0  0  0  0  0  0  0  0  0  0  0
   52.5357   29.1474   35.6099 H   0  0  0  0  0  0  0  0  0  0  0  0
   52.7769   30.9274   35.6099 H   0  0  0  0  0  0  0  0  0  0  0  0
   45.5972   33.3338   46.1691 H   0  0  0  0  0  0  0  0  0  0  0  0
   44.4856   35.5274   46.5695 H   0  0  0  0  0  0  0  0  0  0  0  0
   43.9988   37.0023   44.5694 H   0  0  0  0  0  0  0  0  0  0  0  0
   43.7808   34.3753   41.3158 H   0  0  0  0  0  0  0  0  0  0  0  0
   44.9299   35.0316   40.1010 H   0  0  0  0  0  0  0  0  0  0  0  0
   44.5254   33.2815   40.1010 H   0  0  0  0  0  0  0  0  0  0  0  0
   46.1142   32.0607   42.7233 H   0  0  0  0  0  0  0  0  0  0  0  0
   45.2265   31.9240   41.1677 H   0  0  0  0  0  0  0  0  0  0  0  0
   47.0034   32.1871   41.1677 H   0  0  0  0  0  0  0  0  0  0  0  0
  1  2  1  0
  1 17  1  0
  2  3  2  0
  3  4  1  0
  5  4  1  0
  6  2  1  0
  6  5  2  0
  7  5  1  0
  8  7  1  0
  9  8  1  0
 10  9  2  0
 11 10  1  0
 11 12  1  0
 12  8  2  0
 13 14  1  0
 13 11  1  0
 15 13  1  0
 16 13  1  0
 17 25  1  0
 17 22  1  0
 18 19  2  0
 20 19  1  0
 21 20  2  0
 22 21  1  0
 22 23  2  0
 23 18  1  0
 24 17  1  0
  1 26  1  0
  1 27  1  0
  9 28  1  0
 10 29  1  0
 14 30  1  0
 14 31  1  0
 14 32  1  0
 15 33  1  0
 15 34  1  0
 15 35  1  0
 16 36  1  0
 16 37  1  0
 16 38  1  0
 18 39  1  0
 19 40  1  0
 20 41  1  0
 24 42  1  0
 24 43  1  0
 24 44  1  0
 25 45  1  0
 25 46  1  0
 25 47  1  0
M  ISO  8  26   8  27   8  28  14  29  14  30   8  31   8  32   8  33   8
M  ISO  8  34   8  35   8  36   8  37   8  38   8  39  14  40  14  41  14
M  ISO  6  42   8  43   8  44   8  45   8  46   8  47   8
M  END
>  <minimizedAffinity>  (1) 
-4.7655654

>  <minimizedRMSD>  (1) 
0.958296597

$$$$
