
     RDKit          3D

 38 40  0  0  0  0  0  0  0  0999 V2000
   47.5980   34.8050   41.4630 C   0  0  0  0  0  0  0  0  0  0  0  0
   48.8850   34.1970   41.7960 C   0  0  0  0  0  0  0  0  0  0  0  0
   49.8110   34.4490   42.7410 N   0  0  0  0  0  0  0  0  0  0  0  0
   50.8140   33.6000   42.6150 O   0  0  0  0  0  0  0  0  0  0  0  0
   50.5740   32.7960   41.6150 C   0  0  0  0  0  0  0  0  0  0  0  0
   49.3910   33.1500   41.1010 N   0  0  0  0  0  0  0  0  0  0  0  0
   51.5430   31.8300   41.3460 O   0  0  0  0  0  0  0  0  0  0  0  0
   51.8650   31.4500   40.0480 C   0  0  0  0  0  0  0  0  0  0  0  0
   53.2130   31.2460   39.7280 C   0  0  0  0  0  0  0  0  0  0  0  0
   53.2360   30.8770   38.3720 C   0  0  0  0  0  0  0  0  0  0  0  0
   51.9560   30.8730   37.9430 N   0  0  0  0  0  0  0  0  0  0  0  0
   51.1300   31.2110   38.9290 N   0  0  0  0  0  0  0  0  0  0  0  0
   51.4280   30.5610   36.6160 C   0  0  0  0  0  0  0  0  0  0  0  0
   50.7640   29.3450   36.6100 F   0  0  0  0  0  0  0  0  0  0  0  0
   50.4890   31.4980   36.2330 F   0  0  0  0  0  0  0  0  0  0  0  0
   52.4810   30.4520   35.7270 F   0  0  0  0  0  0  0  0  0  0  0  0
   46.3920   34.0060   41.8700 C   0  0  0  0  0  0  0  0  0  0  0  0
   45.3520   34.1040   45.3840 C   0  0  0  0  0  0  0  0  0  0  0  0
   44.6930   35.3330   45.5000 C   0  0  0  0  0  0  0  0  0  0  0  0
   44.6000   36.1390   44.3660 C   0  0  0  0  0  0  0  0  0  0  0  0
   45.1660   35.6730   43.1990 N   0  0  0  0  0  0  0  0  0  0  0  0
   45.7910   34.4850   43.1380 C   0  0  0  0  0  0  0  0  0  0  0  0
   45.8820   33.7040   44.2330 N   0  0  0  0  0  0  0  0  0  0  0  0
   45.3600   34.1520   40.7700 C   0  0  0  0  0  0  0  0  0  0  0  0
   46.7090   32.5430   41.9770 C   0  0  0  0  0  0  0  0  0  0  0  0
   47.5435   35.7832   41.9631 H   0  0  0  0  0  0  0  0  0  0  0  0
   47.5653   34.8721   40.3655 H   0  0  0  0  0  0  0  0  0  0  0  0
   54.0770   31.3527   40.4003 H   0  0  0  0  0  0  0  0  0  0  0  0
   54.1275   30.6371   37.7740 H   0  0  0  0  0  0  0  0  0  0  0  0
   45.4333   33.4532   46.2671 H   0  0  0  0  0  0  0  0  0  0  0  0
   44.2604   35.6543   46.4590 H   0  0  0  0  0  0  0  0  0  0  0  0
   44.0920   37.1140   44.4016 H   0  0  0  0  0  0  0  0  0  0  0  0
   44.3649   34.2928   41.2172 H   0  0  0  0  0  0  0  0  0  0  0  0
   45.6088   35.0239   40.1472 H   0  0  0  0  0  0  0  0  0  0  0  0
   45.3572   33.2453   40.1472 H   0  0  0  0  0  0  0  0  0  0  0  0
   46.7708   32.2578   43.0376 H   0  0  0  0  0  0  0  0  0  0  0  0
   45.9165   31.9592   41.4859 H   0  0  0  0  0  0  0  0  0  0  0  0
   47.6721   32.3396   41.4859 H   0  0  0  0  0  0  0  0  0  0  0  0
  1  2  1  0
  1 17  1  0
  2  3  2  0
  4  3  1  0
  5  4  1  0
  6  5  2  0
  6  2  1  0
  7  5  1  0
  8  7  1  0
  9  8  1  0
 10  9  2  0
 11 10  1  0
 11 12  1  0
 12  8  2  0
 13 11  1  0
 14 13  1  0
 15 13  1  0
 16 13  1  0
 17 25  1  0
 17 22  1  0
 18 19  2  0
 20 19  1  0
 21 20  2  0
 22 21  1  0
 22 23  2  0
 23 18  1  0
 24 17  1  0
  1 26  1  0
  1 27  1  0
  9 28  1  0
 10 29  1  0
 18 30  1  0
 19 31  1  0
 20 32  1  0
 24 33  1  0
 24 34  1  0
 24 35  1  0
 25 36  1  0
 25 37  1  0
 25 38  1  0
M  ISO  8  26   8  27   8  28  14  29  14  30  14  31  14  32  14  33   8
M  ISO  5  34   8  35   8  36   8  37   8  38   8
M  END
>  <minimizedAffinity>  (1) 
-5.07263994

>  <minimizedRMSD>  (1) 
1.35676956

$$$$
