
     RDKit          3D

 48 51  0  0  1  0  0  0  0  0999 V2000
   47.2780   34.7480   41.2660 C   0  0  0  0  0  0  0  0  0  0  0  0
   48.5690   34.2310   41.7280 C   0  0  0  0  0  0  0  0  0  0  0  0
   49.4060   34.5670   42.7310 N   0  0  0  0  0  0  0  0  0  0  0  0
   50.4530   33.7780   42.7170 O   0  0  0  0  0  0  0  0  0  0  0  0
   50.3350   32.9250   41.7300 C   0  0  0  0  0  0  0  0  0  0  0  0
   49.1830   33.1860   41.1090 N   0  0  0  0  0  0  0  0  0  0  0  0
   51.3780   32.0070   41.5770 O   0  0  0  0  0  0  0  0  0  0  0  0
   51.8420   31.6100   40.3260 C   0  0  0  0  0  0  0  0  0  0  0  0
   53.1730   31.2100   40.2040 C   0  0  0  0  0  0  0  0  0  0  0  0
   53.3470   30.8770   38.8660 C   0  0  0  0  0  0  0  0  0  0  0  0
   52.1720   31.0720   38.2300 N   0  0  0  0  0  0  0  0  0  0  0  0
   51.2480   31.5150   39.0940 N   0  0  0  0  0  0  0  0  0  0  0  0
   51.7210   28.1010   37.1520 N   0  0  0  0  0  0  0  0  0  0  0  0
   52.7240   28.5310   36.2570 C   0  0  0  0  0  0  0  0  0  0  0  0
   52.9280   30.0040   36.1530 C   0  0  0  0  0  0  0  0  0  0  0  0
   51.8950   30.8490   36.8190 C   0  0  1  0  0  0  0  0  0  0  0  0
   50.5410   30.2050   36.5910 C   0  0  0  0  0  0  0  0  0  0  0  0
   50.5370   28.8650   37.2350 C   0  0  0  0  0  0  0  0  0  0  0  0
   46.0910   33.9990   41.7480 C   0  0  0  0  0  0  0  0  0  0  0  0
   45.4140   34.0130   45.3460 C   0  0  0  0  0  0  0  0  0  0  0  0
   44.7470   35.2190   45.5470 C   0  0  0  0  0  0  0  0  0  0  0  0
   44.5260   36.0350   44.4500 C   0  0  0  0  0  0  0  0  0  0  0  0
   44.9760   35.6150   43.2100 N   0  0  0  0  0  0  0  0  0  0  0  0
   45.6150   34.4370   43.0760 C   0  0  0  0  0  0  0  0  0  0  0  0
   45.8300   33.6460   44.1410 N   0  0  0  0  0  0  0  0  0  0  0  0
   44.9670   34.2210   40.7370 C   0  0  0  0  0  0  0  0  0  0  0  0
   46.3350   32.5080   41.7540 C   0  0  0  0  0  0  0  0  0  0  0  0
   47.1858   35.7894   41.6081 H   0  0  0  0  0  0  0  0  0  0  0  0
   47.2811   34.6453   40.1708 H   0  0  0  0  0  0  0  0  0  0  0  0
   53.9287   31.1671   41.0021 H   0  0  0  0  0  0  0  0  0  0  0  0
   54.2790   30.5174   38.4056 H   0  0  0  0  0  0  0  0  0  0  0  0
   51.8490   27.2559   37.7268 H   0  0  0  0  0  0  0  0  0  0  0  0
   53.3218   27.8190   35.6690 H   0  0  0  0  0  0  0  0  0  0  0  0
   53.7854   30.4398   35.6193 H   0  0  0  0  0  0  0  0  0  0  0  0
   51.9068   31.8540   36.3719 H   0  0  0  0  0  0  0  0  0  0  0  0
   49.7534   30.8316   37.0350 H   0  0  0  0  0  0  0  0  0  0  0  0
   50.3507   30.1034   35.5124 H   0  0  0  0  0  0  0  0  0  0  0  0
   49.7319   28.2776   36.7694 H   0  0  0  0  0  0  0  0  0  0  0  0
   50.4085   29.0690   38.3082 H   0  0  0  0  0  0  0  0  0  0  0  0
   45.5998   33.3509   46.2045 H   0  0  0  0  0  0  0  0  0  0  0  0
   44.4051   35.5153   46.5496 H   0  0  0  0  0  0  0  0  0  0  0  0
   44.0038   36.9967   44.5617 H   0  0  0  0  0  0  0  0  0  0  0  0
   44.0241   34.4072   41.2720 H   0  0  0  0  0  0  0  0  0  0  0  0
   45.2079   35.0889   40.1056 H   0  0  0  0  0  0  0  0  0  0  0  0
   44.8598   33.3267   40.1056 H   0  0  0  0  0  0  0  0  0  0  0  0
   46.3936   32.1502   42.7925 H   0  0  0  0  0  0  0  0  0  0  0  0
   45.5082   31.9991   41.2369 H   0  0  0  0  0  0  0  0  0  0  0  0
   47.2809   32.2892   41.2369 H   0  0  0  0  0  0  0  0  0  0  0  0
  1  2  1  0
  1 19  1  0
  2  3  2  0
  4  3  1  0
  5  4  1  0
  6  2  1  0
  6  5  2  0
  7  5  1  0
  8  7  1  0
  9  8  1  0
 10  9  2  0
 11 10  1  0
 11 12  1  0
 12  8  2  0
 13 18  1  0
 14 13  1  0
 15 14  2  0
 16 15  1  0
 16 11  1  0
 17 16  1  0
 17 18  1  0
 19 27  1  0
 19 24  1  0
 20 21  2  0
 22 21  1  0
 23 22  2  0
 24 23  1  0
 24 25  2  0
 25 20  1  0
 26 19  1  0
  1 28  1  0
  1 29  1  0
  9 30  1  0
 10 31  1  0
 13 32  1  0
 14 33  1  0
 15 34  1  0
 16 35  1  6
 17 36  1  0
 17 37  1  0
 18 38  1  0
 18 39  1  0
 20 40  1  0
 21 41  1  0
 22 42  1  0
 26 43  1  0
 26 44  1  0
 26 45  1  0
 27 46  1  0
 27 47  1  0
 27 48  1  0
M  ISO  8  28   8  29   8  30  14  31  14  33  13  34  13  35  13  36  13
M  ISO  8  37  13  38  13  39  13  40  14  41  14  42  14  43   8  44   8
M  ISO  4  45   8  46   8  47   8  48   8
M  END
>  <minimizedAffinity>  (1) 
-5.03165674

>  <minimizedRMSD>  (1) 
1.28066695

$$$$
