
     RDKit          3D

 31 33  0  0  1  0  0  0  0  0999 V2000
   45.7040   33.7890   43.8820 C   0  0  2  0  0  0  0  0  0  0  0  0
   45.1530   35.0040   44.5690 C   0  0  0  0  0  0  0  0  0  0  0  0
   44.2540   35.8730   43.8280 C   0  0  0  0  0  0  0  0  0  0  0  0
   43.9080   35.5410   42.4310 C   0  0  0  0  0  0  0  0  0  0  0  0
   44.6110   34.3980   41.8260 C   0  0  0  0  0  0  0  0  0  0  0  0
   44.6860   33.2800   42.8640 C   0  0  0  0  0  0  0  0  0  0  0  0
   46.5670   33.1310   46.1270 C   0  0  0  0  0  0  0  0  0  0  0  0
   46.0540   32.7740   44.8810 C   0  0  0  0  0  0  0  0  0  0  0  0
   45.9030   31.3990   44.6740 C   0  0  0  0  0  0  0  0  0  0  0  0
   46.2430   30.5210   45.6420 N   0  0  0  0  0  0  0  0  0  0  0  0
   46.7350   30.9260   46.8310 C   0  0  0  0  0  0  0  0  0  0  0  0
   46.8960   32.2340   47.0710 N   0  0  0  0  0  0  0  0  0  0  0  0
   46.9600   34.2170   43.1620 C   0  0  0  0  0  0  0  0  0  0  0  0
   47.4390   33.4010   42.0450 C   0  0  0  0  0  0  0  0  0  0  0  0
   48.2130   33.4060   43.3450 C   0  0  0  0  0  0  0  0  0  0  0  0
   45.4236   35.2320   45.6106 H   0  0  0  0  0  0  0  0  0  0  0  0
   43.8343   36.7714   44.3041 H   0  0  0  0  0  0  0  0  0  0  0  0
   42.8301   35.3239   42.3979 H   0  0  0  0  0  0  0  0  0  0  0  0
   44.2209   36.4156   41.8417 H   0  0  0  0  0  0  0  0  0  0  0  0
   44.0597   34.0479   40.9409 H   0  0  0  0  0  0  0  0  0  0  0  0
   45.6231   34.6960   41.5147 H   0  0  0  0  0  0  0  0  0  0  0  0
   43.7062   33.1196   43.3375 H   0  0  0  0  0  0  0  0  0  0  0  0
   44.9733   32.3132   42.4250 H   0  0  0  0  0  0  0  0  0  0  0  0
   46.7093   34.1992   46.3478 H   0  0  0  0  0  0  0  0  0  0  0  0
   45.5049   31.0306   43.7170 H   0  0  0  0  0  0  0  0  0  0  0  0
   47.0026   30.1859   47.5995 H   0  0  0  0  0  0  0  0  0  0  0  0
   46.7070   35.2800   43.2886 H   0  0  0  0  0  0  0  0  0  0  0  0
   46.8803   32.5028   41.7431 H   0  0  0  0  0  0  0  0  0  0  0  0
   47.6915   33.6006   40.9931 H   0  0  0  0  0  0  0  0  0  0  0  0
   49.1923   33.9032   43.4063 H   0  0  0  0  0  0  0  0  0  0  0  0
   48.5632   32.6448   44.0577 H   0  0  0  0  0  0  0  0  0  0  0  0
  1 13  1  6
  1  2  1  0
  1  8  1  0
  3  2  2  0
  4  3  1  0
  5  4  1  0
  5  6  1  0
  6  1  1  0
  7 12  2  0
  8  7  1  0
  9  8  2  0
  9 10  1  0
 10 11  2  0
 11 12  1  0
 13 15  1  0
 14 13  1  0
 14 15  1  0
  2 16  1  0
  3 17  1  0
  4 18  1  0
  4 19  1  0
  5 20  1  0
  5 21  1  0
  6 22  1  0
  6 23  1  0
  7 24  1  0
  9 25  1  0
 11 26  1  0
 13 27  1  0
 14 28  1  0
 14 29  1  0
 15 30  1  0
 15 31  1  0
M  ISO  8  16  13  17  13  18  13  19  13  20  13  21  13  22  13  23  13
M  ISO  8  24  14  25  14  26  14  27  13  28  13  29  13  30  13  31  13
M  END
>  <minimizedAffinity>  (1) 
-3.93174505

>  <minimizedRMSD>  (1) 
1.87138867

$$$$
