
     RDKit          3D

 30 31  0  0  1  0  0  0  0  0999 V2000
   45.8500   33.6180   44.2740 C   0  0  2  0  0  0  0  0  0  0  0  0
   45.2550   34.8080   44.9400 C   0  0  0  0  0  0  0  0  0  0  0  0
   44.4570   35.7210   44.1480 C   0  0  0  0  0  0  0  0  0  0  0  0
   44.2510   35.4720   42.7240 C   0  0  0  0  0  0  0  0  0  0  0  0
   44.9590   34.3080   42.1370 C   0  0  0  0  0  0  0  0  0  0  0  0
   44.9440   33.1800   43.1320 C   0  0  0  0  0  0  0  0  0  0  0  0
   46.6300   32.8600   46.5240 C   0  0  0  0  0  0  0  0  0  0  0  0
   46.0970   32.5700   45.2710 C   0  0  0  0  0  0  0  0  0  0  0  0
   45.8060   31.2310   45.0380 C   0  0  0  0  0  0  0  0  0  0  0  0
   46.0430   30.2920   45.9970 N   0  0  0  0  0  0  0  0  0  0  0  0
   46.5570   30.6180   47.1850 C   0  0  0  0  0  0  0  0  0  0  0  0
   46.8460   31.8930   47.4390 N   0  0  0  0  0  0  0  0  0  0  0  0
   47.2070   34.0530   43.7610 C   0  0  0  0  0  0  0  0  0  0  0  0
   48.0190   32.9580   43.1450 C   0  0  0  0  0  0  0  0  0  0  0  0
   45.4179   34.9907   46.0124 H   0  0  0  0  0  0  0  0  0  0  0  0
   44.0045   36.6051   44.6209 H   0  0  0  0  0  0  0  0  0  0  0  0
   43.1731   35.3197   42.5658 H   0  0  0  0  0  0  0  0  0  0  0  0
   44.6733   36.3510   42.2151 H   0  0  0  0  0  0  0  0  0  0  0  0
   44.4509   33.9933   41.2135 H   0  0  0  0  0  0  0  0  0  0  0  0
   45.9972   34.5829   41.8989 H   0  0  0  0  0  0  0  0  0  0  0  0
   43.9216   33.0076   43.4994 H   0  0  0  0  0  0  0  0  0  0  0  0
   45.2904   32.2388   42.6803 H   0  0  0  0  0  0  0  0  0  0  0  0
   46.8807   33.9016   46.7734 H   0  0  0  0  0  0  0  0  0  0  0  0
   45.3804   30.9263   44.0705 H   0  0  0  0  0  0  0  0  0  0  0  0
   46.7395   29.8435   47.9445 H   0  0  0  0  0  0  0  0  0  0  0  0
   47.0529   34.8345   43.0024 H   0  0  0  0  0  0  0  0  0  0  0  0
   47.7726   34.4070   44.6355 H   0  0  0  0  0  0  0  0  0  0  0  0
   48.4724   32.3466   43.9391 H   0  0  0  0  0  0  0  0  0  0  0  0
   47.3694   32.3261   42.5215 H   0  0  0  0  0  0  0  0  0  0  0  0
   48.8123   33.3961   42.5215 H   0  0  0  0  0  0  0  0  0  0  0  0
  1 13  1  6
  1  2  1  0
  1  8  1  0
  3  2  2  0
  4  3  1  0
  5  4  1  0
  5  6  1  0
  6  1  1  0
  7 12  2  0
  8  7  1  0
  9  8  2  0
  9 10  1  0
 10 11  2  0
 11 12  1  0
 14 13  1  0
  2 15  1  0
  3 16  1  0
  4 17  1  0
  4 18  1  0
  5 19  1  0
  5 20  1  0
  6 21  1  0
  6 22  1  0
  7 23  1  0
  9 24  1  0
 11 25  1  0
 13 26  1  0
 13 27  1  0
 14 28  1  0
 14 29  1  0
 14 30  1  0
M  ISO  8  15  13  16  13  17  13  18  13  19  13  20  13  21  13  22  13
M  ISO  8  23  14  24  14  25  14  26   8  27   8  28   8  29   8  30   8
M  END
>  <minimizedAffinity>  (1) 
-3.85843635

>  <minimizedRMSD>  (1) 
1.63802207

$$$$
