
     RDKit          3D

 26 27  0  0  1  0  0  0  0  0999 V2000
   45.7350   33.3960   45.1520 C   0  0  2  0  0  0  0  0  0  0  0  0
   45.0830   34.6730   45.6190 C   0  0  0  0  0  0  0  0  0  0  0  0
   44.6360   35.6000   44.6050 C   0  0  0  0  0  0  0  0  0  0  0  0
   44.8140   35.2890   43.1930 C   0  0  0  0  0  0  0  0  0  0  0  0
   45.5130   34.0470   42.8500 C   0  0  0  0  0  0  0  0  0  0  0  0
   45.1690   32.9570   43.8330 C   0  0  0  0  0  0  0  0  0  0  0  0
   45.3290   32.7720   47.5040 C   0  0  0  0  0  0  0  0  0  0  0  0
   45.6900   32.3960   46.2130 C   0  0  0  0  0  0  0  0  0  0  0  0
   46.0220   31.0500   45.9950 C   0  0  0  0  0  0  0  0  0  0  0  0
   45.9800   30.1760   47.0340 N   0  0  0  0  0  0  0  0  0  0  0  0
   45.6240   30.5810   48.2770 C   0  0  0  0  0  0  0  0  0  0  0  0
   45.3020   31.8710   48.5100 N   0  0  0  0  0  0  0  0  0  0  0  0
   47.1670   33.6840   44.9350 N   0  0  0  0  0  0  0  0  0  0  0  0
   44.9529   34.8902   46.6895 H   0  0  0  0  0  0  0  0  0  0  0  0
   44.1586   36.5458   44.9008 H   0  0  0  0  0  0  0  0  0  0  0  0
   43.8132   35.2383   42.7394 H   0  0  0  0  0  0  0  0  0  0  0  0
   45.4670   36.0886   42.8132 H   0  0  0  0  0  0  0  0  0  0  0  0
   45.2138   33.7307   41.8398 H   0  0  0  0  0  0  0  0  0  0  0  0
   46.5974   34.2283   42.8859 H   0  0  0  0  0  0  0  0  0  0  0  0
   44.0778   32.8383   43.9058 H   0  0  0  0  0  0  0  0  0  0  0  0
   45.5823   31.9869   43.5199 H   0  0  0  0  0  0  0  0  0  0  0  0
   45.0616   33.8193   47.7080 H   0  0  0  0  0  0  0  0  0  0  0  0
   46.3136   30.7058   44.9918 H   0  0  0  0  0  0  0  0  0  0  0  0
   45.5972   29.8537   49.1018 H   0  0  0  0  0  0  0  0  0  0  0  0
   47.6398   33.7791   45.8451 H   0  0  0  0  0  0  0  0  0  0  0  0
   47.5958   32.9124   44.4043 H   0  0  0  0  0  0  0  0  0  0  0  0
  1 13  1  6
  1  2  1  0
  1  8  1  0
  3  2  2  0
  4  3  1  0
  5  4  1  0
  5  6  1  0
  6  1  1  0
  7 12  2  0
  8  7  1  0
  9  8  2  0
  9 10  1  0
 10 11  2  0
 11 12  1  0
  2 14  1  0
  3 15  1  0
  4 16  1  0
  4 17  1  0
  5 18  1  0
  5 19  1  0
  6 20  1  0
  6 21  1  0
  7 22  1  0
  9 23  1  0
 11 24  1  0
 13 25  1  0
 13 26  1  0
M  ISO  8  14  13  15  13  16  13  17  13  18  13  19  13  20  13  21  13
M  ISO  5  22  14  23  14  24  14  25   5  26   5
M  END
>  <minimizedAffinity>  (1) 
-4.04303551

>  <minimizedRMSD>  (1) 
0.649914682

$$$$
