
     RDKit          3D

 26 28  0  0  0  0  0  0  0  0999 V2000
   45.9670   34.4390   41.9760 N   0  0  0  0  0  0  0  0  0  0  0  0
   45.3960   34.0870   40.8290 C   0  0  0  0  0  0  0  0  0  0  0  0
   46.3170   33.9500   39.8670 N   0  0  0  0  0  0  0  0  0  0  0  0
   47.4940   34.2280   40.4450 C   0  0  0  0  0  0  0  0  0  0  0  0
   47.3010   34.5390   41.7710 N   0  0  0  0  0  0  0  0  0  0  0  0
   48.8100   34.2350   39.8700 N   0  0  0  0  0  0  0  0  0  0  0  0
   44.4540   36.0400   45.0040 C   0  0  0  0  0  0  0  0  0  0  0  0
   44.8380   35.8860   43.6770 C   0  0  0  0  0  0  0  0  0  0  0  0
   45.5150   34.7210   43.3050 C   0  0  0  0  0  0  0  0  0  0  0  0
   45.7670   33.7890   44.2670 N   0  0  0  0  0  0  0  0  0  0  0  0
   45.3700   33.9820   45.5640 C   0  0  0  0  0  0  0  0  0  0  0  0
   44.7250   35.0990   45.9020 N   0  0  0  0  0  0  0  0  0  0  0  0
   43.9500   33.9050   40.7560 C   0  0  0  0  0  0  0  0  0  0  0  0
   43.2090   34.9740   40.2460 C   0  0  0  0  0  0  0  0  0  0  0  0
   41.8340   34.8320   40.1630 C   0  0  0  0  0  0  0  0  0  0  0  0
   41.1990   33.7170   40.5510 N   0  0  0  0  0  0  0  0  0  0  0  0
   41.9490   32.6870   41.0450 C   0  0  0  0  0  0  0  0  0  0  0  0
   43.2720   32.8070   41.1320 N   0  0  0  0  0  0  0  0  0  0  0  0
   49.6253   34.4729   40.4527 H   0  0  0  0  0  0  0  0  0  0  0  0
   48.9385   34.0021   38.8749 H   0  0  0  0  0  0  0  0  0  0  0  0
   43.9202   36.9505   45.3139 H   0  0  0  0  0  0  0  0  0  0  0  0
   44.6135   36.6656   42.9342 H   0  0  0  0  0  0  0  0  0  0  0  0
   45.5830   33.2169   46.3251 H   0  0  0  0  0  0  0  0  0  0  0  0
   43.7032   35.9011   39.9200 H   0  0  0  0  0  0  0  0  0  0  0  0
   41.2396   35.6667   39.7631 H   0  0  0  0  0  0  0  0  0  0  0  0
   41.4590   31.7577   41.3711 H   0  0  0  0  0  0  0  0  0  0  0  0
  1  9  1  0
  2  1  1  0
  3  4  1  0
  3  2  2  0
  4  5  2  0
  5  1  1  0
  6  4  1  0
  7 12  2  0
  8  7  1  0
  9  8  2  0
  9 10  1  0
 10 11  2  0
 11 12  1  0
 13  2  1  0
 13 18  1  0
 14 13  2  0
 15 14  1  0
 15 16  2  0
 16 17  1  0
 17 18  2  0
  6 19  1  0
  6 20  1  0
  7 21  1  0
  8 22  1  0
 11 23  1  0
 14 24  1  0
 15 25  1  0
 17 26  1  0
M  ISO  6  21  14  22  14  23  14  24  14  25  14  26  14
M  END
>  <minimizedAffinity>  (1) 
-5.01724482

>  <minimizedRMSD>  (1) 
1.11178768

$$$$
