
     RDKit          3D

 36 38  0  0  1  0  0  0  0  0999 V2000
   44.3830   32.7980   40.6390 C   0  0  2  0  0  0  0  0  0  0  0  0
   43.5940   32.7050   41.9110 C   0  0  0  0  0  0  0  0  0  0  0  0
   42.5900   31.6480   41.9420 C   0  0  0  0  0  0  0  0  0  0  0  0
   42.4160   30.7290   40.8360 C   0  0  0  0  0  0  0  0  0  0  0  0
   43.4050   30.7860   39.7470 C   0  0  0  0  0  0  0  0  0  0  0  0
   44.6920   31.4060   40.1420 C   0  0  0  0  0  0  0  0  0  0  0  0
   45.6060   34.3440   42.0700 C   0  0  0  0  0  0  0  0  0  0  0  0
   45.6120   33.5790   40.9230 C   0  0  0  0  0  0  0  0  0  0  0  0
   46.7530   33.6330   40.0780 C   0  0  0  0  0  0  0  0  0  0  0  0
   47.7790   34.4240   40.4210 N   0  0  0  0  0  0  0  0  0  0  0  0
   47.7430   35.1680   41.5590 C   0  0  0  0  0  0  0  0  0  0  0  0
   46.6620   35.1300   42.3830 N   0  0  0  0  0  0  0  0  0  0  0  0
   43.5360   33.6440   39.7400 C   0  0  0  0  0  0  0  0  0  0  0  0
   43.5730   34.0080   38.5180 O   0  0  0  0  0  0  0  0  0  0  0  0
   42.2780   34.3910   39.9310 C   0  0  0  0  0  0  0  0  0  0  0  0
   42.1050   35.4410   40.7890 C   0  0  0  0  0  0  0  0  0  0  0  0
   40.9060   36.1250   41.0490 C   0  0  0  0  0  0  0  0  0  0  0  0
   39.7790   35.7130   40.3850 C   0  0  0  0  0  0  0  0  0  0  0  0
   39.8760   34.6590   39.5040 C   0  0  0  0  0  0  0  0  0  0  0  0
   41.0940   34.0520   39.3160 C   0  0  0  0  0  0  0  0  0  0  0  0
   43.7607   33.3851   42.7594 H   0  0  0  0  0  0  0  0  0  0  0  0
   41.9476   31.5458   42.8290 H   0  0  0  0  0  0  0  0  0  0  0  0
   42.4367   29.7092   41.2478 H   0  0  0  0  0  0  0  0  0  0  0  0
   41.4655   31.0267   40.3692 H   0  0  0  0  0  0  0  0  0  0  0  0
   42.9771   31.3713   38.9198 H   0  0  0  0  0  0  0  0  0  0  0  0
   43.6242   29.7477   39.4575 H   0  0  0  0  0  0  0  0  0  0  0  0
   45.1646   30.8166   40.9415 H   0  0  0  0  0  0  0  0  0  0  0  0
   45.3865   31.4409   39.2897 H   0  0  0  0  0  0  0  0  0  0  0  0
   44.7328   34.3150   42.7383 H   0  0  0  0  0  0  0  0  0  0  0  0
   46.7936   33.0345   39.1560 H   0  0  0  0  0  0  0  0  0  0  0  0
   48.5994   35.8087   41.8161 H   0  0  0  0  0  0  0  0  0  0  0  0
   42.9972   35.7860   41.3321 H   0  0  0  0  0  0  0  0  0  0  0  0
   40.8722   36.9627   41.7611 H   0  0  0  0  0  0  0  0  0  0  0  0
   38.8150   36.2154   40.5531 H   0  0  0  0  0  0  0  0  0  0  0  0
   38.9887   34.3073   38.9573 H   0  0  0  0  0  0  0  0  0  0  0  0
   41.1263   33.2135   38.6048 H   0  0  0  0  0  0  0  0  0  0  0  0
  1 13  1  6
  1  8  1  0
  1  2  1  0
  2  3  2  0
  4  3  1  0
  5  6  1  0
  5  4  1  0
  6  1  1  0
  7 12  2  0
  8  7  1  0
  9 10  1  0
  9  8  2  0
 10 11  2  0
 11 12  1  0
 13 15  1  0
 14 13  2  0
 15 16  2  0
 16 17  1  0
 18 17  2  0
 19 18  1  0
 20 19  2  0
 20 15  1  0
  2 21  1  0
  3 22  1  0
  4 23  1  0
  4 24  1  0
  5 25  1  0
  5 26  1  0
  6 27  1  0
  6 28  1  0
  7 29  1  0
  9 30  1  0
 11 31  1  0
 16 32  1  0
 17 33  1  0
 18 34  1  0
 19 35  1  0
 20 36  1  0
M  ISO  8  21  13  22  13  23  13  24  13  25  13  26  13  27  13  28  13
M  ISO  8  29  14  30  14  31  14  32  14  33  14  34  14  35  14  36  14
M  END
>  <minimizedAffinity>  (1) 
-4.53090715

>  <minimizedRMSD>  (1) 
6.41345882

$$$$
