
     RDKit          3D

 28 29  0  0  1  0  0  0  0  0999 V2000
   45.5500   33.5690   43.5600 C   0  0  2  0  0  0  0  0  0  0  0  0
   45.4670   35.0300   43.8960 C   0  0  0  0  0  0  0  0  0  0  0  0
   44.8820   35.8680   42.8760 C   0  0  0  0  0  0  0  0  0  0  0  0
   44.3930   35.3320   41.6240 C   0  0  0  0  0  0  0  0  0  0  0  0
   44.4970   33.8840   41.4170 C   0  0  0  0  0  0  0  0  0  0  0  0
   44.4170   33.1250   42.7070 C   0  0  0  0  0  0  0  0  0  0  0  0
   45.6990   33.4730   45.9970 C   0  0  0  0  0  0  0  0  0  0  0  0
   45.7710   32.8060   44.7890 C   0  0  0  0  0  0  0  0  0  0  0  0
   46.0850   31.4020   44.7910 C   0  0  0  0  0  0  0  0  0  0  0  0
   46.2980   30.7850   45.9620 N   0  0  0  0  0  0  0  0  0  0  0  0
   46.2180   31.4810   47.1350 C   0  0  0  0  0  0  0  0  0  0  0  0
   45.9250   32.7940   47.1380 N   0  0  0  0  0  0  0  0  0  0  0  0
   46.8900   33.4770   42.8040 C   0  0  0  0  0  0  0  0  0  0  0  0
   47.4830   33.0210   41.8160 O   0  0  0  0  0  0  0  0  0  0  0  0
   47.9550   34.2050   43.4450 N   0  0  0  0  0  0  0  0  0  0  0  0
   45.8272   35.4342   44.8535 H   0  0  0  0  0  0  0  0  0  0  0  0
   44.8055   36.9503   43.0568 H   0  0  0  0  0  0  0  0  0  0  0  0
   43.3291   35.5999   41.5448 H   0  0  0  0  0  0  0  0  0  0  0  0
   45.0490   35.7708   40.8578 H   0  0  0  0  0  0  0  0  0  0  0  0
   43.6751   33.5590   40.7622 H   0  0  0  0  0  0  0  0  0  0  0  0
   45.4758   33.6756   40.9604 H   0  0  0  0  0  0  0  0  0  0  0  0
   43.4624   33.3393   43.2098 H   0  0  0  0  0  0  0  0  0  0  0  0
   44.4734   32.0421   42.5224 H   0  0  0  0  0  0  0  0  0  0  0  0
   45.4598   34.5463   46.0264 H   0  0  0  0  0  0  0  0  0  0  0  0
   46.1494   30.8431   43.8458 H   0  0  0  0  0  0  0  0  0  0  0  0
   46.3953   30.9616   48.0883 H   0  0  0  0  0  0  0  0  0  0  0  0
   48.8967   34.2139   43.0277 H   0  0  0  0  0  0  0  0  0  0  0  0
   47.7748   34.7166   44.3206 H   0  0  0  0  0  0  0  0  0  0  0  0
  1 13  1  6
  1  2  1  0
  1  8  1  0
  3  2  2  0
  4  3  1  0
  5  4  1  0
  5  6  1  0
  6  1  1  0
  7 12  2  0
  8  9  2  0
  8  7  1  0
  9 10  1  0
 10 11  2  0
 11 12  1  0
 13 15  1  0
 14 13  2  0
  2 16  1  0
  3 17  1  0
  4 18  1  0
  4 19  1  0
  5 20  1  0
  5 21  1  0
  6 22  1  0
  6 23  1  0
  7 24  1  0
  9 25  1  0
 11 26  1  0
 15 27  1  0
 15 28  1  0
M  ISO  8  16  13  17  13  18  13  19  13  20  13  21  13  22  13  23  13
M  ISO  3  24  14  25  14  26  14
M  END
>  <minimizedAffinity>  (1) 
-3.97716737

>  <minimizedRMSD>  (1) 
1.02670026

$$$$
