
     RDKit          3D

 46 48  0  0  1  0  0  0  0  0999 V2000
   45.9300   33.3480   43.4010 C   0  0  1  0  0  0  0  0  0  0  0  0
   45.8980   34.7880   43.7590 C   0  0  0  0  0  0  0  0  0  0  0  0
   45.1160   35.6450   42.9030 C   0  0  0  0  0  0  0  0  0  0  0  0
   44.4020   35.1390   41.7580 C   0  0  0  0  0  0  0  0  0  0  0  0
   44.4350   33.6940   41.5300 C   0  0  0  0  0  0  0  0  0  0  0  0
   44.6000   32.9430   42.8230 C   0  0  0  0  0  0  0  0  0  0  0  0
   47.0720   33.2210   42.3920 C   0  0  0  0  0  0  0  0  0  0  0  0
   47.2040   32.8380   41.1860 O   0  0  0  0  0  0  0  0  0  0  0  0
   48.3660   33.6470   42.9200 N   0  0  0  0  0  0  0  0  0  0  0  0
   49.0190   34.7990   42.5060 C   0  0  0  0  0  0  0  0  0  0  0  0
   48.6760   35.7090   41.7610 N   0  0  0  0  0  0  0  0  0  0  0  0
   50.3410   35.2040   42.9290 N   0  0  0  0  0  0  0  0  0  0  0  0
   47.8660   35.9480   41.2450 H   0  0  0  0  0  0  0  0  0  0  0  0
   46.4500   33.2370   45.7770 C   0  0  0  0  0  0  0  0  0  0  0  0
   46.3480   32.5640   44.5750 C   0  0  0  0  0  0  0  0  0  0  0  0
   46.7020   31.1620   44.5200 C   0  0  0  0  0  0  0  0  0  0  0  0
   47.1220   30.5690   45.6490 N   0  0  0  0  0  0  0  0  0  0  0  0
   47.2110   31.2610   46.8000 C   0  0  0  0  0  0  0  0  0  0  0  0
   46.8830   32.5610   46.8630 N   0  0  0  0  0  0  0  0  0  0  0  0
   47.6970   30.4370   47.9390 C   0  0  0  0  0  0  0  0  0  0  0  0
   48.9460   29.6730   47.6400 C   0  0  0  0  0  0  0  0  0  0  0  0
   49.4340   29.2850   49.0220 C   0  0  0  0  0  0  0  0  0  0  0  0
   49.2300   30.5680   49.8040 C   0  0  0  0  0  0  0  0  0  0  0  0
   48.0920   31.2890   49.1220 C   0  0  0  0  0  0  0  0  0  0  0  0
   46.4419   35.1805   44.6309 H   0  0  0  0  0  0  0  0  0  0  0  0
   45.0626   36.7197   43.1312 H   0  0  0  0  0  0  0  0  0  0  0  0
   43.3476   35.4315   41.8706 H   0  0  0  0  0  0  0  0  0  0  0  0
   44.9184   35.5733   40.8893 H   0  0  0  0  0  0  0  0  0  0  0  0
   43.4935   33.3844   41.0529 H   0  0  0  0  0  0  0  0  0  0  0  0
   45.2928   33.4632   40.8812 H   0  0  0  0  0  0  0  0  0  0  0  0
   43.7898   33.2064   43.5188 H   0  0  0  0  0  0  0  0  0  0  0  0
   44.5600   31.8568   42.6538 H   0  0  0  0  0  0  0  0  0  0  0  0
   48.8171   33.0613   43.6372 H   0  0  0  0  0  0  0  0  0  0  0  0
   50.7512   36.0781   42.5705 H   0  0  0  0  0  0  0  0  0  0  0  0
   50.8725   34.6184   43.5889 H   0  0  0  0  0  0  0  0  0  0  0  0
   46.1839   34.3020   45.8482 H   0  0  0  0  0  0  0  0  0  0  0  0
   46.6290   30.5974   43.5788 H   0  0  0  0  0  0  0  0  0  0  0  0
   46.8474   29.7680   48.1403 H   0  0  0  0  0  0  0  0  0  0  0  0
   48.7310   28.7831   47.0303 H   0  0  0  0  0  0  0  0  0  0  0  0
   49.6832   30.2484   47.0608 H   0  0  0  0  0  0  0  0  0  0  0  0
   48.8348   28.4629   49.4406 H   0  0  0  0  0  0  0  0  0  0  0  0
   50.4707   28.9177   49.0378 H   0  0  0  0  0  0  0  0  0  0  0  0
   48.9694   30.3425   50.8486 H   0  0  0  0  0  0  0  0  0  0  0  0
   50.1437   31.1802   49.8229 H   0  0  0  0  0  0  0  0  0  0  0  0
   48.4198   32.2828   48.7829 H   0  0  0  0  0  0  0  0  0  0  0  0
   47.2449   31.4371   49.8080 H   0  0  0  0  0  0  0  0  0  0  0  0
  1  7  1  6
  1  2  1  0
  1 15  1  0
  3  2  2  0
  4  3  1  0
  5  4  1  0
  5  6  1  0
  6  1  1  0
  7  9  1  0
  8  7  2  0
 10  9  1  0
 10 12  1  0
 11 10  2  0
 13 11  1  0
 14 19  2  0
 15 14  1  0
 16 15  2  0
 16 17  1  0
 17 18  2  0
 18 19  1  0
 18 20  1  0
 20 24  1  0
 21 20  1  0
 21 22  1  0
 22 23  1  0
 24 23  1  0
  2 25  1  0
  3 26  1  0
  4 27  1  0
  4 28  1  0
  5 29  1  0
  5 30  1  0
  6 31  1  0
  6 32  1  0
  9 33  1  0
 12 34  1  0
 12 35  1  0
 14 36  1  0
 16 37  1  0
 20 38  1  0
 21 39  1  0
 21 40  1  0
 22 41  1  0
 22 42  1  0
 23 43  1  0
 23 44  1  0
 24 45  1  0
 24 46  1  0
M  ISO  8  25  13  26  13  27  13  28  13  29  13  30  13  31  13  32  13
M  ISO  8  36  14  37  14  38  13  39  13  40  13  41  13  42  13  43  13
M  ISO  3  44  13  45  13  46  13
M  END
>  <minimizedAffinity>  (1) 
-6.28144264

>  <minimizedRMSD>  (1) 
1.44654393

$$$$
