
     RDKit          3D

 33 34  0  0  1  0  0  0  0  0999 V2000
   45.8270   33.2510   43.6150 C   0  0  1  0  0  0  0  0  0  0  0  0
   45.9370   34.7170   43.8480 C   0  0  0  0  0  0  0  0  0  0  0  0
   45.4670   35.5650   42.7750 C   0  0  0  0  0  0  0  0  0  0  0  0
   44.9160   35.0150   41.5560 C   0  0  0  0  0  0  0  0  0  0  0  0
   44.7890   33.5590   41.4640 C   0  0  0  0  0  0  0  0  0  0  0  0
   44.5840   32.9440   42.8230 C   0  0  0  0  0  0  0  0  0  0  0  0
   47.1100   32.8740   42.9030 C   0  0  0  0  0  0  0  0  0  0  0  0
   47.4570   32.1060   41.9600 O   0  0  0  0  0  0  0  0  0  0  0  0
   48.3150   33.5190   43.3550 N   0  0  0  0  0  0  0  0  0  0  0  0
   48.9690   34.5540   42.6740 C   0  0  0  0  0  0  0  0  0  0  0  0
   48.6960   35.1220   41.6130 N   0  0  0  0  0  0  0  0  0  0  0  0
   50.1820   35.2290   43.0860 N   0  0  0  0  0  0  0  0  0  0  0  0
   47.9790   35.0700   40.9040 H   0  0  0  0  0  0  0  0  0  0  0  0
   45.8300   33.3650   46.0600 C   0  0  0  0  0  0  0  0  0  0  0  0
   45.8860   32.5620   44.9240 C   0  0  0  0  0  0  0  0  0  0  0  0
   46.0490   31.1420   45.0700 C   0  0  0  0  0  0  0  0  0  0  0  0
   46.1470   30.6320   46.3070 N   0  0  0  0  0  0  0  0  0  0  0  0
   46.0930   31.4340   47.4000 C   0  0  0  0  0  0  0  0  0  0  0  0
   45.9380   32.7650   47.2670 N   0  0  0  0  0  0  0  0  0  0  0  0
   46.3507   35.1303   44.7797 H   0  0  0  0  0  0  0  0  0  0  0  0
   45.5302   36.6573   42.8889 H   0  0  0  0  0  0  0  0  0  0  0  0
   43.9101   35.4415   41.4282 H   0  0  0  0  0  0  0  0  0  0  0  0
   45.6447   35.2809   40.7761 H   0  0  0  0  0  0  0  0  0  0  0  0
   43.9277   33.3135   40.8253 H   0  0  0  0  0  0  0  0  0  0  0  0
   45.7175   33.1545   41.0348 H   0  0  0  0  0  0  0  0  0  0  0  0
   43.7022   33.3841   43.3116 H   0  0  0  0  0  0  0  0  0  0  0  0
   44.4125   31.8599   42.7505 H   0  0  0  0  0  0  0  0  0  0  0  0
   48.7258   33.1964   44.2427 H   0  0  0  0  0  0  0  0  0  0  0  0
   50.5763   35.9811   42.5030 H   0  0  0  0  0  0  0  0  0  0  0  0
   50.6506   34.9571   43.9620 H   0  0  0  0  0  0  0  0  0  0  0  0
   45.7018   34.4544   45.9781 H   0  0  0  0  0  0  0  0  0  0  0  0
   46.0925   30.4874   44.1870 H   0  0  0  0  0  0  0  0  0  0  0  0
   46.1766   30.9928   48.4042 H   0  0  0  0  0  0  0  0  0  0  0  0
  1  7  1  6
  1  2  1  0
  1 15  1  0
  3  2  2  0
  4  3  1  0
  5  4  1  0
  5  6  1  0
  6  1  1  0
  7  9  1  0
  8  7  2  0
 10 12  1  0
 10  9  1  0
 11 10  2  0
 13 11  1  0
 14 19  2  0
 15 16  2  0
 15 14  1  0
 16 17  1  0
 17 18  2  0
 19 18  1  0
  2 20  1  0
  3 21  1  0
  4 22  1  0
  4 23  1  0
  5 24  1  0
  5 25  1  0
  6 26  1  0
  6 27  1  0
  9 28  1  0
 12 29  1  0
 12 30  1  0
 14 31  1  0
 16 32  1  0
 18 33  1  0
M  ISO  8  20  13  21  13  22  13  23  13  24  13  25  13  26  13  27  13
M  ISO  3  31  14  32  14  33  14
M  END
>  <minimizedAffinity>  (1) 
-5.30213499

>  <minimizedRMSD>  (1) 
1.64128494

$$$$
