
     RDKit          3D

 45 46  0  0  1  0  0  0  0  0999 V2000
   45.6710   33.4720   43.4800 C   0  0  1  0  0  0  0  0  0  0  0  0
   45.8200   34.9210   43.7630 C   0  0  0  0  0  0  0  0  0  0  0  0
   45.3560   35.8230   42.7360 C   0  0  0  0  0  0  0  0  0  0  0  0
   44.7800   35.3510   41.5040 C   0  0  0  0  0  0  0  0  0  0  0  0
   44.6170   33.9050   41.3470 C   0  0  0  0  0  0  0  0  0  0  0  0
   44.4210   33.2330   42.6780 C   0  0  0  0  0  0  0  0  0  0  0  0
   46.9410   33.0930   42.7120 C   0  0  0  0  0  0  0  0  0  0  0  0
   47.2300   32.3880   41.6930 O   0  0  0  0  0  0  0  0  0  0  0  0
   48.1570   33.6810   43.2680 N   0  0  0  0  0  0  0  0  0  0  0  0
   48.8770   34.6860   42.6390 C   0  0  0  0  0  0  0  0  0  0  0  0
   48.6530   35.3410   41.6280 N   0  0  0  0  0  0  0  0  0  0  0  0
   50.1360   35.2230   43.1080 N   0  0  0  0  0  0  0  0  0  0  0  0
   47.9230   35.4040   40.9610 H   0  0  0  0  0  0  0  0  0  0  0  0
   45.7100   33.4600   45.9190 C   0  0  0  0  0  0  0  0  0  0  0  0
   45.7360   32.7240   44.7470 C   0  0  0  0  0  0  0  0  0  0  0  0
   45.8800   31.2860   44.8200 C   0  0  0  0  0  0  0  0  0  0  0  0
   45.9910   30.7140   46.0280 N   0  0  0  0  0  0  0  0  0  0  0  0
   45.9650   31.4720   47.1480 C   0  0  0  0  0  0  0  0  0  0  0  0
   45.8280   32.8010   47.0940 N   0  0  0  0  0  0  0  0  0  0  0  0
   46.0970   30.7660   48.4790 C   0  0  0  0  0  0  0  0  0  0  0  0
   47.5140   30.7440   48.9450 C   0  0  0  0  0  0  0  0  0  0  0  0
   45.5800   29.3660   48.3200 C   0  0  0  0  0  0  0  0  0  0  0  0
   45.2510   31.4940   49.5100 C   0  0  0  0  0  0  0  0  0  0  0  0
   46.2594   35.2872   44.7026 H   0  0  0  0  0  0  0  0  0  0  0  0
   45.4455   36.9070   42.9002 H   0  0  0  0  0  0  0  0  0  0  0  0
   43.7837   35.8075   41.4094 H   0  0  0  0  0  0  0  0  0  0  0  0
   45.5036   35.6384   40.7270 H   0  0  0  0  0  0  0  0  0  0  0  0
   43.7393   33.7094   40.7134 H   0  0  0  0  0  0  0  0  0  0  0  0
   45.5281   33.4998   40.8826 H   0  0  0  0  0  0  0  0  0  0  0  0
   43.5519   33.6656   43.1952 H   0  0  0  0  0  0  0  0  0  0  0  0
   44.2364   32.1561   42.5505 H   0  0  0  0  0  0  0  0  0  0  0  0
   48.4977   33.3310   44.1748 H   0  0  0  0  0  0  0  0  0  0  0  0
   50.6059   35.9713   42.5787 H   0  0  0  0  0  0  0  0  0  0  0  0
   50.5624   34.8570   43.9712 H   0  0  0  0  0  0  0  0  0  0  0  0
   45.5962   34.5538   45.8952 H   0  0  0  0  0  0  0  0  0  0  0  0
   45.8980   30.6756   43.9051 H   0  0  0  0  0  0  0  0  0  0  0  0
   47.5384   30.7436   50.0447 H   0  0  0  0  0  0  0  0  0  0  0  0
   48.0103   29.8380   48.5669 H   0  0  0  0  0  0  0  0  0  0  0  0
   48.0382   31.6341   48.5669 H   0  0  0  0  0  0  0  0  0  0  0  0
   45.4156   28.9209   49.3124 H   0  0  0  0  0  0  0  0  0  0  0  0
   44.6302   29.3866   47.7655 H   0  0  0  0  0  0  0  0  0  0  0  0
   46.3153   28.7644   47.7655 H   0  0  0  0  0  0  0  0  0  0  0  0
   45.5803   31.2107   50.5206 H   0  0  0  0  0  0  0  0  0  0  0  0
   45.3660   32.5800   49.3779 H   0  0  0  0  0  0  0  0  0  0  0  0
   44.1943   31.2184   49.3779 H   0  0  0  0  0  0  0  0  0  0  0  0
  1  7  1  6
  1  2  1  0
  1 15  1  0
  3  2  2  0
  4  3  1  0
  5  4  1  0
  5  6  1  0
  6  1  1  0
  7  9  1  0
  8  7  2  0
 10 12  1  0
 10  9  1  0
 11 10  2  0
 13 11  1  0
 14 19  2  0
 15 16  2  0
 15 14  1  0
 16 17  1  0
 17 18  2  0
 18 20  1  0
 19 18  1  0
 20 21  1  0
 20 23  1  0
 22 20  1  0
  2 24  1  0
  3 25  1  0
  4 26  1  0
  4 27  1  0
  5 28  1  0
  5 29  1  0
  6 30  1  0
  6 31  1  0
  9 32  1  0
 12 33  1  0
 12 34  1  0
 14 35  1  0
 16 36  1  0
 21 37  1  0
 21 38  1  0
 21 39  1  0
 22 40  1  0
 22 41  1  0
 22 42  1  0
 23 43  1  0
 23 44  1  0
 23 45  1  0
M  ISO  8  24  13  25  13  26  13  27  13  28  13  29  13  30  13  31  13
M  ISO  8  35  14  36  14  37   8  38   8  39   8  40   8  41   8  42   8
M  ISO  3  43   8  44   8  45   8
M  END
>  <minimizedAffinity>  (1) 
-6.276371

>  <minimizedRMSD>  (1) 
0.424049526

$$$$
