
     RDKit          3D

 41 43  0  0  1  0  0  0  0  0999 V2000
   45.7560   33.6810   43.0350 C   0  0  1  0  0  0  0  0  0  0  0  0
   45.6040   35.0940   43.4650 C   0  0  0  0  0  0  0  0  0  0  0  0
   44.6880   35.9030   42.6990 C   0  0  0  0  0  0  0  0  0  0  0  0
   43.9550   35.3720   41.5750 C   0  0  0  0  0  0  0  0  0  0  0  0
   44.1230   33.9560   41.2710 C   0  0  0  0  0  0  0  0  0  0  0  0
   44.4410   33.1650   42.5110 C   0  0  0  0  0  0  0  0  0  0  0  0
   46.8430   33.7180   41.9570 C   0  0  0  0  0  0  0  0  0  0  0  0
   46.8840   33.7050   40.6860 O   0  0  0  0  0  0  0  0  0  0  0  0
   48.1980   33.7860   42.4970 N   0  0  0  0  0  0  0  0  0  0  0  0
   49.0020   34.9120   42.4010 C   0  0  0  0  0  0  0  0  0  0  0  0
   48.7760   36.0440   41.9870 N   0  0  0  0  0  0  0  0  0  0  0  0
   50.3810   34.9900   42.8300 N   0  0  0  0  0  0  0  0  0  0  0  0
   47.9970   36.5360   41.6260 H   0  0  0  0  0  0  0  0  0  0  0  0
   46.3380   33.4930   45.3950 C   0  0  0  0  0  0  0  0  0  0  0  0
   46.3200   32.9000   44.1460 C   0  0  0  0  0  0  0  0  0  0  0  0
   46.8950   31.5830   43.9830 C   0  0  0  0  0  0  0  0  0  0  0  0
   47.4330   30.9790   45.0510 N   0  0  0  0  0  0  0  0  0  0  0  0
   47.4340   31.6000   46.2590 C   0  0  0  0  0  0  0  0  0  0  0  0
   46.9020   32.8150   46.4200 N   0  0  0  0  0  0  0  0  0  0  0  0
   48.0410   30.8980   47.4120 C   0  0  0  0  0  0  0  0  0  0  0  0
   48.1560   31.5390   48.6280 C   0  0  0  0  0  0  0  0  0  0  0  0
   48.7430   30.7930   49.6560 C   0  0  0  0  0  0  0  0  0  0  0  0
   49.1670   29.5290   49.4660 N   0  0  0  0  0  0  0  0  0  0  0  0
   49.0380   28.9340   48.2650 C   0  0  0  0  0  0  0  0  0  0  0  0
   48.4760   29.6220   47.2460 N   0  0  0  0  0  0  0  0  0  0  0  0
   46.1602   35.5020   44.3219 H   0  0  0  0  0  0  0  0  0  0  0  0
   44.5438   36.9567   42.9801 H   0  0  0  0  0  0  0  0  0  0  0  0
   42.8857   35.5430   41.7683 H   0  0  0  0  0  0  0  0  0  0  0  0
   44.3644   35.8974   40.6996 H   0  0  0  0  0  0  0  0  0  0  0  0
   43.1919   33.5713   40.8295 H   0  0  0  0  0  0  0  0  0  0  0  0
   44.9608   33.8490   40.5663 H   0  0  0  0  0  0  0  0  0  0  0  0
   43.6517   33.3082   43.2636 H   0  0  0  0  0  0  0  0  0  0  0  0
   44.5014   32.0897   42.2870 H   0  0  0  0  0  0  0  0  0  0  0  0
   48.5761   32.9550   42.9737 H   0  0  0  0  0  0  0  0  0  0  0  0
   50.9053   35.8698   42.7208 H   0  0  0  0  0  0  0  0  0  0  0  0
   50.8387   34.1658   43.2447 H   0  0  0  0  0  0  0  0  0  0  0  0
   45.9042   34.4917   45.5509 H   0  0  0  0  0  0  0  0  0  0  0  0
   46.8907   31.0869   43.0012 H   0  0  0  0  0  0  0  0  0  0  0  0
   47.8082   32.5714   48.7799 H   0  0  0  0  0  0  0  0  0  0  0  0
   48.8616   31.2524   50.6484 H   0  0  0  0  0  0  0  0  0  0  0  0
   49.3855   27.9012   48.1149 H   0  0  0  0  0  0  0  0  0  0  0  0
  1  7  1  6
  1  2  1  0
  1 15  1  0
  3  2  2  0
  4  3  1  0
  5  4  1  0
  5  6  1  0
  6  1  1  0
  7  9  1  0
  8  7  2  0
 10  9  1  0
 10 12  1  0
 11 10  2  0
 13 11  1  0
 14 19  2  0
 15 14  1  0
 16 15  2  0
 16 17  1  0
 17 18  2  0
 18 19  1  0
 18 20  1  0
 20 21  2  0
 21 22  1  0
 23 22  2  0
 24 23  1  0
 25 20  1  0
 25 24  2  0
  2 26  1  0
  3 27  1  0
  4 28  1  0
  4 29  1  0
  5 30  1  0
  5 31  1  0
  6 32  1  0
  6 33  1  0
  9 34  1  0
 12 35  1  0
 12 36  1  0
 14 37  1  0
 16 38  1  0
 21 39  1  0
 22 40  1  0
 24 41  1  0
M  ISO  8  26  13  27  13  28  13  29  13  30  13  31  13  32  13  33  13
M  ISO  5  37  14  38  14  39  14  40  14  41  14
M  END
>  <minimizedAffinity>  (1) 
-5.79660845

>  <minimizedRMSD>  (1) 
1.72043228

$$$$
