
     RDKit          3D

 38 40  0  0  1  0  0  0  0  0999 V2000
   45.6750   33.7130   42.9630 C   0  0  1  0  0  0  0  0  0  0  0  0
   45.5230   35.1580   43.2540 C   0  0  0  0  0  0  0  0  0  0  0  0
   44.6640   35.9000   42.3680 C   0  0  0  0  0  0  0  0  0  0  0  0
   43.9810   35.2810   41.2580 C   0  0  0  0  0  0  0  0  0  0  0  0
   44.1390   33.8390   41.0960 C   0  0  0  0  0  0  0  0  0  0  0  0
   44.3800   33.1640   42.4180 C   0  0  0  0  0  0  0  0  0  0  0  0
   46.8140   33.6300   41.9440 C   0  0  0  0  0  0  0  0  0  0  0  0
   46.9280   33.4700   40.6890 O   0  0  0  0  0  0  0  0  0  0  0  0
   48.1380   33.7720   42.5460 N   0  0  0  0  0  0  0  0  0  0  0  0
   48.9420   34.8890   42.3640 C   0  0  0  0  0  0  0  0  0  0  0  0
   48.7410   35.9580   41.8060 N   0  0  0  0  0  0  0  0  0  0  0  0
   50.2890   35.0240   42.8720 N   0  0  0  0  0  0  0  0  0  0  0  0
   47.9810   36.4030   41.3570 H   0  0  0  0  0  0  0  0  0  0  0  0
   46.1020   33.7130   45.3600 C   0  0  0  0  0  0  0  0  0  0  0  0
   46.1650   33.0220   44.1670 C   0  0  0  0  0  0  0  0  0  0  0  0
   46.7480   31.6980   44.1480 C   0  0  0  0  0  0  0  0  0  0  0  0
   47.2130   31.1930   45.3020 N   0  0  0  0  0  0  0  0  0  0  0  0
   47.1370   31.9000   46.4450 C   0  0  0  0  0  0  0  0  0  0  0  0
   46.5950   33.1260   46.4740 N   0  0  0  0  0  0  0  0  0  0  0  0
   47.6800   31.2380   47.6290 C   0  0  0  0  0  0  0  0  0  0  0  0
   47.4680   31.4820   48.9360 N   0  0  0  0  0  0  0  0  0  0  0  0
   48.1660   30.6380   49.6680 O   0  0  0  0  0  0  0  0  0  0  0  0
   48.8370   29.8390   48.8400 C   0  0  0  0  0  0  0  0  0  0  0  0
   48.5460   30.1990   47.5700 N   0  0  0  0  0  0  0  0  0  0  0  0
   46.0378   35.6372   44.0998 H   0  0  0  0  0  0  0  0  0  0  0  0
   44.5235   36.9768   42.5436 H   0  0  0  0  0  0  0  0  0  0  0  0
   42.9065   35.4847   41.3758 H   0  0  0  0  0  0  0  0  0  0  0  0
   44.4440   35.7188   40.3613 H   0  0  0  0  0  0  0  0  0  0  0  0
   43.2245   33.4268   40.6446 H   0  0  0  0  0  0  0  0  0  0  0  0
   45.0092   33.6556   40.4487 H   0  0  0  0  0  0  0  0  0  0  0  0
   43.5547   33.3846   43.1109 H   0  0  0  0  0  0  0  0  0  0  0  0
   44.4361   32.0721   42.2972 H   0  0  0  0  0  0  0  0  0  0  0  0
   48.4924   33.0049   43.1349 H   0  0  0  0  0  0  0  0  0  0  0  0
   50.8224   35.8870   42.6942 H   0  0  0  0  0  0  0  0  0  0  0  0
   50.7151   34.2572   43.4117 H   0  0  0  0  0  0  0  0  0  0  0  0
   45.6603   34.7195   45.4037 H   0  0  0  0  0  0  0  0  0  0  0  0
   46.8087   31.1208   43.2136 H   0  0  0  0  0  0  0  0  0  0  0  0
   49.5132   29.0245   49.1390 H   0  0  0  0  0  0  0  0  0  0  0  0
  1  7  1  6
  1  2  1  0
  1 15  1  0
  3  2  2  0
  4  3  1  0
  5  4  1  0
  5  6  1  0
  6  1  1  0
  7  9  1  0
  8  7  2  0
 10  9  1  0
 10 12  1  0
 11 10  2  0
 13 11  1  0
 14 19  2  0
 15 14  1  0
 16 15  2  0
 16 17  1  0
 17 18  2  0
 18 19  1  0
 18 20  1  0
 20 21  2  0
 21 22  1  0
 23 22  1  0
 24 20  1  0
 24 23  2  0
  2 25  1  0
  3 26  1  0
  4 27  1  0
  4 28  1  0
  5 29  1  0
  5 30  1  0
  6 31  1  0
  6 32  1  0
  9 33  1  0
 12 34  1  0
 12 35  1  0
 14 36  1  0
 16 37  1  0
 23 38  1  0
M  ISO  8  25  13  26  13  27  13  28  13  29  13  30  13  31  13  32  13
M  ISO  3  36  14  37  14  38  14
M  END
>  <minimizedAffinity>  (1) 
-5.94329071

>  <minimizedRMSD>  (1) 
1.39871418

$$$$
