
     RDKit          3D

 35 36  0  0  1  0  0  0  0  0999 V2000
   45.8290   33.2560   43.6330 C   0  0  2  0  0  0  0  0  0  0  0  0
   45.9140   34.7250   43.8240 C   0  0  0  0  0  0  0  0  0  0  0  0
   45.4360   35.5450   42.7390 C   0  0  0  0  0  0  0  0  0  0  0  0
   44.8920   34.9670   41.5270 C   0  0  0  0  0  0  0  0  0  0  0  0
   44.7800   33.5180   41.4670 C   0  0  0  0  0  0  0  0  0  0  0  0
   44.5940   32.9240   42.8300 C   0  0  0  0  0  0  0  0  0  0  0  0
   45.8010   33.3830   46.0630 C   0  0  0  0  0  0  0  0  0  0  0  0
   45.8960   32.5850   44.9430 C   0  0  0  0  0  0  0  0  0  0  0  0
   46.0890   31.1680   45.1050 C   0  0  0  0  0  0  0  0  0  0  0  0
   46.1720   30.6760   46.3430 N   0  0  0  0  0  0  0  0  0  0  0  0
   46.0780   31.4750   47.4220 C   0  0  0  0  0  0  0  0  0  0  0  0
   45.8960   32.8000   47.2730 N   0  0  0  0  0  0  0  0  0  0  0  0
   46.1840   30.8150   48.6880 N   0  0  0  0  0  0  0  0  0  0  0  0
   47.1140   32.8720   42.9020 C   0  0  0  0  0  0  0  0  0  0  0  0
   47.4410   32.0870   41.9550 O   0  0  0  0  0  0  0  0  0  0  0  0
   48.2930   33.5780   43.3990 N   0  0  0  0  0  0  0  0  0  0  0  0
   48.9570   34.5560   42.6740 C   0  0  0  0  0  0  0  0  0  0  0  0
   48.7020   35.0940   41.6030 N   0  0  0  0  0  0  0  0  0  0  0  0
   50.1770   35.2120   43.0870 N   0  0  0  0  0  0  0  0  0  0  0  0
   47.9730   35.0520   40.9370 H   0  0  0  0  0  0  0  0  0  0  0  0
   46.3208   35.1657   44.7461 H   0  0  0  0  0  0  0  0  0  0  0  0
   45.4857   36.6398   42.8339 H   0  0  0  0  0  0  0  0  0  0  0  0
   43.8827   35.3818   41.3880 H   0  0  0  0  0  0  0  0  0  0  0  0
   45.6182   35.2253   40.7422 H   0  0  0  0  0  0  0  0  0  0  0  0
   43.9159   33.2521   40.8404 H   0  0  0  0  0  0  0  0  0  0  0  0
   45.7115   33.1175   41.0405 H   0  0  0  0  0  0  0  0  0  0  0  0
   43.7040   33.3557   43.3112 H   0  0  0  0  0  0  0  0  0  0  0  0
   44.4505   31.8353   42.7657 H   0  0  0  0  0  0  0  0  0  0  0  0
   45.6513   34.4688   45.9705 H   0  0  0  0  0  0  0  0  0  0  0  0
   46.1662   30.5064   44.2296 H   0  0  0  0  0  0  0  0  0  0  0  0
   46.1217   31.3600   49.5597 H   0  0  0  0  0  0  0  0  0  0  0  0
   46.3226   29.7951   48.7271 H   0  0  0  0  0  0  0  0  0  0  0  0
   48.6488   33.3370   44.3351 H   0  0  0  0  0  0  0  0  0  0  0  0
   50.6047   35.9301   42.4852 H   0  0  0  0  0  0  0  0  0  0  0  0
   50.6186   34.9613   43.9831 H   0  0  0  0  0  0  0  0  0  0  0  0
  1 14  1  6
  1  2  1  0
  1  8  1  0
  3  2  2  0
  4  3  1  0
  5  4  1  0
  5  6  1  0
  6  1  1  0
  7 12  2  0
  8  9  2  0
  8  7  1  0
  9 10  1  0
 10 11  2  0
 11 13  1  0
 12 11  1  0
 14 16  1  0
 15 14  2  0
 17 19  1  0
 17 16  1  0
 18 17  2  0
 20 18  1  0
  2 21  1  0
  3 22  1  0
  4 23  1  0
  4 24  1  0
  5 25  1  0
  5 26  1  0
  6 27  1  0
  6 28  1  0
  7 29  1  0
  9 30  1  0
 13 31  1  0
 13 32  1  0
 16 33  1  0
 19 34  1  0
 19 35  1  0
M  ISO  8  21  13  22  13  23  13  24  13  25  13  26  13  27  13  28  13
M  ISO  2  29  14  30  14
M  END
>  <minimizedAffinity>  (1) 
-5.61897182

>  <minimizedRMSD>  (1) 
0.0396331102

$$$$
