
     RDKit          3D

 36 37  0  0  1  0  0  0  0  0999 V2000
   45.8140   33.2540   43.6430 C   0  0  1  0  0  0  0  0  0  0  0  0
   45.8790   34.7370   43.6430 C   0  0  0  0  0  0  0  0  0  0  0  0
   45.4860   35.3940   42.4240 C   0  0  0  0  0  0  0  0  0  0  0  0
   45.0470   34.6590   41.2580 C   0  0  0  0  0  0  0  0  0  0  0  0
   44.9390   33.2140   41.3860 C   0  0  0  0  0  0  0  0  0  0  0  0
   44.6430   32.8070   42.8000 C   0  0  0  0  0  0  0  0  0  0  0  0
   47.1540   32.7920   43.0710 C   0  0  0  0  0  0  0  0  0  0  0  0
   47.5590   31.8770   42.2880 O   0  0  0  0  0  0  0  0  0  0  0  0
   48.2830   33.5990   43.5270 N   0  0  0  0  0  0  0  0  0  0  0  0
   48.9810   34.4680   42.7020 C   0  0  0  0  0  0  0  0  0  0  0  0
   48.7950   34.8230   41.5450 N   0  0  0  0  0  0  0  0  0  0  0  0
   50.1610   35.2120   43.0850 N   0  0  0  0  0  0  0  0  0  0  0  0
   48.1170   34.6540   40.8450 H   0  0  0  0  0  0  0  0  0  0  0  0
   45.4880   33.6820   46.0170 C   0  0  0  0  0  0  0  0  0  0  0  0
   45.7790   32.7610   45.0320 C   0  0  0  0  0  0  0  0  0  0  0  0
   46.0710   31.4060   45.4060 C   0  0  0  0  0  0  0  0  0  0  0  0
   46.0510   31.0790   46.7050 N   0  0  0  0  0  0  0  0  0  0  0  0
   45.7640   32.0020   47.6440 C   0  0  0  0  0  0  0  0  0  0  0  0
   45.4900   33.2650   47.2990 N   0  0  0  0  0  0  0  0  0  0  0  0
   45.7690   31.5400   49.0730 C   0  0  0  0  0  0  0  0  0  0  0  0
   46.2095   35.3030   44.5264 H   0  0  0  0  0  0  0  0  0  0  0  0
   45.5207   36.4925   42.3776 H   0  0  0  0  0  0  0  0  0  0  0  0
   45.7607   34.8672   40.4473 H   0  0  0  0  0  0  0  0  0  0  0  0
   44.0193   35.0054   41.0742 H   0  0  0  0  0  0  0  0  0  0  0  0
   44.1279   32.8572   40.7342 H   0  0  0  0  0  0  0  0  0  0  0  0
   45.9015   32.7690   41.0933 H   0  0  0  0  0  0  0  0  0  0  0  0
   43.7198   33.2936   43.1477 H   0  0  0  0  0  0  0  0  0  0  0  0
   44.4995   31.7189   42.8732 H   0  0  0  0  0  0  0  0  0  0  0  0
   48.5755   33.5185   44.5113 H   0  0  0  0  0  0  0  0  0  0  0  0
   50.6182   35.8376   42.4064 H   0  0  0  0  0  0  0  0  0  0  0  0
   50.5440   35.1162   44.0363 H   0  0  0  0  0  0  0  0  0  0  0  0
   45.2606   34.7279   45.7633 H   0  0  0  0  0  0  0  0  0  0  0  0
   46.3065   30.6513   44.6412 H   0  0  0  0  0  0  0  0  0  0  0  0
   45.7595   32.4139   49.7409 H   0  0  0  0  0  0  0  0  0  0  0  0
   44.8775   30.9241   49.2624 H   0  0  0  0  0  0  0  0  0  0  0  0
   46.6737   30.9436   49.2624 H   0  0  0  0  0  0  0  0  0  0  0  0
  1  7  1  6
  1 15  1  0
  2  1  1  0
  3  2  2  0
  4  5  1  0
  4  3  1  0
  5  6  1  0
  6  1  1  0
  7  9  1  0
  8  7  2  0
 10 12  1  0
 10  9  1  0
 11 10  2  0
 13 11  1  0
 14 19  2  0
 15 16  2  0
 15 14  1  0
 16 17  1  0
 17 18  2  0
 18 20  1  0
 19 18  1  0
  2 21  1  0
  3 22  1  0
  4 23  1  0
  4 24  1  0
  5 25  1  0
  5 26  1  0
  6 27  1  0
  6 28  1  0
  9 29  1  0
 12 30  1  0
 12 31  1  0
 14 32  1  0
 16 33  1  0
 20 34  1  0
 20 35  1  0
 20 36  1  0
M  ISO  8  21  13  22  13  23  13  24  13  25  13  26  13  27  13  28  13
M  ISO  5  32  14  33  14  34   8  35   8  36   8
M  END
>  <minimizedAffinity>  (1) 
-5.76289368

>  <minimizedRMSD>  (1) 
0.437284589

$$$$
