
     RDKit          3D

 34 35  0  0  1  0  0  0  0  0999 V2000
   45.8350   33.2590   43.6460 C   0  0  1  0  0  0  0  0  0  0  0  0
   45.9300   34.7220   43.8570 C   0  0  0  0  0  0  0  0  0  0  0  0
   45.4480   35.5600   42.7870 C   0  0  0  0  0  0  0  0  0  0  0  0
   44.8960   35.0080   41.5690 C   0  0  0  0  0  0  0  0  0  0  0  0
   44.7750   33.5560   41.4890 C   0  0  0  0  0  0  0  0  0  0  0  0
   44.5900   32.9470   42.8490 C   0  0  0  0  0  0  0  0  0  0  0  0
   47.1150   32.8800   42.9010 C   0  0  0  0  0  0  0  0  0  0  0  0
   47.4360   32.1040   41.9460 O   0  0  0  0  0  0  0  0  0  0  0  0
   48.2970   33.5820   43.3970 N   0  0  0  0  0  0  0  0  0  0  0  0
   48.9580   34.5640   42.6720 C   0  0  0  0  0  0  0  0  0  0  0  0
   48.6950   35.1100   41.6080 N   0  0  0  0  0  0  0  0  0  0  0  0
   50.1860   35.2070   43.0820 N   0  0  0  0  0  0  0  0  0  0  0  0
   47.9620   35.0710   40.9440 H   0  0  0  0  0  0  0  0  0  0  0  0
   45.8320   33.3480   46.0760 C   0  0  0  0  0  0  0  0  0  0  0  0
   45.9090   32.5640   44.9430 C   0  0  0  0  0  0  0  0  0  0  0  0
   46.0890   31.1550   45.0910 C   0  0  0  0  0  0  0  0  0  0  0  0
   46.1790   30.6440   46.3200 N   0  0  0  0  0  0  0  0  0  0  0  0
   46.1020   31.4270   47.4110 C   0  0  0  0  0  0  0  0  0  0  0  0
   45.9310   32.7590   47.2780 N   0  0  0  0  0  0  0  0  0  0  0  0
   46.2130   30.7380   48.6050 O   0  0  0  0  0  0  0  0  0  0  0  0
   46.3466   35.1472   44.7820 H   0  0  0  0  0  0  0  0  0  0  0  0
   45.5017   36.6528   42.9004 H   0  0  0  0  0  0  0  0  0  0  0  0
   43.8889   35.4314   41.4406 H   0  0  0  0  0  0  0  0  0  0  0  0
   45.6185   35.2757   40.7839 H   0  0  0  0  0  0  0  0  0  0  0  0
   43.9071   33.3030   40.8623 H   0  0  0  0  0  0  0  0  0  0  0  0
   45.7014   33.1545   41.0524 H   0  0  0  0  0  0  0  0  0  0  0  0
   43.7076   33.3823   43.3409 H   0  0  0  0  0  0  0  0  0  0  0  0
   44.4336   31.8607   42.7746 H   0  0  0  0  0  0  0  0  0  0  0  0
   48.6572   33.3361   44.3301 H   0  0  0  0  0  0  0  0  0  0  0  0
   50.6138   35.9288   42.4845 H   0  0  0  0  0  0  0  0  0  0  0  0
   50.6332   34.9434   43.9716 H   0  0  0  0  0  0  0  0  0  0  0  0
   45.6920   34.4361   45.9955 H   0  0  0  0  0  0  0  0  0  0  0  0
   46.1523   30.5028   44.2075 H   0  0  0  0  0  0  0  0  0  0  0  0
   46.1685   31.2270   49.4647 H   0  0  0  0  0  0  0  0  0  0  0  0
  1  7  1  6
  1  2  1  0
  1 15  1  0
  3  2  2  0
  4  3  1  0
  5  4  1  0
  5  6  1  0
  6  1  1  0
  7  9  1  0
  8  7  2  0
 10 12  1  0
 10  9  1  0
 11 10  2  0
 13 11  1  0
 14 19  2  0
 15 16  2  0
 15 14  1  0
 16 17  1  0
 17 18  2  0
 18 20  1  0
 19 18  1  0
  2 21  1  0
  3 22  1  0
  4 23  1  0
  4 24  1  0
  5 25  1  0
  5 26  1  0
  6 27  1  0
  6 28  1  0
  9 29  1  0
 12 30  1  0
 12 31  1  0
 14 32  1  0
 16 33  1  0
 20 34  1  0
M  ISO  8  21  13  22  13  23  13  24  13  25  13  26  13  27  13  28  13
M  ISO  3  32  14  33  14  34   3
M  END
>  <minimizedAffinity>  (1) 
-5.6053977

>  <minimizedRMSD>  (1) 
0.0211509652

$$$$
