
     RDKit          3D

 30 31  0  0  0  0  0  0  0  0999 V2000
   46.0690   34.4690   41.9540 N   0  0  0  0  0  0  0  0  0  0  0  0
   45.5200   34.1340   40.7700 C   0  0  0  0  0  0  0  0  0  0  0  0
   46.4890   33.8760   39.8740 N   0  0  0  0  0  0  0  0  0  0  0  0
   47.6570   34.0570   40.5220 C   0  0  0  0  0  0  0  0  0  0  0  0
   47.3950   34.4250   41.8100 N   0  0  0  0  0  0  0  0  0  0  0  0
   48.9990   33.9130   40.0400 N   0  0  0  0  0  0  0  0  0  0  0  0
   44.5120   36.2680   44.8310 C   0  0  0  0  0  0  0  0  0  0  0  0
   44.9710   36.0470   43.5270 C   0  0  0  0  0  0  0  0  0  0  0  0
   45.5580   34.8330   43.2320 C   0  0  0  0  0  0  0  0  0  0  0  0
   45.6680   33.8870   44.2380 N   0  0  0  0  0  0  0  0  0  0  0  0
   45.2060   34.1420   45.5010 C   0  0  0  0  0  0  0  0  0  0  0  0
   44.6370   35.3310   45.7670 N   0  0  0  0  0  0  0  0  0  0  0  0
   44.0400   34.0930   40.6140 C   0  0  0  0  0  0  0  0  0  0  0  0
   43.5240   33.1160   41.6790 C   0  0  0  0  0  0  0  0  0  0  0  0
   43.3880   35.4220   40.8950 C   0  0  0  0  0  0  0  0  0  0  0  0
   43.6040   33.5290   39.2900 C   0  0  0  0  0  0  0  0  0  0  0  0
   49.7943   34.0904   40.6700 H   0  0  0  0  0  0  0  0  0  0  0  0
   49.1682   33.6321   39.0636 H   0  0  0  0  0  0  0  0  0  0  0  0
   44.0417   37.2294   45.0850 H   0  0  0  0  0  0  0  0  0  0  0  0
   44.8662   36.8234   42.7548 H   0  0  0  0  0  0  0  0  0  0  0  0
   45.2993   33.3818   46.2906 H   0  0  0  0  0  0  0  0  0  0  0  0
   43.7368   33.5190   42.6802 H   0  0  0  0  0  0  0  0  0  0  0  0
   42.4385   32.9838   41.5601 H   0  0  0  0  0  0  0  0  0  0  0  0
   44.0268   32.1449   41.5601 H   0  0  0  0  0  0  0  0  0  0  0  0
   43.3145   35.5718   41.9823 H   0  0  0  0  0  0  0  0  0  0  0  0
   43.9931   36.2278   40.4539 H   0  0  0  0  0  0  0  0  0  0  0  0
   42.3804   35.4366   40.4539 H   0  0  0  0  0  0  0  0  0  0  0  0
   42.9392   32.6690   39.4588 H   0  0  0  0  0  0  0  0  0  0  0  0
   43.0663   34.3020   38.7213 H   0  0  0  0  0  0  0  0  0  0  0  0
   44.4875   33.2034   38.7213 H   0  0  0  0  0  0  0  0  0  0  0  0
  1  9  1  0
  2  1  1  0
  3  4  1  0
  3  2  2  0
  4  5  2  0
  5  1  1  0
  6  4  1  0
  7 12  2  0
  8  7  1  0
  9  8  2  0
  9 10  1  0
 10 11  2  0
 11 12  1  0
 13  2  1  0
 13 15  1  0
 13 14  1  0
 16 13  1  0
  6 17  1  0
  6 18  1  0
  7 19  1  0
  8 20  1  0
 11 21  1  0
 14 22  1  0
 14 23  1  0
 14 24  1  0
 15 25  1  0
 15 26  1  0
 15 27  1  0
 16 28  1  0
 16 29  1  0
 16 30  1  0
M  ISO  8  19  14  20  14  21  14  22   8  23   8  24   8  25   8  26   8
M  ISO  4  27   8  28   8  29   8  30   8
M  END
>  <minimizedAffinity>  (1) 
-4.66782808

>  <minimizedRMSD>  (1) 
0.987672567

$$$$
