
     RDKit          3D

 21 22  0  0  0  0  0  0  0  0999 V2000
   46.1550   34.4090   42.0300 N   0  0  0  0  0  0  0  0  0  0  0  0
   45.6440   34.1670   40.8170 C   0  0  0  0  0  0  0  0  0  0  0  0
   46.6220   33.8840   39.9530 N   0  0  0  0  0  0  0  0  0  0  0  0
   47.7640   33.9530   40.6520 C   0  0  0  0  0  0  0  0  0  0  0  0
   47.4850   34.2810   41.9540 N   0  0  0  0  0  0  0  0  0  0  0  0
   49.1340   33.7430   40.2350 N   0  0  0  0  0  0  0  0  0  0  0  0
   44.4810   36.1700   44.8830 C   0  0  0  0  0  0  0  0  0  0  0  0
   44.9680   35.9430   43.6000 C   0  0  0  0  0  0  0  0  0  0  0  0
   45.6140   34.7520   43.3070 C   0  0  0  0  0  0  0  0  0  0  0  0
   45.7430   33.8320   44.3230 N   0  0  0  0  0  0  0  0  0  0  0  0
   45.2540   34.0880   45.5660 C   0  0  0  0  0  0  0  0  0  0  0  0
   44.6380   35.2350   45.8250 N   0  0  0  0  0  0  0  0  0  0  0  0
   44.1750   34.2350   40.5930 C   0  0  0  0  0  0  0  0  0  0  0  0
   43.9330   33.7650   39.3160 F   0  0  0  0  0  0  0  0  0  0  0  0
   43.4560   33.5160   41.5230 F   0  0  0  0  0  0  0  0  0  0  0  0
   43.7210   35.5580   40.6570 F   0  0  0  0  0  0  0  0  0  0  0  0
   49.9002   33.8389   40.9166 H   0  0  0  0  0  0  0  0  0  0  0  0
   49.3427   33.4977   39.2567 H   0  0  0  0  0  0  0  0  0  0  0  0
   43.9693   37.1142   45.1211 H   0  0  0  0  0  0  0  0  0  0  0  0
   44.8407   36.7073   42.8192 H   0  0  0  0  0  0  0  0  0  0  0  0
   45.3699   33.3387   46.3630 H   0  0  0  0  0  0  0  0  0  0  0  0
  1  9  1  0
  2  1  1  0
  3  4  1  0
  3  2  2  0
  4  5  2  0
  5  1  1  0
  6  4  1  0
  7 12  2  0
  8  7  1  0
  9  8  2  0
  9 10  1  0
 10 11  2  0
 11 12  1  0
 13 16  1  0
 13  2  1  0
 13 15  1  0
 14 13  1  0
  6 17  1  0
  6 18  1  0
  7 19  1  0
  8 20  1  0
 11 21  1  0
M  ISO  3  19  14  20  14  21  14
M  END
>  <minimizedAffinity>  (1) 
-4.60608816

>  <minimizedRMSD>  (1) 
1.0847013

$$$$
