
     RDKit          3D

 38 41  0  0  1  0  0  0  0  0999 V2000
   45.9580   34.4470   41.2770 C   0  0  2  0  0  0  0  0  0  0  0  0
   47.3500   34.4080   40.8940 C   0  0  0  0  0  0  0  0  0  0  0  0
   48.2080   34.4620   42.1700 C   0  0  0  0  0  0  0  0  0  0  0  0
   47.2680   34.4780   43.3340 C   0  0  1  0  0  0  0  0  0  0  0  0
   46.0110   34.9920   42.7580 C   0  0  0  0  0  0  0  0  0  0  0  0
   45.1830   33.2140   41.3750 C   0  0  0  0  0  0  0  0  0  0  0  0
   45.6740   32.0820   40.6990 C   0  0  0  0  0  0  0  0  0  0  0  0
   44.9980   30.8680   40.7630 C   0  0  0  0  0  0  0  0  0  0  0  0
   43.8390   30.8750   41.5260 N   0  0  0  0  0  0  0  0  0  0  0  0
   43.3970   31.9720   42.1590 C   0  0  0  0  0  0  0  0  0  0  0  0
   44.0620   33.1360   42.0860 N   0  0  0  0  0  0  0  0  0  0  0  0
   47.0920   32.8820   44.1450 S   0  0  0  0  0  0  0  0  0  0  0  0
   46.1460   33.1550   45.6460 C   0  0  0  0  0  0  0  0  0  0  0  0
   45.2210   34.0600   46.0900 C   0  0  0  0  0  0  0  0  0  0  0  0
   44.8500   33.7530   47.3420 N   0  0  0  0  0  0  0  0  0  0  0  0
   45.5100   32.6600   47.7360 C   0  0  0  0  0  0  0  0  0  0  0  0
   45.4260   32.0140   48.9430 C   0  0  0  0  0  0  0  0  0  0  0  0
   46.1910   30.9040   49.1510 C   0  0  0  0  0  0  0  0  0  0  0  0
   47.0180   30.4640   48.1590 C   0  0  0  0  0  0  0  0  0  0  0  0
   47.0830   31.1300   46.9640 C   0  0  0  0  0  0  0  0  0  0  0  0
   46.3430   32.2470   46.6930 C   0  0  0  0  0  0  0  0  0  0  0  0
   45.4554   35.0144   40.4798 H   0  0  0  0  0  0  0  0  0  0  0  0
   47.5582   33.4774   40.3457 H   0  0  0  0  0  0  0  0  0  0  0  0
   47.5866   35.2631   40.2438 H   0  0  0  0  0  0  0  0  0  0  0  0
   48.8597   33.5775   42.2238 H   0  0  0  0  0  0  0  0  0  0  0  0
   48.8485   35.3563   42.1727 H   0  0  0  0  0  0  0  0  0  0  0  0
   47.6369   35.1080   44.1568 H   0  0  0  0  0  0  0  0  0  0  0  0
   46.0106   36.0920   42.7610 H   0  0  0  0  0  0  0  0  0  0  0  0
   45.1369   34.6646   43.3400 H   0  0  0  0  0  0  0  0  0  0  0  0
   46.6023   32.1578   40.1137 H   0  0  0  0  0  0  0  0  0  0  0  0
   45.3568   29.9662   40.2454 H   0  0  0  0  0  0  0  0  0  0  0  0
   42.4708   31.9167   42.7499 H   0  0  0  0  0  0  0  0  0  0  0  0
   44.8389   34.9115   45.5078 H   0  0  0  0  0  0  0  0  0  0  0  0
   44.1666   34.2756   47.9083 H   0  0  0  0  0  0  0  0  0  0  0  0
   44.7530   32.3848   49.7301 H   0  0  0  0  0  0  0  0  0  0  0  0
   46.1416   30.3681   50.1104 H   0  0  0  0  0  0  0  0  0  0  0  0
   47.6365   29.5687   48.3200 H   0  0  0  0  0  0  0  0  0  0  0  0
   47.7616   30.7487   46.1868 H   0  0  0  0  0  0  0  0  0  0  0  0
  1  6  1  0
  1  5  1  0
  2  1  1  0
  2  3  1  0
  3  4  1  0
  4 12  1  0
  5  4  1  0
  6 11  2  0
  7  8  2  0
  7  6  1  0
  8  9  1  0
  9 10  2  0
 11 10  1  0
 12 13  1  0
 13 14  2  0
 13 21  1  0
 14 15  1  0
 15 16  1  0
 16 17  2  0
 17 18  1  0
 19 18  2  0
 20 19  1  0
 21 20  2  0
 21 16  1  0
  1 22  1  6
  2 23  1  0
  2 24  1  0
  3 25  1  0
  3 26  1  0
  4 27  1  1
  5 28  1  0
  5 29  1  0
  7 30  1  0
  8 31  1  0
 10 32  1  0
 14 33  1  0
 15 34  1  0
 17 35  1  0
 18 36  1  0
 19 37  1  0
 20 38  1  0
M  ISO  8  22  13  23  13  24  13  25  13  26  13  27  13  28  13  29  13
M  ISO  8  30  14  31  14  32  14  33  14  34   9  35  14  36  14  37  14
M  ISO  1  38  14
M  END
>  <minimizedAffinity>  (1) 
-5.69688511

>  <minimizedRMSD>  (1) 
1.05133581

$$$$
