
     RDKit          3D

 27 28  0  0  0  0  0  0  0  0999 V2000
   46.0020   34.4170   41.8460 N   0  0  0  0  0  0  0  0  0  0  0  0
   45.4290   33.9000   40.7410 C   0  0  0  0  0  0  0  0  0  0  0  0
   46.2960   33.8280   39.7370 N   0  0  0  0  0  0  0  0  0  0  0  0
   47.4590   34.3230   40.2420 C   0  0  0  0  0  0  0  0  0  0  0  0
   47.2790   34.6900   41.5550 N   0  0  0  0  0  0  0  0  0  0  0  0
   48.7440   34.4900   39.6080 N   0  0  0  0  0  0  0  0  0  0  0  0
   44.4570   36.0560   44.8290 C   0  0  0  0  0  0  0  0  0  0  0  0
   44.8540   35.8690   43.5090 C   0  0  0  0  0  0  0  0  0  0  0  0
   45.5530   34.7060   43.1600 C   0  0  0  0  0  0  0  0  0  0  0  0
   45.8170   33.7960   44.1440 N   0  0  0  0  0  0  0  0  0  0  0  0
   45.4150   34.0060   45.4340 C   0  0  0  0  0  0  0  0  0  0  0  0
   44.7480   35.1200   45.7550 N   0  0  0  0  0  0  0  0  0  0  0  0
   43.9920   33.4920   40.7530 C   0  0  0  0  0  0  0  0  0  0  0  0
   43.0750   34.7080   40.8090 C   0  0  0  0  0  0  0  0  0  0  0  0
   43.6870   32.5780   41.9400 C   0  0  0  0  0  0  0  0  0  0  0  0
   49.5328   34.8858   40.1391 H   0  0  0  0  0  0  0  0  0  0  0  0
   48.8727   34.2134   38.6242 H   0  0  0  0  0  0  0  0  0  0  0  0
   43.9075   36.9645   45.1165 H   0  0  0  0  0  0  0  0  0  0  0  0
   44.6214   36.6269   42.7465 H   0  0  0  0  0  0  0  0  0  0  0  0
   45.6404   33.2581   46.2085 H   0  0  0  0  0  0  0  0  0  0  0  0
   43.8054   32.9427   39.8184 H   0  0  0  0  0  0  0  0  0  0  0  0
   42.8773   34.9701   41.8589 H   0  0  0  0  0  0  0  0  0  0  0  0
   43.5600   35.5565   40.3043 H   0  0  0  0  0  0  0  0  0  0  0  0
   42.1258   34.4750   40.3043 H   0  0  0  0  0  0  0  0  0  0  0  0
   43.8687   33.1226   42.8783 H   0  0  0  0  0  0  0  0  0  0  0  0
   42.6345   32.2612   41.8979 H   0  0  0  0  0  0  0  0  0  0  0  0
   44.3384   31.6926   41.8979 H   0  0  0  0  0  0  0  0  0  0  0  0
  1  9  1  0
  2 13  1  0
  2  1  1  0
  3  4  1  0
  3  2  2  0
  4  5  2  0
  5  1  1  0
  6  4  1  0
  7 12  2  0
  8  7  1  0
  9  8  2  0
  9 10  1  0
 10 11  2  0
 11 12  1  0
 13 14  1  0
 13 15  1  0
  6 16  1  0
  6 17  1  0
  7 18  1  0
  8 19  1  0
 11 20  1  0
 13 21  1  0
 14 22  1  0
 14 23  1  0
 14 24  1  0
 15 25  1  0
 15 26  1  0
 15 27  1  0
M  ISO  8  18  14  19  14  20  14  21   8  22   8  23   8  24   8  25   8
M  ISO  2  26   8  27   8
M  END
>  <minimizedAffinity>  (1) 
-4.45826912

>  <minimizedRMSD>  (1) 
0.407794058

$$$$
