
     RDKit          3D

 36 38  0  0  1  0  0  0  0  0999 V2000
   46.2010   34.6010   41.2390 C   0  0  2  0  0  0  0  0  0  0  0  0
   47.5540   34.4650   40.7520 C   0  0  0  0  0  0  0  0  0  0  0  0
   48.4900   34.2620   41.9590 C   0  0  0  0  0  0  0  0  0  0  0  0
   47.6230   34.2330   43.1890 C   0  0  1  0  0  0  0  0  0  0  0  0
   46.4050   34.9430   42.7660 C   0  0  0  0  0  0  0  0  0  0  0  0
   45.2990   33.4540   41.2390 C   0  0  0  0  0  0  0  0  0  0  0  0
   45.6360   32.3500   40.4320 C   0  0  0  0  0  0  0  0  0  0  0  0
   44.8320   31.2190   40.4000 C   0  0  0  0  0  0  0  0  0  0  0  0
   43.7050   31.2640   41.2030 N   0  0  0  0  0  0  0  0  0  0  0  0
   43.4070   32.3380   41.9670 C   0  0  0  0  0  0  0  0  0  0  0  0
   44.2010   33.4300   41.9850 N   0  0  0  0  0  0  0  0  0  0  0  0
   47.3100   32.5770   43.8160 S   0  0  0  0  0  0  0  0  0  0  0  0
   45.6200   31.2210   45.4720 N   0  0  0  0  0  0  0  0  0  0  0  0
   45.8490   31.2900   46.9090 C   0  0  0  0  0  0  0  0  0  0  0  0
   46.8630   32.4310   47.0550 C   0  0  0  0  0  0  0  0  0  0  0  0
   46.2300   33.4180   46.0990 C   0  0  0  0  0  0  0  0  0  0  0  0
   45.8960   32.5130   44.9340 C   0  0  1  0  0  0  0  0  0  0  0  0
   45.7175   35.3173   40.5584 H   0  0  0  0  0  0  0  0  0  0  0  0
   47.6210   33.5965   40.0803 H   0  0  0  0  0  0  0  0  0  0  0  0
   47.8468   35.3676   40.1956 H   0  0  0  0  0  0  0  0  0  0  0  0
   49.0350   33.3118   41.8586 H   0  0  0  0  0  0  0  0  0  0  0  0
   49.2317   35.0720   42.0209 H   0  0  0  0  0  0  0  0  0  0  0  0
   48.1088   34.7117   44.0520 H   0  0  0  0  0  0  0  0  0  0  0  0
   46.5304   36.0276   42.9000 H   0  0  0  0  0  0  0  0  0  0  0  0
   45.5347   34.6356   43.3644 H   0  0  0  0  0  0  0  0  0  0  0  0
   46.5486   32.3845   39.8189 H   0  0  0  0  0  0  0  0  0  0  0  0
   45.0742   30.3448   39.7778 H   0  0  0  0  0  0  0  0  0  0  0  0
   42.4986   32.3224   42.5872 H   0  0  0  0  0  0  0  0  0  0  0  0
   46.2470   30.5220   45.0487 H   0  0  0  0  0  0  0  0  0  0  0  0
   44.9168   31.5213   47.4451 H   0  0  0  0  0  0  0  0  0  0  0  0
   46.2086   30.3403   47.3318 H   0  0  0  0  0  0  0  0  0  0  0  0
   46.9050   32.8190   48.0835 H   0  0  0  0  0  0  0  0  0  0  0  0
   47.9106   32.1685   46.8459 H   0  0  0  0  0  0  0  0  0  0  0  0
   45.3261   33.8745   46.5287 H   0  0  0  0  0  0  0  0  0  0  0  0
   46.8697   34.2747   45.8404 H   0  0  0  0  0  0  0  0  0  0  0  0
   45.0082   32.8106   44.3567 H   0  0  0  0  0  0  0  0  0  0  0  0
  1  6  1  0
  1  5  1  0
  2  1  1  0
  2  3  1  0
  3  4  1  0
  4 12  1  0
  5  4  1  0
  6 11  1  0
  7  6  2  0
  8  7  1  0
  8  9  2  0
  9 10  1  0
 10 11  2  0
 13 14  1  0
 14 15  1  0
 16 15  1  0
 17 12  1  0
 17 13  1  0
 17 16  1  0
  1 18  1  6
  2 19  1  0
  2 20  1  0
  3 21  1  0
  3 22  1  0
  4 23  1  1
  5 24  1  0
  5 25  1  0
  7 26  1  0
  8 27  1  0
 10 28  1  0
 13 29  1  0
 14 30  1  0
 14 31  1  0
 15 32  1  0
 15 33  1  0
 16 34  1  0
 16 35  1  0
 17 36  1  6
M  ISO  8  18  13  19  13  20  13  21  13  22  13  23  13  24  13  25  13
M  ISO  8  26  14  27  14  28  14  29   5  30  13  31  13  32  13  33  13
M  ISO  3  34  13  35  13  36  13
M  END
>  <minimizedAffinity>  (1) 
-4.0456357

>  <minimizedRMSD>  (1) 
2.5515852

$$$$
