
     RDKit          3D

 29 31  0  0  1  0  0  0  0  0999 V2000
   46.0110   34.5470   41.2370 C   0  0  2  0  0  0  0  0  0  0  0  0
   47.4000   34.4370   40.8600 C   0  0  0  0  0  0  0  0  0  0  0  0
   48.2490   34.3480   42.1450 C   0  0  0  0  0  0  0  0  0  0  0  0
   47.2910   34.3500   43.3020 C   0  0  1  0  0  0  0  0  0  0  0  0
   46.0850   34.9880   42.7490 C   0  0  0  0  0  0  0  0  0  0  0  0
   45.1490   33.3680   41.2390 C   0  0  0  0  0  0  0  0  0  0  0  0
   45.5610   32.2560   40.4870 C   0  0  0  0  0  0  0  0  0  0  0  0
   44.7970   31.0940   40.4610 C   0  0  0  0  0  0  0  0  0  0  0  0
   43.6350   31.1290   41.2170 N   0  0  0  0  0  0  0  0  0  0  0  0
   43.2660   32.2130   41.9290 C   0  0  0  0  0  0  0  0  0  0  0  0
   44.0190   33.3280   41.9400 N   0  0  0  0  0  0  0  0  0  0  0  0
   46.9920   32.7240   44.0060 S   0  0  0  0  0  0  0  0  0  0  0  0
   46.1570   32.9450   45.5740 C   0  0  0  0  0  0  0  0  0  0  0  0
   45.3560   33.9670   45.9240 N   0  0  0  0  0  0  0  0  0  0  0  0
   44.9650   33.7240   47.1530 O   0  0  0  0  0  0  0  0  0  0  0  0
   45.4830   32.6020   47.5850 C   0  0  0  0  0  0  0  0  0  0  0  0
   46.2580   32.0650   46.6020 N   0  0  0  0  0  0  0  0  0  0  0  0
   45.5566   35.2018   40.4788 H   0  0  0  0  0  0  0  0  0  0  0  0
   47.5494   33.5320   40.2529 H   0  0  0  0  0  0  0  0  0  0  0  0
   47.7012   35.3142   40.2686 H   0  0  0  0  0  0  0  0  0  0  0  0
   48.8397   33.4200   42.1446 H   0  0  0  0  0  0  0  0  0  0  0  0
   48.9501   35.1929   42.2129 H   0  0  0  0  0  0  0  0  0  0  0  0
   47.6914   34.8943   44.1700 H   0  0  0  0  0  0  0  0  0  0  0  0
   46.1637   36.0826   42.8240 H   0  0  0  0  0  0  0  0  0  0  0  0
   45.1822   34.6862   43.3002 H   0  0  0  0  0  0  0  0  0  0  0  0
   46.4978   32.3044   39.9125 H   0  0  0  0  0  0  0  0  0  0  0  0
   45.0941   30.2081   39.8806 H   0  0  0  0  0  0  0  0  0  0  0  0
   42.3330   32.1853   42.5110 H   0  0  0  0  0  0  0  0  0  0  0  0
   45.3189   32.1639   48.5806 H   0  0  0  0  0  0  0  0  0  0  0  0
  1  6  1  0
  1  5  1  0
  2  1  1  0
  2  3  1  0
  3  4  1  0
  4 12  1  0
  5  4  1  0
  6 11  1  0
  7  6  2  0
  8  7  1  0
  8  9  2  0
  9 10  1  0
 10 11  2  0
 12 13  1  0
 13 14  2  0
 13 17  1  0
 14 15  1  0
 15 16  1  0
 17 16  2  0
  1 18  1  6
  2 19  1  0
  2 20  1  0
  3 21  1  0
  3 22  1  0
  4 23  1  1
  5 24  1  0
  5 25  1  0
  7 26  1  0
  8 27  1  0
 10 28  1  0
 16 29  1  0
M  ISO  8  18  13  19  13  20  13  21  13  22  13  23  13  24  13  25  13
M  ISO  4  26  14  27  14  28  14  29  14
M  END
>  <minimizedAffinity>  (1) 
-3.92873645

>  <minimizedRMSD>  (1) 
0.381677508

$$$$
