
     RDKit          3D

 30 31  0  0  1  0  0  0  0  0999 V2000
   44.5530   35.6430   43.5110 C   0  0  1  0  0  0  0  0  0  0  0  0
   45.3880   34.6400   44.2360 C   0  0  0  0  0  0  0  0  0  0  0  0
   46.4440   34.0760   43.4660 C   0  0  0  0  0  0  0  0  0  0  0  0
   47.2640   33.1350   44.0820 C   0  0  0  0  0  0  0  0  0  0  0  0
   47.0010   32.8160   45.3820 N   0  0  0  0  0  0  0  0  0  0  0  0
   45.9880   33.3720   46.0770 C   0  0  0  0  0  0  0  0  0  0  0  0
   45.1850   34.2830   45.5010 N   0  0  0  0  0  0  0  0  0  0  0  0
   45.2220   37.0090   43.4550 C   0  0  0  0  0  0  0  0  0  0  0  0
   44.1750   35.1650   42.1320 C   0  0  0  0  0  0  0  0  0  0  0  0
   42.7960   35.4190   42.0170 O   0  0  0  0  0  0  0  0  0  0  0  0
   42.0410   35.2820   40.8800 C   0  0  0  0  0  0  0  0  0  0  0  0
   42.4320   35.0780   39.5740 C   0  0  0  0  0  0  0  0  0  0  0  0
   41.4930   34.9660   38.5670 C   0  0  0  0  0  0  0  0  0  0  0  0
   40.1490   35.0580   38.8550 C   0  0  0  0  0  0  0  0  0  0  0  0
   39.7120   35.2620   40.1550 C   0  0  0  0  0  0  0  0  0  0  0  0
   40.6900   35.3700   41.1480 C   0  0  0  0  0  0  0  0  0  0  0  0
   43.6242   35.7565   44.0893 H   0  0  0  0  0  0  0  0  0  0  0  0
   46.6065   34.3737   42.4196 H   0  0  0  0  0  0  0  0  0  0  0  0
   48.0965   32.6642   43.5386 H   0  0  0  0  0  0  0  0  0  0  0  0
   45.8176   33.0778   47.1231 H   0  0  0  0  0  0  0  0  0  0  0  0
   45.3999   37.3723   44.4779 H   0  0  0  0  0  0  0  0  0  0  0  0
   46.1814   36.9259   42.9233 H   0  0  0  0  0  0  0  0  0  0  0  0
   44.5682   37.7160   42.9233 H   0  0  0  0  0  0  0  0  0  0  0  0
   44.7345   35.7202   41.3648 H   0  0  0  0  0  0  0  0  0  0  0  0
   44.4096   34.1000   41.9881 H   0  0  0  0  0  0  0  0  0  0  0  0
   43.5023   35.0037   39.3313 H   0  0  0  0  0  0  0  0  0  0  0  0
   41.8202   34.8025   37.5296 H   0  0  0  0  0  0  0  0  0  0  0  0
   39.4126   34.9684   38.0428 H   0  0  0  0  0  0  0  0  0  0  0  0
   38.6410   35.3357   40.3948 H   0  0  0  0  0  0  0  0  0  0  0  0
   40.3690   35.5321   42.1876 H   0  0  0  0  0  0  0  0  0  0  0  0
  1  2  1  0
  2  7  2  0
  3  4  2  0
  3  2  1  0
  4  5  1  0
  5  6  2  0
  7  6  1  0
  8  1  1  0
  9  1  1  0
 10  9  1  0
 11 16  1  0
 11 10  1  0
 12 11  2  0
 13 14  2  0
 13 12  1  0
 14 15  1  0
 15 16  2  0
  1 17  1  1
  3 18  1  0
  4 19  1  0
  6 20  1  0
  8 21  1  0
  8 22  1  0
  8 23  1  0
  9 24  1  0
  9 25  1  0
 12 26  1  0
 13 27  1  0
 14 28  1  0
 15 29  1  0
 16 30  1  0
M  ISO  8  17   8  18  14  19  14  20  14  21   8  22   8  23   8  24   8
M  ISO  6  25   8  26  14  27  14  28  14  29  14  30  14
M  END
>  <minimizedAffinity>  (1) 
-4.87787962

>  <minimizedRMSD>  (1) 
0.751315773

$$$$
