
     RDKit          3D

 34 36  0  0  1  0  0  0  0  0999 V2000
   44.3260   35.4740   43.2960 C   0  0  1  0  0  0  0  0  0  0  0  0
   45.2260   34.5510   44.0500 C   0  0  0  0  0  0  0  0  0  0  0  0
   46.2290   33.9240   43.2620 C   0  0  0  0  0  0  0  0  0  0  0  0
   47.0970   33.0500   43.9190 C   0  0  0  0  0  0  0  0  0  0  0  0
   46.9270   32.8560   45.2640 N   0  0  0  0  0  0  0  0  0  0  0  0
   45.9710   33.4680   45.9560 C   0  0  0  0  0  0  0  0  0  0  0  0
   45.0970   34.3310   45.3650 N   0  0  0  0  0  0  0  0  0  0  0  0
   45.0100   36.7870   42.9470 C   0  0  0  0  0  0  0  0  0  0  0  0
   43.7550   34.8150   42.0650 C   0  0  0  0  0  0  0  0  0  0  0  0
   42.5620   35.5060   41.7830 O   0  0  0  0  0  0  0  0  0  0  0  0
   41.3600   34.9300   41.4580 C   0  0  0  0  0  0  0  0  0  0  0  0
   40.3530   34.2660   42.1380 C   0  0  0  0  0  0  0  0  0  0  0  0
   39.3860   33.9180   41.2630 N   0  0  0  0  0  0  0  0  0  0  0  0
   39.7320   34.3320   40.0430 C   0  0  0  0  0  0  0  0  0  0  0  0
   39.0550   34.1970   38.8480 C   0  0  0  0  0  0  0  0  0  0  0  0
   39.5620   34.6870   37.6800 C   0  0  0  0  0  0  0  0  0  0  0  0
   40.7850   35.3250   37.7380 C   0  0  0  0  0  0  0  0  0  0  0  0
   41.4720   35.4660   38.9240 C   0  0  0  0  0  0  0  0  0  0  0  0
   40.9690   34.9720   40.1250 C   0  0  0  0  0  0  0  0  0  0  0  0
   43.4884   35.7123   43.9680 H   0  0  0  0  0  0  0  0  0  0  0  0
   46.3174   34.1186   42.1830 H   0  0  0  0  0  0  0  0  0  0  0  0
   47.8967   32.5306   43.3706 H   0  0  0  0  0  0  0  0  0  0  0  0
   45.8829   33.2726   47.0349 H   0  0  0  0  0  0  0  0  0  0  0  0
   45.2848   37.3145   43.8723 H   0  0  0  0  0  0  0  0  0  0  0  0
   45.9165   36.5830   42.3582 H   0  0  0  0  0  0  0  0  0  0  0  0
   44.3234   37.4129   42.3582 H   0  0  0  0  0  0  0  0  0  0  0  0
   44.4570   34.9019   41.2226 H   0  0  0  0  0  0  0  0  0  0  0  0
   43.5749   33.7417   42.2251 H   0  0  0  0  0  0  0  0  0  0  0  0
   40.3428   34.0559   43.2177 H   0  0  0  0  0  0  0  0  0  0  0  0
   38.5197   33.4136   41.4994 H   0  0  0  0  0  0  0  0  0  0  0  0
   38.0831   33.6819   38.8370 H   0  0  0  0  0  0  0  0  0  0  0  0
   39.0181   34.5781   36.7301 H   0  0  0  0  0  0  0  0  0  0  0  0
   41.2221   35.7311   36.8138 H   0  0  0  0  0  0  0  0  0  0  0  0
   42.4433   35.9823   38.9222 H   0  0  0  0  0  0  0  0  0  0  0  0
  1  2  1  0
  2  7  2  0
  3  4  2  0
  3  2  1  0
  4  5  1  0
  5  6  2  0
  7  6  1  0
  8  1  1  0
  9  1  1  0
 10  9  1  0
 11 10  1  0
 11 12  2  0
 13 12  1  0
 14 19  2  0
 14 13  1  0
 15 14  1  0
 16 17  1  0
 16 15  2  0
 17 18  2  0
 18 19  1  0
 19 11  1  0
  1 20  1  1
  3 21  1  0
  4 22  1  0
  6 23  1  0
  8 24  1  0
  8 25  1  0
  8 26  1  0
  9 27  1  0
  9 28  1  0
 12 29  1  0
 13 30  1  0
 15 31  1  0
 16 32  1  0
 17 33  1  0
 18 34  1  0
M  ISO  8  20   8  21  14  22  14  23  14  24   8  25   8  26   8  27   8
M  ISO  7  28   8  29  14  30   9  31  14  32  14  33  14  34  14
M  END
>  <minimizedAffinity>  (1) 
-5.40837717

>  <minimizedRMSD>  (1) 
2.21367931

$$$$
