
     RDKit          3D

 29 30  0  0  1  0  0  0  0  0999 V2000
   44.4790   35.3680   43.4930 C   0  0  1  0  0  0  0  0  0  0  0  0
   45.3520   34.4240   44.2650 C   0  0  0  0  0  0  0  0  0  0  0  0
   46.3780   33.7730   43.5260 C   0  0  0  0  0  0  0  0  0  0  0  0
   47.2070   32.8920   44.2160 C   0  0  0  0  0  0  0  0  0  0  0  0
   46.9890   32.7100   45.5420 N   0  0  0  0  0  0  0  0  0  0  0  0
   46.0100   33.3410   46.2090 C   0  0  0  0  0  0  0  0  0  0  0  0
   45.1780   34.2070   45.5850 N   0  0  0  0  0  0  0  0  0  0  0  0
   45.1980   36.6720   43.1870 C   0  0  0  0  0  0  0  0  0  0  0  0
   44.0130   34.7250   42.2110 C   0  0  0  0  0  0  0  0  0  0  0  0
   43.4560   35.7780   41.4500 O   0  0  0  0  0  0  0  0  0  0  0  0
   42.3430   35.4710   40.6760 C   0  0  0  0  0  0  0  0  0  0  0  0
   41.1110   35.8660   41.1620 C   0  0  0  0  0  0  0  0  0  0  0  0
   39.9310   35.6070   40.4620 C   0  0  0  0  0  0  0  0  0  0  0  0
   40.0940   34.9370   39.2680 C   0  0  0  0  0  0  0  0  0  0  0  0
   41.3090   34.5350   38.7690 C   0  0  0  0  0  0  0  0  0  0  0  0
   42.4270   34.8110   39.4850 N   0  0  0  0  0  0  0  0  0  0  0  0
   43.6061   35.5997   44.1209 H   0  0  0  0  0  0  0  0  0  0  0  0
   46.5117   33.9583   42.4500 H   0  0  0  0  0  0  0  0  0  0  0  0
   48.0176   32.3577   43.6988 H   0  0  0  0  0  0  0  0  0  0  0  0
   45.8813   33.1504   47.2847 H   0  0  0  0  0  0  0  0  0  0  0  0
   45.4722   37.1693   44.1291 H   0  0  0  0  0  0  0  0  0  0  0  0
   46.1075   36.4615   42.6053 H   0  0  0  0  0  0  0  0  0  0  0  0
   44.5345   37.3288   42.6053 H   0  0  0  0  0  0  0  0  0  0  0  0
   44.8604   34.2697   41.6775 H   0  0  0  0  0  0  0  0  0  0  0  0
   43.2854   33.9208   42.3950 H   0  0  0  0  0  0  0  0  0  0  0  0
   41.0588   36.3974   42.1237 H   0  0  0  0  0  0  0  0  0  0  0  0
   38.9434   35.9150   40.8358 H   0  0  0  0  0  0  0  0  0  0  0  0
   39.1940   34.7100   38.6776 H   0  0  0  0  0  0  0  0  0  0  0  0
   41.3736   34.0009   37.8096 H   0  0  0  0  0  0  0  0  0  0  0  0
  1  2  1  0
  2  7  2  0
  3  4  2  0
  3  2  1  0
  4  5  1  0
  5  6  2  0
  7  6  1  0
  8  1  1  0
  9  1  1  0
 10  9  1  0
 11 12  2  0
 11 10  1  0
 13 12  1  0
 14 13  2  0
 15 14  1  0
 15 16  2  0
 16 11  1  0
  1 17  1  1
  3 18  1  0
  4 19  1  0
  6 20  1  0
  8 21  1  0
  8 22  1  0
  8 23  1  0
  9 24  1  0
  9 25  1  0
 12 26  1  0
 13 27  1  0
 14 28  1  0
 15 29  1  0
M  ISO  8  17   8  18  14  19  14  20  14  21   8  22   8  23   8  24   8
M  ISO  5  25   8  26  14  27  14  28  14  29  14
M  END
>  <minimizedAffinity>  (1) 
-4.69494629

>  <minimizedRMSD>  (1) 
0.826939344

$$$$
