
     RDKit          3D

 20 21  0  0  0  0  0  0  0  0999 V2000
   46.0390   34.2830   41.7950 N   0  0  0  0  0  0  0  0  0  0  0  0
   45.5700   33.5740   40.7730 C   0  0  0  0  0  0  0  0  0  0  0  0
   46.4190   33.5750   39.7500 N   0  0  0  0  0  0  0  0  0  0  0  0
   47.4720   34.3270   40.1590 C   0  0  0  0  0  0  0  0  0  0  0  0
   47.2310   34.7640   41.4310 N   0  0  0  0  0  0  0  0  0  0  0  0
   48.6930   34.6800   39.4730 N   0  0  0  0  0  0  0  0  0  0  0  0
   44.3020   32.9280   40.8640 N   0  0  0  0  0  0  0  0  0  0  0  0
   44.4670   35.9590   44.7490 C   0  0  0  0  0  0  0  0  0  0  0  0
   44.8590   35.7570   43.4220 C   0  0  0  0  0  0  0  0  0  0  0  0
   45.5770   34.6160   43.0990 C   0  0  0  0  0  0  0  0  0  0  0  0
   45.8690   33.7330   44.1190 N   0  0  0  0  0  0  0  0  0  0  0  0
   45.4700   33.9640   45.3990 C   0  0  0  0  0  0  0  0  0  0  0  0
   44.7790   35.0680   45.6910 N   0  0  0  0  0  0  0  0  0  0  0  0
   49.3954   35.2694   39.9422 H   0  0  0  0  0  0  0  0  0  0  0  0
   48.8614   34.3423   38.5146 H   0  0  0  0  0  0  0  0  0  0  0  0
   43.9448   32.3803   40.0682 H   0  0  0  0  0  0  0  0  0  0  0  0
   43.7433   33.0091   41.7255 H   0  0  0  0  0  0  0  0  0  0  0  0
   43.8966   36.8602   45.0181 H   0  0  0  0  0  0  0  0  0  0  0  0
   44.6014   36.4927   42.6458 H   0  0  0  0  0  0  0  0  0  0  0  0
   45.7164   33.2423   46.1918 H   0  0  0  0  0  0  0  0  0  0  0  0
  1 10  1  0
  2  7  1  0
  2  1  1  0
  3  4  1  0
  3  2  2  0
  4  5  2  0
  5  1  1  0
  6  4  1  0
  8 13  2  0
  9  8  1  0
 10  9  2  0
 10 11  1  0
 11 12  2  0
 12 13  1  0
  6 14  1  0
  6 15  1  0
  7 16  1  0
  7 17  1  0
  8 18  1  0
  9 19  1  0
 12 20  1  0
M  ISO  3  18  14  19  14  20  14
M  END
>  <minimizedAffinity>  (1) 
-4.20944452

>  <minimizedRMSD>  (1) 
0.0455440953

$$$$
