
     RDKit          3D

 27 28  0  0  1  0  0  0  0  0999 V2000
   44.5110   35.3270   43.4670 C   0  0  1  0  0  0  0  0  0  0  0  0
   45.3590   34.4050   44.2770 C   0  0  0  0  0  0  0  0  0  0  0  0
   46.3960   33.7400   43.5680 C   0  0  0  0  0  0  0  0  0  0  0  0
   47.2350   32.8650   44.2440 C   0  0  0  0  0  0  0  0  0  0  0  0
   46.9930   32.7040   45.5900 N   0  0  0  0  0  0  0  0  0  0  0  0
   46.0120   33.3410   46.2370 C   0  0  0  0  0  0  0  0  0  0  0  0
   45.1900   34.1960   45.5790 N   0  0  0  0  0  0  0  0  0  0  0  0
   45.2000   36.6630   43.2240 C   0  0  0  0  0  0  0  0  0  0  0  0
   44.1240   34.6920   42.1560 C   0  0  0  0  0  0  0  0  0  0  0  0
   43.5620   35.7210   41.3810 O   0  0  0  0  0  0  0  0  0  0  0  0
   42.2280   35.5840   40.8830 C   0  0  0  0  0  0  0  0  0  0  0  0
   40.8920   35.7910   41.2290 C   0  0  0  0  0  0  0  0  0  0  0  0
   39.9370   35.4670   40.3180 C   0  0  0  0  0  0  0  0  0  0  0  0
   40.2390   34.9350   39.0530 C   0  0  0  0  0  0  0  0  0  0  0  0
   42.1560   34.8910   39.1790 S   0  0  0  0  0  0  0  0  0  0  0  0
   43.5975   35.5206   44.0484 H   0  0  0  0  0  0  0  0  0  0  0  0
   46.5327   33.9176   42.4911 H   0  0  0  0  0  0  0  0  0  0  0  0
   48.0485   32.3296   43.7326 H   0  0  0  0  0  0  0  0  0  0  0  0
   45.8699   33.1700   47.3143 H   0  0  0  0  0  0  0  0  0  0  0  0
   45.4418   37.1318   44.1893 H   0  0  0  0  0  0  0  0  0  0  0  0
   46.1262   36.4995   42.6536 H   0  0  0  0  0  0  0  0  0  0  0  0
   44.5297   37.3228   42.6536 H   0  0  0  0  0  0  0  0  0  0  0  0
   45.0111   34.2767   41.6553 H   0  0  0  0  0  0  0  0  0  0  0  0
   43.4156   33.8633   42.3021 H   0  0  0  0  0  0  0  0  0  0  0  0
   40.6196   36.2047   42.2112 H   0  0  0  0  0  0  0  0  0  0  0  0
   38.8815   35.6283   40.5825 H   0  0  0  0  0  0  0  0  0  0  0  0
   39.5732   34.6324   38.2314 H   0  0  0  0  0  0  0  0  0  0  0  0
  1  2  1  0
  2  7  2  0
  3  4  2  0
  3  2  1  0
  4  5  1  0
  5  6  2  0
  7  6  1  0
  8  1  1  0
  9  1  1  0
 10  9  1  0
 11 12  2  0
 11 10  1  0
 13 12  1  0
 14 15  1  0
 14 13  2  0
 15 11  1  0
  1 16  1  1
  3 17  1  0
  4 18  1  0
  6 19  1  0
  8 20  1  0
  8 21  1  0
  8 22  1  0
  9 23  1  0
  9 24  1  0
 12 25  1  0
 13 26  1  0
 14 27  1  0
M  ISO  8  16   8  17  14  18  14  19  14  20   8  21   8  22   8  23   8
M  ISO  4  24   8  25  14  26  14  27  14
M  END
>  <minimizedAffinity>  (1) 
-4.39364338

>  <minimizedRMSD>  (1) 
1.08790922

$$$$
