
     RDKit          3D

 23 23  0  0  1  0  0  0  0  0999 V2000
   44.6210   35.5350   43.3200 C   0  0  1  0  0  0  0  0  0  0  0  0
   45.4100   34.5630   44.1460 C   0  0  0  0  0  0  0  0  0  0  0  0
   46.4700   33.9030   43.4650 C   0  0  0  0  0  0  0  0  0  0  0  0
   47.2370   32.9940   44.1850 C   0  0  0  0  0  0  0  0  0  0  0  0
   46.9140   32.7980   45.5080 N   0  0  0  0  0  0  0  0  0  0  0  0
   45.9150   33.4310   46.1130 C   0  0  0  0  0  0  0  0  0  0  0  0
   45.1400   34.3300   45.4430 N   0  0  0  0  0  0  0  0  0  0  0  0
   45.1960   36.9400   43.4030 C   0  0  0  0  0  0  0  0  0  0  0  0
   44.5270   35.0630   41.8910 C   0  0  0  0  0  0  0  0  0  0  0  0
   43.4640   35.8040   41.3310 O   0  0  0  0  0  0  0  0  0  0  0  0
   42.9730   35.0400   40.2680 C   0  0  0  0  0  0  0  0  0  0  0  0
   43.6029   35.5797   43.7340 H   0  0  0  0  0  0  0  0  0  0  0  0
   46.6762   34.1051   42.4036 H   0  0  0  0  0  0  0  0  0  0  0  0
   48.0706   32.4519   43.7147 H   0  0  0  0  0  0  0  0  0  0  0  0
   45.7095   33.2259   47.1740 H   0  0  0  0  0  0  0  0  0  0  0  0
   45.3132   37.2264   44.4586 H   0  0  0  0  0  0  0  0  0  0  0  0
   46.1766   36.9649   42.9052 H   0  0  0  0  0  0  0  0  0  0  0  0
   44.5142   37.6452   42.9052 H   0  0  0  0  0  0  0  0  0  0  0  0
   45.4652   35.2665   41.3540 H   0  0  0  0  0  0  0  0  0  0  0  0
   44.3550   33.9786   41.8244 H   0  0  0  0  0  0  0  0  0  0  0  0
   42.4179   34.1763   40.6629 H   0  0  0  0  0  0  0  0  0  0  0  0
   42.3018   35.6569   39.6524 H   0  0  0  0  0  0  0  0  0  0  0  0
   43.8129   34.6857   39.6524 H   0  0  0  0  0  0  0  0  0  0  0  0
  1  8  1  0
  1  2  1  0
  2  7  2  0
  3  2  1  0
  3  4  2  0
  4  5  1  0
  5  6  2  0
  7  6  1  0
  9  1  1  0
 10  9  1  0
 11 10  1  0
  1 12  1  1
  3 13  1  0
  4 14  1  0
  6 15  1  0
  8 16  1  0
  8 17  1  0
  8 18  1  0
  9 19  1  0
  9 20  1  0
 11 21  1  0
 11 22  1  0
 11 23  1  0
M  ISO  8  12   8  13  14  14  14  15  14  16   8  17   8  18   8  19   8
M  ISO  4  20   8  21   8  22   8  23   8
M  END
>  <minimizedAffinity>  (1) 
-3.22866154

>  <minimizedRMSD>  (1) 
0.400600553

$$$$
