
     RDKit          3D

 19 20  0  0  0  0  0  0  0  0999 V2000
   46.0320   34.2690   41.8170 N   0  0  0  0  0  0  0  0  0  0  0  0
   45.5890   33.5430   40.7980 C   0  0  0  0  0  0  0  0  0  0  0  0
   46.4640   33.5740   39.7730 N   0  0  0  0  0  0  0  0  0  0  0  0
   47.4880   34.3550   40.1860 C   0  0  0  0  0  0  0  0  0  0  0  0
   47.2260   34.7860   41.4490 N   0  0  0  0  0  0  0  0  0  0  0  0
   48.6980   34.7320   39.5030 N   0  0  0  0  0  0  0  0  0  0  0  0
   44.4680   35.9660   44.7560 C   0  0  0  0  0  0  0  0  0  0  0  0
   44.8660   35.7400   43.4440 C   0  0  0  0  0  0  0  0  0  0  0  0
   45.5730   34.6010   43.1140 C   0  0  0  0  0  0  0  0  0  0  0  0
   45.8510   33.7200   44.1410 N   0  0  0  0  0  0  0  0  0  0  0  0
   45.4570   33.9530   45.4100 C   0  0  0  0  0  0  0  0  0  0  0  0
   44.7720   35.0640   45.7120 N   0  0  0  0  0  0  0  0  0  0  0  0
   44.0160   32.6950   40.9240 S   0  0  0  0  0  0  0  0  0  0  0  0
   49.3835   35.3433   39.9692 H   0  0  0  0  0  0  0  0  0  0  0  0
   48.8782   34.3904   38.5481 H   0  0  0  0  0  0  0  0  0  0  0  0
   43.9074   36.8766   45.0140 H   0  0  0  0  0  0  0  0  0  0  0  0
   44.6161   36.4734   42.6632 H   0  0  0  0  0  0  0  0  0  0  0  0
   45.6993   33.2274   46.2004 H   0  0  0  0  0  0  0  0  0  0  0  0
   43.6950   32.5219   42.2446 H   0  0  0  0  0  0  0  0  0  0  0  0
  1  9  1  0
  2 13  1  0
  2  1  1  0
  3  4  1  0
  3  2  2  0
  4  5  2  0
  5  1  1  0
  6  4  1  0
  7 12  2  0
  8  7  1  0
  9  8  2  0
  9 10  1  0
 10 11  2  0
 11 12  1  0
  6 14  1  0
  6 15  1  0
  7 16  1  0
  8 17  1  0
 11 18  1  0
 13 19  1  0
M  ISO  4  16  14  17  14  18  14  19  11
M  END
>  <minimizedAffinity>  (1) 
-4.20770168

>  <minimizedRMSD>  (1) 
0.0158324484

$$$$
