
     RDKit          3D

 22 22  0  0  1  0  0  0  0  0999 V2000
   44.6270   35.5410   43.3180 C   0  0  1  0  0  0  0  0  0  0  0  0
   45.3910   34.5830   44.1540 C   0  0  0  0  0  0  0  0  0  0  0  0
   46.4540   33.9180   43.5040 C   0  0  0  0  0  0  0  0  0  0  0  0
   47.2420   33.0010   44.1840 C   0  0  0  0  0  0  0  0  0  0  0  0
   46.9140   32.7990   45.4990 N   0  0  0  0  0  0  0  0  0  0  0  0
   45.9020   33.4360   46.1080 C   0  0  0  0  0  0  0  0  0  0  0  0
   45.1430   34.3260   45.4350 N   0  0  0  0  0  0  0  0  0  0  0  0
   45.1790   36.9580   43.4150 C   0  0  0  0  0  0  0  0  0  0  0  0
   44.5610   35.0820   41.8830 C   0  0  0  0  0  0  0  0  0  0  0  0
   43.4570   35.7700   41.3260 O   0  0  0  0  0  0  0  0  0  0  0  0
   42.2380   35.1090   41.3360 C   0  0  0  0  0  0  0  0  0  0  0  0
   41.1860   35.5080   41.9060 O   0  0  0  0  0  0  0  0  0  0  0  0
   43.6021   35.5659   43.7168 H   0  0  0  0  0  0  0  0  0  0  0  0
   46.6598   34.1300   42.4444 H   0  0  0  0  0  0  0  0  0  0  0  0
   48.0753   32.4709   43.6995 H   0  0  0  0  0  0  0  0  0  0  0  0
   45.6888   33.2304   47.1674 H   0  0  0  0  0  0  0  0  0  0  0  0
   45.2879   37.2374   44.4733 H   0  0  0  0  0  0  0  0  0  0  0  0
   46.1607   37.0037   42.9208 H   0  0  0  0  0  0  0  0  0  0  0  0
   44.4869   37.6557   42.9208 H   0  0  0  0  0  0  0  0  0  0  0  0
   45.4875   35.3437   41.3509 H   0  0  0  0  0  0  0  0  0  0  0  0
   44.4487   33.9906   41.8043 H   0  0  0  0  0  0  0  0  0  0  0  0
   42.1837   34.1507   40.7986 H   0  0  0  0  0  0  0  0  0  0  0  0
  1  8  1  0
  1  2  1  0
  2  7  2  0
  3  2  1  0
  3  4  2  0
  4  5  1  0
  5  6  2  0
  7  6  1  0
  9  1  1  0
 10 11  1  0
 10  9  1  0
 11 12  2  0
  1 13  1  1
  3 14  1  0
  4 15  1  0
  6 16  1  0
  8 17  1  0
  8 18  1  0
  8 19  1  0
  9 20  1  0
  9 21  1  0
 11 22  1  0
M  ISO  8  13   8  14  14  15  14  16  14  17   8  18   8  19   8  20   8
M  ISO  2  21   8  22   6
M  END
>  <minimizedAffinity>  (1) 
-3.36433387

>  <minimizedRMSD>  (1) 
0.76444155

$$$$
