
     RDKit          3D

 43 45  0  0  1  0  0  0  0  0999 V2000
   41.5510   34.5970   40.5050 C   0  0  2  0  0  0  0  0  0  0  0  0
   40.8570   35.7340   39.7710 C   0  0  0  0  0  0  0  0  0  0  0  0
   40.7050   35.2820   38.3250 C   0  0  0  0  0  0  0  0  0  0  0  0
   40.9210   33.8110   38.1410 C   0  0  0  0  0  0  0  0  0  0  0  0
   40.2640   32.9800   39.2230 C   0  0  0  0  0  0  0  0  0  0  0  0
   40.6080   33.4570   40.6020 C   0  0  1  0  0  0  0  0  0  0  0  0
   41.0030   32.3860   41.5300 C   0  0  0  0  0  0  0  0  0  0  0  0
   40.1750   31.5630   42.2300 C   0  0  0  0  0  0  0  0  0  0  0  0
   40.8980   30.6750   43.0050 C   0  0  0  0  0  0  0  0  0  0  0  0
   42.1950   30.9830   42.7540 N   0  0  0  0  0  0  0  0  0  0  0  0
   42.2450   31.9690   41.9040 N   0  0  0  0  0  0  0  0  0  0  0  0
   42.0800   34.9740   41.7120 O   0  0  0  0  0  0  0  0  0  0  0  0
   43.3010   35.6740   41.5790 C   0  0  0  0  0  0  0  0  0  0  0  0
   44.2450   35.0310   42.5040 C   0  0  1  0  0  0  0  0  0  0  0  0
   45.5800   34.7740   41.8550 C   0  0  0  0  0  0  0  0  0  0  0  0
   45.5000   34.0180   40.6660 C   0  0  0  0  0  0  0  0  0  0  0  0
   46.6960   33.7360   39.9950 C   0  0  0  0  0  0  0  0  0  0  0  0
   47.8580   34.2220   40.5480 N   0  0  0  0  0  0  0  0  0  0  0  0
   47.8900   34.9420   41.6850 C   0  0  0  0  0  0  0  0  0  0  0  0
   46.7460   35.2310   42.3600 N   0  0  0  0  0  0  0  0  0  0  0  0
   44.3800   35.7440   43.8380 C   0  0  0  0  0  0  0  0  0  0  0  0
   42.4319   34.2806   39.9271 H   0  0  0  0  0  0  0  0  0  0  0  0
   39.8693   35.9269   40.2152 H   0  0  0  0  0  0  0  0  0  0  0  0
   41.4375   36.6659   39.8388 H   0  0  0  0  0  0  0  0  0  0  0  0
   39.6888   35.5313   37.9857 H   0  0  0  0  0  0  0  0  0  0  0  0
   41.4759   35.8018   37.7371 H   0  0  0  0  0  0  0  0  0  0  0  0
   40.5034   33.5138   37.1677 H   0  0  0  0  0  0  0  0  0  0  0  0
   42.0041   33.6267   38.1946 H   0  0  0  0  0  0  0  0  0  0  0  0
   39.1728   33.0318   39.0938 H   0  0  0  0  0  0  0  0  0  0  0  0
   40.6346   31.9491   39.1239 H   0  0  0  0  0  0  0  0  0  0  0  0
   39.6927   33.8330   41.0826 H   0  0  0  0  0  0  0  0  0  0  0  0
   39.0765   31.5995   42.1851 H   0  0  0  0  0  0  0  0  0  0  0  0
   40.5088   29.8940   43.6748 H   0  0  0  0  0  0  0  0  0  0  0  0
   43.0112   30.5119   43.1697 H   0  0  0  0  0  0  0  0  0  0  0  0
   43.6711   35.6023   40.5456 H   0  0  0  0  0  0  0  0  0  0  0  0
   43.1779   36.7423   41.8103 H   0  0  0  0  0  0  0  0  0  0  0  0
   43.8030   34.0530   42.7453 H   0  0  0  0  0  0  0  0  0  0  0  0
   44.5329   33.6631   40.2803 H   0  0  0  0  0  0  0  0  0  0  0  0
   46.7061   33.1500   39.0641 H   0  0  0  0  0  0  0  0  0  0  0  0
   48.8546   35.3012   42.0730 H   0  0  0  0  0  0  0  0  0  0  0  0
   44.2431   35.0210   44.6557 H   0  0  0  0  0  0  0  0  0  0  0  0
   45.3798   36.1966   43.9123 H   0  0  0  0  0  0  0  0  0  0  0  0
   43.6149   36.5308   43.9123 H   0  0  0  0  0  0  0  0  0  0  0  0
  1  6  1  0
  1 12  1  0
  2  1  1  0
  3  2  1  0
  4  3  1  0
  4  5  1  0
  5  6  1  0
  6  7  1  0
  7 11  2  0
  7  8  1  0
  8  9  2  0
 10  9  1  0
 11 10  1  0
 13 12  1  0
 13 14  1  0
 14 21  1  0
 15 20  1  0
 15 14  1  0
 16 15  2  0
 17 18  2  0
 17 16  1  0
 18 19  1  0
 19 20  2  0
  1 22  1  6
  2 23  1  0
  2 24  1  0
  3 25  1  0
  3 26  1  0
  4 27  1  0
  4 28  1  0
  5 29  1  0
  5 30  1  0
  6 31  1  1
  8 32  1  0
  9 33  1  0
 10 34  1  0
 13 35  1  0
 13 36  1  0
 14 37  1  1
 16 38  1  0
 17 39  1  0
 19 40  1  0
 21 41  1  0
 21 42  1  0
 21 43  1  0
M  ISO  8  22  13  23  13  24  13  25  13  26  13  27  13  28  13  29  13
M  ISO  8  30  13  31  13  32  14  33  14  34   9  35   8  36   8  37   8
M  ISO  6  38  14  39  14  40  14  41   8  42   8  43   8
M  END
>  <minimizedAffinity>  (1) 
-5.34462738

>  <minimizedRMSD>  (1) 
3.7243042

$$$$
