
     RDKit          3D

 37 38  0  0  1  0  0  0  0  0999 V2000
   43.5740   35.7420   41.2040 O   0  0  0  0  0  0  0  0  0  0  0  0
   42.4640   35.0180   40.8590 C   0  0  2  0  0  0  0  0  0  0  0  0
   42.1080   35.1450   39.3870 C   0  0  0  0  0  0  0  0  0  0  0  0
   41.1690   33.9830   39.0790 C   0  0  0  0  0  0  0  0  0  0  0  0
   40.5990   33.3430   40.3070 C   0  0  0  0  0  0  0  0  0  0  0  0
   40.1740   34.3620   41.3450 C   0  0  0  0  0  0  0  0  0  0  0  0
   41.2680   35.3240   41.6840 C   0  0  2  0  0  0  0  0  0  0  0  0
   40.9040   36.6500   41.4140 O   0  0  0  0  0  0  0  0  0  0  0  0
   44.5690   34.9650   41.8400 C   0  0  0  0  0  0  0  0  0  0  0  0
   44.6660   35.4650   43.2180 C   0  0  1  0  0  0  0  0  0  0  0  0
   45.4290   34.5100   44.1050 C   0  0  0  0  0  0  0  0  0  0  0  0
   46.4750   33.8340   43.4440 C   0  0  0  0  0  0  0  0  0  0  0  0
   47.2370   32.9370   44.1990 C   0  0  0  0  0  0  0  0  0  0  0  0
   46.9030   32.7810   45.5370 N   0  0  0  0  0  0  0  0  0  0  0  0
   45.8890   33.4570   46.1120 C   0  0  0  0  0  0  0  0  0  0  0  0
   45.1410   34.3260   45.4140 N   0  0  0  0  0  0  0  0  0  0  0  0
   45.1660   36.8820   43.3330 C   0  0  0  0  0  0  0  0  0  0  0  0
   42.7554   33.9773   41.0638 H   0  0  0  0  0  0  0  0  0  0  0  0
   41.6040   36.1041   39.1972 H   0  0  0  0  0  0  0  0  0  0  0  0
   43.0056   35.1165   38.7518 H   0  0  0  0  0  0  0  0  0  0  0  0
   40.3386   34.3585   38.4631 H   0  0  0  0  0  0  0  0  0  0  0  0
   41.7588   33.2165   38.5550 H   0  0  0  0  0  0  0  0  0  0  0  0
   39.7218   32.7451   40.0190 H   0  0  0  0  0  0  0  0  0  0  0  0
   41.3847   32.7163   40.7542 H   0  0  0  0  0  0  0  0  0  0  0  0
   39.3156   34.9275   40.9535 H   0  0  0  0  0  0  0  0  0  0  0  0
   39.9130   33.8153   42.2631 H   0  0  0  0  0  0  0  0  0  0  0  0
   41.4728   35.2170   42.7595 H   0  0  0  0  0  0  0  0  0  0  0  0
   40.7707   37.1357   42.2663 H   0  0  0  0  0  0  0  0  0  0  0  0
   44.2810   33.9034   41.8396 H   0  0  0  0  0  0  0  0  0  0  0  0
   45.5334   35.0455   41.3171 H   0  0  0  0  0  0  0  0  0  0  0  0
   43.6305   35.5085   43.5865 H   0  0  0  0  0  0  0  0  0  0  0  0
   46.6832   34.0053   42.3776 H   0  0  0  0  0  0  0  0  0  0  0  0
   48.0697   32.3762   43.7494 H   0  0  0  0  0  0  0  0  0  0  0  0
   45.6693   33.2930   47.1773 H   0  0  0  0  0  0  0  0  0  0  0  0
   45.2613   37.1521   44.3950 H   0  0  0  0  0  0  0  0  0  0  0  0
   46.1478   36.9652   42.8439 H   0  0  0  0  0  0  0  0  0  0  0  0
   44.4539   37.5629   42.8439 H   0  0  0  0  0  0  0  0  0  0  0  0
  1  9  1  0
  2  1  1  0
  2  7  1  0
  3  2  1  0
  4  3  1  0
  4  5  1  0
  5  6  1  0
  6  7  1  0
  8  7  1  0
  9 10  1  0
 10 17  1  0
 10 11  1  0
 11 16  1  0
 12 11  2  0
 12 13  1  0
 13 14  2  0
 14 15  1  0
 16 15  2  0
  2 18  1  6
  3 19  1  0
  3 20  1  0
  4 21  1  0
  4 22  1  0
  5 23  1  0
  5 24  1  0
  6 25  1  0
  6 26  1  0
  7 27  1  1
  8 28  1  0
  9 29  1  0
  9 30  1  0
 10 31  1  1
 12 32  1  0
 13 33  1  0
 15 34  1  0
 17 35  1  0
 17 36  1  0
 17 37  1  0
M  ISO  8  18  13  19  13  20  13  21  13  22  13  23  13  24  13  25  13
M  ISO  8  26  13  27  13  28   3  29   8  30   8  31   8  32  14  33  14
M  ISO  4  34  14  35   8  36   8  37   8
M  END
>  <minimizedAffinity>  (1) 
-4.86306953

>  <minimizedRMSD>  (1) 
0.669441223

$$$$
