
     RDKit          3D

 42 43  0  0  1  0  0  0  0  0999 V2000
   43.0940   35.6390   41.5190 O   0  0  0  0  0  0  0  0  0  0  0  0
   42.2750   34.5480   41.4040 C   0  0  2  0  0  0  0  0  0  0  0  0
   42.5290   33.7510   40.1370 C   0  0  0  0  0  0  0  0  0  0  0  0
   41.9000   32.3790   40.3580 C   0  0  0  0  0  0  0  0  0  0  0  0
   40.9440   32.3510   41.5100 C   0  0  0  0  0  0  0  0  0  0  0  0
   40.0540   33.5730   41.5770 C   0  0  0  0  0  0  0  0  0  0  0  0
   40.8280   34.8530   41.5220 C   0  0  2  0  0  0  0  0  0  0  0  0
   40.2800   35.6810   40.4010 C   0  0  0  0  0  0  0  0  0  0  0  0
   39.1470   34.9390   39.6780 C   0  0  0  0  0  0  0  0  0  0  0  0
   44.4240   35.3030   41.8700 C   0  0  0  0  0  0  0  0  0  0  0  0
   44.6100   35.7240   43.2640 C   0  0  1  0  0  0  0  0  0  0  0  0
   45.3930   34.7160   44.0600 C   0  0  0  0  0  0  0  0  0  0  0  0
   46.4520   34.1240   43.3480 C   0  0  0  0  0  0  0  0  0  0  0  0
   47.2420   33.1780   44.0050 C   0  0  0  0  0  0  0  0  0  0  0  0
   46.9190   32.8930   45.3190 N   0  0  0  0  0  0  0  0  0  0  0  0
   45.8960   33.4810   45.9630 C   0  0  0  0  0  0  0  0  0  0  0  0
   45.1130   34.4050   45.3450 N   0  0  0  0  0  0  0  0  0  0  0  0
   45.1490   37.1340   43.4190 C   0  0  0  0  0  0  0  0  0  0  0  0
   42.5466   33.9299   42.2724 H   0  0  0  0  0  0  0  0  0  0  0  0
   43.6102   33.6500   39.9614 H   0  0  0  0  0  0  0  0  0  0  0  0
   42.0965   34.2511   39.2578 H   0  0  0  0  0  0  0  0  0  0  0  0
   41.3574   32.0913   39.4454 H   0  0  0  0  0  0  0  0  0  0  0  0
   42.7149   31.6776   40.5903 H   0  0  0  0  0  0  0  0  0  0  0  0
   40.3068   31.4595   41.4138 H   0  0  0  0  0  0  0  0  0  0  0  0
   41.5440   32.3331   42.4318 H   0  0  0  0  0  0  0  0  0  0  0  0
   39.3555   33.5470   40.7277 H   0  0  0  0  0  0  0  0  0  0  0  0
   39.5232   33.5460   42.5401 H   0  0  0  0  0  0  0  0  0  0  0  0
   40.7205   35.4442   42.4434 H   0  0  0  0  0  0  0  0  0  0  0  0
   39.8903   36.6258   40.8077 H   0  0  0  0  0  0  0  0  0  0  0  0
   41.0879   35.8782   39.6810 H   0  0  0  0  0  0  0  0  0  0  0  0
   38.4678   34.4942   40.4202 H   0  0  0  0  0  0  0  0  0  0  0  0
   38.5886   35.6469   39.0479 H   0  0  0  0  0  0  0  0  0  0  0  0
   39.5728   34.1442   39.0479 H   0  0  0  0  0  0  0  0  0  0  0  0
   44.5781   34.2178   41.7777 H   0  0  0  0  0  0  0  0  0  0  0  0
   45.1467   35.8000   41.2061 H   0  0  0  0  0  0  0  0  0  0  0  0
   43.5982   35.7614   43.6939 H   0  0  0  0  0  0  0  0  0  0  0  0
   46.6525   34.3988   42.3019 H   0  0  0  0  0  0  0  0  0  0  0  0
   48.0837   32.6817   43.4997 H   0  0  0  0  0  0  0  0  0  0  0  0
   45.6886   33.2098   47.0087 H   0  0  0  0  0  0  0  0  0  0  0  0
   45.2414   37.3757   44.4881 H   0  0  0  0  0  0  0  0  0  0  0  0
   46.1371   37.2035   42.9406 H   0  0  0  0  0  0  0  0  0  0  0  0
   44.4592   37.8449   42.9406 H   0  0  0  0  0  0  0  0  0  0  0  0
  1 10  1  0
  2  1  1  0
  2  7  1  0
  3  4  1  0
  3  2  1  0
  4  5  1  0
  5  6  1  0
  7  6  1  0
  8  7  1  0
  9  8  1  0
 10 11  1  0
 11 18  1  0
 11 12  1  0
 12 17  2  0
 13 14  2  0
 13 12  1  0
 14 15  1  0
 15 16  2  0
 17 16  1  0
  2 19  1  1
  3 20  1  0
  3 21  1  0
  4 22  1  0
  4 23  1  0
  5 24  1  0
  5 25  1  0
  6 26  1  0
  6 27  1  0
  7 28  1  1
  8 29  1  0
  8 30  1  0
  9 31  1  0
  9 32  1  0
  9 33  1  0
 10 34  1  0
 10 35  1  0
 11 36  1  1
 13 37  1  0
 14 38  1  0
 16 39  1  0
 18 40  1  0
 18 41  1  0
 18 42  1  0
M  ISO  8  19  13  20  13  21  13  22  13  23  13  24  13  25  13  26  13
M  ISO  8  27  13  28  13  29   8  30   8  31   8  32   8  33   8  34   8
M  ISO  8  35   8  36   8  37  14  38  14  39  14  40   8  41   8  42   8
M  END
>  <minimizedAffinity>  (1) 
-4.85866833

>  <minimizedRMSD>  (1) 
1.44630396

$$$$
