
     RDKit          3D

 43 45  0  0  1  0  0  0  0  0999 V2000
   42.0500   34.6090   40.7440 C   0  0  2  0  0  0  0  0  0  0  0  0
   41.4050   35.8790   40.2120 C   0  0  0  0  0  0  0  0  0  0  0  0
   41.1560   35.6490   38.7280 C   0  0  0  0  0  0  0  0  0  0  0  0
   41.2580   34.2110   38.3300 C   0  0  0  0  0  0  0  0  0  0  0  0
   40.6120   33.2650   39.3200 C   0  0  0  0  0  0  0  0  0  0  0  0
   41.0270   33.5430   40.7350 C   0  0  1  0  0  0  0  0  0  0  0  0
   41.3070   32.3630   41.5030 N   0  0  0  0  0  0  0  0  0  0  0  0
   40.4750   31.6390   42.3110 C   0  0  0  0  0  0  0  0  0  0  0  0
   41.1520   30.5660   42.8680 C   0  0  0  0  0  0  0  0  0  0  0  0
   42.3970   30.6510   42.3870 N   0  0  0  0  0  0  0  0  0  0  0  0
   42.4710   31.7270   41.5770 C   0  0  0  0  0  0  0  0  0  0  0  0
   42.6670   34.7780   41.9570 O   0  0  0  0  0  0  0  0  0  0  0  0
   44.0270   35.1310   41.8380 C   0  0  0  0  0  0  0  0  0  0  0  0
   44.6470   34.7980   43.1300 C   0  0  1  0  0  0  0  0  0  0  0  0
   46.0980   34.4230   42.9740 C   0  0  0  0  0  0  0  0  0  0  0  0
   46.8180   35.2660   42.1020 C   0  0  0  0  0  0  0  0  0  0  0  0
   48.1720   35.0010   41.9010 C   0  0  0  0  0  0  0  0  0  0  0  0
   48.7100   33.9220   42.5780 N   0  0  0  0  0  0  0  0  0  0  0  0
   47.9870   33.1420   43.4020 C   0  0  0  0  0  0  0  0  0  0  0  0
   46.6620   33.3780   43.6170 N   0  0  0  0  0  0  0  0  0  0  0  0
   44.4340   35.8490   44.2030 C   0  0  0  0  0  0  0  0  0  0  0  0
   42.8804   34.3138   40.0857 H   0  0  0  0  0  0  0  0  0  0  0  0
   40.4543   36.0688   40.7318 H   0  0  0  0  0  0  0  0  0  0  0  0
   42.0530   36.7527   40.3757 H   0  0  0  0  0  0  0  0  0  0  0  0
   40.1458   36.0089   38.4830 H   0  0  0  0  0  0  0  0  0  0  0  0
   41.9345   36.1970   38.1769 H   0  0  0  0  0  0  0  0  0  0  0  0
   40.7661   34.0837   37.3544 H   0  0  0  0  0  0  0  0  0  0  0  0
   42.3283   33.9600   38.2924 H   0  0  0  0  0  0  0  0  0  0  0  0
   39.5194   33.3689   39.2459 H   0  0  0  0  0  0  0  0  0  0  0  0
   40.9391   32.2449   39.0700 H   0  0  0  0  0  0  0  0  0  0  0  0
   40.1711   33.9434   41.2981 H   0  0  0  0  0  0  0  0  0  0  0  0
   39.4163   31.8753   42.4934 H   0  0  0  0  0  0  0  0  0  0  0  0
   40.7518   29.8078   43.5572 H   0  0  0  0  0  0  0  0  0  0  0  0
   43.3814   32.0389   41.0442 H   0  0  0  0  0  0  0  0  0  0  0  0
   44.5011   34.5579   41.0276 H   0  0  0  0  0  0  0  0  0  0  0  0
   44.1468   36.1975   41.5966 H   0  0  0  0  0  0  0  0  0  0  0  0
   44.1140   33.9075   43.4945 H   0  0  0  0  0  0  0  0  0  0  0  0
   46.3252   36.1086   41.5949 H   0  0  0  0  0  0  0  0  0  0  0  0
   48.7856   35.6232   41.2329 H   0  0  0  0  0  0  0  0  0  0  0  0
   48.4745   32.2979   43.9118 H   0  0  0  0  0  0  0  0  0  0  0  0
   44.5282   35.3841   45.1955 H   0  0  0  0  0  0  0  0  0  0  0  0
   45.1899   36.6409   44.0958 H   0  0  0  0  0  0  0  0  0  0  0  0
   43.4294   36.2841   44.0958 H   0  0  0  0  0  0  0  0  0  0  0  0
  1 12  1  0
  2  1  1  0
  3  2  1  0
  4  3  1  0
  4  5  1  0
  5  6  1  0
  6  1  1  0
  6  7  1  0
  7 11  1  0
  7  8  1  0
  8  9  2  0
 10  9  1  0
 11 10  2  0
 13 12  1  0
 13 14  1  0
 14 21  1  0
 15 14  1  0
 15 20  1  0
 16 15  2  0
 17 16  1  0
 17 18  2  0
 18 19  1  0
 19 20  2  0
  1 22  1  6
  2 23  1  0
  2 24  1  0
  3 25  1  0
  3 26  1  0
  4 27  1  0
  4 28  1  0
  5 29  1  0
  5 30  1  0
  6 31  1  1
  8 32  1  0
  9 33  1  0
 11 34  1  0
 13 35  1  0
 13 36  1  0
 14 37  1  1
 16 38  1  0
 17 39  1  0
 19 40  1  0
 21 41  1  0
 21 42  1  0
 21 43  1  0
M  ISO  8  22  13  23  13  24  13  25  13  26  13  27  13  28  13  29  13
M  ISO  8  30  13  31  13  32  14  33  14  34  14  35   8  36   8  37   8
M  ISO  6  38  14  39  14  40  14  41   8  42   8  43   8
M  END
>  <minimizedAffinity>  (1) 
-4.7281909

>  <minimizedRMSD>  (1) 
3.45574474

$$$$
