
     RDKit          3D

 41 43  0  0  1  0  0  0  0  0999 V2000
   41.9130   34.9380   41.1680 C   0  0  2  0  0  0  0  0  0  0  0  0
   40.8350   36.0080   41.2050 C   0  0  0  0  0  0  0  0  0  0  0  0
   40.2790   36.1110   39.7880 C   0  0  0  0  0  0  0  0  0  0  0  0
   40.6480   34.9240   38.9360 C   0  0  0  0  0  0  0  0  0  0  0  0
   40.5550   33.6000   39.6610 C   0  0  0  0  0  0  0  0  0  0  0  0
   41.2440   33.6240   40.9910 C   0  0  1  0  0  0  0  0  0  0  0  0
   42.1570   32.4700   41.1920 C   0  0  0  0  0  0  0  0  0  0  0  0
   42.0890   31.5620   42.1850 N   0  0  0  0  0  0  0  0  0  0  0  0
   43.0500   30.7070   42.0320 O   0  0  0  0  0  0  0  0  0  0  0  0
   43.7840   30.9720   40.9860 C   0  0  0  0  0  0  0  0  0  0  0  0
   43.2310   32.0910   40.4400 N   0  0  0  0  0  0  0  0  0  0  0  0
   42.7670   34.9600   42.2430 O   0  0  0  0  0  0  0  0  0  0  0  0
   44.0030   35.5780   41.9270 C   0  0  0  0  0  0  0  0  0  0  0  0
   45.0270   34.6120   42.5010 C   0  0  1  0  0  0  0  0  0  0  0  0
   46.2150   34.5350   41.5710 C   0  0  0  0  0  0  0  0  0  0  0  0
   47.3880   35.1620   42.0550 C   0  0  0  0  0  0  0  0  0  0  0  0
   48.5270   35.1170   41.2490 C   0  0  0  0  0  0  0  0  0  0  0  0
   48.4340   34.4680   40.0460 N   0  0  0  0  0  0  0  0  0  0  0  0
   47.2960   33.8820   39.6230 C   0  0  0  0  0  0  0  0  0  0  0  0
   46.1730   33.9080   40.3790 N   0  0  0  0  0  0  0  0  0  0  0  0
   45.4200   34.9080   43.9150 C   0  0  0  0  0  0  0  0  0  0  0  0
   42.5789   35.1416   40.3165 H   0  0  0  0  0  0  0  0  0  0  0  0
   40.0378   35.7203   41.9062 H   0  0  0  0  0  0  0  0  0  0  0  0
   41.2424   36.9720   41.5438 H   0  0  0  0  0  0  0  0  0  0  0  0
   39.1825   36.1784   39.8433 H   0  0  0  0  0  0  0  0  0  0  0  0
   40.7160   37.0062   39.3215 H   0  0  0  0  0  0  0  0  0  0  0  0
   41.6826   35.0561   38.5865 H   0  0  0  0  0  0  0  0  0  0  0  0
   39.9253   34.8872   38.1075 H   0  0  0  0  0  0  0  0  0  0  0  0
   39.4936   33.3577   39.8180 H   0  0  0  0  0  0  0  0  0  0  0  0
   41.0553   32.8429   39.0393 H   0  0  0  0  0  0  0  0  0  0  0  0
   40.4881   33.5094   41.7819 H   0  0  0  0  0  0  0  0  0  0  0  0
   44.6594   30.4131   40.6237 H   0  0  0  0  0  0  0  0  0  0  0  0
   44.1254   35.6829   40.8389 H   0  0  0  0  0  0  0  0  0  0  0  0
   44.0938   36.5964   42.3326 H   0  0  0  0  0  0  0  0  0  0  0  0
   44.5519   33.6218   42.5627 H   0  0  0  0  0  0  0  0  0  0  0  0
   47.4017   35.6671   43.0321 H   0  0  0  0  0  0  0  0  0  0  0  0
   49.4684   35.5873   41.5693 H   0  0  0  0  0  0  0  0  0  0  0  0
   47.2795   33.3742   38.6473 H   0  0  0  0  0  0  0  0  0  0  0  0
   44.7339   34.3912   44.6021 H   0  0  0  0  0  0  0  0  0  0  0  0
   46.4478   34.5577   44.0909 H   0  0  0  0  0  0  0  0  0  0  0  0
   45.3671   35.9926   44.0909 H   0  0  0  0  0  0  0  0  0  0  0  0
  1  2  1  0
  1 12  1  0
  3  2  1  0
  4  5  1  0
  4  3  1  0
  5  6  1  0
  6  1  1  0
  6  7  1  0
  7  8  2  0
  9  8  1  0
 10  9  1  0
 11 10  2  0
 11  7  1  0
 13 12  1  0
 13 14  1  0
 14 21  1  0
 15 16  2  0
 15 14  1  0
 17 16  1  0
 18 17  2  0
 19 18  1  0
 19 20  2  0
 20 15  1  0
  1 22  1  6
  2 23  1  0
  2 24  1  0
  3 25  1  0
  3 26  1  0
  4 27  1  0
  4 28  1  0
  5 29  1  0
  5 30  1  0
  6 31  1  1
 10 32  1  0
 13 33  1  0
 13 34  1  0
 14 35  1  1
 16 36  1  0
 17 37  1  0
 19 38  1  0
 21 39  1  0
 21 40  1  0
 21 41  1  0
M  ISO  8  22  13  23  13  24  13  25  13  26  13  27  13  28  13  29  13
M  ISO  8  30  13  31  13  32  14  33   8  34   8  35   8  36  14  37  14
M  ISO  4  38  14  39   8  40   8  41   8
M  END
>  <minimizedAffinity>  (1) 
-4.64148617

>  <minimizedRMSD>  (1) 
4.18067408

$$$$
