
     RDKit          3D

 38 39  0  0  1  0  0  0  0  0999 V2000
   43.7910   35.5290   40.9970 O   0  0  0  0  0  0  0  0  0  0  0  0
   42.8420   34.6710   40.5130 C   0  0  2  0  0  0  0  0  0  0  0  0
   42.5220   34.9000   39.0480 C   0  0  0  0  0  0  0  0  0  0  0  0
   41.8150   33.6430   38.5620 C   0  0  0  0  0  0  0  0  0  0  0  0
   41.3340   32.7670   39.6770 C   0  0  0  0  0  0  0  0  0  0  0  0
   40.7030   33.5510   40.8080 C   0  0  0  0  0  0  0  0  0  0  0  0
   41.5840   34.6570   41.3030 C   0  0  2  0  0  0  0  0  0  0  0  0
   40.9200   36.0010   41.1620 C   0  0  0  0  0  0  0  0  0  0  0  0
   39.9250   36.4400   40.6370 O   0  0  0  0  0  0  0  0  0  0  0  0
   44.8210   34.8810   41.7110 C   0  0  0  0  0  0  0  0  0  0  0  0
   44.7440   35.3720   43.0930 C   0  0  1  0  0  0  0  0  0  0  0  0
   45.4600   34.4560   44.0550 C   0  0  0  0  0  0  0  0  0  0  0  0
   46.5140   33.7290   43.4650 C   0  0  0  0  0  0  0  0  0  0  0  0
   47.2380   32.8540   44.2830 C   0  0  0  0  0  0  0  0  0  0  0  0
   46.8600   32.7720   45.6110 N   0  0  0  0  0  0  0  0  0  0  0  0
   45.8420   33.4920   46.1240 C   0  0  0  0  0  0  0  0  0  0  0  0
   45.1330   34.3380   45.3600 N   0  0  0  0  0  0  0  0  0  0  0  0
   45.1370   36.8180   43.2710 C   0  0  0  0  0  0  0  0  0  0  0  0
   43.3106   33.6812   40.6162 H   0  0  0  0  0  0  0  0  0  0  0  0
   41.8646   35.7746   38.9342 H   0  0  0  0  0  0  0  0  0  0  0  0
   43.4347   35.0950   38.4658 H   0  0  0  0  0  0  0  0  0  0  0  0
   40.9484   33.9424   37.9542 H   0  0  0  0  0  0  0  0  0  0  0  0
   42.5461   33.0609   37.9818 H   0  0  0  0  0  0  0  0  0  0  0  0
   40.5874   32.0657   39.2760 H   0  0  0  0  0  0  0  0  0  0  0  0
   42.2091   32.2410   40.0863 H   0  0  0  0  0  0  0  0  0  0  0  0
   39.7580   33.9862   40.4509 H   0  0  0  0  0  0  0  0  0  0  0  0
   40.5385   32.8559   41.6445 H   0  0  0  0  0  0  0  0  0  0  0  0
   41.7871   34.4744   42.3685 H   0  0  0  0  0  0  0  0  0  0  0  0
   41.4917   36.7909   41.6712 H   0  0  0  0  0  0  0  0  0  0  0  0
   44.6730   33.7913   41.6862 H   0  0  0  0  0  0  0  0  0  0  0  0
   45.8055   35.0925   41.2683 H   0  0  0  0  0  0  0  0  0  0  0  0
   43.6736   35.3490   43.3453 H   0  0  0  0  0  0  0  0  0  0  0  0
   46.7588   33.8454   42.3989 H   0  0  0  0  0  0  0  0  0  0  0  0
   48.0723   32.2568   43.8865 H   0  0  0  0  0  0  0  0  0  0  0  0
   45.5876   33.3841   47.1887 H   0  0  0  0  0  0  0  0  0  0  0  0
   45.2004   37.0513   44.3441 H   0  0  0  0  0  0  0  0  0  0  0  0
   46.1152   36.9928   42.7993 H   0  0  0  0  0  0  0  0  0  0  0  0
   44.3818   37.4639   42.7993 H   0  0  0  0  0  0  0  0  0  0  0  0
  1 10  1  0
  2  1  1  0
  2  7  1  0
  3  2  1  0
  4  3  1  0
  4  5  1  0
  5  6  1  0
  6  7  1  0
  8  7  1  0
  9  8  2  0
 10 11  1  0
 11 18  1  0
 11 12  1  0
 12 17  1  0
 13 12  2  0
 13 14  1  0
 14 15  2  0
 15 16  1  0
 17 16  2  0
  2 19  1  6
  3 20  1  0
  3 21  1  0
  4 22  1  0
  4 23  1  0
  5 24  1  0
  5 25  1  0
  6 26  1  0
  6 27  1  0
  7 28  1  1
  8 29  1  0
 10 30  1  0
 10 31  1  0
 11 32  1  1
 13 33  1  0
 14 34  1  0
 16 35  1  0
 18 36  1  0
 18 37  1  0
 18 38  1  0
M  ISO  8  19  13  20  13  21  13  22  13  23  13  24  13  25  13  26  13
M  ISO  8  27  13  28  13  29   6  30   8  31   8  32   8  33  14  34  14
M  ISO  4  35  14  36   8  37   8  38   8
M  END
>  <minimizedAffinity>  (1) 
-4.68231106

>  <minimizedRMSD>  (1) 
1.07650495

$$$$
