
     RDKit          3D

 45 46  0  0  1  0  0  0  0  0999 V2000
   43.0830   34.5980   41.6370 O   0  0  0  0  0  0  0  0  0  0  0  0
   42.8060   33.9630   40.4550 C   0  0  2  0  0  0  0  0  0  0  0  0
   43.9860   33.9160   39.4920 C   0  0  0  0  0  0  0  0  0  0  0  0
   43.6880   32.8140   38.4810 C   0  0  0  0  0  0  0  0  0  0  0  0
   42.2340   32.4150   38.4790 C   0  0  0  0  0  0  0  0  0  0  0  0
   41.2800   33.5690   38.6000 C   0  0  0  0  0  0  0  0  0  0  0  0
   41.6590   34.5110   39.7220 C   0  0  1  0  0  0  0  0  0  0  0  0
   40.4710   34.9890   40.4640 C   0  0  0  0  0  0  0  0  0  0  0  0
   40.5030   36.4170   40.9090 C   0  0  0  0  0  0  0  0  0  0  0  0
   40.0610   34.0700   41.5970 C   0  0  0  0  0  0  0  0  0  0  0  0
   44.4220   35.0490   41.7160 C   0  0  0  0  0  0  0  0  0  0  0  0
   44.5280   35.5680   43.1380 C   0  0  1  0  0  0  0  0  0  0  0  0
   45.3510   34.6060   43.9630 C   0  0  0  0  0  0  0  0  0  0  0  0
   46.4210   33.9890   43.2650 C   0  0  0  0  0  0  0  0  0  0  0  0
   47.2210   33.1010   43.9920 C   0  0  0  0  0  0  0  0  0  0  0  0
   46.9120   32.8930   45.3270 N   0  0  0  0  0  0  0  0  0  0  0  0
   45.8960   33.5000   45.9310 C   0  0  0  0  0  0  0  0  0  0  0  0
   45.1040   34.3600   45.2650 N   0  0  0  0  0  0  0  0  0  0  0  0
   45.0260   36.9780   43.2340 C   0  0  0  0  0  0  0  0  0  0  0  0
   42.5601   32.9459   40.7941 H   0  0  0  0  0  0  0  0  0  0  0  0
   44.0934   34.8824   38.9777 H   0  0  0  0  0  0  0  0  0  0  0  0
   44.9249   33.7150   40.0287 H   0  0  0  0  0  0  0  0  0  0  0  0
   43.9573   33.1734   37.4768 H   0  0  0  0  0  0  0  0  0  0  0  0
   44.2784   31.9301   38.7640 H   0  0  0  0  0  0  0  0  0  0  0  0
   42.0217   31.8889   37.5366 H   0  0  0  0  0  0  0  0  0  0  0  0
   42.0783   31.7812   39.3645 H   0  0  0  0  0  0  0  0  0  0  0  0
   41.2795   34.1286   37.6530 H   0  0  0  0  0  0  0  0  0  0  0  0
   40.2838   33.1604   38.8251 H   0  0  0  0  0  0  0  0  0  0  0  0
   42.0465   35.4716   39.3517 H   0  0  0  0  0  0  0  0  0  0  0  0
   39.6867   34.9535   39.6935 H   0  0  0  0  0  0  0  0  0  0  0  0
   40.5039   36.4586   42.0082 H   0  0  0  0  0  0  0  0  0  0  0  0
   41.4122   36.9011   40.5230 H   0  0  0  0  0  0  0  0  0  0  0  0
   39.6164   36.9413   40.5230 H   0  0  0  0  0  0  0  0  0  0  0  0
   40.2777   34.5558   42.5598 H   0  0  0  0  0  0  0  0  0  0  0  0
   38.9836   33.8595   41.5268 H   0  0  0  0  0  0  0  0  0  0  0  0
   40.6241   33.1276   41.5268 H   0  0  0  0  0  0  0  0  0  0  0  0
   45.1276   34.2229   41.5437 H   0  0  0  0  0  0  0  0  0  0  0  0
   44.6673   35.8088   40.9594 H   0  0  0  0  0  0  0  0  0  0  0  0
   43.5095   35.6155   43.5507 H   0  0  0  0  0  0  0  0  0  0  0  0
   46.6125   34.1989   42.2023 H   0  0  0  0  0  0  0  0  0  0  0  0
   48.0688   32.5840   43.5189 H   0  0  0  0  0  0  0  0  0  0  0  0
   45.6990   33.2959   46.9938 H   0  0  0  0  0  0  0  0  0  0  0  0
   45.1257   37.2604   44.2925 H   0  0  0  0  0  0  0  0  0  0  0  0
   46.0058   37.0552   42.7400 H   0  0  0  0  0  0  0  0  0  0  0  0
   44.3120   37.6535   42.7400 H   0  0  0  0  0  0  0  0  0  0  0  0
  1 11  1  0
  2  1  1  0
  3  2  1  0
  4  3  1  0
  5  4  1  0
  5  6  1  0
  6  7  1  0
  7  2  1  0
  7  8  1  0
  8  9  1  0
  8 10  1  0
 11 12  1  0
 12 19  1  0
 12 13  1  0
 13 18  1  0
 14 13  2  0
 14 15  1  0
 15 16  2  0
 16 17  1  0
 18 17  2  0
  2 20  1  1
  3 21  1  0
  3 22  1  0
  4 23  1  0
  4 24  1  0
  5 25  1  0
  5 26  1  0
  6 27  1  0
  6 28  1  0
  7 29  1  6
  8 30  1  0
  9 31  1  0
  9 32  1  0
  9 33  1  0
 10 34  1  0
 10 35  1  0
 10 36  1  0
 11 37  1  0
 11 38  1  0
 12 39  1  1
 14 40  1  0
 15 41  1  0
 17 42  1  0
 19 43  1  0
 19 44  1  0
 19 45  1  0
M  ISO  8  20  13  21  13  22  13  23  13  24  13  25  13  26  13  27  13
M  ISO  8  28  13  29  13  30   8  31   8  32   8  33   8  34   8  35   8
M  ISO  8  36   8  37   8  38   8  39   8  40  14  41  14  42  14  43   8
M  ISO  2  44   8  45   8
M  END
>  <minimizedAffinity>  (1) 
-4.69884205

>  <minimizedRMSD>  (1) 
1.75233996

$$$$
