
     RDKit          3D

 27 28  0  0  0  0  0  0  0  0999 V2000
   45.3660   34.8260   44.2750 C   0  0  0  0  0  0  0  0  0  0  0  0
   46.4060   34.0970   43.7130 C   0  0  0  0  0  0  0  0  0  0  0  0
   47.0380   33.1310   44.5130 C   0  0  0  0  0  0  0  0  0  0  0  0
   46.5810   32.9730   45.8000 N   0  0  0  0  0  0  0  0  0  0  0  0
   45.5610   33.7110   46.3000 C   0  0  0  0  0  0  0  0  0  0  0  0
   44.9630   34.6260   45.5390 N   0  0  0  0  0  0  0  0  0  0  0  0
   46.9440   34.1780   42.4250 N   0  0  0  0  0  0  0  0  0  0  0  0
   47.8910   35.2350   42.0570 C   0  0  0  0  0  0  0  0  0  0  0  0
   48.8140   34.7570   40.9780 C   0  0  0  0  0  0  0  0  0  0  0  0
   48.0090   34.4390   39.7450 C   0  0  0  0  0  0  0  0  0  0  0  0
   46.6810   33.8150   40.0210 C   0  0  0  0  0  0  0  0  0  0  0  0
   46.5740   33.1990   41.4070 C   0  0  0  0  0  0  0  0  0  0  0  0
   44.7690   35.7940   43.3960 C   0  0  0  0  0  0  0  0  0  0  0  0
   45.1330   37.0090   43.2770 O   0  0  0  0  0  0  0  0  0  0  0  0
   47.8682   32.5231   44.1241 H   0  0  0  0  0  0  0  0  0  0  0  0
   45.2261   33.5544   47.3360 H   0  0  0  0  0  0  0  0  0  0  0  0
   47.3333   36.1113   41.6950 H   0  0  0  0  0  0  0  0  0  0  0  0
   48.4861   35.5048   42.9419 H   0  0  0  0  0  0  0  0  0  0  0  0
   49.5477   35.5430   40.7461 H   0  0  0  0  0  0  0  0  0  0  0  0
   49.3442   33.8548   41.3170 H   0  0  0  0  0  0  0  0  0  0  0  0
   48.5927   33.7451   39.1222 H   0  0  0  0  0  0  0  0  0  0  0  0
   47.8081   35.3978   39.2446 H   0  0  0  0  0  0  0  0  0  0  0  0
   45.9060   34.5895   39.9239 H   0  0  0  0  0  0  0  0  0  0  0  0
   46.5507   32.9993   39.2946 H   0  0  0  0  0  0  0  0  0  0  0  0
   45.5386   32.8698   41.5791 H   0  0  0  0  0  0  0  0  0  0  0  0
   47.2575   32.3395   41.4710 H   0  0  0  0  0  0  0  0  0  0  0  0
   43.9268   35.4573   42.7736 H   0  0  0  0  0  0  0  0  0  0  0  0
  1  6  2  0
  2  1  1  0
  2  3  2  0
  3  4  1  0
  4  5  2  0
  6  5  1  0
  7  2  1  0
  8  7  1  0
  9  8  1  0
 10 11  1  0
 10  9  1  0
 11 12  1  0
 12  7  1  0
 13  1  1  0
 14 13  2  0
  3 15  1  0
  5 16  1  0
  8 17  1  0
  8 18  1  0
  9 19  1  0
  9 20  1  0
 10 21  1  0
 10 22  1  0
 11 23  1  0
 11 24  1  0
 12 25  1  0
 12 26  1  0
 13 27  1  0
M  ISO  8  15  14  16  14  17  13  18  13  19  13  20  13  21  13  22  13
M  ISO  5  23  13  24  13  25  13  26  13  27   6
M  END
>  <minimizedAffinity>  (1) 
-4.29938745

>  <minimizedRMSD>  (1) 
0.65747714

$$$$
