
     RDKit          3D

 21 22  0  0  0  0  0  0  0  0999 V2000
   46.2440   33.7740   44.3790 C   0  0  0  0  0  0  0  0  0  0  0  0
   45.7220   33.8570   45.6500 C   0  0  0  0  0  0  0  0  0  0  0  0
   44.7700   34.9090   45.8390 C   0  0  0  0  0  0  0  0  0  0  0  0
   44.4500   35.7230   44.8000 N   0  0  0  0  0  0  0  0  0  0  0  0
   45.0010   35.5790   43.5820 C   0  0  0  0  0  0  0  0  0  0  0  0
   45.8830   34.6160   43.3830 N   0  0  0  0  0  0  0  0  0  0  0  0
   45.8150   33.0600   46.8560 C   0  0  0  0  0  0  0  0  0  0  0  0
   46.9150   32.4870   47.4360 C   0  0  0  0  0  0  0  0  0  0  0  0
   46.5590   31.8020   48.5130 N   0  0  0  0  0  0  0  0  0  0  0  0
   45.2290   31.8940   48.6850 C   0  0  0  0  0  0  0  0  0  0  0  0
   44.8220   32.6620   47.6640 N   0  0  0  0  0  0  0  0  0  0  0  0
   47.2250   32.7220   44.2870 C   0  0  0  0  0  0  0  0  0  0  0  0
   48.1780   32.6550   43.4160 O   0  0  0  0  0  0  0  0  0  0  0  0
   44.2993   35.0576   46.8221 H   0  0  0  0  0  0  0  0  0  0  0  0
   44.7206   36.2552   42.7609 H   0  0  0  0  0  0  0  0  0  0  0  0
   47.9451   32.5816   47.0620 H   0  0  0  0  0  0  0  0  0  0  0  0
   44.6162   31.4434   49.4796 H   0  0  0  0  0  0  0  0  0  0  0  0
   43.8368   32.9223   47.5142 H   0  0  0  0  0  0  0  0  0  0  0  0
   47.7254   32.7054   45.2665 H   0  0  0  0  0  0  0  0  0  0  0  0
   46.5879   31.8962   43.9376 H   0  0  0  0  0  0  0  0  0  0  0  0
   49.0486   32.5938   43.8834 H   0  0  0  0  0  0  0  0  0  0  0  0
  1  2  2  0
  2  3  1  0
  2  7  1  0
  4  3  2  0
  5  4  1  0
  6  5  2  0
  6  1  1  0
  7  8  2  0
  7 11  1  0
  8  9  1  0
  9 10  2  0
 11 10  1  0
 12  1  1  0
 13 12  1  0
  3 14  1  0
  5 15  1  0
  8 16  1  0
 10 17  1  0
 11 18  1  0
 12 19  1  0
 12 20  1  0
 13 21  1  0
M  ISO  8  14  14  15  14  16  14  17  14  18   9  19   8  20   8  21   3
M  END
>  <minimizedAffinity>  (1) 
-4.37430048

>  <minimizedRMSD>  (1) 
5.32727432

$$$$
