
     RDKit          3D

 19 19  0  0  0  0  0  0  0  0999 V2000
   46.0410   34.0650   43.7750 C   0  0  0  0  0  0  0  0  0  0  0  0
   45.3400   34.0460   44.9850 C   0  0  0  0  0  0  0  0  0  0  0  0
   44.6690   35.2220   45.2740 C   0  0  0  0  0  0  0  0  0  0  0  0
   44.7140   36.2800   44.4250 N   0  0  0  0  0  0  0  0  0  0  0  0
   45.4040   36.2460   43.2720 C   0  0  0  0  0  0  0  0  0  0  0  0
   46.0560   35.1310   42.9720 N   0  0  0  0  0  0  0  0  0  0  0  0
   45.2380   32.9660   45.8980 N   0  0  0  0  0  0  0  0  0  0  0  0
   45.8630   32.8870   47.1690 C   0  0  0  0  0  0  0  0  0  0  0  0
   47.1140   33.2750   47.1590 N   0  0  0  0  0  0  0  0  0  0  0  0
   45.1370   32.4120   48.3230 N   0  0  0  0  0  0  0  0  0  0  0  0
   47.6810   33.2650   48.0270 H   0  0  0  0  0  0  0  0  0  0  0  0
   46.7630   32.8450   43.4510 C   0  0  0  0  0  0  0  0  0  0  0  0
   47.6550   32.3150   44.2030 O   0  0  0  0  0  0  0  0  0  0  0  0
   44.0904   35.3001   46.2062 H   0  0  0  0  0  0  0  0  0  0  0  0
   45.4271   37.1155   42.5987 H   0  0  0  0  0  0  0  0  0  0  0  0
   44.6567   32.1652   45.6121 H   0  0  0  0  0  0  0  0  0  0  0  0
   45.6039   32.3601   49.2396 H   0  0  0  0  0  0  0  0  0  0  0  0
   44.1522   32.1251   48.2296 H   0  0  0  0  0  0  0  0  0  0  0  0
   46.5285   32.3452   42.4996 H   0  0  0  0  0  0  0  0  0  0  0  0
  1  2  2  0
  2  3  1  0
  2  7  1  0
  4  3  2  0
  5  4  1  0
  6  5  2  0
  6  1  1  0
  7  8  1  0
  8 10  1  0
  9  8  2  0
  9 11  1  0
 12  1  1  0
 12 13  2  0
  3 14  1  0
  5 15  1  0
  7 16  1  0
 10 17  1  0
 10 18  1  0
 12 19  1  0
M  ISO  3  14  14  15  14  19   6
M  END
>  <minimizedAffinity>  (1) 
-4.30267811

>  <minimizedRMSD>  (1) 
4.76207638

$$$$
