
     RDKit          3D

 24 25  0  0  0  0  0  0  0  0999 V2000
   45.4310   34.5410   44.6410 C   0  0  0  0  0  0  0  0  0  0  0  0
   46.3690   34.0410   43.7380 C   0  0  0  0  0  0  0  0  0  0  0  0
   47.2040   32.9990   44.1170 C   0  0  0  0  0  0  0  0  0  0  0  0
   47.0570   32.5150   45.3760 N   0  0  0  0  0  0  0  0  0  0  0  0
   46.1410   33.0130   46.2400 C   0  0  0  0  0  0  0  0  0  0  0  0
   45.3350   34.0210   45.8670 N   0  0  0  0  0  0  0  0  0  0  0  0
   46.5900   34.4870   42.4050 N   0  0  0  0  0  0  0  0  0  0  0  0
   45.9760   34.3290   41.0780 C   0  0  0  0  0  0  0  0  0  0  0  0
   47.1590   34.0290   40.1900 C   0  0  0  0  0  0  0  0  0  0  0  0
   48.2990   34.8170   40.8030 C   0  0  0  0  0  0  0  0  0  0  0  0
   47.7090   35.3660   42.0850 C   0  0  0  0  0  0  0  0  0  0  0  0
   44.6260   35.6130   44.1440 C   0  0  0  0  0  0  0  0  0  0  0  0
   44.8730   36.8550   44.2810 O   0  0  0  0  0  0  0  0  0  0  0  0
   47.9526   32.5835   43.4264 H   0  0  0  0  0  0  0  0  0  0  0  0
   46.0564   32.5902   47.2520 H   0  0  0  0  0  0  0  0  0  0  0  0
   45.2562   33.4973   41.0720 H   0  0  0  0  0  0  0  0  0  0  0  0
   45.4056   35.2128   40.7563 H   0  0  0  0  0  0  0  0  0  0  0  0
   46.9662   34.3611   39.1592 H   0  0  0  0  0  0  0  0  0  0  0  0
   47.3771   32.9524   40.1312 H   0  0  0  0  0  0  0  0  0  0  0  0
   49.1579   34.1633   41.0151 H   0  0  0  0  0  0  0  0  0  0  0  0
   48.6780   35.6059   40.1367 H   0  0  0  0  0  0  0  0  0  0  0  0
   48.4565   35.3464   42.8918 H   0  0  0  0  0  0  0  0  0  0  0  0
   47.3877   36.4120   41.9720 H   0  0  0  0  0  0  0  0  0  0  0  0
   43.7126   35.3411   43.5947 H   0  0  0  0  0  0  0  0  0  0  0  0
  1  6  2  0
  2  3  2  0
  2  1  1  0
  3  4  1  0
  4  5  2  0
  6  5  1  0
  7  2  1  0
  8  7  1  0
  9 10  1  0
  9  8  1  0
 10 11  1  0
 11  7  1  0
 12 13  2  0
 12  1  1  0
  3 14  1  0
  5 15  1  0
  8 16  1  0
  8 17  1  0
  9 18  1  0
  9 19  1  0
 10 20  1  0
 10 21  1  0
 11 22  1  0
 11 23  1  0
 12 24  1  0
M  ISO  8  14  14  15  14  16  13  17  13  18  13  19  13  20  13  21  13
M  ISO  3  22  13  23  13  24   6
M  END
>  <minimizedAffinity>  (1) 
-4.20501089

>  <minimizedRMSD>  (1) 
0.783976674

$$$$
