
     RDKit          3D

 15 15  0  0  0  0  0  0  0  0999 V2000
   45.5140   34.6900   44.3910 C   0  0  0  0  0  0  0  0  0  0  0  0
   46.4720   34.1810   43.5260 C   0  0  0  0  0  0  0  0  0  0  0  0
   47.2260   33.1210   44.0060 C   0  0  0  0  0  0  0  0  0  0  0  0
   46.9840   32.6640   45.2570 N   0  0  0  0  0  0  0  0  0  0  0  0
   46.0510   33.1750   46.0760 C   0  0  0  0  0  0  0  0  0  0  0  0
   45.3210   34.1870   45.6340 N   0  0  0  0  0  0  0  0  0  0  0  0
   46.7870   34.6380   42.1630 C   0  0  0  0  0  0  0  0  0  0  0  0
   47.6570   33.7620   41.5030 F   0  0  0  0  0  0  0  0  0  0  0  0
   45.6600   34.8210   41.3940 F   0  0  0  0  0  0  0  0  0  0  0  0
   47.4380   35.8680   42.1720 F   0  0  0  0  0  0  0  0  0  0  0  0
   44.7210   35.8010   43.8840 C   0  0  0  0  0  0  0  0  0  0  0  0
   44.9070   37.0100   44.1710 O   0  0  0  0  0  0  0  0  0  0  0  0
   48.0060   32.6602   43.3821 H   0  0  0  0  0  0  0  0  0  0  0  0
   45.8976   32.7647   47.0850 H   0  0  0  0  0  0  0  0  0  0  0  0
   43.8955   35.5636   43.1968 H   0  0  0  0  0  0  0  0  0  0  0  0
  1  6  2  0
  2  3  2  0
  2  1  1  0
  3  4  1  0
  4  5  2  0
  6  5  1  0
  7 10  1  0
  7  2  1  0
  8  7  1  0
  9  7  1  0
 11 12  2  0
 11  1  1  0
  3 13  1  0
  5 14  1  0
 11 15  1  0
M  ISO  3  13  14  14  14  15   6
M  END
>  <minimizedAffinity>  (1) 
-3.78165483

>  <minimizedRMSD>  (1) 
0.338629335

$$$$
