
     RDKit          3D

 18 18  0  0  0  0  0  0  0  0999 V2000
   45.5120   34.7630   44.3850 C   0  0  0  0  0  0  0  0  0  0  0  0
   46.4880   34.3180   43.4870 C   0  0  0  0  0  0  0  0  0  0  0  0
   47.2900   33.2460   43.8540 C   0  0  0  0  0  0  0  0  0  0  0  0
   47.0670   32.6980   45.0770 N   0  0  0  0  0  0  0  0  0  0  0  0
   46.1210   33.1480   45.9180 C   0  0  0  0  0  0  0  0  0  0  0  0
   45.3300   34.1840   45.5900 N   0  0  0  0  0  0  0  0  0  0  0  0
   44.7150   35.8740   43.9480 C   0  0  0  0  0  0  0  0  0  0  0  0
   44.8870   37.0850   44.2440 O   0  0  0  0  0  0  0  0  0  0  0  0
   46.7190   34.9210   42.1650 C   0  0  0  0  0  0  0  0  0  0  0  0
   48.1460   35.2210   41.8810 C   0  0  0  0  0  0  0  0  0  0  0  0
   48.0714   32.8575   43.1843 H   0  0  0  0  0  0  0  0  0  0  0  0
   45.9911   32.6588   46.8946 H   0  0  0  0  0  0  0  0  0  0  0  0
   43.8669   35.6432   43.2866 H   0  0  0  0  0  0  0  0  0  0  0  0
   46.3523   34.2236   41.3974 H   0  0  0  0  0  0  0  0  0  0  0  0
   46.1826   35.8813   42.1541 H   0  0  0  0  0  0  0  0  0  0  0  0
   48.6922   35.3358   42.8289 H   0  0  0  0  0  0  0  0  0  0  0  0
   48.5860   34.3957   41.3019 H   0  0  0  0  0  0  0  0  0  0  0  0
   48.2164   36.1536   41.3019 H   0  0  0  0  0  0  0  0  0  0  0  0
  1  6  2  0
  2  3  2  0
  2  1  1  0
  3  4  1  0
  4  5  2  0
  6  5  1  0
  7  8  2  0
  7  1  1  0
  9  2  1  0
 10  9  1  0
  3 11  1  0
  5 12  1  0
  7 13  1  0
  9 14  1  0
  9 15  1  0
 10 16  1  0
 10 17  1  0
 10 18  1  0
M  ISO  8  11  14  12  14  13   6  14   8  15   8  16   8  17   8  18   8
M  END
>  <minimizedAffinity>  (1) 
-3.47763443

>  <minimizedRMSD>  (1) 
0.67956543

$$$$
