
     RDKit          3D

 14 14  0  0  0  0  0  0  0  0999 V2000
   45.4250   34.6140   44.6660 C   0  0  0  0  0  0  0  0  0  0  0  0
   46.3880   34.1750   43.7540 C   0  0  0  0  0  0  0  0  0  0  0  0
   47.2340   33.1300   44.0910 C   0  0  0  0  0  0  0  0  0  0  0  0
   47.0430   32.6070   45.3280 N   0  0  0  0  0  0  0  0  0  0  0  0
   46.1130   33.0360   46.1990 C   0  0  0  0  0  0  0  0  0  0  0  0
   45.3030   34.0380   45.8730 N   0  0  0  0  0  0  0  0  0  0  0  0
   44.6170   35.7070   44.1810 C   0  0  0  0  0  0  0  0  0  0  0  0
   44.8290   36.9420   44.4340 O   0  0  0  0  0  0  0  0  0  0  0  0
   46.6040   34.7280   42.4210 C   0  0  0  0  0  0  0  0  0  0  0  0
   47.6270   35.3590   42.0530 O   0  0  0  0  0  0  0  0  0  0  0  0
   48.0054   32.7517   43.4042 H   0  0  0  0  0  0  0  0  0  0  0  0
   46.0222   32.5561   47.1846 H   0  0  0  0  0  0  0  0  0  0  0  0
   43.7539   35.4587   43.5459 H   0  0  0  0  0  0  0  0  0  0  0  0
   45.8067   34.5807   41.6776 H   0  0  0  0  0  0  0  0  0  0  0  0
  1  6  2  0
  2  3  2  0
  2  1  1  0
  3  4  1  0
  4  5  2  0
  6  5  1  0
  7  8  2  0
  7  1  1  0
  9  2  1  0
 10  9  2  0
  3 11  1  0
  5 12  1  0
  7 13  1  0
  9 14  1  0
M  ISO  4  11  14  12  14  13   6  14   6
M  END
>  <minimizedAffinity>  (1) 
-3.23545074

>  <minimizedRMSD>  (1) 
0.624880373

$$$$
