
     RDKit          3D

 37 40  0  0  1  0  0  0  0  0999 V2000
   45.6860   34.4850   43.7660 C   0  0  0  0  0  0  0  0  0  0  0  0
   46.9280   34.0670   43.2780 C   0  0  0  0  0  0  0  0  0  0  0  0
   47.6250   33.0790   43.9940 C   0  0  0  0  0  0  0  0  0  0  0  0
   47.0600   32.5810   45.1200 N   0  0  0  0  0  0  0  0  0  0  0  0
   45.8540   33.0070   45.5670 C   0  0  0  0  0  0  0  0  0  0  0  0
   45.1920   33.9490   44.8840 N   0  0  0  0  0  0  0  0  0  0  0  0
   47.5780   34.5460   42.1100 N   0  0  0  0  0  0  0  0  0  0  0  0
   48.4030   35.5880   41.9090 C   0  0  0  0  0  0  0  0  0  0  0  0
   48.7550   35.6140   40.5930 N   0  0  0  0  0  0  0  0  0  0  0  0
   48.1620   34.6000   39.9650 C   0  0  0  0  0  0  0  0  0  0  0  0
   48.1460   34.1390   38.6700 C   0  0  0  0  0  0  0  0  0  0  0  0
   47.4080   33.0360   38.3340 N   0  0  0  0  0  0  0  0  0  0  0  0
   46.6890   32.3850   39.2640 C   0  0  0  0  0  0  0  0  0  0  0  0
   46.7240   32.8560   40.5170 N   0  0  0  0  0  0  0  0  0  0  0  0
   47.4250   33.9300   40.9090 C   0  0  0  0  0  0  0  0  0  0  0  0
   48.8970   34.7860   37.6450 N   0  0  0  0  0  0  0  0  0  0  0  0
   45.0210   35.4710   42.9790 C   0  0  0  0  0  0  0  0  0  0  0  0
   45.2870   36.7320   43.0100 O   0  0  0  0  0  0  0  0  0  0  0  0
   43.9430   35.2940   42.0100 C   0  0  0  0  0  0  0  0  0  0  0  0
   44.0950   34.9160   40.7040 C   0  0  0  0  0  0  0  0  0  0  0  0
   43.0040   34.7840   39.8550 C   0  0  0  0  0  0  0  0  0  0  0  0
   41.7210   35.0270   40.2760 C   0  0  0  0  0  0  0  0  0  0  0  0
   41.5090   35.4140   41.5920 C   0  0  0  0  0  0  0  0  0  0  0  0
   42.6220   35.5270   42.3850 C   0  0  0  0  0  0  0  0  0  0  0  0
   48.6053   32.7188   43.6486 H   0  0  0  0  0  0  0  0  0  0  0  0
   45.4218   32.5817   46.4848 H   0  0  0  0  0  0  0  0  0  0  0  0
   48.7377   36.3000   42.6777 H   0  0  0  0  0  0  0  0  0  0  0  0
   46.0932   31.4972   39.0053 H   0  0  0  0  0  0  0  0  0  0  0  0
   48.8709   34.4241   36.6810 H   0  0  0  0  0  0  0  0  0  0  0  0
   49.4655   35.6153   37.8686 H   0  0  0  0  0  0  0  0  0  0  0  0
   45.7640   35.3339   42.1795 H   0  0  0  0  0  0  0  0  0  0  0  0
   45.3505   37.0328   43.9510 H   0  0  0  0  0  0  0  0  0  0  0  0
   45.1045   34.7120   40.3176 H   0  0  0  0  0  0  0  0  0  0  0  0
   43.1737   34.4751   38.8130 H   0  0  0  0  0  0  0  0  0  0  0  0
   40.8745   34.9170   39.5822 H   0  0  0  0  0  0  0  0  0  0  0  0
   40.5000   35.6195   41.9789 H   0  0  0  0  0  0  0  0  0  0  0  0
   42.4537   35.8342   43.4277 H   0  0  0  0  0  0  0  0  0  0  0  0
  1  6  2  0
  2  1  1  0
  2  3  2  0
  3  4  1  0
  4  5  2  0
  6  5  1  0
  7  2  1  0
  8  7  1  0
  9  8  2  0
 10  9  1  0
 10 15  2  0
 11 10  1  0
 12 11  2  0
 12 13  1  0
 13 14  2  0
 14 15  1  0
 15  7  1  0
 16 11  1  0
 17 18  1  0
 17  1  1  0
 19 24  1  0
 19 17  1  0
 20 19  2  0
 21 22  2  0
 21 20  1  0
 22 23  1  0
 23 24  2  0
  3 25  1  0
  5 26  1  0
  8 27  1  0
 13 28  1  0
 16 29  1  0
 16 30  1  0
 17 31  1  0
 18 32  1  0
 20 33  1  0
 21 34  1  0
 22 35  1  0
 23 36  1  0
 24 37  1  0
M  ISO  8  25  14  26  14  27  14  28  14  31   8  32   3  33  14  34  14
M  ISO  3  35  14  36  14  37  14
M  END
>  <minimizedAffinity>  (1) 
-6.16883707

>  <minimizedRMSD>  (1) 
0.726238549

$$$$
