
     RDKit          3D

 27 29  0  0  0  0  0  0  0  0999 V2000
   47.5940   34.6850   42.1780 N   0  0  0  0  0  0  0  0  0  0  0  0
   48.5470   35.6100   41.9730 C   0  0  0  0  0  0  0  0  0  0  0  0
   48.8770   35.6120   40.6570 N   0  0  0  0  0  0  0  0  0  0  0  0
   48.1440   34.6960   40.0230 C   0  0  0  0  0  0  0  0  0  0  0  0
   48.0500   34.2630   38.7060 C   0  0  0  0  0  0  0  0  0  0  0  0
   47.1790   33.2850   38.3830 N   0  0  0  0  0  0  0  0  0  0  0  0
   46.3860   32.7060   39.3000 C   0  0  0  0  0  0  0  0  0  0  0  0
   46.4850   33.1340   40.5740 N   0  0  0  0  0  0  0  0  0  0  0  0
   47.3220   34.0950   40.9670 C   0  0  0  0  0  0  0  0  0  0  0  0
   48.8700   34.8480   37.7040 N   0  0  0  0  0  0  0  0  0  0  0  0
   45.6730   34.7800   43.8060 C   0  0  0  0  0  0  0  0  0  0  0  0
   46.8980   34.2690   43.3520 C   0  0  0  0  0  0  0  0  0  0  0  0
   47.5090   33.2670   44.0950 C   0  0  0  0  0  0  0  0  0  0  0  0
   46.8790   32.8420   45.2210 N   0  0  0  0  0  0  0  0  0  0  0  0
   45.7040   33.3470   45.6380 C   0  0  0  0  0  0  0  0  0  0  0  0
   45.1260   34.3050   44.9210 N   0  0  0  0  0  0  0  0  0  0  0  0
   45.1120   35.8120   42.9770 C   0  0  0  0  0  0  0  0  0  0  0  0
   45.2740   37.0630   43.1420 O   0  0  0  0  0  0  0  0  0  0  0  0
   44.2950   35.4840   41.8560 N   0  0  0  0  0  0  0  0  0  0  0  0
   48.9870   36.2586   42.7449 H   0  0  0  0  0  0  0  0  0  0  0  0
   45.6802   31.9099   39.0205 H   0  0  0  0  0  0  0  0  0  0  0  0
   48.7994   34.5262   36.7281 H   0  0  0  0  0  0  0  0  0  0  0  0
   49.5350   35.5939   37.9535 H   0  0  0  0  0  0  0  0  0  0  0  0
   48.4700   32.8326   43.7824 H   0  0  0  0  0  0  0  0  0  0  0  0
   45.2295   32.9731   46.5573 H   0  0  0  0  0  0  0  0  0  0  0  0
   44.0998   34.4978   41.6320 H   0  0  0  0  0  0  0  0  0  0  0  0
   43.8998   36.2332   41.2700 H   0  0  0  0  0  0  0  0  0  0  0  0
  1 12  1  0
  2  1  1  0
  3  2  2  0
  4  3  1  0
  4  9  2  0
  5  4  1  0
  6  5  2  0
  6  7  1  0
  7  8  2  0
  8  9  1  0
  9  1  1  0
 10  5  1  0
 11 16  2  0
 12 11  1  0
 12 13  2  0
 13 14  1  0
 14 15  2  0
 16 15  1  0
 17 18  2  0
 17 11  1  0
 19 17  1  0
  2 20  1  0
  7 21  1  0
 10 22  1  0
 10 23  1  0
 13 24  1  0
 15 25  1  0
 19 26  1  0
 19 27  1  0
M  ISO  4  20  14  21  14  24  14  25  14
M  END
>  <minimizedAffinity>  (1) 
-5.45843315

>  <minimizedRMSD>  (1) 
0.140145913

$$$$
