
     RDKit          3D

 26 28  0  0  0  0  0  0  0  0999 V2000
   47.6160   34.6910   42.1760 N   0  0  0  0  0  0  0  0  0  0  0  0
   48.5810   35.5940   41.9860 C   0  0  0  0  0  0  0  0  0  0  0  0
   48.9110   35.6000   40.6610 N   0  0  0  0  0  0  0  0  0  0  0  0
   48.1530   34.7010   40.0190 C   0  0  0  0  0  0  0  0  0  0  0  0
   48.0490   34.2830   38.7070 C   0  0  0  0  0  0  0  0  0  0  0  0
   47.1580   33.3260   38.3770 N   0  0  0  0  0  0  0  0  0  0  0  0
   46.3480   32.7530   39.2970 C   0  0  0  0  0  0  0  0  0  0  0  0
   46.4660   33.1740   40.5660 N   0  0  0  0  0  0  0  0  0  0  0  0
   47.3250   34.1140   40.9620 C   0  0  0  0  0  0  0  0  0  0  0  0
   48.8710   34.8490   37.6970 N   0  0  0  0  0  0  0  0  0  0  0  0
   45.7030   34.7980   43.8050 C   0  0  0  0  0  0  0  0  0  0  0  0
   46.9130   34.2820   43.3480 C   0  0  0  0  0  0  0  0  0  0  0  0
   47.5080   33.2660   44.1000 C   0  0  0  0  0  0  0  0  0  0  0  0
   46.8820   32.8370   45.2240 N   0  0  0  0  0  0  0  0  0  0  0  0
   45.7130   33.3590   45.6360 C   0  0  0  0  0  0  0  0  0  0  0  0
   45.1360   34.3310   44.9250 N   0  0  0  0  0  0  0  0  0  0  0  0
   45.1430   35.8360   42.9930 C   0  0  0  0  0  0  0  0  0  0  0  0
   45.2420   37.0900   43.2010 O   0  0  0  0  0  0  0  0  0  0  0  0
   44.4110   35.5330   41.8510 O   0  0  0  0  0  0  0  0  0  0  0  0
   49.0333   36.2258   42.7646 H   0  0  0  0  0  0  0  0  0  0  0  0
   45.6231   31.9746   39.0166 H   0  0  0  0  0  0  0  0  0  0  0  0
   48.7835   34.5284   36.7221 H   0  0  0  0  0  0  0  0  0  0  0  0
   49.5548   35.5802   37.9392 H   0  0  0  0  0  0  0  0  0  0  0  0
   48.4649   32.8230   43.7868 H   0  0  0  0  0  0  0  0  0  0  0  0
   45.2346   32.9871   46.5541 H   0  0  0  0  0  0  0  0  0  0  0  0
   44.2689   34.5886   41.5902 H   0  0  0  0  0  0  0  0  0  0  0  0
  1 12  1  0
  2  1  1  0
  3  2  2  0
  4  3  1  0
  4  9  2  0
  5  4  1  0
  6  5  2  0
  6  7  1  0
  7  8  2  0
  8  9  1  0
  9  1  1  0
 10  5  1  0
 11 16  2  0
 12 11  1  0
 12 13  2  0
 13 14  1  0
 14 15  2  0
 16 15  1  0
 17 18  2  0
 17 11  1  0
 19 17  1  0
  2 20  1  0
  7 21  1  0
 10 22  1  0
 10 23  1  0
 13 24  1  0
 15 25  1  0
 19 26  1  0
M  ISO  5  20  14  21  14  24  14  25  14  26   3
M  END
>  <minimizedAffinity>  (1) 
-5.46566391

>  <minimizedRMSD>  (1) 
0.115308844

$$$$
