
     RDKit          3D

 35 39  0  0  0  0  0  0  0  0999 V2000
   45.4540   30.6170   44.2940 C   0  0  0  0  0  0  0  0  0  0  0  0
   46.5190   31.5350   44.4970 C   0  0  0  0  0  0  0  0  0  0  0  0
   47.4490   31.1860   45.4770 C   0  0  0  0  0  0  0  0  0  0  0  0
   47.2970   30.0320   46.1590 N   0  0  0  0  0  0  0  0  0  0  0  0
   46.2700   29.1870   45.9380 C   0  0  0  0  0  0  0  0  0  0  0  0
   45.3490   29.4650   45.0140 N   0  0  0  0  0  0  0  0  0  0  0  0
   46.1760   27.9840   46.7010 N   0  0  0  0  0  0  0  0  0  0  0  0
   47.0620   27.3360   47.4830 C   0  0  0  0  0  0  0  0  0  0  0  0
   46.5070   26.2350   47.9970 N   0  0  0  0  0  0  0  0  0  0  0  0
   45.2400   26.1450   47.5560 C   0  0  0  0  0  0  0  0  0  0  0  0
   44.1910   25.2560   47.7330 C   0  0  0  0  0  0  0  0  0  0  0  0
   42.9930   25.4680   47.1180 N   0  0  0  0  0  0  0  0  0  0  0  0
   42.8290   26.5580   46.3280 C   0  0  0  0  0  0  0  0  0  0  0  0
   43.8350   27.4060   46.1600 N   0  0  0  0  0  0  0  0  0  0  0  0
   45.0330   27.2370   46.7470 C   0  0  0  0  0  0  0  0  0  0  0  0
   46.4540   32.6920   43.6270 C   0  0  0  0  0  0  0  0  0  0  0  0
   47.0660   32.4890   42.4230 N   0  0  0  0  0  0  0  0  0  0  0  0
   47.1110   33.4560   41.4780 C   0  0  0  0  0  0  0  0  0  0  0  0
   46.5490   34.6790   41.6720 N   0  0  0  0  0  0  0  0  0  0  0  0
   45.9350   34.9060   42.8590 C   0  0  0  0  0  0  0  0  0  0  0  0
   45.3190   36.1080   43.1930 C   0  0  0  0  0  0  0  0  0  0  0  0
   44.7010   36.3030   44.4120 C   0  0  0  0  0  0  0  0  0  0  0  0
   44.6840   35.2770   45.3490 C   0  0  0  0  0  0  0  0  0  0  0  0
   45.2860   34.0840   45.0400 C   0  0  0  0  0  0  0  0  0  0  0  0
   45.8850   33.9260   43.8300 C   0  0  0  0  0  0  0  0  0  0  0  0
   44.6920   30.8428   43.5335 H   0  0  0  0  0  0  0  0  0  0  0  0
   48.3009   31.8478   45.6921 H   0  0  0  0  0  0  0  0  0  0  0  0
   48.0942   27.6664   47.6710 H   0  0  0  0  0  0  0  0  0  0  0  0
   44.3264   24.3728   48.3746 H   0  0  0  0  0  0  0  0  0  0  0  0
   41.8656   26.7381   45.8286 H   0  0  0  0  0  0  0  0  0  0  0  0
   47.6173   33.2467   40.5242 H   0  0  0  0  0  0  0  0  0  0  0  0
   45.3246   36.9298   42.4619 H   0  0  0  0  0  0  0  0  0  0  0  0
   44.2237   37.2673   44.6408 H   0  0  0  0  0  0  0  0  0  0  0  0
   44.1950   35.4195   46.3240 H   0  0  0  0  0  0  0  0  0  0  0  0
   45.2841   33.2591   45.7677 H   0  0  0  0  0  0  0  0  0  0  0  0
  1  2  2  0
  1  6  1  0
  2  3  1  0
  3  4  2  0
  5  4  1  0
  5  7  1  0
  6  5  2  0
  7 15  1  0
  7  8  1  0
  8  9  2  0
 10 11  2  0
 10  9  1  0
 12 11  1  0
 13 12  2  0
 14 13  1  0
 14 15  2  0
 15 10  1  0
 16 25  1  0
 16  2  1  0
 17 16  2  0
 18 19  2  0
 18 17  1  0
 19 20  1  0
 20 21  1  0
 20 25  2  0
 21 22  2  0
 22 23  1  0
 24 23  2  0
 25 24  1  0
  1 26  1  0
  3 27  1  0
  8 28  1  0
 11 29  1  0
 13 30  1  0
 18 31  1  0
 21 32  1  0
 22 33  1  0
 23 34  1  0
 24 35  1  0
M  ISO  8  26  14  27  14  28  14  29  14  30  14  31  14  32  14  33  14
M  ISO  2  34  14  35  14
M  END
>  <minimizedAffinity>  (1) 
-5.55014515

>  <minimizedRMSD>  (1) 
2.8905735

$$$$
