
     RDKit          3D

 38 41  0  0  1  0  0  0  0  0999 V2000
   45.6880   34.4160   43.7130 C   0  0  0  0  0  0  0  0  0  0  0  0
   46.9580   34.0510   43.2750 C   0  0  0  0  0  0  0  0  0  0  0  0
   47.6690   33.1360   44.0420 C   0  0  0  0  0  0  0  0  0  0  0  0
   47.0970   32.6460   45.1740 N   0  0  0  0  0  0  0  0  0  0  0  0
   45.8610   33.0230   45.5690 C   0  0  0  0  0  0  0  0  0  0  0  0
   45.1790   33.8980   44.8340 N   0  0  0  0  0  0  0  0  0  0  0  0
   47.6110   34.5300   42.1000 N   0  0  0  0  0  0  0  0  0  0  0  0
   48.4660   35.5440   41.8990 C   0  0  0  0  0  0  0  0  0  0  0  0
   48.7980   35.5810   40.5810 N   0  0  0  0  0  0  0  0  0  0  0  0
   48.1520   34.5900   39.9470 C   0  0  0  0  0  0  0  0  0  0  0  0
   48.1030   34.1510   38.6410 C   0  0  0  0  0  0  0  0  0  0  0  0
   47.3410   33.1000   38.3080 N   0  0  0  0  0  0  0  0  0  0  0  0
   46.6010   32.4390   39.2330 C   0  0  0  0  0  0  0  0  0  0  0  0
   46.6650   32.8830   40.4970 N   0  0  0  0  0  0  0  0  0  0  0  0
   47.4000   33.9200   40.8970 C   0  0  0  0  0  0  0  0  0  0  0  0
   48.8590   34.8040   37.6210 N   0  0  0  0  0  0  0  0  0  0  0  0
   45.0040   35.3660   42.8740 C   0  0  0  0  0  0  0  0  0  0  0  0
   45.0630   36.6330   42.9880 O   0  0  0  0  0  0  0  0  0  0  0  0
   44.1940   34.9250   41.8370 O   0  0  0  0  0  0  0  0  0  0  0  0
   43.2460   35.2980   39.7870 N   0  0  0  0  0  0  0  0  0  0  0  0
   41.8930   35.0460   39.3490 C   0  0  0  0  0  0  0  0  0  0  0  0
   40.9900   35.6810   40.3970 C   0  0  0  0  0  0  0  0  0  0  0  0
   41.8000   35.3440   41.6540 C   0  0  0  0  0  0  0  0  0  0  0  0
   43.1820   35.6250   41.1990 C   0  0  1  0  0  0  0  0  0  0  0  0
   48.6762   32.8140   43.7389 H   0  0  0  0  0  0  0  0  0  0  0  0
   45.4226   32.6104   46.4896 H   0  0  0  0  0  0  0  0  0  0  0  0
   48.8372   36.2320   42.6728 H   0  0  0  0  0  0  0  0  0  0  0  0
   45.9758   31.5766   38.9584 H   0  0  0  0  0  0  0  0  0  0  0  0
   48.8130   34.4654   36.6493 H   0  0  0  0  0  0  0  0  0  0  0  0
   49.4504   35.6137   37.8568 H   0  0  0  0  0  0  0  0  0  0  0  0
   43.6474   36.0863   39.2594 H   0  0  0  0  0  0  0  0  0  0  0  0
   41.7179   35.5045   38.3646 H   0  0  0  0  0  0  0  0  0  0  0  0
   41.6961   33.9687   39.2456 H   0  0  0  0  0  0  0  0  0  0  0  0
   40.8895   36.7666   40.2507 H   0  0  0  0  0  0  0  0  0  0  0  0
   39.9484   35.3273   40.3985 H   0  0  0  0  0  0  0  0  0  0  0  0
   41.5165   35.9881   42.4994 H   0  0  0  0  0  0  0  0  0  0  0  0
   41.6491   34.3189   42.0233 H   0  0  0  0  0  0  0  0  0  0  0  0
   43.3642   36.6836   41.4359 H   0  0  0  0  0  0  0  0  0  0  0  0
  1  6  2  0
  2  1  1  0
  2  3  2  0
  3  4  1  0
  4  5  2  0
  6  5  1  0
  7  2  1  0
  8  7  1  0
  9  8  2  0
 10  9  1  0
 10 15  2  0
 11 10  1  0
 12 11  2  0
 12 13  1  0
 13 14  2  0
 14 15  1  0
 15  7  1  0
 16 11  1  0
 17 18  2  0
 17  1  1  0
 19 17  1  0
 20 24  1  0
 21 20  1  0
 21 22  1  0
 22 23  1  0
 24 23  1  0
 24 19  1  0
  3 25  1  0
  5 26  1  0
  8 27  1  0
 13 28  1  0
 16 29  1  0
 16 30  1  0
 20 31  1  0
 21 32  1  0
 21 33  1  0
 22 34  1  0
 22 35  1  0
 23 36  1  0
 23 37  1  0
 24 38  1  6
M  ISO  8  25  14  26  14  27  14  28  14  31   5  32  13  33  13  34  13
M  ISO  4  35  13  36  13  37  13  38  13
M  END
>  <minimizedAffinity>  (1) 
-6.25868893

>  <minimizedRMSD>  (1) 
0.788438618

$$$$
