
     RDKit          3D

 25 27  0  0  0  0  0  0  0  0999 V2000
   46.7880   32.8440   44.9710 C   0  0  0  0  0  0  0  0  0  0  0  0
   47.7040   32.1580   44.2170 N   0  0  0  0  0  0  0  0  0  0  0  0
   47.9940   32.5220   42.9460 C   0  0  0  0  0  0  0  0  0  0  0  0
   47.4000   33.5770   42.3520 N   0  0  0  0  0  0  0  0  0  0  0  0
   46.4880   34.2790   43.0670 C   0  0  0  0  0  0  0  0  0  0  0  0
   45.7980   35.3860   42.5800 C   0  0  0  0  0  0  0  0  0  0  0  0
   44.8770   36.0720   43.3420 C   0  0  0  0  0  0  0  0  0  0  0  0
   44.6110   35.6630   44.6420 C   0  0  0  0  0  0  0  0  0  0  0  0
   45.2760   34.5730   45.1500 C   0  0  0  0  0  0  0  0  0  0  0  0
   46.1880   33.9160   44.3590 C   0  0  0  0  0  0  0  0  0  0  0  0
   45.7850   31.1610   46.3410 C   0  0  0  0  0  0  0  0  0  0  0  0
   46.6230   32.3000   46.2990 C   0  0  0  0  0  0  0  0  0  0  0  0
   47.1560   32.7100   47.5200 C   0  0  0  0  0  0  0  0  0  0  0  0
   46.8480   32.0100   48.6480 N   0  0  0  0  0  0  0  0  0  0  0  0
   46.0510   30.9400   48.6350 C   0  0  0  0  0  0  0  0  0  0  0  0
   45.4990   30.4860   47.4870 N   0  0  0  0  0  0  0  0  0  0  0  0
   45.9010   30.4130   49.9160 O   0  0  0  0  0  0  0  0  0  0  0  0
   48.7365   31.9398   42.3806 H   0  0  0  0  0  0  0  0  0  0  0  0
   45.9947   35.7246   41.5520 H   0  0  0  0  0  0  0  0  0  0  0  0
   44.3531   36.9427   42.9207 H   0  0  0  0  0  0  0  0  0  0  0  0
   43.8774   36.2045   45.2573 H   0  0  0  0  0  0  0  0  0  0  0  0
   45.0808   34.2305   46.1770 H   0  0  0  0  0  0  0  0  0  0  0  0
   45.3424   30.8032   45.3997 H   0  0  0  0  0  0  0  0  0  0  0  0
   47.8170   33.5877   47.5724 H   0  0  0  0  0  0  0  0  0  0  0  0
   45.3345   29.6138   50.0593 H   0  0  0  0  0  0  0  0  0  0  0  0
  1 12  1  0
  2  1  2  0
  3  2  1  0
  4  3  2  0
  4  5  1  0
  5 10  2  0
  6  5  1  0
  6  7  2  0
  7  8  1  0
  8  9  2  0
 10  1  1  0
 10  9  1  0
 11 16  2  0
 12 11  1  0
 12 13  2  0
 13 14  1  0
 15 14  2  0
 15 17  1  0
 16 15  1  0
  3 18  1  0
  6 19  1  0
  7 20  1  0
  8 21  1  0
  9 22  1  0
 11 23  1  0
 13 24  1  0
 17 25  1  0
M  ISO  8  18  14  19  14  20  14  21  14  22  14  23  14  24  14  25   3
M  END
>  <minimizedAffinity>  (1) 
-5.36746502

>  <minimizedRMSD>  (1) 
0.275163233

$$$$
