
     RDKit          3D

 32 34  0  0  0  0  0  0  0  0999 V2000
   47.5970   34.7130   42.1180 N   0  0  0  0  0  0  0  0  0  0  0  0
   48.5240   35.6390   41.9190 C   0  0  0  0  0  0  0  0  0  0  0  0
   48.8690   35.6230   40.6020 N   0  0  0  0  0  0  0  0  0  0  0  0
   48.1580   34.6850   39.9800 C   0  0  0  0  0  0  0  0  0  0  0  0
   48.0810   34.2250   38.6770 C   0  0  0  0  0  0  0  0  0  0  0  0
   47.2370   33.2360   38.3590 N   0  0  0  0  0  0  0  0  0  0  0  0
   46.4310   32.6470   39.2790 C   0  0  0  0  0  0  0  0  0  0  0  0
   46.5240   33.1130   40.5370 N   0  0  0  0  0  0  0  0  0  0  0  0
   47.3400   34.0910   40.9240 C   0  0  0  0  0  0  0  0  0  0  0  0
   48.8970   34.7940   37.6560 N   0  0  0  0  0  0  0  0  0  0  0  0
   45.7010   34.8570   43.7790 C   0  0  0  0  0  0  0  0  0  0  0  0
   46.8900   34.3050   43.3000 C   0  0  0  0  0  0  0  0  0  0  0  0
   47.4690   33.2510   44.0180 C   0  0  0  0  0  0  0  0  0  0  0  0
   46.8420   32.8240   45.1470 N   0  0  0  0  0  0  0  0  0  0  0  0
   45.6950   33.3750   45.5860 C   0  0  0  0  0  0  0  0  0  0  0  0
   45.1460   34.3770   44.9000 N   0  0  0  0  0  0  0  0  0  0  0  0
   45.1690   35.9250   42.9950 C   0  0  0  0  0  0  0  0  0  0  0  0
   45.2780   37.1670   43.2700 O   0  0  0  0  0  0  0  0  0  0  0  0
   44.4710   35.6650   41.8320 O   0  0  0  0  0  0  0  0  0  0  0  0
   43.1570   35.1780   41.7830 C   0  0  0  0  0  0  0  0  0  0  0  0
   42.6070   35.1100   40.3790 C   0  0  0  0  0  0  0  0  0  0  0  0
   48.9430   36.3063   42.6865 H   0  0  0  0  0  0  0  0  0  0  0  0
   45.7404   31.8340   39.0104 H   0  0  0  0  0  0  0  0  0  0  0  0
   48.8315   34.4439   36.6895 H   0  0  0  0  0  0  0  0  0  0  0  0
   49.5521   35.5552   37.8847 H   0  0  0  0  0  0  0  0  0  0  0  0
   48.4042   32.7819   43.6785 H   0  0  0  0  0  0  0  0  0  0  0  0
   45.2152   33.0016   46.5027 H   0  0  0  0  0  0  0  0  0  0  0  0
   43.1413   34.1666   42.2153 H   0  0  0  0  0  0  0  0  0  0  0  0
   42.5251   35.8764   42.3513 H   0  0  0  0  0  0  0  0  0  0  0  0
   41.5160   34.9751   40.4187 H   0  0  0  0  0  0  0  0  0  0  0  0
   42.8419   36.0440   39.8476 H   0  0  0  0  0  0  0  0  0  0  0  0
   43.0623   34.2613   39.8476 H   0  0  0  0  0  0  0  0  0  0  0  0
  1 12  1  0
  2  1  1  0
  3  2  2  0
  4  3  1  0
  4  9  2  0
  5  4  1  0
  6  5  2  0
  6  7  1  0
  7  8  2  0
  8  9  1  0
  9  1  1  0
 10  5  1  0
 11 16  2  0
 12 11  1  0
 12 13  2  0
 13 14  1  0
 14 15  2  0
 16 15  1  0
 17 18  2  0
 17 11  1  0
 19 17  1  0
 20 19  1  0
 21 20  1  0
  2 22  1  0
  7 23  1  0
 10 24  1  0
 10 25  1  0
 13 26  1  0
 15 27  1  0
 20 28  1  0
 20 29  1  0
 21 30  1  0
 21 31  1  0
 21 32  1  0
M  ISO  8  22  14  23  14  26  14  27  14  28   8  29   8  30   8  31   8
M  ISO  1  32   8
M  END
>  <minimizedAffinity>  (1) 
-5.54061651

>  <minimizedRMSD>  (1) 
0.724719942

$$$$
