
     RDKit          3D

 30 32  0  0  0  0  0  0  0  0999 V2000
   45.4290   33.9420   42.5690 C   0  0  0  0  0  0  0  0  0  0  0  0
   45.0660   33.1790   43.6390 N   0  0  0  0  0  0  0  0  0  0  0  0
   45.9730   32.6850   44.5090 C   0  0  0  0  0  0  0  0  0  0  0  0
   47.3060   32.9240   44.3610 N   0  0  0  0  0  0  0  0  0  0  0  0
   47.7010   33.6790   43.3060 C   0  0  0  0  0  0  0  0  0  0  0  0
   49.0190   34.0000   43.0350 C   0  0  0  0  0  0  0  0  0  0  0  0
   49.3850   34.7710   41.9520 C   0  0  0  0  0  0  0  0  0  0  0  0
   48.4100   35.2550   41.0890 C   0  0  0  0  0  0  0  0  0  0  0  0
   47.0920   34.9530   41.3310 C   0  0  0  0  0  0  0  0  0  0  0  0
   46.7730   34.1870   42.4130 C   0  0  0  0  0  0  0  0  0  0  0  0
   43.9790   33.4540   40.7220 C   0  0  0  0  0  0  0  0  0  0  0  0
   44.3020   34.3690   41.7650 C   0  0  0  0  0  0  0  0  0  0  0  0
   43.5010   35.4970   41.8490 C   0  0  0  0  0  0  0  0  0  0  0  0
   42.4850   35.6630   40.9600 N   0  0  0  0  0  0  0  0  0  0  0  0
   42.2140   34.7830   39.9960 C   0  0  0  0  0  0  0  0  0  0  0  0
   42.9470   33.6770   39.8610 N   0  0  0  0  0  0  0  0  0  0  0  0
   41.0920   35.0130   39.0530 C   0  0  0  0  0  0  0  0  0  0  0  0
   41.4750   35.8930   37.9020 C   0  0  0  0  0  0  0  0  0  0  0  0
   45.6274   32.0754   45.3569 H   0  0  0  0  0  0  0  0  0  0  0  0
   49.8043   33.6263   43.7085 H   0  0  0  0  0  0  0  0  0  0  0  0
   50.4453   35.0020   41.7720 H   0  0  0  0  0  0  0  0  0  0  0  0
   48.6899   35.8724   40.2227 H   0  0  0  0  0  0  0  0  0  0  0  0
   46.3035   35.3246   40.6601 H   0  0  0  0  0  0  0  0  0  0  0  0
   44.5808   32.5402   40.6084 H   0  0  0  0  0  0  0  0  0  0  0  0
   43.6854   36.2515   42.6279 H   0  0  0  0  0  0  0  0  0  0  0  0
   40.7596   34.0417   38.6580 H   0  0  0  0  0  0  0  0  0  0  0  0
   40.2905   35.5222   39.6082 H   0  0  0  0  0  0  0  0  0  0  0  0
   41.8866   36.8387   38.2846 H   0  0  0  0  0  0  0  0  0  0  0  0
   42.2333   35.3847   37.2883 H   0  0  0  0  0  0  0  0  0  0  0  0
   40.5862   36.1016   37.2883 H   0  0  0  0  0  0  0  0  0  0  0  0
  1  2  2  0
  2  3  1  0
  4  3  2  0
  5  4  1  0
  6  5  2  0
  7  6  1  0
  8  9  1  0
  8  7  2  0
  9 10  2  0
 10  1  1  0
 10  5  1  0
 11 12  2  0
 12 13  1  0
 12  1  1  0
 14 13  2  0
 15 14  1  0
 16 15  2  0
 16 11  1  0
 17 15  1  0
 18 17  1  0
  3 19  1  0
  6 20  1  0
  7 21  1  0
  8 22  1  0
  9 23  1  0
 11 24  1  0
 13 25  1  0
 17 26  1  0
 17 27  1  0
 18 28  1  0
 18 29  1  0
 18 30  1  0
M  ISO  8  19  14  20  14  21  14  22  14  23  14  24  14  25  14  26   8
M  ISO  4  27   8  28   8  29   8  30   8
M  END
>  <minimizedAffinity>  (1) 
-5.24447632

>  <minimizedRMSD>  (1) 
7.16172886

$$$$
