
     RDKit          3D

 37 40  0  0  0  0  0  0  0  0999 V2000
   45.8090   34.7000   43.8350 C   0  0  0  0  0  0  0  0  0  0  0  0
   46.9760   34.2120   43.3120 C   0  0  0  0  0  0  0  0  0  0  0  0
   47.5590   33.1540   44.0120 C   0  0  0  0  0  0  0  0  0  0  0  0
   46.9570   32.6780   45.1410 N   0  0  0  0  0  0  0  0  0  0  0  0
   45.8040   33.2130   45.5950 C   0  0  0  0  0  0  0  0  0  0  0  0
   45.2360   34.2310   44.9280 N   0  0  0  0  0  0  0  0  0  0  0  0
   47.6310   34.6410   42.1320 N   0  0  0  0  0  0  0  0  0  0  0  0
   48.5030   35.6210   41.9260 C   0  0  0  0  0  0  0  0  0  0  0  0
   48.8370   35.6310   40.5990 N   0  0  0  0  0  0  0  0  0  0  0  0
   48.1630   34.6390   39.9630 C   0  0  0  0  0  0  0  0  0  0  0  0
   48.1030   34.1910   38.6690 C   0  0  0  0  0  0  0  0  0  0  0  0
   47.3070   33.1500   38.3600 N   0  0  0  0  0  0  0  0  0  0  0  0
   46.5490   32.5210   39.2980 C   0  0  0  0  0  0  0  0  0  0  0  0
   46.6220   32.9770   40.5640 N   0  0  0  0  0  0  0  0  0  0  0  0
   47.3920   34.0040   40.9380 C   0  0  0  0  0  0  0  0  0  0  0  0
   48.8590   34.8210   37.6600 N   0  0  0  0  0  0  0  0  0  0  0  0
   45.1820   35.7180   43.0590 C   0  0  0  0  0  0  0  0  0  0  0  0
   45.2550   36.9500   43.1520 O   0  0  0  0  0  0  0  0  0  0  0  0
   44.3320   35.4310   42.0050 O   0  0  0  0  0  0  0  0  0  0  0  0
   43.6100   34.3130   41.7760 C   0  0  0  0  0  0  0  0  0  0  0  0
   42.4220   34.9490   40.9820 C   0  0  0  0  0  0  0  0  0  0  0  0
   41.3170   35.5780   41.5170 C   0  0  0  0  0  0  0  0  0  0  0  0
   40.3840   36.0710   40.6370 C   0  0  0  0  0  0  0  0  0  0  0  0
   40.4930   35.9720   39.3050 N   0  0  0  0  0  0  0  0  0  0  0  0
   41.5720   35.3580   38.8010 C   0  0  0  0  0  0  0  0  0  0  0  0
   42.5030   34.8660   39.6350 N   0  0  0  0  0  0  0  0  0  0  0  0
   48.4985   32.7063   43.6557 H   0  0  0  0  0  0  0  0  0  0  0  0
   45.3320   32.8174   46.5064 H   0  0  0  0  0  0  0  0  0  0  0  0
   48.8911   36.3083   42.6922 H   0  0  0  0  0  0  0  0  0  0  0  0
   45.9011   31.6724   39.0333 H   0  0  0  0  0  0  0  0  0  0  0  0
   48.8091   34.4791   36.6897 H   0  0  0  0  0  0  0  0  0  0  0  0
   49.4614   35.6233   37.8929 H   0  0  0  0  0  0  0  0  0  0  0  0
   44.1647   33.5800   41.1718 H   0  0  0  0  0  0  0  0  0  0  0  0
   43.3281   33.7396   42.6714 H   0  0  0  0  0  0  0  0  0  0  0  0
   41.1880   35.6808   42.6046 H   0  0  0  0  0  0  0  0  0  0  0  0
   39.4976   36.5754   41.0491 H   0  0  0  0  0  0  0  0  0  0  0  0
   41.6945   35.2576   37.7125 H   0  0  0  0  0  0  0  0  0  0  0  0
  1  6  2  0
  2  1  1  0
  2  3  2  0
  3  4  1  0
  4  5  2  0
  6  5  1  0
  7  2  1  0
  8  7  1  0
  9  8  2  0
 10  9  1  0
 10 15  2  0
 11 10  1  0
 12 11  2  0
 12 13  1  0
 13 14  2  0
 14 15  1  0
 15  7  1  0
 16 11  1  0
 17 18  2  0
 17  1  1  0
 19 17  1  0
 20 19  1  0
 21 22  2  0
 21 20  1  0
 23 22  1  0
 24 23  2  0
 25 24  1  0
 25 26  2  0
 26 21  1  0
  3 27  1  0
  5 28  1  0
  8 29  1  0
 13 30  1  0
 16 31  1  0
 16 32  1  0
 20 33  1  0
 20 34  1  0
 22 35  1  0
 23 36  1  0
 25 37  1  0
M  ISO  8  27  14  28  14  29  14  30  14  33   8  34   8  35  14  36  14
M  ISO  1  37  14
M  END
>  <minimizedAffinity>  (1) 
-6.5155654

>  <minimizedRMSD>  (1) 
1.00522017

$$$$
