
     RDKit          3D

 42 45  0  0  0  0  0  0  0  0999 V2000
   45.8700   34.3350   43.7420 C   0  0  0  0  0  0  0  0  0  0  0  0
   47.0770   33.9790   43.2190 C   0  0  0  0  0  0  0  0  0  0  0  0
   47.7600   32.9760   43.9160 C   0  0  0  0  0  0  0  0  0  0  0  0
   47.2000   32.4340   45.0350 N   0  0  0  0  0  0  0  0  0  0  0  0
   45.9930   32.8470   45.4860 C   0  0  0  0  0  0  0  0  0  0  0  0
   45.3260   33.8120   44.8260 N   0  0  0  0  0  0  0  0  0  0  0  0
   47.6890   34.4810   42.0440 N   0  0  0  0  0  0  0  0  0  0  0  0
   48.4060   35.5750   41.8310 C   0  0  0  0  0  0  0  0  0  0  0  0
   48.7680   35.6020   40.5090 N   0  0  0  0  0  0  0  0  0  0  0  0
   48.2690   34.5070   39.8860 C   0  0  0  0  0  0  0  0  0  0  0  0
   48.3180   34.0280   38.6120 C   0  0  0  0  0  0  0  0  0  0  0  0
   47.6990   32.8630   38.3100 N   0  0  0  0  0  0  0  0  0  0  0  0
   47.0280   32.1560   39.2460 C   0  0  0  0  0  0  0  0  0  0  0  0
   46.9890   32.6470   40.4990 N   0  0  0  0  0  0  0  0  0  0  0  0
   47.5780   33.7860   40.8590 C   0  0  0  0  0  0  0  0  0  0  0  0
   49.0100   34.7330   37.5910 N   0  0  0  0  0  0  0  0  0  0  0  0
   45.1460   35.2840   42.9610 C   0  0  0  0  0  0  0  0  0  0  0  0
   45.1090   36.5360   43.0510 O   0  0  0  0  0  0  0  0  0  0  0  0
   44.3110   34.9520   41.9170 O   0  0  0  0  0  0  0  0  0  0  0  0
   43.9410   33.7170   41.4980 C   0  0  0  0  0  0  0  0  0  0  0  0
   43.0720   34.1670   40.3360 N   0  0  0  0  0  0  0  0  0  0  0  0
   42.0390   34.9570   40.7150 C   0  0  0  0  0  0  0  0  0  0  0  0
   41.0850   35.5680   39.8930 C   0  0  0  0  0  0  0  0  0  0  0  0
   39.9950   36.4150   40.4320 C   0  0  0  0  0  0  0  0  0  0  0  0
   41.2610   35.3060   38.5530 C   0  0  0  0  0  0  0  0  0  0  0  0
   40.4660   35.8010   37.7150 O   0  0  0  0  0  0  0  0  0  0  0  0
   42.2850   34.5240   38.1820 N   0  0  0  0  0  0  0  0  0  0  0  0
   43.1500   33.9790   39.0320 C   0  0  0  0  0  0  0  0  0  0  0  0
   44.0870   33.2570   38.6750 O   0  0  0  0  0  0  0  0  0  0  0  0
   48.7419   32.6272   43.5636 H   0  0  0  0  0  0  0  0  0  0  0  0
   45.5580   32.3953   46.3897 H   0  0  0  0  0  0  0  0  0  0  0  0
   48.6661   36.3318   42.5857 H   0  0  0  0  0  0  0  0  0  0  0  0
   46.5293   31.2090   38.9921 H   0  0  0  0  0  0  0  0  0  0  0  0
   49.0371   34.3564   36.6327 H   0  0  0  0  0  0  0  0  0  0  0  0
   49.4846   35.6207   37.8091 H   0  0  0  0  0  0  0  0  0  0  0  0
   44.7979   33.1093   41.1718 H   0  0  0  0  0  0  0  0  0  0  0  0
   43.4641   33.0663   42.2457 H   0  0  0  0  0  0  0  0  0  0  0  0
   41.9381   35.1397   41.7950 H   0  0  0  0  0  0  0  0  0  0  0  0
   40.0232   36.3931   41.5314 H   0  0  0  0  0  0  0  0  0  0  0  0
   40.1275   37.4495   40.0823 H   0  0  0  0  0  0  0  0  0  0  0  0
   39.0253   36.0311   40.0823 H   0  0  0  0  0  0  0  0  0  0  0  0
   42.4091   34.3339   37.1773 H   0  0  0  0  0  0  0  0  0  0  0  0
  1  6  2  0
  2  1  1  0
  2  3  2  0
  3  4  1  0
  4  5  2  0
  6  5  1  0
  7  2  1  0
  8  7  1  0
  9  8  2  0
 10  9  1  0
 10 15  2  0
 11 10  1  0
 12 11  2  0
 12 13  1  0
 13 14  2  0
 14 15  1  0
 15  7  1  0
 16 11  1  0
 17 18  2  0
 17  1  1  0
 19 17  1  0
 20 19  1  0
 21 22  1  0
 21 20  1  0
 23 24  1  0
 23 22  2  0
 25 23  1  0
 26 25  2  0
 27 25  1  0
 27 28  1  0
 28 21  1  0
 29 28  2  0
  3 30  1  0
  5 31  1  0
  8 32  1  0
 13 33  1  0
 16 34  1  0
 16 35  1  0
 20 36  1  0
 20 37  1  0
 22 38  1  0
 24 39  1  0
 24 40  1  0
 24 41  1  0
 27 42  1  0
M  ISO  8  30  14  31  14  32  14  33  14  36   8  37   8  38  14  39   8
M  ISO  3  40   8  41   8  42   9
M  END
>  <minimizedAffinity>  (1) 
-6.6625123

>  <minimizedRMSD>  (1) 
0.944691241

$$$$
