
     RDKit          3D

 30 32  0  0  0  0  0  0  0  0999 V2000
   45.7920   34.8010   43.8290 C   0  0  0  0  0  0  0  0  0  0  0  0
   46.9430   34.2730   43.3080 C   0  0  0  0  0  0  0  0  0  0  0  0
   47.4840   33.1920   44.0080 C   0  0  0  0  0  0  0  0  0  0  0  0
   46.8580   32.7390   45.1310 N   0  0  0  0  0  0  0  0  0  0  0  0
   45.7320   33.3090   45.5790 C   0  0  0  0  0  0  0  0  0  0  0  0
   45.1960   34.3480   44.9220 N   0  0  0  0  0  0  0  0  0  0  0  0
   47.6180   34.6840   42.1310 N   0  0  0  0  0  0  0  0  0  0  0  0
   48.5270   35.6290   41.9260 C   0  0  0  0  0  0  0  0  0  0  0  0
   48.8570   35.6170   40.5920 N   0  0  0  0  0  0  0  0  0  0  0  0
   48.1510   34.6600   39.9660 C   0  0  0  0  0  0  0  0  0  0  0  0
   48.0770   34.2130   38.6750 C   0  0  0  0  0  0  0  0  0  0  0  0
   47.2420   33.2030   38.3590 N   0  0  0  0  0  0  0  0  0  0  0  0
   46.4610   32.6060   39.2950 C   0  0  0  0  0  0  0  0  0  0  0  0
   46.5460   33.0580   40.5590 N   0  0  0  0  0  0  0  0  0  0  0  0
   47.3610   34.0610   40.9330 C   0  0  0  0  0  0  0  0  0  0  0  0
   48.8800   34.8020   37.6530 N   0  0  0  0  0  0  0  0  0  0  0  0
   45.2060   35.8460   43.0530 C   0  0  0  0  0  0  0  0  0  0  0  0
   45.2480   37.0720   43.1980 O   0  0  0  0  0  0  0  0  0  0  0  0
   44.4420   35.5920   41.9340 O   0  0  0  0  0  0  0  0  0  0  0  0
   43.4230   34.7220   41.7630 C   0  0  0  0  0  0  0  0  0  0  0  0
   41.7450   35.2530   41.4080 S   0  0  0  0  0  0  0  0  0  0  0  0
   48.4079   32.7101   43.6558 H   0  0  0  0  0  0  0  0  0  0  0  0
   45.2458   32.9242   46.4876 H   0  0  0  0  0  0  0  0  0  0  0  0
   48.9430   36.3030   42.6893 H   0  0  0  0  0  0  0  0  0  0  0  0
   45.7827   31.7818   39.0293 H   0  0  0  0  0  0  0  0  0  0  0  0
   48.8157   34.4571   36.6846 H   0  0  0  0  0  0  0  0  0  0  0  0
   49.5239   35.5721   37.8837 H   0  0  0  0  0  0  0  0  0  0  0  0
   43.7180   34.0671   40.9299 H   0  0  0  0  0  0  0  0  0  0  0  0
   43.3156   34.3017   42.7739 H   0  0  0  0  0  0  0  0  0  0  0  0
   41.0747   35.4651   42.5839 H   0  0  0  0  0  0  0  0  0  0  0  0
  1  6  2  0
  2  1  1  0
  2  3  2  0
  3  4  1  0
  4  5  2  0
  6  5  1  0
  7  2  1  0
  8  7  1  0
  9  8  2  0
 10  9  1  0
 10 15  2  0
 11 10  1  0
 12 11  2  0
 12 13  1  0
 13 14  2  0
 14 15  1  0
 15  7  1  0
 16 11  1  0
 17 18  2  0
 17  1  1  0
 19 17  1  0
 20 19  1  0
 21 20  1  0
  3 22  1  0
  5 23  1  0
  8 24  1  0
 13 25  1  0
 16 26  1  0
 16 27  1  0
 20 28  1  0
 20 29  1  0
 21 30  1  0
M  ISO  7  22  14  23  14  24  14  25  14  28   8  29   8  30  11
M  END
>  <minimizedAffinity>  (1) 
-5.49095583

>  <minimizedRMSD>  (1) 
0.328953177

$$$$
