
     RDKit          3D

 32 33  0  0  1  0  0  0  0  0999 V2000
   44.4430   34.9640   42.3820 C   0  0  1  0  0  0  0  0  0  0  0  0
   45.8200   34.8150   41.8360 C   0  0  0  0  0  0  0  0  0  0  0  0
   45.9280   34.1080   40.6240 C   0  0  0  0  0  0  0  0  0  0  0  0
   47.1830   33.9280   40.0410 C   0  0  0  0  0  0  0  0  0  0  0  0
   48.2590   34.4740   40.7160 N   0  0  0  0  0  0  0  0  0  0  0  0
   48.1150   35.1480   41.8790 C   0  0  0  0  0  0  0  0  0  0  0  0
   46.9110   35.3120   42.4250 N   0  0  0  0  0  0  0  0  0  0  0  0
   44.4370   35.6480   43.7320 C   0  0  0  0  0  0  0  0  0  0  0  0
   43.5340   35.6890   41.4160 C   0  0  0  0  0  0  0  0  0  0  0  0
   42.3360   34.9030   41.0300 C   0  0  0  0  0  0  0  0  0  0  0  0
   41.0600   35.2800   41.7040 C   0  0  0  0  0  0  0  0  0  0  0  0
   40.4450   36.2680   40.7230 C   0  0  0  0  0  0  0  0  0  0  0  0
   40.6930   35.6190   39.3990 C   0  0  0  0  0  0  0  0  0  0  0  0
   42.1230   35.1210   39.5330 C   0  0  0  0  0  0  0  0  0  0  0  0
   44.0515   33.9455   42.5213 H   0  0  0  0  0  0  0  0  0  0  0  0
   45.0289   33.6999   40.1393 H   0  0  0  0  0  0  0  0  0  0  0  0
   47.3094   33.3810   39.0951 H   0  0  0  0  0  0  0  0  0  0  0  0
   49.0011   35.5653   42.3796 H   0  0  0  0  0  0  0  0  0  0  0  0
   44.4437   34.8886   44.5278 H   0  0  0  0  0  0  0  0  0  0  0  0
   45.3296   36.2841   43.8247 H   0  0  0  0  0  0  0  0  0  0  0  0
   43.5334   36.2684   43.8247 H   0  0  0  0  0  0  0  0  0  0  0  0
   43.1997   36.6249   41.8876 H   0  0  0  0  0  0  0  0  0  0  0  0
   44.1133   35.8691   40.4984 H   0  0  0  0  0  0  0  0  0  0  0  0
   42.5463   33.8659   41.3303 H   0  0  0  0  0  0  0  0  0  0  0  0
   40.4107   34.4031   41.8438 H   0  0  0  0  0  0  0  0  0  0  0  0
   41.2043   35.6967   42.7117 H   0  0  0  0  0  0  0  0  0  0  0  0
   39.3677   36.3914   40.9081 H   0  0  0  0  0  0  0  0  0  0  0  0
   40.8714   37.2792   40.7988 H   0  0  0  0  0  0  0  0  0  0  0  0
   40.6013   36.3453   38.5780 H   0  0  0  0  0  0  0  0  0  0  0  0
   39.9735   34.8212   39.1626 H   0  0  0  0  0  0  0  0  0  0  0  0
   42.2553   34.1772   38.9836 H   0  0  0  0  0  0  0  0  0  0  0  0
   42.8469   35.8365   39.1159 H   0  0  0  0  0  0  0  0  0  0  0  0
  1  8  1  0
  2  1  1  0
  2  7  1  0
  3  2  2  0
  4  3  1  0
  4  5  2  0
  5  6  1  0
  6  7  2  0
  9  1  1  0
 10  9  1  0
 10 11  1  0
 12 11  1  0
 13 14  1  0
 13 12  1  0
 14 10  1  0
  1 15  1  1
  3 16  1  0
  4 17  1  0
  6 18  1  0
  8 19  1  0
  8 20  1  0
  8 21  1  0
  9 22  1  0
  9 23  1  0
 10 24  1  0
 11 25  1  0
 11 26  1  0
 12 27  1  0
 12 28  1  0
 13 29  1  0
 13 30  1  0
 14 31  1  0
 14 32  1  0
M  ISO  8  15   8  16  14  17  14  18  14  19   8  20   8  21   8  22   8
M  ISO  8  23   8  24  13  25  13  26  13  27  13  28  13  29  13  30  13
M  ISO  2  31  13  32  13
M  END
>  <minimizedAffinity>  (1) 
-4.65498781

>  <minimizedRMSD>  (1) 
3.9111135

$$$$
