
     RDKit          3D

 36 39  0  0  0  0  0  0  0  0999 V2000
   45.8000   34.7630   43.8270 C   0  0  0  0  0  0  0  0  0  0  0  0
   46.9580   34.2510   43.3070 C   0  0  0  0  0  0  0  0  0  0  0  0
   47.5110   33.1760   44.0130 C   0  0  0  0  0  0  0  0  0  0  0  0
   46.8910   32.7150   45.1350 N   0  0  0  0  0  0  0  0  0  0  0  0
   45.7530   33.2730   45.5790 C   0  0  0  0  0  0  0  0  0  0  0  0
   45.2090   34.3050   44.9160 N   0  0  0  0  0  0  0  0  0  0  0  0
   47.6290   34.6640   42.1300 N   0  0  0  0  0  0  0  0  0  0  0  0
   48.5240   35.6200   41.9230 C   0  0  0  0  0  0  0  0  0  0  0  0
   48.8600   35.6200   40.5970 N   0  0  0  0  0  0  0  0  0  0  0  0
   48.1610   34.6470   39.9590 C   0  0  0  0  0  0  0  0  0  0  0  0
   48.0910   34.1980   38.6640 C   0  0  0  0  0  0  0  0  0  0  0  0
   47.2720   33.1800   38.3550 N   0  0  0  0  0  0  0  0  0  0  0  0
   46.4930   32.5680   39.2970 C   0  0  0  0  0  0  0  0  0  0  0  0
   46.5740   33.0210   40.5600 N   0  0  0  0  0  0  0  0  0  0  0  0
   47.3730   34.0330   40.9320 C   0  0  0  0  0  0  0  0  0  0  0  0
   48.8560   34.8130   37.6560 N   0  0  0  0  0  0  0  0  0  0  0  0
   45.2030   35.7990   43.0480 C   0  0  0  0  0  0  0  0  0  0  0  0
   45.2340   37.0260   43.1970 O   0  0  0  0  0  0  0  0  0  0  0  0
   44.4450   35.5360   41.9240 O   0  0  0  0  0  0  0  0  0  0  0  0
   43.4640   34.6230   41.7550 C   0  0  0  0  0  0  0  0  0  0  0  0
   42.3180   35.5570   41.2170 C   0  0  0  0  0  0  0  0  0  0  0  0
   41.5120   35.0270   40.0880 C   0  0  0  0  0  0  0  0  0  0  0  0
   40.9390   35.1980   41.5230 C   0  0  0  0  0  0  0  0  0  0  0  0
   48.4419   32.7057   43.6633 H   0  0  0  0  0  0  0  0  0  0  0  0
   45.2670   32.8841   46.4859 H   0  0  0  0  0  0  0  0  0  0  0  0
   48.9282   36.2987   42.6885 H   0  0  0  0  0  0  0  0  0  0  0  0
   45.8247   31.7357   39.0313 H   0  0  0  0  0  0  0  0  0  0  0  0
   48.7993   34.4716   36.6859 H   0  0  0  0  0  0  0  0  0  0  0  0
   49.4727   35.6046   37.8882 H   0  0  0  0  0  0  0  0  0  0  0  0
   43.7435   33.8537   41.0201 H   0  0  0  0  0  0  0  0  0  0  0  0
   43.2080   34.0435   42.6543 H   0  0  0  0  0  0  0  0  0  0  0  0
   42.9017   36.4756   41.3769 H   0  0  0  0  0  0  0  0  0  0  0  0
   41.1865   35.6924   39.2748 H   0  0  0  0  0  0  0  0  0  0  0  0
   41.6054   34.2045   39.3636 H   0  0  0  0  0  0  0  0  0  0  0  0
   40.7219   34.3140   42.1406 H   0  0  0  0  0  0  0  0  0  0  0  0
   40.0743   35.7144   41.9653 H   0  0  0  0  0  0  0  0  0  0  0  0
  1  6  2  0
  2  1  1  0
  2  3  2  0
  3  4  1  0
  4  5  2  0
  6  5  1  0
  7  2  1  0
  8  7  1  0
  9  8  2  0
 10  9  1  0
 10 15  2  0
 11 10  1  0
 12 11  2  0
 12 13  1  0
 13 14  2  0
 14 15  1  0
 15  7  1  0
 16 11  1  0
 17 18  2  0
 17  1  1  0
 19 17  1  0
 20 19  1  0
 21 23  1  0
 21 20  1  0
 22 21  1  0
 22 23  1  0
  3 24  1  0
  5 25  1  0
  8 26  1  0
 13 27  1  0
 16 28  1  0
 16 29  1  0
 20 30  1  0
 20 31  1  0
 21 32  1  0
 22 33  1  0
 22 34  1  0
 23 35  1  0
 23 36  1  0
M  ISO  8  24  14  25  14  26  14  27  14  30   8  31   8  32  13  33  13
M  ISO  3  34  13  35  13  36  13
M  END
>  <minimizedAffinity>  (1) 
-5.83184862

>  <minimizedRMSD>  (1) 
1.00353873

$$$$
