
     RDKit          3D

 31 34  0  0  0  0  0  0  0  0999 V2000
   46.6380   32.9140   43.9440 C   0  0  0  0  0  0  0  0  0  0  0  0
   47.4550   32.6680   42.8660 N   0  0  0  0  0  0  0  0  0  0  0  0
   47.6360   33.5730   41.8930 C   0  0  0  0  0  0  0  0  0  0  0  0
   47.0140   34.7930   41.9210 N   0  0  0  0  0  0  0  0  0  0  0  0
   46.2070   35.0660   42.9630 C   0  0  0  0  0  0  0  0  0  0  0  0
   45.5180   36.2570   43.1100 C   0  0  0  0  0  0  0  0  0  0  0  0
   44.6970   36.5020   44.1900 C   0  0  0  0  0  0  0  0  0  0  0  0
   44.5340   35.5350   45.1830 C   0  0  0  0  0  0  0  0  0  0  0  0
   45.2100   34.3450   45.0540 C   0  0  0  0  0  0  0  0  0  0  0  0
   46.0220   34.1400   43.9580 C   0  0  0  0  0  0  0  0  0  0  0  0
   45.7270   30.7580   44.4590 C   0  0  0  0  0  0  0  0  0  0  0  0
   46.5800   31.8100   44.8810 C   0  0  0  0  0  0  0  0  0  0  0  0
   47.2280   31.6270   46.1080 C   0  0  0  0  0  0  0  0  0  0  0  0
   47.0020   30.4800   46.7980 N   0  0  0  0  0  0  0  0  0  0  0  0
   46.1900   29.5150   46.3630 C   0  0  0  0  0  0  0  0  0  0  0  0
   45.5340   29.6290   45.1850 N   0  0  0  0  0  0  0  0  0  0  0  0
   45.9970   28.3080   47.1620 C   0  0  0  0  0  0  0  0  0  0  0  0
   44.7730   27.8610   47.6130 C   0  0  0  0  0  0  0  0  0  0  0  0
   45.0250   26.6900   48.3300 C   0  0  0  0  0  0  0  0  0  0  0  0
   46.3520   26.4570   48.3000 N   0  0  0  0  0  0  0  0  0  0  0  0
   46.9310   27.4390   47.5930 N   0  0  0  0  0  0  0  0  0  0  0  0
   48.3008   33.3294   41.0512 H   0  0  0  0  0  0  0  0  0  0  0  0
   45.6291   37.0341   42.3395 H   0  0  0  0  0  0  0  0  0  0  0  0
   44.1683   37.4634   44.2694 H   0  0  0  0  0  0  0  0  0  0  0  0
   43.8804   35.7206   46.0480 H   0  0  0  0  0  0  0  0  0  0  0  0
   45.1041   33.5619   45.8193 H   0  0  0  0  0  0  0  0  0  0  0  0
   45.1985   30.8627   43.5000 H   0  0  0  0  0  0  0  0  0  0  0  0
   47.9063   32.3966   46.5050 H   0  0  0  0  0  0  0  0  0  0  0  0
   43.7941   28.3327   47.4420 H   0  0  0  0  0  0  0  0  0  0  0  0
   44.2713   26.0658   48.8323 H   0  0  0  0  0  0  0  0  0  0  0  0
   46.8370   25.6634   48.7427 H   0  0  0  0  0  0  0  0  0  0  0  0
  1 10  1  0
  1 12  1  0
  2  1  2  0
  3  4  2  0
  3  2  1  0
  4  5  1  0
  5  6  1  0
  5 10  2  0
  6  7  2  0
  7  8  1  0
  9  8  2  0
 10  9  1  0
 11 12  2  0
 11 16  1  0
 12 13  1  0
 13 14  2  0
 15 14  1  0
 15 17  1  0
 16 15  2  0
 17 21  2  0
 17 18  1  0
 18 19  2  0
 20 19  1  0
 21 20  1  0
  3 22  1  0
  6 23  1  0
  7 24  1  0
  8 25  1  0
  9 26  1  0
 11 27  1  0
 13 28  1  0
 18 29  1  0
 19 30  1  0
 20 31  1  0
M  ISO  8  22  14  23  14  24  14  25  14  26  14  27  14  28  14  29  14
M  ISO  2  30  14  31   9
M  END
>  <minimizedAffinity>  (1) 
-5.11807203

>  <minimizedRMSD>  (1) 
2.32427025

$$$$
