
     RDKit          3D

 21 21  0  0  1  0  0  0  0  0999 V2000
   44.4750   35.6590   43.6060 C   0  0  1  0  0  0  0  0  0  0  0  0
   45.3190   34.6650   44.3220 C   0  0  0  0  0  0  0  0  0  0  0  0
   46.3760   34.1100   43.5740 C   0  0  0  0  0  0  0  0  0  0  0  0
   47.2190   33.1670   44.1420 C   0  0  0  0  0  0  0  0  0  0  0  0
   46.9510   32.8280   45.4530 N   0  0  0  0  0  0  0  0  0  0  0  0
   45.9330   33.3740   46.1510 C   0  0  0  0  0  0  0  0  0  0  0  0
   45.1340   34.2780   45.5840 N   0  0  0  0  0  0  0  0  0  0  0  0
   45.2110   36.9620   43.3720 C   0  0  0  0  0  0  0  0  0  0  0  0
   43.9380   35.0960   42.3070 C   0  0  0  0  0  0  0  0  0  0  0  0
   42.7060   35.7620   41.9080 N   0  0  0  0  0  0  0  0  0  0  0  0
   43.6171   35.8797   44.2582 H   0  0  0  0  0  0  0  0  0  0  0  0
   46.5336   34.4269   42.5325 H   0  0  0  0  0  0  0  0  0  0  0  0
   48.0513   32.7161   43.5816 H   0  0  0  0  0  0  0  0  0  0  0  0
   45.7615   33.0711   47.1945 H   0  0  0  0  0  0  0  0  0  0  0  0
   45.4680   37.4169   44.3400 H   0  0  0  0  0  0  0  0  0  0  0  0
   46.1318   36.7660   42.8030 H   0  0  0  0  0  0  0  0  0  0  0  0
   44.5678   37.6494   42.8030 H   0  0  0  0  0  0  0  0  0  0  0  0
   44.6917   35.2352   41.5180 H   0  0  0  0  0  0  0  0  0  0  0  0
   43.7214   34.0279   42.4561 H   0  0  0  0  0  0  0  0  0  0  0  0
   42.1815   36.0456   42.7479 H   0  0  0  0  0  0  0  0  0  0  0  0
   42.9325   36.5956   41.3470 H   0  0  0  0  0  0  0  0  0  0  0  0
  1  2  1  0
  2  7  2  0
  3  4  2  0
  3  2  1  0
  4  5  1  0
  5  6  2  0
  7  6  1  0
  8  1  1  0
  9  1  1  0
 10  9  1  0
  1 11  1  1
  3 12  1  0
  4 13  1  0
  6 14  1  0
  8 15  1  0
  8 16  1  0
  8 17  1  0
  9 18  1  0
  9 19  1  0
 10 20  1  0
 10 21  1  0
M  ISO  8  11   8  12  14  13  14  14  14  15   8  16   8  17   8  18   8
M  ISO  3  19   8  20   5  21   5
M  END
>  <minimizedAffinity>  (1) 
-3.30553555

>  <minimizedRMSD>  (1) 
0.450183123

$$$$
