
     RDKit          3D

 37 38  0  0  1  0  0  0  0  0999 V2000
   44.5050   34.7890   42.3070 C   0  0  2  0  0  0  0  0  0  0  0  0
   45.6600   34.5390   41.4910 N   0  0  0  0  0  0  0  0  0  0  0  0
   46.9140   35.0780   41.5980 C   0  0  0  0  0  0  0  0  0  0  0  0
   47.9850   34.8530   40.7670 C   0  0  0  0  0  0  0  0  0  0  0  0
   47.7880   33.9950   39.7110 C   0  0  0  0  0  0  0  0  0  0  0  0
   48.8920   33.7560   38.8480 N   0  0  0  0  0  0  0  0  0  0  0  0
   46.5840   33.4400   39.5600 N   0  0  0  0  0  0  0  0  0  0  0  0
   45.5910   33.6980   40.3950 C   0  0  0  0  0  0  0  0  0  0  0  0
   44.4840   33.1260   40.1720 O   0  0  0  0  0  0  0  0  0  0  0  0
   43.5960   35.5400   41.4750 N   0  0  0  0  0  0  0  0  0  0  0  0
   42.1900   35.2450   41.5180 C   0  0  0  0  0  0  0  0  0  0  0  0
   41.7820   34.0170   41.7530 N   0  0  0  0  0  0  0  0  0  0  0  0
   41.1000   36.1520   41.3120 N   0  0  0  0  0  0  0  0  0  0  0  0
   42.4090   33.2190   41.9330 H   0  0  0  0  0  0  0  0  0  0  0  0
   44.6350   35.3390   43.6770 C   0  0  1  0  0  0  0  0  0  0  0  0
   45.2960   34.4410   44.6410 C   0  0  0  0  0  0  0  0  0  0  0  0
   46.2680   33.6210   44.1340 C   0  0  0  0  0  0  0  0  0  0  0  0
   46.9030   32.7020   44.9570 C   0  0  0  0  0  0  0  0  0  0  0  0
   46.4970   32.6750   46.2900 N   0  0  0  0  0  0  0  0  0  0  0  0
   45.5490   33.4860   46.7630 C   0  0  0  0  0  0  0  0  0  0  0  0
   44.9710   34.3430   45.9430 N   0  0  0  0  0  0  0  0  0  0  0  0
   45.2600   36.7260   43.7080 C   0  0  0  0  0  0  0  0  0  0  0  0
   44.1424   33.7963   42.6119 H   0  0  0  0  0  0  0  0  0  0  0  0
   47.0823   35.7654   42.4401 H   0  0  0  0  0  0  0  0  0  0  0  0
   48.9572   35.3380   40.9391 H   0  0  0  0  0  0  0  0  0  0  0  0
   48.7892   33.1202   38.0442 H   0  0  0  0  0  0  0  0  0  0  0  0
   49.7948   34.2187   39.0264 H   0  0  0  0  0  0  0  0  0  0  0  0
   43.9520   36.2816   40.8552 H   0  0  0  0  0  0  0  0  0  0  0  0
   40.1294   35.8124   41.3703 H   0  0  0  0  0  0  0  0  0  0  0  0
   41.2871   37.1436   41.1056 H   0  0  0  0  0  0  0  0  0  0  0  0
   43.5923   35.4320   44.0149 H   0  0  0  0  0  0  0  0  0  0  0  0
   46.5461   33.6909   43.0720 H   0  0  0  0  0  0  0  0  0  0  0  0
   47.6863   32.0296   44.5771 H   0  0  0  0  0  0  0  0  0  0  0  0
   45.2535   33.4408   47.8216 H   0  0  0  0  0  0  0  0  0  0  0  0
   45.4019   37.0410   44.7523 H   0  0  0  0  0  0  0  0  0  0  0  0
   46.2338   36.7009   43.1970 H   0  0  0  0  0  0  0  0  0  0  0  0
   44.5961   37.4388   43.1970 H   0  0  0  0  0  0  0  0  0  0  0  0
  1 15  1  0
  2  3  1  0
  2  1  1  0
  4  3  2  0
  5  4  1  0
  6  5  1  0
  7  5  2  0
  7  8  1  0
  8  2  1  0
  9  8  2  0
 10 11  1  0
 10  1  1  0
 11 12  2  0
 12 14  1  0
 13 11  1  0
 15 22  1  0
 15 16  1  0
 16 21  1  0
 17 16  2  0
 17 18  1  0
 18 19  2  0
 19 20  1  0
 21 20  2  0
  1 23  1  1
  3 24  1  0
  4 25  1  0
  6 26  1  0
  6 27  1  0
 10 28  1  0
 13 29  1  0
 13 30  1  0
 15 31  1  1
 17 32  1  0
 18 33  1  0
 20 34  1  0
 22 35  1  0
 22 36  1  0
 22 37  1  0
M  ISO  8  23   8  24  14  25  14  31   8  32  14  33  14  34  14  35   8
M  ISO  2  36   8  37   8
M  END
>  <minimizedAffinity>  (1) 
-5.53190422

>  <minimizedRMSD>  (1) 
0.665730715

$$$$
