
     RDKit          3D

 37 39  0  0  1  0  0  0  0  0999 V2000
   44.5510   34.8970   42.4740 C   0  0  2  0  0  0  0  0  0  0  0  0
   45.8340   34.7820   41.8260 N   0  0  0  0  0  0  0  0  0  0  0  0
   47.0650   35.2850   42.1610 C   0  0  0  0  0  0  0  0  0  0  0  0
   47.9860   34.9750   41.2320 N   0  0  0  0  0  0  0  0  0  0  0  0
   47.3840   34.2750   40.2830 C   0  0  0  0  0  0  0  0  0  0  0  0
   47.8610   33.7120   39.1080 C   0  0  0  0  0  0  0  0  0  0  0  0
   46.9930   33.0350   38.3140 N   0  0  0  0  0  0  0  0  0  0  0  0
   45.6980   32.9090   38.6550 C   0  0  0  0  0  0  0  0  0  0  0  0
   45.2890   33.4620   39.7860 N   0  0  0  0  0  0  0  0  0  0  0  0
   46.0820   34.1480   40.6260 C   0  0  0  0  0  0  0  0  0  0  0  0
   43.6990   35.5070   41.4890 N   0  0  0  0  0  0  0  0  0  0  0  0
   42.2900   35.2430   41.4970 C   0  0  0  0  0  0  0  0  0  0  0  0
   41.8560   34.0570   41.8800 N   0  0  0  0  0  0  0  0  0  0  0  0
   41.2190   36.1120   41.1160 N   0  0  0  0  0  0  0  0  0  0  0  0
   42.4760   33.2850   42.1780 H   0  0  0  0  0  0  0  0  0  0  0  0
   44.4680   35.5100   43.8220 C   0  0  1  0  0  0  0  0  0  0  0  0
   44.9150   34.6330   44.9140 C   0  0  0  0  0  0  0  0  0  0  0  0
   45.6640   33.5440   44.5650 C   0  0  0  0  0  0  0  0  0  0  0  0
   46.0730   32.6420   45.5370 C   0  0  0  0  0  0  0  0  0  0  0  0
   45.6830   32.9140   46.8480 N   0  0  0  0  0  0  0  0  0  0  0  0
   44.9540   33.9860   47.1640 C   0  0  0  0  0  0  0  0  0  0  0  0
   44.5870   34.8160   46.2070 N   0  0  0  0  0  0  0  0  0  0  0  0
   45.1890   36.8560   43.8670 C   0  0  0  0  0  0  0  0  0  0  0  0
   44.2298   33.8886   42.7740 H   0  0  0  0  0  0  0  0  0  0  0  0
   47.2719   35.8665   43.0715 H   0  0  0  0  0  0  0  0  0  0  0  0
   48.9195   33.8121   38.8261 H   0  0  0  0  0  0  0  0  0  0  0  0
   44.9962   32.3600   38.0100 H   0  0  0  0  0  0  0  0  0  0  0  0
   44.1013   36.1338   40.7775 H   0  0  0  0  0  0  0  0  0  0  0  0
   40.2443   35.7842   41.1741 H   0  0  0  0  0  0  0  0  0  0  0  0
   41.4228   37.0654   40.7837 H   0  0  0  0  0  0  0  0  0  0  0  0
   43.3950   35.6760   43.9982 H   0  0  0  0  0  0  0  0  0  0  0  0
   45.9426   33.3826   43.5132 H   0  0  0  0  0  0  0  0  0  0  0  0
   46.6750   31.7563   45.2858 H   0  0  0  0  0  0  0  0  0  0  0  0
   44.6632   34.1748   48.2079 H   0  0  0  0  0  0  0  0  0  0  0  0
   45.3476   37.1521   44.9144 H   0  0  0  0  0  0  0  0  0  0  0  0
   46.1610   36.7685   43.3595 H   0  0  0  0  0  0  0  0  0  0  0  0
   44.5776   37.6166   43.3595 H   0  0  0  0  0  0  0  0  0  0  0  0
  1 16  1  0
  2  3  1  0
  2  1  1  0
  4  3  2  0
  5 10  2  0
  5  4  1  0
  6  5  1  0
  7  8  1  0
  7  6  2  0
  8  9  2  0
  9 10  1  0
 10  2  1  0
 11 12  1  0
 11  1  1  0
 12 13  2  0
 13 15  1  0
 14 12  1  0
 16 23  1  0
 16 17  1  0
 17 22  1  0
 18 17  2  0
 18 19  1  0
 19 20  2  0
 20 21  1  0
 22 21  2  0
  1 24  1  1
  3 25  1  0
  6 26  1  0
  8 27  1  0
 11 28  1  0
 14 29  1  0
 14 30  1  0
 16 31  1  1
 18 32  1  0
 19 33  1  0
 21 34  1  0
 23 35  1  0
 23 36  1  0
 23 37  1  0
M  ISO  8  24   8  25  14  26  14  27  14  31   8  32  14  33  14  34  14
M  ISO  3  35   8  36   8  37   8
M  END
>  <minimizedAffinity>  (1) 
-5.20329857

>  <minimizedRMSD>  (1) 
1.08261216

$$$$
