
     RDKit          3D

 36 37  0  0  1  0  0  0  0  0999 V2000
   44.6910   34.5270   42.3350 C   0  0  1  0  0  0  0  0  0  0  0  0
   43.8110   35.4590   41.6690 N   0  0  0  0  0  0  0  0  0  0  0  0
   42.4120   35.1720   41.6100 C   0  0  0  0  0  0  0  0  0  0  0  0
   41.9850   33.9290   41.5850 N   0  0  0  0  0  0  0  0  0  0  0  0
   41.3450   36.1230   41.5520 N   0  0  0  0  0  0  0  0  0  0  0  0
   42.5990   33.1000   41.6010 H   0  0  0  0  0  0  0  0  0  0  0  0
   45.9930   34.6650   41.6640 C   0  0  0  0  0  0  0  0  0  0  0  0
   46.3520   34.0850   40.4440 C   0  0  0  0  0  0  0  0  0  0  0  0
   47.5950   34.1630   39.8560 C   0  0  0  0  0  0  0  0  0  0  0  0
   48.5730   34.8680   40.5170 C   0  0  0  0  0  0  0  0  0  0  0  0
   48.3360   35.4830   41.7270 C   0  0  0  0  0  0  0  0  0  0  0  0
   47.0880   35.3570   42.2340 C   0  0  0  0  0  0  0  0  0  0  0  0
   44.5850   34.5900   43.8160 C   0  0  1  0  0  0  0  0  0  0  0  0
   45.4150   33.6100   44.5330 C   0  0  0  0  0  0  0  0  0  0  0  0
   45.5060   32.3700   43.9570 C   0  0  0  0  0  0  0  0  0  0  0  0
   46.2060   31.3590   44.5940 C   0  0  0  0  0  0  0  0  0  0  0  0
   46.7960   31.6760   45.8180 N   0  0  0  0  0  0  0  0  0  0  0  0
   46.6960   32.8930   46.3570 C   0  0  0  0  0  0  0  0  0  0  0  0
   46.0180   33.8260   45.7170 N   0  0  0  0  0  0  0  0  0  0  0  0
   44.7960   35.9960   44.3720 C   0  0  0  0  0  0  0  0  0  0  0  0
   44.4139   33.4679   42.2274 H   0  0  0  0  0  0  0  0  0  0  0  0
   44.1863   36.3182   41.2427 H   0  0  0  0  0  0  0  0  0  0  0  0
   40.3681   35.7991   41.5122 H   0  0  0  0  0  0  0  0  0  0  0  0
   41.5537   37.1316   41.5501 H   0  0  0  0  0  0  0  0  0  0  0  0
   45.5762   33.5184   39.9082 H   0  0  0  0  0  0  0  0  0  0  0  0
   47.7985   33.6776   38.8901 H   0  0  0  0  0  0  0  0  0  0  0  0
   49.5738   34.9432   40.0667 H   0  0  0  0  0  0  0  0  0  0  0  0
   49.1203   36.0469   42.2532 H   0  0  0  0  0  0  0  0  0  0  0  0
   46.9032   35.8490   43.2003 H   0  0  0  0  0  0  0  0  0  0  0  0
   43.5411   34.3036   44.0114 H   0  0  0  0  0  0  0  0  0  0  0  0
   45.0226   32.1774   42.9878 H   0  0  0  0  0  0  0  0  0  0  0  0
   46.2927   30.3538   44.1558 H   0  0  0  0  0  0  0  0  0  0  0  0
   47.1731   33.1151   47.3229 H   0  0  0  0  0  0  0  0  0  0  0  0
   44.7906   35.9602   45.4714 H   0  0  0  0  0  0  0  0  0  0  0  0
   45.7629   36.3872   44.0226 H   0  0  0  0  0  0  0  0  0  0  0  0
   43.9865   36.6538   44.0226 H   0  0  0  0  0  0  0  0  0  0  0  0
  1 13  1  0
  2  1  1  0
  3  2  1  0
  4  6  1  0
  4  3  2  0
  5  3  1  0
  7 12  1  0
  7  1  1  0
  8  7  2  0
  9  8  1  0
  9 10  2  0
 10 11  1  0
 11 12  2  0
 13 20  1  0
 13 14  1  0
 14 19  1  0
 15 14  2  0
 15 16  1  0
 16 17  2  0
 17 18  1  0
 19 18  2  0
  1 21  1  6
  2 22  1  0
  5 23  1  0
  5 24  1  0
  8 25  1  0
  9 26  1  0
 10 27  1  0
 11 28  1  0
 12 29  1  0
 13 30  1  6
 15 31  1  0
 16 32  1  0
 18 33  1  0
 20 34  1  0
 20 35  1  0
 20 36  1  0
M  ISO  8  21   8  25  14  26  14  27  14  28  14  29  14  30   8  31  14
M  ISO  5  32  14  33  14  34   8  35   8  36   8
M  END
>  <minimizedAffinity>  (1) 
-5.56942606

>  <minimizedRMSD>  (1) 
1.13957953

$$$$
