
     RDKit          3D

 40 41  0  0  1  0  0  0  0  0999 V2000
   45.3490   34.0760   42.3310 C   0  0  1  0  0  0  0  0  0  0  0  0
   44.2760   33.6440   41.4770 N   0  0  0  0  0  0  0  0  0  0  0  0
   43.3220   32.6740   41.9740 C   0  0  0  0  0  0  0  0  0  0  0  0
   43.6900   31.7760   42.8560 N   0  0  0  0  0  0  0  0  0  0  0  0
   41.9480   32.5420   41.6070 N   0  0  0  0  0  0  0  0  0  0  0  0
   44.6440   31.6940   43.2320 H   0  0  0  0  0  0  0  0  0  0  0  0
   46.4090   34.5980   41.5230 N   0  0  0  0  0  0  0  0  0  0  0  0
   46.6060   34.1360   40.2190 C   0  0  0  0  0  0  0  0  0  0  0  0
   48.0890   33.9610   39.8490 C   0  0  0  0  0  0  0  0  0  0  0  0
   48.7260   35.2390   40.0950 N   0  0  0  0  0  0  0  0  0  0  0  0
   48.7440   35.4060   41.5280 C   0  0  0  0  0  0  0  0  0  0  0  0
   47.6820   34.5730   42.2130 C   0  0  0  0  0  0  0  0  0  0  0  0
   44.8620   34.9290   43.4620 C   0  0  1  0  0  0  0  0  0  0  0  0
   45.1460   34.3530   44.7880 C   0  0  0  0  0  0  0  0  0  0  0  0
   46.0090   33.2800   44.8330 C   0  0  0  0  0  0  0  0  0  0  0  0
   46.2710   32.6780   46.0550 C   0  0  0  0  0  0  0  0  0  0  0  0
   45.6410   33.2010   47.1780 N   0  0  0  0  0  0  0  0  0  0  0  0
   44.8100   34.2430   47.1020 C   0  0  0  0  0  0  0  0  0  0  0  0
   44.5790   34.7950   45.9270 N   0  0  0  0  0  0  0  0  0  0  0  0
   45.3840   36.3590   43.3550 C   0  0  0  0  0  0  0  0  0  0  0  0
   45.7924   33.2268   42.8716 H   0  0  0  0  0  0  0  0  0  0  0  0
   44.1867   34.0202   40.5223 H   0  0  0  0  0  0  0  0  0  0  0  0
   41.3690   31.8055   42.0351 H   0  0  0  0  0  0  0  0  0  0  0  0
   41.5361   33.1833   40.9142 H   0  0  0  0  0  0  0  0  0  0  0  0
   46.1036   33.1630   40.1144 H   0  0  0  0  0  0  0  0  0  0  0  0
   46.1898   34.8947   39.5399 H   0  0  0  0  0  0  0  0  0  0  0  0
   48.1865   33.6853   38.7886 H   0  0  0  0  0  0  0  0  0  0  0  0
   48.5564   33.1618   40.4430 H   0  0  0  0  0  0  0  0  0  0  0  0
   49.6864   35.2375   39.7229 H   0  0  0  0  0  0  0  0  0  0  0  0
   49.7312   35.1037   41.9077 H   0  0  0  0  0  0  0  0  0  0  0  0
   48.5379   36.4639   41.7478 H   0  0  0  0  0  0  0  0  0  0  0  0
   47.5358   34.9608   43.2319 H   0  0  0  0  0  0  0  0  0  0  0  0
   48.0335   33.5307   42.2161 H   0  0  0  0  0  0  0  0  0  0  0  0
   43.7665   34.9587   43.3666 H   0  0  0  0  0  0  0  0  0  0  0  0
   46.4832   32.9062   43.9136 H   0  0  0  0  0  0  0  0  0  0  0  0
   46.9525   31.8180   46.1324 H   0  0  0  0  0  0  0  0  0  0  0  0
   44.3245   34.6359   48.0075 H   0  0  0  0  0  0  0  0  0  0  0  0
   45.5344   36.7709   44.3638 H   0  0  0  0  0  0  0  0  0  0  0  0
   46.3406   36.3605   42.8120 H   0  0  0  0  0  0  0  0  0  0  0  0
   44.6533   36.9764   42.8120 H   0  0  0  0  0  0  0  0  0  0  0  0
  1 13  1  0
  2  3  1  0
  2  1  1  0
  3  4  2  0
  4  6  1  0
  5  3  1  0
  7 12  1  0
  7  1  1  0
  8  7  1  0
  9 10  1  0
  9  8  1  0
 10 11  1  0
 11 12  1  0
 13 14  1  0
 14 15  2  0
 14 19  1  0
 15 16  1  0
 16 17  2  0
 18 17  1  0
 19 18  2  0
 20 13  1  0
  1 21  1  1
  2 22  1  0
  5 23  1  0
  5 24  1  0
  8 25  1  0
  8 26  1  0
  9 27  1  0
  9 28  1  0
 10 29  1  0
 11 30  1  0
 11 31  1  0
 12 32  1  0
 12 33  1  0
 13 34  1  6
 15 35  1  0
 16 36  1  0
 18 37  1  0
 20 38  1  0
 20 39  1  0
 20 40  1  0
M  ISO  8  21   8  25  13  26  13  27  13  28  13  29   5  30  13  31  13
M  ISO  8  32  13  33  13  34   8  35  14  36  14  37  14  38   8  39   8
M  ISO  1  40   8
M  END
>  <minimizedAffinity>  (1) 
-4.79060841

>  <minimizedRMSD>  (1) 
1.95340109

$$$$
