
     RDKit          3D

 33 34  0  0  1  0  0  0  0  0999 V2000
   44.2850   34.8430   42.1850 C   0  0  1  0  0  0  0  0  0  0  0  0
   43.3710   35.5210   41.2990 N   0  0  0  0  0  0  0  0  0  0  0  0
   41.9690   35.3180   41.4730 C   0  0  0  0  0  0  0  0  0  0  0  0
   41.5150   34.1690   41.9370 N   0  0  0  0  0  0  0  0  0  0  0  0
   40.9110   36.2400   41.1880 N   0  0  0  0  0  0  0  0  0  0  0  0
   42.1040   33.3760   42.2050 H   0  0  0  0  0  0  0  0  0  0  0  0
   45.4590   34.5200   41.3450 C   0  0  0  0  0  0  0  0  0  0  0  0
   46.7490   34.9460   41.6760 C   0  0  0  0  0  0  0  0  0  0  0  0
   47.6260   34.5630   40.6820 C   0  0  0  0  0  0  0  0  0  0  0  0
   46.8220   33.9290   39.8100 N   0  0  0  0  0  0  0  0  0  0  0  0
   45.5470   33.8660   40.1300 N   0  0  0  0  0  0  0  0  0  0  0  0
   44.4880   35.5650   43.4720 C   0  0  1  0  0  0  0  0  0  0  0  0
   44.9060   34.7080   44.5860 C   0  0  0  0  0  0  0  0  0  0  0  0
   45.5750   33.5650   44.2640 C   0  0  0  0  0  0  0  0  0  0  0  0
   45.9560   32.6890   45.2990 C   0  0  0  0  0  0  0  0  0  0  0  0
   45.6200   33.0560   46.6020 N   0  0  0  0  0  0  0  0  0  0  0  0
   44.9660   34.1850   46.8690 C   0  0  0  0  0  0  0  0  0  0  0  0
   44.6240   34.9810   45.8750 N   0  0  0  0  0  0  0  0  0  0  0  0
   45.4440   36.7530   43.3130 C   0  0  0  0  0  0  0  0  0  0  0  0
   43.9040   33.8957   42.5943 H   0  0  0  0  0  0  0  0  0  0  0  0
   43.7233   36.1399   40.5549 H   0  0  0  0  0  0  0  0  0  0  0  0
   39.9320   35.9695   41.3594 H   0  0  0  0  0  0  0  0  0  0  0  0
   41.1290   37.1737   40.8117 H   0  0  0  0  0  0  0  0  0  0  0  0
   47.0220   35.4998   42.5864 H   0  0  0  0  0  0  0  0  0  0  0  0
   48.7109   34.7335   40.6187 H   0  0  0  0  0  0  0  0  0  0  0  0
   47.1844   33.5153   38.9391 H   0  0  0  0  0  0  0  0  0  0  0  0
   43.4912   35.9448   43.7405 H   0  0  0  0  0  0  0  0  0  0  0  0
   45.8128   33.3311   43.2158 H   0  0  0  0  0  0  0  0  0  0  0  0
   46.4962   31.7542   45.0884 H   0  0  0  0  0  0  0  0  0  0  0  0
   44.7141   34.4503   47.9064 H   0  0  0  0  0  0  0  0  0  0  0  0
   45.7401   37.1209   44.3065 H   0  0  0  0  0  0  0  0  0  0  0  0
   46.3386   36.4321   42.7592 H   0  0  0  0  0  0  0  0  0  0  0  0
   44.9392   37.5583   42.7592 H   0  0  0  0  0  0  0  0  0  0  0  0
  1 12  1  0
  2  3  1  0
  2  1  1  0
  3  4  2  0
  4  6  1  0
  5  3  1  0
  7  8  1  0
  7  1  1  0
  9  8  2  0
 10 11  1  0
 10  9  1  0
 11  7  2  0
 12 13  1  0
 13 18  1  0
 14 13  2  0
 14 15  1  0
 15 16  2  0
 16 17  1  0
 18 17  2  0
 19 12  1  0
  1 20  1  1
  2 21  1  0
  5 22  1  0
  5 23  1  0
  8 24  1  0
  9 25  1  0
 10 26  1  0
 12 27  1  1
 14 28  1  0
 15 29  1  0
 17 30  1  0
 19 31  1  0
 19 32  1  0
 19 33  1  0
M  ISO  8  20   8  24  14  25  14  26   9  27   8  28  14  29  14  30  14
M  ISO  3  31   8  32   8  33   8
M  END
>  <minimizedAffinity>  (1) 
-4.80404615

>  <minimizedRMSD>  (1) 
0.912103355

$$$$
