
     RDKit          3D

 33 34  0  0  1  0  0  0  0  0999 V2000
   46.1540   35.1620   42.1710 C   0  0  1  0  0  0  0  0  0  0  0  0
   45.8940   34.8080   43.5760 C   0  0  0  0  0  0  0  0  0  0  0  0
   46.5390   33.7360   44.1330 C   0  0  0  0  0  0  0  0  0  0  0  0
   46.2470   33.3590   45.4290 C   0  0  0  0  0  0  0  0  0  0  0  0
   45.2930   34.1050   46.1070 N   0  0  0  0  0  0  0  0  0  0  0  0
   44.6750   35.1460   45.5490 C   0  0  0  0  0  0  0  0  0  0  0  0
   44.9830   35.4730   44.3120 N   0  0  0  0  0  0  0  0  0  0  0  0
   47.6490   34.9690   41.8370 C   0  0  0  0  0  0  0  0  0  0  0  0
   45.3550   34.2840   41.2020 C   0  0  1  0  0  0  0  0  0  0  0  0
   44.2290   34.9870   40.6740 N   0  0  0  0  0  0  0  0  0  0  0  0
   42.9490   34.8870   41.3270 C   0  0  0  0  0  0  0  0  0  0  0  0
   42.6160   33.7840   41.9800 N   0  0  0  0  0  0  0  0  0  0  0  0
   41.8970   35.8620   41.3850 N   0  0  0  0  0  0  0  0  0  0  0  0
   43.2240   32.9720   42.0650 H   0  0  0  0  0  0  0  0  0  0  0  0
   46.2260   33.8310   40.0550 C   0  0  0  0  0  0  0  0  0  0  0  0
   46.5700   32.3790   39.8270 C   0  0  0  0  0  0  0  0  0  0  0  0
   45.4780   32.9180   39.0420 C   0  0  0  0  0  0  0  0  0  0  0  0
   45.8514   36.2129   42.0525 H   0  0  0  0  0  0  0  0  0  0  0  0
   47.2866   33.1776   43.5505 H   0  0  0  0  0  0  0  0  0  0  0  0
   46.7494   32.5034   45.9040 H   0  0  0  0  0  0  0  0  0  0  0  0
   43.9232   35.7198   46.1108 H   0  0  0  0  0  0  0  0  0  0  0  0
   48.2265   34.8944   42.7702 H   0  0  0  0  0  0  0  0  0  0  0  0
   47.7778   34.0468   41.2514 H   0  0  0  0  0  0  0  0  0  0  0  0
   48.0078   35.8283   41.2514 H   0  0  0  0  0  0  0  0  0  0  0  0
   45.0010   33.4106   41.7694 H   0  0  0  0  0  0  0  0  0  0  0  0
   44.3323   35.5646   39.8275 H   0  0  0  0  0  0  0  0  0  0  0  0
   41.0267   35.6509   41.8938 H   0  0  0  0  0  0  0  0  0  0  0  0
   42.0125   36.7727   40.9178 H   0  0  0  0  0  0  0  0  0  0  0  0
   46.8346   34.7468   40.0863 H   0  0  0  0  0  0  0  0  0  0  0  0
   47.5163   32.1195   39.3298 H   0  0  0  0  0  0  0  0  0  0  0  0
   46.6661   31.5097   40.4942 H   0  0  0  0  0  0  0  0  0  0  0  0
   45.6048   33.0775   37.9610 H   0  0  0  0  0  0  0  0  0  0  0  0
   44.4270   32.6377   38.8782 H   0  0  0  0  0  0  0  0  0  0  0  0
  1  2  1  0
  2  3  2  0
  2  7  1  0
  3  4  1  0
  4  5  2  0
  6  5  1  0
  7  6  2  0
  8  1  1  0
  9  1  1  0
 10  9  1  0
 10 11  1  0
 11 13  1  0
 11 12  2  0
 12 14  1  0
 15  9  1  0
 16 15  1  0
 17 16  1  0
 17 15  1  0
  1 18  1  1
  3 19  1  0
  4 20  1  0
  6 21  1  0
  8 22  1  0
  8 23  1  0
  8 24  1  0
  9 25  1  1
 10 26  1  0
 13 27  1  0
 13 28  1  0
 15 29  1  0
 16 30  1  0
 16 31  1  0
 17 32  1  0
 17 33  1  0
M  ISO  8  18   8  19  14  20  14  21  14  22   8  23   8  24   8  25   8
M  ISO  5  29  13  30  13  31  13  32  13  33  13
M  END
>  <minimizedAffinity>  (1) 
-4.69612408

>  <minimizedRMSD>  (1) 
2.24804854

$$$$
