
     RDKit          3D

 38 42  0  0  0  0  0  0  0  0999 V2000
   46.4730   32.6820   46.8940 C   0  0  0  0  0  0  0  0  0  0  0  0
   45.6410   32.4790   47.9800 C   0  0  0  0  0  0  0  0  0  0  0  0
   46.4210   31.7690   48.8780 C   0  0  0  0  0  0  0  0  0  0  0  0
   47.6800   31.5690   48.3120 C   0  0  0  0  0  0  0  0  0  0  0  0
   47.6050   32.1380   47.1580 O   0  0  0  0  0  0  0  0  0  0  0  0
   48.6940   30.8410   49.0610 C   0  0  0  0  0  0  0  0  0  0  0  0
   49.4240   31.4060   50.0360 N   0  0  0  0  0  0  0  0  0  0  0  0
   50.3570   30.8030   50.7550 C   0  0  0  0  0  0  0  0  0  0  0  0
   50.6580   29.5230   50.5520 N   0  0  0  0  0  0  0  0  0  0  0  0
   49.9960   28.8410   49.5980 C   0  0  0  0  0  0  0  0  0  0  0  0
   50.2670   27.5110   49.3450 C   0  0  0  0  0  0  0  0  0  0  0  0
   49.5910   26.7970   48.3640 C   0  0  0  0  0  0  0  0  0  0  0  0
   48.6130   27.4740   47.6310 C   0  0  0  0  0  0  0  0  0  0  0  0
   48.3770   28.7940   47.9180 C   0  0  0  0  0  0  0  0  0  0  0  0
   49.0350   29.5220   48.8830 C   0  0  0  0  0  0  0  0  0  0  0  0
   46.7320   33.9860   43.5980 C   0  0  0  0  0  0  0  0  0  0  0  0
   45.5730   34.6120   44.0580 C   0  0  0  0  0  0  0  0  0  0  0  0
   45.3380   34.1830   45.3680 C   0  0  0  0  0  0  0  0  0  0  0  0
   46.3690   33.3130   45.6390 N   0  0  0  0  0  0  0  0  0  0  0  0
   47.1870   33.1950   44.6060 N   0  0  0  0  0  0  0  0  0  0  0  0
   48.6630   35.3890   40.7900 C   0  0  0  0  0  0  0  0  0  0  0  0
   48.1100   34.6990   39.7080 C   0  0  0  0  0  0  0  0  0  0  0  0
   47.0950   33.7750   39.9440 C   0  0  0  0  0  0  0  0  0  0  0  0
   46.6720   33.5730   41.2280 N   0  0  0  0  0  0  0  0  0  0  0  0
   47.2230   34.2500   42.2480 C   0  0  0  0  0  0  0  0  0  0  0  0
   48.2020   35.1440   42.0400 N   0  0  0  0  0  0  0  0  0  0  0  0
   44.5981   32.8065   48.1026 H   0  0  0  0  0  0  0  0  0  0  0  0
   46.1010   31.4211   49.8713 H   0  0  0  0  0  0  0  0  0  0  0  0
   50.8918   31.3685   51.5323 H   0  0  0  0  0  0  0  0  0  0  0  0
   51.0411   27.0018   49.9379 H   0  0  0  0  0  0  0  0  0  0  0  0
   49.8172   25.7379   48.1713 H   0  0  0  0  0  0  0  0  0  0  0  0
   48.0452   26.9598   46.8416 H   0  0  0  0  0  0  0  0  0  0  0  0
   47.6025   29.3105   47.3321 H   0  0  0  0  0  0  0  0  0  0  0  0
   44.9522   35.3198   43.4892 H   0  0  0  0  0  0  0  0  0  0  0  0
   44.5127   34.4758   46.0337 H   0  0  0  0  0  0  0  0  0  0  0  0
   49.4651   36.1242   40.6282 H   0  0  0  0  0  0  0  0  0  0  0  0
   48.4709   34.8829   38.6853 H   0  0  0  0  0  0  0  0  0  0  0  0
   46.6415   33.2173   39.1113 H   0  0  0  0  0  0  0  0  0  0  0  0
  1  5  1  0
  1  2  2  0
  2  3  1  0
  4  3  2  0
  4  6  1  0
  5  4  1  0
  6  7  2  0
  7  8  1  0
  9  8  2  0
 10  9  1  0
 11 10  2  0
 12 11  1  0
 13 14  1  0
 13 12  2  0
 14 15  2  0
 15  6  1  0
 15 10  1  0
 16 17  1  0
 16 20  2  0
 17 18  2  0
 18 19  1  0
 19  1  1  0
 20 19  1  0
 21 26  2  0
 22 23  2  0
 22 21  1  0
 23 24  1  0
 24 25  2  0
 25 16  1  0
 26 25  1  0
  2 27  1  0
  3 28  1  0
  8 29  1  0
 11 30  1  0
 12 31  1  0
 13 32  1  0
 14 33  1  0
 17 34  1  0
 18 35  1  0
 21 36  1  0
 22 37  1  0
 23 38  1  0
M  ISO  8  27  14  28  14  29  14  30  14  31  14  32  14  33  14  34  14
M  ISO  4  35  14  36  14  37  14  38  14
M  END
>  <minimizedAffinity>  (1) 
-6.27535486

>  <minimizedRMSD>  (1) 
1.62453151

$$$$
