
     RDKit          3D

 30 33  0  0  0  0  0  0  0  0999 V2000
   46.4050   32.8410   43.7230 C   0  0  0  0  0  0  0  0  0  0  0  0
   47.2270   32.5520   42.6590 N   0  0  0  0  0  0  0  0  0  0  0  0
   47.5270   33.4720   41.7140 C   0  0  0  0  0  0  0  0  0  0  0  0
   47.0250   34.7400   41.7740 N   0  0  0  0  0  0  0  0  0  0  0  0
   46.2140   35.0520   42.8110 C   0  0  0  0  0  0  0  0  0  0  0  0
   45.6380   36.3010   42.9910 C   0  0  0  0  0  0  0  0  0  0  0  0
   44.8130   36.5880   44.0600 C   0  0  0  0  0  0  0  0  0  0  0  0
   44.5370   35.6060   45.0020 C   0  0  0  0  0  0  0  0  0  0  0  0
   45.0940   34.3590   44.8480 C   0  0  0  0  0  0  0  0  0  0  0  0
   45.9090   34.1200   43.7670 C   0  0  0  0  0  0  0  0  0  0  0  0
   45.3750   30.7020   44.0750 C   0  0  0  0  0  0  0  0  0  0  0  0
   46.2180   31.7210   44.6090 C   0  0  0  0  0  0  0  0  0  0  0  0
   46.7210   31.4710   45.8740 C   0  0  0  0  0  0  0  0  0  0  0  0
   46.4060   30.3220   46.5250 N   0  0  0  0  0  0  0  0  0  0  0  0
   45.6050   29.3910   45.9770 C   0  0  0  0  0  0  0  0  0  0  0  0
   45.0850   29.5650   44.7610 N   0  0  0  0  0  0  0  0  0  0  0  0
   45.3030   28.2000   46.6970 N   0  0  0  0  0  0  0  0  0  0  0  0
   45.0530   27.9920   48.0080 C   0  0  0  0  0  0  0  0  0  0  0  0
   44.8190   26.6770   48.2050 N   0  0  0  0  0  0  0  0  0  0  0  0
   44.9200   26.0610   47.0280 C   0  0  0  0  0  0  0  0  0  0  0  0
   45.2200   27.0060   46.0900 N   0  0  0  0  0  0  0  0  0  0  0  0
   48.1886   33.1929   40.8807 H   0  0  0  0  0  0  0  0  0  0  0  0
   45.8462   37.0916   42.2551 H   0  0  0  0  0  0  0  0  0  0  0  0
   44.3755   37.5918   44.1652 H   0  0  0  0  0  0  0  0  0  0  0  0
   43.8822   35.8229   45.8589 H   0  0  0  0  0  0  0  0  0  0  0  0
   44.8905   33.5632   45.5796 H   0  0  0  0  0  0  0  0  0  0  0  0
   44.9443   30.8412   43.0725 H   0  0  0  0  0  0  0  0  0  0  0  0
   47.3805   32.2083   46.3552 H   0  0  0  0  0  0  0  0  0  0  0  0
   45.0419   28.7676   48.7880 H   0  0  0  0  0  0  0  0  0  0  0  0
   44.7858   24.9846   46.8451 H   0  0  0  0  0  0  0  0  0  0  0  0
  1 10  1  0
  1 12  1  0
  2  1  2  0
  3  4  2  0
  3  2  1  0
  4  5  1  0
  5  6  1  0
  5 10  2  0
  6  7  2  0
  7  8  1  0
  9  8  2  0
 10  9  1  0
 11 12  2  0
 11 16  1  0
 12 13  1  0
 13 14  2  0
 15 14  1  0
 15 17  1  0
 16 15  2  0
 17 18  1  0
 18 19  2  0
 20 19  1  0
 21 17  1  0
 21 20  2  0
  3 22  1  0
  6 23  1  0
  7 24  1  0
  8 25  1  0
  9 26  1  0
 11 27  1  0
 13 28  1  0
 18 29  1  0
 20 30  1  0
M  ISO  8  22  14  23  14  24  14  25  14  26  14  27  14  28  14  29  14
M  ISO  1  30  14
M  END
>  <minimizedAffinity>  (1) 
-4.74048376

>  <minimizedRMSD>  (1) 
2.61043048

$$$$
