
     RDKit          3D

 32 35  0  0  0  0  0  0  0  0999 V2000
   46.6780   34.0430   43.6170 C   0  0  0  0  0  0  0  0  0  0  0  0
   45.5410   34.7110   44.0740 C   0  0  0  0  0  0  0  0  0  0  0  0
   45.2700   34.2760   45.3700 C   0  0  0  0  0  0  0  0  0  0  0  0
   46.2370   33.3720   45.6500 N   0  0  0  0  0  0  0  0  0  0  0  0
   47.0610   33.2320   44.6300 N   0  0  0  0  0  0  0  0  0  0  0  0
   48.6930   35.3880   40.8530 C   0  0  0  0  0  0  0  0  0  0  0  0
   48.1410   34.7160   39.7490 C   0  0  0  0  0  0  0  0  0  0  0  0
   47.1030   33.8280   39.9690 C   0  0  0  0  0  0  0  0  0  0  0  0
   46.6420   33.6250   41.2470 N   0  0  0  0  0  0  0  0  0  0  0  0
   47.2080   34.2950   42.2760 C   0  0  0  0  0  0  0  0  0  0  0  0
   48.2260   35.1770   42.1180 N   0  0  0  0  0  0  0  0  0  0  0  0
   46.3090   32.6950   46.8910 C   0  0  0  0  0  0  0  0  0  0  0  0
   45.4780   32.5870   47.9960 C   0  0  0  0  0  0  0  0  0  0  0  0
   46.1680   31.7560   48.8680 C   0  0  0  0  0  0  0  0  0  0  0  0
   47.3590   31.4020   48.2710 C   0  0  0  0  0  0  0  0  0  0  0  0
   47.3840   31.9850   47.1110 O   0  0  0  0  0  0  0  0  0  0  0  0
   48.3750   30.5390   48.8530 C   0  0  0  0  0  0  0  0  0  0  0  0
   48.7400   29.3690   48.2220 C   0  0  0  0  0  0  0  0  0  0  0  0
   49.7000   28.5400   48.7590 C   0  0  0  0  0  0  0  0  0  0  0  0
   50.3110   28.8660   49.9340 N   0  0  0  0  0  0  0  0  0  0  0  0
   49.9320   30.0290   50.5390 C   0  0  0  0  0  0  0  0  0  0  0  0
   48.9800   30.8480   50.0030 N   0  0  0  0  0  0  0  0  0  0  0  0
   44.9587   35.4533   43.5084 H   0  0  0  0  0  0  0  0  0  0  0  0
   44.4468   34.5983   46.0246 H   0  0  0  0  0  0  0  0  0  0  0  0
   49.5179   36.0982   40.6944 H   0  0  0  0  0  0  0  0  0  0  0  0
   48.5253   34.8919   38.7334 H   0  0  0  0  0  0  0  0  0  0  0  0
   46.6494   33.2875   39.1251 H   0  0  0  0  0  0  0  0  0  0  0  0
   44.4939   33.0545   48.1474 H   0  0  0  0  0  0  0  0  0  0  0  0
   45.8241   31.4357   49.8625 H   0  0  0  0  0  0  0  0  0  0  0  0
   48.2563   29.0927   47.2735 H   0  0  0  0  0  0  0  0  0  0  0  0
   49.9751   27.6111   48.2380 H   0  0  0  0  0  0  0  0  0  0  0  0
   50.4083   30.3156   51.4882 H   0  0  0  0  0  0  0  0  0  0  0  0
  1  2  1  0
  1  5  2  0
  2  3  2  0
  3  4  1  0
  4 12  1  0
  5  4  1  0
  6 11  2  0
  7  8  2  0
  7  6  1  0
  8  9  1  0
  9 10  2  0
 10  1  1  0
 11 10  1  0
 12 16  1  0
 12 13  2  0
 13 14  1  0
 15 17  1  0
 15 14  2  0
 16 15  1  0
 17 22  2  0
 18 19  2  0
 18 17  1  0
 19 20  1  0
 20 21  2  0
 22 21  1  0
  2 23  1  0
  3 24  1  0
  6 25  1  0
  7 26  1  0
  8 27  1  0
 13 28  1  0
 14 29  1  0
 18 30  1  0
 19 31  1  0
 21 32  1  0
M  ISO  8  23  14  24  14  25  14  26  14  27  14  28  14  29  14  30  14
M  ISO  2  31  14  32  14
M  END
>  <minimizedAffinity>  (1) 
-5.96516228

>  <minimizedRMSD>  (1) 
0.696580946

$$$$
