
     RDKit          3D

 30 33  0  0  0  0  0  0  0  0999 V2000
   46.6340   34.0780   43.5980 C   0  0  0  0  0  0  0  0  0  0  0  0
   45.4750   34.6960   44.0280 C   0  0  0  0  0  0  0  0  0  0  0  0
   45.2280   34.2950   45.3410 C   0  0  0  0  0  0  0  0  0  0  0  0
   46.2410   33.4520   45.6570 N   0  0  0  0  0  0  0  0  0  0  0  0
   47.0810   33.3110   44.6370 N   0  0  0  0  0  0  0  0  0  0  0  0
   48.6540   35.3520   40.7990 C   0  0  0  0  0  0  0  0  0  0  0  0
   48.0880   34.6510   39.7030 C   0  0  0  0  0  0  0  0  0  0  0  0
   47.0470   33.7760   39.9520 C   0  0  0  0  0  0  0  0  0  0  0  0
   46.6020   33.6160   41.2300 N   0  0  0  0  0  0  0  0  0  0  0  0
   47.1610   34.2980   42.2510 C   0  0  0  0  0  0  0  0  0  0  0  0
   48.1710   35.1550   42.0550 N   0  0  0  0  0  0  0  0  0  0  0  0
   46.3380   32.8310   46.9260 C   0  0  0  0  0  0  0  0  0  0  0  0
   45.4310   32.4420   47.9080 C   0  0  0  0  0  0  0  0  0  0  0  0
   46.2380   31.8890   48.8950 C   0  0  0  0  0  0  0  0  0  0  0  0
   47.5540   31.9610   48.4880 C   0  0  0  0  0  0  0  0  0  0  0  0
   47.5470   32.5280   47.3160 O   0  0  0  0  0  0  0  0  0  0  0  0
   48.6640   31.4920   49.2440 N   0  0  0  0  0  0  0  0  0  0  0  0
   49.8210   32.0650   49.5870 C   0  0  0  0  0  0  0  0  0  0  0  0
   50.5290   31.1600   50.3220 N   0  0  0  0  0  0  0  0  0  0  0  0
   49.7900   30.0190   50.4250 C   0  0  0  0  0  0  0  0  0  0  0  0
   48.6530   30.2550   49.7540 N   0  0  0  0  0  0  0  0  0  0  0  0
   44.8543   35.3853   43.4367 H   0  0  0  0  0  0  0  0  0  0  0  0
   44.3887   34.5987   45.9839 H   0  0  0  0  0  0  0  0  0  0  0  0
   49.4836   36.0549   40.6328 H   0  0  0  0  0  0  0  0  0  0  0  0
   48.4677   34.7999   38.6814 H   0  0  0  0  0  0  0  0  0  0  0  0
   46.5830   33.2150   39.1274 H   0  0  0  0  0  0  0  0  0  0  0  0
   44.3361   32.5473   47.9037 H   0  0  0  0  0  0  0  0  0  0  0  0
   45.8849   31.4633   49.8458 H   0  0  0  0  0  0  0  0  0  0  0  0
   50.1444   33.0830   49.3241 H   0  0  0  0  0  0  0  0  0  0  0  0
   50.0692   29.0940   50.9509 H   0  0  0  0  0  0  0  0  0  0  0  0
  1  2  1  0
  1  5  2  0
  2  3  2  0
  3  4  1  0
  4 12  1  0
  5  4  1  0
  6 11  2  0
  7  8  2  0
  7  6  1  0
  8  9  1  0
  9 10  2  0
 10  1  1  0
 11 10  1  0
 12 16  1  0
 12 13  2  0
 13 14  1  0
 15 14  2  0
 15 17  1  0
 16 15  1  0
 17 18  1  0
 17 21  1  0
 18 19  2  0
 19 20  1  0
 21 20  2  0
  2 22  1  0
  3 23  1  0
  6 24  1  0
  7 25  1  0
  8 26  1  0
 13 27  1  0
 14 28  1  0
 18 29  1  0
 20 30  1  0
M  ISO  8  22  14  23  14  24  14  25  14  26  14  27  14  28  14  29  14
M  ISO  1  30  14
M  END
>  <minimizedAffinity>  (1) 
-5.8943553

>  <minimizedRMSD>  (1) 
0.343429744

$$$$
