
     RDKit          3D

 30 32  0  0  0  0  0  0  0  0999 V2000
   46.6150   34.0290   43.7860 C   0  0  0  0  0  0  0  0  0  0  0  0
   45.5050   34.7240   44.2460 C   0  0  0  0  0  0  0  0  0  0  0  0
   45.2170   34.2930   45.5400 C   0  0  0  0  0  0  0  0  0  0  0  0
   46.1700   33.3450   45.8190 N   0  0  0  0  0  0  0  0  0  0  0  0
   46.9850   33.1910   44.7980 N   0  0  0  0  0  0  0  0  0  0  0  0
   48.6930   35.3070   41.0470 C   0  0  0  0  0  0  0  0  0  0  0  0
   48.1160   34.6780   39.9300 C   0  0  0  0  0  0  0  0  0  0  0  0
   47.0350   33.8360   40.1380 C   0  0  0  0  0  0  0  0  0  0  0  0
   46.5790   33.6530   41.4130 N   0  0  0  0  0  0  0  0  0  0  0  0
   47.1500   34.2680   42.4620 C   0  0  0  0  0  0  0  0  0  0  0  0
   48.1980   35.0890   42.2890 N   0  0  0  0  0  0  0  0  0  0  0  0
   46.1980   32.6780   47.0630 C   0  0  0  0  0  0  0  0  0  0  0  0
   45.2860   32.4470   48.0800 C   0  0  0  0  0  0  0  0  0  0  0  0
   46.0000   31.7120   49.0140 C   0  0  0  0  0  0  0  0  0  0  0  0
   47.2990   31.5320   48.5260 C   0  0  0  0  0  0  0  0  0  0  0  0
   47.3420   32.1280   47.3730 O   0  0  0  0  0  0  0  0  0  0  0  0
   48.3540   30.7840   49.2680 C   0  0  0  0  0  0  0  0  0  0  0  0
   49.5420   31.7140   49.3970 C   0  0  0  0  0  0  0  0  0  0  0  0
   44.9464   35.4868   43.6838 H   0  0  0  0  0  0  0  0  0  0  0  0
   44.4032   34.6375   46.1950 H   0  0  0  0  0  0  0  0  0  0  0  0
   49.5520   35.9806   40.9116 H   0  0  0  0  0  0  0  0  0  0  0  0
   48.5118   34.8495   38.9181 H   0  0  0  0  0  0  0  0  0  0  0  0
   46.5529   33.3243   39.2920 H   0  0  0  0  0  0  0  0  0  0  0  0
   44.2365   32.7720   48.1341 H   0  0  0  0  0  0  0  0  0  0  0  0
   45.6125   31.3357   49.9723 H   0  0  0  0  0  0  0  0  0  0  0  0
   47.9861   30.4993   50.2648 H   0  0  0  0  0  0  0  0  0  0  0  0
   48.6311   29.8616   48.7366 H   0  0  0  0  0  0  0  0  0  0  0  0
   49.7601   31.8847   50.4616 H   0  0  0  0  0  0  0  0  0  0  0  0
   50.4181   31.2592   48.9116 H   0  0  0  0  0  0  0  0  0  0  0  0
   49.3108   32.6736   48.9116 H   0  0  0  0  0  0  0  0  0  0  0  0
  1  2  1  0
  1  5  2  0
  2  3  2  0
  3  4  1  0
  4 12  1  0
  5  4  1  0
  6 11  2  0
  7  8  2  0
  7  6  1  0
  8  9  1  0
  9 10  2  0
 10  1  1  0
 11 10  1  0
 12 16  1  0
 12 13  2  0
 13 14  1  0
 15 14  2  0
 15 17  1  0
 16 15  1  0
 17 18  1  0
  2 19  1  0
  3 20  1  0
  6 21  1  0
  7 22  1  0
  8 23  1  0
 13 24  1  0
 14 25  1  0
 17 26  1  0
 17 27  1  0
 18 28  1  0
 18 29  1  0
 18 30  1  0
M  ISO  8  19  14  20  14  21  14  22  14  23  14  24  14  25  14  26   8
M  ISO  4  27   8  28   8  29   8  30   8
M  END
>  <minimizedAffinity>  (1) 
-5.49585581

>  <minimizedRMSD>  (1) 
0.295653552

$$$$
