
     RDKit          3D

 36 39  0  0  0  0  0  0  0  0999 V2000
   46.6640   34.0480   43.5700 C   0  0  0  0  0  0  0  0  0  0  0  0
   45.4920   34.6690   43.9960 C   0  0  0  0  0  0  0  0  0  0  0  0
   45.2520   34.2710   45.3180 C   0  0  0  0  0  0  0  0  0  0  0  0
   46.2830   33.4350   45.6280 N   0  0  0  0  0  0  0  0  0  0  0  0
   47.1050   33.3060   44.6110 N   0  0  0  0  0  0  0  0  0  0  0  0
   48.6400   35.3370   40.7460 C   0  0  0  0  0  0  0  0  0  0  0  0
   48.0800   34.6440   39.6640 C   0  0  0  0  0  0  0  0  0  0  0  0
   47.0490   33.7600   39.9240 C   0  0  0  0  0  0  0  0  0  0  0  0
   46.6170   33.5940   41.2050 N   0  0  0  0  0  0  0  0  0  0  0  0
   47.1740   34.2720   42.2240 C   0  0  0  0  0  0  0  0  0  0  0  0
   48.1870   35.1500   42.0210 N   0  0  0  0  0  0  0  0  0  0  0  0
   46.3830   32.8280   46.8970 C   0  0  0  0  0  0  0  0  0  0  0  0
   45.4730   32.4910   47.9080 C   0  0  0  0  0  0  0  0  0  0  0  0
   46.2710   31.9160   48.8880 C   0  0  0  0  0  0  0  0  0  0  0  0
   47.5770   31.9280   48.4450 C   0  0  0  0  0  0  0  0  0  0  0  0
   47.5870   32.4730   47.2750 O   0  0  0  0  0  0  0  0  0  0  0  0
   48.6530   31.4080   49.2160 N   0  0  0  0  0  0  0  0  0  0  0  0
   48.7350   30.0610   49.7470 C   0  0  0  0  0  0  0  0  0  0  0  0
   50.1090   29.9290   50.3150 C   0  0  0  0  0  0  0  0  0  0  0  0
   50.4690   31.3430   50.7270 C   0  0  0  0  0  0  0  0  0  0  0  0
   49.8480   32.1410   49.6000 C   0  0  0  0  0  0  0  0  0  0  0  0
   44.8664   35.3504   43.4007 H   0  0  0  0  0  0  0  0  0  0  0  0
   44.4137   34.5686   45.9650 H   0  0  0  0  0  0  0  0  0  0  0  0
   49.4612   36.0461   40.5647 H   0  0  0  0  0  0  0  0  0  0  0  0
   48.4493   34.7986   38.6395 H   0  0  0  0  0  0  0  0  0  0  0  0
   46.5818   33.1957   39.1034 H   0  0  0  0  0  0  0  0  0  0  0  0
   44.3840   32.6455   47.9219 H   0  0  0  0  0  0  0  0  0  0  0  0
   45.9215   31.5189   49.8524 H   0  0  0  0  0  0  0  0  0  0  0  0
   47.9800   29.9128   50.5331 H   0  0  0  0  0  0  0  0  0  0  0  0
   48.5453   29.3074   48.9685 H   0  0  0  0  0  0  0  0  0  0  0  0
   50.1102   29.2554   51.1846 H   0  0  0  0  0  0  0  0  0  0  0  0
   50.8253   29.4998   49.5990 H   0  0  0  0  0  0  0  0  0  0  0  0
   50.0262   31.6054   51.6991 H   0  0  0  0  0  0  0  0  0  0  0  0
   51.5470   31.5145   50.8628 H   0  0  0  0  0  0  0  0  0  0  0  0
   50.5440   32.2129   48.7512 H   0  0  0  0  0  0  0  0  0  0  0  0
   49.6129   33.1698   49.9104 H   0  0  0  0  0  0  0  0  0  0  0  0
  1  2  1  0
  1  5  2  0
  2  3  2  0
  3  4  1  0
  4 12  1  0
  5  4  1  0
  6 11  2  0
  7  8  2  0
  7  6  1  0
  8  9  1  0
  9 10  2  0
 10  1  1  0
 11 10  1  0
 12 16  1  0
 12 13  2  0
 13 14  1  0
 15 14  2  0
 15 17  1  0
 16 15  1  0
 17 21  1  0
 17 18  1  0
 18 19  1  0
 19 20  1  0
 21 20  1  0
  2 22  1  0
  3 23  1  0
  6 24  1  0
  7 25  1  0
  8 26  1  0
 13 27  1  0
 14 28  1  0
 18 29  1  0
 18 30  1  0
 19 31  1  0
 19 32  1  0
 20 33  1  0
 20 34  1  0
 21 35  1  0
 21 36  1  0
M  ISO  8  22  14  23  14  24  14  25  14  26  14  27  14  28  14  29  13
M  ISO  7  30  13  31  13  32  13  33  13  34  13  35  13  36  13
M  END
>  <minimizedAffinity>  (1) 
-5.66077328

>  <minimizedRMSD>  (1) 
0.355918199

$$$$
