
     RDKit          3D

 25 27  0  0  0  0  0  0  0  0999 V2000
   46.5730   34.0550   43.8170 C   0  0  0  0  0  0  0  0  0  0  0  0
   45.4630   34.7790   44.2490 C   0  0  0  0  0  0  0  0  0  0  0  0
   45.1520   34.3650   45.5400 C   0  0  0  0  0  0  0  0  0  0  0  0
   46.0820   33.4050   45.8460 N   0  0  0  0  0  0  0  0  0  0  0  0
   46.9090   33.2280   44.8340 N   0  0  0  0  0  0  0  0  0  0  0  0
   48.6950   35.2870   41.0850 C   0  0  0  0  0  0  0  0  0  0  0  0
   48.1100   34.6580   39.9600 C   0  0  0  0  0  0  0  0  0  0  0  0
   47.0110   33.8340   40.1660 C   0  0  0  0  0  0  0  0  0  0  0  0
   46.5510   33.6720   41.4410 N   0  0  0  0  0  0  0  0  0  0  0  0
   47.1260   34.2800   42.4930 C   0  0  0  0  0  0  0  0  0  0  0  0
   48.1850   35.0810   42.3310 N   0  0  0  0  0  0  0  0  0  0  0  0
   46.0790   32.7500   47.0920 C   0  0  0  0  0  0  0  0  0  0  0  0
   45.0990   32.3610   48.0040 C   0  0  0  0  0  0  0  0  0  0  0  0
   45.8210   31.7570   49.0260 C   0  0  0  0  0  0  0  0  0  0  0  0
   47.1800   31.8060   48.6950 C   0  0  0  0  0  0  0  0  0  0  0  0
   47.2590   32.4060   47.5400 O   0  0  0  0  0  0  0  0  0  0  0  0
   48.1560   31.2760   49.5320 O   0  0  0  0  0  0  0  0  0  0  0  0
   44.9263   35.5447   43.6697 H   0  0  0  0  0  0  0  0  0  0  0  0
   44.3344   34.7299   46.1791 H   0  0  0  0  0  0  0  0  0  0  0  0
   49.5660   35.9456   40.9523 H   0  0  0  0  0  0  0  0  0  0  0  0
   48.5149   34.8175   38.9497 H   0  0  0  0  0  0  0  0  0  0  0  0
   46.5231   33.3243   39.3221 H   0  0  0  0  0  0  0  0  0  0  0  0
   44.0102   32.4996   47.9316 H   0  0  0  0  0  0  0  0  0  0  0  0
   45.3967   31.3154   49.9398 H   0  0  0  0  0  0  0  0  0  0  0  0
   49.1102   31.3246   49.2726 H   0  0  0  0  0  0  0  0  0  0  0  0
  1  2  1  0
  1  5  2  0
  2  3  2  0
  3  4  1  0
  4 12  1  0
  5  4  1  0
  6 11  2  0
  7  8  2  0
  7  6  1  0
  8  9  1  0
  9 10  2  0
 10  1  1  0
 11 10  1  0
 12 16  1  0
 12 13  2  0
 13 14  1  0
 15 14  2  0
 15 17  1  0
 16 15  1  0
  2 18  1  0
  3 19  1  0
  6 20  1  0
  7 21  1  0
  8 22  1  0
 13 23  1  0
 14 24  1  0
 17 25  1  0
M  ISO  8  18  14  19  14  20  14  21  14  22  14  23  14  24  14  25   3
M  END
>  <minimizedAffinity>  (1) 
-5.62526703

>  <minimizedRMSD>  (1) 
0.139257267

$$$$
