
     RDKit          3D

 26 28  0  0  0  0  0  0  0  0999 V2000
   46.5920   34.1330   43.6140 C   0  0  0  0  0  0  0  0  0  0  0  0
   45.4750   34.8300   44.0360 C   0  0  0  0  0  0  0  0  0  0  0  0
   45.1810   34.4240   45.3320 C   0  0  0  0  0  0  0  0  0  0  0  0
   46.1320   33.4930   45.6500 N   0  0  0  0  0  0  0  0  0  0  0  0
   46.9660   33.3150   44.6470 N   0  0  0  0  0  0  0  0  0  0  0  0
   48.6990   35.3810   40.8630 C   0  0  0  0  0  0  0  0  0  0  0  0
   48.1610   34.7030   39.7600 C   0  0  0  0  0  0  0  0  0  0  0  0
   47.1040   33.8460   39.9830 C   0  0  0  0  0  0  0  0  0  0  0  0
   46.6140   33.6800   41.2450 N   0  0  0  0  0  0  0  0  0  0  0  0
   47.1490   34.3430   42.2830 C   0  0  0  0  0  0  0  0  0  0  0  0
   48.1900   35.1970   42.1190 N   0  0  0  0  0  0  0  0  0  0  0  0
   46.1420   32.8650   46.9100 C   0  0  0  0  0  0  0  0  0  0  0  0
   45.2020   32.6220   47.9090 C   0  0  0  0  0  0  0  0  0  0  0  0
   45.9210   31.9450   48.8850 C   0  0  0  0  0  0  0  0  0  0  0  0
   47.2440   31.8090   48.4440 C   0  0  0  0  0  0  0  0  0  0  0  0
   47.2980   32.3720   47.2770 O   0  0  0  0  0  0  0  0  0  0  0  0
   48.2450   31.1420   49.2470 C   0  0  0  0  0  0  0  0  0  0  0  0
   49.3460   31.6930   49.4360 O   0  0  0  0  0  0  0  0  0  0  0  0
   44.9173   35.5747   43.4492 H   0  0  0  0  0  0  0  0  0  0  0  0
   44.3565   34.7771   45.9688 H   0  0  0  0  0  0  0  0  0  0  0  0
   49.5429   36.0711   40.7160 H   0  0  0  0  0  0  0  0  0  0  0  0
   48.5690   34.8500   38.7491 H   0  0  0  0  0  0  0  0  0  0  0  0
   46.6557   33.2959   39.1425 H   0  0  0  0  0  0  0  0  0  0  0  0
   44.1381   32.9013   47.9217 H   0  0  0  0  0  0  0  0  0  0  0  0
   45.5203   31.5780   49.8414 H   0  0  0  0  0  0  0  0  0  0  0  0
   48.0357   30.1559   49.6873 H   0  0  0  0  0  0  0  0  0  0  0  0
  1  2  1  0
  1  5  2  0
  2  3  2  0
  3  4  1  0
  4 12  1  0
  5  4  1  0
  6 11  2  0
  7  8  2  0
  7  6  1  0
  8  9  1  0
  9 10  2  0
 10  1  1  0
 11 10  1  0
 12 16  1  0
 12 13  2  0
 13 14  1  0
 15 14  2  0
 15 17  1  0
 16 15  1  0
 17 18  2  0
  2 19  1  0
  3 20  1  0
  6 21  1  0
  7 22  1  0
  8 23  1  0
 13 24  1  0
 14 25  1  0
 17 26  1  0
M  ISO  8  19  14  20  14  21  14  22  14  23  14  24  14  25  14  26   6
M  END
>  <minimizedAffinity>  (1) 
-5.39714432

>  <minimizedRMSD>  (1) 
0.353548944

$$$$
