
     RDKit          3D

 45 50  0  0  0  0  0  0  0  0999 V2000
   46.3040   32.8050   46.7140 C   0  0  0  0  0  0  0  0  0  0  0  0
   45.4840   32.7280   47.8190 C   0  0  0  0  0  0  0  0  0  0  0  0
   46.1740   31.9180   48.7020 C   0  0  0  0  0  0  0  0  0  0  0  0
   47.3750   31.5350   48.1080 C   0  0  0  0  0  0  0  0  0  0  0  0
   47.3670   32.0990   46.9500 O   0  0  0  0  0  0  0  0  0  0  0  0
   46.6970   34.0960   43.4060 C   0  0  0  0  0  0  0  0  0  0  0  0
   45.5610   34.7760   43.8550 C   0  0  0  0  0  0  0  0  0  0  0  0
   45.2880   34.3570   45.1560 C   0  0  0  0  0  0  0  0  0  0  0  0
   46.2560   33.4460   45.4500 N   0  0  0  0  0  0  0  0  0  0  0  0
   47.0870   33.2830   44.4370 N   0  0  0  0  0  0  0  0  0  0  0  0
   48.7030   35.4510   40.6470 C   0  0  0  0  0  0  0  0  0  0  0  0
   48.1870   34.7340   39.5540 C   0  0  0  0  0  0  0  0  0  0  0  0
   47.1590   33.7960   39.7790 C   0  0  0  0  0  0  0  0  0  0  0  0
   46.7030   33.6200   41.0590 N   0  0  0  0  0  0  0  0  0  0  0  0
   47.2290   34.3300   42.0740 C   0  0  0  0  0  0  0  0  0  0  0  0
   48.2210   35.2460   41.9090 N   0  0  0  0  0  0  0  0  0  0  0  0
   48.3310   30.6950   48.7440 N   0  0  0  0  0  0  0  0  0  0  0  0
   49.0220   30.8690   49.9340 C   0  0  0  0  0  0  0  0  0  0  0  0
   49.7910   29.7730   50.1280 C   0  0  0  0  0  0  0  0  0  0  0  0
   49.5690   28.9780   49.0920 N   0  0  0  0  0  0  0  0  0  0  0  0
   48.6700   29.5210   48.2130 C   0  0  0  0  0  0  0  0  0  0  0  0
   48.2090   28.9430   46.9310 C   0  0  0  0  0  0  0  0  0  0  0  0
   48.9230   28.9670   45.8080 N   0  0  0  0  0  0  0  0  0  0  0  0
   48.5730   28.4740   44.6360 C   0  0  0  0  0  0  0  0  0  0  0  0
   47.3610   27.8600   44.5010 N   0  0  0  0  0  0  0  0  0  0  0  0
   46.5430   27.7760   45.5870 C   0  0  0  0  0  0  0  0  0  0  0  0
   45.3280   27.1580   45.4310 C   0  0  0  0  0  0  0  0  0  0  0  0
   44.4660   27.0490   46.5000 C   0  0  0  0  0  0  0  0  0  0  0  0
   44.8850   27.5900   47.7200 C   0  0  0  0  0  0  0  0  0  0  0  0
   46.1190   28.1930   47.7890 C   0  0  0  0  0  0  0  0  0  0  0  0
   46.9980   28.3220   46.7640 C   0  0  0  0  0  0  0  0  0  0  0  0
   44.5028   33.2033   47.9654 H   0  0  0  0  0  0  0  0  0  0  0  0
   45.8321   31.6249   49.7056 H   0  0  0  0  0  0  0  0  0  0  0  0
   44.9824   35.5144   43.2806 H   0  0  0  0  0  0  0  0  0  0  0  0
   44.4661   34.6910   45.8063 H   0  0  0  0  0  0  0  0  0  0  0  0
   49.5048   36.1863   40.4845 H   0  0  0  0  0  0  0  0  0  0  0  0
   48.5787   34.9019   38.5399 H   0  0  0  0  0  0  0  0  0  0  0  0
   46.7325   33.2184   38.9457 H   0  0  0  0  0  0  0  0  0  0  0  0
   48.9565   31.7416   50.6005 H   0  0  0  0  0  0  0  0  0  0  0  0
   50.4651   29.5807   50.9757 H   0  0  0  0  0  0  0  0  0  0  0  0
   49.2518   28.5568   43.7744 H   0  0  0  0  0  0  0  0  0  0  0  0
   45.0418   26.7489   44.4508 H   0  0  0  0  0  0  0  0  0  0  0  0
   43.4877   26.5564   46.3983 H   0  0  0  0  0  0  0  0  0  0  0  0
   44.2389   27.5341   48.6085 H   0  0  0  0  0  0  0  0  0  0  0  0
   46.4201   28.6077   48.7623 H   0  0  0  0  0  0  0  0  0  0  0  0
  1  5  1  0
  1  2  2  0
  2  3  1  0
  4  3  2  0
  4 17  1  0
  5  4  1  0
  6  7  1  0
  6 10  2  0
  7  8  2  0
  8  9  1  0
  9  1  1  0
 10  9  1  0
 11 16  2  0
 12 13  2  0
 12 11  1  0
 13 14  1  0
 14 15  2  0
 15  6  1  0
 16 15  1  0
 17 18  1  0
 18 19  2  0
 20 19  1  0
 21 17  1  0
 21 20  2  0
 22 21  1  0
 23 22  2  0
 24 23  1  0
 25 24  2  0
 25 26  1  0
 26 31  2  0
 27 26  1  0
 27 28  2  0
 28 29  1  0
 29 30  2  0
 31 22  1  0
 31 30  1  0
  2 32  1  0
  3 33  1  0
  7 34  1  0
  8 35  1  0
 11 36  1  0
 12 37  1  0
 13 38  1  0
 18 39  1  0
 19 40  1  0
 24 41  1  0
 27 42  1  0
 28 43  1  0
 29 44  1  0
 30 45  1  0
M  ISO  8  32  14  33  14  34  14  35  14  36  14  37  14  38  14  39  14
M  ISO  6  40  14  41  14  42  14  43  14  44  14  45  14
M  END
>  <minimizedAffinity>  (1) 
-6.25794029

>  <minimizedRMSD>  (1) 
2.39751029

$$$$
