
     RDKit          3D

 41 45  0  0  0  0  0  0  0  0999 V2000
   46.3010   32.7390   46.9000 C   0  0  0  0  0  0  0  0  0  0  0  0
   45.4610   32.5800   47.9890 C   0  0  0  0  0  0  0  0  0  0  0  0
   46.1750   31.8000   48.8710 C   0  0  0  0  0  0  0  0  0  0  0  0
   47.4030   31.5100   48.3110 C   0  0  0  0  0  0  0  0  0  0  0  0
   47.4050   32.1010   47.1420 O   0  0  0  0  0  0  0  0  0  0  0  0
   46.6680   34.0630   43.6030 C   0  0  0  0  0  0  0  0  0  0  0  0
   45.5280   34.7210   44.0620 C   0  0  0  0  0  0  0  0  0  0  0  0
   45.2620   34.2910   45.3640 C   0  0  0  0  0  0  0  0  0  0  0  0
   46.2270   33.4020   45.6570 N   0  0  0  0  0  0  0  0  0  0  0  0
   47.0710   33.2520   44.6280 N   0  0  0  0  0  0  0  0  0  0  0  0
   48.6850   35.3890   40.8470 C   0  0  0  0  0  0  0  0  0  0  0  0
   48.1450   34.7190   39.7450 C   0  0  0  0  0  0  0  0  0  0  0  0
   47.0960   33.8220   39.9670 C   0  0  0  0  0  0  0  0  0  0  0  0
   46.6390   33.6320   41.2420 N   0  0  0  0  0  0  0  0  0  0  0  0
   47.1970   34.3050   42.2700 C   0  0  0  0  0  0  0  0  0  0  0  0
   48.2010   35.1710   42.0940 N   0  0  0  0  0  0  0  0  0  0  0  0
   48.4040   30.7300   48.9330 N   0  0  0  0  0  0  0  0  0  0  0  0
   49.1770   30.9080   50.0460 C   0  0  0  0  0  0  0  0  0  0  0  0
   49.9970   29.8240   50.1970 C   0  0  0  0  0  0  0  0  0  0  0  0
   49.7110   28.9900   49.1660 N   0  0  0  0  0  0  0  0  0  0  0  0
   48.7510   29.5440   48.4120 C   0  0  0  0  0  0  0  0  0  0  0  0
   48.3370   28.7550   47.2560 C   0  0  0  0  0  0  0  0  0  0  0  0
   47.2270   27.9120   47.2730 C   0  0  0  0  0  0  0  0  0  0  0  0
   46.8710   27.1790   46.1470 C   0  0  0  0  0  0  0  0  0  0  0  0
   47.6520   27.3140   45.0170 C   0  0  0  0  0  0  0  0  0  0  0  0
   48.7650   28.1330   44.9360 C   0  0  0  0  0  0  0  0  0  0  0  0
   49.0940   28.8560   46.0870 C   0  0  0  0  0  0  0  0  0  0  0  0
   44.4475   32.9868   48.1205 H   0  0  0  0  0  0  0  0  0  0  0  0
   45.8249   31.4637   49.8581 H   0  0  0  0  0  0  0  0  0  0  0  0
   44.9374   35.4552   43.4944 H   0  0  0  0  0  0  0  0  0  0  0  0
   44.4351   34.6127   46.0142 H   0  0  0  0  0  0  0  0  0  0  0  0
   49.5111   36.1003   40.7004 H   0  0  0  0  0  0  0  0  0  0  0  0
   48.5349   34.8929   38.7312 H   0  0  0  0  0  0  0  0  0  0  0  0
   46.6436   33.2756   39.1263 H   0  0  0  0  0  0  0  0  0  0  0  0
   49.1448   31.7822   50.7128 H   0  0  0  0  0  0  0  0  0  0  0  0
   50.7383   29.6613   50.9932 H   0  0  0  0  0  0  0  0  0  0  0  0
   46.6249   27.8257   48.1895 H   0  0  0  0  0  0  0  0  0  0  0  0
   45.9955   26.5131   46.1561 H   0  0  0  0  0  0  0  0  0  0  0  0
   47.3724   26.7344   44.1249 H   0  0  0  0  0  0  0  0  0  0  0  0
   49.3599   28.2111   44.0140 H   0  0  0  0  0  0  0  0  0  0  0  0
   49.9705   29.5205   46.0710 H   0  0  0  0  0  0  0  0  0  0  0  0
  1  5  1  0
  1  2  2  0
  2  3  1  0
  4  3  2  0
  4 17  1  0
  5  4  1  0
  6  7  1  0
  6 10  2  0
  7  8  2  0
  8  9  1  0
  9  1  1  0
 10  9  1  0
 11 16  2  0
 12 13  2  0
 12 11  1  0
 13 14  1  0
 14 15  2  0
 15  6  1  0
 16 15  1  0
 17 18  1  0
 18 19  2  0
 20 19  1  0
 21 17  1  0
 21 20  2  0
 22 23  2  0
 22 21  1  0
 24 23  1  0
 25 24  2  0
 26 25  1  0
 26 27  2  0
 27 22  1  0
  2 28  1  0
  3 29  1  0
  7 30  1  0
  8 31  1  0
 11 32  1  0
 12 33  1  0
 13 34  1  0
 18 35  1  0
 19 36  1  0
 23 37  1  0
 24 38  1  0
 25 39  1  0
 26 40  1  0
 27 41  1  0
M  ISO  8  28  14  29  14  30  14  31  14  32  14  33  14  34  14  35  14
M  ISO  6  36  14  37  14  38  14  39  14  40  14  41  14
M  END
>  <minimizedAffinity>  (1) 
-5.93586826

>  <minimizedRMSD>  (1) 
1.95293498

$$$$
