
     RDKit          3D

 40 44  0  0  0  0  0  0  0  0999 V2000
   46.3340   32.7270   46.8840 C   0  0  0  0  0  0  0  0  0  0  0  0
   45.5010   32.5760   47.9730 C   0  0  0  0  0  0  0  0  0  0  0  0
   46.2300   31.8010   48.8660 C   0  0  0  0  0  0  0  0  0  0  0  0
   47.4630   31.5170   48.2860 C   0  0  0  0  0  0  0  0  0  0  0  0
   47.4480   32.0920   47.1280 O   0  0  0  0  0  0  0  0  0  0  0  0
   46.6730   34.0470   43.5920 C   0  0  0  0  0  0  0  0  0  0  0  0
   45.5340   34.7070   44.0530 C   0  0  0  0  0  0  0  0  0  0  0  0
   45.2810   34.2740   45.3510 C   0  0  0  0  0  0  0  0  0  0  0  0
   46.2660   33.3740   45.6330 N   0  0  0  0  0  0  0  0  0  0  0  0
   47.0910   33.2300   44.6120 N   0  0  0  0  0  0  0  0  0  0  0  0
   48.6880   35.3960   40.8330 C   0  0  0  0  0  0  0  0  0  0  0  0
   48.1310   34.7240   39.7250 C   0  0  0  0  0  0  0  0  0  0  0  0
   47.0780   33.8260   39.9520 C   0  0  0  0  0  0  0  0  0  0  0  0
   46.6260   33.6290   41.2290 N   0  0  0  0  0  0  0  0  0  0  0  0
   47.1940   34.2960   42.2530 C   0  0  0  0  0  0  0  0  0  0  0  0
   48.2160   35.1760   42.0880 N   0  0  0  0  0  0  0  0  0  0  0  0
   48.4700   30.7380   48.9270 N   0  0  0  0  0  0  0  0  0  0  0  0
   49.2630   31.0200   50.0250 C   0  0  0  0  0  0  0  0  0  0  0  0
   50.0490   29.9180   50.2370 C   0  0  0  0  0  0  0  0  0  0  0  0
   49.7300   29.0190   49.2980 N   0  0  0  0  0  0  0  0  0  0  0  0
   48.7570   29.5110   48.4810 C   0  0  0  0  0  0  0  0  0  0  0  0
   48.2700   28.7000   47.3750 C   0  0  0  0  0  0  0  0  0  0  0  0
   48.8160   28.7480   46.1160 C   0  0  0  0  0  0  0  0  0  0  0  0
   48.3940   28.0060   45.0460 C   0  0  0  0  0  0  0  0  0  0  0  0
   47.3420   27.1320   45.2060 C   0  0  0  0  0  0  0  0  0  0  0  0
   46.7840   27.0720   46.4660 C   0  0  0  0  0  0  0  0  0  0  0  0
   47.2540   27.8310   47.4590 N   0  0  0  0  0  0  0  0  0  0  0  0
   44.4861   32.9792   48.1048 H   0  0  0  0  0  0  0  0  0  0  0  0
   45.8917   31.4694   49.8588 H   0  0  0  0  0  0  0  0  0  0  0  0
   44.9398   35.4412   43.4892 H   0  0  0  0  0  0  0  0  0  0  0  0
   44.4597   34.5909   46.0106 H   0  0  0  0  0  0  0  0  0  0  0  0
   49.5138   36.1062   40.6794 H   0  0  0  0  0  0  0  0  0  0  0  0
   48.5129   34.8998   38.7085 H   0  0  0  0  0  0  0  0  0  0  0  0
   46.6194   33.2847   39.1114 H   0  0  0  0  0  0  0  0  0  0  0  0
   49.2626   31.9491   50.6138 H   0  0  0  0  0  0  0  0  0  0  0  0
   50.8012   29.7951   51.0302 H   0  0  0  0  0  0  0  0  0  0  0  0
   49.6585   29.4366   45.9547 H   0  0  0  0  0  0  0  0  0  0  0  0
   48.8897   28.1068   44.0692 H   0  0  0  0  0  0  0  0  0  0  0  0
   46.9675   26.5160   44.3752 H   0  0  0  0  0  0  0  0  0  0  0  0
   45.9415   26.3905   46.6551 H   0  0  0  0  0  0  0  0  0  0  0  0
  1  5  1  0
  1  2  2  0
  2  3  1  0
  4  3  2  0
  4 17  1  0
  5  4  1  0
  6  7  1  0
  6 10  2  0
  7  8  2  0
  8  9  1  0
  9  1  1  0
 10  9  1  0
 11 16  2  0
 12 13  2  0
 12 11  1  0
 13 14  1  0
 14 15  2  0
 15  6  1  0
 16 15  1  0
 17 18  1  0
 18 19  2  0
 20 19  1  0
 21 17  1  0
 21 20  2  0
 22 27  1  0
 22 21  1  0
 23 22  2  0
 24 25  2  0
 24 23  1  0
 25 26  1  0
 26 27  2  0
  2 28  1  0
  3 29  1  0
  7 30  1  0
  8 31  1  0
 11 32  1  0
 12 33  1  0
 13 34  1  0
 18 35  1  0
 19 36  1  0
 23 37  1  0
 24 38  1  0
 25 39  1  0
 26 40  1  0
M  ISO  8  28  14  29  14  30  14  31  14  32  14  33  14  34  14  35  14
M  ISO  5  36  14  37  14  38  14  39  14  40  14
M  END
>  <minimizedAffinity>  (1) 
-5.86732912

>  <minimizedRMSD>  (1) 
1.79372358

$$$$
