
     RDKit          3D

 39 43  0  0  0  0  0  0  0  0999 V2000
   46.3860   32.6780   46.9640 C   0  0  0  0  0  0  0  0  0  0  0  0
   45.5570   32.5150   48.0560 C   0  0  0  0  0  0  0  0  0  0  0  0
   46.2960   31.7380   48.9340 C   0  0  0  0  0  0  0  0  0  0  0  0
   47.5300   31.4610   48.3500 C   0  0  0  0  0  0  0  0  0  0  0  0
   47.4970   32.0500   47.2020 O   0  0  0  0  0  0  0  0  0  0  0  0
   46.6880   34.0050   43.6680 C   0  0  0  0  0  0  0  0  0  0  0  0
   45.5480   34.6550   44.1400 C   0  0  0  0  0  0  0  0  0  0  0  0
   45.3050   34.2240   45.4420 C   0  0  0  0  0  0  0  0  0  0  0  0
   46.2770   33.3440   45.7310 N   0  0  0  0  0  0  0  0  0  0  0  0
   47.1070   33.2000   44.6920 N   0  0  0  0  0  0  0  0  0  0  0  0
   48.6690   35.3500   40.8910 C   0  0  0  0  0  0  0  0  0  0  0  0
   48.0970   34.6960   39.7920 C   0  0  0  0  0  0  0  0  0  0  0  0
   47.0350   33.7980   40.0170 C   0  0  0  0  0  0  0  0  0  0  0  0
   46.5990   33.5960   41.3010 N   0  0  0  0  0  0  0  0  0  0  0  0
   47.1910   34.2570   42.3240 C   0  0  0  0  0  0  0  0  0  0  0  0
   48.2170   35.1320   42.1650 N   0  0  0  0  0  0  0  0  0  0  0  0
   48.5360   30.6830   48.9800 N   0  0  0  0  0  0  0  0  0  0  0  0
   49.3290   30.9430   50.0820 C   0  0  0  0  0  0  0  0  0  0  0  0
   50.1230   29.8550   50.2760 C   0  0  0  0  0  0  0  0  0  0  0  0
   49.8150   28.9710   49.3200 N   0  0  0  0  0  0  0  0  0  0  0  0
   48.8360   29.4710   48.5120 C   0  0  0  0  0  0  0  0  0  0  0  0
   48.3530   28.6790   47.3840 C   0  0  0  0  0  0  0  0  0  0  0  0
   49.0030   28.6690   46.1700 C   0  0  0  0  0  0  0  0  0  0  0  0
   48.6250   27.9590   45.0550 C   0  0  0  0  0  0  0  0  0  0  0  0
   47.5200   27.2060   45.1660 N   0  0  0  0  0  0  0  0  0  0  0  0
   46.8450   27.1840   46.3460 C   0  0  0  0  0  0  0  0  0  0  0  0
   47.2770   27.9060   47.3910 N   0  0  0  0  0  0  0  0  0  0  0  0
   44.5408   32.9117   48.1971 H   0  0  0  0  0  0  0  0  0  0  0  0
   45.9638   31.3972   49.9257 H   0  0  0  0  0  0  0  0  0  0  0  0
   44.9438   35.3837   43.5797 H   0  0  0  0  0  0  0  0  0  0  0  0
   44.4828   34.5406   46.1005 H   0  0  0  0  0  0  0  0  0  0  0  0
   49.4987   36.0534   40.7270 H   0  0  0  0  0  0  0  0  0  0  0  0
   48.4697   34.8800   38.7735 H   0  0  0  0  0  0  0  0  0  0  0  0
   46.5635   33.2678   39.1764 H   0  0  0  0  0  0  0  0  0  0  0  0
   49.3199   31.8598   50.6897 H   0  0  0  0  0  0  0  0  0  0  0  0
   50.8752   29.7267   51.0683 H   0  0  0  0  0  0  0  0  0  0  0  0
   49.9092   29.2867   46.0844 H   0  0  0  0  0  0  0  0  0  0  0  0
   49.1999   28.0059   44.1184 H   0  0  0  0  0  0  0  0  0  0  0  0
   45.9379   26.5696   46.4446 H   0  0  0  0  0  0  0  0  0  0  0  0
  1  5  1  0
  1  2  2  0
  2  3  1  0
  4  3  2  0
  4 17  1  0
  5  4  1  0
  6  7  1  0
  6 10  2  0
  7  8  2  0
  8  9  1  0
  9  1  1  0
 10  9  1  0
 11 16  2  0
 12 13  2  0
 12 11  1  0
 13 14  1  0
 14 15  2  0
 15  6  1  0
 16 15  1  0
 17 18  1  0
 18 19  2  0
 20 19  1  0
 21 17  1  0
 21 20  2  0
 22 27  1  0
 22 21  1  0
 23 22  2  0
 24 25  2  0
 24 23  1  0
 25 26  1  0
 26 27  2  0
  2 28  1  0
  3 29  1  0
  7 30  1  0
  8 31  1  0
 11 32  1  0
 12 33  1  0
 13 34  1  0
 18 35  1  0
 19 36  1  0
 23 37  1  0
 24 38  1  0
 26 39  1  0
M  ISO  8  28  14  29  14  30  14  31  14  32  14  33  14  34  14  35  14
M  ISO  4  36  14  37  14  38  14  39  14
M  END
>  <minimizedAffinity>  (1) 
-5.88002634

>  <minimizedRMSD>  (1) 
1.74688613

$$$$
