
     RDKit          3D

 44 48  0  0  0  0  0  0  0  0999 V2000
   46.3320   32.7660   46.8860 C   0  0  0  0  0  0  0  0  0  0  0  0
   45.4710   32.5480   47.9460 C   0  0  0  0  0  0  0  0  0  0  0  0
   46.2200   31.8240   48.8630 C   0  0  0  0  0  0  0  0  0  0  0  0
   47.4900   31.6290   48.3360 C   0  0  0  0  0  0  0  0  0  0  0  0
   47.4780   32.2120   47.1710 O   0  0  0  0  0  0  0  0  0  0  0  0
   46.6790   34.0640   43.5910 C   0  0  0  0  0  0  0  0  0  0  0  0
   45.5290   34.7180   44.0270 C   0  0  0  0  0  0  0  0  0  0  0  0
   45.2680   34.2900   45.3410 C   0  0  0  0  0  0  0  0  0  0  0  0
   46.2560   33.4140   45.6340 N   0  0  0  0  0  0  0  0  0  0  0  0
   47.0900   33.2710   44.6210 N   0  0  0  0  0  0  0  0  0  0  0  0
   48.6720   35.3880   40.8070 C   0  0  0  0  0  0  0  0  0  0  0  0
   48.1230   34.7120   39.7130 C   0  0  0  0  0  0  0  0  0  0  0  0
   47.0840   33.8160   39.9370 C   0  0  0  0  0  0  0  0  0  0  0  0
   46.6460   33.6370   41.2160 N   0  0  0  0  0  0  0  0  0  0  0  0
   47.2040   34.3100   42.2420 C   0  0  0  0  0  0  0  0  0  0  0  0
   48.2080   35.1840   42.0730 N   0  0  0  0  0  0  0  0  0  0  0  0
   48.5270   30.9290   48.9970 N   0  0  0  0  0  0  0  0  0  0  0  0
   49.4050   31.2720   49.9790 C   0  0  0  0  0  0  0  0  0  0  0  0
   50.2030   30.1940   50.2450 C   0  0  0  0  0  0  0  0  0  0  0  0
   49.7950   29.2000   49.4120 N   0  0  0  0  0  0  0  0  0  0  0  0
   48.7770   29.6450   48.6530 C   0  0  0  0  0  0  0  0  0  0  0  0
   48.1480   28.7430   47.6530 C   0  0  0  0  0  0  0  0  0  0  0  0
   48.6350   27.3180   47.8060 C   0  0  0  0  0  0  0  0  0  0  0  0
   49.9590   27.2260   47.0820 C   0  0  0  0  0  0  0  0  0  0  0  0
   49.9030   28.3140   46.0420 C   0  0  0  0  0  0  0  0  0  0  0  0
   48.6430   29.1150   46.2860 C   0  0  0  0  0  0  0  0  0  0  0  0
   44.4252   32.8755   48.0412 H   0  0  0  0  0  0  0  0  0  0  0  0
   45.8675   31.4654   49.8413 H   0  0  0  0  0  0  0  0  0  0  0  0
   44.9328   35.4388   43.4482 H   0  0  0  0  0  0  0  0  0  0  0  0
   44.4375   34.6013   45.9917 H   0  0  0  0  0  0  0  0  0  0  0  0
   49.4951   36.0990   40.6430 H   0  0  0  0  0  0  0  0  0  0  0  0
   48.5053   34.8856   38.6963 H   0  0  0  0  0  0  0  0  0  0  0  0
   46.6261   33.2646   39.1026 H   0  0  0  0  0  0  0  0  0  0  0  0
   49.4628   32.2520   50.4753 H   0  0  0  0  0  0  0  0  0  0  0  0
   51.0142   30.1414   50.9860 H   0  0  0  0  0  0  0  0  0  0  0  0
   47.0603   28.8307   47.7917 H   0  0  0  0  0  0  0  0  0  0  0  0
   48.7686   27.0762   48.8708 H   0  0  0  0  0  0  0  0  0  0  0  0
   47.9076   26.6064   47.3882 H   0  0  0  0  0  0  0  0  0  0  0  0
   50.7940   27.3968   47.7774 H   0  0  0  0  0  0  0  0  0  0  0  0
   50.1218   26.2332   46.6371 H   0  0  0  0  0  0  0  0  0  0  0  0
   49.8765   27.8702   45.0358 H   0  0  0  0  0  0  0  0  0  0  0  0
   50.7908   28.9599   46.1101 H   0  0  0  0  0  0  0  0  0  0  0  0
   48.8650   30.1915   46.2441 H   0  0  0  0  0  0  0  0  0  0  0  0
   47.8840   28.8982   45.5199 H   0  0  0  0  0  0  0  0  0  0  0  0
  1  5  1  0
  1  2  2  0
  2  3  1  0
  4  3  2  0
  4 17  1  0
  5  4  1  0
  6  7  1  0
  6 10  2  0
  7  8  2  0
  8  9  1  0
  9  1  1  0
 10  9  1  0
 11 16  2  0
 12 13  2  0
 12 11  1  0
 13 14  1  0
 14 15  2  0
 15  6  1  0
 16 15  1  0
 17 18  1  0
 18 19  2  0
 20 19  1  0
 21 17  1  0
 21 20  2  0
 22 23  1  0
 22 21  1  0
 24 23  1  0
 25 26  1  0
 25 24  1  0
 26 22  1  0
  2 27  1  0
  3 28  1  0
  7 29  1  0
  8 30  1  0
 11 31  1  0
 12 32  1  0
 13 33  1  0
 18 34  1  0
 19 35  1  0
 22 36  1  0
 23 37  1  0
 23 38  1  0
 24 39  1  0
 24 40  1  0
 25 41  1  0
 25 42  1  0
 26 43  1  0
 26 44  1  0
M  ISO  8  27  14  28  14  29  14  30  14  31  14  32  14  33  14  34  14
M  ISO  8  35  14  36  13  37  13  38  13  39  13  40  13  41  13  42  13
M  ISO  2  43  13  44  13
M  END
>  <minimizedAffinity>  (1) 
-5.89268827

>  <minimizedRMSD>  (1) 
1.04939318

$$$$
