
     RDKit          3D

 38 42  0  0  0  0  0  0  0  0999 V2000
   46.3680   32.6590   46.9520 C   0  0  0  0  0  0  0  0  0  0  0  0
   45.5340   32.4920   48.0390 C   0  0  0  0  0  0  0  0  0  0  0  0
   46.2570   31.6990   48.9200 C   0  0  0  0  0  0  0  0  0  0  0  0
   47.4730   31.4270   48.3360 C   0  0  0  0  0  0  0  0  0  0  0  0
   47.4650   32.0240   47.1840 O   0  0  0  0  0  0  0  0  0  0  0  0
   46.6740   34.0240   43.6680 C   0  0  0  0  0  0  0  0  0  0  0  0
   45.5470   34.6800   44.1440 C   0  0  0  0  0  0  0  0  0  0  0  0
   45.2940   34.2410   45.4480 C   0  0  0  0  0  0  0  0  0  0  0  0
   46.2690   33.3410   45.7180 N   0  0  0  0  0  0  0  0  0  0  0  0
   47.0980   33.1950   44.6820 N   0  0  0  0  0  0  0  0  0  0  0  0
   48.6760   35.3620   40.8940 C   0  0  0  0  0  0  0  0  0  0  0  0
   48.1170   34.7100   39.7990 C   0  0  0  0  0  0  0  0  0  0  0  0
   47.0600   33.8190   40.0180 C   0  0  0  0  0  0  0  0  0  0  0  0
   46.6080   33.6140   41.3020 N   0  0  0  0  0  0  0  0  0  0  0  0
   47.1900   34.2760   42.3230 C   0  0  0  0  0  0  0  0  0  0  0  0
   48.2020   35.1340   42.1490 N   0  0  0  0  0  0  0  0  0  0  0  0
   48.4950   30.6330   48.9470 N   0  0  0  0  0  0  0  0  0  0  0  0
   49.3100   30.8450   50.0320 C   0  0  0  0  0  0  0  0  0  0  0  0
   50.1100   29.7290   50.1610 C   0  0  0  0  0  0  0  0  0  0  0  0
   49.7680   28.8700   49.1620 N   0  0  0  0  0  0  0  0  0  0  0  0
   48.7890   29.4290   48.4320 C   0  0  0  0  0  0  0  0  0  0  0  0
   48.1820   28.7310   47.2430 C   0  0  0  0  0  0  0  0  0  0  0  0
   47.7660   27.2500   47.5050 C   0  0  0  0  0  0  0  0  0  0  0  0
   46.7710   28.3410   47.2590 C   0  0  0  0  0  0  0  0  0  0  0  0
   44.5208   32.8974   48.1768 H   0  0  0  0  0  0  0  0  0  0  0  0
   45.9187   31.3508   49.9071 H   0  0  0  0  0  0  0  0  0  0  0  0
   44.9526   35.4207   43.5890 H   0  0  0  0  0  0  0  0  0  0  0  0
   44.4771   34.5592   46.1124 H   0  0  0  0  0  0  0  0  0  0  0  0
   49.5071   36.0668   40.7439 H   0  0  0  0  0  0  0  0  0  0  0  0
   48.4977   34.8910   38.7830 H   0  0  0  0  0  0  0  0  0  0  0  0
   46.5957   33.2885   39.1736 H   0  0  0  0  0  0  0  0  0  0  0  0
   49.3223   31.7364   50.6763 H   0  0  0  0  0  0  0  0  0  0  0  0
   50.8808   29.5638   50.9282 H   0  0  0  0  0  0  0  0  0  0  0  0
   48.7974   29.2904   46.5230 H   0  0  0  0  0  0  0  0  0  0  0  0
   47.9459   26.4771   46.7432 H   0  0  0  0  0  0  0  0  0  0  0  0
   47.9459   26.5019   48.2911 H   0  0  0  0  0  0  0  0  0  0  0  0
   46.1266   28.6799   48.0836 H   0  0  0  0  0  0  0  0  0  0  0  0
   45.9446   28.4633   46.5433 H   0  0  0  0  0  0  0  0  0  0  0  0
  1  5  1  0
  1  2  2  0
  2  3  1  0
  4  3  2  0
  4 17  1  0
  5  4  1  0
  6  7  1  0
  6 10  2  0
  7  8  2  0
  8  9  1  0
  9  1  1  0
 10  9  1  0
 11 16  2  0
 12 13  2  0
 12 11  1  0
 13 14  1  0
 14 15  2  0
 15  6  1  0
 16 15  1  0
 17 18  1  0
 18 19  2  0
 20 19  1  0
 21 17  1  0
 21 20  2  0
 22 24  1  0
 22 23  1  0
 22 21  1  0
 24 23  1  0
  2 25  1  0
  3 26  1  0
  7 27  1  0
  8 28  1  0
 11 29  1  0
 12 30  1  0
 13 31  1  0
 18 32  1  0
 19 33  1  0
 22 34  1  0
 23 35  1  0
 23 36  1  0
 24 37  1  0
 24 38  1  0
M  ISO  8  25  14  26  14  27  14  28  14  29  14  30  14  31  14  32  14
M  ISO  6  33  14  34  13  35  13  36  13  37  13  38  13
M  END
>  <minimizedAffinity>  (1) 
-5.80565882

>  <minimizedRMSD>  (1) 
1.21231556

$$$$
