
     RDKit          3D

 51 56  0  0  1  0  0  0  0  0999 V2000
   46.3350   32.7000   46.8900 C   0  0  0  0  0  0  0  0  0  0  0  0
   45.5050   32.5630   47.9800 C   0  0  0  0  0  0  0  0  0  0  0  0
   46.1970   31.7510   48.8670 C   0  0  0  0  0  0  0  0  0  0  0  0
   47.3910   31.4430   48.2800 C   0  0  0  0  0  0  0  0  0  0  0  0
   47.4100   32.0340   47.1160 O   0  0  0  0  0  0  0  0  0  0  0  0
   46.6650   34.0610   43.6040 C   0  0  0  0  0  0  0  0  0  0  0  0
   45.5320   34.7220   44.0770 C   0  0  0  0  0  0  0  0  0  0  0  0
   45.2680   34.2880   45.3760 C   0  0  0  0  0  0  0  0  0  0  0  0
   46.2340   33.3870   45.6570 N   0  0  0  0  0  0  0  0  0  0  0  0
   47.0690   33.2370   44.6290 N   0  0  0  0  0  0  0  0  0  0  0  0
   48.6850   35.3930   40.8490 C   0  0  0  0  0  0  0  0  0  0  0  0
   48.1370   34.7370   39.7480 C   0  0  0  0  0  0  0  0  0  0  0  0
   47.0800   33.8460   39.9620 C   0  0  0  0  0  0  0  0  0  0  0  0
   46.6190   33.6440   41.2410 N   0  0  0  0  0  0  0  0  0  0  0  0
   47.1910   34.3080   42.2640 C   0  0  0  0  0  0  0  0  0  0  0  0
   48.2060   35.1710   42.0990 N   0  0  0  0  0  0  0  0  0  0  0  0
   48.4040   30.6190   48.8750 N   0  0  0  0  0  0  0  0  0  0  0  0
   49.2670   30.8400   49.9290 C   0  0  0  0  0  0  0  0  0  0  0  0
   50.0300   29.6960   50.0640 C   0  0  0  0  0  0  0  0  0  0  0  0
   49.6220   28.8150   49.1030 N   0  0  0  0  0  0  0  0  0  0  0  0
   48.6390   29.3910   48.3960 C   0  0  0  0  0  0  0  0  0  0  0  0
   47.9500   28.6800   47.2460 C   0  0  1  0  0  0  0  0  0  0  0  0
   47.6480   27.1650   47.5360 C   0  0  0  0  0  0  0  0  0  0  0  0
   46.5890   28.1960   47.3940 C   0  0  2  0  0  0  0  0  0  0  0  0
   45.7090   28.0540   46.2830 N   0  0  0  0  0  0  0  0  0  0  0  0
   46.2590   28.3470   45.0000 C   0  0  0  0  0  0  0  0  0  0  0  0
   45.1710   28.2960   43.9590 C   0  0  0  0  0  0  0  0  0  0  0  0
   44.0150   27.7410   44.4500 O   0  0  0  0  0  0  0  0  0  0  0  0
   43.4520   28.5040   45.4780 C   0  0  0  0  0  0  0  0  0  0  0  0
   44.5170   28.8570   46.5090 C   0  0  0  0  0  0  0  0  0  0  0  0
   44.5065   33.0033   48.1181 H   0  0  0  0  0  0  0  0  0  0  0  0
   45.8495   31.4182   49.8562 H   0  0  0  0  0  0  0  0  0  0  0  0
   44.9432   35.4638   43.5176 H   0  0  0  0  0  0  0  0  0  0  0  0
   44.4468   34.6112   46.0326 H   0  0  0  0  0  0  0  0  0  0  0  0
   49.5157   36.0991   40.7028 H   0  0  0  0  0  0  0  0  0  0  0  0
   48.5264   34.9157   38.7349 H   0  0  0  0  0  0  0  0  0  0  0  0
   46.6226   33.3127   39.1156 H   0  0  0  0  0  0  0  0  0  0  0  0
   49.3344   31.7504   50.5427 H   0  0  0  0  0  0  0  0  0  0  0  0
   50.8212   29.5258   50.8090 H   0  0  0  0  0  0  0  0  0  0  0  0
   48.4471   29.2899   46.4773 H   0  0  0  0  0  0  0  0  0  0  0  0
   47.7973   26.4056   46.7543 H   0  0  0  0  0  0  0  0  0  0  0  0
   47.9428   26.4244   48.2941 H   0  0  0  0  0  0  0  0  0  0  0  0
   45.7642   28.5640   48.0220 H   0  0  0  0  0  0  0  0  0  0  0  0
   46.7051   29.3524   45.0141 H   0  0  0  0  0  0  0  0  0  0  0  0
   47.0324   27.6038   44.7562 H   0  0  0  0  0  0  0  0  0  0  0  0
   45.5212   27.6927   43.1085 H   0  0  0  0  0  0  0  0  0  0  0  0
   44.9479   29.3278   43.6498 H   0  0  0  0  0  0  0  0  0  0  0  0
   43.0321   29.4293   45.0567 H   0  0  0  0  0  0  0  0  0  0  0  0
   42.6566   27.9213   45.9658 H   0  0  0  0  0  0  0  0  0  0  0  0
   44.1282   28.6570   47.5184 H   0  0  0  0  0  0  0  0  0  0  0  0
   44.7742   29.9223   46.4145 H   0  0  0  0  0  0  0  0  0  0  0  0
  1  5  1  0
  1  2  2  0
  2  3  1  0
  4  3  2  0
  4 17  1  0
  5  4  1  0
  6  7  1  0
  6 10  2  0
  7  8  2  0
  8  9  1  0
  9  1  1  0
 10  9  1  0
 11 16  2  0
 12 13  2  0
 12 11  1  0
 13 14  1  0
 14 15  2  0
 15  6  1  0
 16 15  1  0
 17 18  1  0
 18 19  2  0
 20 19  1  0
 21 17  1  0
 21 20  2  0
 22 24  1  0
 22 23  1  0
 22 21  1  0
 24 23  1  0
 25 30  1  0
 25 24  1  0
 26 25  1  0
 27 28  1  0
 27 26  1  0
 28 29  1  0
 29 30  1  0
  2 31  1  0
  3 32  1  0
  7 33  1  0
  8 34  1  0
 11 35  1  0
 12 36  1  0
 13 37  1  0
 18 38  1  0
 19 39  1  0
 22 40  1  6
 23 41  1  0
 23 42  1  0
 24 43  1  1
 26 44  1  0
 26 45  1  0
 27 46  1  0
 27 47  1  0
 29 48  1  0
 29 49  1  0
 30 50  1  0
 30 51  1  0
M  ISO  8  31  14  32  14  33  14  34  14  35  14  36  14  37  14  38  14
M  ISO  8  39  14  40  13  41  13  42  13  43  13  44  13  45  13  46  13
M  ISO  5  47  13  48  13  49  13  50  13  51  13
M  END
>  <minimizedAffinity>  (1) 
-6.10813999

>  <minimizedRMSD>  (1) 
0.336933464

$$$$
