
     RDKit          3D

 46 51  0  0  1  0  0  0  0  0999 V2000
   46.3290   32.7320   46.8740 C   0  0  0  0  0  0  0  0  0  0  0  0
   45.4990   32.6130   47.9710 C   0  0  0  0  0  0  0  0  0  0  0  0
   46.1970   31.7960   48.8500 C   0  0  0  0  0  0  0  0  0  0  0  0
   47.4010   31.4660   48.2490 C   0  0  0  0  0  0  0  0  0  0  0  0
   47.4050   32.0500   47.0940 O   0  0  0  0  0  0  0  0  0  0  0  0
   46.6550   34.0770   43.5930 C   0  0  0  0  0  0  0  0  0  0  0  0
   45.5270   34.7350   44.0550 C   0  0  0  0  0  0  0  0  0  0  0  0
   45.2640   34.3040   45.3580 C   0  0  0  0  0  0  0  0  0  0  0  0
   46.2310   33.4070   45.6470 N   0  0  0  0  0  0  0  0  0  0  0  0
   47.0700   33.2540   44.6130 N   0  0  0  0  0  0  0  0  0  0  0  0
   48.6770   35.4000   40.8170 C   0  0  0  0  0  0  0  0  0  0  0  0
   48.1210   34.7230   39.7300 C   0  0  0  0  0  0  0  0  0  0  0  0
   47.0730   33.8310   39.9400 C   0  0  0  0  0  0  0  0  0  0  0  0
   46.6140   33.6420   41.2280 N   0  0  0  0  0  0  0  0  0  0  0  0
   47.1850   34.3190   42.2460 C   0  0  0  0  0  0  0  0  0  0  0  0
   48.1900   35.1790   42.0700 N   0  0  0  0  0  0  0  0  0  0  0  0
   48.3930   30.6290   48.8620 N   0  0  0  0  0  0  0  0  0  0  0  0
   49.2570   30.8310   49.9050 C   0  0  0  0  0  0  0  0  0  0  0  0
   49.9750   29.6730   50.0520 C   0  0  0  0  0  0  0  0  0  0  0  0
   49.5370   28.7970   49.1040 N   0  0  0  0  0  0  0  0  0  0  0  0
   48.5720   29.3970   48.3870 C   0  0  0  0  0  0  0  0  0  0  0  0
   47.8870   28.6790   47.2520 C   0  0  1  0  0  0  0  0  0  0  0  0
   47.5370   27.1920   47.5210 C   0  0  0  0  0  0  0  0  0  0  0  0
   46.4810   28.2620   47.4110 C   0  0  2  0  0  0  0  0  0  0  0  0
   45.5780   28.1320   46.2640 C   0  0  0  0  0  0  0  0  0  0  0  0
   44.2800   28.6090   46.2510 C   0  0  0  0  0  0  0  0  0  0  0  0
   43.4020   28.5050   45.1910 C   0  0  0  0  0  0  0  0  0  0  0  0
   43.8540   27.8790   44.0670 N   0  0  0  0  0  0  0  0  0  0  0  0
   45.1320   27.4010   44.0620 C   0  0  0  0  0  0  0  0  0  0  0  0
   45.9730   27.5230   45.1290 N   0  0  0  0  0  0  0  0  0  0  0  0
   44.5065   33.0646   48.1161 H   0  0  0  0  0  0  0  0  0  0  0  0
   45.8560   31.4698   49.8436 H   0  0  0  0  0  0  0  0  0  0  0  0
   44.9374   35.4728   43.4910 H   0  0  0  0  0  0  0  0  0  0  0  0
   44.4409   34.6279   46.0119 H   0  0  0  0  0  0  0  0  0  0  0  0
   49.5042   36.1084   40.6625 H   0  0  0  0  0  0  0  0  0  0  0  0
   48.5083   34.8932   38.7146 H   0  0  0  0  0  0  0  0  0  0  0  0
   46.6202   33.2882   39.0972 H   0  0  0  0  0  0  0  0  0  0  0  0
   49.3556   31.7456   50.5081 H   0  0  0  0  0  0  0  0  0  0  0  0
   50.7609   29.4849   50.7984 H   0  0  0  0  0  0  0  0  0  0  0  0
   48.4268   29.2491   46.4815 H   0  0  0  0  0  0  0  0  0  0  0  0
   47.6526   26.4406   46.7260 H   0  0  0  0  0  0  0  0  0  0  0  0
   47.8213   26.4344   48.2661 H   0  0  0  0  0  0  0  0  0  0  0  0
   45.6761   28.6622   48.0451 H   0  0  0  0  0  0  0  0  0  0  0  0
   43.9177   29.1124   47.1595 H   0  0  0  0  0  0  0  0  0  0  0  0
   42.3810   28.9099   45.2504 H   0  0  0  0  0  0  0  0  0  0  0  0
   45.5004   26.8949   43.1575 H   0  0  0  0  0  0  0  0  0  0  0  0
  1  5  1  0
  1  2  2  0
  2  3  1  0
  4  3  2  0
  4 17  1  0
  5  4  1  0
  6  7  1  0
  6 10  2  0
  7  8  2  0
  8  9  1  0
  9  1  1  0
 10  9  1  0
 11 16  2  0
 12 13  2  0
 12 11  1  0
 13 14  1  0
 14 15  2  0
 15  6  1  0
 16 15  1  0
 17 18  1  0
 18 19  2  0
 20 19  1  0
 21 17  1  0
 21 20  2  0
 22 24  1  0
 22 23  1  0
 22 21  1  0
 24 23  1  0
 25 24  1  0
 26 25  2  0
 27 26  1  0
 28 27  2  0
 29 28  1  0
 29 30  2  0
 30 25  1  0
  2 31  1  0
  3 32  1  0
  7 33  1  0
  8 34  1  0
 11 35  1  0
 12 36  1  0
 13 37  1  0
 18 38  1  0
 19 39  1  0
 22 40  1  6
 23 41  1  0
 23 42  1  0
 24 43  1  1
 26 44  1  0
 27 45  1  0
 29 46  1  0
M  ISO  8  31  14  32  14  33  14  34  14  35  14  36  14  37  14  38  14
M  ISO  8  39  14  40  13  41  13  42  13  43  13  44  14  45  14  46  14
M  END
>  <minimizedAffinity>  (1) 
-6.13217402

>  <minimizedRMSD>  (1) 
0.524251163

$$$$
