
     RDKit          3D

 48 53  0  0  1  0  0  0  0  0999 V2000
   46.4130   32.7000   47.0130 C   0  0  0  0  0  0  0  0  0  0  0  0
   45.6490   32.6240   48.1490 C   0  0  0  0  0  0  0  0  0  0  0  0
   46.3550   31.7930   49.0100 C   0  0  0  0  0  0  0  0  0  0  0  0
   47.4970   31.4090   48.3650 C   0  0  0  0  0  0  0  0  0  0  0  0
   47.4660   31.9820   47.1890 O   0  0  0  0  0  0  0  0  0  0  0  0
   46.6680   34.0190   43.7020 C   0  0  0  0  0  0  0  0  0  0  0  0
   45.5280   34.6580   44.1780 C   0  0  0  0  0  0  0  0  0  0  0  0
   45.2930   34.2360   45.4900 C   0  0  0  0  0  0  0  0  0  0  0  0
   46.2920   33.3600   45.7650 N   0  0  0  0  0  0  0  0  0  0  0  0
   47.1100   33.2180   44.7290 N   0  0  0  0  0  0  0  0  0  0  0  0
   48.6470   35.3300   40.8990 C   0  0  0  0  0  0  0  0  0  0  0  0
   48.0680   34.6740   39.8230 C   0  0  0  0  0  0  0  0  0  0  0  0
   47.0170   33.7950   40.0500 C   0  0  0  0  0  0  0  0  0  0  0  0
   46.5670   33.5920   41.3440 N   0  0  0  0  0  0  0  0  0  0  0  0
   47.1700   34.2600   42.3500 C   0  0  0  0  0  0  0  0  0  0  0  0
   48.1910   35.1160   42.1590 N   0  0  0  0  0  0  0  0  0  0  0  0
   48.4910   30.5470   48.9230 N   0  0  0  0  0  0  0  0  0  0  0  0
   49.3680   30.7080   49.9790 C   0  0  0  0  0  0  0  0  0  0  0  0
   50.1040   29.5510   50.0680 C   0  0  0  0  0  0  0  0  0  0  0  0
   49.6750   28.7090   49.0800 N   0  0  0  0  0  0  0  0  0  0  0  0
   48.6930   29.3220   48.3870 C   0  0  0  0  0  0  0  0  0  0  0  0
   47.9850   28.6860   47.2340 C   0  0  1  0  0  0  0  0  0  0  0  0
   47.6740   27.1600   47.4520 C   0  0  0  0  0  0  0  0  0  0  0  0
   46.6220   28.2070   47.3720 C   0  0  2  0  0  0  0  0  0  0  0  0
   45.6970   28.1080   46.2870 N   0  0  0  0  0  0  0  0  0  0  0  0
   45.9080   27.2430   45.2740 C   0  0  0  0  0  0  0  0  0  0  0  0
   44.9920   27.1750   44.2420 C   0  0  0  0  0  0  0  0  0  0  0  0
   43.8610   27.9720   44.2210 C   0  0  0  0  0  0  0  0  0  0  0  0
   42.9770   27.9750   43.3250 O   0  0  0  0  0  0  0  0  0  0  0  0
   43.6710   28.8360   45.2550 N   0  0  0  0  0  0  0  0  0  0  0  0
   44.5840   28.8620   46.2240 C   0  0  0  0  0  0  0  0  0  0  0  0
   44.3810   29.6760   47.1740 O   0  0  0  0  0  0  0  0  0  0  0  0
   44.6835   33.1158   48.3382 H   0  0  0  0  0  0  0  0  0  0  0  0
   46.0505   31.4981   50.0251 H   0  0  0  0  0  0  0  0  0  0  0  0
   44.9133   35.3762   43.6155 H   0  0  0  0  0  0  0  0  0  0  0  0
   44.4746   34.5471   46.1558 H   0  0  0  0  0  0  0  0  0  0  0  0
   49.4805   36.0277   40.7301 H   0  0  0  0  0  0  0  0  0  0  0  0
   48.4370   34.8479   38.8014 H   0  0  0  0  0  0  0  0  0  0  0  0
   46.5460   33.2646   39.2093 H   0  0  0  0  0  0  0  0  0  0  0  0
   49.4594   31.5936   50.6251 H   0  0  0  0  0  0  0  0  0  0  0  0
   50.8957   29.3402   50.8020 H   0  0  0  0  0  0  0  0  0  0  0  0
   48.4752   29.3327   46.4914 H   0  0  0  0  0  0  0  0  0  0  0  0
   47.8090   26.4390   46.6323 H   0  0  0  0  0  0  0  0  0  0  0  0
   47.9702   26.3803   48.1692 H   0  0  0  0  0  0  0  0  0  0  0  0
   45.8106   28.5670   48.0216 H   0  0  0  0  0  0  0  0  0  0  0  0
   46.7996   26.5987   45.2695 H   0  0  0  0  0  0  0  0  0  0  0  0
   45.1661   26.4695   43.4162 H   0  0  0  0  0  0  0  0  0  0  0  0
   42.8457   29.4514   45.2872 H   0  0  0  0  0  0  0  0  0  0  0  0
  1  5  1  0
  1  2  2  0
  2  3  1  0
  4 17  1  0
  4  3  2  0
  5  4  1  0
  6  7  1  0
  6 10  2  0
  7  8  2  0
  8  9  1  0
  9  1  1  0
 10  9  1  0
 11 16  2  0
 12 13  2  0
 12 11  1  0
 13 14  1  0
 14 15  2  0
 15  6  1  0
 16 15  1  0
 17 18  1  0
 18 19  2  0
 20 19  1  0
 21 17  1  0
 21 20  2  0
 22 24  1  0
 22 23  1  0
 22 21  1  0
 24 23  1  0
 25 24  1  0
 26 25  1  0
 27 26  2  0
 28 27  1  0
 28 30  1  0
 29 28  2  0
 30 31  1  0
 31 25  1  0
 31 32  2  0
  2 33  1  0
  3 34  1  0
  7 35  1  0
  8 36  1  0
 11 37  1  0
 12 38  1  0
 13 39  1  0
 18 40  1  0
 19 41  1  0
 22 42  1  6
 23 43  1  0
 23 44  1  0
 24 45  1  1
 26 46  1  0
 27 47  1  0
 30 48  1  0
M  ISO  8  33  14  34  14  35  14  36  14  37  14  38  14  39  14  40  14
M  ISO  8  41  14  42  13  43  13  44  13  45  13  46  14  47  14  48   9
M  END
>  <minimizedAffinity>  (1) 
-6.36983585

>  <minimizedRMSD>  (1) 
0.345371217

$$$$
