
     RDKit          3D

 46 51  0  0  1  0  0  0  0  0999 V2000
   46.3220   32.7080   46.8860 C   0  0  0  0  0  0  0  0  0  0  0  0
   45.4960   32.5750   47.9770 C   0  0  0  0  0  0  0  0  0  0  0  0
   46.1880   31.7610   48.8630 C   0  0  0  0  0  0  0  0  0  0  0  0
   47.3800   31.4450   48.2750 C   0  0  0  0  0  0  0  0  0  0  0  0
   47.3940   32.0360   47.1100 O   0  0  0  0  0  0  0  0  0  0  0  0
   46.6470   34.0680   43.6090 C   0  0  0  0  0  0  0  0  0  0  0  0
   45.5260   34.7290   44.0710 C   0  0  0  0  0  0  0  0  0  0  0  0
   45.2670   34.2940   45.3700 C   0  0  0  0  0  0  0  0  0  0  0  0
   46.2330   33.3890   45.6480 N   0  0  0  0  0  0  0  0  0  0  0  0
   47.0670   33.2340   44.6220 N   0  0  0  0  0  0  0  0  0  0  0  0
   48.6820   35.3920   40.8390 C   0  0  0  0  0  0  0  0  0  0  0  0
   48.1340   34.7300   39.7490 C   0  0  0  0  0  0  0  0  0  0  0  0
   47.0840   33.8430   39.9560 C   0  0  0  0  0  0  0  0  0  0  0  0
   46.6130   33.6450   41.2410 N   0  0  0  0  0  0  0  0  0  0  0  0
   47.1780   34.3110   42.2630 C   0  0  0  0  0  0  0  0  0  0  0  0
   48.1950   35.1750   42.0930 N   0  0  0  0  0  0  0  0  0  0  0  0
   48.3840   30.6200   48.8670 N   0  0  0  0  0  0  0  0  0  0  0  0
   49.2550   30.8290   49.9200 C   0  0  0  0  0  0  0  0  0  0  0  0
   50.0110   29.6910   50.0600 C   0  0  0  0  0  0  0  0  0  0  0  0
   49.5980   28.8090   49.1020 N   0  0  0  0  0  0  0  0  0  0  0  0
   48.6220   29.3860   48.3990 C   0  0  0  0  0  0  0  0  0  0  0  0
   47.9210   28.6880   47.2490 C   0  0  1  0  0  0  0  0  0  0  0  0
   47.5800   27.1830   47.5410 C   0  0  0  0  0  0  0  0  0  0  0  0
   46.5460   28.2350   47.3660 C   0  0  2  0  0  0  0  0  0  0  0  0
   45.7820   28.1050   46.0830 C   0  0  0  0  0  0  0  0  0  0  0  0
   44.6240   28.8220   45.8670 C   0  0  0  0  0  0  0  0  0  0  0  0
   43.8730   28.7490   44.7110 C   0  0  0  0  0  0  0  0  0  0  0  0
   44.3140   27.9110   43.7320 N   0  0  0  0  0  0  0  0  0  0  0  0
   45.4550   27.2090   43.9590 C   0  0  0  0  0  0  0  0  0  0  0  0
   46.1680   27.3020   45.0970 N   0  0  0  0  0  0  0  0  0  0  0  0
   44.4994   33.0189   48.1177 H   0  0  0  0  0  0  0  0  0  0  0  0
   45.8414   31.4318   49.8537 H   0  0  0  0  0  0  0  0  0  0  0  0
   44.9385   35.4711   43.5105 H   0  0  0  0  0  0  0  0  0  0  0  0
   44.4490   34.6185   46.0300 H   0  0  0  0  0  0  0  0  0  0  0  0
   49.5141   36.0958   40.6897 H   0  0  0  0  0  0  0  0  0  0  0  0
   48.5251   34.9048   38.7358 H   0  0  0  0  0  0  0  0  0  0  0  0
   46.6335   33.3055   39.1086 H   0  0  0  0  0  0  0  0  0  0  0  0
   49.3289   31.7394   50.5330 H   0  0  0  0  0  0  0  0  0  0  0  0
   50.8022   29.5212   50.8052 H   0  0  0  0  0  0  0  0  0  0  0  0
   48.4416   29.2890   46.4889 H   0  0  0  0  0  0  0  0  0  0  0  0
   47.7326   26.4152   46.7683 H   0  0  0  0  0  0  0  0  0  0  0  0
   47.8404   26.4419   48.3110 H   0  0  0  0  0  0  0  0  0  0  0  0
   45.7033   28.5943   47.9749 H   0  0  0  0  0  0  0  0  0  0  0  0
   44.2771   29.4941   46.6657 H   0  0  0  0  0  0  0  0  0  0  0  0
   42.9559   29.3433   44.5856 H   0  0  0  0  0  0  0  0  0  0  0  0
   45.8147   26.5296   43.1722 H   0  0  0  0  0  0  0  0  0  0  0  0
  1  5  1  0
  1  2  2  0
  2  3  1  0
  4  3  2  0
  4 17  1  0
  5  4  1  0
  6  7  1  0
  6 10  2  0
  7  8  2  0
  8  9  1  0
  9  1  1  0
 10  9  1  0
 11 16  2  0
 12 13  2  0
 12 11  1  0
 13 14  1  0
 14 15  2  0
 15  6  1  0
 16 15  1  0
 17 18  1  0
 18 19  2  0
 20 19  1  0
 21 17  1  0
 21 20  2  0
 22 24  1  0
 22 23  1  0
 22 21  1  0
 24 23  1  0
 25 24  1  0
 26 25  2  0
 27 26  1  0
 28 29  1  0
 28 27  2  0
 29 30  2  0
 30 25  1  0
  2 31  1  0
  3 32  1  0
  7 33  1  0
  8 34  1  0
 11 35  1  0
 12 36  1  0
 13 37  1  0
 18 38  1  0
 19 39  1  0
 22 40  1  6
 23 41  1  0
 23 42  1  0
 24 43  1  1
 26 44  1  0
 27 45  1  0
 29 46  1  0
M  ISO  8  31  14  32  14  33  14  34  14  35  14  36  14  37  14  38  14
M  ISO  8  39  14  40  13  41  13  42  13  43  13  44  14  45  14  46  14
M  END
>  <minimizedAffinity>  (1) 
-6.0260396

>  <minimizedRMSD>  (1) 
0.519568264

$$$$
