
     RDKit          3D

 43 48  0  0  1  0  0  0  0  0999 V2000
   46.3360   32.7290   46.9110 C   0  0  0  0  0  0  0  0  0  0  0  0
   45.5290   32.6200   48.0130 C   0  0  0  0  0  0  0  0  0  0  0  0
   46.2260   31.8000   48.8980 C   0  0  0  0  0  0  0  0  0  0  0  0
   47.4020   31.4600   48.2920 C   0  0  0  0  0  0  0  0  0  0  0  0
   47.4070   32.0410   47.1210 O   0  0  0  0  0  0  0  0  0  0  0  0
   46.6420   34.0720   43.6180 C   0  0  0  0  0  0  0  0  0  0  0  0
   45.5180   34.7280   44.0830 C   0  0  0  0  0  0  0  0  0  0  0  0
   45.2630   34.2990   45.3910 C   0  0  0  0  0  0  0  0  0  0  0  0
   46.2420   33.3990   45.6700 N   0  0  0  0  0  0  0  0  0  0  0  0
   47.0690   33.2480   44.6390 N   0  0  0  0  0  0  0  0  0  0  0  0
   48.6770   35.3790   40.8450 C   0  0  0  0  0  0  0  0  0  0  0  0
   48.1230   34.7240   39.7490 C   0  0  0  0  0  0  0  0  0  0  0  0
   47.0560   33.8370   39.9680 C   0  0  0  0  0  0  0  0  0  0  0  0
   46.5950   33.6470   41.2510 N   0  0  0  0  0  0  0  0  0  0  0  0
   47.1690   34.3070   42.2690 C   0  0  0  0  0  0  0  0  0  0  0  0
   48.1890   35.1610   42.1020 N   0  0  0  0  0  0  0  0  0  0  0  0
   48.3980   30.6260   48.8790 N   0  0  0  0  0  0  0  0  0  0  0  0
   49.2710   30.8180   49.9320 C   0  0  0  0  0  0  0  0  0  0  0  0
   50.0220   29.6610   50.0560 C   0  0  0  0  0  0  0  0  0  0  0  0
   49.6030   28.8010   49.0950 N   0  0  0  0  0  0  0  0  0  0  0  0
   48.6270   29.3920   48.3950 C   0  0  0  0  0  0  0  0  0  0  0  0
   47.9200   28.7060   47.2410 C   0  0  1  0  0  0  0  0  0  0  0  0
   47.5550   27.2050   47.5390 C   0  0  0  0  0  0  0  0  0  0  0  0
   46.5380   28.2730   47.3580 C   0  0  2  0  0  0  0  0  0  0  0  0
   45.7920   28.1520   46.0560 C   0  0  0  0  0  0  0  0  0  0  0  0
   44.8450   29.0040   45.5810 N   0  0  0  0  0  0  0  0  0  0  0  0
   44.4240   28.5810   44.4330 O   0  0  0  0  0  0  0  0  0  0  0  0
   45.0520   27.4590   44.0940 C   0  0  0  0  0  0  0  0  0  0  0  0
   45.9120   27.1910   45.1190 N   0  0  0  0  0  0  0  0  0  0  0  0
   44.5421   33.0811   48.1662 H   0  0  0  0  0  0  0  0  0  0  0  0
   45.8918   31.4853   49.8976 H   0  0  0  0  0  0  0  0  0  0  0  0
   44.9239   35.4632   43.5203 H   0  0  0  0  0  0  0  0  0  0  0  0
   44.4449   34.6216   46.0517 H   0  0  0  0  0  0  0  0  0  0  0  0
   49.5140   36.0774   40.6978 H   0  0  0  0  0  0  0  0  0  0  0  0
   48.5118   34.8969   38.7346 H   0  0  0  0  0  0  0  0  0  0  0  0
   46.5949   33.3012   39.1252 H   0  0  0  0  0  0  0  0  0  0  0  0
   49.3542   31.7206   50.5552 H   0  0  0  0  0  0  0  0  0  0  0  0
   50.8127   29.4741   50.7975 H   0  0  0  0  0  0  0  0  0  0  0  0
   48.4499   29.2971   46.4796 H   0  0  0  0  0  0  0  0  0  0  0  0
   47.6968   26.4318   46.7696 H   0  0  0  0  0  0  0  0  0  0  0  0
   47.8026   26.4629   48.3123 H   0  0  0  0  0  0  0  0  0  0  0  0
   45.6980   28.6422   47.9648 H   0  0  0  0  0  0  0  0  0  0  0  0
   44.9080   26.8689   43.1769 H   0  0  0  0  0  0  0  0  0  0  0  0
  1  5  1  0
  1  2  2  0
  2  3  1  0
  4 17  1  0
  4  3  2  0
  5  4  1  0
  6  7  1  0
  6 10  2  0
  7  8  2  0
  8  9  1  0
  9  1  1  0
 10  9  1  0
 11 16  2  0
 12 13  2  0
 12 11  1  0
 13 14  1  0
 14 15  2  0
 15  6  1  0
 16 15  1  0
 17 18  1  0
 18 19  2  0
 20 19  1  0
 21 17  1  0
 21 20  2  0
 22 24  1  0
 22 23  1  0
 22 21  1  0
 24 23  1  0
 25 24  1  0
 26 25  2  0
 27 26  1  0
 28 27  1  0
 28 29  2  0
 29 25  1  0
  2 30  1  0
  3 31  1  0
  7 32  1  0
  8 33  1  0
 11 34  1  0
 12 35  1  0
 13 36  1  0
 18 37  1  0
 19 38  1  0
 22 39  1  6
 23 40  1  0
 23 41  1  0
 24 42  1  1
 28 43  1  0
M  ISO  8  30  14  31  14  32  14  33  14  34  14  35  14  36  14  37  14
M  ISO  6  38  14  39  13  40  13  41  13  42  13  43  14
M  END
>  <minimizedAffinity>  (1) 
-5.87752771

>  <minimizedRMSD>  (1) 
0.241917491

$$$$
