
     RDKit          3D

 40 44  0  0  1  0  0  0  0  0999 V2000
   46.3700   32.6590   46.9540 C   0  0  0  0  0  0  0  0  0  0  0  0
   45.5410   32.5030   48.0370 C   0  0  0  0  0  0  0  0  0  0  0  0
   46.2520   31.6990   48.9250 C   0  0  0  0  0  0  0  0  0  0  0  0
   47.4530   31.4180   48.3390 C   0  0  0  0  0  0  0  0  0  0  0  0
   47.4640   32.0140   47.1760 O   0  0  0  0  0  0  0  0  0  0  0  0
   46.6570   34.0300   43.6740 C   0  0  0  0  0  0  0  0  0  0  0  0
   45.5420   34.6860   44.1490 C   0  0  0  0  0  0  0  0  0  0  0  0
   45.2900   34.2480   45.4570 C   0  0  0  0  0  0  0  0  0  0  0  0
   46.2590   33.3450   45.7270 N   0  0  0  0  0  0  0  0  0  0  0  0
   47.0870   33.1960   44.6800 N   0  0  0  0  0  0  0  0  0  0  0  0
   48.6790   35.3620   40.8990 C   0  0  0  0  0  0  0  0  0  0  0  0
   48.1180   34.7150   39.8070 C   0  0  0  0  0  0  0  0  0  0  0  0
   47.0620   33.8340   40.0180 C   0  0  0  0  0  0  0  0  0  0  0  0
   46.5990   33.6260   41.3000 N   0  0  0  0  0  0  0  0  0  0  0  0
   47.1770   34.2770   42.3220 C   0  0  0  0  0  0  0  0  0  0  0  0
   48.1980   35.1340   42.1550 N   0  0  0  0  0  0  0  0  0  0  0  0
   48.4740   30.6160   48.9360 N   0  0  0  0  0  0  0  0  0  0  0  0
   49.3000   30.8180   50.0220 C   0  0  0  0  0  0  0  0  0  0  0  0
   50.1010   29.7130   50.1420 C   0  0  0  0  0  0  0  0  0  0  0  0
   49.7610   28.8500   49.1350 N   0  0  0  0  0  0  0  0  0  0  0  0
   48.7820   29.4100   48.4210 C   0  0  0  0  0  0  0  0  0  0  0  0
   48.1470   28.7280   47.2250 C   0  0  1  0  0  0  0  0  0  0  0  0
   47.6650   27.2640   47.5240 C   0  0  0  0  0  0  0  0  0  0  0  0
   46.7360   28.3840   47.2240 C   0  0  2  0  0  0  0  0  0  0  0  0
   45.9260   28.4060   45.9880 C   0  0  0  0  0  0  0  0  0  0  0  0
   45.4170   29.4950   45.7510 O   0  0  0  0  0  0  0  0  0  0  0  0
   44.5333   32.9222   48.1740 H   0  0  0  0  0  0  0  0  0  0  0  0
   45.9103   31.3552   49.9124 H   0  0  0  0  0  0  0  0  0  0  0  0
   44.9491   35.4287   43.5950 H   0  0  0  0  0  0  0  0  0  0  0  0
   44.4759   34.5709   46.1226 H   0  0  0  0  0  0  0  0  0  0  0  0
   49.5149   36.0615   40.7512 H   0  0  0  0  0  0  0  0  0  0  0  0
   48.5016   34.8956   38.7920 H   0  0  0  0  0  0  0  0  0  0  0  0
   46.6005   33.3079   39.1693 H   0  0  0  0  0  0  0  0  0  0  0  0
   49.3132   31.7046   50.6730 H   0  0  0  0  0  0  0  0  0  0  0  0
   50.8747   29.5493   50.9066 H   0  0  0  0  0  0  0  0  0  0  0  0
   48.7825   29.2599   46.5016 H   0  0  0  0  0  0  0  0  0  0  0  0
   47.8279   26.4610   46.7901 H   0  0  0  0  0  0  0  0  0  0  0  0
   47.7952   26.5322   48.3349 H   0  0  0  0  0  0  0  0  0  0  0  0
   45.8648   28.8011   47.7504 H   0  0  0  0  0  0  0  0  0  0  0  0
   45.7925   27.5265   45.3410 H   0  0  0  0  0  0  0  0  0  0  0  0
  1  5  1  0
  1  2  2  0
  2  3  1  0
  4  3  2  0
  4 17  1  0
  5  4  1  0
  6  7  1  0
  6 10  2  0
  7  8  2  0
  8  9  1  0
  9  1  1  0
 10  9  1  0
 11 16  2  0
 12 13  2  0
 12 11  1  0
 13 14  1  0
 14 15  2  0
 15  6  1  0
 16 15  1  0
 17 18  1  0
 18 19  2  0
 20 19  1  0
 21 17  1  0
 21 20  2  0
 22 23  1  0
 22 21  1  0
 24 22  1  0
 24 23  1  0
 25 24  1  0
 26 25  2  0
  2 27  1  0
  3 28  1  0
  7 29  1  0
  8 30  1  0
 11 31  1  0
 12 32  1  0
 13 33  1  0
 18 34  1  0
 19 35  1  0
 22 36  1  6
 23 37  1  0
 23 38  1  0
 24 39  1  1
 25 40  1  0
M  ISO  8  27  14  28  14  29  14  30  14  31  14  32  14  33  14  34  14
M  ISO  6  35  14  36  13  37  13  38  13  39  13  40   6
M  END
>  <minimizedAffinity>  (1) 
-5.74664736

>  <minimizedRMSD>  (1) 
0.314829886

$$$$
