
     RDKit          3D

 34 37  0  0  0  0  0  0  0  0999 V2000
   45.3990   33.4520   46.2220 C   0  0  0  0  0  0  0  0  0  0  0  0
   45.8350   33.0540   44.9260 C   0  0  0  0  0  0  0  0  0  0  0  0
   46.7680   32.0330   44.8580 C   0  0  0  0  0  0  0  0  0  0  0  0
   47.1950   31.4890   46.0300 N   0  0  0  0  0  0  0  0  0  0  0  0
   46.7700   31.8840   47.2320 C   0  0  0  0  0  0  0  0  0  0  0  0
   45.8720   32.8630   47.3370 N   0  0  0  0  0  0  0  0  0  0  0  0
   47.1920   31.6530   43.5780 N   0  0  0  0  0  0  0  0  0  0  0  0
   46.9170   30.6620   42.7120 C   0  0  0  0  0  0  0  0  0  0  0  0
   47.6420   30.7820   41.5860 N   0  0  0  0  0  0  0  0  0  0  0  0
   48.4170   31.8790   41.7080 C   0  0  0  0  0  0  0  0  0  0  0  0
   49.3450   32.4440   40.8410 C   0  0  0  0  0  0  0  0  0  0  0  0
   49.6000   31.9620   39.7270 O   0  0  0  0  0  0  0  0  0  0  0  0
   50.0070   33.5600   41.2010 N   0  0  0  0  0  0  0  0  0  0  0  0
   49.7240   34.0680   42.4010 C   0  0  0  0  0  0  0  0  0  0  0  0
   50.3680   35.2270   42.8960 N   0  0  0  0  0  0  0  0  0  0  0  0
   48.8360   33.5390   43.2450 N   0  0  0  0  0  0  0  0  0  0  0  0
   48.1320   32.4150   42.9480 C   0  0  0  0  0  0  0  0  0  0  0  0
   45.1920   33.8100   43.8660 C   0  0  0  0  0  0  0  0  0  0  0  0
   44.4100   33.4020   42.8090 C   0  0  0  0  0  0  0  0  0  0  0  0
   43.9000   34.2810   41.8930 C   0  0  0  0  0  0  0  0  0  0  0  0
   44.1400   35.6350   41.9720 C   0  0  0  0  0  0  0  0  0  0  0  0
   44.9170   36.1040   43.0070 C   0  0  0  0  0  0  0  0  0  0  0  0
   45.4160   35.1930   43.9150 C   0  0  0  0  0  0  0  0  0  0  0  0
   44.6582   34.2598   46.3146 H   0  0  0  0  0  0  0  0  0  0  0  0
   47.1621   31.4000   48.1386 H   0  0  0  0  0  0  0  0  0  0  0  0
   46.1920   29.8565   42.9005 H   0  0  0  0  0  0  0  0  0  0  0  0
   50.6995   34.0006   40.5787 H   0  0  0  0  0  0  0  0  0  0  0  0
   50.1253   35.5928   43.8278 H   0  0  0  0  0  0  0  0  0  0  0  0
   51.0794   35.7047   42.3245 H   0  0  0  0  0  0  0  0  0  0  0  0
   44.1872   32.3307   42.6969 H   0  0  0  0  0  0  0  0  0  0  0  0
   43.2805   33.8954   41.0699 H   0  0  0  0  0  0  0  0  0  0  0  0
   43.7206   36.3255   41.2254 H   0  0  0  0  0  0  0  0  0  0  0  0
   45.1345   37.1776   43.1075 H   0  0  0  0  0  0  0  0  0  0  0  0
   46.0350   35.5802   44.7377 H   0  0  0  0  0  0  0  0  0  0  0  0
  1  6  2  0
  2  1  1  0
  3  2  2  0
  3  4  1  0
  4  5  2  0
  5  6  1  0
  7  3  1  0
  8  7  1  0
  9 10  1  0
  9  8  2  0
 10 17  2  0
 11 13  1  0
 11 10  1  0
 12 11  2  0
 13 14  1  0
 14 15  1  0
 14 16  2  0
 17 16  1  0
 17  7  1  0
 18 23  1  0
 18  2  1  0
 19 18  2  0
 20 21  2  0
 20 19  1  0
 21 22  1  0
 22 23  2  0
  1 24  1  0
  5 25  1  0
  8 26  1  0
 13 27  1  0
 15 28  1  0
 15 29  1  0
 19 30  1  0
 20 31  1  0
 21 32  1  0
 22 33  1  0
 23 34  1  0
M  ISO  8  24  14  25  14  26  14  27   9  30  14  31  14  32  14  33  14
M  ISO  1  34  14
M  END
>  <minimizedAffinity>  (1) 
-5.9708662

>  <minimizedRMSD>  (1) 
2.95492315

$$$$
