
     RDKit          3D

 27 29  0  0  0  0  0  0  0  0999 V2000
   45.7760   33.7000   42.8900 N   0  0  0  0  0  0  0  0  0  0  0  0
   45.0260   33.4630   41.8080 C   0  0  0  0  0  0  0  0  0  0  0  0
   45.7260   33.7100   40.6760 N   0  0  0  0  0  0  0  0  0  0  0  0
   46.9670   34.1190   41.0430 C   0  0  0  0  0  0  0  0  0  0  0  0
   48.0560   34.4910   40.2680 C   0  0  0  0  0  0  0  0  0  0  0  0
   48.0280   34.4960   39.0230 O   0  0  0  0  0  0  0  0  0  0  0  0
   49.1950   34.8620   40.8660 N   0  0  0  0  0  0  0  0  0  0  0  0
   49.2120   34.8520   42.2080 C   0  0  0  0  0  0  0  0  0  0  0  0
   50.3620   35.2260   42.9620 N   0  0  0  0  0  0  0  0  0  0  0  0
   48.1660   34.4950   42.9510 N   0  0  0  0  0  0  0  0  0  0  0  0
   46.9850   34.1090   42.4140 C   0  0  0  0  0  0  0  0  0  0  0  0
   44.7400   34.6580   46.2870 C   0  0  0  0  0  0  0  0  0  0  0  0
   44.9460   34.6840   44.8940 C   0  0  0  0  0  0  0  0  0  0  0  0
   45.5950   33.6230   44.2800 C   0  0  0  0  0  0  0  0  0  0  0  0
   46.0110   32.5840   45.0770 N   0  0  0  0  0  0  0  0  0  0  0  0
   45.8020   32.5830   46.4070 C   0  0  0  0  0  0  0  0  0  0  0  0
   45.1760   33.6000   47.0150 N   0  0  0  0  0  0  0  0  0  0  0  0
   44.4350   35.8720   44.2170 C   0  0  0  0  0  0  0  0  0  0  0  0
   45.0810   36.9020   43.9730 O   0  0  0  0  0  0  0  0  0  0  0  0
   43.0850   35.8100   43.8180 O   0  0  0  0  0  0  0  0  0  0  0  0
   43.9829   33.1149   41.8345 H   0  0  0  0  0  0  0  0  0  0  0  0
   50.0220   35.1428   40.3200 H   0  0  0  0  0  0  0  0  0  0  0  0
   50.3324   35.2041   43.9913 H   0  0  0  0  0  0  0  0  0  0  0  0
   51.2228   35.5182   42.4776 H   0  0  0  0  0  0  0  0  0  0  0  0
   44.2264   35.4944   46.7837 H   0  0  0  0  0  0  0  0  0  0  0  0
   46.1522   31.7300   47.0068 H   0  0  0  0  0  0  0  0  0  0  0  0
   42.6704   36.5795   43.3531 H   0  0  0  0  0  0  0  0  0  0  0  0
  1 14  1  0
  2  1  1  0
  3  4  1  0
  3  2  2  0
  4 11  2  0
  5  7  1  0
  5  4  1  0
  6  5  2  0
  7  8  1  0
  8 10  2  0
  8  9  1  0
 11  1  1  0
 11 10  1  0
 12 17  2  0
 13 12  1  0
 14 13  2  0
 14 15  1  0
 15 16  2  0
 16 17  1  0
 18 13  1  0
 19 18  2  0
 20 18  1  0
  2 21  1  0
  7 22  1  0
  9 23  1  0
  9 24  1  0
 12 25  1  0
 16 26  1  0
 20 27  1  0
M  ISO  5  21  14  22   9  25  14  26  14  27   3
M  END
>  <minimizedAffinity>  (1) 
-6.6562624

>  <minimizedRMSD>  (1) 
1.33657658

$$$$
