
     RDKit          3D

 31 34  0  0  0  0  0  0  0  0999 V2000
   46.7850   32.0810   43.1030 N   0  0  0  0  0  0  0  0  0  0  0  0
   46.0350   31.6270   42.0690 C   0  0  0  0  0  0  0  0  0  0  0  0
   46.4500   32.2180   40.9250 N   0  0  0  0  0  0  0  0  0  0  0  0
   47.4610   33.0490   41.2050 C   0  0  0  0  0  0  0  0  0  0  0  0
   48.2220   33.8830   40.3850 C   0  0  0  0  0  0  0  0  0  0  0  0
   48.0220   33.9580   39.1560 O   0  0  0  0  0  0  0  0  0  0  0  0
   49.2030   34.6360   40.9240 N   0  0  0  0  0  0  0  0  0  0  0  0
   49.3930   34.5370   42.2400 C   0  0  0  0  0  0  0  0  0  0  0  0
   50.4040   35.2630   42.9140 N   0  0  0  0  0  0  0  0  0  0  0  0
   48.6650   33.7410   43.0280 N   0  0  0  0  0  0  0  0  0  0  0  0
   47.6760   32.9670   42.5650 C   0  0  0  0  0  0  0  0  0  0  0  0
   46.2440   32.4950   46.6970 C   0  0  0  0  0  0  0  0  0  0  0  0
   46.1830   32.7720   45.2970 C   0  0  0  0  0  0  0  0  0  0  0  0
   46.8150   31.8530   44.4990 C   0  0  0  0  0  0  0  0  0  0  0  0
   47.4340   30.7770   45.0880 N   0  0  0  0  0  0  0  0  0  0  0  0
   47.4680   30.5580   46.3930 C   0  0  0  0  0  0  0  0  0  0  0  0
   46.8710   31.4180   47.2090 N   0  0  0  0  0  0  0  0  0  0  0  0
   45.4640   33.9760   44.9660 C   0  0  0  0  0  0  0  0  0  0  0  0
   45.0250   34.5370   43.8040 C   0  0  0  0  0  0  0  0  0  0  0  0
   44.3810   35.6950   44.0200 N   0  0  0  0  0  0  0  0  0  0  0  0
   44.3890   35.9160   45.3660 C   0  0  0  0  0  0  0  0  0  0  0  0
   45.0430   34.8670   45.8770 N   0  0  0  0  0  0  0  0  0  0  0  0
   45.2184   30.8942   42.1477 H   0  0  0  0  0  0  0  0  0  0  0  0
   49.7806   35.2608   40.3436 H   0  0  0  0  0  0  0  0  0  0  0  0
   50.5201   35.1601   43.9323 H   0  0  0  0  0  0  0  0  0  0  0  0
   51.0236   35.8942   42.3862 H   0  0  0  0  0  0  0  0  0  0  0  0
   45.7554   33.1950   47.3907 H   0  0  0  0  0  0  0  0  0  0  0  0
   47.9845   29.6744   46.7962 H   0  0  0  0  0  0  0  0  0  0  0  0
   45.1797   34.0942   42.8090 H   0  0  0  0  0  0  0  0  0  0  0  0
   43.9543   36.7674   45.9102 H   0  0  0  0  0  0  0  0  0  0  0  0
   45.2098   34.7525   46.8869 H   0  0  0  0  0  0  0  0  0  0  0  0
  1 14  1  0
  2  1  1  0
  3  4  1  0
  3  2  2  0
  4 11  2  0
  5  7  1  0
  5  4  1  0
  6  5  2  0
  7  8  1  0
  8  9  1  0
  8 10  2  0
 11 10  1  0
 11  1  1  0
 12 17  2  0
 13 12  1  0
 14 15  1  0
 14 13  2  0
 15 16  2  0
 16 17  1  0
 18 13  1  0
 18 22  1  0
 19 20  1  0
 19 18  2  0
 20 21  2  0
 21 22  1  0
  2 23  1  0
  7 24  1  0
  9 25  1  0
  9 26  1  0
 12 27  1  0
 16 28  1  0
 19 29  1  0
 21 30  1  0
 22 31  1  0
M  ISO  7  23  14  24   9  27  14  28  14  29  14  30  14  31   9
M  END
>  <minimizedAffinity>  (1) 
-6.11823082

>  <minimizedRMSD>  (1) 
2.98100352

$$$$
