
     RDKit          3D

 37 40  0  0  0  0  0  0  0  0999 V2000
   46.7780   31.9010   43.1280 N   0  0  0  0  0  0  0  0  0  0  0  0
   45.9010   31.5460   42.1740 C   0  0  0  0  0  0  0  0  0  0  0  0
   46.4520   31.6720   40.9520 N   0  0  0  0  0  0  0  0  0  0  0  0
   47.7090   32.1180   41.1120 C   0  0  0  0  0  0  0  0  0  0  0  0
   48.7120   32.4180   40.1860 C   0  0  0  0  0  0  0  0  0  0  0  0
   48.5310   32.2900   38.9550 O   0  0  0  0  0  0  0  0  0  0  0  0
   49.9140   32.8590   40.6030 N   0  0  0  0  0  0  0  0  0  0  0  0
   50.0840   32.9880   41.9240 C   0  0  0  0  0  0  0  0  0  0  0  0
   51.3060   33.4430   42.4810 N   0  0  0  0  0  0  0  0  0  0  0  0
   49.1300   32.7030   42.8150 N   0  0  0  0  0  0  0  0  0  0  0  0
   47.9070   32.2600   42.4740 C   0  0  0  0  0  0  0  0  0  0  0  0
   46.0710   33.1140   46.5340 C   0  0  0  0  0  0  0  0  0  0  0  0
   46.0890   33.0370   45.1190 C   0  0  0  0  0  0  0  0  0  0  0  0
   46.7640   31.9720   44.5430 C   0  0  0  0  0  0  0  0  0  0  0  0
   47.3750   31.0570   45.3680 N   0  0  0  0  0  0  0  0  0  0  0  0
   47.3280   31.1760   46.6960 C   0  0  0  0  0  0  0  0  0  0  0  0
   46.6830   32.1940   47.2930 N   0  0  0  0  0  0  0  0  0  0  0  0
   45.4190   34.0450   44.3030 C   0  0  0  0  0  0  0  0  0  0  0  0
   44.6510   35.0850   45.0500 C   0  0  0  0  0  0  0  0  0  0  0  0
   44.7200   36.3590   44.2010 C   0  0  0  0  0  0  0  0  0  0  0  0
   45.3970   35.9080   42.9050 C   0  0  0  0  0  0  0  0  0  0  0  0
   46.3910   34.8870   43.4770 C   0  0  0  0  0  0  0  0  0  0  0  0
   44.8744   31.2001   42.3650 H   0  0  0  0  0  0  0  0  0  0  0  0
   50.6664   33.0861   39.9372 H   0  0  0  0  0  0  0  0  0  0  0  0
   51.4051   33.5315   43.5024 H   0  0  0  0  0  0  0  0  0  0  0  0
   52.0946   33.6850   41.8642 H   0  0  0  0  0  0  0  0  0  0  0  0
   45.5430   33.9474   47.0204 H   0  0  0  0  0  0  0  0  0  0  0  0
   47.8302   30.4214   47.3192 H   0  0  0  0  0  0  0  0  0  0  0  0
   44.7519   33.4051   43.7068 H   0  0  0  0  0  0  0  0  0  0  0  0
   43.6054   34.7683   45.1783 H   0  0  0  0  0  0  0  0  0  0  0  0
   45.0698   35.2489   46.0539 H   0  0  0  0  0  0  0  0  0  0  0  0
   43.7114   36.7489   43.9994 H   0  0  0  0  0  0  0  0  0  0  0  0
   45.2668   37.1712   44.7023 H   0  0  0  0  0  0  0  0  0  0  0  0
   45.9092   36.7397   42.3992 H   0  0  0  0  0  0  0  0  0  0  0  0
   44.7167   35.5165   42.1343 H   0  0  0  0  0  0  0  0  0  0  0  0
   46.8781   34.2977   42.6861 H   0  0  0  0  0  0  0  0  0  0  0  0
   47.2393   35.3126   44.0332 H   0  0  0  0  0  0  0  0  0  0  0  0
  1 14  1  0
  2  1  1  0
  3  4  1  0
  3  2  2  0
  4 11  2  0
  5  7  1  0
  5  4  1  0
  6  5  2  0
  7  8  1  0
  8  9  1  0
  8 10  2  0
 11 10  1  0
 11  1  1  0
 12 17  2  0
 13 12  1  0
 14 13  2  0
 14 15  1  0
 15 16  2  0
 16 17  1  0
 18 19  1  0
 18 13  1  0
 20 19  1  0
 21 22  1  0
 21 20  1  0
 22 18  1  0
  2 23  1  0
  7 24  1  0
  9 25  1  0
  9 26  1  0
 12 27  1  0
 16 28  1  0
 18 29  1  0
 19 30  1  0
 19 31  1  0
 20 32  1  0
 20 33  1  0
 21 34  1  0
 21 35  1  0
 22 36  1  0
 22 37  1  0
M  ISO  8  23  14  24   9  27  14  28  14  29  13  30  13  31  13  32  13
M  ISO  5  33  13  34  13  35  13  36  13  37  13
M  END
>  <minimizedAffinity>  (1) 
-5.68999243

>  <minimizedRMSD>  (1) 
2.93686771

$$$$
