
     RDKit          3D

 31 34  0  0  0  0  0  0  0  0999 V2000
   46.8700   31.9600   43.4970 N   0  0  0  0  0  0  0  0  0  0  0  0
   46.5130   31.0030   42.6140 C   0  0  0  0  0  0  0  0  0  0  0  0
   47.2710   31.0800   41.5070 N   0  0  0  0  0  0  0  0  0  0  0  0
   48.1440   32.1060   41.6600 C   0  0  0  0  0  0  0  0  0  0  0  0
   49.1350   32.6100   40.8250 C   0  0  0  0  0  0  0  0  0  0  0  0
   49.3650   32.1150   39.6990 O   0  0  0  0  0  0  0  0  0  0  0  0
   49.8780   33.6540   41.2180 N   0  0  0  0  0  0  0  0  0  0  0  0
   49.6120   34.1610   42.4240 C   0  0  0  0  0  0  0  0  0  0  0  0
   50.3330   35.2700   42.9520 N   0  0  0  0  0  0  0  0  0  0  0  0
   48.6640   33.6840   43.2310 N   0  0  0  0  0  0  0  0  0  0  0  0
   47.8820   32.6420   42.9020 C   0  0  0  0  0  0  0  0  0  0  0  0
   45.1200   33.8370   46.1260 C   0  0  0  0  0  0  0  0  0  0  0  0
   45.5730   33.4200   44.8600 C   0  0  0  0  0  0  0  0  0  0  0  0
   46.4440   32.3450   44.7770 C   0  0  0  0  0  0  0  0  0  0  0  0
   46.8270   31.7340   45.9460 N   0  0  0  0  0  0  0  0  0  0  0  0
   46.3680   32.1690   47.1380 C   0  0  0  0  0  0  0  0  0  0  0  0
   45.5320   33.1970   47.2470 N   0  0  0  0  0  0  0  0  0  0  0  0
   45.0750   34.1610   43.7750 N   0  0  0  0  0  0  0  0  0  0  0  0
   44.4230   33.9890   42.6070 C   0  0  0  0  0  0  0  0  0  0  0  0
   44.2450   35.2290   41.9980 C   0  0  0  0  0  0  0  0  0  0  0  0
   44.7980   36.1550   42.8110 N   0  0  0  0  0  0  0  0  0  0  0  0
   45.3030   35.5020   43.8920 C   0  0  0  0  0  0  0  0  0  0  0  0
   45.7144   30.2645   42.7777 H   0  0  0  0  0  0  0  0  0  0  0  0
   50.6182   34.0461   40.6187 H   0  0  0  0  0  0  0  0  0  0  0  0
   50.1021   35.6366   43.8865 H   0  0  0  0  0  0  0  0  0  0  0  0
   51.0853   35.7054   42.3994 H   0  0  0  0  0  0  0  0  0  0  0  0
   44.4272   34.6877   46.2057 H   0  0  0  0  0  0  0  0  0  0  0  0
   46.6975   31.6544   48.0527 H   0  0  0  0  0  0  0  0  0  0  0  0
   44.0858   33.0241   42.2005 H   0  0  0  0  0  0  0  0  0  0  0  0
   43.7474   35.4185   41.0355 H   0  0  0  0  0  0  0  0  0  0  0  0
   45.8189   35.9833   44.7359 H   0  0  0  0  0  0  0  0  0  0  0  0
  1 14  1  0
  2  1  1  0
  3  4  1  0
  3  2  2  0
  4 11  2  0
  5  7  1  0
  5  4  1  0
  6  5  2  0
  7  8  1  0
  8  9  1  0
  8 10  2  0
 11 10  1  0
 11  1  1  0
 12 17  2  0
 13 12  1  0
 14 13  2  0
 14 15  1  0
 15 16  2  0
 16 17  1  0
 18 22  1  0
 18 13  1  0
 19 18  1  0
 20 19  2  0
 20 21  1  0
 21 22  2  0
  2 23  1  0
  7 24  1  0
  9 25  1  0
  9 26  1  0
 12 27  1  0
 16 28  1  0
 19 29  1  0
 20 30  1  0
 22 31  1  0
M  ISO  7  23  14  24   9  27  14  28  14  29  14  30  14  31  14
M  END
>  <minimizedAffinity>  (1) 
-5.4758563

>  <minimizedRMSD>  (1) 
2.5753541

$$$$
