
     RDKit          3D

 33 35  0  0  0  0  0  0  0  0999 V2000
   45.7750   33.7950   42.8350 N   0  0  0  0  0  0  0  0  0  0  0  0
   45.0170   33.5270   41.7460 C   0  0  0  0  0  0  0  0  0  0  0  0
   45.7400   33.7210   40.6160 N   0  0  0  0  0  0  0  0  0  0  0  0
   46.9770   34.1190   40.9850 C   0  0  0  0  0  0  0  0  0  0  0  0
   48.1060   34.4570   40.2310 C   0  0  0  0  0  0  0  0  0  0  0  0
   48.0890   34.4170   38.9780 O   0  0  0  0  0  0  0  0  0  0  0  0
   49.2380   34.8340   40.8260 N   0  0  0  0  0  0  0  0  0  0  0  0
   49.2180   34.8650   42.1560 C   0  0  0  0  0  0  0  0  0  0  0  0
   50.3550   35.2660   42.9270 N   0  0  0  0  0  0  0  0  0  0  0  0
   48.1580   34.5470   42.9020 N   0  0  0  0  0  0  0  0  0  0  0  0
   46.9870   34.1610   42.3580 C   0  0  0  0  0  0  0  0  0  0  0  0
   44.5810   34.8610   46.1560 C   0  0  0  0  0  0  0  0  0  0  0  0
   44.8250   34.8380   44.7630 C   0  0  0  0  0  0  0  0  0  0  0  0
   45.5580   33.7740   44.2210 C   0  0  0  0  0  0  0  0  0  0  0  0
   46.0010   32.8140   45.0670 N   0  0  0  0  0  0  0  0  0  0  0  0
   45.7510   32.8680   46.3920 C   0  0  0  0  0  0  0  0  0  0  0  0
   45.0540   33.8700   46.9370 N   0  0  0  0  0  0  0  0  0  0  0  0
   44.2880   35.9510   43.9220 C   0  0  0  0  0  0  0  0  0  0  0  0
   43.4930   35.4170   42.7730 C   0  0  0  0  0  0  0  0  0  0  0  0
   45.4240   36.7790   43.3330 C   0  0  0  0  0  0  0  0  0  0  0  0
   43.9673   33.1995   41.7740 H   0  0  0  0  0  0  0  0  0  0  0  0
   50.0789   35.0865   40.2875 H   0  0  0  0  0  0  0  0  0  0  0  0
   50.3017   35.2774   43.9556 H   0  0  0  0  0  0  0  0  0  0  0  0
   51.2266   35.5432   42.4534 H   0  0  0  0  0  0  0  0  0  0  0  0
   44.0061   35.6865   46.6011 H   0  0  0  0  0  0  0  0  0  0  0  0
   46.1312   32.0656   47.0413 H   0  0  0  0  0  0  0  0  0  0  0  0
   43.6546   36.5681   44.5763 H   0  0  0  0  0  0  0  0  0  0  0  0
   42.6368   34.8419   43.1554 H   0  0  0  0  0  0  0  0  0  0  0  0
   43.1280   36.2538   42.1593 H   0  0  0  0  0  0  0  0  0  0  0  0
   44.1296   34.7626   42.1593 H   0  0  0  0  0  0  0  0  0  0  0  0
   46.0212   37.2143   44.1478 H   0  0  0  0  0  0  0  0  0  0  0  0
   46.0644   36.1344   42.7130 H   0  0  0  0  0  0  0  0  0  0  0  0
   45.0063   37.5860   42.7130 H   0  0  0  0  0  0  0  0  0  0  0  0
  1 14  1  0
  2  1  1  0
  3  4  1  0
  3  2  2  0
  4 11  2  0
  5  7  1  0
  5  4  1  0
  6  5  2  0
  7  8  1  0
  8 10  2  0
  8  9  1  0
 11  1  1  0
 11 10  1  0
 12 17  2  0
 13 12  1  0
 14 13  2  0
 14 15  1  0
 15 16  2  0
 16 17  1  0
 18 13  1  0
 19 18  1  0
 20 18  1  0
  2 21  1  0
  7 22  1  0
  9 23  1  0
  9 24  1  0
 12 25  1  0
 16 26  1  0
 18 27  1  0
 19 28  1  0
 19 29  1  0
 19 30  1  0
 20 31  1  0
 20 32  1  0
 20 33  1  0
M  ISO  8  21  14  22   9  25  14  26  14  27   8  28   8  29   8  30   8
M  ISO  3  31   8  32   8  33   8
M  END
>  <minimizedAffinity>  (1) 
-5.73419333

>  <minimizedRMSD>  (1) 
1.16092038

$$$$
