
     RDKit          3D

 40 43  0  0  1  0  0  0  0  0999 V2000
   43.6900   32.6460   41.9140 C   0  0  0  0  0  0  0  0  0  0  0  0
   43.5480   33.6070   40.8690 C   0  0  0  0  0  0  0  0  0  0  0  0
   44.2430   34.8010   41.0420 C   0  0  0  0  0  0  0  0  0  0  0  0
   44.9860   34.9440   42.1770 N   0  0  0  0  0  0  0  0  0  0  0  0
   45.0890   34.0280   43.1210 C   0  0  0  0  0  0  0  0  0  0  0  0
   44.4540   32.8760   43.0140 N   0  0  0  0  0  0  0  0  0  0  0  0
   42.6990   33.1680   39.7930 C   0  0  0  0  0  0  0  0  0  0  0  0
   43.2800   32.2220   39.0030 N   0  0  0  0  0  0  0  0  0  0  0  0
   42.6260   31.6930   37.9400 C   0  0  0  0  0  0  0  0  0  0  0  0
   41.3760   32.0660   37.6070 N   0  0  0  0  0  0  0  0  0  0  0  0
   40.7660   33.0040   38.3700 C   0  0  0  0  0  0  0  0  0  0  0  0
   39.4790   33.4930   38.1480 C   0  0  0  0  0  0  0  0  0  0  0  0
   38.9000   34.4440   38.9440 C   0  0  0  0  0  0  0  0  0  0  0  0
   39.6040   34.9590   40.0190 C   0  0  0  0  0  0  0  0  0  0  0  0
   40.8750   34.5060   40.2730 C   0  0  0  0  0  0  0  0  0  0  0  0
   41.4170   33.5500   39.4490 C   0  0  0  0  0  0  0  0  0  0  0  0
   45.9310   34.3200   44.2850 C   0  0  1  0  0  0  0  0  0  0  0  0
   45.0730   34.5700   45.5470 C   0  0  0  0  0  0  0  0  0  0  0  0
   46.9430   33.2940   44.6380 C   0  0  0  0  0  0  0  0  0  0  0  0
   46.5660   32.4250   45.7140 N   0  0  0  0  0  0  0  0  0  0  0  0
   47.0510   32.7580   46.9180 N   0  0  0  0  0  0  0  0  0  0  0  0
   46.6870   31.8920   47.8600 C   0  0  0  0  0  0  0  0  0  0  0  0
   45.9190   30.9230   47.2780 C   0  0  0  0  0  0  0  0  0  0  0  0
   45.8790   31.3030   45.9570 C   0  0  0  0  0  0  0  0  0  0  0  0
   43.1623   31.6848   41.8261 H   0  0  0  0  0  0  0  0  0  0  0  0
   44.1946   35.6016   40.2892 H   0  0  0  0  0  0  0  0  0  0  0  0
   43.1341   30.9328   37.3285 H   0  0  0  0  0  0  0  0  0  0  0  0
   38.9048   33.0976   37.2971 H   0  0  0  0  0  0  0  0  0  0  0  0
   37.8804   34.7973   38.7306 H   0  0  0  0  0  0  0  0  0  0  0  0
   39.1489   35.7248   40.6643 H   0  0  0  0  0  0  0  0  0  0  0  0
   41.4500   34.9024   41.1228 H   0  0  0  0  0  0  0  0  0  0  0  0
   46.4812   35.2171   43.9650 H   0  0  0  0  0  0  0  0  0  0  0  0
   45.6821   34.3925   46.4456 H   0  0  0  0  0  0  0  0  0  0  0  0
   44.7145   35.6099   45.5466 H   0  0  0  0  0  0  0  0  0  0  0  0
   44.2120   33.8854   45.5466 H   0  0  0  0  0  0  0  0  0  0  0  0
   47.1289   32.6756   43.7474 H   0  0  0  0  0  0  0  0  0  0  0  0
   47.8341   33.8415   44.9789 H   0  0  0  0  0  0  0  0  0  0  0  0
   46.9578   31.9466   48.9248 H   0  0  0  0  0  0  0  0  0  0  0  0
   45.4468   30.0498   47.7518 H   0  0  0  0  0  0  0  0  0  0  0  0
   45.3381   30.7424   45.1804 H   0  0  0  0  0  0  0  0  0  0  0  0
  1  6  2  0
  2  3  2  0
  2  1  1  0
  3  4  1  0
  4  5  2  0
  5 17  1  0
  6  5  1  0
  7  2  1  0
  8  7  2  0
  9  8  1  0
 10  9  2  0
 10 11  1  0
 11 16  2  0
 12 11  1  0
 12 13  2  0
 13 14  1  0
 14 15  2  0
 16  7  1  0
 16 15  1  0
 17 19  1  0
 17 18  1  0
 19 20  1  0
 20 24  1  0
 20 21  1  0
 21 22  2  0
 23 22  1  0
 24 23  2  0
  1 25  1  0
  3 26  1  0
  9 27  1  0
 12 28  1  0
 13 29  1  0
 14 30  1  0
 15 31  1  0
 17 32  1  6
 18 33  1  0
 18 34  1  0
 18 35  1  0
 19 36  1  0
 19 37  1  0
 22 38  1  0
 23 39  1  0
 24 40  1  0
M  ISO  8  25  14  26  14  27  14  28  14  29  14  30  14  31  14  32   8
M  ISO  8  33   8  34   8  35   8  36   8  37   8  38  14  39  14  40  14
M  END
>  <minimizedAffinity>  (1) 
-5.52346754

>  <minimizedRMSD>  (1) 
5.40207672

$$$$
