
     RDKit          3D

 26 27  0  0  0  0  0  0  0  0999 V2000
   46.8950   33.5670   43.6970 C   0  0  0  0  0  0  0  0  0  0  0  0
   47.4770   32.4630   44.2900 C   0  0  0  0  0  0  0  0  0  0  0  0
   47.0910   32.0050   45.5370 C   0  0  0  0  0  0  0  0  0  0  0  0
   46.0760   32.7180   46.1710 C   0  0  0  0  0  0  0  0  0  0  0  0
   45.4690   33.8350   45.6010 C   0  0  0  0  0  0  0  0  0  0  0  0
   45.8870   34.2560   44.3530 C   0  0  0  0  0  0  0  0  0  0  0  0
   48.7300   35.3450   41.0890 C   0  0  0  0  0  0  0  0  0  0  0  0
   48.2370   34.7760   39.9030 C   0  0  0  0  0  0  0  0  0  0  0  0
   47.2690   33.7760   40.0060 C   0  0  0  0  0  0  0  0  0  0  0  0
   46.8480   33.4000   41.2570 N   0  0  0  0  0  0  0  0  0  0  0  0
   47.3560   33.9830   42.3790 C   0  0  0  0  0  0  0  0  0  0  0  0
   48.2870   34.9440   42.2740 N   0  0  0  0  0  0  0  0  0  0  0  0
   45.2310   35.4540   43.7570 C   0  0  0  0  0  0  0  0  0  0  0  0
   44.4540   36.2230   44.8370 C   0  0  0  0  0  0  0  0  0  0  0  0
   48.2747   31.9299   43.7520 H   0  0  0  0  0  0  0  0  0  0  0  0
   47.5600   31.1257   46.0026 H   0  0  0  0  0  0  0  0  0  0  0  0
   45.7395   32.3849   47.1639 H   0  0  0  0  0  0  0  0  0  0  0  0
   44.6713   34.3722   46.1349 H   0  0  0  0  0  0  0  0  0  0  0  0
   49.4942   36.1343   41.0347 H   0  0  0  0  0  0  0  0  0  0  0  0
   48.6036   35.1092   38.9209 H   0  0  0  0  0  0  0  0  0  0  0  0
   46.8532   33.3003   39.1056 H   0  0  0  0  0  0  0  0  0  0  0  0
   45.9991   36.1116   43.3238 H   0  0  0  0  0  0  0  0  0  0  0  0
   44.5312   35.1286   42.9731 H   0  0  0  0  0  0  0  0  0  0  0  0
   44.7867   35.8938   45.8325 H   0  0  0  0  0  0  0  0  0  0  0  0
   44.6414   37.3012   44.7258 H   0  0  0  0  0  0  0  0  0  0  0  0
   43.3778   36.0245   44.7258 H   0  0  0  0  0  0  0  0  0  0  0  0
  1  2  2  0
  1  6  1  0
  2  3  1  0
  3  4  2  0
  5  4  1  0
  6  5  2  0
  7 12  2  0
  8  9  2  0
  8  7  1  0
  9 10  1  0
 10 11  2  0
 11  1  1  0
 12 11  1  0
 13  6  1  0
 13 14  1  0
  2 15  1  0
  3 16  1  0
  4 17  1  0
  5 18  1  0
  7 19  1  0
  8 20  1  0
  9 21  1  0
 13 22  1  0
 13 23  1  0
 14 24  1  0
 14 25  1  0
 14 26  1  0
M  ISO  8  15  14  16  14  17  14  18  14  19  14  20  14  21  14  22   8
M  ISO  4  23   8  24   8  25   8  26   8
M  END
>  <minimizedAffinity>  (1) 
-4.19572735

>  <minimizedRMSD>  (1) 
4.07359219

$$$$
