
     RDKit          3D

 29 30  0  0  0  0  0  0  0  0999 V2000
   46.5110   34.0840   43.7440 C   0  0  0  0  0  0  0  0  0  0  0  0
   47.0480   33.1060   44.5620 C   0  0  0  0  0  0  0  0  0  0  0  0
   46.5540   32.8820   45.8320 C   0  0  0  0  0  0  0  0  0  0  0  0
   45.5080   33.6620   46.2660 C   0  0  0  0  0  0  0  0  0  0  0  0
   44.9520   34.6370   45.4850 C   0  0  0  0  0  0  0  0  0  0  0  0
   45.4750   34.8210   44.2360 C   0  0  0  0  0  0  0  0  0  0  0  0
   44.8390   35.8720   43.4540 C   0  0  0  0  0  0  0  0  0  0  0  0
   45.3540   36.9350   43.0350 O   0  0  0  0  0  0  0  0  0  0  0  0
   43.4450   35.6750   43.1150 N   0  0  0  0  0  0  0  0  0  0  0  0
   43.1630   35.3050   41.7620 C   0  0  0  0  0  0  0  0  0  0  0  0
   44.0410   35.1360   40.8330 N   0  0  0  0  0  0  0  0  0  0  0  0
   41.8030   35.1020   41.3970 N   0  0  0  0  0  0  0  0  0  0  0  0
   43.8240   34.8670   39.8570 H   0  0  0  0  0  0  0  0  0  0  0  0
   48.5980   35.3520   41.0320 C   0  0  0  0  0  0  0  0  0  0  0  0
   48.1150   34.6870   39.9010 C   0  0  0  0  0  0  0  0  0  0  0  0
   47.0390   33.7780   40.0920 C   0  0  0  0  0  0  0  0  0  0  0  0
   46.5440   33.6070   41.3560 N   0  0  0  0  0  0  0  0  0  0  0  0
   47.0620   34.2870   42.4080 C   0  0  0  0  0  0  0  0  0  0  0  0
   48.0830   35.1520   42.2420 N   0  0  0  0  0  0  0  0  0  0  0  0
   47.8850   32.4947   44.1935 H   0  0  0  0  0  0  0  0  0  0  0  0
   46.9847   32.1024   46.4776 H   0  0  0  0  0  0  0  0  0  0  0  0
   45.1048   33.4960   47.2759 H   0  0  0  0  0  0  0  0  0  0  0  0
   44.1146   35.2506   45.8487 H   0  0  0  0  0  0  0  0  0  0  0  0
   42.6957   35.7950   43.8115 H   0  0  0  0  0  0  0  0  0  0  0  0
   41.5632   34.8349   40.4316 H   0  0  0  0  0  0  0  0  0  0  0  0
   41.0581   35.2221   42.0982 H   0  0  0  0  0  0  0  0  0  0  0  0
   49.4298   36.0627   40.9177 H   0  0  0  0  0  0  0  0  0  0  0  0
   48.5494   34.8599   38.9053 H   0  0  0  0  0  0  0  0  0  0  0  0
   46.6136   33.2241   39.2421 H   0  0  0  0  0  0  0  0  0  0  0  0
  1  6  1  0
  1  2  2  0
  2  3  1  0
  3  4  2  0
  5  4  1  0
  6  5  2  0
  7  6  1  0
  8  7  2  0
  9  7  1  0
 10  9  1  0
 11 10  2  0
 12 10  1  0
 13 11  1  0
 14 19  2  0
 15 16  2  0
 15 14  1  0
 16 17  1  0
 17 18  2  0
 18  1  1  0
 19 18  1  0
  2 20  1  0
  3 21  1  0
  4 22  1  0
  5 23  1  0
  9 24  1  0
 12 25  1  0
 12 26  1  0
 14 27  1  0
 15 28  1  0
 16 29  1  0
M  ISO  7  20  14  21  14  22  14  23  14  27  14  28  14  29  14
M  END
>  <minimizedAffinity>  (1) 
-6.09663916

>  <minimizedRMSD>  (1) 
0.805736065

$$$$
