
     RDKit          3D

 35 37  0  0  0  0  0  0  0  0999 V2000
   46.6040   34.1130   43.5300 C   0  0  0  0  0  0  0  0  0  0  0  0
   47.1110   33.1720   44.4170 C   0  0  0  0  0  0  0  0  0  0  0  0
   46.5290   33.0080   45.6630 C   0  0  0  0  0  0  0  0  0  0  0  0
   45.4500   33.7820   46.0120 C   0  0  0  0  0  0  0  0  0  0  0  0
   44.9240   34.7280   45.1530 C   0  0  0  0  0  0  0  0  0  0  0  0
   45.5300   34.8490   43.9420 C   0  0  0  0  0  0  0  0  0  0  0  0
   48.6460   35.4660   40.8290 C   0  0  0  0  0  0  0  0  0  0  0  0
   48.4090   34.5690   39.7630 C   0  0  0  0  0  0  0  0  0  0  0  0
   47.5370   33.4990   40.0020 C   0  0  0  0  0  0  0  0  0  0  0  0
   46.9640   33.3760   41.2400 N   0  0  0  0  0  0  0  0  0  0  0  0
   47.2320   34.2710   42.2220 C   0  0  0  0  0  0  0  0  0  0  0  0
   48.0580   35.2920   42.0080 N   0  0  0  0  0  0  0  0  0  0  0  0
   44.9230   35.8630   43.0880 C   0  0  0  0  0  0  0  0  0  0  0  0
   45.1750   37.1040   43.0310 O   0  0  0  0  0  0  0  0  0  0  0  0
   41.7800   34.8250   40.5190 C   0  0  0  0  0  0  0  0  0  0  0  0
   43.0670   34.6210   40.0530 C   0  0  0  0  0  0  0  0  0  0  0  0
   44.1430   34.9550   40.8870 C   0  0  0  0  0  0  0  0  0  0  0  0
   43.8620   35.4720   42.1340 C   0  0  0  0  0  0  0  0  0  0  0  0
   42.5490   35.6680   42.5770 C   0  0  0  0  0  0  0  0  0  0  0  0
   41.4880   35.3410   41.7630 C   0  0  0  0  0  0  0  0  0  0  0  0
   40.4950   34.3810   39.4150 S   0  0  0  0  0  0  0  0  0  0  0  0
   40.8030   34.9680   38.0680 O   0  0  0  0  0  0  0  0  0  0  0  0
   39.1850   34.9730   39.8550 O   0  0  0  0  0  0  0  0  0  0  0  0
   47.9759   32.5562   44.1294 H   0  0  0  0  0  0  0  0  0  0  0  0
   46.9281   32.2634   46.3675 H   0  0  0  0  0  0  0  0  0  0  0  0
   44.9917   33.6453   47.0026 H   0  0  0  0  0  0  0  0  0  0  0  0
   44.0612   35.3498   45.4339 H   0  0  0  0  0  0  0  0  0  0  0  0
   49.3253   36.3184   40.6811 H   0  0  0  0  0  0  0  0  0  0  0  0
   48.8906   34.7057   38.7835 H   0  0  0  0  0  0  0  0  0  0  0  0
   47.3161   32.7697   39.2087 H   0  0  0  0  0  0  0  0  0  0  0  0
   43.2419   34.2056   39.0496 H   0  0  0  0  0  0  0  0  0  0  0  0
   45.1818   34.8088   40.5561 H   0  0  0  0  0  0  0  0  0  0  0  0
   42.3643   36.0844   43.5782 H   0  0  0  0  0  0  0  0  0  0  0  0
   40.4485   35.4858   42.0925 H   0  0  0  0  0  0  0  0  0  0  0  0
   40.4061   33.0143   39.3810 H   0  0  0  0  0  0  0  0  0  0  0  0
  1  6  1  0
  1  2  2  0
  2  3  1  0
  3  4  2  0
  5  4  1  0
  6  5  2  0
  7 12  2  0
  8  9  2  0
  8  7  1  0
  9 10  1  0
 10 11  2  0
 11  1  1  0
 12 11  1  0
 13  6  1  0
 14 13  2  0
 15 20  2  0
 16 15  1  0
 16 17  2  0
 17 18  1  0
 18 19  2  0
 18 13  1  0
 20 19  1  0
 21 23  2  0
 21 15  1  0
 22 21  2  0
  2 24  1  0
  3 25  1  0
  4 26  1  0
  5 27  1  0
  7 28  1  0
  8 29  1  0
  9 30  1  0
 16 31  1  0
 17 32  1  0
 19 33  1  0
 20 34  1  0
 21 35  1  0
M  ISO  8  24  14  25  14  26  14  27  14  28  14  29  14  30  14  31  14
M  ISO  4  32  14  33  14  34  14  35  11
M  END
>  <minimizedAffinity>  (1) 
-5.89724255

>  <minimizedRMSD>  (1) 
0.435581237

$$$$
