
     RDKit          3D

 33 36  0  0  0  0  0  0  0  0999 V2000
   46.8830   33.9500   43.4650 C   0  0  0  0  0  0  0  0  0  0  0  0
   47.4850   33.0070   44.2720 C   0  0  0  0  0  0  0  0  0  0  0  0
   46.9590   32.7020   45.5120 C   0  0  0  0  0  0  0  0  0  0  0  0
   45.8360   33.3460   45.9300 C   0  0  0  0  0  0  0  0  0  0  0  0
   45.1960   34.2960   45.1640 C   0  0  0  0  0  0  0  0  0  0  0  0
   45.7600   34.5580   43.9440 C   0  0  0  0  0  0  0  0  0  0  0  0
   48.8200   35.6000   40.8490 C   0  0  0  0  0  0  0  0  0  0  0  0
   48.5350   34.8530   39.7070 C   0  0  0  0  0  0  0  0  0  0  0  0
   47.6590   33.7650   39.8500 C   0  0  0  0  0  0  0  0  0  0  0  0
   47.1210   33.4730   41.0820 N   0  0  0  0  0  0  0  0  0  0  0  0
   47.4480   34.2540   42.1650 C   0  0  0  0  0  0  0  0  0  0  0  0
   48.2780   35.2840   42.0210 N   0  0  0  0  0  0  0  0  0  0  0  0
   45.0410   35.5710   43.1730 C   0  0  0  0  0  0  0  0  0  0  0  0
   45.1320   36.8160   43.2270 O   0  0  0  0  0  0  0  0  0  0  0  0
   42.7250   31.9020   41.3520 N   0  0  0  0  0  0  0  0  0  0  0  0
   43.5510   31.5360   42.3540 C   0  0  0  0  0  0  0  0  0  0  0  0
   44.1750   32.6480   42.8180 N   0  0  0  0  0  0  0  0  0  0  0  0
   43.7600   33.7180   42.1290 C   0  0  0  0  0  0  0  0  0  0  0  0
   44.0760   35.0680   42.1980 C   0  0  0  0  0  0  0  0  0  0  0  0
   43.4200   35.8300   41.3020 N   0  0  0  0  0  0  0  0  0  0  0  0
   42.5450   35.3760   40.4180 C   0  0  0  0  0  0  0  0  0  0  0  0
   42.2270   34.0720   40.3380 N   0  0  0  0  0  0  0  0  0  0  0  0
   42.8510   33.2360   41.2120 C   0  0  0  0  0  0  0  0  0  0  0  0
   48.3931   32.4928   43.9244 H   0  0  0  0  0  0  0  0  0  0  0  0
   47.4413   31.9490   46.1526 H   0  0  0  0  0  0  0  0  0  0  0  0
   45.4224   33.0986   46.9188 H   0  0  0  0  0  0  0  0  0  0  0  0
   44.2885   34.8118   45.5110 H   0  0  0  0  0  0  0  0  0  0  0  0
   49.5012   36.4609   40.7795 H   0  0  0  0  0  0  0  0  0  0  0  0
   48.9787   35.1058   38.7327 H   0  0  0  0  0  0  0  0  0  0  0  0
   47.4030   33.1463   38.9772 H   0  0  0  0  0  0  0  0  0  0  0  0
   42.1156   31.2813   40.8004 H   0  0  0  0  0  0  0  0  0  0  0  0
   43.6940   30.5122   42.7301 H   0  0  0  0  0  0  0  0  0  0  0  0
   42.0643   36.0862   39.7291 H   0  0  0  0  0  0  0  0  0  0  0  0
  1  6  1  0
  1  2  2  0
  2  3  1  0
  3  4  2  0
  5  4  1  0
  6  5  2  0
  7 12  2  0
  8  9  2  0
  8  7  1  0
  9 10  1  0
 10 11  2  0
 11  1  1  0
 12 11  1  0
 13 14  2  0
 13  6  1  0
 15 16  1  0
 16 17  2  0
 18 19  2  0
 18 17  1  0
 19 13  1  0
 20 19  1  0
 21 20  2  0
 22 21  1  0
 22 23  2  0
 23 15  1  0
 23 18  1  0
  2 24  1  0
  3 25  1  0
  4 26  1  0
  5 27  1  0
  7 28  1  0
  8 29  1  0
  9 30  1  0
 15 31  1  0
 16 32  1  0
 21 33  1  0
M  ISO  8  24  14  25  14  26  14  27  14  28  14  29  14  30  14  31   9
M  ISO  2  32  14  33  14
M  END
>  <minimizedAffinity>  (1) 
-5.75065327

>  <minimizedRMSD>  (1) 
0.949241281

$$$$
