
     RDKit          3D

 29 31  0  0  0  0  0  0  0  0999 V2000
   46.4970   34.1870   43.5970 C   0  0  0  0  0  0  0  0  0  0  0  0
   46.9720   33.2280   44.4510 C   0  0  0  0  0  0  0  0  0  0  0  0
   46.4240   33.0560   45.7080 C   0  0  0  0  0  0  0  0  0  0  0  0
   45.3950   33.8630   46.0830 C   0  0  0  0  0  0  0  0  0  0  0  0
   44.8790   34.8420   45.2650 C   0  0  0  0  0  0  0  0  0  0  0  0
   45.4590   34.9720   44.0280 C   0  0  0  0  0  0  0  0  0  0  0  0
   48.6250   35.4090   40.8840 C   0  0  0  0  0  0  0  0  0  0  0  0
   48.2260   34.6430   39.7880 C   0  0  0  0  0  0  0  0  0  0  0  0
   47.2080   33.6930   39.9930 C   0  0  0  0  0  0  0  0  0  0  0  0
   46.6580   33.5610   41.2420 N   0  0  0  0  0  0  0  0  0  0  0  0
   47.0940   34.3450   42.2800 C   0  0  0  0  0  0  0  0  0  0  0  0
   48.0660   35.2520   42.0840 N   0  0  0  0  0  0  0  0  0  0  0  0
   44.8750   36.0230   43.1990 C   0  0  0  0  0  0  0  0  0  0  0  0
   45.2770   37.2200   43.0840 O   0  0  0  0  0  0  0  0  0  0  0  0
   43.6850   35.6490   42.4110 C   0  0  0  0  0  0  0  0  0  0  0  0
   43.7550   35.2830   41.0680 C   0  0  0  0  0  0  0  0  0  0  0  0
   42.4830   35.0090   40.6780 N   0  0  0  0  0  0  0  0  0  0  0  0
   41.6710   35.1950   41.7250 C   0  0  0  0  0  0  0  0  0  0  0  0
   42.4080   35.5860   42.7810 N   0  0  0  0  0  0  0  0  0  0  0  0
   47.8040   32.5834   44.1311 H   0  0  0  0  0  0  0  0  0  0  0  0
   46.8110   32.2843   46.3897 H   0  0  0  0  0  0  0  0  0  0  0  0
   44.9567   33.7272   47.0827 H   0  0  0  0  0  0  0  0  0  0  0  0
   44.0465   35.4857   45.5854 H   0  0  0  0  0  0  0  0  0  0  0  0
   49.4188   36.1594   40.7549 H   0  0  0  0  0  0  0  0  0  0  0  0
   48.6902   34.7768   38.7998 H   0  0  0  0  0  0  0  0  0  0  0  0
   46.8579   33.0640   39.1613 H   0  0  0  0  0  0  0  0  0  0  0  0
   44.6611   35.2271   40.4468 H   0  0  0  0  0  0  0  0  0  0  0  0
   40.5804   35.0519   41.7230 H   0  0  0  0  0  0  0  0  0  0  0  0
   42.0440   35.8010   43.7203 H   0  0  0  0  0  0  0  0  0  0  0  0
  1  6  1  0
  1  2  2  0
  2  3  1  0
  3  4  2  0
  5  4  1  0
  6  5  2  0
  7 12  2  0
  8  9  2  0
  8  7  1  0
  9 10  1  0
 10 11  2  0
 11  1  1  0
 12 11  1  0
 13  6  1  0
 14 13  2  0
 15 19  1  0
 15 13  1  0
 16 15  2  0
 17 16  1  0
 17 18  2  0
 18 19  1  0
  2 20  1  0
  3 21  1  0
  4 22  1  0
  5 23  1  0
  7 24  1  0
  8 25  1  0
  9 26  1  0
 16 27  1  0
 18 28  1  0
 19 29  1  0
M  ISO  8  20  14  21  14  22  14  23  14  24  14  25  14  26  14  27  14
M  ISO  2  28  14  29   9
M  END
>  <minimizedAffinity>  (1) 
-5.8608489

>  <minimizedRMSD>  (1) 
0.242837578

$$$$
