
     RDKit          3D

 30 32  0  0  0  0  0  0  0  0999 V2000
   46.7920   33.9450   43.4310 C   0  0  0  0  0  0  0  0  0  0  0  0
   47.4290   33.0560   44.2800 C   0  0  0  0  0  0  0  0  0  0  0  0
   46.9390   32.8100   45.5460 C   0  0  0  0  0  0  0  0  0  0  0  0
   45.8070   33.4640   45.9510 C   0  0  0  0  0  0  0  0  0  0  0  0
   45.1430   34.3550   45.1400 C   0  0  0  0  0  0  0  0  0  0  0  0
   45.6650   34.5670   43.8920 C   0  0  0  0  0  0  0  0  0  0  0  0
   48.6930   35.4260   40.6950 C   0  0  0  0  0  0  0  0  0  0  0  0
   48.3490   34.6270   39.5810 C   0  0  0  0  0  0  0  0  0  0  0  0
   47.4390   33.5570   39.7990 C   0  0  0  0  0  0  0  0  0  0  0  0
   46.9580   33.3700   41.0630 N   0  0  0  0  0  0  0  0  0  0  0  0
   47.3340   34.1840   42.0980 C   0  0  0  0  0  0  0  0  0  0  0  0
   48.1870   35.1910   41.9060 N   0  0  0  0  0  0  0  0  0  0  0  0
   44.9230   35.5170   43.0830 C   0  0  0  0  0  0  0  0  0  0  0  0
   45.0110   36.7680   43.0860 O   0  0  0  0  0  0  0  0  0  0  0  0
   43.9360   34.9690   42.1290 C   0  0  0  0  0  0  0  0  0  0  0  0
   43.3490   35.8050   41.1790 C   0  0  0  0  0  0  0  0  0  0  0  0
   42.4210   35.2510   40.2960 C   0  0  0  0  0  0  0  0  0  0  0  0
   42.0960   33.9430   40.3530 N   0  0  0  0  0  0  0  0  0  0  0  0
   42.6800   33.1470   41.2860 C   0  0  0  0  0  0  0  0  0  0  0  0
   43.5760   33.6590   42.1470 N   0  0  0  0  0  0  0  0  0  0  0  0
   48.3384   32.5386   43.9404 H   0  0  0  0  0  0  0  0  0  0  0  0
   47.4481   32.1022   46.2167 H   0  0  0  0  0  0  0  0  0  0  0  0
   45.4144   33.2704   46.9602 H   0  0  0  0  0  0  0  0  0  0  0  0
   44.2340   34.8736   45.4787 H   0  0  0  0  0  0  0  0  0  0  0  0
   49.3951   36.2619   40.5596 H   0  0  0  0  0  0  0  0  0  0  0  0
   48.7692   34.8255   38.5840 H   0  0  0  0  0  0  0  0  0  0  0  0
   47.1312   32.8987   38.9732 H   0  0  0  0  0  0  0  0  0  0  0  0
   43.6105   36.8722   41.1272 H   0  0  0  0  0  0  0  0  0  0  0  0
   41.9458   35.8928   39.5395 H   0  0  0  0  0  0  0  0  0  0  0  0
   42.4187   32.0797   41.3370 H   0  0  0  0  0  0  0  0  0  0  0  0
  1  6  1  0
  1  2  2  0
  2  3  1  0
  3  4  2  0
  5  4  1  0
  6  5  2  0
  7 12  2  0
  8  9  2  0
  8  7  1  0
  9 10  1  0
 10 11  2  0
 11  1  1  0
 12 11  1  0
 13 14  2  0
 13  6  1  0
 15 20  1  0
 15 13  1  0
 16 15  2  0
 17 18  2  0
 17 16  1  0
 18 19  1  0
 19 20  2  0
  2 21  1  0
  3 22  1  0
  4 23  1  0
  5 24  1  0
  7 25  1  0
  8 26  1  0
  9 27  1  0
 16 28  1  0
 17 29  1  0
 19 30  1  0
M  ISO  8  21  14  22  14  23  14  24  14  25  14  26  14  27  14  28  14
M  ISO  2  29  14  30  14
M  END
>  <minimizedAffinity>  (1) 
-5.27134418

>  <minimizedRMSD>  (1) 
0.676537573

$$$$
