
     RDKit          3D

 31 33  0  0  0  0  0  0  0  0999 V2000
   46.6130   34.1520   43.5340 C   0  0  0  0  0  0  0  0  0  0  0  0
   47.1010   33.2110   44.4000 C   0  0  0  0  0  0  0  0  0  0  0  0
   46.5240   33.0140   45.6360 C   0  0  0  0  0  0  0  0  0  0  0  0
   45.4450   33.7800   45.9880 C   0  0  0  0  0  0  0  0  0  0  0  0
   44.9170   34.7360   45.1570 C   0  0  0  0  0  0  0  0  0  0  0  0
   45.5270   34.8990   43.9320 C   0  0  0  0  0  0  0  0  0  0  0  0
   48.6980   35.5140   40.8580 C   0  0  0  0  0  0  0  0  0  0  0  0
   48.4190   34.6840   39.7720 C   0  0  0  0  0  0  0  0  0  0  0  0
   47.4980   33.6390   39.9700 C   0  0  0  0  0  0  0  0  0  0  0  0
   46.9230   33.4880   41.2070 N   0  0  0  0  0  0  0  0  0  0  0  0
   47.2420   34.3410   42.2340 C   0  0  0  0  0  0  0  0  0  0  0  0
   48.1180   35.3360   42.0500 N   0  0  0  0  0  0  0  0  0  0  0  0
   44.9250   35.9200   43.0910 C   0  0  0  0  0  0  0  0  0  0  0  0
   45.2210   37.1360   43.0310 O   0  0  0  0  0  0  0  0  0  0  0  0
   43.8280   35.4920   42.1890 C   0  0  0  0  0  0  0  0  0  0  0  0
   44.1070   34.9900   40.9520 C   0  0  0  0  0  0  0  0  0  0  0  0
   43.1420   34.5710   40.0580 C   0  0  0  0  0  0  0  0  0  0  0  0
   41.8230   34.6870   40.4840 C   0  0  0  0  0  0  0  0  0  0  0  0
   41.5330   35.1950   41.7370 C   0  0  0  0  0  0  0  0  0  0  0  0
   42.5340   35.5800   42.5480 N   0  0  0  0  0  0  0  0  0  0  0  0
   47.9680   32.6019   44.1046 H   0  0  0  0  0  0  0  0  0  0  0  0
   46.9226   32.2560   46.3264 H   0  0  0  0  0  0  0  0  0  0  0  0
   44.9839   33.6231   46.9743 H   0  0  0  0  0  0  0  0  0  0  0  0
   44.0490   35.3428   45.4543 H   0  0  0  0  0  0  0  0  0  0  0  0
   49.4153   36.3382   40.7304 H   0  0  0  0  0  0  0  0  0  0  0  0
   48.9017   34.8409   38.7961 H   0  0  0  0  0  0  0  0  0  0  0  0
   47.2431   32.9547   39.1474 H   0  0  0  0  0  0  0  0  0  0  0  0
   45.1618   34.9146   40.6491 H   0  0  0  0  0  0  0  0  0  0  0  0
   43.4009   34.1692   39.0673 H   0  0  0  0  0  0  0  0  0  0  0  0
   41.0048   34.3724   39.8195 H   0  0  0  0  0  0  0  0  0  0  0  0
   40.4880   35.2837   42.0688 H   0  0  0  0  0  0  0  0  0  0  0  0
  1  6  1  0
  1  2  2  0
  2  3  1  0
  3  4  2  0
  5  4  1  0
  6  5  2  0
  7 12  2  0
  8  9  2  0
  8  7  1  0
  9 10  1  0
 10 11  2  0
 11  1  1  0
 12 11  1  0
 13  6  1  0
 14 13  2  0
 15 20  1  0
 15 13  1  0
 16 15  2  0
 17 18  2  0
 17 16  1  0
 18 19  1  0
 19 20  2  0
  2 21  1  0
  3 22  1  0
  4 23  1  0
  5 24  1  0
  7 25  1  0
  8 26  1  0
  9 27  1  0
 16 28  1  0
 17 29  1  0
 18 30  1  0
 19 31  1  0
M  ISO  8  21  14  22  14  23  14  24  14  25  14  26  14  27  14  28  14
M  ISO  3  29  14  30  14  31  14
M  END
>  <minimizedAffinity>  (1) 
-5.38133764

>  <minimizedRMSD>  (1) 
0.331079394

$$$$
