
     RDKit          3D

 29 31  0  0  0  0  0  0  0  0999 V2000
   46.7690   34.0270   43.4760 C   0  0  0  0  0  0  0  0  0  0  0  0
   47.3480   33.0840   44.3010 C   0  0  0  0  0  0  0  0  0  0  0  0
   46.8260   32.8200   45.5500 C   0  0  0  0  0  0  0  0  0  0  0  0
   45.7220   33.5060   45.9650 C   0  0  0  0  0  0  0  0  0  0  0  0
   45.1070   34.4580   45.1770 C   0  0  0  0  0  0  0  0  0  0  0  0
   45.6640   34.6810   43.9510 C   0  0  0  0  0  0  0  0  0  0  0  0
   48.7780   35.5140   40.8190 C   0  0  0  0  0  0  0  0  0  0  0  0
   48.4110   34.7780   39.6940 C   0  0  0  0  0  0  0  0  0  0  0  0
   47.4620   33.7580   39.8500 C   0  0  0  0  0  0  0  0  0  0  0  0
   46.9470   33.5410   41.1010 N   0  0  0  0  0  0  0  0  0  0  0  0
   47.3370   34.2870   42.1680 C   0  0  0  0  0  0  0  0  0  0  0  0
   48.2420   35.2560   42.0130 N   0  0  0  0  0  0  0  0  0  0  0  0
   44.9710   35.7020   43.1560 C   0  0  0  0  0  0  0  0  0  0  0  0
   45.1110   36.9470   43.2190 O   0  0  0  0  0  0  0  0  0  0  0  0
   42.7080   33.7450   41.1350 N   0  0  0  0  0  0  0  0  0  0  0  0
   43.5890   33.8960   42.1300 N   0  0  0  0  0  0  0  0  0  0  0  0
   43.9910   35.2020   42.1600 C   0  0  0  0  0  0  0  0  0  0  0  0
   43.3250   35.8240   41.1570 C   0  0  0  0  0  0  0  0  0  0  0  0
   42.5170   34.9070   40.5090 C   0  0  0  0  0  0  0  0  0  0  0  0
   48.2377   32.5357   43.9577 H   0  0  0  0  0  0  0  0  0  0  0  0
   47.2930   32.0673   46.2022 H   0  0  0  0  0  0  0  0  0  0  0  0
   45.3079   33.2932   46.9616 H   0  0  0  0  0  0  0  0  0  0  0  0
   44.2169   35.0068   45.5184 H   0  0  0  0  0  0  0  0  0  0  0  0
   49.5206   36.3196   40.7210 H   0  0  0  0  0  0  0  0  0  0  0  0
   48.8540   34.9916   38.7101 H   0  0  0  0  0  0  0  0  0  0  0  0
   47.1400   33.1491   38.9924 H   0  0  0  0  0  0  0  0  0  0  0  0
   42.2441   32.8592   40.8879 H   0  0  0  0  0  0  0  0  0  0  0  0
   43.4130   36.8897   40.8989 H   0  0  0  0  0  0  0  0  0  0  0  0
   41.8530   35.0973   39.6529 H   0  0  0  0  0  0  0  0  0  0  0  0
  1  6  1  0
  1  2  2  0
  2  3  1  0
  3  4  2  0
  5  4  1  0
  6  5  2  0
  7 12  2  0
  8  9  2  0
  8  7  1  0
  9 10  1  0
 10 11  2  0
 11  1  1  0
 12 11  1  0
 13 14  2  0
 13  6  1  0
 15 16  1  0
 16 17  2  0
 17 13  1  0
 18 17  1  0
 19 15  1  0
 19 18  2  0
  2 20  1  0
  3 21  1  0
  4 22  1  0
  5 23  1  0
  7 24  1  0
  8 25  1  0
  9 26  1  0
 15 27  1  0
 18 28  1  0
 19 29  1  0
M  ISO  8  20  14  21  14  22  14  23  14  24  14  25  14  26  14  27   9
M  ISO  2  28  14  29  14
M  END
>  <minimizedAffinity>  (1) 
-5.28975534

>  <minimizedRMSD>  (1) 
0.446580857

$$$$
