
     RDKit          3D

 37 39  0  0  0  0  0  0  0  0999 V2000
   46.8060   33.9150   43.4210 C   0  0  0  0  0  0  0  0  0  0  0  0
   47.4490   33.0550   44.2710 C   0  0  0  0  0  0  0  0  0  0  0  0
   46.9700   32.8030   45.5410 C   0  0  0  0  0  0  0  0  0  0  0  0
   45.8200   33.4410   45.9390 C   0  0  0  0  0  0  0  0  0  0  0  0
   45.1390   34.3080   45.1330 C   0  0  0  0  0  0  0  0  0  0  0  0
   45.6730   34.5130   43.8800 C   0  0  0  0  0  0  0  0  0  0  0  0
   48.6790   35.4210   40.6740 C   0  0  0  0  0  0  0  0  0  0  0  0
   48.3490   34.6280   39.5720 C   0  0  0  0  0  0  0  0  0  0  0  0
   47.4660   33.5600   39.7890 C   0  0  0  0  0  0  0  0  0  0  0  0
   46.9720   33.3410   41.0550 N   0  0  0  0  0  0  0  0  0  0  0  0
   47.3400   34.1600   42.0850 C   0  0  0  0  0  0  0  0  0  0  0  0
   48.1820   35.1830   41.8870 N   0  0  0  0  0  0  0  0  0  0  0  0
   44.8950   35.4520   43.0720 C   0  0  0  0  0  0  0  0  0  0  0  0
   44.9760   36.7120   43.0450 O   0  0  0  0  0  0  0  0  0  0  0  0
   43.8720   35.0930   42.1410 N   0  0  0  0  0  0  0  0  0  0  0  0
   43.6500   33.6500   42.0510 C   0  0  0  0  0  0  0  0  0  0  0  0
   43.1650   33.3730   40.6480 C   0  0  0  0  0  0  0  0  0  0  0  0
   41.7590   33.8910   40.5350 C   0  0  0  0  0  0  0  0  0  0  0  0
   41.6610   35.2530   41.1520 C   0  0  0  0  0  0  0  0  0  0  0  0
   43.0270   35.8740   41.2840 C   0  0  0  0  0  0  0  0  0  0  0  0
   48.3682   32.5535   43.9341 H   0  0  0  0  0  0  0  0  0  0  0  0
   47.4946   32.1105   46.2157 H   0  0  0  0  0  0  0  0  0  0  0  0
   45.4315   33.2452   46.9493 H   0  0  0  0  0  0  0  0  0  0  0  0
   44.2193   34.8123   45.4645 H   0  0  0  0  0  0  0  0  0  0  0  0
   49.3692   36.2664   40.5361 H   0  0  0  0  0  0  0  0  0  0  0  0
   48.7649   34.8330   38.5745 H   0  0  0  0  0  0  0  0  0  0  0  0
   47.1714   32.9044   38.9563 H   0  0  0  0  0  0  0  0  0  0  0  0
   44.5888   33.1093   42.2414 H   0  0  0  0  0  0  0  0  0  0  0  0
   42.9147   33.3152   42.7975 H   0  0  0  0  0  0  0  0  0  0  0  0
   43.8118   33.8857   39.9208 H   0  0  0  0  0  0  0  0  0  0  0  0
   43.1938   32.2935   40.4386 H   0  0  0  0  0  0  0  0  0  0  0  0
   41.4777   33.9514   39.4733 H   0  0  0  0  0  0  0  0  0  0  0  0
   41.0795   33.2064   41.0638 H   0  0  0  0  0  0  0  0  0  0  0  0
   41.0324   35.8937   40.5161 H   0  0  0  0  0  0  0  0  0  0  0  0
   41.2161   35.1578   42.1535 H   0  0  0  0  0  0  0  0  0  0  0  0
   43.4889   35.9397   40.2879 H   0  0  0  0  0  0  0  0  0  0  0  0
   42.9131   36.8749   41.7258 H   0  0  0  0  0  0  0  0  0  0  0  0
  1  6  1  0
  1  2  2  0
  2  3  1  0
  3  4  2  0
  5  4  1  0
  6  5  2  0
  7 12  2  0
  8  9  2  0
  8  7  1  0
  9 10  1  0
 10 11  2  0
 11  1  1  0
 12 11  1  0
 13  6  1  0
 14 13  2  0
 15 13  1  0
 16 15  1  0
 17 16  1  0
 18 17  1  0
 18 19  1  0
 19 20  1  0
 20 15  1  0
  2 21  1  0
  3 22  1  0
  4 23  1  0
  5 24  1  0
  7 25  1  0
  8 26  1  0
  9 27  1  0
 16 28  1  0
 16 29  1  0
 17 30  1  0
 17 31  1  0
 18 32  1  0
 18 33  1  0
 19 34  1  0
 19 35  1  0
 20 36  1  0
 20 37  1  0
M  ISO  8  21  14  22  14  23  14  24  14  25  14  26  14  27  14  28  13
M  ISO  8  29  13  30  13  31  13  32  13  33  13  34  13  35  13  36  13
M  ISO  1  37  13
M  END
>  <minimizedAffinity>  (1) 
-5.36188412

>  <minimizedRMSD>  (1) 
0.73071295

$$$$
