
     RDKit          3D

 29 31  0  0  0  0  0  0  0  0999 V2000
   46.7720   33.9830   43.4980 C   0  0  0  0  0  0  0  0  0  0  0  0
   47.3650   33.0540   44.3260 C   0  0  0  0  0  0  0  0  0  0  0  0
   46.8600   32.7940   45.5820 C   0  0  0  0  0  0  0  0  0  0  0  0
   45.7490   33.4810   45.9930 C   0  0  0  0  0  0  0  0  0  0  0  0
   45.1260   34.4100   45.2120 C   0  0  0  0  0  0  0  0  0  0  0  0
   45.6700   34.6320   43.9680 C   0  0  0  0  0  0  0  0  0  0  0  0
   48.7630   35.4930   40.8320 C   0  0  0  0  0  0  0  0  0  0  0  0
   48.4030   34.7500   39.7020 C   0  0  0  0  0  0  0  0  0  0  0  0
   47.4540   33.7070   39.8610 C   0  0  0  0  0  0  0  0  0  0  0  0
   46.9380   33.4800   41.1150 N   0  0  0  0  0  0  0  0  0  0  0  0
   47.3320   34.2390   42.1700 C   0  0  0  0  0  0  0  0  0  0  0  0
   48.2310   35.2280   42.0220 N   0  0  0  0  0  0  0  0  0  0  0  0
   44.9620   35.6400   43.1690 C   0  0  0  0  0  0  0  0  0  0  0  0
   45.0820   36.8850   43.2030 O   0  0  0  0  0  0  0  0  0  0  0  0
   43.9850   35.1030   42.2060 C   0  0  0  0  0  0  0  0  0  0  0  0
   43.3460   35.8480   41.2310 C   0  0  0  0  0  0  0  0  0  0  0  0
   42.4970   35.0240   40.5080 C   0  0  0  0  0  0  0  0  0  0  0  0
   42.6480   33.7940   41.0720 N   0  0  0  0  0  0  0  0  0  0  0  0
   43.5110   33.8510   42.0530 N   0  0  0  0  0  0  0  0  0  0  0  0
   48.2563   32.5110   43.9786 H   0  0  0  0  0  0  0  0  0  0  0  0
   47.3382   32.0522   46.2386 H   0  0  0  0  0  0  0  0  0  0  0  0
   45.3421   33.2753   46.9941 H   0  0  0  0  0  0  0  0  0  0  0  0
   44.2348   34.9535   45.5590 H   0  0  0  0  0  0  0  0  0  0  0  0
   49.4960   36.3074   40.7348 H   0  0  0  0  0  0  0  0  0  0  0  0
   48.8434   34.9684   38.7180 H   0  0  0  0  0  0  0  0  0  0  0  0
   47.1391   33.0955   39.0026 H   0  0  0  0  0  0  0  0  0  0  0  0
   43.4890   36.9247   41.0568 H   0  0  0  0  0  0  0  0  0  0  0  0
   41.8462   35.3022   39.6660 H   0  0  0  0  0  0  0  0  0  0  0  0
   42.1541   32.9421   40.7699 H   0  0  0  0  0  0  0  0  0  0  0  0
  1  6  1  0
  1  2  2  0
  2  3  1  0
  3  4  2  0
  5  4  1  0
  6  5  2  0
  7 12  2  0
  8  9  2  0
  8  7  1  0
  9 10  1  0
 10 11  2  0
 11  1  1  0
 12 11  1  0
 13 14  2  0
 13  6  1  0
 15 13  1  0
 16 15  1  0
 17 18  1  0
 17 16  2  0
 18 19  1  0
 19 15  2  0
  2 20  1  0
  3 21  1  0
  4 22  1  0
  5 23  1  0
  7 24  1  0
  8 25  1  0
  9 26  1  0
 16 27  1  0
 17 28  1  0
 18 29  1  0
M  ISO  8  20  14  21  14  22  14  23  14  24  14  25  14  26  14  27  14
M  ISO  2  28  14  29   9
M  END
>  <minimizedAffinity>  (1) 
-5.25653028

>  <minimizedRMSD>  (1) 
0.494783819

$$$$
