
     RDKit          3D

 29 31  0  0  0  0  0  0  0  0999 V2000
   46.6230   34.1280   43.5770 C   0  0  0  0  0  0  0  0  0  0  0  0
   47.1540   33.1690   44.4270 C   0  0  0  0  0  0  0  0  0  0  0  0
   46.6220   32.9310   45.6740 C   0  0  0  0  0  0  0  0  0  0  0  0
   45.5430   33.6720   46.0650 C   0  0  0  0  0  0  0  0  0  0  0  0
   44.9720   34.6410   45.2590 C   0  0  0  0  0  0  0  0  0  0  0  0
   45.5510   34.8260   44.0290 C   0  0  0  0  0  0  0  0  0  0  0  0
   48.7080   35.4910   40.9220 C   0  0  0  0  0  0  0  0  0  0  0  0
   48.3420   34.7400   39.7990 C   0  0  0  0  0  0  0  0  0  0  0  0
   47.3550   33.7420   39.9620 C   0  0  0  0  0  0  0  0  0  0  0  0
   46.8140   33.5680   41.2070 N   0  0  0  0  0  0  0  0  0  0  0  0
   47.2190   34.3410   42.2680 C   0  0  0  0  0  0  0  0  0  0  0  0
   48.1490   35.2800   42.1140 N   0  0  0  0  0  0  0  0  0  0  0  0
   44.9060   35.8510   43.2260 C   0  0  0  0  0  0  0  0  0  0  0  0
   45.2610   37.0310   43.0070 O   0  0  0  0  0  0  0  0  0  0  0  0
   43.6270   35.4680   42.5510 C   0  0  0  0  0  0  0  0  0  0  0  0
   43.7610   35.3890   41.0000 C   0  0  0  0  0  0  0  0  0  0  0  0
   43.5010   34.1700   41.8720 C   0  0  0  0  0  0  0  0  0  0  0  0
   48.0238   32.5828   44.0955 H   0  0  0  0  0  0  0  0  0  0  0  0
   47.0533   32.1662   46.3366 H   0  0  0  0  0  0  0  0  0  0  0  0
   45.1109   33.4911   47.0603 H   0  0  0  0  0  0  0  0  0  0  0  0
   44.1025   35.2300   45.5861 H   0  0  0  0  0  0  0  0  0  0  0  0
   49.4744   36.2733   40.8188 H   0  0  0  0  0  0  0  0  0  0  0  0
   48.8085   34.9212   38.8194 H   0  0  0  0  0  0  0  0  0  0  0  0
   47.0308   33.1228   39.1126 H   0  0  0  0  0  0  0  0  0  0  0  0
   42.9930   35.9703   43.2965 H   0  0  0  0  0  0  0  0  0  0  0  0
   44.7387   35.5309   40.5163 H   0  0  0  0  0  0  0  0  0  0  0  0
   43.2766   35.8655   40.1350 H   0  0  0  0  0  0  0  0  0  0  0  0
   42.5206   33.6728   41.8304 H   0  0  0  0  0  0  0  0  0  0  0  0
   44.0018   33.1977   41.9898 H   0  0  0  0  0  0  0  0  0  0  0  0
  1  6  1  0
  1  2  2  0
  2  3  1  0
  3  4  2  0
  5  4  1  0
  6  5  2  0
  7 12  2  0
  8  9  2  0
  8  7  1  0
  9 10  1  0
 10 11  2  0
 11  1  1  0
 12 11  1  0
 13  6  1  0
 14 13  2  0
 15 13  1  0
 16 17  1  0
 16 15  1  0
 17 15  1  0
  2 18  1  0
  3 19  1  0
  4 20  1  0
  5 21  1  0
  7 22  1  0
  8 23  1  0
  9 24  1  0
 15 25  1  0
 16 26  1  0
 16 27  1  0
 17 28  1  0
 17 29  1  0
M  ISO  8  18  14  19  14  20  14  21  14  22  14  23  14  24  14  25  13
M  ISO  4  26  13  27  13  28  13  29  13
M  END
>  <minimizedAffinity>  (1) 
-4.97810268

>  <minimizedRMSD>  (1) 
0.319684029

$$$$
