
     RDKit          3D

 23 24  0  0  0  0  0  0  0  0999 V2000
   46.4910   34.2590   43.5910 C   0  0  0  0  0  0  0  0  0  0  0  0
   46.9440   33.2600   44.4410 C   0  0  0  0  0  0  0  0  0  0  0  0
   46.3950   33.0800   45.6940 C   0  0  0  0  0  0  0  0  0  0  0  0
   45.3810   33.9140   46.0900 C   0  0  0  0  0  0  0  0  0  0  0  0
   44.8980   34.9160   45.2870 C   0  0  0  0  0  0  0  0  0  0  0  0
   45.4820   35.0460   44.0560 C   0  0  0  0  0  0  0  0  0  0  0  0
   48.7070   35.3790   40.9320 C   0  0  0  0  0  0  0  0  0  0  0  0
   48.2210   34.7280   39.8000 C   0  0  0  0  0  0  0  0  0  0  0  0
   47.1000   33.8830   39.9620 C   0  0  0  0  0  0  0  0  0  0  0  0
   46.5520   33.7450   41.2120 N   0  0  0  0  0  0  0  0  0  0  0  0
   47.0880   34.4210   42.2820 C   0  0  0  0  0  0  0  0  0  0  0  0
   48.1420   35.2160   42.1270 N   0  0  0  0  0  0  0  0  0  0  0  0
   44.9210   36.1310   43.2460 C   0  0  0  0  0  0  0  0  0  0  0  0
   45.1950   37.3500   43.2530 O   0  0  0  0  0  0  0  0  0  0  0  0
   43.9350   36.0970   42.2520 O   0  0  0  0  0  0  0  0  0  0  0  0
   47.7574   32.5981   44.1091 H   0  0  0  0  0  0  0  0  0  0  0  0
   46.7624   32.2855   46.3602 H   0  0  0  0  0  0  0  0  0  0  0  0
   44.9389   33.7745   47.0876 H   0  0  0  0  0  0  0  0  0  0  0  0
   44.0845   35.5797   45.6151 H   0  0  0  0  0  0  0  0  0  0  0  0
   49.5783   36.0436   40.8364 H   0  0  0  0  0  0  0  0  0  0  0  0
   48.6928   34.8668   38.8160 H   0  0  0  0  0  0  0  0  0  0  0  0
   46.6746   33.3457   39.1015 H   0  0  0  0  0  0  0  0  0  0  0  0
   43.5070   35.2381   42.0085 H   0  0  0  0  0  0  0  0  0  0  0  0
  1  6  1  0
  1  2  2  0
  2  3  1  0
  3  4  2  0
  5  4  1  0
  6  5  2  0
  7 12  2  0
  8  9  2  0
  8  7  1  0
  9 10  1  0
 10 11  2  0
 11  1  1  0
 12 11  1  0
 13 14  2  0
 13  6  1  0
 15 13  1  0
  2 16  1  0
  3 17  1  0
  4 18  1  0
  5 19  1  0
  7 20  1  0
  8 21  1  0
  9 22  1  0
 15 23  1  0
M  ISO  8  16  14  17  14  18  14  19  14  20  14  21  14  22  14  23   3
M  END
>  <minimizedAffinity>  (1) 
-5.01329851

>  <minimizedRMSD>  (1) 
0.0332997814

$$$$
