
     RDKit          3D

 27 29  0  0  0  0  0  0  0  0999 V2000
   46.7430   34.0330   43.4880 C   0  0  0  0  0  0  0  0  0  0  0  0
   47.3250   33.0920   44.3260 C   0  0  0  0  0  0  0  0  0  0  0  0
   46.8180   32.8270   45.5790 C   0  0  0  0  0  0  0  0  0  0  0  0
   45.7020   33.5290   45.9850 C   0  0  0  0  0  0  0  0  0  0  0  0
   45.0930   34.4690   45.1900 C   0  0  0  0  0  0  0  0  0  0  0  0
   45.6470   34.6840   43.9570 C   0  0  0  0  0  0  0  0  0  0  0  0
   48.7720   35.4990   40.8380 C   0  0  0  0  0  0  0  0  0  0  0  0
   48.4000   34.7460   39.7050 C   0  0  0  0  0  0  0  0  0  0  0  0
   47.4410   33.7280   39.8630 C   0  0  0  0  0  0  0  0  0  0  0  0
   46.9140   33.5140   41.1110 N   0  0  0  0  0  0  0  0  0  0  0  0
   47.3130   34.2770   42.1810 C   0  0  0  0  0  0  0  0  0  0  0  0
   48.2210   35.2380   42.0200 N   0  0  0  0  0  0  0  0  0  0  0  0
   44.9520   35.6900   43.1660 C   0  0  0  0  0  0  0  0  0  0  0  0
   45.0840   36.9380   43.2120 O   0  0  0  0  0  0  0  0  0  0  0  0
   43.9710   35.2270   42.1840 C   0  0  0  0  0  0  0  0  0  0  0  0
   43.3250   35.9440   41.2430 N   0  0  0  0  0  0  0  0  0  0  0  0
   42.5330   35.2160   40.5540 O   0  0  0  0  0  0  0  0  0  0  0  0
   42.6120   33.9840   40.9960 C   0  0  0  0  0  0  0  0  0  0  0  0
   43.4950   33.9680   42.0060 N   0  0  0  0  0  0  0  0  0  0  0  0
   48.2139   32.5438   43.9806 H   0  0  0  0  0  0  0  0  0  0  0  0
   47.2880   32.0795   46.2350 H   0  0  0  0  0  0  0  0  0  0  0  0
   45.2843   33.3285   46.9826 H   0  0  0  0  0  0  0  0  0  0  0  0
   44.2039   35.0218   45.5276 H   0  0  0  0  0  0  0  0  0  0  0  0
   49.5178   36.3021   40.7441 H   0  0  0  0  0  0  0  0  0  0  0  0
   48.8486   34.9494   38.7214 H   0  0  0  0  0  0  0  0  0  0  0  0
   47.1215   33.1180   39.0052 H   0  0  0  0  0  0  0  0  0  0  0  0
   42.0543   33.1188   40.6082 H   0  0  0  0  0  0  0  0  0  0  0  0
  1  6  1  0
  1  2  2  0
  2  3  1  0
  3  4  2  0
  5  4  1  0
  6  5  2  0
  7 12  2  0
  8  9  2  0
  8  7  1  0
  9 10  1  0
 10 11  2  0
 11  1  1  0
 12 11  1  0
 13 14  2  0
 13  6  1  0
 15 13  1  0
 16 15  2  0
 17 18  1  0
 17 16  1  0
 18 19  2  0
 19 15  1  0
  2 20  1  0
  3 21  1  0
  4 22  1  0
  5 23  1  0
  7 24  1  0
  8 25  1  0
  9 26  1  0
 18 27  1  0
M  ISO  8  20  14  21  14  22  14  23  14  24  14  25  14  26  14  27  14
M  END
>  <minimizedAffinity>  (1) 
-5.2448678

>  <minimizedRMSD>  (1) 
0.452053487

$$$$
