
     RDKit          3D

 34 37  0  0  0  0  0  0  0  0999 V2000
   46.5360   34.4060   41.5850 N   0  0  0  0  0  0  0  0  0  0  0  0
   45.9800   33.7690   40.5500 C   0  0  0  0  0  0  0  0  0  0  0  0
   46.6020   33.6000   39.3410 C   0  0  0  0  0  0  0  0  0  0  0  0
   47.8800   34.1460   39.2580 C   0  0  0  0  0  0  0  0  0  0  0  0
   48.5020   34.0220   38.1670 O   0  0  0  0  0  0  0  0  0  0  0  0
   48.4750   34.7980   40.2850 N   0  0  0  0  0  0  0  0  0  0  0  0
   47.7840   34.9180   41.4480 C   0  0  0  0  0  0  0  0  0  0  0  0
   48.4040   35.5350   42.3530 O   0  0  0  0  0  0  0  0  0  0  0  0
   44.6700   33.2610   40.7780 N   0  0  0  0  0  0  0  0  0  0  0  0
   44.5280   32.0090   41.2730 C   0  0  0  0  0  0  0  0  0  0  0  0
   43.2160   31.7230   41.4140 N   0  0  0  0  0  0  0  0  0  0  0  0
   42.4990   32.7970   41.0080 C   0  0  0  0  0  0  0  0  0  0  0  0
   41.1660   33.1740   40.8890 C   0  0  0  0  0  0  0  0  0  0  0  0
   40.8590   34.3940   40.4160 N   0  0  0  0  0  0  0  0  0  0  0  0
   41.8040   35.2960   40.0410 C   0  0  0  0  0  0  0  0  0  0  0  0
   43.1250   34.9770   40.1380 N   0  0  0  0  0  0  0  0  0  0  0  0
   43.4240   33.7610   40.6100 C   0  0  0  0  0  0  0  0  0  0  0  0
   44.6830   36.0820   44.2920 C   0  0  0  0  0  0  0  0  0  0  0  0
   45.2540   35.8190   43.0220 C   0  0  0  0  0  0  0  0  0  0  0  0
   45.9890   34.6300   42.8540 C   0  0  0  0  0  0  0  0  0  0  0  0
   46.1060   33.8050   43.9300 N   0  0  0  0  0  0  0  0  0  0  0  0
   45.5490   34.0890   45.1220 C   0  0  0  0  0  0  0  0  0  0  0  0
   44.8400   35.2210   45.3100 N   0  0  0  0  0  0  0  0  0  0  0  0
   45.9430   32.8870   38.2250 C   0  0  0  0  0  0  0  0  0  0  0  0
   49.4222   35.1907   40.1871 H   0  0  0  0  0  0  0  0  0  0  0  0
   45.3554   31.3284   41.5223 H   0  0  0  0  0  0  0  0  0  0  0  0
   40.3665   32.4771   41.1806 H   0  0  0  0  0  0  0  0  0  0  0  0
   41.5025   36.2827   39.6595 H   0  0  0  0  0  0  0  0  0  0  0  0
   44.1033   37.0041   44.4458 H   0  0  0  0  0  0  0  0  0  0  0  0
   45.1262   36.5257   42.1888 H   0  0  0  0  0  0  0  0  0  0  0  0
   45.6743   33.3852   45.9580 H   0  0  0  0  0  0  0  0  0  0  0  0
   45.2486   32.1357   38.6291 H   0  0  0  0  0  0  0  0  0  0  0  0
   45.3856   33.6072   37.6080 H   0  0  0  0  0  0  0  0  0  0  0  0
   46.7048   32.3879   37.6080 H   0  0  0  0  0  0  0  0  0  0  0  0
  1 20  1  0
  2  9  1  0
  2  1  1  0
  3  2  2  0
  4  3  1  0
  4  6  1  0
  5  4  2  0
  6  7  1  0
  7  1  1  0
  7  8  2  0
  9 10  1  0
 10 11  2  0
 12 11  1  0
 13 12  2  0
 14 13  1  0
 15 16  1  0
 15 14  2  0
 16 17  2  0
 17  9  1  0
 17 12  1  0
 18 23  2  0
 19 18  1  0
 20 19  2  0
 20 21  1  0
 21 22  2  0
 22 23  1  0
 24  3  1  0
  6 25  1  0
 10 26  1  0
 13 27  1  0
 15 28  1  0
 18 29  1  0
 19 30  1  0
 22 31  1  0
 24 32  1  0
 24 33  1  0
 24 34  1  0
M  ISO  8  25   9  26  14  27  14  28  14  29  14  30  14  31  14  32   8
M  ISO  2  33   8  34   8
M  END
>  <minimizedAffinity>  (1) 
-6.14325333

>  <minimizedRMSD>  (1) 
0.640976489

$$$$
