
     RDKit          3D

 39 42  0  0  0  0  0  0  0  0999 V2000
   46.4480   34.2640   41.6510 N   0  0  0  0  0  0  0  0  0  0  0  0
   45.9150   33.4830   40.7080 C   0  0  0  0  0  0  0  0  0  0  0  0
   46.4990   33.2800   39.4780 C   0  0  0  0  0  0  0  0  0  0  0  0
   47.6860   33.9440   39.2810 C   0  0  0  0  0  0  0  0  0  0  0  0
   48.2740   33.7960   38.1650 O   0  0  0  0  0  0  0  0  0  0  0  0
   48.2680   34.7520   40.2200 N   0  0  0  0  0  0  0  0  0  0  0  0
   47.6260   34.8990   41.4060 C   0  0  0  0  0  0  0  0  0  0  0  0
   48.2110   35.6490   42.2120 O   0  0  0  0  0  0  0  0  0  0  0  0
   44.6500   32.8470   41.0710 C   0  0  0  0  0  0  0  0  0  0  0  0
   44.5520   31.6400   41.7510 C   0  0  0  0  0  0  0  0  0  0  0  0
   43.3020   31.1240   42.0460 C   0  0  0  0  0  0  0  0  0  0  0  0
   42.1490   31.7540   41.6960 C   0  0  0  0  0  0  0  0  0  0  0  0
   42.2320   32.9560   41.0200 C   0  0  0  0  0  0  0  0  0  0  0  0
   41.0640   33.6260   40.6470 C   0  0  0  0  0  0  0  0  0  0  0  0
   41.1380   34.8290   39.9700 C   0  0  0  0  0  0  0  0  0  0  0  0
   42.3790   35.3690   39.6610 C   0  0  0  0  0  0  0  0  0  0  0  0
   43.5140   34.6880   40.0390 C   0  0  0  0  0  0  0  0  0  0  0  0
   43.4770   33.4860   40.7160 C   0  0  0  0  0  0  0  0  0  0  0  0
   44.6400   36.0220   44.3310 C   0  0  0  0  0  0  0  0  0  0  0  0
   45.1650   35.7280   43.0400 C   0  0  0  0  0  0  0  0  0  0  0  0
   45.9360   34.5400   42.9360 C   0  0  0  0  0  0  0  0  0  0  0  0
   46.1230   33.7750   44.0380 N   0  0  0  0  0  0  0  0  0  0  0  0
   45.6020   34.1040   45.2330 C   0  0  0  0  0  0  0  0  0  0  0  0
   44.8660   35.2140   45.3900 N   0  0  0  0  0  0  0  0  0  0  0  0
   45.8680   32.4070   38.4680 C   0  0  0  0  0  0  0  0  0  0  0  0
   49.1606   35.2308   40.0331 H   0  0  0  0  0  0  0  0  0  0  0  0
   45.4606   31.0984   42.0528 H   0  0  0  0  0  0  0  0  0  0  0  0
   43.2389   30.1670   42.5846 H   0  0  0  0  0  0  0  0  0  0  0  0
   41.1713   31.3161   41.9457 H   0  0  0  0  0  0  0  0  0  0  0  0
   40.0824   33.1948   40.8929 H   0  0  0  0  0  0  0  0  0  0  0  0
   40.2178   35.3559   39.6775 H   0  0  0  0  0  0  0  0  0  0  0  0
   42.4541   36.3254   39.1229 H   0  0  0  0  0  0  0  0  0  0  0  0
   44.4941   35.1212   39.7904 H   0  0  0  0  0  0  0  0  0  0  0  0
   44.0350   36.9302   44.4694 H   0  0  0  0  0  0  0  0  0  0  0  0
   44.9839   36.3825   42.1747 H   0  0  0  0  0  0  0  0  0  0  0  0
   45.7830   33.4500   46.0987 H   0  0  0  0  0  0  0  0  0  0  0  0
   45.2958   31.6153   38.9737 H   0  0  0  0  0  0  0  0  0  0  0  0
   45.1912   33.0038   37.8389 H   0  0  0  0  0  0  0  0  0  0  0  0
   46.6470   31.9515   37.8389 H   0  0  0  0  0  0  0  0  0  0  0  0
  1 21  1  0
  2  9  1  0
  2  1  1  0
  3  2  2  0
  4  3  1  0
  4  6  1  0
  5  4  2  0
  6  7  1  0
  7  1  1  0
  7  8  2  0
  9 10  2  0
 10 11  1  0
 12 11  2  0
 13 12  1  0
 14 13  2  0
 15 14  1  0
 16 15  2  0
 16 17  1  0
 17 18  2  0
 18 13  1  0
 18  9  1  0
 19 24  2  0
 20 19  1  0
 21 20  2  0
 21 22  1  0
 22 23  2  0
 23 24  1  0
 25  3  1  0
  6 26  1  0
 10 27  1  0
 11 28  1  0
 12 29  1  0
 14 30  1  0
 15 31  1  0
 16 32  1  0
 17 33  1  0
 19 34  1  0
 20 35  1  0
 23 36  1  0
 25 37  1  0
 25 38  1  0
 25 39  1  0
M  ISO  8  26   9  27  14  28  14  29  14  30  14  31  14  32  14  33  14
M  ISO  6  34  14  35  14  36  14  37   8  38   8  39   8
M  END
>  <minimizedAffinity>  (1) 
-6.25280952

>  <minimizedRMSD>  (1) 
0.624506652

$$$$
