
     RDKit          3D

 33 35  0  0  0  0  0  0  0  0999 V2000
   46.4920   34.4380   41.6130 N   0  0  0  0  0  0  0  0  0  0  0  0
   45.8800   33.8470   40.5730 C   0  0  0  0  0  0  0  0  0  0  0  0
   46.5490   33.6360   39.3730 C   0  0  0  0  0  0  0  0  0  0  0  0
   47.8590   34.0670   39.3280 C   0  0  0  0  0  0  0  0  0  0  0  0
   48.4940   33.8860   38.2430 O   0  0  0  0  0  0  0  0  0  0  0  0
   48.4760   34.6600   40.3690 N   0  0  0  0  0  0  0  0  0  0  0  0
   47.7830   34.8460   41.5210 C   0  0  0  0  0  0  0  0  0  0  0  0
   48.4230   35.4010   42.4360 O   0  0  0  0  0  0  0  0  0  0  0  0
   44.7190   36.2000   44.3140 C   0  0  0  0  0  0  0  0  0  0  0  0
   45.2860   35.9380   43.0310 C   0  0  0  0  0  0  0  0  0  0  0  0
   45.9260   34.7050   42.8830 C   0  0  0  0  0  0  0  0  0  0  0  0
   45.9730   33.8390   43.9520 N   0  0  0  0  0  0  0  0  0  0  0  0
   45.4220   34.1370   45.1380 C   0  0  0  0  0  0  0  0  0  0  0  0
   44.7940   35.3140   45.3260 N   0  0  0  0  0  0  0  0  0  0  0  0
   44.5250   33.4540   40.7690 N   0  0  0  0  0  0  0  0  0  0  0  0
   43.6720   34.4330   40.3720 C   0  0  0  0  0  0  0  0  0  0  0  0
   42.2970   34.2460   40.4790 C   0  0  0  0  0  0  0  0  0  0  0  0
   41.8630   33.0310   41.0040 C   0  0  0  0  0  0  0  0  0  0  0  0
   40.6320   32.7700   41.1420 O   0  0  0  0  0  0  0  0  0  0  0  0
   42.7420   32.0860   41.3870 N   0  0  0  0  0  0  0  0  0  0  0  0
   44.0700   32.2950   41.2710 C   0  0  0  0  0  0  0  0  0  0  0  0
   44.9710   31.4740   41.6010 O   0  0  0  0  0  0  0  0  0  0  0  0
   45.8560   32.9840   38.2430 C   0  0  0  0  0  0  0  0  0  0  0  0
   49.4562   34.9667   40.2917 H   0  0  0  0  0  0  0  0  0  0  0  0
   44.2036   37.1571   44.4822 H   0  0  0  0  0  0  0  0  0  0  0  0
   45.2229   36.6641   42.2071 H   0  0  0  0  0  0  0  0  0  0  0  0
   45.4834   33.4139   45.9646 H   0  0  0  0  0  0  0  0  0  0  0  0
   44.0682   35.3751   39.9653 H   0  0  0  0  0  0  0  0  0  0  0  0
   41.5850   35.0228   40.1632 H   0  0  0  0  0  0  0  0  0  0  0  0
   42.3975   31.1950   41.7722 H   0  0  0  0  0  0  0  0  0  0  0  0
   45.1062   32.2786   38.6305 H   0  0  0  0  0  0  0  0  0  0  0  0
   45.3574   33.7481   37.6285 H   0  0  0  0  0  0  0  0  0  0  0  0
   46.5883   32.4398   37.6285 H   0  0  0  0  0  0  0  0  0  0  0  0
  1 11  1  0
  2 15  1  0
  2  1  1  0
  3  2  2  0
  4  3  1  0
  4  6  1  0
  5  4  2  0
  6  7  1  0
  7  1  1  0
  7  8  2  0
  9 14  2  0
 10  9  1  0
 11 10  2  0
 11 12  1  0
 12 13  2  0
 13 14  1  0
 15 21  1  0
 16 17  2  0
 16 15  1  0
 17 18  1  0
 18 19  2  0
 18 20  1  0
 21 20  1  0
 21 22  2  0
 23  3  1  0
  6 24  1  0
  9 25  1  0
 10 26  1  0
 13 27  1  0
 16 28  1  0
 17 29  1  0
 20 30  1  0
 23 31  1  0
 23 32  1  0
 23 33  1  0
M  ISO  8  24   9  25  14  26  14  27  14  28  14  29  14  30   9  31   8
M  ISO  2  32   8  33   8
M  END
>  <minimizedAffinity>  (1) 
-5.79569149

>  <minimizedRMSD>  (1) 
0.624579787

$$$$
