
     RDKit          3D

 36 38  0  0  0  0  0  0  0  0999 V2000
   46.4190   34.3810   41.7450 N   0  0  0  0  0  0  0  0  0  0  0  0
   45.7960   33.8630   40.6820 C   0  0  0  0  0  0  0  0  0  0  0  0
   46.4150   33.6390   39.4780 C   0  0  0  0  0  0  0  0  0  0  0  0
   47.7500   33.9910   39.4410 C   0  0  0  0  0  0  0  0  0  0  0  0
   48.4000   33.8150   38.3610 O   0  0  0  0  0  0  0  0  0  0  0  0
   48.4240   34.5230   40.5070 N   0  0  0  0  0  0  0  0  0  0  0  0
   47.7290   34.7100   41.6580 C   0  0  0  0  0  0  0  0  0  0  0  0
   48.4160   35.2010   42.5890 O   0  0  0  0  0  0  0  0  0  0  0  0
   44.6930   36.2340   44.4270 C   0  0  0  0  0  0  0  0  0  0  0  0
   45.2590   35.9160   43.1660 C   0  0  0  0  0  0  0  0  0  0  0  0
   45.8760   34.6490   43.0060 C   0  0  0  0  0  0  0  0  0  0  0  0
   45.8850   33.8200   44.0770 N   0  0  0  0  0  0  0  0  0  0  0  0
   45.3410   34.1490   45.2610 C   0  0  0  0  0  0  0  0  0  0  0  0
   44.7490   35.3410   45.4460 N   0  0  0  0  0  0  0  0  0  0  0  0
   41.5960   33.3470   41.0250 C   0  0  0  0  0  0  0  0  0  0  0  0
   42.4220   32.3230   41.4340 C   0  0  0  0  0  0  0  0  0  0  0  0
   43.7920   32.3950   41.3620 C   0  0  0  0  0  0  0  0  0  0  0  0
   44.3810   33.5370   40.8610 C   0  0  0  0  0  0  0  0  0  0  0  0
   43.5690   34.5940   40.4390 C   0  0  0  0  0  0  0  0  0  0  0  0
   42.1830   34.4830   40.5270 C   0  0  0  0  0  0  0  0  0  0  0  0
   39.8470   33.1540   41.1590 S   0  0  0  0  0  0  0  0  0  0  0  0
   39.1870   34.2420   40.3450 O   0  0  0  0  0  0  0  0  0  0  0  0
   39.4030   31.8450   40.5610 O   0  0  0  0  0  0  0  0  0  0  0  0
   45.6990   33.0680   38.3260 C   0  0  0  0  0  0  0  0  0  0  0  0
   49.4211   34.7721   40.4384 H   0  0  0  0  0  0  0  0  0  0  0  0
   44.2067   37.2089   44.5790 H   0  0  0  0  0  0  0  0  0  0  0  0
   45.2204   36.6337   42.3333 H   0  0  0  0  0  0  0  0  0  0  0  0
   45.3810   33.4303   46.0928 H   0  0  0  0  0  0  0  0  0  0  0  0
   41.9642   31.4071   41.8360 H   0  0  0  0  0  0  0  0  0  0  0  0
   44.4120   31.5516   41.7000 H   0  0  0  0  0  0  0  0  0  0  0  0
   44.0237   35.5119   40.0381 H   0  0  0  0  0  0  0  0  0  0  0  0
   41.5500   35.3181   40.1924 H   0  0  0  0  0  0  0  0  0  0  0  0
   39.5071   33.2058   42.4851 H   0  0  0  0  0  0  0  0  0  0  0  0
   44.8859   32.4196   38.6844 H   0  0  0  0  0  0  0  0  0  0  0  0
   45.2780   33.8810   37.7163 H   0  0  0  0  0  0  0  0  0  0  0  0
   46.3979   32.4766   37.7163 H   0  0  0  0  0  0  0  0  0  0  0  0
  1 11  1  0
  2 18  1  0
  2  1  1  0
  3  2  2  0
  4  3  1  0
  4  6  1  0
  5  4  2  0
  6  7  1  0
  7  1  1  0
  7  8  2  0
  9 14  2  0
 10  9  1  0
 11 10  2  0
 11 12  1  0
 12 13  2  0
 13 14  1  0
 15 21  1  0
 15 16  2  0
 17 16  1  0
 18 17  2  0
 19 20  2  0
 19 18  1  0
 20 15  1  0
 22 21  2  0
 23 21  2  0
 24  3  1  0
  6 25  1  0
  9 26  1  0
 10 27  1  0
 13 28  1  0
 16 29  1  0
 17 30  1  0
 19 31  1  0
 20 32  1  0
 21 33  1  0
 24 34  1  0
 24 35  1  0
 24 36  1  0
M  ISO  8  25   9  26  14  27  14  28  14  29  14  30  14  31  14  32  14
M  ISO  4  33  11  34   8  35   8  36   8
M  END
>  <minimizedAffinity>  (1) 
-6.05724478

>  <minimizedRMSD>  (1) 
1.06433094

$$$$
