
     RDKit          3D

 30 32  0  0  0  0  0  0  0  0999 V2000
   46.5390   34.4260   41.5880 N   0  0  0  0  0  0  0  0  0  0  0  0
   45.8910   33.8480   40.5380 C   0  0  0  0  0  0  0  0  0  0  0  0
   46.5380   33.6320   39.3410 C   0  0  0  0  0  0  0  0  0  0  0  0
   47.8700   34.0460   39.3080 C   0  0  0  0  0  0  0  0  0  0  0  0
   48.5240   33.8730   38.2280 O   0  0  0  0  0  0  0  0  0  0  0  0
   48.5000   34.6190   40.3560 N   0  0  0  0  0  0  0  0  0  0  0  0
   47.8160   34.8040   41.5000 C   0  0  0  0  0  0  0  0  0  0  0  0
   48.4510   35.3340   42.4260 O   0  0  0  0  0  0  0  0  0  0  0  0
   44.6980   36.2000   44.2610 C   0  0  0  0  0  0  0  0  0  0  0  0
   45.2850   35.9180   42.9990 C   0  0  0  0  0  0  0  0  0  0  0  0
   45.9510   34.6870   42.8560 C   0  0  0  0  0  0  0  0  0  0  0  0
   45.9950   33.8360   43.9350 N   0  0  0  0  0  0  0  0  0  0  0  0
   45.4200   34.1580   45.1060 C   0  0  0  0  0  0  0  0  0  0  0  0
   44.7770   35.3220   45.2770 N   0  0  0  0  0  0  0  0  0  0  0  0
   44.5020   33.4910   40.7850 C   0  0  0  0  0  0  0  0  0  0  0  0
   43.8570   32.4140   41.3200 C   0  0  0  0  0  0  0  0  0  0  0  0
   42.5010   32.5390   41.3430 C   0  0  0  0  0  0  0  0  0  0  0  0
   42.3320   33.7780   40.7820 C   0  0  0  0  0  0  0  0  0  0  0  0
   43.4800   34.2570   40.4930 O   0  0  0  0  0  0  0  0  0  0  0  0
   45.8850   33.0110   38.1890 C   0  0  0  0  0  0  0  0  0  0  0  0
   49.4855   34.9090   40.2811 H   0  0  0  0  0  0  0  0  0  0  0  0
   44.1695   37.1531   44.4103 H   0  0  0  0  0  0  0  0  0  0  0  0
   45.2215   36.6338   42.1662 H   0  0  0  0  0  0  0  0  0  0  0  0
   45.4783   33.4491   45.9451 H   0  0  0  0  0  0  0  0  0  0  0  0
   44.3843   31.5258   41.6982 H   0  0  0  0  0  0  0  0  0  0  0  0
   41.7430   31.8332   41.7134 H   0  0  0  0  0  0  0  0  0  0  0  0
   41.3672   34.2772   40.6093 H   0  0  0  0  0  0  0  0  0  0  0  0
   45.1294   32.2924   38.5392 H   0  0  0  0  0  0  0  0  0  0  0  0
   45.3983   33.7876   37.5807 H   0  0  0  0  0  0  0  0  0  0  0  0
   46.6362   32.4859   37.5807 H   0  0  0  0  0  0  0  0  0  0  0  0
  1 11  1  0
  2 15  1  0
  2  1  1  0
  3  2  2  0
  4  3  1  0
  4  6  1  0
  5  4  2  0
  6  7  1  0
  7  1  1  0
  7  8  2  0
  9 14  2  0
 10  9  1  0
 11 10  2  0
 11 12  1  0
 12 13  2  0
 13 14  1  0
 15 16  2  0
 16 17  1  0
 18 17  2  0
 19 18  1  0
 19 15  1  0
 20  3  1  0
  6 21  1  0
  9 22  1  0
 10 23  1  0
 13 24  1  0
 16 25  1  0
 17 26  1  0
 18 27  1  0
 20 28  1  0
 20 29  1  0
 20 30  1  0
M  ISO  8  21   9  22  14  23  14  24  14  25  14  26  14  27  14  28   8
M  ISO  2  29   8  30   8
M  END
>  <minimizedAffinity>  (1) 
-5.32553482

>  <minimizedRMSD>  (1) 
0.60143286

$$$$
