
     RDKit          3D

 30 32  0  0  0  0  0  0  0  0999 V2000
   46.5110   34.4280   41.5800 N   0  0  0  0  0  0  0  0  0  0  0  0
   45.9060   33.8490   40.5270 C   0  0  0  0  0  0  0  0  0  0  0  0
   46.5680   33.6380   39.3330 C   0  0  0  0  0  0  0  0  0  0  0  0
   47.8810   34.0590   39.2940 C   0  0  0  0  0  0  0  0  0  0  0  0
   48.5210   33.8840   38.2150 O   0  0  0  0  0  0  0  0  0  0  0  0
   48.5060   34.6460   40.3460 N   0  0  0  0  0  0  0  0  0  0  0  0
   47.8070   34.8300   41.5020 C   0  0  0  0  0  0  0  0  0  0  0  0
   48.4410   35.3720   42.4250 O   0  0  0  0  0  0  0  0  0  0  0  0
   44.7140   36.2360   44.2470 C   0  0  0  0  0  0  0  0  0  0  0  0
   45.3020   35.9240   42.9990 C   0  0  0  0  0  0  0  0  0  0  0  0
   45.9410   34.6920   42.8400 C   0  0  0  0  0  0  0  0  0  0  0  0
   45.9680   33.8400   43.9060 N   0  0  0  0  0  0  0  0  0  0  0  0
   45.3940   34.1710   45.0890 C   0  0  0  0  0  0  0  0  0  0  0  0
   44.7680   35.3650   45.2600 N   0  0  0  0  0  0  0  0  0  0  0  0
   44.5470   33.4650   40.7130 N   0  0  0  0  0  0  0  0  0  0  0  0
   43.9340   32.3930   41.2300 C   0  0  0  0  0  0  0  0  0  0  0  0
   42.5790   32.6250   41.1180 C   0  0  0  0  0  0  0  0  0  0  0  0
   42.3590   33.8140   40.5440 N   0  0  0  0  0  0  0  0  0  0  0  0
   43.5860   34.3330   40.2940 C   0  0  0  0  0  0  0  0  0  0  0  0
   45.8770   32.9950   38.1970 C   0  0  0  0  0  0  0  0  0  0  0  0
   49.4885   34.9464   40.2726 H   0  0  0  0  0  0  0  0  0  0  0  0
   44.2082   37.2030   44.3853 H   0  0  0  0  0  0  0  0  0  0  0  0
   45.2568   36.6409   42.1659 H   0  0  0  0  0  0  0  0  0  0  0  0
   45.4359   33.4592   45.9266 H   0  0  0  0  0  0  0  0  0  0  0  0
   44.4161   31.5024   41.6596 H   0  0  0  0  0  0  0  0  0  0  0  0
   41.7924   31.9326   41.4523 H   0  0  0  0  0  0  0  0  0  0  0  0
   43.7764   35.3088   39.8233 H   0  0  0  0  0  0  0  0  0  0  0  0
   45.1215   32.2920   38.5778 H   0  0  0  0  0  0  0  0  0  0  0  0
   45.3856   33.7646   37.5836 H   0  0  0  0  0  0  0  0  0  0  0  0
   46.6093   32.4496   37.5836 H   0  0  0  0  0  0  0  0  0  0  0  0
  1 11  1  0
  2 15  1  0
  2  1  1  0
  3  2  2  0
  4  3  1  0
  4  6  1  0
  5  4  2  0
  6  7  1  0
  7  1  1  0
  7  8  2  0
  9 14  2  0
 10  9  1  0
 11 10  2  0
 11 12  1  0
 12 13  2  0
 13 14  1  0
 15 16  1  0
 17 16  2  0
 18 17  1  0
 19 18  2  0
 19 15  1  0
 20  3  1  0
  6 21  1  0
  9 22  1  0
 10 23  1  0
 13 24  1  0
 16 25  1  0
 17 26  1  0
 19 27  1  0
 20 28  1  0
 20 29  1  0
 20 30  1  0
M  ISO  8  21   9  22  14  23  14  24  14  25  14  26  14  27  14  28   8
M  ISO  2  29   8  30   8
M  END
>  <minimizedAffinity>  (1) 
-5.28992033

>  <minimizedRMSD>  (1) 
0.366493374

$$$$
