
     RDKit          3D

 30 32  0  0  0  0  0  0  0  0999 V2000
   46.5310   34.4380   41.5900 N   0  0  0  0  0  0  0  0  0  0  0  0
   45.9320   33.8560   40.5400 C   0  0  0  0  0  0  0  0  0  0  0  0
   46.5610   33.6400   39.3330 C   0  0  0  0  0  0  0  0  0  0  0  0
   47.8830   34.0810   39.2940 C   0  0  0  0  0  0  0  0  0  0  0  0
   48.5250   33.9180   38.2170 O   0  0  0  0  0  0  0  0  0  0  0  0
   48.5040   34.6700   40.3390 N   0  0  0  0  0  0  0  0  0  0  0  0
   47.8110   34.8460   41.4980 C   0  0  0  0  0  0  0  0  0  0  0  0
   48.4500   35.3950   42.4180 O   0  0  0  0  0  0  0  0  0  0  0  0
   44.7120   36.1900   44.2690 C   0  0  0  0  0  0  0  0  0  0  0  0
   45.3000   35.9110   43.0070 C   0  0  0  0  0  0  0  0  0  0  0  0
   45.9600   34.6890   42.8460 C   0  0  0  0  0  0  0  0  0  0  0  0
   46.0000   33.8320   43.9220 N   0  0  0  0  0  0  0  0  0  0  0  0
   45.4270   34.1420   45.0990 C   0  0  0  0  0  0  0  0  0  0  0  0
   44.7840   35.3130   45.2830 N   0  0  0  0  0  0  0  0  0  0  0  0
   44.5760   33.4550   40.7270 N   0  0  0  0  0  0  0  0  0  0  0  0
   43.6710   34.3580   40.3160 N   0  0  0  0  0  0  0  0  0  0  0  0
   42.4270   33.9330   40.5140 C   0  0  0  0  0  0  0  0  0  0  0  0
   42.5250   32.6820   41.0870 C   0  0  0  0  0  0  0  0  0  0  0  0
   43.8740   32.4160   41.2050 C   0  0  0  0  0  0  0  0  0  0  0  0
   45.8870   32.9990   38.2010 C   0  0  0  0  0  0  0  0  0  0  0  0
   49.4831   34.9801   40.2607 H   0  0  0  0  0  0  0  0  0  0  0  0
   44.1865   37.1446   44.4190 H   0  0  0  0  0  0  0  0  0  0  0  0
   45.2381   36.6346   42.1808 H   0  0  0  0  0  0  0  0  0  0  0  0
   45.4843   33.4239   45.9303 H   0  0  0  0  0  0  0  0  0  0  0  0
   41.5007   34.4732   40.2689 H   0  0  0  0  0  0  0  0  0  0  0  0
   41.6942   32.0275   41.3893 H   0  0  0  0  0  0  0  0  0  0  0  0
   44.3063   31.4960   41.6253 H   0  0  0  0  0  0  0  0  0  0  0  0
   45.1377   32.2864   38.5761 H   0  0  0  0  0  0  0  0  0  0  0  0
   45.3897   33.7655   37.5885 H   0  0  0  0  0  0  0  0  0  0  0  0
   46.6276   32.4639   37.5885 H   0  0  0  0  0  0  0  0  0  0  0  0
  1 11  1  0
  2 15  1  0
  2  1  1  0
  3  2  2  0
  4  3  1  0
  4  6  1  0
  5  4  2  0
  6  7  1  0
  7  1  1  0
  7  8  2  0
  9 14  2  0
 10  9  1  0
 11 10  2  0
 11 12  1  0
 12 13  2  0
 13 14  1  0
 15 19  1  0
 16 17  2  0
 16 15  1  0
 17 18  1  0
 18 19  2  0
 20  3  1  0
  6 21  1  0
  9 22  1  0
 10 23  1  0
 13 24  1  0
 17 25  1  0
 18 26  1  0
 19 27  1  0
 20 28  1  0
 20 29  1  0
 20 30  1  0
M  ISO  8  21   9  22  14  23  14  24  14  25  14  26  14  27  14  28   8
M  ISO  2  29   8  30   8
M  END
>  <minimizedAffinity>  (1) 
-5.32553864

>  <minimizedRMSD>  (1) 
0.191324905

$$$$
