
     RDKit          3D

 29 31  0  0  0  0  0  0  0  0999 V2000
   46.5460   34.4240   41.5840 N   0  0  0  0  0  0  0  0  0  0  0  0
   45.9180   33.8300   40.5380 C   0  0  0  0  0  0  0  0  0  0  0  0
   46.5820   33.6420   39.3340 C   0  0  0  0  0  0  0  0  0  0  0  0
   47.8820   34.0880   39.2930 C   0  0  0  0  0  0  0  0  0  0  0  0
   48.5250   33.9320   38.2150 O   0  0  0  0  0  0  0  0  0  0  0  0
   48.5000   34.6780   40.3390 N   0  0  0  0  0  0  0  0  0  0  0  0
   47.8150   34.8460   41.5040 C   0  0  0  0  0  0  0  0  0  0  0  0
   48.4450   35.3940   42.4190 O   0  0  0  0  0  0  0  0  0  0  0  0
   44.7040   36.1780   44.2670 C   0  0  0  0  0  0  0  0  0  0  0  0
   45.2860   35.9080   42.9930 C   0  0  0  0  0  0  0  0  0  0  0  0
   45.9650   34.6690   42.8560 C   0  0  0  0  0  0  0  0  0  0  0  0
   46.0090   33.8430   43.9290 N   0  0  0  0  0  0  0  0  0  0  0  0
   45.4450   34.1420   45.1070 C   0  0  0  0  0  0  0  0  0  0  0  0
   44.7920   35.3080   45.2790 N   0  0  0  0  0  0  0  0  0  0  0  0
   44.5120   33.4290   40.7750 C   0  0  0  0  0  0  0  0  0  0  0  0
   44.2640   32.1610   41.2810 C   0  0  0  0  0  0  0  0  0  0  0  0
   42.3850   32.1750   41.3960 S   0  0  0  0  0  0  0  0  0  0  0  0
   42.3340   33.9500   40.7130 C   0  0  0  0  0  0  0  0  0  0  0  0
   43.4280   34.1500   40.5650 N   0  0  0  0  0  0  0  0  0  0  0  0
   45.8890   33.0140   38.2070 C   0  0  0  0  0  0  0  0  0  0  0  0
   49.4760   34.9965   40.2567 H   0  0  0  0  0  0  0  0  0  0  0  0
   44.1688   37.1266   44.4212 H   0  0  0  0  0  0  0  0  0  0  0  0
   45.2125   36.6227   42.1601 H   0  0  0  0  0  0  0  0  0  0  0  0
   45.5157   33.4289   45.9415 H   0  0  0  0  0  0  0  0  0  0  0  0
   44.9738   31.3629   41.5440 H   0  0  0  0  0  0  0  0  0  0  0  0
   41.4694   34.6012   40.5170 H   0  0  0  0  0  0  0  0  0  0  0  0
   45.1241   32.3209   38.5871 H   0  0  0  0  0  0  0  0  0  0  0  0
   45.4081   33.7903   37.5937 H   0  0  0  0  0  0  0  0  0  0  0  0
   46.6143   32.4592   37.5937 H   0  0  0  0  0  0  0  0  0  0  0  0
  1 11  1  0
  2 15  1  0
  2  1  1  0
  3  2  2  0
  4  3  1  0
  4  6  1  0
  5  4  2  0
  6  7  1  0
  7  1  1  0
  7  8  2  0
  9 14  2  0
 10  9  1  0
 11 10  2  0
 11 12  1  0
 12 13  2  0
 13 14  1  0
 15 16  2  0
 16 17  1  0
 18 17  1  0
 19 18  2  0
 19 15  1  0
 20  3  1  0
  6 21  1  0
  9 22  1  0
 10 23  1  0
 13 24  1  0
 16 25  1  0
 18 26  1  0
 20 27  1  0
 20 28  1  0
 20 29  1  0
M  ISO  8  21   9  22  14  23  14  24  14  25  14  26  14  27   8  28   8
M  ISO  1  29   8
M  END
>  <minimizedAffinity>  (1) 
-5.31268358

>  <minimizedRMSD>  (1) 
0.586467564

$$$$
