
     RDKit          3D

 28 30  0  0  0  0  0  0  0  0999 V2000
   46.5040   34.4150   41.5880 N   0  0  0  0  0  0  0  0  0  0  0  0
   45.9150   33.8550   40.5280 C   0  0  0  0  0  0  0  0  0  0  0  0
   46.5600   33.6410   39.3290 C   0  0  0  0  0  0  0  0  0  0  0  0
   47.8720   34.0500   39.2980 C   0  0  0  0  0  0  0  0  0  0  0  0
   48.5400   33.8890   38.2300 O   0  0  0  0  0  0  0  0  0  0  0  0
   48.5130   34.6280   40.3590 N   0  0  0  0  0  0  0  0  0  0  0  0
   47.7980   34.8010   41.5050 C   0  0  0  0  0  0  0  0  0  0  0  0
   48.4480   35.3360   42.4330 O   0  0  0  0  0  0  0  0  0  0  0  0
   44.7120   36.2080   44.2540 C   0  0  0  0  0  0  0  0  0  0  0  0
   45.2890   35.9320   42.9790 C   0  0  0  0  0  0  0  0  0  0  0  0
   45.9380   34.6760   42.8510 C   0  0  0  0  0  0  0  0  0  0  0  0
   45.9670   33.8390   43.9190 N   0  0  0  0  0  0  0  0  0  0  0  0
   45.4050   34.1560   45.0950 C   0  0  0  0  0  0  0  0  0  0  0  0
   44.7800   35.3280   45.2690 N   0  0  0  0  0  0  0  0  0  0  0  0
   44.5160   33.4670   40.7040 C   0  0  0  0  0  0  0  0  0  0  0  0
   43.9340   32.3460   41.1880 N   0  0  0  0  0  0  0  0  0  0  0  0
   42.6390   32.4720   41.1430 O   0  0  0  0  0  0  0  0  0  0  0  0
   42.3180   33.6480   40.6400 C   0  0  0  0  0  0  0  0  0  0  0  0
   43.4730   34.2790   40.3630 N   0  0  0  0  0  0  0  0  0  0  0  0
   45.8710   33.0240   38.1890 C   0  0  0  0  0  0  0  0  0  0  0  0
   49.4983   34.9211   40.2938 H   0  0  0  0  0  0  0  0  0  0  0  0
   44.1971   37.1672   44.4115 H   0  0  0  0  0  0  0  0  0  0  0  0
   45.2344   36.6484   42.1461 H   0  0  0  0  0  0  0  0  0  0  0  0
   45.4582   33.4420   45.9301 H   0  0  0  0  0  0  0  0  0  0  0  0
   41.3021   34.0375   40.4783 H   0  0  0  0  0  0  0  0  0  0  0  0
   45.0989   32.3326   38.5577 H   0  0  0  0  0  0  0  0  0  0  0  0
   45.3997   33.8076   37.5776 H   0  0  0  0  0  0  0  0  0  0  0  0
   46.5981   32.4694   37.5776 H   0  0  0  0  0  0  0  0  0  0  0  0
  1 11  1  0
  2 15  1  0
  2  1  1  0
  3  2  2  0
  4  3  1  0
  4  6  1  0
  5  4  2  0
  6  7  1  0
  7  1  1  0
  7  8  2  0
  9 14  2  0
 10  9  1  0
 11 10  2  0
 11 12  1  0
 12 13  2  0
 13 14  1  0
 15 16  2  0
 17 16  1  0
 18 17  1  0
 19 18  2  0
 19 15  1  0
 20  3  1  0
  6 21  1  0
  9 22  1  0
 10 23  1  0
 13 24  1  0
 18 25  1  0
 20 26  1  0
 20 27  1  0
 20 28  1  0
M  ISO  8  21   9  22  14  23  14  24  14  25  14  26   8  27   8  28   8
M  END
>  <minimizedAffinity>  (1) 
-5.24951124

>  <minimizedRMSD>  (1) 
0.292255402

$$$$
