
     RDKit          3D

 52 56  0  0  0  0  0  0  0  0999 V2000
   46.6690   34.4260   41.4130 N   0  0  0  0  0  0  0  0  0  0  0  0
   46.0550   33.8260   40.3680 C   0  0  0  0  0  0  0  0  0  0  0  0
   46.7140   33.7280   39.1400 C   0  0  0  0  0  0  0  0  0  0  0  0
   47.9790   34.2620   39.0940 C   0  0  0  0  0  0  0  0  0  0  0  0
   48.5870   34.1690   37.9980 O   0  0  0  0  0  0  0  0  0  0  0  0
   48.5640   34.8510   40.1440 N   0  0  0  0  0  0  0  0  0  0  0  0
   47.8920   34.9330   41.3220 C   0  0  0  0  0  0  0  0  0  0  0  0
   48.5020   35.4980   42.2500 O   0  0  0  0  0  0  0  0  0  0  0  0
   44.6710   33.2610   40.5960 C   0  0  0  0  0  0  0  0  0  0  0  0
   44.5970   32.1230   41.5560 C   0  0  0  0  0  0  0  0  0  0  0  0
   43.1610   32.0700   42.0510 C   0  0  0  0  0  0  0  0  0  0  0  0
   42.2930   32.2700   40.8150 C   0  0  0  0  0  0  0  0  0  0  0  0
   42.3010   33.6570   40.2470 C   0  0  0  0  0  0  0  0  0  0  0  0
   43.6040   34.2790   40.7500 C   0  0  0  0  0  0  0  0  0  0  0  0
   44.7600   35.9600   44.1740 C   0  0  0  0  0  0  0  0  0  0  0  0
   45.3410   35.7900   42.8860 C   0  0  0  0  0  0  0  0  0  0  0  0
   46.0950   34.5980   42.6980 C   0  0  0  0  0  0  0  0  0  0  0  0
   46.1830   33.7710   43.7400 N   0  0  0  0  0  0  0  0  0  0  0  0
   45.6300   33.9560   44.9330 C   0  0  0  0  0  0  0  0  0  0  0  0
   44.9130   35.0570   45.1490 N   0  0  0  0  0  0  0  0  0  0  0  0
   46.0180   33.1300   38.0080 C   0  0  0  0  0  0  0  0  0  0  0  0
   46.6050   31.8690   37.5590 N   0  0  0  0  0  0  0  0  0  0  0  0
   46.8690   30.7990   38.3440 C   0  0  0  0  0  0  0  0  0  0  0  0
   47.4130   29.7850   37.6260 N   0  0  0  0  0  0  0  0  0  0  0  0
   47.4990   30.2180   36.3470 C   0  0  0  0  0  0  0  0  0  0  0  0
   47.9570   29.6620   35.1590 C   0  0  0  0  0  0  0  0  0  0  0  0
   47.9170   30.3600   33.9880 N   0  0  0  0  0  0  0  0  0  0  0  0
   47.4150   31.6250   34.0010 C   0  0  0  0  0  0  0  0  0  0  0  0
   46.9680   32.1780   35.1450 N   0  0  0  0  0  0  0  0  0  0  0  0
   47.0000   31.4960   36.3240 C   0  0  0  0  0  0  0  0  0  0  0  0
   48.4650   28.3270   35.2480 N   0  0  0  0  0  0  0  0  0  0  0  0
   49.5146   35.2384   40.0597 H   0  0  0  0  0  0  0  0  0  0  0  0
   44.4357   32.7827   39.6338 H   0  0  0  0  0  0  0  0  0  0  0  0
   44.8600   31.1819   41.0510 H   0  0  0  0  0  0  0  0  0  0  0  0
   45.3010   32.2593   42.3902 H   0  0  0  0  0  0  0  0  0  0  0  0
   42.9504   31.0947   42.5142 H   0  0  0  0  0  0  0  0  0  0  0  0
   42.9653   32.8378   42.8140 H   0  0  0  0  0  0  0  0  0  0  0  0
   42.6480   31.5807   40.0347 H   0  0  0  0  0  0  0  0  0  0  0  0
   41.2582   32.0769   41.1343 H   0  0  0  0  0  0  0  0  0  0  0  0
   41.4339   34.2288   40.6091 H   0  0  0  0  0  0  0  0  0  0  0  0
   42.2390   33.6557   39.1488 H   0  0  0  0  0  0  0  0  0  0  0  0
   43.5023   34.5596   41.8087 H   0  0  0  0  0  0  0  0  0  0  0  0
   43.8475   35.1859   40.1770 H   0  0  0  0  0  0  0  0  0  0  0  0
   44.1656   36.8636   44.3744 H   0  0  0  0  0  0  0  0  0  0  0  0
   45.2150   36.5339   42.0855 H   0  0  0  0  0  0  0  0  0  0  0  0
   45.7623   33.2106   45.7311 H   0  0  0  0  0  0  0  0  0  0  0  0
   44.9744   32.9428   38.3011 H   0  0  0  0  0  0  0  0  0  0  0  0
   46.0970   33.8385   37.1703 H   0  0  0  0  0  0  0  0  0  0  0  0
   46.6684   30.7569   39.4247 H   0  0  0  0  0  0  0  0  0  0  0  0
   47.3738   32.2028   33.0659 H   0  0  0  0  0  0  0  0  0  0  0  0
   48.8209   27.8541   34.4050 H   0  0  0  0  0  0  0  0  0  0  0  0
   48.4747   27.8391   36.1551 H   0  0  0  0  0  0  0  0  0  0  0  0
  1 17  1  0
  2  9  1  0
  2  1  1  0
  3  2  2  0
  4  3  1  0
  4  6  1  0
  5  4  2  0
  6  7  1  0
  7  1  1  0
  7  8  2  0
  9 14  1  0
  9 10  1  0
 10 11  1  0
 12 11  1  0
 13 14  1  0
 13 12  1  0
 15 20  2  0
 16 15  1  0
 17 16  2  0
 17 18  1  0
 18 19  2  0
 19 20  1  0
 21  3  1  0
 22 21  1  0
 22 23  1  0
 24 23  2  0
 25 24  1  0
 26 31  1  0
 26 25  2  0
 27 28  2  0
 27 26  1  0
 28 29  1  0
 29 30  2  0
 30 25  1  0
 30 22  1  0
  6 32  1  0
  9 33  1  0
 10 34  1  0
 10 35  1  0
 11 36  1  0
 11 37  1  0
 12 38  1  0
 12 39  1  0
 13 40  1  0
 13 41  1  0
 14 42  1  0
 14 43  1  0
 15 44  1  0
 16 45  1  0
 19 46  1  0
 21 47  1  0
 21 48  1  0
 23 49  1  0
 28 50  1  0
 31 51  1  0
 31 52  1  0
M  ISO  8  32   9  33  13  34  13  35  13  36  13  37  13  38  13  39  13
M  ISO  8  40  13  41  13  42  13  43  13  44  14  45  14  46  14  47   8
M  ISO  3  48   8  49  14  50  14
M  END
>  <minimizedAffinity>  (1) 
-5.95732546

>  <minimizedRMSD>  (1) 
1.90878654

$$$$
