
     RDKit          3D

 46 48  0  0  0  0  0  0  0  0999 V2000
   46.6110   34.3780   41.4420 N   0  0  0  0  0  0  0  0  0  0  0  0
   45.9840   33.7820   40.4080 C   0  0  0  0  0  0  0  0  0  0  0  0
   46.6330   33.6620   39.1820 C   0  0  0  0  0  0  0  0  0  0  0  0
   47.9100   34.1750   39.1130 C   0  0  0  0  0  0  0  0  0  0  0  0
   48.5130   34.0720   38.0170 O   0  0  0  0  0  0  0  0  0  0  0  0
   48.5190   34.7700   40.1670 N   0  0  0  0  0  0  0  0  0  0  0  0
   47.8500   34.8690   41.3490 C   0  0  0  0  0  0  0  0  0  0  0  0
   48.4710   35.4270   42.2690 O   0  0  0  0  0  0  0  0  0  0  0  0
   44.5870   33.2560   40.6350 C   0  0  0  0  0  0  0  0  0  0  0  0
   44.4830   32.0970   41.5640 C   0  0  0  0  0  0  0  0  0  0  0  0
   43.0500   32.0810   42.0730 C   0  0  0  0  0  0  0  0  0  0  0  0
   42.1780   32.3450   40.8560 C   0  0  0  0  0  0  0  0  0  0  0  0
   42.2290   33.7490   40.3280 C   0  0  0  0  0  0  0  0  0  0  0  0
   43.5590   34.3070   40.8320 C   0  0  0  0  0  0  0  0  0  0  0  0
   44.7550   35.9910   44.1940 C   0  0  0  0  0  0  0  0  0  0  0  0
   45.3330   35.7930   42.9090 C   0  0  0  0  0  0  0  0  0  0  0  0
   46.0470   34.5730   42.7250 C   0  0  0  0  0  0  0  0  0  0  0  0
   46.1030   33.7490   43.7720 N   0  0  0  0  0  0  0  0  0  0  0  0
   45.5540   33.9610   44.9620 C   0  0  0  0  0  0  0  0  0  0  0  0
   44.8680   35.0980   45.1820 N   0  0  0  0  0  0  0  0  0  0  0  0
   45.9510   33.0390   38.0470 C   0  0  0  0  0  0  0  0  0  0  0  0
   46.8730   32.5700   37.0210 N   0  0  0  0  0  0  0  0  0  0  0  0
   46.5220   32.6150   35.6510 C   0  0  0  0  0  0  0  0  0  0  0  0
   45.2920   32.8350   35.2700 N   0  0  0  0  0  0  0  0  0  0  0  0
   47.5980   32.4050   34.7220 N   0  0  0  0  0  0  0  0  0  0  0  0
   45.1180   32.8520   34.2310 H   0  0  0  0  0  0  0  0  0  0  0  0
   49.4750   35.1424   40.0755 H   0  0  0  0  0  0  0  0  0  0  0  0
   44.3270   32.8098   39.6637 H   0  0  0  0  0  0  0  0  0  0  0  0
   44.7078   31.1612   41.0313 H   0  0  0  0  0  0  0  0  0  0  0  0
   45.1996   32.1859   42.3938 H   0  0  0  0  0  0  0  0  0  0  0  0
   42.8098   31.1013   42.5117 H   0  0  0  0  0  0  0  0  0  0  0  0
   42.8897   32.8344   42.8583 H   0  0  0  0  0  0  0  0  0  0  0  0
   42.5006   31.6669   40.0522 H   0  0  0  0  0  0  0  0  0  0  0  0
   41.1405   32.1776   41.1808 H   0  0  0  0  0  0  0  0  0  0  0  0
   41.3877   34.3406   40.7182 H   0  0  0  0  0  0  0  0  0  0  0  0
   42.1531   33.7833   39.2312 H   0  0  0  0  0  0  0  0  0  0  0  0
   43.4799   34.5595   41.8997 H   0  0  0  0  0  0  0  0  0  0  0  0
   43.8289   35.2207   40.2822 H   0  0  0  0  0  0  0  0  0  0  0  0
   44.1920   36.9171   44.3820 H   0  0  0  0  0  0  0  0  0  0  0  0
   45.2347   36.5373   42.1051 H   0  0  0  0  0  0  0  0  0  0  0  0
   45.6589   33.2133   45.7620 H   0  0  0  0  0  0  0  0  0  0  0  0
   45.3689   32.1812   38.4148 H   0  0  0  0  0  0  0  0  0  0  0  0
   45.3068   33.8035   37.5882 H   0  0  0  0  0  0  0  0  0  0  0  0
   47.7939   32.2002   37.2970 H   0  0  0  0  0  0  0  0  0  0  0  0
   47.4146   32.4243   33.7086 H   0  0  0  0  0  0  0  0  0  0  0  0
   48.5526   32.2351   35.0695 H   0  0  0  0  0  0  0  0  0  0  0  0
  1 17  1  0
  2  9  1  0
  2  1  1  0
  3  2  2  0
  4  3  1  0
  4  6  1  0
  5  4  2  0
  6  7  1  0
  7  1  1  0
  7  8  2  0
  9 14  1  0
  9 10  1  0
 10 11  1  0
 12 11  1  0
 13 14  1  0
 13 12  1  0
 15 20  2  0
 16 15  1  0
 17 16  2  0
 17 18  1  0
 18 19  2  0
 19 20  1  0
 21  3  1  0
 22 21  1  0
 23 22  1  0
 24 23  2  0
 25 23  1  0
 26 24  1  0
  6 27  1  0
  9 28  1  0
 10 29  1  0
 10 30  1  0
 11 31  1  0
 11 32  1  0
 12 33  1  0
 12 34  1  0
 13 35  1  0
 13 36  1  0
 14 37  1  0
 14 38  1  0
 15 39  1  0
 16 40  1  0
 19 41  1  0
 21 42  1  0
 21 43  1  0
 22 44  1  0
 25 45  1  0
 25 46  1  0
M  ISO  8  27   9  28  13  29  13  30  13  31  13  32  13  33  13  34  13
M  ISO  8  35  13  36  13  37  13  38  13  39  14  40  14  41  14  42   8
M  ISO  1  43   8
M  END
>  <minimizedAffinity>  (1) 
-5.9955821

>  <minimizedRMSD>  (1) 
1.76622498

$$$$
