
     RDKit          3D

 55 59  0  0  0  0  0  0  0  0999 V2000
   46.6390   34.3940   41.4220 N   0  0  0  0  0  0  0  0  0  0  0  0
   46.0220   33.7770   40.3930 C   0  0  0  0  0  0  0  0  0  0  0  0
   46.6800   33.6350   39.1680 C   0  0  0  0  0  0  0  0  0  0  0  0
   47.9610   34.1570   39.1190 C   0  0  0  0  0  0  0  0  0  0  0  0
   48.5770   34.0290   38.0360 O   0  0  0  0  0  0  0  0  0  0  0  0
   48.5470   34.7630   40.1570 N   0  0  0  0  0  0  0  0  0  0  0  0
   47.8680   34.8820   41.3300 C   0  0  0  0  0  0  0  0  0  0  0  0
   48.4820   35.4620   42.2480 O   0  0  0  0  0  0  0  0  0  0  0  0
   44.6310   33.2340   40.6230 C   0  0  0  0  0  0  0  0  0  0  0  0
   44.5430   32.1100   41.5970 C   0  0  0  0  0  0  0  0  0  0  0  0
   43.1070   32.0770   42.0900 C   0  0  0  0  0  0  0  0  0  0  0  0
   42.2400   32.2770   40.8520 C   0  0  0  0  0  0  0  0  0  0  0  0
   42.2640   33.6610   40.2720 C   0  0  0  0  0  0  0  0  0  0  0  0
   43.5780   34.2690   40.7650 C   0  0  0  0  0  0  0  0  0  0  0  0
   44.7440   35.9980   44.1560 C   0  0  0  0  0  0  0  0  0  0  0  0
   45.3270   35.7970   42.8720 C   0  0  0  0  0  0  0  0  0  0  0  0
   46.0630   34.5980   42.7050 C   0  0  0  0  0  0  0  0  0  0  0  0
   46.1410   33.7810   43.7580 N   0  0  0  0  0  0  0  0  0  0  0  0
   45.5850   33.9960   44.9480 C   0  0  0  0  0  0  0  0  0  0  0  0
   44.8830   35.1100   45.1470 N   0  0  0  0  0  0  0  0  0  0  0  0
   45.9970   33.0080   38.0450 C   0  0  0  0  0  0  0  0  0  0  0  0
   46.4110   31.6490   37.7210 C   0  0  0  0  0  0  0  0  0  0  0  0
   46.4460   30.6630   38.6940 C   0  0  0  0  0  0  0  0  0  0  0  0
   46.8380   29.3940   38.3690 C   0  0  0  0  0  0  0  0  0  0  0  0
   47.2070   29.0380   37.0880 C   0  0  0  0  0  0  0  0  0  0  0  0
   47.1710   30.0340   36.1100 C   0  0  0  0  0  0  0  0  0  0  0  0
   47.5480   29.6310   34.8450 C   0  0  0  0  0  0  0  0  0  0  0  0
   47.5220   30.5910   33.8530 C   0  0  0  0  0  0  0  0  0  0  0  0
   47.1410   31.8950   34.0900 C   0  0  0  0  0  0  0  0  0  0  0  0
   46.7690   32.2710   35.3640 C   0  0  0  0  0  0  0  0  0  0  0  0
   46.7790   31.3350   36.4040 C   0  0  0  0  0  0  0  0  0  0  0  0
   49.5031   35.1361   40.0694 H   0  0  0  0  0  0  0  0  0  0  0  0
   44.3879   32.7489   39.6661 H   0  0  0  0  0  0  0  0  0  0  0  0
   44.7975   31.1599   41.1046 H   0  0  0  0  0  0  0  0  0  0  0  0
   45.2464   32.2507   42.4309 H   0  0  0  0  0  0  0  0  0  0  0  0
   42.8854   31.1078   42.5607 H   0  0  0  0  0  0  0  0  0  0  0  0
   42.9198   32.8538   42.8460 H   0  0  0  0  0  0  0  0  0  0  0  0
   42.5865   31.5773   40.0772 H   0  0  0  0  0  0  0  0  0  0  0  0
   41.2032   32.0985   41.1733 H   0  0  0  0  0  0  0  0  0  0  0  0
   41.4062   34.2473   40.6332 H   0  0  0  0  0  0  0  0  0  0  0  0
   42.1969   33.6521   39.1741 H   0  0  0  0  0  0  0  0  0  0  0  0
   43.4822   34.5646   41.8202 H   0  0  0  0  0  0  0  0  0  0  0  0
   43.8339   35.1640   40.1790 H   0  0  0  0  0  0  0  0  0  0  0  0
   44.1608   36.9126   44.3386 H   0  0  0  0  0  0  0  0  0  0  0  0
   45.2126   36.5289   42.0588 H   0  0  0  0  0  0  0  0  0  0  0  0
   45.7040   33.2616   45.7582 H   0  0  0  0  0  0  0  0  0  0  0  0
   44.9216   32.9859   38.2755 H   0  0  0  0  0  0  0  0  0  0  0  0
   46.2575   33.6141   37.1648 H   0  0  0  0  0  0  0  0  0  0  0  0
   46.1582   30.9013   39.7286 H   0  0  0  0  0  0  0  0  0  0  0  0
   46.8600   28.6282   39.1584 H   0  0  0  0  0  0  0  0  0  0  0  0
   47.5172   28.0106   36.8468 H   0  0  0  0  0  0  0  0  0  0  0  0
   47.8543   28.5952   34.6372 H   0  0  0  0  0  0  0  0  0  0  0  0
   47.8170   30.3042   32.8328 H   0  0  0  0  0  0  0  0  0  0  0  0
   47.1338   32.6287   33.2705 H   0  0  0  0  0  0  0  0  0  0  0  0
   46.4638   33.3090   35.5628 H   0  0  0  0  0  0  0  0  0  0  0  0
  1 17  1  0
  2  9  1  0
  2  1  1  0
  3  2  2  0
  4  3  1  0
  4  6  1  0
  5  4  2  0
  6  7  1  0
  7  1  1  0
  7  8  2  0
  9 14  1  0
  9 10  1  0
 10 11  1  0
 12 11  1  0
 13 14  1  0
 13 12  1  0
 15 20  2  0
 16 15  1  0
 17 16  2  0
 17 18  1  0
 18 19  2  0
 19 20  1  0
 21  3  1  0
 22 21  1  0
 22 23  2  0
 24 23  1  0
 25 24  2  0
 26 31  2  0
 26 25  1  0
 27 26  1  0
 28 29  1  0
 28 27  2  0
 29 30  2  0
 30 31  1  0
 31 22  1  0
  6 32  1  0
  9 33  1  0
 10 34  1  0
 10 35  1  0
 11 36  1  0
 11 37  1  0
 12 38  1  0
 12 39  1  0
 13 40  1  0
 13 41  1  0
 14 42  1  0
 14 43  1  0
 15 44  1  0
 16 45  1  0
 19 46  1  0
 21 47  1  0
 21 48  1  0
 23 49  1  0
 24 50  1  0
 25 51  1  0
 27 52  1  0
 28 53  1  0
 29 54  1  0
 30 55  1  0
M  ISO  8  32   9  33  13  34  13  35  13  36  13  37  13  38  13  39  13
M  ISO  8  40  13  41  13  42  13  43  13  44  14  45  14  46  14  47   8
M  ISO  8  48   8  49  14  50  14  51  14  52  14  53  14  54  14  55  14
M  END
>  <minimizedAffinity>  (1) 
-5.95574713

>  <minimizedRMSD>  (1) 
2.18022704

$$$$
