
     RDKit          3D

 52 55  0  0  0  0  0  0  0  0999 V2000
   46.6870   34.1520   41.6450 N   0  0  0  0  0  0  0  0  0  0  0  0
   46.2350   33.2080   40.7810 C   0  0  0  0  0  0  0  0  0  0  0  0
   46.9490   32.9200   39.6080 C   0  0  0  0  0  0  0  0  0  0  0  0
   48.0990   33.6500   39.4230 C   0  0  0  0  0  0  0  0  0  0  0  0
   48.7630   33.4220   38.3870 O   0  0  0  0  0  0  0  0  0  0  0  0
   48.5340   34.5840   40.2910 N   0  0  0  0  0  0  0  0  0  0  0  0
   47.8090   34.8290   41.4140 C   0  0  0  0  0  0  0  0  0  0  0  0
   48.2770   35.7070   42.1670 O   0  0  0  0  0  0  0  0  0  0  0  0
   44.9450   32.5000   41.1350 C   0  0  0  0  0  0  0  0  0  0  0  0
   45.0580   31.4620   42.1910 C   0  0  0  0  0  0  0  0  0  0  0  0
   43.6600   31.2850   42.7680 C   0  0  0  0  0  0  0  0  0  0  0  0
   42.7240   31.2520   41.5690 C   0  0  0  0  0  0  0  0  0  0  0  0
   42.5270   32.5760   40.8820 C   0  0  0  0  0  0  0  0  0  0  0  0
   43.7630   33.3940   41.2510 C   0  0  0  0  0  0  0  0  0  0  0  0
   44.6220   36.1330   43.9660 C   0  0  0  0  0  0  0  0  0  0  0  0
   45.2810   35.7400   42.7710 C   0  0  0  0  0  0  0  0  0  0  0  0
   46.0420   34.5350   42.8360 C   0  0  0  0  0  0  0  0  0  0  0  0
   46.0600   33.9020   44.0080 N   0  0  0  0  0  0  0  0  0  0  0  0
   45.4330   34.2940   45.1120 C   0  0  0  0  0  0  0  0  0  0  0  0
   44.7100   35.4130   45.0930 N   0  0  0  0  0  0  0  0  0  0  0  0
   46.4470   31.9060   38.7040 C   0  0  0  0  0  0  0  0  0  0  0  0
   47.1350   31.9730   37.4370 N   0  0  0  0  0  0  0  0  0  0  0  0
   48.3030   31.3380   37.1230 C   0  0  0  0  0  0  0  0  0  0  0  0
   48.8510   31.5190   35.8610 C   0  0  0  0  0  0  0  0  0  0  0  0
   50.1370   30.8110   35.5410 C   0  0  0  0  0  0  0  0  0  0  0  0
   48.2730   32.3150   34.8920 C   0  0  0  0  0  0  0  0  0  0  0  0
   48.7890   32.4640   33.7510 O   0  0  0  0  0  0  0  0  0  0  0  0
   47.1260   32.9290   35.2170 N   0  0  0  0  0  0  0  0  0  0  0  0
   46.6170   32.7430   36.4320 C   0  0  0  0  0  0  0  0  0  0  0  0
   45.5220   33.3520   36.6900 O   0  0  0  0  0  0  0  0  0  0  0  0
   49.4033   35.1047   40.1062 H   0  0  0  0  0  0  0  0  0  0  0  0
   44.7295   31.9016   40.2375 H   0  0  0  0  0  0  0  0  0  0  0  0
   45.4140   30.5155   41.7581 H   0  0  0  0  0  0  0  0  0  0  0  0
   45.7767   31.7596   42.9688 H   0  0  0  0  0  0  0  0  0  0  0  0
   43.5940   30.3433   43.3327 H   0  0  0  0  0  0  0  0  0  0  0  0
   43.4012   32.0963   43.4643 H   0  0  0  0  0  0  0  0  0  0  0  0
   43.1347   30.5437   40.8344 H   0  0  0  0  0  0  0  0  0  0  0  0
   41.7378   30.9556   41.9558 H   0  0  0  0  0  0  0  0  0  0  0  0
   41.6133   33.0690   41.2453 H   0  0  0  0  0  0  0  0  0  0  0  0
   42.4112   32.4662   39.7936 H   0  0  0  0  0  0  0  0  0  0  0  0
   43.6730   33.7648   42.2827 H   0  0  0  0  0  0  0  0  0  0  0  0
   43.8668   34.2604   40.5812 H   0  0  0  0  0  0  0  0  0  0  0  0
   44.0220   37.0550   43.9667 H   0  0  0  0  0  0  0  0  0  0  0  0
   45.2087   36.3318   41.8466 H   0  0  0  0  0  0  0  0  0  0  0  0
   45.5102   33.6994   46.0342 H   0  0  0  0  0  0  0  0  0  0  0  0
   46.6055   30.9130   39.1499 H   0  0  0  0  0  0  0  0  0  0  0  0
   45.3738   32.0792   38.5357 H   0  0  0  0  0  0  0  0  0  0  0  0
   48.8022   30.6921   37.8603 H   0  0  0  0  0  0  0  0  0  0  0  0
   50.6443   30.5317   36.4762 H   0  0  0  0  0  0  0  0  0  0  0  0
   49.9209   29.9047   34.9563 H   0  0  0  0  0  0  0  0  0  0  0  0
   50.7873   31.4783   34.9563 H   0  0  0  0  0  0  0  0  0  0  0  0
   46.6464   33.5353   34.5364 H   0  0  0  0  0  0  0  0  0  0  0  0
  1 17  1  0
  2  9  1  0
  2  1  1  0
  3  2  2  0
  4  3  1  0
  4  6  1  0
  5  4  2  0
  6  7  1  0
  7  1  1  0
  7  8  2  0
  9 14  1  0
  9 10  1  0
 10 11  1  0
 12 11  1  0
 13 14  1  0
 13 12  1  0
 15 20  2  0
 16 17  2  0
 16 15  1  0
 17 18  1  0
 18 19  2  0
 20 19  1  0
 21  3  1  0
 22 21  1  0
 23 22  1  0
 24 23  2  0
 25 24  1  0
 26 28  1  0
 26 24  1  0
 27 26  2  0
 28 29  1  0
 29 30  2  0
 29 22  1  0
  6 31  1  0
  9 32  1  0
 10 33  1  0
 10 34  1  0
 11 35  1  0
 11 36  1  0
 12 37  1  0
 12 38  1  0
 13 39  1  0
 13 40  1  0
 14 41  1  0
 14 42  1  0
 15 43  1  0
 16 44  1  0
 19 45  1  0
 21 46  1  0
 21 47  1  0
 23 48  1  0
 25 49  1  0
 25 50  1  0
 25 51  1  0
 28 52  1  0
M  ISO  8  31   9  32  13  33  13  34  13  35  13  36  13  37  13  38  13
M  ISO  8  39  13  40  13  41  13  42  13  43  14  44  14  45  14  46   8
M  ISO  6  47   8  48  14  49   8  50   8  51   8  52   9
M  END
>  <minimizedAffinity>  (1) 
-5.98355579

>  <minimizedRMSD>  (1) 
1.09673357

$$$$
