
     RDKit          3D

 52 55  0  0  0  0  0  0  0  0999 V2000
   46.6770   34.3970   41.4180 N   0  0  0  0  0  0  0  0  0  0  0  0
   46.0650   33.8450   40.3470 C   0  0  0  0  0  0  0  0  0  0  0  0
   46.7370   33.7280   39.1290 C   0  0  0  0  0  0  0  0  0  0  0  0
   48.0390   34.2120   39.1280 C   0  0  0  0  0  0  0  0  0  0  0  0
   48.6760   34.1270   38.0500 O   0  0  0  0  0  0  0  0  0  0  0  0
   48.6240   34.7530   40.2030 N   0  0  0  0  0  0  0  0  0  0  0  0
   47.9240   34.8430   41.3640 C   0  0  0  0  0  0  0  0  0  0  0  0
   48.5430   35.3590   42.3200 O   0  0  0  0  0  0  0  0  0  0  0  0
   44.6380   33.3750   40.5150 C   0  0  0  0  0  0  0  0  0  0  0  0
   44.4370   32.2620   41.4720 C   0  0  0  0  0  0  0  0  0  0  0  0
   42.9750   32.3220   41.8950 C   0  0  0  0  0  0  0  0  0  0  0  0
   42.1890   32.5650   40.6210 C   0  0  0  0  0  0  0  0  0  0  0  0
   42.3140   33.9520   40.0530 C   0  0  0  0  0  0  0  0  0  0  0  0
   43.6370   34.4710   40.6130 C   0  0  0  0  0  0  0  0  0  0  0  0
   44.7480   36.0380   44.1080 C   0  0  0  0  0  0  0  0  0  0  0  0
   45.3680   35.8300   42.8380 C   0  0  0  0  0  0  0  0  0  0  0  0
   46.0710   34.5950   42.6790 C   0  0  0  0  0  0  0  0  0  0  0  0
   46.0810   33.7700   43.7220 N   0  0  0  0  0  0  0  0  0  0  0  0
   45.4930   33.9940   44.8930 C   0  0  0  0  0  0  0  0  0  0  0  0
   44.8250   35.1300   45.0870 N   0  0  0  0  0  0  0  0  0  0  0  0
   46.1060   33.1280   37.9700 C   0  0  0  0  0  0  0  0  0  0  0  0
   46.2080   31.6520   37.8220 C   0  0  0  0  0  0  0  0  0  0  0  0
   44.8250   31.0000   37.6640 C   0  0  0  0  0  0  0  0  0  0  0  0
   45.2060   29.6370   37.1620 C   0  0  0  0  0  0  0  0  0  0  0  0
   46.5490   29.7980   36.4500 C   0  0  0  0  0  0  0  0  0  0  0  0
   46.8260   31.3010   36.4910 C   0  0  0  0  0  0  0  0  0  0  0  0
   49.5934   35.0971   40.1510 H   0  0  0  0  0  0  0  0  0  0  0  0
   44.4202   32.8978   39.5481 H   0  0  0  0  0  0  0  0  0  0  0  0
   44.6542   31.2987   40.9873 H   0  0  0  0  0  0  0  0  0  0  0  0
   45.1084   32.3531   42.3386 H   0  0  0  0  0  0  0  0  0  0  0  0
   42.6704   31.3719   42.3583 H   0  0  0  0  0  0  0  0  0  0  0  0
   42.7994   33.1141   42.6378 H   0  0  0  0  0  0  0  0  0  0  0  0
   42.5413   31.8519   39.8612 H   0  0  0  0  0  0  0  0  0  0  0  0
   41.1288   32.4343   40.8836 H   0  0  0  0  0  0  0  0  0  0  0  0
   41.4765   34.5848   40.3820 H   0  0  0  0  0  0  0  0  0  0  0  0
   42.2912   33.9596   38.9533 H   0  0  0  0  0  0  0  0  0  0  0  0
   43.5074   34.7655   41.6649 H   0  0  0  0  0  0  0  0  0  0  0  0
   43.9749   35.3497   40.0440 H   0  0  0  0  0  0  0  0  0  0  0  0
   44.1921   36.9704   44.2856 H   0  0  0  0  0  0  0  0  0  0  0  0
   45.3082   36.5750   42.0309 H   0  0  0  0  0  0  0  0  0  0  0  0
   45.5577   33.2459   45.6968 H   0  0  0  0  0  0  0  0  0  0  0  0
   45.0365   33.3825   38.0079 H   0  0  0  0  0  0  0  0  0  0  0  0
   46.6554   33.5354   37.1085 H   0  0  0  0  0  0  0  0  0  0  0  0
   46.7670   31.3160   38.7078 H   0  0  0  0  0  0  0  0  0  0  0  0
   44.2935   30.9423   38.6253 H   0  0  0  0  0  0  0  0  0  0  0  0
   44.1372   31.5499   37.0048 H   0  0  0  0  0  0  0  0  0  0  0  0
   45.3035   28.9354   38.0036 H   0  0  0  0  0  0  0  0  0  0  0  0
   44.4405   29.2345   36.4823 H   0  0  0  0  0  0  0  0  0  0  0  0
   46.4833   29.4429   35.4110 H   0  0  0  0  0  0  0  0  0  0  0  0
   47.3484   29.2121   36.9272 H   0  0  0  0  0  0  0  0  0  0  0  0
   47.9045   31.5168   36.4733 H   0  0  0  0  0  0  0  0  0  0  0  0
   46.4286   31.8663   35.6351 H   0  0  0  0  0  0  0  0  0  0  0  0
  1 17  1  0
  2  9  1  0
  2  1  1  0
  3  2  2  0
  4  3  1  0
  4  6  1  0
  5  4  2  0
  6  7  1  0
  7  1  1  0
  7  8  2  0
  9 14  1  0
  9 10  1  0
 10 11  1  0
 12 11  1  0
 13 14  1  0
 13 12  1  0
 15 20  2  0
 16 15  1  0
 17 16  2  0
 17 18  1  0
 18 19  2  0
 19 20  1  0
 21  3  1  0
 22 21  1  0
 23 22  1  0
 24 23  1  0
 25 26  1  0
 25 24  1  0
 26 22  1  0
  6 27  1  0
  9 28  1  0
 10 29  1  0
 10 30  1  0
 11 31  1  0
 11 32  1  0
 12 33  1  0
 12 34  1  0
 13 35  1  0
 13 36  1  0
 14 37  1  0
 14 38  1  0
 15 39  1  0
 16 40  1  0
 19 41  1  0
 21 42  1  0
 21 43  1  0
 22 44  1  0
 23 45  1  0
 23 46  1  0
 24 47  1  0
 24 48  1  0
 25 49  1  0
 25 50  1  0
 26 51  1  0
 26 52  1  0
M  ISO  8  27   9  28  13  29  13  30  13  31  13  32  13  33  13  34  13
M  ISO  8  35  13  36  13  37  13  38  13  39  14  40  14  41  14  42   8
M  ISO  8  43   8  44  13  45  13  46  13  47  13  48  13  49  13  50  13
M  ISO  2  51  13  52  13
M  END
>  <minimizedAffinity>  (1) 
-5.40163088

>  <minimizedRMSD>  (1) 
0.253365904

$$$$
