
     RDKit          3D

 49 52  0  0  0  0  0  0  0  0999 V2000
   46.6920   34.4140   41.4160 N   0  0  0  0  0  0  0  0  0  0  0  0
   46.0770   33.8660   40.3490 C   0  0  0  0  0  0  0  0  0  0  0  0
   46.7440   33.7610   39.1330 C   0  0  0  0  0  0  0  0  0  0  0  0
   48.0410   34.2510   39.1220 C   0  0  0  0  0  0  0  0  0  0  0  0
   48.6840   34.1780   38.0430 O   0  0  0  0  0  0  0  0  0  0  0  0
   48.6320   34.7920   40.2020 N   0  0  0  0  0  0  0  0  0  0  0  0
   47.9390   34.8740   41.3730 C   0  0  0  0  0  0  0  0  0  0  0  0
   48.5470   35.3860   42.3220 O   0  0  0  0  0  0  0  0  0  0  0  0
   44.6570   33.3810   40.5160 C   0  0  0  0  0  0  0  0  0  0  0  0
   44.4740   32.2620   41.4730 C   0  0  0  0  0  0  0  0  0  0  0  0
   43.0120   32.2920   41.9000 C   0  0  0  0  0  0  0  0  0  0  0  0
   42.2170   32.5340   40.6280 C   0  0  0  0  0  0  0  0  0  0  0  0
   42.3240   33.9280   40.0630 C   0  0  0  0  0  0  0  0  0  0  0  0
   43.6420   34.4620   40.6190 C   0  0  0  0  0  0  0  0  0  0  0  0
   44.7510   36.0090   44.1330 C   0  0  0  0  0  0  0  0  0  0  0  0
   45.3680   35.8180   42.8600 C   0  0  0  0  0  0  0  0  0  0  0  0
   46.0860   34.5950   42.6870 C   0  0  0  0  0  0  0  0  0  0  0  0
   46.1120   33.7590   43.7210 N   0  0  0  0  0  0  0  0  0  0  0  0
   45.5260   33.9680   44.8960 C   0  0  0  0  0  0  0  0  0  0  0  0
   44.8440   35.0910   45.1060 N   0  0  0  0  0  0  0  0  0  0  0  0
   46.1220   33.1710   37.9720 C   0  0  0  0  0  0  0  0  0  0  0  0
   46.6170   31.8330   37.6680 C   0  0  0  0  0  0  0  0  0  0  0  0
   46.4410   30.8270   38.6200 C   0  0  0  0  0  0  0  0  0  0  0  0
   46.8860   29.5310   38.4990 C   0  0  0  0  0  0  0  0  0  0  0  0
   47.5730   29.1420   37.3480 C   0  0  0  0  0  0  0  0  0  0  0  0
   47.7870   30.0710   36.3640 C   0  0  0  0  0  0  0  0  0  0  0  0
   47.3040   31.3370   36.5800 C   0  0  0  0  0  0  0  0  0  0  0  0
   49.5993   35.1412   40.1449 H   0  0  0  0  0  0  0  0  0  0  0  0
   44.4413   32.9083   39.5465 H   0  0  0  0  0  0  0  0  0  0  0  0
   44.7080   31.3037   40.9863 H   0  0  0  0  0  0  0  0  0  0  0  0
   45.1435   32.3665   42.3395 H   0  0  0  0  0  0  0  0  0  0  0  0
   42.7255   31.3322   42.3546 H   0  0  0  0  0  0  0  0  0  0  0  0
   42.8243   33.0736   42.6509 H   0  0  0  0  0  0  0  0  0  0  0  0
   42.5737   31.8280   39.8636 H   0  0  0  0  0  0  0  0  0  0  0  0
   41.1596   32.3920   40.8956 H   0  0  0  0  0  0  0  0  0  0  0  0
   41.4801   34.5494   40.3972 H   0  0  0  0  0  0  0  0  0  0  0  0
   42.2976   33.9383   38.9634 H   0  0  0  0  0  0  0  0  0  0  0  0
   43.5122   34.7528   41.6719 H   0  0  0  0  0  0  0  0  0  0  0  0
   43.9663   35.3455   40.0496 H   0  0  0  0  0  0  0  0  0  0  0  0
   44.1846   36.9331   44.3206 H   0  0  0  0  0  0  0  0  0  0  0  0
   45.2949   36.5685   42.0591 H   0  0  0  0  0  0  0  0  0  0  0  0
   45.6049   33.2139   45.6930 H   0  0  0  0  0  0  0  0  0  0  0  0
   45.0382   33.1100   38.1499 H   0  0  0  0  0  0  0  0  0  0  0  0
   46.3661   33.8114   37.1115 H   0  0  0  0  0  0  0  0  0  0  0  0
   45.9027   31.0924   39.5418 H   0  0  0  0  0  0  0  0  0  0  0  0
   46.7015   28.8053   39.3048 H   0  0  0  0  0  0  0  0  0  0  0  0
   47.9355   28.1098   37.2332 H   0  0  0  0  0  0  0  0  0  0  0  0
   48.3237   29.8127   35.4392 H   0  0  0  0  0  0  0  0  0  0  0  0
   47.4913   32.0583   35.7709 H   0  0  0  0  0  0  0  0  0  0  0  0
  1 17  1  0
  2  9  1  0
  2  1  1  0
  3  2  2  0
  4  3  1  0
  4  6  1  0
  5  4  2  0
  6  7  1  0
  7  1  1  0
  7  8  2  0
  9 14  1  0
  9 10  1  0
 10 11  1  0
 12 11  1  0
 13 14  1  0
 13 12  1  0
 15 20  2  0
 16 15  1  0
 17 16  2  0
 17 18  1  0
 18 19  2  0
 19 20  1  0
 21  3  1  0
 22 21  1  0
 22 23  2  0
 24 23  1  0
 25 24  2  0
 26 27  2  0
 26 25  1  0
 27 22  1  0
  6 28  1  0
  9 29  1  0
 10 30  1  0
 10 31  1  0
 11 32  1  0
 11 33  1  0
 12 34  1  0
 12 35  1  0
 13 36  1  0
 13 37  1  0
 14 38  1  0
 14 39  1  0
 15 40  1  0
 16 41  1  0
 19 42  1  0
 21 43  1  0
 21 44  1  0
 23 45  1  0
 24 46  1  0
 25 47  1  0
 26 48  1  0
 27 49  1  0
M  ISO  8  28   9  29  13  30  13  31  13  32  13  33  13  34  13  35  13
M  ISO  8  36  13  37  13  38  13  39  13  40  14  41  14  42  14  43   8
M  ISO  6  44   8  45  14  46  14  47  14  48  14  49  14
M  END
>  <minimizedAffinity>  (1) 
-5.38240194

>  <minimizedRMSD>  (1) 
0.740752459

$$$$
