
     RDKit          3D

 40 42  0  0  0  0  0  0  0  0999 V2000
   46.6380   34.4120   41.4770 N   0  0  0  0  0  0  0  0  0  0  0  0
   46.0280   33.7940   40.4370 C   0  0  0  0  0  0  0  0  0  0  0  0
   46.7080   33.6580   39.2260 C   0  0  0  0  0  0  0  0  0  0  0  0
   47.9820   34.1770   39.1800 C   0  0  0  0  0  0  0  0  0  0  0  0
   48.6130   34.0660   38.1010 O   0  0  0  0  0  0  0  0  0  0  0  0
   48.5610   34.7860   40.2330 N   0  0  0  0  0  0  0  0  0  0  0  0
   47.8680   34.9010   41.3960 C   0  0  0  0  0  0  0  0  0  0  0  0
   48.4750   35.4790   42.3250 O   0  0  0  0  0  0  0  0  0  0  0  0
   44.6300   33.2820   40.6440 C   0  0  0  0  0  0  0  0  0  0  0  0
   44.5080   32.1260   41.5680 C   0  0  0  0  0  0  0  0  0  0  0  0
   43.0660   32.1180   42.0670 C   0  0  0  0  0  0  0  0  0  0  0  0
   42.2260   32.3560   40.8240 C   0  0  0  0  0  0  0  0  0  0  0  0
   42.2770   33.7730   40.2980 C   0  0  0  0  0  0  0  0  0  0  0  0
   43.5950   34.3340   40.8150 C   0  0  0  0  0  0  0  0  0  0  0  0
   44.7320   36.0600   44.1790 C   0  0  0  0  0  0  0  0  0  0  0  0
   45.3350   35.8520   42.9050 C   0  0  0  0  0  0  0  0  0  0  0  0
   46.0470   34.6220   42.7500 C   0  0  0  0  0  0  0  0  0  0  0  0
   46.0730   33.8090   43.8050 N   0  0  0  0  0  0  0  0  0  0  0  0
   45.5020   34.0310   44.9820 C   0  0  0  0  0  0  0  0  0  0  0  0
   44.8220   35.1680   45.1750 N   0  0  0  0  0  0  0  0  0  0  0  0
   46.0520   32.9970   38.0970 C   0  0  0  0  0  0  0  0  0  0  0  0
   46.7510   31.8230   37.8070 O   0  0  0  0  0  0  0  0  0  0  0  0
   49.5177   35.1600   40.1573 H   0  0  0  0  0  0  0  0  0  0  0  0
   44.3835   32.8415   39.6666 H   0  0  0  0  0  0  0  0  0  0  0  0
   44.7308   31.1894   41.0358 H   0  0  0  0  0  0  0  0  0  0  0  0
   45.2172   32.2100   42.4047 H   0  0  0  0  0  0  0  0  0  0  0  0
   42.8186   31.1477   42.5224 H   0  0  0  0  0  0  0  0  0  0  0  0
   42.8893   32.8798   42.8406 H   0  0  0  0  0  0  0  0  0  0  0  0
   42.5845   31.6819   40.0321 H   0  0  0  0  0  0  0  0  0  0  0  0
   41.1811   32.1643   41.1095 H   0  0  0  0  0  0  0  0  0  0  0  0
   41.4293   34.3594   40.6820 H   0  0  0  0  0  0  0  0  0  0  0  0
   42.2123   33.8106   39.2005 H   0  0  0  0  0  0  0  0  0  0  0  0
   43.4992   34.5963   41.8790 H   0  0  0  0  0  0  0  0  0  0  0  0
   43.8723   35.2421   40.2595 H   0  0  0  0  0  0  0  0  0  0  0  0
   44.1702   36.9898   44.3519 H   0  0  0  0  0  0  0  0  0  0  0  0
   45.2577   36.5901   42.0931 H   0  0  0  0  0  0  0  0  0  0  0  0
   45.5864   33.2893   45.7899 H   0  0  0  0  0  0  0  0  0  0  0  0
   45.0122   32.7546   38.3615 H   0  0  0  0  0  0  0  0  0  0  0  0
   46.0483   33.6612   37.2202 H   0  0  0  0  0  0  0  0  0  0  0  0
   47.0153   31.3791   38.6515 H   0  0  0  0  0  0  0  0  0  0  0  0
  1 17  1  0
  2  9  1  0
  2  1  1  0
  3  2  2  0
  4  3  1  0
  4  6  1  0
  5  4  2  0
  6  7  1  0
  7  1  1  0
  7  8  2  0
  9 14  1  0
  9 10  1  0
 10 11  1  0
 12 11  1  0
 13 14  1  0
 13 12  1  0
 15 20  2  0
 16 15  1  0
 17 16  2  0
 17 18  1  0
 18 19  2  0
 19 20  1  0
 21  3  1  0
 22 21  1  0
  6 23  1  0
  9 24  1  0
 10 25  1  0
 10 26  1  0
 11 27  1  0
 11 28  1  0
 12 29  1  0
 12 30  1  0
 13 31  1  0
 13 32  1  0
 14 33  1  0
 14 34  1  0
 15 35  1  0
 16 36  1  0
 19 37  1  0
 21 38  1  0
 21 39  1  0
 22 40  1  0
M  ISO  8  23   9  24  13  25  13  26  13  27  13  28  13  29  13  30  13
M  ISO  8  31  13  32  13  33  13  34  13  35  14  36  14  37  14  38   8
M  ISO  2  39   8  40   3
M  END
>  <minimizedAffinity>  (1) 
-5.32019711

>  <minimizedRMSD>  (1) 
0.242110819

$$$$
