
     RDKit          3D

 46 49  0  0  0  0  0  0  0  0999 V2000
   46.6400   34.4140   41.4350 N   0  0  0  0  0  0  0  0  0  0  0  0
   46.0210   33.8620   40.3610 C   0  0  0  0  0  0  0  0  0  0  0  0
   46.7030   33.7050   39.1620 C   0  0  0  0  0  0  0  0  0  0  0  0
   48.0180   34.1400   39.1580 C   0  0  0  0  0  0  0  0  0  0  0  0
   48.6590   34.0010   38.0840 O   0  0  0  0  0  0  0  0  0  0  0  0
   48.6140   34.6840   40.2340 N   0  0  0  0  0  0  0  0  0  0  0  0
   47.9030   34.8170   41.3800 C   0  0  0  0  0  0  0  0  0  0  0  0
   48.5240   35.3360   42.3370 O   0  0  0  0  0  0  0  0  0  0  0  0
   44.5840   33.4190   40.5330 C   0  0  0  0  0  0  0  0  0  0  0  0
   44.3780   32.2750   41.4650 C   0  0  0  0  0  0  0  0  0  0  0  0
   42.9270   32.3420   41.9140 C   0  0  0  0  0  0  0  0  0  0  0  0
   42.1240   32.6380   40.6520 C   0  0  0  0  0  0  0  0  0  0  0  0
   42.2720   34.0340   40.1180 C   0  0  0  0  0  0  0  0  0  0  0  0
   43.6080   34.5270   40.6740 C   0  0  0  0  0  0  0  0  0  0  0  0
   44.7500   36.0950   44.1140 C   0  0  0  0  0  0  0  0  0  0  0  0
   45.3640   35.8720   42.8530 C   0  0  0  0  0  0  0  0  0  0  0  0
   46.0370   34.6290   42.6920 C   0  0  0  0  0  0  0  0  0  0  0  0
   46.0280   33.8020   43.7380 N   0  0  0  0  0  0  0  0  0  0  0  0
   45.4440   34.0370   44.9100 C   0  0  0  0  0  0  0  0  0  0  0  0
   44.8020   35.1880   45.0980 N   0  0  0  0  0  0  0  0  0  0  0  0
   46.0220   33.1520   38.0010 C   0  0  0  0  0  0  0  0  0  0  0  0
   46.3950   31.7780   37.7100 N   0  0  0  0  0  0  0  0  0  0  0  0
   46.9780   31.3570   36.5860 N   0  0  0  0  0  0  0  0  0  0  0  0
   47.1770   30.0310   36.6560 C   0  0  0  0  0  0  0  0  0  0  0  0
   46.7040   29.5800   37.8680 C   0  0  0  0  0  0  0  0  0  0  0  0
   46.2140   30.6910   38.5220 C   0  0  0  0  0  0  0  0  0  0  0  0
   49.5950   34.9945   40.1878 H   0  0  0  0  0  0  0  0  0  0  0  0
   44.3371   32.9808   39.5547 H   0  0  0  0  0  0  0  0  0  0  0  0
   44.5726   31.3237   40.9482 H   0  0  0  0  0  0  0  0  0  0  0  0
   45.0637   32.3318   42.3232 H   0  0  0  0  0  0  0  0  0  0  0  0
   42.6153   31.3823   42.3519 H   0  0  0  0  0  0  0  0  0  0  0  0
   42.7734   33.1109   42.6855 H   0  0  0  0  0  0  0  0  0  0  0  0
   42.4485   31.9370   39.8689 H   0  0  0  0  0  0  0  0  0  0  0  0
   41.0652   32.5252   40.9280 H   0  0  0  0  0  0  0  0  0  0  0  0
   42.2888   34.0281   39.0181 H   0  0  0  0  0  0  0  0  0  0  0  0
   41.4347   34.6825   40.4152 H   0  0  0  0  0  0  0  0  0  0  0  0
   43.4970   34.7974   41.7345 H   0  0  0  0  0  0  0  0  0  0  0  0
   43.9507   35.4180   40.1274 H   0  0  0  0  0  0  0  0  0  0  0  0
   44.2158   37.0408   44.2877 H   0  0  0  0  0  0  0  0  0  0  0  0
   45.3216   36.6184   42.0461 H   0  0  0  0  0  0  0  0  0  0  0  0
   45.4911   33.2886   45.7148 H   0  0  0  0  0  0  0  0  0  0  0  0
   44.9379   33.1872   38.1838 H   0  0  0  0  0  0  0  0  0  0  0  0
   46.3186   33.7586   37.1326 H   0  0  0  0  0  0  0  0  0  0  0  0
   47.6403   29.4091   35.8758 H   0  0  0  0  0  0  0  0  0  0  0  0
   46.7148   28.5445   38.2390 H   0  0  0  0  0  0  0  0  0  0  0  0
   45.7570   30.7017   39.5225 H   0  0  0  0  0  0  0  0  0  0  0  0
  1 17  1  0
  2  9  1  0
  2  1  1  0
  3  2  2  0
  4  3  1  0
  4  6  1  0
  5  4  2  0
  6  7  1  0
  7  1  1  0
  7  8  2  0
  9 14  1  0
  9 10  1  0
 10 11  1  0
 12 11  1  0
 13 12  1  0
 13 14  1  0
 15 20  2  0
 16 15  1  0
 17 16  2  0
 17 18  1  0
 18 19  2  0
 19 20  1  0
 21  3  1  0
 22 21  1  0
 22 26  1  0
 23 24  2  0
 23 22  1  0
 24 25  1  0
 25 26  2  0
  6 27  1  0
  9 28  1  0
 10 29  1  0
 10 30  1  0
 11 31  1  0
 11 32  1  0
 12 33  1  0
 12 34  1  0
 13 35  1  0
 13 36  1  0
 14 37  1  0
 14 38  1  0
 15 39  1  0
 16 40  1  0
 19 41  1  0
 21 42  1  0
 21 43  1  0
 24 44  1  0
 25 45  1  0
 26 46  1  0
M  ISO  8  27   9  28  13  29  13  30  13  31  13  32  13  33  13  34  13
M  ISO  8  35  13  36  13  37  13  38  13  39  14  40  14  41  14  42   8
M  ISO  4  43   8  44  14  45  14  46  14
M  END
>  <minimizedAffinity>  (1) 
-5.34990454

>  <minimizedRMSD>  (1) 
1.38082945

$$$$
