
     RDKit          3D

 47 50  0  0  0  0  0  0  0  0999 V2000
   46.6500   34.3990   41.4090 N   0  0  0  0  0  0  0  0  0  0  0  0
   46.0370   33.8430   40.3450 C   0  0  0  0  0  0  0  0  0  0  0  0
   46.7180   33.6940   39.1380 C   0  0  0  0  0  0  0  0  0  0  0  0
   48.0290   34.1510   39.1350 C   0  0  0  0  0  0  0  0  0  0  0  0
   48.6720   34.0320   38.0600 O   0  0  0  0  0  0  0  0  0  0  0  0
   48.6180   34.6980   40.2040 N   0  0  0  0  0  0  0  0  0  0  0  0
   47.9070   34.8200   41.3550 C   0  0  0  0  0  0  0  0  0  0  0  0
   48.5320   35.3430   42.3060 O   0  0  0  0  0  0  0  0  0  0  0  0
   44.6080   33.3890   40.5120 C   0  0  0  0  0  0  0  0  0  0  0  0
   44.4000   32.2700   41.4710 C   0  0  0  0  0  0  0  0  0  0  0  0
   42.9490   32.3280   41.9020 C   0  0  0  0  0  0  0  0  0  0  0  0
   42.1590   32.5780   40.6280 C   0  0  0  0  0  0  0  0  0  0  0  0
   42.2840   33.9750   40.0740 C   0  0  0  0  0  0  0  0  0  0  0  0
   43.6140   34.4880   40.6150 C   0  0  0  0  0  0  0  0  0  0  0  0
   44.7520   36.0390   44.1080 C   0  0  0  0  0  0  0  0  0  0  0  0
   45.3620   35.8370   42.8360 C   0  0  0  0  0  0  0  0  0  0  0  0
   46.0530   34.6030   42.6740 C   0  0  0  0  0  0  0  0  0  0  0  0
   46.0580   33.7760   43.7200 N   0  0  0  0  0  0  0  0  0  0  0  0
   45.4810   33.9890   44.8960 C   0  0  0  0  0  0  0  0  0  0  0  0
   44.8230   35.1300   45.0910 N   0  0  0  0  0  0  0  0  0  0  0  0
   46.0800   33.1130   37.9740 C   0  0  0  0  0  0  0  0  0  0  0  0
   46.2660   31.6660   37.7540 C   0  0  0  0  0  0  0  0  0  0  0  0
   45.0850   30.8940   37.8010 C   0  0  0  0  0  0  0  0  0  0  0  0
   44.9720   29.5230   37.6280 C   0  0  0  0  0  0  0  0  0  0  0  0
   46.0940   28.8260   37.3870 N   0  0  0  0  0  0  0  0  0  0  0  0
   47.2390   29.5350   37.3370 C   0  0  0  0  0  0  0  0  0  0  0  0
   47.2930   30.8530   37.5100 N   0  0  0  0  0  0  0  0  0  0  0  0
   49.5947   35.0214   40.1553 H   0  0  0  0  0  0  0  0  0  0  0  0
   44.3852   32.9235   39.5406 H   0  0  0  0  0  0  0  0  0  0  0  0
   44.6117   31.3077   40.9820 H   0  0  0  0  0  0  0  0  0  0  0  0
   45.0730   32.3611   42.3363 H   0  0  0  0  0  0  0  0  0  0  0  0
   42.6459   31.3760   42.3622 H   0  0  0  0  0  0  0  0  0  0  0  0
   42.7761   33.1144   42.6514 H   0  0  0  0  0  0  0  0  0  0  0  0
   42.5122   31.8724   39.8616 H   0  0  0  0  0  0  0  0  0  0  0  0
   41.0989   32.4398   40.8871 H   0  0  0  0  0  0  0  0  0  0  0  0
   41.4537   34.6065   40.4230 H   0  0  0  0  0  0  0  0  0  0  0  0
   42.2474   33.9917   38.9747 H   0  0  0  0  0  0  0  0  0  0  0  0
   43.4979   34.7885   41.6668 H   0  0  0  0  0  0  0  0  0  0  0  0
   43.9497   35.3613   40.0365 H   0  0  0  0  0  0  0  0  0  0  0  0
   44.2030   36.9747   44.2899 H   0  0  0  0  0  0  0  0  0  0  0  0
   45.3028   36.5855   42.0321 H   0  0  0  0  0  0  0  0  0  0  0  0
   45.5452   33.2362   45.6955 H   0  0  0  0  0  0  0  0  0  0  0  0
   44.9993   33.2979   38.0624 H   0  0  0  0  0  0  0  0  0  0  0  0
   46.5673   33.5952   37.1137 H   0  0  0  0  0  0  0  0  0  0  0  0
   44.1508   31.4408   37.9966 H   0  0  0  0  0  0  0  0  0  0  0  0
   43.9943   29.0223   37.6863 H   0  0  0  0  0  0  0  0  0  0  0  0
   48.1780   28.9958   37.1430 H   0  0  0  0  0  0  0  0  0  0  0  0
  1 17  1  0
  2  9  1  0
  2  1  1  0
  3  2  2  0
  4  3  1  0
  4  6  1  0
  5  4  2  0
  6  7  1  0
  7  1  1  0
  7  8  2  0
  9 14  1  0
  9 10  1  0
 10 11  1  0
 12 11  1  0
 13 14  1  0
 13 12  1  0
 15 20  2  0
 16 15  1  0
 17 16  2  0
 17 18  1  0
 18 19  2  0
 19 20  1  0
 21  3  1  0
 22 23  2  0
 22 21  1  0
 24 23  1  0
 25 24  2  0
 26 25  1  0
 26 27  2  0
 27 22  1  0
  6 28  1  0
  9 29  1  0
 10 30  1  0
 10 31  1  0
 11 32  1  0
 11 33  1  0
 12 34  1  0
 12 35  1  0
 13 36  1  0
 13 37  1  0
 14 38  1  0
 14 39  1  0
 15 40  1  0
 16 41  1  0
 19 42  1  0
 21 43  1  0
 21 44  1  0
 23 45  1  0
 24 46  1  0
 26 47  1  0
M  ISO  8  28   9  29  13  30  13  31  13  32  13  33  13  34  13  35  13
M  ISO  8  36  13  37  13  38  13  39  13  40  14  41  14  42  14  43   8
M  ISO  4  44   8  45  14  46  14  47  14
M  END
>  <minimizedAffinity>  (1) 
-5.3495822

>  <minimizedRMSD>  (1) 
2.55123854

$$$$
