
     RDKit          3D

 49 52  0  0  0  0  0  0  0  0999 V2000
   46.6480   34.3840   41.4030 N   0  0  0  0  0  0  0  0  0  0  0  0
   46.0250   33.8430   40.3330 C   0  0  0  0  0  0  0  0  0  0  0  0
   46.6900   33.6830   39.1230 C   0  0  0  0  0  0  0  0  0  0  0  0
   48.0150   34.1150   39.1260 C   0  0  0  0  0  0  0  0  0  0  0  0
   48.6770   33.9940   38.0570 O   0  0  0  0  0  0  0  0  0  0  0  0
   48.6250   34.6510   40.1990 N   0  0  0  0  0  0  0  0  0  0  0  0
   47.9110   34.7790   41.3470 C   0  0  0  0  0  0  0  0  0  0  0  0
   48.5430   35.2860   42.3020 O   0  0  0  0  0  0  0  0  0  0  0  0
   44.5930   33.3980   40.5080 C   0  0  0  0  0  0  0  0  0  0  0  0
   44.3710   32.3050   41.4930 C   0  0  0  0  0  0  0  0  0  0  0  0
   42.9080   32.3940   41.9070 C   0  0  0  0  0  0  0  0  0  0  0  0
   42.1340   32.6140   40.6230 C   0  0  0  0  0  0  0  0  0  0  0  0
   42.2770   33.9960   40.0300 C   0  0  0  0  0  0  0  0  0  0  0  0
   43.6050   34.5050   40.5670 C   0  0  0  0  0  0  0  0  0  0  0  0
   44.7550   36.0490   44.0870 C   0  0  0  0  0  0  0  0  0  0  0  0
   45.3630   35.8280   42.8250 C   0  0  0  0  0  0  0  0  0  0  0  0
   46.0530   34.5960   42.6650 C   0  0  0  0  0  0  0  0  0  0  0  0
   46.0580   33.7770   43.7190 N   0  0  0  0  0  0  0  0  0  0  0  0
   45.4810   34.0060   44.8900 C   0  0  0  0  0  0  0  0  0  0  0  0
   44.8250   35.1490   45.0760 N   0  0  0  0  0  0  0  0  0  0  0  0
   46.0530   33.1360   37.9470 C   0  0  0  0  0  0  0  0  0  0  0  0
   45.4610   31.8080   38.0200 C   0  0  0  0  0  0  0  0  0  0  0  0
   45.9160   30.6180   38.4860 C   0  0  0  0  0  0  0  0  0  0  0  0
   45.2800   29.4010   38.5260 C   0  0  0  0  0  0  0  0  0  0  0  0
   43.9970   29.3460   38.0290 C   0  0  0  0  0  0  0  0  0  0  0  0
   43.4320   30.5230   37.5220 C   0  0  0  0  0  0  0  0  0  0  0  0
   44.1490   31.7060   37.5230 C   0  0  0  0  0  0  0  0  0  0  0  0
   49.6076   34.9561   40.1508 H   0  0  0  0  0  0  0  0  0  0  0  0
   44.3744   32.8992   39.5523 H   0  0  0  0  0  0  0  0  0  0  0  0
   44.5775   31.3282   41.0312 H   0  0  0  0  0  0  0  0  0  0  0  0
   45.0392   32.4068   42.3608 H   0  0  0  0  0  0  0  0  0  0  0  0
   42.5888   31.4600   42.3926 H   0  0  0  0  0  0  0  0  0  0  0  0
   42.7379   33.2062   42.6291 H   0  0  0  0  0  0  0  0  0  0  0  0
   42.4876   31.8839   39.8801 H   0  0  0  0  0  0  0  0  0  0  0  0
   41.0704   32.4925   40.8761 H   0  0  0  0  0  0  0  0  0  0  0  0
   41.4513   34.6460   40.3552 H   0  0  0  0  0  0  0  0  0  0  0  0
   42.2472   33.9845   38.9305 H   0  0  0  0  0  0  0  0  0  0  0  0
   43.4814   34.8368   41.6085 H   0  0  0  0  0  0  0  0  0  0  0  0
   43.9549   35.3548   39.9626 H   0  0  0  0  0  0  0  0  0  0  0  0
   44.2092   36.9885   44.2587 H   0  0  0  0  0  0  0  0  0  0  0  0
   45.3038   36.5694   42.0146 H   0  0  0  0  0  0  0  0  0  0  0  0
   45.5435   33.2614   45.6973 H   0  0  0  0  0  0  0  0  0  0  0  0
   46.8130   33.1072   37.1523 H   0  0  0  0  0  0  0  0  0  0  0  0
   45.1925   33.8003   37.7791 H   0  0  0  0  0  0  0  0  0  0  0  0
   46.9394   30.6291   38.8890 H   0  0  0  0  0  0  0  0  0  0  0  0
   45.7745   28.5087   38.9374 H   0  0  0  0  0  0  0  0  0  0  0  0
   43.4309   28.4028   38.0301 H   0  0  0  0  0  0  0  0  0  0  0  0
   42.4085   30.5065   37.1192 H   0  0  0  0  0  0  0  0  0  0  0  0
   43.6708   32.6092   37.1161 H   0  0  0  0  0  0  0  0  0  0  0  0
  1 17  1  0
  2  9  1  0
  2  1  1  0
  3  4  1  0
  3  2  2  0
  4  6  1  0
  5  4  2  0
  6  7  1  0
  7  1  1  0
  7  8  2  0
  9 14  1  0
  9 10  1  0
 10 11  1  0
 12 11  1  0
 13 14  1  0
 13 12  1  0
 15 20  2  0
 16 15  1  0
 17 16  2  0
 17 18  1  0
 18 19  2  0
 19 20  1  0
 21 22  1  0
 21  3  1  0
 22 23  2  0
 23 24  1  0
 25 24  2  0
 26 27  2  0
 26 25  1  0
 27 22  1  0
  6 28  1  0
  9 29  1  0
 10 30  1  0
 10 31  1  0
 11 32  1  0
 11 33  1  0
 12 34  1  0
 12 35  1  0
 13 36  1  0
 13 37  1  0
 14 38  1  0
 14 39  1  0
 15 40  1  0
 16 41  1  0
 19 42  1  0
 21 43  1  0
 21 44  1  0
 23 45  1  0
 24 46  1  0
 25 47  1  0
 26 48  1  0
 27 49  1  0
M  ISO  8  28   9  29  13  30  13  31  13  32  13  33  13  34  13  35  13
M  ISO  8  36  13  37  13  38  13  39  13  40  14  41  14  42  14  43   8
M  ISO  6  44   8  45  14  46  14  47  14  48  14  49  14
M  END
>  <minimizedAffinity>  (1) 
-5.35095692

>  <minimizedRMSD>  (1) 
2.31617117

$$$$
