
     RDKit          3D

 48 51  0  0  0  0  0  0  0  0999 V2000
   46.6380   34.3830   41.3540 N   0  0  0  0  0  0  0  0  0  0  0  0
   46.0100   33.8810   40.2710 C   0  0  0  0  0  0  0  0  0  0  0  0
   46.6890   33.7120   39.0710 C   0  0  0  0  0  0  0  0  0  0  0  0
   48.0280   34.0950   39.0950 C   0  0  0  0  0  0  0  0  0  0  0  0
   48.6760   33.9560   38.0260 O   0  0  0  0  0  0  0  0  0  0  0  0
   48.6340   34.5910   40.1770 N   0  0  0  0  0  0  0  0  0  0  0  0
   47.9240   34.7370   41.3300 C   0  0  0  0  0  0  0  0  0  0  0  0
   48.5570   35.2050   42.2920 O   0  0  0  0  0  0  0  0  0  0  0  0
   44.5550   33.4960   40.4210 C   0  0  0  0  0  0  0  0  0  0  0  0
   44.2820   32.3320   41.3090 C   0  0  0  0  0  0  0  0  0  0  0  0
   42.8380   32.4440   41.7420 C   0  0  0  0  0  0  0  0  0  0  0  0
   42.0620   32.8350   40.4950 C   0  0  0  0  0  0  0  0  0  0  0  0
   42.2690   34.2540   40.0310 C   0  0  0  0  0  0  0  0  0  0  0  0
   43.6290   34.6390   40.5950 C   0  0  0  0  0  0  0  0  0  0  0  0
   44.7980   36.0870   44.0550 C   0  0  0  0  0  0  0  0  0  0  0  0
   45.4120   35.8730   42.7870 C   0  0  0  0  0  0  0  0  0  0  0  0
   46.0360   34.6030   42.6150 C   0  0  0  0  0  0  0  0  0  0  0  0
   45.9810   33.7610   43.6500 N   0  0  0  0  0  0  0  0  0  0  0  0
   45.4020   33.9910   44.8190 C   0  0  0  0  0  0  0  0  0  0  0  0
   44.8050   35.1660   45.0230 N   0  0  0  0  0  0  0  0  0  0  0  0
   46.0390   33.2150   37.8760 C   0  0  0  0  0  0  0  0  0  0  0  0
   46.0660   31.7430   37.6780 C   0  0  0  0  0  0  0  0  0  0  0  0
   44.8260   31.0810   37.7470 C   0  0  0  0  0  0  0  0  0  0  0  0
   44.5480   29.7390   37.6010 C   0  0  0  0  0  0  0  0  0  0  0  0
   45.6600   28.9620   37.3530 C   0  0  0  0  0  0  0  0  0  0  0  0
   46.9080   29.5410   37.2730 C   0  0  0  0  0  0  0  0  0  0  0  0
   47.0250   30.8610   37.4370 N   0  0  0  0  0  0  0  0  0  0  0  0
   49.6275   34.8602   40.1398 H   0  0  0  0  0  0  0  0  0  0  0  0
   44.3063   33.0998   39.4254 H   0  0  0  0  0  0  0  0  0  0  0  0
   44.4414   31.3917   40.7609 H   0  0  0  0  0  0  0  0  0  0  0  0
   44.9563   32.3311   42.1781 H   0  0  0  0  0  0  0  0  0  0  0  0
   42.4785   31.4797   42.1304 H   0  0  0  0  0  0  0  0  0  0  0  0
   42.7123   33.1839   42.5462 H   0  0  0  0  0  0  0  0  0  0  0  0
   42.3661   32.1622   39.6796 H   0  0  0  0  0  0  0  0  0  0  0  0
   40.9973   32.7514   40.7584 H   0  0  0  0  0  0  0  0  0  0  0  0
   42.2732   34.3081   38.9323 H   0  0  0  0  0  0  0  0  0  0  0  0
   41.4678   34.9278   40.3686 H   0  0  0  0  0  0  0  0  0  0  0  0
   43.5323   34.8778   41.6644 H   0  0  0  0  0  0  0  0  0  0  0  0
   44.0185   35.5213   40.0660 H   0  0  0  0  0  0  0  0  0  0  0  0
   44.2985   37.0486   44.2444 H   0  0  0  0  0  0  0  0  0  0  0  0
   45.4049   36.6360   41.9947 H   0  0  0  0  0  0  0  0  0  0  0  0
   45.4134   33.2253   45.6087 H   0  0  0  0  0  0  0  0  0  0  0  0
   44.9855   33.5295   37.9116 H   0  0  0  0  0  0  0  0  0  0  0  0
   46.6092   33.6355   37.0345 H   0  0  0  0  0  0  0  0  0  0  0  0
   43.9566   31.7251   37.9453 H   0  0  0  0  0  0  0  0  0  0  0  0
   43.5315   29.3253   37.6755 H   0  0  0  0  0  0  0  0  0  0  0  0
   45.5504   27.8758   37.2185 H   0  0  0  0  0  0  0  0  0  0  0  0
   47.7968   28.9234   37.0765 H   0  0  0  0  0  0  0  0  0  0  0  0
  1 17  1  0
  2  9  1  0
  2  1  1  0
  3  4  1  0
  3  2  2  0
  4  6  1  0
  5  4  2  0
  6  7  1  0
  7  1  1  0
  7  8  2  0
  9 14  1  0
  9 10  1  0
 10 11  1  0
 12 11  1  0
 13 12  1  0
 13 14  1  0
 15 20  2  0
 16 15  1  0
 17 16  2  0
 17 18  1  0
 18 19  2  0
 19 20  1  0
 21  3  1  0
 22 23  2  0
 22 21  1  0
 24 23  1  0
 25 24  2  0
 26 25  1  0
 26 27  2  0
 27 22  1  0
  6 28  1  0
  9 29  1  0
 10 30  1  0
 10 31  1  0
 11 32  1  0
 11 33  1  0
 12 34  1  0
 12 35  1  0
 13 36  1  0
 13 37  1  0
 14 38  1  0
 14 39  1  0
 15 40  1  0
 16 41  1  0
 19 42  1  0
 21 43  1  0
 21 44  1  0
 23 45  1  0
 24 46  1  0
 25 47  1  0
 26 48  1  0
M  ISO  8  28   9  29  13  30  13  31  13  32  13  33  13  34  13  35  13
M  ISO  8  36  13  37  13  38  13  39  13  40  14  41  14  42  14  43   8
M  ISO  5  44   8  45  14  46  14  47  14  48  14
M  END
>  <minimizedAffinity>  (1) 
-5.34965897

>  <minimizedRMSD>  (1) 
2.49619222

$$$$
