
     RDKit          3D

 26 28  0  0  0  0  0  0  0  0999 V2000
   45.2900   36.0510   43.3090 C   0  0  0  0  0  0  0  0  0  0  0  0
   46.1050   34.8970   43.2140 C   0  0  0  0  0  0  0  0  0  0  0  0
   46.1660   33.9570   44.2400 C   0  0  0  0  0  0  0  0  0  0  0  0
   45.3800   34.2390   45.3470 N   0  0  0  0  0  0  0  0  0  0  0  0
   44.6180   35.3240   45.4290 C   0  0  0  0  0  0  0  0  0  0  0  0
   44.5610   36.2210   44.4410 N   0  0  0  0  0  0  0  0  0  0  0  0
   46.8730   34.7860   42.0260 N   0  0  0  0  0  0  0  0  0  0  0  0
   48.0470   35.3100   41.9150 N   0  0  0  0  0  0  0  0  0  0  0  0
   48.5730   35.0860   40.6860 C   0  0  0  0  0  0  0  0  0  0  0  0
   47.5680   34.3410   40.0290 C   0  0  0  0  0  0  0  0  0  0  0  0
   46.4710   34.1500   40.8980 C   0  0  0  0  0  0  0  0  0  0  0  0
   46.9510   32.7410   44.1810 C   0  0  0  0  0  0  0  0  0  0  0  0
   46.7600   31.8880   45.2440 C   0  0  0  0  0  0  0  0  0  0  0  0
   47.3800   30.6770   45.4280 C   0  0  0  0  0  0  0  0  0  0  0  0
   48.2750   30.2350   44.5040 C   0  0  0  0  0  0  0  0  0  0  0  0
   48.4610   31.0790   43.4560 C   0  0  0  0  0  0  0  0  0  0  0  0
   47.8240   32.2180   43.3640 N   0  0  0  0  0  0  0  0  0  0  0  0
   45.2491   36.7860   42.4916 H   0  0  0  0  0  0  0  0  0  0  0  0
   44.0173   35.4883   46.3357 H   0  0  0  0  0  0  0  0  0  0  0  0
   49.5491   35.4074   40.2937 H   0  0  0  0  0  0  0  0  0  0  0  0
   47.6305   33.9664   38.9967 H   0  0  0  0  0  0  0  0  0  0  0  0
   45.5270   33.6184   40.7074 H   0  0  0  0  0  0  0  0  0  0  0  0
   46.0449   32.2057   46.0172 H   0  0  0  0  0  0  0  0  0  0  0  0
   47.1546   30.0685   46.3162 H   0  0  0  0  0  0  0  0  0  0  0  0
   48.8037   29.2749   44.5975 H   0  0  0  0  0  0  0  0  0  0  0  0
   49.1677   30.7966   42.6617 H   0  0  0  0  0  0  0  0  0  0  0  0
  1  6  2  0
  2  1  1  0
  2  3  2  0
  3  4  1  0
  4  5  2  0
  6  5  1  0
  7  2  1  0
  8  7  1  0
  9  8  2  0
 10  9  1  0
 10 11  2  0
 11  7  1  0
 12  3  1  0
 12 13  2  0
 13 14  1  0
 15 14  2  0
 16 15  1  0
 17 16  2  0
 17 12  1  0
  1 18  1  0
  5 19  1  0
  9 20  1  0
 10 21  1  0
 11 22  1  0
 13 23  1  0
 14 24  1  0
 15 25  1  0
 16 26  1  0
M  ISO  8  18  14  19  14  20  14  21  14  22  14  23  14  24  14  25  14
M  ISO  1  26  14
M  END
>  <minimizedAffinity>  (1) 
-4.88002586

>  <minimizedRMSD>  (1) 
3.24020338

$$$$
