
     RDKit          3D

 30 33  0  0  0  0  0  0  0  0999 V2000
   42.2400   35.2150   41.3470 C   0  0  0  0  0  0  0  0  0  0  0  0
   41.7140   33.9750   40.9550 C   0  0  0  0  0  0  0  0  0  0  0  0
   42.4350   32.8250   41.2230 C   0  0  0  0  0  0  0  0  0  0  0  0
   43.6340   32.9530   41.8610 N   0  0  0  0  0  0  0  0  0  0  0  0
   44.1160   34.1420   42.2250 C   0  0  0  0  0  0  0  0  0  0  0  0
   43.4350   35.2610   41.9750 N   0  0  0  0  0  0  0  0  0  0  0  0
   41.8550   31.5950   40.8040 N   0  0  0  0  0  0  0  0  0  0  0  0
   41.7920   30.9950   39.5780 C   0  0  0  0  0  0  0  0  0  0  0  0
   41.1310   29.8280   39.7020 N   0  0  0  0  0  0  0  0  0  0  0  0
   40.7610   29.6640   41.0050 C   0  0  0  0  0  0  0  0  0  0  0  0
   40.0660   28.6200   41.5950 C   0  0  0  0  0  0  0  0  0  0  0  0
   39.8460   28.7400   42.9230 N   0  0  0  0  0  0  0  0  0  0  0  0
   40.2820   29.8160   43.6120 C   0  0  0  0  0  0  0  0  0  0  0  0
   40.9590   30.8170   43.0010 N   0  0  0  0  0  0  0  0  0  0  0  0
   41.2250   30.7780   41.6700 C   0  0  0  0  0  0  0  0  0  0  0  0
   39.6180   27.4950   40.8310 N   0  0  0  0  0  0  0  0  0  0  0  0
   40.4520   34.0360   40.3010 N   0  0  0  0  0  0  0  0  0  0  0  0
   40.4070   34.3570   39.0420 N   0  0  0  0  0  0  0  0  0  0  0  0
   39.1150   34.3570   38.6150 C   0  0  0  0  0  0  0  0  0  0  0  0
   38.3910   34.0030   39.7490 C   0  0  0  0  0  0  0  0  0  0  0  0
   39.2540   33.8000   40.8190 C   0  0  0  0  0  0  0  0  0  0  0  0
   41.6839   36.1422   41.1446 H   0  0  0  0  0  0  0  0  0  0  0  0
   45.0874   34.2004   42.7378 H   0  0  0  0  0  0  0  0  0  0  0  0
   42.2116   31.3982   38.6445 H   0  0  0  0  0  0  0  0  0  0  0  0
   40.0832   29.8809   44.6919 H   0  0  0  0  0  0  0  0  0  0  0  0
   39.1032   26.7313   41.2922 H   0  0  0  0  0  0  0  0  0  0  0  0
   39.8105   27.4494   39.8202 H   0  0  0  0  0  0  0  0  0  0  0  0
   38.7326   34.5838   37.6089 H   0  0  0  0  0  0  0  0  0  0  0  0
   37.2968   33.8991   39.7922 H   0  0  0  0  0  0  0  0  0  0  0  0
   39.0032   33.5120   41.8506 H   0  0  0  0  0  0  0  0  0  0  0  0
  1  6  2  0
  2  3  2  0
  2  1  1  0
  3  4  1  0
  4  5  2  0
  6  5  1  0
  7  3  1  0
  7 15  1  0
  8  9  2  0
  8  7  1  0
  9 10  1  0
 10 11  1  0
 10 15  2  0
 11 12  2  0
 12 13  1  0
 14 13  2  0
 15 14  1  0
 16 11  1  0
 17 21  1  0
 17  2  1  0
 18 17  1  0
 19 18  2  0
 19 20  1  0
 20 21  2  0
  1 22  1  0
  5 23  1  0
  8 24  1  0
 13 25  1  0
 16 26  1  0
 16 27  1  0
 19 28  1  0
 20 29  1  0
 21 30  1  0
M  ISO  7  22  14  23  14  24  14  25  14  28  14  29  14  30  14
M  END
>  <minimizedAffinity>  (1) 
-4.50689507

>  <minimizedRMSD>  (1) 
4.11307859

$$$$
