
     RDKit          3D

 24 25  0  0  0  0  0  0  0  0999 V2000
   44.2960   35.7840   42.3840 C   0  0  0  0  0  0  0  0  0  0  0  0
   43.9320   35.0510   41.2310 C   0  0  0  0  0  0  0  0  0  0  0  0
   44.8460   34.2270   40.6030 C   0  0  0  0  0  0  0  0  0  0  0  0
   46.1000   34.1590   41.1410 N   0  0  0  0  0  0  0  0  0  0  0  0
   46.4400   34.8510   42.2270 C   0  0  0  0  0  0  0  0  0  0  0  0
   45.5650   35.6540   42.8500 N   0  0  0  0  0  0  0  0  0  0  0  0
   42.5920   35.2350   40.7860 N   0  0  0  0  0  0  0  0  0  0  0  0
   42.3030   35.3450   39.5270 N   0  0  0  0  0  0  0  0  0  0  0  0
   40.9650   35.5160   39.3810 C   0  0  0  0  0  0  0  0  0  0  0  0
   40.4550   35.4990   40.6870 C   0  0  0  0  0  0  0  0  0  0  0  0
   41.5040   35.3190   41.5800 C   0  0  0  0  0  0  0  0  0  0  0  0
   44.5040   33.4810   39.4570 N   0  0  0  0  0  0  0  0  0  0  0  0
   45.3400   33.5850   38.3150 C   0  0  0  0  0  0  0  0  0  0  0  0
   46.6210   33.7060   38.3390 N   0  0  0  0  0  0  0  0  0  0  0  0
   44.8870   33.5680   36.9430 N   0  0  0  0  0  0  0  0  0  0  0  0
   47.2290   33.7430   39.1650 H   0  0  0  0  0  0  0  0  0  0  0  0
   43.5722   36.4406   42.8890 H   0  0  0  0  0  0  0  0  0  0  0  0
   47.4626   34.7618   42.6223 H   0  0  0  0  0  0  0  0  0  0  0  0
   40.4033   35.6407   38.4434 H   0  0  0  0  0  0  0  0  0  0  0  0
   39.3953   35.6102   40.9604 H   0  0  0  0  0  0  0  0  0  0  0  0
   41.4584   35.2590   42.6774 H   0  0  0  0  0  0  0  0  0  0  0  0
   43.6699   32.8768   39.4487 H   0  0  0  0  0  0  0  0  0  0  0  0
   43.8827   33.4767   36.7333 H   0  0  0  0  0  0  0  0  0  0  0  0
   45.5684   33.6471   36.1747 H   0  0  0  0  0  0  0  0  0  0  0  0
  1  6  2  0
  2  1  1  0
  3  4  1  0
  3  2  2  0
  4  5  2  0
  5  6  1  0
  7  2  1  0
  7 11  1  0
  8  7  1  0
  9  8  2  0
  9 10  1  0
 10 11  2  0
 12  3  1  0
 13 14  2  0
 13 12  1  0
 14 16  1  0
 15 13  1  0
  1 17  1  0
  5 18  1  0
  9 19  1  0
 10 20  1  0
 11 21  1  0
 12 22  1  0
 15 23  1  0
 15 24  1  0
M  ISO  5  17  14  18  14  19  14  20  14  21  14
M  END
>  <minimizedAffinity>  (1) 
-4.24057484

>  <minimizedRMSD>  (1) 
2.80213571

$$$$
