
     RDKit          3D

 24 26  0  0  0  0  0  0  0  0999 V2000
   45.3680   36.1400   43.2210 C   0  0  0  0  0  0  0  0  0  0  0  0
   45.9400   34.8510   43.0560 C   0  0  0  0  0  0  0  0  0  0  0  0
   45.7980   33.9280   44.0590 C   0  0  0  0  0  0  0  0  0  0  0  0
   45.1100   34.2880   45.1900 N   0  0  0  0  0  0  0  0  0  0  0  0
   44.5820   35.5040   45.3240 C   0  0  0  0  0  0  0  0  0  0  0  0
   44.6970   36.4450   44.3550 N   0  0  0  0  0  0  0  0  0  0  0  0
   46.6610   34.6450   41.8660 N   0  0  0  0  0  0  0  0  0  0  0  0
   47.8780   35.0880   41.7290 N   0  0  0  0  0  0  0  0  0  0  0  0
   48.3290   34.7730   40.4750 C   0  0  0  0  0  0  0  0  0  0  0  0
   47.2540   34.0900   39.8640 C   0  0  0  0  0  0  0  0  0  0  0  0
   46.1750   34.0090   40.7670 C   0  0  0  0  0  0  0  0  0  0  0  0
   46.2400   32.5330   43.9560 C   0  0  0  0  0  0  0  0  0  0  0  0
   47.5250   32.1590   44.2970 C   0  0  0  0  0  0  0  0  0  0  0  0
   47.8610   30.8590   44.1520 C   0  0  0  0  0  0  0  0  0  0  0  0
   46.9210   29.9480   43.6710 C   0  0  0  0  0  0  0  0  0  0  0  0
   45.5430   30.9670   43.4240 S   0  0  0  0  0  0  0  0  0  0  0  0
   45.4708   36.8921   42.4249 H   0  0  0  0  0  0  0  0  0  0  0  0
   44.0373   35.7513   46.2471 H   0  0  0  0  0  0  0  0  0  0  0  0
   49.3127   35.0017   40.0391 H   0  0  0  0  0  0  0  0  0  0  0  0
   47.2584   33.6842   38.8416 H   0  0  0  0  0  0  0  0  0  0  0  0
   45.1876   33.5472   40.6196 H   0  0  0  0  0  0  0  0  0  0  0  0
   48.2503   32.8951   44.6740 H   0  0  0  0  0  0  0  0  0  0  0  0
   48.8742   30.5193   44.4128 H   0  0  0  0  0  0  0  0  0  0  0  0
   47.0270   28.8674   43.4950 H   0  0  0  0  0  0  0  0  0  0  0  0
  1  6  2  0
  2  1  1  0
  2  3  2  0
  3  4  1  0
  4  5  2  0
  6  5  1  0
  7  2  1  0
  8  7  1  0
  9  8  2  0
 10  9  1  0
 10 11  2  0
 11  7  1  0
 12  3  1  0
 12 13  2  0
 14 13  1  0
 15 14  2  0
 16 15  1  0
 16 12  1  0
  1 17  1  0
  5 18  1  0
  9 19  1  0
 10 20  1  0
 11 21  1  0
 13 22  1  0
 14 23  1  0
 15 24  1  0
M  ISO  8  17  14  18  14  19  14  20  14  21  14  22  14  23  14  24  14
M  END
>  <minimizedAffinity>  (1) 
-4.24899817

>  <minimizedRMSD>  (1) 
2.83058763

$$$$
