
     RDKit          3D

 30 32  0  0  0  0  0  0  0  0999 V2000
   43.9250   34.9970   42.0650 C   0  0  0  0  0  0  0  0  0  0  0  0
   42.9060   34.1990   41.5030 C   0  0  0  0  0  0  0  0  0  0  0  0
   42.8890   32.8220   41.6960 C   0  0  0  0  0  0  0  0  0  0  0  0
   43.8930   32.2830   42.4470 N   0  0  0  0  0  0  0  0  0  0  0  0
   44.8650   33.0590   42.9820 C   0  0  0  0  0  0  0  0  0  0  0  0
   44.8870   34.3990   42.7980 N   0  0  0  0  0  0  0  0  0  0  0  0
   41.9300   34.9080   40.7370 N   0  0  0  0  0  0  0  0  0  0  0  0
   42.0000   34.9260   39.4380 N   0  0  0  0  0  0  0  0  0  0  0  0
   40.9570   35.6700   38.9450 C   0  0  0  0  0  0  0  0  0  0  0  0
   40.2650   36.0880   40.1010 C   0  0  0  0  0  0  0  0  0  0  0  0
   40.8910   35.5980   41.2490 C   0  0  0  0  0  0  0  0  0  0  0  0
   41.8250   32.0010   41.1150 C   0  0  0  0  0  0  0  0  0  0  0  0
   42.2920   30.5680   41.1380 C   0  0  0  0  0  0  0  0  0  0  0  0
   41.7290   29.9140   42.3700 C   0  0  0  0  0  0  0  0  0  0  0  0
   40.5370   30.7210   42.7480 C   0  0  0  0  0  0  0  0  0  0  0  0
   40.6340   32.0510   42.0840 C   0  0  0  0  0  0  0  0  0  0  0  0
   43.9349   36.0858   41.9085 H   0  0  0  0  0  0  0  0  0  0  0  0
   45.6574   32.5876   43.5819 H   0  0  0  0  0  0  0  0  0  0  0  0
   40.7169   35.8890   37.8941 H   0  0  0  0  0  0  0  0  0  0  0  0
   39.3594   36.7123   40.0985 H   0  0  0  0  0  0  0  0  0  0  0  0
   40.6084   35.7390   42.3027 H   0  0  0  0  0  0  0  0  0  0  0  0
   41.5714   32.3480   40.1025 H   0  0  0  0  0  0  0  0  0  0  0  0
   41.9325   30.0440   40.2401 H   0  0  0  0  0  0  0  0  0  0  0  0
   43.3911   30.5250   41.1516 H   0  0  0  0  0  0  0  0  0  0  0  0
   41.4360   28.8762   42.1530 H   0  0  0  0  0  0  0  0  0  0  0  0
   42.4685   29.8782   43.1835 H   0  0  0  0  0  0  0  0  0  0  0  0
   39.6219   30.2077   42.4177 H   0  0  0  0  0  0  0  0  0  0  0  0
   40.4997   30.8478   43.8400 H   0  0  0  0  0  0  0  0  0  0  0  0
   40.7965   32.8355   42.8377 H   0  0  0  0  0  0  0  0  0  0  0  0
   39.7047   32.2808   41.5422 H   0  0  0  0  0  0  0  0  0  0  0  0
  1  6  2  0
  2  3  2  0
  2  1  1  0
  3  4  1  0
  4  5  2  0
  6  5  1  0
  7 11  1  0
  7  2  1  0
  8  7  1  0
  9  8  2  0
  9 10  1  0
 10 11  2  0
 12 13  1  0
 12  3  1  0
 12 16  1  0
 13 14  1  0
 14 15  1  0
 16 15  1  0
  1 17  1  0
  5 18  1  0
  9 19  1  0
 10 20  1  0
 11 21  1  0
 12 22  1  0
 13 23  1  0
 13 24  1  0
 14 25  1  0
 14 26  1  0
 15 27  1  0
 15 28  1  0
 16 29  1  0
 16 30  1  0
M  ISO  8  17  14  18  14  19  14  20  14  21  14  22  13  23  13  24  13
M  ISO  6  25  13  26  13  27  13  28  13  29  13  30  13
M  END
>  <minimizedAffinity>  (1) 
-3.82329893

>  <minimizedRMSD>  (1) 
2.88973141

$$$$
