
     RDKit          3D

 24 26  0  0  0  0  0  0  0  0999 V2000
   44.1650   35.7620   42.0750 C   0  0  0  0  0  0  0  0  0  0  0  0
   43.3100   34.7630   41.6000 C   0  0  0  0  0  0  0  0  0  0  0  0
   43.6390   33.4330   41.8090 C   0  0  0  0  0  0  0  0  0  0  0  0
   44.7990   33.1560   42.4790 N   0  0  0  0  0  0  0  0  0  0  0  0
   45.5990   34.1340   42.9230 C   0  0  0  0  0  0  0  0  0  0  0  0
   45.3010   35.4240   42.7320 N   0  0  0  0  0  0  0  0  0  0  0  0
   42.1520   35.2000   40.9280 N   0  0  0  0  0  0  0  0  0  0  0  0
   42.1120   35.2630   39.6290 N   0  0  0  0  0  0  0  0  0  0  0  0
   40.8780   35.7170   39.2420 C   0  0  0  0  0  0  0  0  0  0  0  0
   40.1710   35.9220   40.4260 C   0  0  0  0  0  0  0  0  0  0  0  0
   41.0010   35.5870   41.4890 C   0  0  0  0  0  0  0  0  0  0  0  0
   42.7570   32.4300   41.3190 N   0  0  0  0  0  0  0  0  0  0  0  0
   43.1460   31.8650   40.1400 C   0  0  0  0  0  0  0  0  0  0  0  0
   42.1680   30.9180   39.8230 C   0  0  0  0  0  0  0  0  0  0  0  0
   41.2340   30.9320   40.7920 N   0  0  0  0  0  0  0  0  0  0  0  0
   41.6090   31.8590   41.6930 C   0  0  0  0  0  0  0  0  0  0  0  0
   43.9158   36.8215   41.9156 H   0  0  0  0  0  0  0  0  0  0  0  0
   46.5234   33.8701   43.4576 H   0  0  0  0  0  0  0  0  0  0  0  0
   40.5211   35.8842   38.2150 H   0  0  0  0  0  0  0  0  0  0  0  0
   39.1359   36.2858   40.5050 H   0  0  0  0  0  0  0  0  0  0  0  0
   40.7626   35.6307   42.5620 H   0  0  0  0  0  0  0  0  0  0  0  0
   44.0470   32.1059   39.5567 H   0  0  0  0  0  0  0  0  0  0  0  0
   42.1626   30.2714   38.9331 H   0  0  0  0  0  0  0  0  0  0  0  0
   41.0501   32.1103   42.6065 H   0  0  0  0  0  0  0  0  0  0  0  0
  1  6  2  0
  2  3  2  0
  2  1  1  0
  3  4  1  0
  4  5  2  0
  6  5  1  0
  7 11  1  0
  7  2  1  0
  8  7  1  0
  9  8  2  0
  9 10  1  0
 10 11  2  0
 12 16  1  0
 12  3  1  0
 13 12  1  0
 14 13  2  0
 14 15  1  0
 15 16  2  0
  1 17  1  0
  5 18  1  0
  9 19  1  0
 10 20  1  0
 11 21  1  0
 13 22  1  0
 14 23  1  0
 16 24  1  0
M  ISO  8  17  14  18  14  19  14  20  14  21  14  22  14  23  14  24  14
M  END
>  <minimizedAffinity>  (1) 
-3.79535341

>  <minimizedRMSD>  (1) 
2.7690866

$$$$
