
     RDKit          3D

 40 43  0  0  0  0  0  0  0  0999 V2000
   44.1700   34.7120   40.5150 C   0  0  0  0  0  0  0  0  0  0  0  0
   45.0690   34.0650   41.3520 C   0  0  0  0  0  0  0  0  0  0  0  0
   44.5640   33.0250   42.1280 C   0  0  0  0  0  0  0  0  0  0  0  0
   43.2390   32.6990   42.0290 N   0  0  0  0  0  0  0  0  0  0  0  0
   42.4240   33.3590   41.2030 C   0  0  0  0  0  0  0  0  0  0  0  0
   42.8830   34.3550   40.4550 N   0  0  0  0  0  0  0  0  0  0  0  0
   45.4700   32.3420   43.0060 N   0  0  0  0  0  0  0  0  0  0  0  0
   45.6110   32.8330   44.2740 C   0  0  0  0  0  0  0  0  0  0  0  0
   46.4710   32.1850   45.1040 C   0  0  0  0  0  0  0  0  0  0  0  0
   47.1990   31.0570   44.7010 C   0  0  0  0  0  0  0  0  0  0  0  0
   47.9690   30.5190   45.5230 O   0  0  0  0  0  0  0  0  0  0  0  0
   47.0250   30.6070   43.4350 N   0  0  0  0  0  0  0  0  0  0  0  0
   46.1710   31.2550   42.6200 C   0  0  0  0  0  0  0  0  0  0  0  0
   46.0370   30.8110   41.4560 O   0  0  0  0  0  0  0  0  0  0  0  0
   46.6300   32.7180   46.4970 C   0  0  0  0  0  0  0  0  0  0  0  0
   46.3960   34.5010   41.3610 N   0  0  0  0  0  0  0  0  0  0  0  0
   46.8710   35.1640   42.3750 N   0  0  0  0  0  0  0  0  0  0  0  0
   48.1830   35.4630   42.1310 C   0  0  0  0  0  0  0  0  0  0  0  0
   48.4590   34.9230   40.8850 C   0  0  0  0  0  0  0  0  0  0  0  0
   47.3020   34.3100   40.4050 C   0  0  0  0  0  0  0  0  0  0  0  0
   47.2670   33.6390   39.1170 C   0  0  0  0  0  0  0  0  0  0  0  0
   48.1220   34.2000   38.1590 C   0  0  0  0  0  0  0  0  0  0  0  0
   48.2470   33.7290   36.8690 C   0  0  0  0  0  0  0  0  0  0  0  0
   47.4990   32.6410   36.4700 C   0  0  0  0  0  0  0  0  0  0  0  0
   46.6540   32.0790   37.4040 C   0  0  0  0  0  0  0  0  0  0  0  0
   46.5330   32.5550   38.6920 C   0  0  0  0  0  0  0  0  0  0  0  0
   44.5260   35.5402   39.8846 H   0  0  0  0  0  0  0  0  0  0  0  0
   41.3630   33.0751   41.1417 H   0  0  0  0  0  0  0  0  0  0  0  0
   45.0505   33.7179   44.6097 H   0  0  0  0  0  0  0  0  0  0  0  0
   47.5393   29.7798   43.1002 H   0  0  0  0  0  0  0  0  0  0  0  0
   46.3935   31.9253   47.2221 H   0  0  0  0  0  0  0  0  0  0  0  0
   47.6672   33.0530   46.6452 H   0  0  0  0  0  0  0  0  0  0  0  0
   45.9459   33.5665   46.6452 H   0  0  0  0  0  0  0  0  0  0  0  0
   48.8733   36.0154   42.7855 H   0  0  0  0  0  0  0  0  0  0  0  0
   49.4263   34.9699   40.3632 H   0  0  0  0  0  0  0  0  0  0  0  0
   48.7299   35.0681   38.4536 H   0  0  0  0  0  0  0  0  0  0  0  0
   48.9370   34.2166   36.1646 H   0  0  0  0  0  0  0  0  0  0  0  0
   47.5733   32.2382   35.4491 H   0  0  0  0  0  0  0  0  0  0  0  0
   46.0482   31.2102   37.1072 H   0  0  0  0  0  0  0  0  0  0  0  0
   45.8403   32.0617   39.3898 H   0  0  0  0  0  0  0  0  0  0  0  0
  1  2  2  0
  2 16  1  0
  2  3  1  0
  3  7  1  0
  4  3  2  0
  5  4  1  0
  6  1  1  0
  6  5  2  0
  7  8  1  0
  8  9  2  0
  9 15  1  0
 10  9  1  0
 10 11  2  0
 12 10  1  0
 13  7  1  0
 13 12  1  0
 14 13  2  0
 16 17  1  0
 18 17  2  0
 19 18  1  0
 20 19  2  0
 20 16  1  0
 21 20  1  0
 22 21  2  0
 23 22  1  0
 24 23  2  0
 24 25  1  0
 25 26  2  0
 26 21  1  0
  1 27  1  0
  5 28  1  0
  8 29  1  0
 12 30  1  0
 15 31  1  0
 15 32  1  0
 15 33  1  0
 18 34  1  0
 19 35  1  0
 22 36  1  0
 23 37  1  0
 24 38  1  0
 25 39  1  0
 26 40  1  0
M  ISO  8  27  14  28  14  29  14  30   9  31   8  32   8  33   8  34  14
M  ISO  6  35  14  36  14  37  14  38  14  39  14  40  14
M  END
>  <minimizedAffinity>  (1) 
-5.31391239

>  <minimizedRMSD>  (1) 
7.71214914

$$$$
