
     RDKit          3D

 37 40  0  0  0  0  0  0  0  0999 V2000
   43.4490   33.9800   38.3850 C   0  0  0  0  0  0  0  0  0  0  0  0
   42.7150   33.4390   39.4450 C   0  0  0  0  0  0  0  0  0  0  0  0
   42.9760   32.1150   39.7880 C   0  0  0  0  0  0  0  0  0  0  0  0
   43.9220   31.4130   39.0890 N   0  0  0  0  0  0  0  0  0  0  0  0
   44.5920   31.9810   38.0870 C   0  0  0  0  0  0  0  0  0  0  0  0
   44.3620   33.2500   37.7350 N   0  0  0  0  0  0  0  0  0  0  0  0
   42.2280   31.5500   40.8660 N   0  0  0  0  0  0  0  0  0  0  0  0
   40.9640   31.0990   40.6070 C   0  0  0  0  0  0  0  0  0  0  0  0
   40.2630   30.5630   41.6520 C   0  0  0  0  0  0  0  0  0  0  0  0
   40.7860   30.4640   42.9400 C   0  0  0  0  0  0  0  0  0  0  0  0
   40.0830   29.9620   43.8410 O   0  0  0  0  0  0  0  0  0  0  0  0
   42.0460   30.9250   43.1480 N   0  0  0  0  0  0  0  0  0  0  0  0
   42.7230   31.4490   42.1190 C   0  0  0  0  0  0  0  0  0  0  0  0
   43.8770   31.8570   42.3640 O   0  0  0  0  0  0  0  0  0  0  0  0
   38.8730   30.0720   41.3530 C   0  0  0  0  0  0  0  0  0  0  0  0
   41.7780   34.2640   40.0720 N   0  0  0  0  0  0  0  0  0  0  0  0
   40.5600   34.3640   39.6110 N   0  0  0  0  0  0  0  0  0  0  0  0
   39.8510   35.2210   40.3920 C   0  0  0  0  0  0  0  0  0  0  0  0
   40.7380   35.6380   41.3700 C   0  0  0  0  0  0  0  0  0  0  0  0
   41.9820   35.0120   41.1500 C   0  0  0  0  0  0  0  0  0  0  0  0
   43.1610   35.2220   41.9750 C   0  0  0  0  0  0  0  0  0  0  0  0
   44.4670   35.1680   41.5330 C   0  0  0  0  0  0  0  0  0  0  0  0
   45.3260   35.4050   42.5340 N   0  0  0  0  0  0  0  0  0  0  0  0
   44.5980   35.6190   43.6430 C   0  0  0  0  0  0  0  0  0  0  0  0
   43.3120   35.5030   43.2790 N   0  0  0  0  0  0  0  0  0  0  0  0
   43.2728   35.0223   38.0809 H   0  0  0  0  0  0  0  0  0  0  0  0
   45.3466   31.3962   37.5406 H   0  0  0  0  0  0  0  0  0  0  0  0
   40.5282   31.1645   39.5991 H   0  0  0  0  0  0  0  0  0  0  0  0
   42.4744   30.8723   44.0832 H   0  0  0  0  0  0  0  0  0  0  0  0
   38.3398   29.8837   42.2965 H   0  0  0  0  0  0  0  0  0  0  0  0
   38.3322   30.8335   40.7719 H   0  0  0  0  0  0  0  0  0  0  0  0
   38.9305   29.1398   40.7719 H   0  0  0  0  0  0  0  0  0  0  0  0
   38.7989   35.5192   40.2728 H   0  0  0  0  0  0  0  0  0  0  0  0
   40.5098   36.3415   42.1842 H   0  0  0  0  0  0  0  0  0  0  0  0
   44.7642   34.9579   40.4949 H   0  0  0  0  0  0  0  0  0  0  0  0
   44.9805   35.8445   44.6494 H   0  0  0  0  0  0  0  0  0  0  0  0
   42.5233   35.6175   43.9315 H   0  0  0  0  0  0  0  0  0  0  0  0
  1  2  2  0
  2  3  1  0
  2 16  1  0
  3  7  1  0
  4  3  2  0
  5  4  1  0
  6  5  2  0
  6  1  1  0
  7 13  1  0
  8  7  1  0
  8  9  2  0
  9 10  1  0
 10 12  1  0
 10 11  2  0
 13 14  2  0
 13 12  1  0
 15  9  1  0
 16 20  1  0
 17 16  1  0
 17 18  2  0
 18 19  1  0
 20 19  2  0
 20 21  1  0
 21 25  1  0
 22 21  2  0
 22 23  1  0
 23 24  2  0
 25 24  1  0
  1 26  1  0
  5 27  1  0
  8 28  1  0
 12 29  1  0
 15 30  1  0
 15 31  1  0
 15 32  1  0
 18 33  1  0
 19 34  1  0
 22 35  1  0
 24 36  1  0
 25 37  1  0
M  ISO  8  26  14  27  14  28  14  29   9  30   8  31   8  32   8  33  14
M  ISO  4  34  14  35  14  36  14  37   9
M  END
>  <minimizedAffinity>  (1) 
-5.66498041

>  <minimizedRMSD>  (1) 
3.50844836

$$$$
