
     RDKit          3D

 37 40  0  0  0  0  0  0  0  0999 V2000
   42.9960   35.5970   41.3590 C   0  0  0  0  0  0  0  0  0  0  0  0
   42.9460   34.7570   40.2500 C   0  0  0  0  0  0  0  0  0  0  0  0
   43.8070   33.6620   40.2420 C   0  0  0  0  0  0  0  0  0  0  0  0
   44.6450   33.4710   41.3080 N   0  0  0  0  0  0  0  0  0  0  0  0
   44.6570   34.3010   42.3430 C   0  0  0  0  0  0  0  0  0  0  0  0
   43.8390   35.3560   42.3710 N   0  0  0  0  0  0  0  0  0  0  0  0
   43.7690   32.7940   39.1160 N   0  0  0  0  0  0  0  0  0  0  0  0
   44.5950   33.0660   38.0620 C   0  0  0  0  0  0  0  0  0  0  0  0
   44.5360   32.2150   36.9860 C   0  0  0  0  0  0  0  0  0  0  0  0
   43.6910   31.1220   36.9390 C   0  0  0  0  0  0  0  0  0  0  0  0
   43.6960   30.3920   35.9190 O   0  0  0  0  0  0  0  0  0  0  0  0
   42.8840   30.8820   38.0060 N   0  0  0  0  0  0  0  0  0  0  0  0
   42.9490   31.7230   39.0570 C   0  0  0  0  0  0  0  0  0  0  0  0
   42.1890   31.4590   40.0120 O   0  0  0  0  0  0  0  0  0  0  0  0
   45.4520   32.5270   35.8330 C   0  0  0  0  0  0  0  0  0  0  0  0
   42.0410   35.0740   39.2330 N   0  0  0  0  0  0  0  0  0  0  0  0
   42.4000   35.8240   38.2180 N   0  0  0  0  0  0  0  0  0  0  0  0
   41.3470   35.9760   37.3740 C   0  0  0  0  0  0  0  0  0  0  0  0
   40.3130   35.2610   37.9540 C   0  0  0  0  0  0  0  0  0  0  0  0
   40.7720   34.6840   39.1530 C   0  0  0  0  0  0  0  0  0  0  0  0
   39.9690   33.8750   40.0510 C   0  0  0  0  0  0  0  0  0  0  0  0
   39.0000   32.9610   39.6370 C   0  0  0  0  0  0  0  0  0  0  0  0
   38.4130   32.3530   40.7100 C   0  0  0  0  0  0  0  0  0  0  0  0
   39.0140   32.8890   41.7860 N   0  0  0  0  0  0  0  0  0  0  0  0
   39.9070   33.7640   41.3680 N   0  0  0  0  0  0  0  0  0  0  0  0
   42.3322   36.4729   41.4047 H   0  0  0  0  0  0  0  0  0  0  0  0
   45.3443   34.1191   43.1823 H   0  0  0  0  0  0  0  0  0  0  0  0
   45.2772   33.9288   38.0749 H   0  0  0  0  0  0  0  0  0  0  0  0
   42.2397   30.0784   38.0112 H   0  0  0  0  0  0  0  0  0  0  0  0
   46.4271   32.8591   36.2189 H   0  0  0  0  0  0  0  0  0  0  0  0
   45.5887   31.6248   35.2188 H   0  0  0  0  0  0  0  0  0  0  0  0
   45.0096   33.3251   35.2188 H   0  0  0  0  0  0  0  0  0  0  0  0
   41.3212   36.5445   36.4327 H   0  0  0  0  0  0  0  0  0  0  0  0
   39.2972   35.1602   37.5442 H   0  0  0  0  0  0  0  0  0  0  0  0
   38.7430   32.7572   38.5870 H   0  0  0  0  0  0  0  0  0  0  0  0
   37.6205   31.5903   40.6964 H   0  0  0  0  0  0  0  0  0  0  0  0
   38.8116   32.6561   42.7687 H   0  0  0  0  0  0  0  0  0  0  0  0
  1  6  2  0
  2  1  1  0
  3  2  2  0
  3  4  1  0
  4  5  2  0
  5  6  1  0
  7  3  1  0
  8  7  1  0
  9  8  2  0
 10  9  1  0
 10 12  1  0
 11 10  2  0
 12 13  1  0
 13  7  1  0
 13 14  2  0
 15  9  1  0
 16  2  1  0
 17 16  1  0
 18 19  1  0
 18 17  2  0
 19 20  2  0
 20 16  1  0
 20 21  1  0
 21 25  2  0
 22 21  1  0
 22 23  2  0
 23 24  1  0
 25 24  1  0
  1 26  1  0
  5 27  1  0
  8 28  1  0
 12 29  1  0
 15 30  1  0
 15 31  1  0
 15 32  1  0
 18 33  1  0
 19 34  1  0
 22 35  1  0
 23 36  1  0
 24 37  1  0
M  ISO  8  26  14  27  14  28  14  29   9  30   8  31   8  32   8  33  14
M  ISO  4  34  14  35  14  36  14  37   9
M  END
>  <minimizedAffinity>  (1) 
-5.21852112

>  <minimizedRMSD>  (1) 
3.57180309

$$$$
