
     RDKit          3D

 33 35  0  0  0  0  0  0  0  0999 V2000
   43.2130   35.3920   41.7410 C   0  0  0  0  0  0  0  0  0  0  0  0
   42.7090   34.3430   40.9740 C   0  0  0  0  0  0  0  0  0  0  0  0
   43.2010   33.0660   41.2130 C   0  0  0  0  0  0  0  0  0  0  0  0
   44.1580   32.9000   42.1910 N   0  0  0  0  0  0  0  0  0  0  0  0
   44.6070   33.9330   42.8970 C   0  0  0  0  0  0  0  0  0  0  0  0
   44.1460   35.1600   42.6800 N   0  0  0  0  0  0  0  0  0  0  0  0
   42.6890   31.9900   40.4300 N   0  0  0  0  0  0  0  0  0  0  0  0
   43.1250   31.8710   39.1410 C   0  0  0  0  0  0  0  0  0  0  0  0
   42.6250   30.8350   38.4040 C   0  0  0  0  0  0  0  0  0  0  0  0
   41.7050   29.9220   38.9210 C   0  0  0  0  0  0  0  0  0  0  0  0
   41.2890   28.9960   38.1860 O   0  0  0  0  0  0  0  0  0  0  0  0
   41.3020   30.0830   40.2070 N   0  0  0  0  0  0  0  0  0  0  0  0
   41.7980   31.0980   40.9160 C   0  0  0  0  0  0  0  0  0  0  0  0
   41.3970   31.2050   42.0940 O   0  0  0  0  0  0  0  0  0  0  0  0
   43.1060   30.7060   36.9890 C   0  0  0  0  0  0  0  0  0  0  0  0
   41.7430   34.6570   40.0140 N   0  0  0  0  0  0  0  0  0  0  0  0
   42.0680   35.2440   38.8860 N   0  0  0  0  0  0  0  0  0  0  0  0
   40.9460   35.4320   38.1350 C   0  0  0  0  0  0  0  0  0  0  0  0
   39.9130   34.9130   38.8980 C   0  0  0  0  0  0  0  0  0  0  0  0
   40.4370   34.4230   40.0920 C   0  0  0  0  0  0  0  0  0  0  0  0
   39.6350   33.8310   41.1310 C   0  0  0  0  0  0  0  0  0  0  0  0
   38.6400   33.1000   40.9840 O   0  0  0  0  0  0  0  0  0  0  0  0
   39.9000   34.0230   42.4740 O   0  0  0  0  0  0  0  0  0  0  0  0
   42.8450   36.4155   41.5768 H   0  0  0  0  0  0  0  0  0  0  0  0
   45.3708   33.7696   43.6716 H   0  0  0  0  0  0  0  0  0  0  0  0
   43.8491   32.5803   38.7138 H   0  0  0  0  0  0  0  0  0  0  0  0
   40.6242   29.4320   40.6285 H   0  0  0  0  0  0  0  0  0  0  0  0
   44.1685   30.4211   36.9874 H   0  0  0  0  0  0  0  0  0  0  0  0
   42.5185   29.9337   36.4710 H   0  0  0  0  0  0  0  0  0  0  0  0
   42.9838   31.6687   36.4710 H   0  0  0  0  0  0  0  0  0  0  0  0
   40.8762   35.8951   37.1397 H   0  0  0  0  0  0  0  0  0  0  0  0
   38.8520   34.8913   38.6083 H   0  0  0  0  0  0  0  0  0  0  0  0
   39.3240   33.5980   43.1579 H   0  0  0  0  0  0  0  0  0  0  0  0
  1  6  2  0
  2  3  2  0
  2  1  1  0
  3  4  1  0
  4  5  2  0
  6  5  1  0
  7 13  1  0
  7  3  1  0
  8  7  1  0
  9 10  1  0
  9  8  2  0
 10 12  1  0
 11 10  2  0
 12 13  1  0
 13 14  2  0
 15  9  1  0
 16 20  1  0
 16  2  1  0
 17 16  1  0
 18 17  2  0
 18 19  1  0
 19 20  2  0
 20 21  1  0
 21 23  1  0
 22 21  2  0
  1 24  1  0
  5 25  1  0
  8 26  1  0
 12 27  1  0
 15 28  1  0
 15 29  1  0
 15 30  1  0
 18 31  1  0
 19 32  1  0
 23 33  1  0
M  ISO  8  24  14  25  14  26  14  27   9  28   8  29   8  30   8  31  14
M  ISO  2  32  14  33   3
M  END
>  <minimizedAffinity>  (1) 
-4.90116787

>  <minimizedRMSD>  (1) 
2.0201838

$$$$
