
     RDKit          3D

 37 40  0  0  0  0  0  0  0  0999 V2000
   42.8600   35.4750   41.4580 C   0  0  0  0  0  0  0  0  0  0  0  0
   42.8860   34.6190   40.3520 C   0  0  0  0  0  0  0  0  0  0  0  0
   43.8360   33.6020   40.3510 C   0  0  0  0  0  0  0  0  0  0  0  0
   44.6880   33.4870   41.4130 N   0  0  0  0  0  0  0  0  0  0  0  0
   44.6260   34.3260   42.4460 C   0  0  0  0  0  0  0  0  0  0  0  0
   43.7180   35.3130   42.4690 N   0  0  0  0  0  0  0  0  0  0  0  0
   43.8680   32.7290   39.2260 N   0  0  0  0  0  0  0  0  0  0  0  0
   44.6110   33.1030   38.1430 C   0  0  0  0  0  0  0  0  0  0  0  0
   44.6240   32.2450   37.0700 C   0  0  0  0  0  0  0  0  0  0  0  0
   43.9240   31.0400   37.0510 C   0  0  0  0  0  0  0  0  0  0  0  0
   43.9940   30.3290   36.0380 O   0  0  0  0  0  0  0  0  0  0  0  0
   43.2020   30.7150   38.1490 N   0  0  0  0  0  0  0  0  0  0  0  0
   43.1930   31.5590   39.1970 C   0  0  0  0  0  0  0  0  0  0  0  0
   42.5120   31.2110   40.1820 O   0  0  0  0  0  0  0  0  0  0  0  0
   45.4430   32.6590   35.8810 C   0  0  0  0  0  0  0  0  0  0  0  0
   41.9550   34.8550   39.3370 N   0  0  0  0  0  0  0  0  0  0  0  0
   42.2390   35.6540   38.3330 N   0  0  0  0  0  0  0  0  0  0  0  0
   41.1790   35.7150   37.4870 C   0  0  0  0  0  0  0  0  0  0  0  0
   40.2230   34.8890   38.0530 C   0  0  0  0  0  0  0  0  0  0  0  0
   40.7320   34.3420   39.2430 C   0  0  0  0  0  0  0  0  0  0  0  0
   40.0190   33.4320   40.1310 C   0  0  0  0  0  0  0  0  0  0  0  0
   38.8370   32.7920   39.8230 C   0  0  0  0  0  0  0  0  0  0  0  0
   38.4070   31.9960   40.8640 C   0  0  0  0  0  0  0  0  0  0  0  0
   39.3950   32.1970   41.8070 C   0  0  0  0  0  0  0  0  0  0  0  0
   40.2780   33.0200   41.3290 O   0  0  0  0  0  0  0  0  0  0  0  0
   42.1240   36.2916   41.4957 H   0  0  0  0  0  0  0  0  0  0  0  0
   45.3252   34.2084   43.2870 H   0  0  0  0  0  0  0  0  0  0  0  0
   45.1735   34.0482   38.1303 H   0  0  0  0  0  0  0  0  0  0  0  0
   42.6677   29.8351   38.1818 H   0  0  0  0  0  0  0  0  0  0  0  0
   46.3756   33.1304   36.2244 H   0  0  0  0  0  0  0  0  0  0  0  0
   45.6818   31.7733   35.2739 H   0  0  0  0  0  0  0  0  0  0  0  0
   44.8714   33.3764   35.2739 H   0  0  0  0  0  0  0  0  0  0  0  0
   41.0975   36.2942   36.5554 H   0  0  0  0  0  0  0  0  0  0  0  0
   39.2238   34.6922   37.6372 H   0  0  0  0  0  0  0  0  0  0  0  0
   38.3040   32.9025   38.8671 H   0  0  0  0  0  0  0  0  0  0  0  0
   37.5088   31.3641   40.9267 H   0  0  0  0  0  0  0  0  0  0  0  0
   39.4287   31.7338   42.8042 H   0  0  0  0  0  0  0  0  0  0  0  0
  1  6  2  0
  2  1  1  0
  3  2  2  0
  3  4  1  0
  4  5  2  0
  5  6  1  0
  7  3  1  0
  8  7  1  0
  9  8  2  0
 10  9  1  0
 10 12  1  0
 11 10  2  0
 12 13  1  0
 13  7  1  0
 13 14  2  0
 15  9  1  0
 16  2  1  0
 17 16  1  0
 18 19  1  0
 18 17  2  0
 19 20  2  0
 20 16  1  0
 20 21  1  0
 21 25  1  0
 22 21  2  0
 22 23  1  0
 23 24  2  0
 25 24  1  0
  1 26  1  0
  5 27  1  0
  8 28  1  0
 12 29  1  0
 15 30  1  0
 15 31  1  0
 15 32  1  0
 18 33  1  0
 19 34  1  0
 22 35  1  0
 23 36  1  0
 24 37  1  0
M  ISO  8  26  14  27  14  28  14  29   9  30   8  31   8  32   8  33  14
M  ISO  4  34  14  35  14  36  14  37  14
M  END
>  <minimizedAffinity>  (1) 
-5.01322365

>  <minimizedRMSD>  (1) 
3.66283059

$$$$
