
     RDKit          3D

 39 42  0  0  0  0  0  0  0  0999 V2000
   42.7610   35.5330   41.2830 C   0  0  0  0  0  0  0  0  0  0  0  0
   42.7960   34.7040   40.1550 C   0  0  0  0  0  0  0  0  0  0  0  0
   43.6420   33.5990   40.1990 C   0  0  0  0  0  0  0  0  0  0  0  0
   44.3920   33.3710   41.3260 N   0  0  0  0  0  0  0  0  0  0  0  0
   44.3180   34.1970   42.3750 C   0  0  0  0  0  0  0  0  0  0  0  0
   43.5200   35.2550   42.3570 N   0  0  0  0  0  0  0  0  0  0  0  0
   43.6870   32.7490   39.0570 N   0  0  0  0  0  0  0  0  0  0  0  0
   44.4940   33.1120   38.0150 C   0  0  0  0  0  0  0  0  0  0  0  0
   44.5190   32.2870   36.9240 C   0  0  0  0  0  0  0  0  0  0  0  0
   43.7680   31.1200   36.8470 C   0  0  0  0  0  0  0  0  0  0  0  0
   43.8520   30.4270   35.8170 O   0  0  0  0  0  0  0  0  0  0  0  0
   42.9780   30.7920   37.9030 N   0  0  0  0  0  0  0  0  0  0  0  0
   42.9620   31.6130   38.9690 C   0  0  0  0  0  0  0  0  0  0  0  0
   42.2240   31.2710   39.9130 O   0  0  0  0  0  0  0  0  0  0  0  0
   45.4130   32.6910   35.7860 C   0  0  0  0  0  0  0  0  0  0  0  0
   41.9840   35.0540   39.0730 N   0  0  0  0  0  0  0  0  0  0  0  0
   42.3690   35.9570   38.2070 N   0  0  0  0  0  0  0  0  0  0  0  0
   41.4070   36.1060   37.2580 C   0  0  0  0  0  0  0  0  0  0  0  0
   40.4040   35.2210   37.6120 C   0  0  0  0  0  0  0  0  0  0  0  0
   40.7890   34.5480   38.7890 C   0  0  0  0  0  0  0  0  0  0  0  0
   39.9690   33.5660   39.4580 C   0  0  0  0  0  0  0  0  0  0  0  0
   39.7970   33.6170   40.8270 C   0  0  0  0  0  0  0  0  0  0  0  0
   39.0430   32.7450   41.5780 C   0  0  0  0  0  0  0  0  0  0  0  0
   38.3880   31.7180   40.9350 C   0  0  0  0  0  0  0  0  0  0  0  0
   38.5640   31.6740   39.5690 C   0  0  0  0  0  0  0  0  0  0  0  0
   39.3100   32.5560   38.9100 N   0  0  0  0  0  0  0  0  0  0  0  0
   42.1078   36.4180   41.2903 H   0  0  0  0  0  0  0  0  0  0  0  0
   44.9292   33.9951   43.2670 H   0  0  0  0  0  0  0  0  0  0  0  0
   45.0987   34.0301   38.0523 H   0  0  0  0  0  0  0  0  0  0  0  0
   42.4055   29.9359   37.8878 H   0  0  0  0  0  0  0  0  0  0  0  0
   46.3470   33.1131   36.1855 H   0  0  0  0  0  0  0  0  0  0  0  0
   45.6431   31.8094   35.1697 H   0  0  0  0  0  0  0  0  0  0  0  0
   44.9034   33.4463   35.1697 H   0  0  0  0  0  0  0  0  0  0  0  0
   41.4227   36.7854   36.3930 H   0  0  0  0  0  0  0  0  0  0  0  0
   39.4619   35.0680   37.0652 H   0  0  0  0  0  0  0  0  0  0  0  0
   40.3090   34.4279   41.3658 H   0  0  0  0  0  0  0  0  0  0  0  0
   38.9649   32.8654   42.6686 H   0  0  0  0  0  0  0  0  0  0  0  0
   37.7688   30.9854   41.4734 H   0  0  0  0  0  0  0  0  0  0  0  0
   38.0663   30.8754   38.9994 H   0  0  0  0  0  0  0  0  0  0  0  0
  1  6  2  0
  2  3  2  0
  2  1  1  0
  3  4  1  0
  4  5  2  0
  6  5  1  0
  7  3  1  0
  8  7  1  0
  9  8  2  0
 10  9  1  0
 10 12  1  0
 11 10  2  0
 12 13  1  0
 13  7  1  0
 13 14  2  0
 15  9  1  0
 16  2  1  0
 17 16  1  0
 18 19  1  0
 18 17  2  0
 19 20  2  0
 20 16  1  0
 20 21  1  0
 21 22  2  0
 22 23  1  0
 24 23  2  0
 25 24  1  0
 26 21  1  0
 26 25  2  0
  1 27  1  0
  5 28  1  0
  8 29  1  0
 12 30  1  0
 15 31  1  0
 15 32  1  0
 15 33  1  0
 18 34  1  0
 19 35  1  0
 22 36  1  0
 23 37  1  0
 24 38  1  0
 25 39  1  0
M  ISO  8  27  14  28  14  29  14  30   9  31   8  32   8  33   8  34  14
M  ISO  5  35  14  36  14  37  14  38  14  39  14
M  END
>  <minimizedAffinity>  (1) 
-4.87740278

>  <minimizedRMSD>  (1) 
3.93811107

$$$$
