
     RDKit          3D

 37 39  0  0  0  0  0  0  0  0999 V2000
   44.3020   33.5930   39.1670 C   0  0  0  0  0  0  0  0  0  0  0  0
   43.0360   33.2300   39.6180 C   0  0  0  0  0  0  0  0  0  0  0  0
   42.7430   31.8830   39.7420 C   0  0  0  0  0  0  0  0  0  0  0  0
   43.7140   30.9700   39.4170 N   0  0  0  0  0  0  0  0  0  0  0  0
   44.9150   31.3570   38.9890 C   0  0  0  0  0  0  0  0  0  0  0  0
   45.2100   32.6490   38.8650 N   0  0  0  0  0  0  0  0  0  0  0  0
   41.4520   31.5190   40.2020 N   0  0  0  0  0  0  0  0  0  0  0  0
   40.4730   31.3150   39.2860 C   0  0  0  0  0  0  0  0  0  0  0  0
   39.2330   30.9630   39.7560 C   0  0  0  0  0  0  0  0  0  0  0  0
   38.9600   30.8150   41.1070 C   0  0  0  0  0  0  0  0  0  0  0  0
   37.8040   30.4920   41.4610 O   0  0  0  0  0  0  0  0  0  0  0  0
   39.9620   31.0270   41.9920 N   0  0  0  0  0  0  0  0  0  0  0  0
   41.1710   31.3700   41.5230 C   0  0  0  0  0  0  0  0  0  0  0  0
   42.0710   31.5560   42.3840 O   0  0  0  0  0  0  0  0  0  0  0  0
   38.1540   30.7400   38.7290 C   0  0  0  0  0  0  0  0  0  0  0  0
   42.1360   34.2850   39.9160 N   0  0  0  0  0  0  0  0  0  0  0  0
   41.3350   34.7570   39.0100 N   0  0  0  0  0  0  0  0  0  0  0  0
   40.5840   35.7500   39.5440 C   0  0  0  0  0  0  0  0  0  0  0  0
   41.0150   35.8330   40.8770 C   0  0  0  0  0  0  0  0  0  0  0  0
   42.0080   34.8950   41.1170 C   0  0  0  0  0  0  0  0  0  0  0  0
   42.7150   34.6300   42.3000 N   0  0  0  0  0  0  0  0  0  0  0  0
   43.6300   35.5690   42.8610 C   0  0  0  0  0  0  0  0  0  0  0  0
   44.3170   36.3000   42.0180 N   0  0  0  0  0  0  0  0  0  0  0  0
   43.7440   35.6570   44.2960 N   0  0  0  0  0  0  0  0  0  0  0  0
   44.9830   36.9810   42.4900 H   0  0  0  0  0  0  0  0  0  0  0  0
   44.5603   34.6566   39.0573 H   0  0  0  0  0  0  0  0  0  0  0  0
   45.6716   30.5999   38.7352 H   0  0  0  0  0  0  0  0  0  0  0  0
   40.6655   31.4273   38.2088 H   0  0  0  0  0  0  0  0  0  0  0  0
   39.7995   30.9271   43.0042 H   0  0  0  0  0  0  0  0  0  0  0  0
   37.1988   30.5426   39.2376 H   0  0  0  0  0  0  0  0  0  0  0  0
   38.0558   31.6368   38.0997 H   0  0  0  0  0  0  0  0  0  0  0  0
   38.4194   29.8777   38.0997 H   0  0  0  0  0  0  0  0  0  0  0  0
   39.8115   36.3542   39.0458 H   0  0  0  0  0  0  0  0  0  0  0  0
   40.6223   36.5394   41.6231 H   0  0  0  0  0  0  0  0  0  0  0  0
   42.5685   33.7294   42.7778 H   0  0  0  0  0  0  0  0  0  0  0  0
   44.3992   36.3289   44.7203 H   0  0  0  0  0  0  0  0  0  0  0  0
   43.1702   35.0479   44.8965 H   0  0  0  0  0  0  0  0  0  0  0  0
  1  2  2  0
  2  3  1  0
  2 16  1  0
  3  7  1  0
  4  3  2  0
  5  4  1  0
  6  5  2  0
  6  1  1  0
  7 13  1  0
  8  9  2  0
  8  7  1  0
  9 10  1  0
 10 11  2  0
 10 12  1  0
 13 12  1  0
 13 14  2  0
 15  9  1  0
 16 20  1  0
 17 18  2  0
 17 16  1  0
 18 19  1  0
 19 20  2  0
 20 21  1  0
 21 22  1  0
 22 24  1  0
 23 25  1  0
 23 22  2  0
  1 26  1  0
  5 27  1  0
  8 28  1  0
 12 29  1  0
 15 30  1  0
 15 31  1  0
 15 32  1  0
 18 33  1  0
 19 34  1  0
 21 35  1  0
 24 36  1  0
 24 37  1  0
M  ISO  8  26  14  27  14  28  14  29   9  30   8  31   8  32   8  33  14
M  ISO  1  34  14
M  END
>  <minimizedAffinity>  (1) 
-5.10480738

>  <minimizedRMSD>  (1) 
2.20120835

$$$$
