
     RDKit          3D

 47 50  0  0  1  0  0  0  0  0999 V2000
   47.1890   32.0570   41.3250 C   0  0  0  0  0  0  0  0  0  0  0  0
   48.0230   32.9830   40.6350 C   0  0  0  0  0  0  0  0  0  0  0  0
   47.5110   34.2780   40.5040 C   0  0  0  0  0  0  0  0  0  0  0  0
   46.2940   34.5700   41.0220 N   0  0  0  0  0  0  0  0  0  0  0  0
   45.5460   33.6440   41.6700 C   0  0  0  0  0  0  0  0  0  0  0  0
   45.9630   32.3950   41.8330 N   0  0  0  0  0  0  0  0  0  0  0  0
   49.2610   32.4290   40.1890 C   0  0  0  0  0  0  0  0  0  0  0  0
   50.1900   32.3270   41.1740 N   0  0  0  0  0  0  0  0  0  0  0  0
   51.4260   31.8250   40.9420 C   0  0  0  0  0  0  0  0  0  0  0  0
   51.8010   31.3960   39.7130 N   0  0  0  0  0  0  0  0  0  0  0  0
   50.9060   31.4800   38.7000 C   0  0  0  0  0  0  0  0  0  0  0  0
   51.1510   31.0810   37.3970 C   0  0  0  0  0  0  0  0  0  0  0  0
   50.2270   31.1790   36.4040 C   0  0  0  0  0  0  0  0  0  0  0  0
   48.9810   31.6990   36.6910 C   0  0  0  0  0  0  0  0  0  0  0  0
   48.6820   32.1100   37.9660 C   0  0  0  0  0  0  0  0  0  0  0  0
   49.6530   31.9910   38.9420 C   0  0  0  0  0  0  0  0  0  0  0  0
   44.2440   34.0500   42.2050 C   0  0  1  0  0  0  0  0  0  0  0  0
   44.3050   35.4930   42.7810 C   0  0  0  0  0  0  0  0  0  0  0  0
   43.1190   34.0020   41.2270 C   0  0  0  0  0  0  0  0  0  0  0  0
   42.2800   35.0600   41.5120 O   0  0  0  0  0  0  0  0  0  0  0  0
   41.4740   35.5600   40.5640 C   0  0  0  0  0  0  0  0  0  0  0  0
   42.0650   35.1450   39.2280 C   0  0  0  0  0  0  0  0  0  0  0  0
   40.8960   35.3590   38.2900 C   0  0  0  0  0  0  0  0  0  0  0  0
   39.7690   34.7120   39.0740 C   0  0  0  0  0  0  0  0  0  0  0  0
   40.0710   35.1640   40.4880 C   0  0  0  0  0  0  0  0  0  0  0  0
   47.5456   31.0246   41.4556 H   0  0  0  0  0  0  0  0  0  0  0  0
   48.0924   35.0537   39.9841 H   0  0  0  0  0  0  0  0  0  0  0  0
   52.1441   31.7640   41.7730 H   0  0  0  0  0  0  0  0  0  0  0  0
   52.1398   30.6651   37.1535 H   0  0  0  0  0  0  0  0  0  0  0  0
   50.4698   30.8476   35.3836 H   0  0  0  0  0  0  0  0  0  0  0  0
   48.2257   31.7842   35.8958 H   0  0  0  0  0  0  0  0  0  0  0  0
   47.6917   32.5248   38.2055 H   0  0  0  0  0  0  0  0  0  0  0  0
   44.0351   33.3057   42.9875 H   0  0  0  0  0  0  0  0  0  0  0  0
   44.3032   35.4494   43.8801 H   0  0  0  0  0  0  0  0  0  0  0  0
   45.2248   35.9873   42.4352 H   0  0  0  0  0  0  0  0  0  0  0  0
   43.4302   36.0631   42.4352 H   0  0  0  0  0  0  0  0  0  0  0  0
   42.5737   33.0519   41.3273 H   0  0  0  0  0  0  0  0  0  0  0  0
   43.4967   34.0721   40.1963 H   0  0  0  0  0  0  0  0  0  0  0  0
   41.4401   36.6279   40.8257 H   0  0  0  0  0  0  0  0  0  0  0  0
   42.9197   35.7808   38.9537 H   0  0  0  0  0  0  0  0  0  0  0  0
   42.4621   34.1192   39.2168 H   0  0  0  0  0  0  0  0  0  0  0  0
   41.0562   34.8566   37.3247 H   0  0  0  0  0  0  0  0  0  0  0  0
   40.7161   36.4112   38.0245 H   0  0  0  0  0  0  0  0  0  0  0  0
   38.7872   35.0774   38.7384 H   0  0  0  0  0  0  0  0  0  0  0  0
   39.7179   33.6193   38.9584 H   0  0  0  0  0  0  0  0  0  0  0  0
   39.4304   36.0197   40.7477 H   0  0  0  0  0  0  0  0  0  0  0  0
   39.8749   34.3431   41.1935 H   0  0  0  0  0  0  0  0  0  0  0  0
  1  6  2  0
  2  1  1  0
  3  2  2  0
  3  4  1  0
  4  5  2  0
  5  6  1  0
  5 17  1  0
  7  2  1  0
  7  8  2  0
  9  8  1  0
 10  9  2  0
 11 16  2  0
 11 10  1  0
 12 11  1  0
 13 14  1  0
 13 12  2  0
 14 15  2  0
 15 16  1  0
 16  7  1  0
 17 18  1  0
 19 20  1  0
 19 17  1  0
 21 20  1  0
 22 21  1  0
 23 24  1  0
 23 22  1  0
 24 25  1  0
 25 21  1  0
  1 26  1  0
  3 27  1  0
  9 28  1  0
 12 29  1  0
 13 30  1  0
 14 31  1  0
 15 32  1  0
 17 33  1  1
 18 34  1  0
 18 35  1  0
 18 36  1  0
 19 37  1  0
 19 38  1  0
 21 39  1  0
 22 40  1  0
 22 41  1  0
 23 42  1  0
 23 43  1  0
 24 44  1  0
 24 45  1  0
 25 46  1  0
 25 47  1  0
M  ISO  8  26  14  27  14  28  14  29  14  30  14  31  14  32  14  33   8
M  ISO  8  34   8  35   8  36   8  37   8  38   8  39  13  40  13  41  13
M  ISO  6  42  13  43  13  44  13  45  13  46  13  47  13
M  END
>  <minimizedAffinity>  (1) 
-5.13185883

>  <minimizedRMSD>  (1) 
8.04259014

$$$$
