
     RDKit          3D

 37 40  0  0  0  0  0  0  0  0999 V2000
   42.6990   35.5240   41.3480 C   0  0  0  0  0  0  0  0  0  0  0  0
   42.7460   34.6820   40.2330 C   0  0  0  0  0  0  0  0  0  0  0  0
   43.6320   33.6170   40.2490 C   0  0  0  0  0  0  0  0  0  0  0  0
   44.4220   33.4390   41.3570 N   0  0  0  0  0  0  0  0  0  0  0  0
   44.3400   34.2710   42.3990 C   0  0  0  0  0  0  0  0  0  0  0  0
   43.4980   35.2950   42.4010 N   0  0  0  0  0  0  0  0  0  0  0  0
   43.6760   32.7660   39.1130 N   0  0  0  0  0  0  0  0  0  0  0  0
   44.5150   33.0860   38.0950 C   0  0  0  0  0  0  0  0  0  0  0  0
   44.5450   32.2570   37.0080 C   0  0  0  0  0  0  0  0  0  0  0  0
   43.7590   31.1190   36.9160 C   0  0  0  0  0  0  0  0  0  0  0  0
   43.8360   30.4070   35.8970 O   0  0  0  0  0  0  0  0  0  0  0  0
   42.9280   30.8210   37.9490 N   0  0  0  0  0  0  0  0  0  0  0  0
   42.9040   31.6400   39.0130 C   0  0  0  0  0  0  0  0  0  0  0  0
   42.1250   31.3380   39.9540 O   0  0  0  0  0  0  0  0  0  0  0  0
   45.4820   32.6310   35.8920 C   0  0  0  0  0  0  0  0  0  0  0  0
   41.8710   34.9910   39.1610 N   0  0  0  0  0  0  0  0  0  0  0  0
   42.2570   35.7750   38.1900 N   0  0  0  0  0  0  0  0  0  0  0  0
   41.2450   35.9120   37.2940 C   0  0  0  0  0  0  0  0  0  0  0  0
   40.1980   35.1340   37.8080 C   0  0  0  0  0  0  0  0  0  0  0  0
   40.6180   34.5500   39.0060 C   0  0  0  0  0  0  0  0  0  0  0  0
   39.8340   33.6630   39.8710 C   0  0  0  0  0  0  0  0  0  0  0  0
   38.3670   33.7670   40.0240 C   0  0  0  0  0  0  0  0  0  0  0  0
   38.9830   32.6440   39.2190 C   0  0  0  0  0  0  0  0  0  0  0  0
   42.0046   36.3770   41.3619 H   0  0  0  0  0  0  0  0  0  0  0  0
   44.9849   34.1028   43.2741 H   0  0  0  0  0  0  0  0  0  0  0  0
   45.1500   33.9829   38.1429 H   0  0  0  0  0  0  0  0  0  0  0  0
   42.3287   29.9839   37.9166 H   0  0  0  0  0  0  0  0  0  0  0  0
   46.4249   33.0073   36.3155 H   0  0  0  0  0  0  0  0  0  0  0  0
   45.6861   31.7454   35.2723 H   0  0  0  0  0  0  0  0  0  0  0  0
   45.0202   33.4137   35.2723 H   0  0  0  0  0  0  0  0  0  0  0  0
   41.2467   36.5043   36.3671 H   0  0  0  0  0  0  0  0  0  0  0  0
   39.2088   35.0046   37.3445 H   0  0  0  0  0  0  0  0  0  0  0  0
   40.6524   33.6738   40.6059 H   0  0  0  0  0  0  0  0  0  0  0  0
   37.8970   33.5562   40.9959 H   0  0  0  0  0  0  0  0  0  0  0  0
   37.6138   34.5453   39.8318 H   0  0  0  0  0  0  0  0  0  0  0  0
   38.8804   32.6289   38.1239 H   0  0  0  0  0  0  0  0  0  0  0  0
   38.9250   31.5457   39.2365 H   0  0  0  0  0  0  0  0  0  0  0  0
  1  6  2  0
  2  3  2  0
  2  1  1  0
  3  4  1  0
  4  5  2  0
  5  6  1  0
  7  3  1  0
  8  7  1  0
  9  8  2  0
 10  9  1  0
 10 12  1  0
 11 10  2  0
 12 13  1  0
 13  7  1  0
 13 14  2  0
 15  9  1  0
 16  2  1  0
 17 16  1  0
 18 19  1  0
 18 17  2  0
 19 20  2  0
 20 16  1  0
 20 21  1  0
 21 22  1  0
 23 21  1  0
 23 22  1  0
  1 24  1  0
  5 25  1  0
  8 26  1  0
 12 27  1  0
 15 28  1  0
 15 29  1  0
 15 30  1  0
 18 31  1  0
 19 32  1  0
 21 33  1  0
 22 34  1  0
 22 35  1  0
 23 36  1  0
 23 37  1  0
M  ISO  8  24  14  25  14  26  14  27   9  28   8  29   8  30   8  31  14
M  ISO  6  32  14  33  13  34  13  35  13  36  13  37  13
M  END
>  <minimizedAffinity>  (1) 
-4.63816452

>  <minimizedRMSD>  (1) 
3.53802347

$$$$
