
     RDKit          3D

 36 38  0  0  0  0  0  0  0  0999 V2000
   43.5050   35.6620   41.2950 C   0  0  0  0  0  0  0  0  0  0  0  0
   42.8100   34.6710   40.5910 C   0  0  0  0  0  0  0  0  0  0  0  0
   43.0100   33.3490   40.9820 C   0  0  0  0  0  0  0  0  0  0  0  0
   43.8620   33.0760   42.0220 N   0  0  0  0  0  0  0  0  0  0  0  0
   44.4960   34.0610   42.6550 C   0  0  0  0  0  0  0  0  0  0  0  0
   44.3260   35.3340   42.3030 N   0  0  0  0  0  0  0  0  0  0  0  0
   42.3070   32.3350   40.2630 N   0  0  0  0  0  0  0  0  0  0  0  0
   42.7180   32.0470   38.9930 C   0  0  0  0  0  0  0  0  0  0  0  0
   42.0300   31.0780   38.3190 C   0  0  0  0  0  0  0  0  0  0  0  0
   40.9440   30.3890   38.8770 C   0  0  0  0  0  0  0  0  0  0  0  0
   40.3680   29.5180   38.1960 O   0  0  0  0  0  0  0  0  0  0  0  0
   40.5800   30.7180   40.1440 N   0  0  0  0  0  0  0  0  0  0  0  0
   41.2610   31.6650   40.7930 C   0  0  0  0  0  0  0  0  0  0  0  0
   40.8850   31.9240   41.9520 O   0  0  0  0  0  0  0  0  0  0  0  0
   42.4970   30.7560   36.9290 C   0  0  0  0  0  0  0  0  0  0  0  0
   41.9820   35.0920   39.5480 N   0  0  0  0  0  0  0  0  0  0  0  0
   42.4840   35.4960   38.4050 N   0  0  0  0  0  0  0  0  0  0  0  0
   41.4780   35.8460   37.5620 C   0  0  0  0  0  0  0  0  0  0  0  0
   40.3200   35.6210   38.2850 C   0  0  0  0  0  0  0  0  0  0  0  0
   40.6540   35.1350   39.5660 C   0  0  0  0  0  0  0  0  0  0  0  0
   39.6120   34.8600   40.5470 C   0  0  0  0  0  0  0  0  0  0  0  0
   38.5100   33.9750   39.9980 C   0  0  0  0  0  0  0  0  0  0  0  0
   43.3763   36.7189   41.0186 H   0  0  0  0  0  0  0  0  0  0  0  0
   45.1744   33.8181   43.4861 H   0  0  0  0  0  0  0  0  0  0  0  0
   43.5671   32.5729   38.5321 H   0  0  0  0  0  0  0  0  0  0  0  0
   39.7876   30.2421   40.5985 H   0  0  0  0  0  0  0  0  0  0  0  0
   43.4016   30.1323   36.9814 H   0  0  0  0  0  0  0  0  0  0  0  0
   41.7060   30.2105   36.3936 H   0  0  0  0  0  0  0  0  0  0  0  0
   42.7256   31.6893   36.3936 H   0  0  0  0  0  0  0  0  0  0  0  0
   41.5648   36.2244   36.5328 H   0  0  0  0  0  0  0  0  0  0  0  0
   39.2977   35.7943   37.9177 H   0  0  0  0  0  0  0  0  0  0  0  0
   40.0678   34.3580   41.4131 H   0  0  0  0  0  0  0  0  0  0  0  0
   39.1572   35.8217   40.8269 H   0  0  0  0  0  0  0  0  0  0  0  0
   37.9507   33.5259   40.8320 H   0  0  0  0  0  0  0  0  0  0  0  0
   37.8275   34.5788   39.3819 H   0  0  0  0  0  0  0  0  0  0  0  0
   38.9523   33.1783   39.3819 H   0  0  0  0  0  0  0  0  0  0  0  0
  1  6  2  0
  2  3  2  0
  2  1  1  0
  3  4  1  0
  4  5  2  0
  6  5  1  0
  7 13  1  0
  7  3  1  0
  8  7  1  0
  9 10  1  0
  9  8  2  0
 10 12  1  0
 11 10  2  0
 12 13  1  0
 13 14  2  0
 15  9  1  0
 16 20  1  0
 16  2  1  0
 17 16  1  0
 18 19  1  0
 18 17  2  0
 19 20  2  0
 20 21  1  0
 22 21  1  0
  1 23  1  0
  5 24  1  0
  8 25  1  0
 12 26  1  0
 15 27  1  0
 15 28  1  0
 15 29  1  0
 18 30  1  0
 19 31  1  0
 21 32  1  0
 21 33  1  0
 22 34  1  0
 22 35  1  0
 22 36  1  0
M  ISO  8  23  14  24  14  25  14  26   9  27   8  28   8  29   8  30  14
M  ISO  6  31  14  32   8  33   8  34   8  35   8  36   8
M  END
>  <minimizedAffinity>  (1) 
-4.55124617

>  <minimizedRMSD>  (1) 
1.82202947

$$$$
