
     RDKit          3D

 39 42  0  0  0  0  0  0  0  0999 V2000
   44.9420   35.1920   42.0300 C   0  0  0  0  0  0  0  0  0  0  0  0
   44.5550   33.9350   41.5810 C   0  0  0  0  0  0  0  0  0  0  0  0
   44.5730   32.8920   42.5020 C   0  0  0  0  0  0  0  0  0  0  0  0
   44.9690   33.1620   43.7920 N   0  0  0  0  0  0  0  0  0  0  0  0
   45.3270   34.3820   44.1640 C   0  0  0  0  0  0  0  0  0  0  0  0
   45.3180   35.3940   43.3050 N   0  0  0  0  0  0  0  0  0  0  0  0
   44.1800   31.6030   42.0540 N   0  0  0  0  0  0  0  0  0  0  0  0
   45.1460   30.7330   41.6890 C   0  0  0  0  0  0  0  0  0  0  0  0
   44.7330   29.4920   41.2610 C   0  0  0  0  0  0  0  0  0  0  0  0
   43.3950   29.1190   41.1930 C   0  0  0  0  0  0  0  0  0  0  0  0
   43.1310   27.9610   40.7870 O   0  0  0  0  0  0  0  0  0  0  0  0
   42.4700   30.0220   41.5680 N   0  0  0  0  0  0  0  0  0  0  0  0
   42.8670   31.2310   41.9860 C   0  0  0  0  0  0  0  0  0  0  0  0
   41.9760   32.0310   42.3230 O   0  0  0  0  0  0  0  0  0  0  0  0
   45.8160   28.5250   40.8540 C   0  0  0  0  0  0  0  0  0  0  0  0
   44.1760   33.8090   40.2350 N   0  0  0  0  0  0  0  0  0  0  0  0
   44.9670   33.2720   39.3620 N   0  0  0  0  0  0  0  0  0  0  0  0
   44.3890   33.2630   38.1490 C   0  0  0  0  0  0  0  0  0  0  0  0
   43.1330   33.8600   38.3590 C   0  0  0  0  0  0  0  0  0  0  0  0
   43.0220   34.2020   39.7040 C   0  0  0  0  0  0  0  0  0  0  0  0
   41.8710   34.8430   40.3370 C   0  0  0  0  0  0  0  0  0  0  0  0
   41.9550   35.6680   41.2780 O   0  0  0  0  0  0  0  0  0  0  0  0
   40.5420   34.4970   39.8340 C   0  0  0  0  0  0  0  0  0  0  0  0
   39.5690   33.9440   40.6410 C   0  0  0  0  0  0  0  0  0  0  0  0
   38.4510   33.7500   39.8310 C   0  0  0  0  0  0  0  0  0  0  0  0
   38.8240   34.2060   38.5620 C   0  0  0  0  0  0  0  0  0  0  0  0
   40.0690   34.6360   38.6180 O   0  0  0  0  0  0  0  0  0  0  0  0
   44.9407   36.0389   41.3280 H   0  0  0  0  0  0  0  0  0  0  0  0
   45.6375   34.5597   45.2042 H   0  0  0  0  0  0  0  0  0  0  0  0
   46.2115   31.0031   41.7317 H   0  0  0  0  0  0  0  0  0  0  0  0
   41.4680   29.7859   41.5339 H   0  0  0  0  0  0  0  0  0  0  0  0
   46.2882   28.1034   41.7536 H   0  0  0  0  0  0  0  0  0  0  0  0
   45.3768   27.7131   40.2557 H   0  0  0  0  0  0  0  0  0  0  0  0
   46.5731   29.0530   40.2557 H   0  0  0  0  0  0  0  0  0  0  0  0
   44.8038   32.8766   37.2063 H   0  0  0  0  0  0  0  0  0  0  0  0
   42.3660   34.0286   37.5888 H   0  0  0  0  0  0  0  0  0  0  0  0
   39.6578   33.7039   41.7108 H   0  0  0  0  0  0  0  0  0  0  0  0
   37.4797   33.3272   40.1274 H   0  0  0  0  0  0  0  0  0  0  0  0
   38.1849   34.2058   37.6667 H   0  0  0  0  0  0  0  0  0  0  0  0
  1  6  2  0
  2  1  1  0
  2  3  2  0
  3  4  1  0
  4  5  2  0
  6  5  1  0
  7  3  1  0
  8  7  1  0
  9  8  2  0
 10  9  1  0
 10 12  1  0
 11 10  2  0
 12 13  1  0
 13  7  1  0
 13 14  2  0
 15  9  1  0
 16  2  1  0
 17 16  1  0
 18 19  1  0
 18 17  2  0
 19 20  2  0
 20 16  1  0
 20 21  1  0
 21 22  2  0
 23 21  1  0
 23 24  2  0
 25 24  1  0
 26 27  1  0
 26 25  2  0
 27 23  1  0
  1 28  1  0
  5 29  1  0
  8 30  1  0
 12 31  1  0
 15 32  1  0
 15 33  1  0
 15 34  1  0
 18 35  1  0
 19 36  1  0
 24 37  1  0
 25 38  1  0
 26 39  1  0
M  ISO  8  28  14  29  14  30  14  31   9  32   8  33   8  34   8  35  14
M  ISO  4  36  14  37  14  38  14  39  14
M  END
>  <minimizedAffinity>  (1) 
-4.5907259

>  <minimizedRMSD>  (1) 
3.43578458

$$$$
