
     RDKit          3D

 45 48  0  0  0  0  0  0  0  0999 V2000
   43.8670   34.1810   40.8290 C   0  0  0  0  0  0  0  0  0  0  0  0
   43.0940   33.0190   40.9400 C   0  0  0  0  0  0  0  0  0  0  0  0
   41.7530   33.1710   41.2120 C   0  0  0  0  0  0  0  0  0  0  0  0
   41.2430   34.4290   41.3590 N   0  0  0  0  0  0  0  0  0  0  0  0
   42.0210   35.5070   41.2450 C   0  0  0  0  0  0  0  0  0  0  0  0
   43.3170   35.3910   40.9830 N   0  0  0  0  0  0  0  0  0  0  0  0
   40.9640   31.9880   41.3250 N   0  0  0  0  0  0  0  0  0  0  0  0
   40.9910   31.3120   42.5000 C   0  0  0  0  0  0  0  0  0  0  0  0
   40.2160   30.1700   42.5790 C   0  0  0  0  0  0  0  0  0  0  0  0
   39.4400   29.7100   41.5360 C   0  0  0  0  0  0  0  0  0  0  0  0
   38.7790   28.6700   41.7130 O   0  0  0  0  0  0  0  0  0  0  0  0
   39.4450   30.4210   40.3790 N   0  0  0  0  0  0  0  0  0  0  0  0
   40.2000   31.5350   40.2970 C   0  0  0  0  0  0  0  0  0  0  0  0
   40.1660   32.1500   39.2100 O   0  0  0  0  0  0  0  0  0  0  0  0
   40.2590   29.4310   43.8960 C   0  0  0  0  0  0  0  0  0  0  0  0
   43.7570   31.7870   40.7630 N   0  0  0  0  0  0  0  0  0  0  0  0
   44.2800   31.1610   41.7770 N   0  0  0  0  0  0  0  0  0  0  0  0
   44.8570   30.0100   41.3590 C   0  0  0  0  0  0  0  0  0  0  0  0
   44.6370   29.9940   39.9890 C   0  0  0  0  0  0  0  0  0  0  0  0
   43.9340   31.1290   39.6060 C   0  0  0  0  0  0  0  0  0  0  0  0
   43.5050   31.4940   38.2760 C   0  0  0  0  0  0  0  0  0  0  0  0
   43.6910   32.6350   37.7480 O   0  0  0  0  0  0  0  0  0  0  0  0
   42.8190   30.6100   37.3960 N   0  0  0  0  0  0  0  0  0  0  0  0
   43.0010   30.7720   35.9720 C   0  0  0  0  0  0  0  0  0  0  0  0
   42.9140   29.4580   35.2360 C   0  0  0  0  0  0  0  0  0  0  0  0
   41.7680   28.7460   35.5280 O   0  0  0  0  0  0  0  0  0  0  0  0
   41.0540   29.2260   36.5980 C   0  0  0  0  0  0  0  0  0  0  0  0
   41.9290   29.5330   37.7860 C   0  0  0  0  0  0  0  0  0  0  0  0
   44.9422   34.0980   40.6120 H   0  0  0  0  0  0  0  0  0  0  0  0
   41.5814   36.5076   41.3701 H   0  0  0  0  0  0  0  0  0  0  0  0
   41.6000   31.6556   43.3492 H   0  0  0  0  0  0  0  0  0  0  0  0
   38.8796   30.1133   39.5749 H   0  0  0  0  0  0  0  0  0  0  0  0
   40.2169   30.1542   44.7238 H   0  0  0  0  0  0  0  0  0  0  0  0
   39.3991   28.7482   43.9616 H   0  0  0  0  0  0  0  0  0  0  0  0
   41.1923   28.8525   43.9616 H   0  0  0  0  0  0  0  0  0  0  0  0
   45.3812   29.2581   41.9672 H   0  0  0  0  0  0  0  0  0  0  0  0
   44.9706   29.1987   39.3062 H   0  0  0  0  0  0  0  0  0  0  0  0
   42.2202   31.4456   35.5889 H   0  0  0  0  0  0  0  0  0  0  0  0
   44.0050   31.1887   35.8039 H   0  0  0  0  0  0  0  0  0  0  0  0
   43.7856   28.8454   35.5101 H   0  0  0  0  0  0  0  0  0  0  0  0
   42.8915   29.6867   34.1603 H   0  0  0  0  0  0  0  0  0  0  0  0
   40.5381   30.1482   36.2924 H   0  0  0  0  0  0  0  0  0  0  0  0
   40.3414   28.4448   36.9013 H   0  0  0  0  0  0  0  0  0  0  0  0
   42.5131   28.6433   38.0639 H   0  0  0  0  0  0  0  0  0  0  0  0
   41.3202   29.8246   38.6545 H   0  0  0  0  0  0  0  0  0  0  0  0
  1  2  2  0
  1  6  1  0
  2  3  1  0
  3  7  1  0
  3  4  2  0
  5  4  1  0
  6  5  2  0
  7  8  1  0
  8  9  2  0
  9 15  1  0
 10 11  2  0
 10  9  1  0
 12 10  1  0
 13 12  1  0
 13  7  1  0
 14 13  2  0
 16  2  1  0
 16 17  1  0
 18 17  2  0
 19 18  1  0
 20 19  2  0
 20 16  1  0
 21 20  1  0
 22 21  2  0
 23 28  1  0
 23 21  1  0
 24 23  1  0
 25 26  1  0
 25 24  1  0
 26 27  1  0
 27 28  1  0
  1 29  1  0
  5 30  1  0
  8 31  1  0
 12 32  1  0
 15 33  1  0
 15 34  1  0
 15 35  1  0
 18 36  1  0
 19 37  1  0
 24 38  1  0
 24 39  1  0
 25 40  1  0
 25 41  1  0
 27 42  1  0
 27 43  1  0
 28 44  1  0
 28 45  1  0
M  ISO  8  29  14  30  14  31  14  32   9  33   8  34   8  35   8  36  14
M  ISO  8  37  14  38  13  39  13  40  13  41  13  42  13  43  13  44  13
M  ISO  1  45  13
M  END
>  <minimizedAffinity>  (1) 
-3.98540854

>  <minimizedRMSD>  (1) 
5.7556572

$$$$
