
     RDKit          3D

 30 33  0  0  0  0  0  0  0  0999 V2000
   45.3370   33.4100   44.1220 N   0  0  0  0  0  0  0  0  0  0  0  0
   44.7860   33.0820   42.9560 C   0  0  0  0  0  0  0  0  0  0  0  0
   44.3560   34.2590   42.3360 C   0  0  0  0  0  0  0  0  0  0  0  0
   44.6500   35.2700   43.1300 N   0  0  0  0  0  0  0  0  0  0  0  0
   45.2540   34.7680   44.2330 C   0  0  0  0  0  0  0  0  0  0  0  0
   46.4290   33.2460   46.2350 C   0  0  0  0  0  0  0  0  0  0  0  0
   45.9100   32.5810   45.0980 C   0  0  0  0  0  0  0  0  0  0  0  0
   46.0100   31.1990   45.0430 C   0  0  0  0  0  0  0  0  0  0  0  0
   46.6000   30.5420   46.0830 N   0  0  0  0  0  0  0  0  0  0  0  0
   47.0860   31.2120   47.1570 C   0  0  0  0  0  0  0  0  0  0  0  0
   46.9980   32.5570   47.2300 N   0  0  0  0  0  0  0  0  0  0  0  0
   43.7120   34.2780   41.0550 N   0  0  0  0  0  0  0  0  0  0  0  0
   44.1670   33.7220   39.9140 C   0  0  0  0  0  0  0  0  0  0  0  0
   43.2570   33.9720   38.9460 N   0  0  0  0  0  0  0  0  0  0  0  0
   42.2310   34.6860   39.4860 C   0  0  0  0  0  0  0  0  0  0  0  0
   41.0590   35.1960   38.9500 C   0  0  0  0  0  0  0  0  0  0  0  0
   40.2140   35.8790   39.7510 N   0  0  0  0  0  0  0  0  0  0  0  0
   40.4990   36.0660   41.0580 C   0  0  0  0  0  0  0  0  0  0  0  0
   41.6440   35.5720   41.5950 N   0  0  0  0  0  0  0  0  0  0  0  0
   42.5280   34.8760   40.8270 C   0  0  0  0  0  0  0  0  0  0  0  0
   40.8080   34.9700   37.5720 N   0  0  0  0  0  0  0  0  0  0  0  0
   44.6864   32.0640   42.5512 H   0  0  0  0  0  0  0  0  0  0  0  0
   45.6200   35.3609   45.0842 H   0  0  0  0  0  0  0  0  0  0  0  0
   46.3635   34.3421   46.3008 H   0  0  0  0  0  0  0  0  0  0  0  0
   45.6210   30.6430   44.1773 H   0  0  0  0  0  0  0  0  0  0  0  0
   47.5576   30.6528   47.9786 H   0  0  0  0  0  0  0  0  0  0  0  0
   45.1082   33.1657   39.7927 H   0  0  0  0  0  0  0  0  0  0  0  0
   39.7962   36.6243   41.6939 H   0  0  0  0  0  0  0  0  0  0  0  0
   39.9473   35.3340   37.1388 H   0  0  0  0  0  0  0  0  0  0  0  0
   41.4864   34.4419   37.0048 H   0  0  0  0  0  0  0  0  0  0  0  0
  1  5  1  0
  1  7  1  0
  2  1  1  0
  3  2  2  0
  3  4  1  0
  4  5  2  0
  6 11  2  0
  7  6  1  0
  8  7  2  0
  8  9  1  0
  9 10  2  0
 10 11  1  0
 12  3  1  0
 13 12  1  0
 14 15  1  0
 14 13  2  0
 15 20  2  0
 16 15  1  0
 16 17  2  0
 17 18  1  0
 18 19  2  0
 20 12  1  0
 20 19  1  0
 21 16  1  0
  2 22  1  0
  5 23  1  0
  6 24  1  0
  8 25  1  0
 10 26  1  0
 13 27  1  0
 18 28  1  0
 21 29  1  0
 21 30  1  0
M  ISO  7  22  14  23  14  24  14  25  14  26  14  27  14  28  14
M  END
>  <minimizedAffinity>  (1) 
-5.52247381

>  <minimizedRMSD>  (1) 
4.47073126

$$$$
