
     RDKit          3D

 33 36  0  0  0  0  0  0  0  0999 V2000
   45.0530   34.8160   41.5820 N   0  0  0  0  0  0  0  0  0  0  0  0
   44.2260   34.6190   40.5830 C   0  0  0  0  0  0  0  0  0  0  0  0
   42.9730   35.0980   40.9100 C   0  0  0  0  0  0  0  0  0  0  0  0
   43.0680   35.5850   42.1250 N   0  0  0  0  0  0  0  0  0  0  0  0
   44.3290   35.4260   42.5610 C   0  0  0  0  0  0  0  0  0  0  0  0
   41.9080   34.9570   39.8920 C   0  0  0  0  0  0  0  0  0  0  0  0
   41.9270   35.5830   38.6480 C   0  0  0  0  0  0  0  0  0  0  0  0
   40.9590   35.4600   37.7120 C   0  0  0  0  0  0  0  0  0  0  0  0
   39.8590   34.6710   37.9600 C   0  0  0  0  0  0  0  0  0  0  0  0
   39.7710   34.0290   39.1520 C   0  0  0  0  0  0  0  0  0  0  0  0
   38.6670   33.2540   39.3670 C   0  0  0  0  0  0  0  0  0  0  0  0
   38.5020   32.5730   40.5440 C   0  0  0  0  0  0  0  0  0  0  0  0
   39.5030   32.6990   41.5130 C   0  0  0  0  0  0  0  0  0  0  0  0
   40.5920   33.4950   41.2370 C   0  0  0  0  0  0  0  0  0  0  0  0
   40.7810   34.1860   40.0690 C   0  0  0  0  0  0  0  0  0  0  0  0
   47.0830   34.2060   40.4860 C   0  0  0  0  0  0  0  0  0  0  0  0
   46.4280   34.4970   41.7010 C   0  0  0  0  0  0  0  0  0  0  0  0
   47.1490   34.4520   42.9070 C   0  0  0  0  0  0  0  0  0  0  0  0
   48.4690   34.1220   42.8340 N   0  0  0  0  0  0  0  0  0  0  0  0
   49.0630   33.8500   41.6620 C   0  0  0  0  0  0  0  0  0  0  0  0
   48.3760   33.8900   40.4860 N   0  0  0  0  0  0  0  0  0  0  0  0
   44.4912   34.1432   39.6273 H   0  0  0  0  0  0  0  0  0  0  0  0
   44.7124   35.7366   43.5441 H   0  0  0  0  0  0  0  0  0  0  0  0
   42.7900   36.2223   38.4103 H   0  0  0  0  0  0  0  0  0  0  0  0
   41.0507   35.9904   36.7527 H   0  0  0  0  0  0  0  0  0  0  0  0
   39.0657   34.5629   37.2057 H   0  0  0  0  0  0  0  0  0  0  0  0
   37.8990   33.1756   38.5834 H   0  0  0  0  0  0  0  0  0  0  0  0
   37.6136   31.9490   40.7210 H   0  0  0  0  0  0  0  0  0  0  0  0
   39.4218   32.1730   42.4756 H   0  0  0  0  0  0  0  0  0  0  0  0
   41.3679   33.5827   42.0117 H   0  0  0  0  0  0  0  0  0  0  0  0
   46.5252   34.2402   39.5385 H   0  0  0  0  0  0  0  0  0  0  0  0
   46.6671   34.6742   43.8705 H   0  0  0  0  0  0  0  0  0  0  0  0
   50.1313   33.5882   41.6503 H   0  0  0  0  0  0  0  0  0  0  0  0
  1 17  1  0
  1  5  1  0
  2  3  2  0
  2  1  1  0
  3  4  1  0
  4  5  2  0
  6 15  1  0
  6  3  1  0
  7  6  2  0
  8  9  2  0
  8  7  1  0
  9 10  1  0
 10 11  1  0
 10 15  2  0
 11 12  2  0
 12 13  1  0
 14 13  2  0
 15 14  1  0
 16 17  2  0
 17 18  1  0
 19 18  2  0
 20 19  1  0
 21 16  1  0
 21 20  2  0
  2 22  1  0
  5 23  1  0
  7 24  1  0
  8 25  1  0
  9 26  1  0
 11 27  1  0
 12 28  1  0
 13 29  1  0
 14 30  1  0
 16 31  1  0
 18 32  1  0
 20 33  1  0
M  ISO  8  22  14  23  14  24  14  25  14  26  14  27  14  28  14  29  14
M  ISO  4  30  14  31  14  32  14  33  14
M  END
>  <minimizedAffinity>  (1) 
-6.40552473

>  <minimizedRMSD>  (1) 
5.03754091

$$$$
