
     RDKit          3D

 26 28  0  0  0  0  0  0  0  0999 V2000
   46.2980   33.1590   45.6650 N   0  0  0  0  0  0  0  0  0  0  0  0
   47.0400   33.0960   44.5670 C   0  0  0  0  0  0  0  0  0  0  0  0
   46.5920   34.0480   43.6640 C   0  0  0  0  0  0  0  0  0  0  0  0
   45.5800   34.6800   44.2260 N   0  0  0  0  0  0  0  0  0  0  0  0
   45.3850   34.1470   45.4570 C   0  0  0  0  0  0  0  0  0  0  0  0
   45.3080   32.6300   47.7860 C   0  0  0  0  0  0  0  0  0  0  0  0
   46.3540   32.4130   46.8510 C   0  0  0  0  0  0  0  0  0  0  0  0
   47.3540   31.4860   47.1660 C   0  0  0  0  0  0  0  0  0  0  0  0
   47.2740   30.8380   48.3560 N   0  0  0  0  0  0  0  0  0  0  0  0
   46.2600   31.0690   49.2290 C   0  0  0  0  0  0  0  0  0  0  0  0
   45.2850   31.9600   48.9440 N   0  0  0  0  0  0  0  0  0  0  0  0
   47.1490   34.2960   42.3350 C   0  0  0  0  0  0  0  0  0  0  0  0
   48.2040   35.1510   42.1800 C   0  0  0  0  0  0  0  0  0  0  0  0
   48.7040   35.3620   40.9100 C   0  0  0  0  0  0  0  0  0  0  0  0
   48.2010   34.7590   39.7800 C   0  0  0  0  0  0  0  0  0  0  0  0
   47.1380   33.9110   40.0130 C   0  0  0  0  0  0  0  0  0  0  0  0
   46.6260   33.6840   41.2410 N   0  0  0  0  0  0  0  0  0  0  0  0
   47.8758   32.4006   44.4000 H   0  0  0  0  0  0  0  0  0  0  0  0
   44.6123   34.4625   46.1735 H   0  0  0  0  0  0  0  0  0  0  0  0
   44.5115   33.3534   47.5571 H   0  0  0  0  0  0  0  0  0  0  0  0
   48.1815   31.2881   46.4688 H   0  0  0  0  0  0  0  0  0  0  0  0
   46.2318   30.5223   50.1831 H   0  0  0  0  0  0  0  0  0  0  0  0
   48.6458   35.6606   43.0490 H   0  0  0  0  0  0  0  0  0  0  0  0
   49.5532   36.0517   40.7952 H   0  0  0  0  0  0  0  0  0  0  0  0
   48.6119   34.9380   38.7754 H   0  0  0  0  0  0  0  0  0  0  0  0
   46.6848   33.3937   39.1545 H   0  0  0  0  0  0  0  0  0  0  0  0
  1  7  1  0
  2  1  1  0
  3  4  1  0
  3  2  2  0
  4  5  2  0
  5  1  1  0
  6 11  2  0
  7  8  2  0
  7  6  1  0
  8  9  1  0
  9 10  2  0
 11 10  1  0
 12  3  1  0
 13 12  2  0
 14 13  1  0
 15 16  1  0
 15 14  2  0
 16 17  2  0
 17 12  1  0
  2 18  1  0
  5 19  1  0
  6 20  1  0
  8 21  1  0
 10 22  1  0
 13 23  1  0
 14 24  1  0
 15 25  1  0
 16 26  1  0
M  ISO  8  18  14  19  14  20  14  21  14  22  14  23  14  24  14  25  14
M  ISO  1  26  14
M  END
>  <minimizedAffinity>  (1) 
-5.29293346

>  <minimizedRMSD>  (1) 
5.72888803

$$$$
