
     RDKit          3D

 24 26  0  0  0  0  0  0  0  0999 V2000
   46.8620   31.7860   47.6650 N   0  0  0  0  0  0  0  0  0  0  0  0
   46.8720   32.5160   46.5700 C   0  0  0  0  0  0  0  0  0  0  0  0
   45.7380   33.3150   46.5170 C   0  0  0  0  0  0  0  0  0  0  0  0
   45.0420   33.0480   47.6110 N   0  0  0  0  0  0  0  0  0  0  0  0
   45.7220   32.1210   48.3090 C   0  0  0  0  0  0  0  0  0  0  0  0
   48.4070   31.1560   49.3630 C   0  0  0  0  0  0  0  0  0  0  0  0
   47.7920   30.8510   48.1260 C   0  0  0  0  0  0  0  0  0  0  0  0
   48.1600   29.6700   47.4890 C   0  0  0  0  0  0  0  0  0  0  0  0
   49.0880   28.8770   48.0910 N   0  0  0  0  0  0  0  0  0  0  0  0
   49.6570   29.1900   49.2670 C   0  0  0  0  0  0  0  0  0  0  0  0
   49.3110   30.3260   49.8900 N   0  0  0  0  0  0  0  0  0  0  0  0
   45.3980   34.2570   45.4560 C   0  0  0  0  0  0  0  0  0  0  0  0
   45.8410   34.2100   44.1470 C   0  0  0  0  0  0  0  0  0  0  0  0
   45.2550   35.3050   43.5220 C   0  0  0  0  0  0  0  0  0  0  0  0
   44.4960   35.9490   44.4770 C   0  0  0  0  0  0  0  0  0  0  0  0
   44.6050   35.3040   45.6010 O   0  0  0  0  0  0  0  0  0  0  0  0
   47.6643   32.4959   45.8072 H   0  0  0  0  0  0  0  0  0  0  0  0
   45.3960   31.6952   49.2694 H   0  0  0  0  0  0  0  0  0  0  0  0
   48.1392   32.0816   49.8936 H   0  0  0  0  0  0  0  0  0  0  0  0
   47.7131   29.3850   46.5251 H   0  0  0  0  0  0  0  0  0  0  0  0
   50.4028   28.5180   49.7166 H   0  0  0  0  0  0  0  0  0  0  0  0
   46.5135   33.4653   43.6963 H   0  0  0  0  0  0  0  0  0  0  0  0
   45.3737   35.6007   42.4692 H   0  0  0  0  0  0  0  0  0  0  0  0
   43.8976   36.8576   44.3147 H   0  0  0  0  0  0  0  0  0  0  0  0
  1  7  1  0
  1  5  1  0
  2  1  1  0
  3  2  2  0
  3  4  1  0
  4  5  2  0
  6 11  2  0
  7  6  1  0
  8  9  1  0
  8  7  2  0
  9 10  2  0
 10 11  1  0
 12 16  1  0
 12  3  1  0
 13 12  2  0
 14 13  1  0
 14 15  2  0
 15 16  1  0
  2 17  1  0
  5 18  1  0
  6 19  1  0
  8 20  1  0
 10 21  1  0
 13 22  1  0
 14 23  1  0
 15 24  1  0
M  ISO  8  17  14  18  14  19  14  20  14  21  14  22  14  23  14  24  14
M  END
>  <minimizedAffinity>  (1) 
-4.83155918

>  <minimizedRMSD>  (1) 
7.91893721

$$$$
