
     RDKit          3D

 24 25  0  0  0  0  0  0  0  0999 V2000
   44.3210   34.7220   42.0540 N   0  0  0  0  0  0  0  0  0  0  0  0
   44.5860   33.8530   43.0130 C   0  0  0  0  0  0  0  0  0  0  0  0
   45.1540   34.5430   44.0860 C   0  0  0  0  0  0  0  0  0  0  0  0
   45.2170   35.8160   43.7500 N   0  0  0  0  0  0  0  0  0  0  0  0
   44.7070   35.9510   42.4940 C   0  0  0  0  0  0  0  0  0  0  0  0
   42.5610   35.2280   40.5090 C   0  0  0  0  0  0  0  0  0  0  0  0
   43.7490   34.4980   40.7940 C   0  0  0  0  0  0  0  0  0  0  0  0
   44.2330   33.6370   39.8090 C   0  0  0  0  0  0  0  0  0  0  0  0
   43.5500   33.5410   38.6370 N   0  0  0  0  0  0  0  0  0  0  0  0
   42.4240   34.2480   38.3990 C   0  0  0  0  0  0  0  0  0  0  0  0
   41.9280   35.0960   39.3400 N   0  0  0  0  0  0  0  0  0  0  0  0
   45.5700   33.9300   45.2990 N   0  0  0  0  0  0  0  0  0  0  0  0
   44.9360   34.2160   46.5410 C   0  0  0  0  0  0  0  0  0  0  0  0
   44.3150   35.3610   46.6710 N   0  0  0  0  0  0  0  0  0  0  0  0
   45.0010   33.2500   47.5970 N   0  0  0  0  0  0  0  0  0  0  0  0
   43.8550   35.5580   47.5910 H   0  0  0  0  0  0  0  0  0  0  0  0
   44.3924   32.7709   42.9732 H   0  0  0  0  0  0  0  0  0  0  0  0
   44.6217   36.8924   41.9314 H   0  0  0  0  0  0  0  0  0  0  0  0
   42.1558   35.9148   41.2666 H   0  0  0  0  0  0  0  0  0  0  0  0
   45.1471   33.0486   39.9766 H   0  0  0  0  0  0  0  0  0  0  0  0
   41.9037   34.1372   37.4362 H   0  0  0  0  0  0  0  0  0  0  0  0
   46.3521   33.2601   45.2788 H   0  0  0  0  0  0  0  0  0  0  0  0
   44.5468   33.4438   48.5009 H   0  0  0  0  0  0  0  0  0  0  0  0
   45.5020   32.3617   47.4523 H   0  0  0  0  0  0  0  0  0  0  0  0
  1  5  1  0
  1  2  1  0
  2  3  2  0
  3 12  1  0
  4  3  1  0
  5  4  2  0
  6  7  2  0
  7  1  1  0
  8  7  1  0
  9  8  2  0
 10  9  1  0
 10 11  2  0
 11  6  1  0
 12 13  1  0
 13 14  2  0
 13 15  1  0
 14 16  1  0
  2 17  1  0
  5 18  1  0
  6 19  1  0
  8 20  1  0
 10 21  1  0
 12 22  1  0
 15 23  1  0
 15 24  1  0
M  ISO  5  17  14  18  14  19  14  20  14  21  14
M  END
>  <minimizedAffinity>  (1) 
-4.79356098

>  <minimizedRMSD>  (1) 
6.45205164

$$$$
