
     RDKit          3D

 27 29  0  0  0  0  0  0  0  0999 V2000
   46.1840   32.7770   45.5310 N   0  0  0  0  0  0  0  0  0  0  0  0
   47.0450   32.6500   46.5330 C   0  0  0  0  0  0  0  0  0  0  0  0
   47.2560   31.2980   46.7580 C   0  0  0  0  0  0  0  0  0  0  0  0
   46.5100   30.6200   45.8760 N   0  0  0  0  0  0  0  0  0  0  0  0
   45.8530   31.5190   45.1240 C   0  0  0  0  0  0  0  0  0  0  0  0
   46.0150   34.1730   43.5800 C   0  0  0  0  0  0  0  0  0  0  0  0
   45.6540   33.9380   44.9310 C   0  0  0  0  0  0  0  0  0  0  0  0
   44.8120   34.8560   45.5760 C   0  0  0  0  0  0  0  0  0  0  0  0
   44.3880   35.9270   44.8540 N   0  0  0  0  0  0  0  0  0  0  0  0
   44.7500   36.1180   43.5700 C   0  0  0  0  0  0  0  0  0  0  0  0
   45.5580   35.2460   42.9410 N   0  0  0  0  0  0  0  0  0  0  0  0
   48.1220   30.7180   47.7620 C   0  0  0  0  0  0  0  0  0  0  0  0
   48.5140   29.4000   47.6470 C   0  0  0  0  0  0  0  0  0  0  0  0
   49.3350   28.7480   48.5450 C   0  0  0  0  0  0  0  0  0  0  0  0
   49.7780   29.5050   49.6240 C   0  0  0  0  0  0  0  0  0  0  0  0
   49.4030   30.8330   49.7720 C   0  0  0  0  0  0  0  0  0  0  0  0
   48.5700   31.4550   48.8400 C   0  0  0  0  0  0  0  0  0  0  0  0
   47.5115   33.4760   47.0898 H   0  0  0  0  0  0  0  0  0  0  0  0
   45.1567   31.2774   44.3074 H   0  0  0  0  0  0  0  0  0  0  0  0
   46.6757   33.4649   43.0584 H   0  0  0  0  0  0  0  0  0  0  0  0
   44.5072   34.7150   46.6235 H   0  0  0  0  0  0  0  0  0  0  0  0
   44.3790   37.0005   43.0282 H   0  0  0  0  0  0  0  0  0  0  0  0
   48.1473   28.8300   46.7806 H   0  0  0  0  0  0  0  0  0  0  0  0
   49.6213   27.6939   48.4149 H   0  0  0  0  0  0  0  0  0  0  0  0
   50.4374   29.0431   50.3736 H   0  0  0  0  0  0  0  0  0  0  0  0
   49.7681   31.4049   50.6378 H   0  0  0  0  0  0  0  0  0  0  0  0
   48.2773   32.5083   48.9619 H   0  0  0  0  0  0  0  0  0  0  0  0
  1  2  1  0
  2  3  2  0
  3 12  1  0
  4  3  1  0
  5  1  1  0
  5  4  2  0
  6  7  2  0
  7  1  1  0
  7  8  1  0
  9  8  2  0
 10  9  1  0
 11 10  2  0
 11  6  1  0
 12 17  1  0
 13 12  2  0
 13 14  1  0
 14 15  2  0
 15 16  1  0
 17 16  2  0
  2 18  1  0
  5 19  1  0
  6 20  1  0
  8 21  1  0
 10 22  1  0
 13 23  1  0
 14 24  1  0
 15 25  1  0
 16 26  1  0
 17 27  1  0
M  ISO  8  18  14  19  14  20  14  21  14  22  14  23  14  24  14  25  14
M  ISO  2  26  14  27  14
M  END
>  <minimizedAffinity>  (1) 
-4.61741829

>  <minimizedRMSD>  (1) 
9.12462807

$$$$
