
     RDKit          3D

 24 26  0  0  0  0  0  0  0  0999 V2000
   46.8350   31.9420   47.4900 N   0  0  0  0  0  0  0  0  0  0  0  0
   46.8360   32.6720   46.3720 C   0  0  0  0  0  0  0  0  0  0  0  0
   45.6950   33.4580   46.3820 C   0  0  0  0  0  0  0  0  0  0  0  0
   45.0230   33.1980   47.4960 N   0  0  0  0  0  0  0  0  0  0  0  0
   45.7140   32.2700   48.1800 C   0  0  0  0  0  0  0  0  0  0  0  0
   48.2600   31.1800   49.2370 C   0  0  0  0  0  0  0  0  0  0  0  0
   47.7980   30.9970   47.9120 C   0  0  0  0  0  0  0  0  0  0  0  0
   48.3100   29.9420   47.1590 C   0  0  0  0  0  0  0  0  0  0  0  0
   49.2340   29.1380   47.7460 N   0  0  0  0  0  0  0  0  0  0  0  0
   49.6530   29.3400   49.0150 C   0  0  0  0  0  0  0  0  0  0  0  0
   49.1680   30.3650   49.7700 N   0  0  0  0  0  0  0  0  0  0  0  0
   45.3560   34.3770   45.3340 N   0  0  0  0  0  0  0  0  0  0  0  0
   45.9000   34.1700   44.1220 C   0  0  0  0  0  0  0  0  0  0  0  0
   45.4270   35.1750   43.2930 C   0  0  0  0  0  0  0  0  0  0  0  0
   44.6180   35.9570   44.0210 N   0  0  0  0  0  0  0  0  0  0  0  0
   44.5670   35.4680   45.2940 C   0  0  0  0  0  0  0  0  0  0  0  0
   47.6042   32.6528   45.5849 H   0  0  0  0  0  0  0  0  0  0  0  0
   45.4167   31.8427   49.1490 H   0  0  0  0  0  0  0  0  0  0  0  0
   47.8616   32.0109   49.8377 H   0  0  0  0  0  0  0  0  0  0  0  0
   47.9774   29.7665   46.1253 H   0  0  0  0  0  0  0  0  0  0  0  0
   50.4026   28.6614   49.4480 H   0  0  0  0  0  0  0  0  0  0  0  0
   46.5883   33.3588   43.8421 H   0  0  0  0  0  0  0  0  0  0  0  0
   45.6717   35.3070   42.2287 H   0  0  0  0  0  0  0  0  0  0  0  0
   43.9893   35.8867   46.1313 H   0  0  0  0  0  0  0  0  0  0  0  0
  1  7  1  0
  1  5  1  0
  2  3  2  0
  2  1  1  0
  3  4  1  0
  4  5  2  0
  6 11  2  0
  7  6  1  0
  8  9  1  0
  8  7  2  0
  9 10  2  0
 10 11  1  0
 12  3  1  0
 13 12  1  0
 14 15  1  0
 14 13  2  0
 15 16  2  0
 16 12  1  0
  2 17  1  0
  5 18  1  0
  6 19  1  0
  8 20  1  0
 10 21  1  0
 13 22  1  0
 14 23  1  0
 16 24  1  0
M  ISO  8  17  14  18  14  19  14  20  14  21  14  22  14  23  14  24  14
M  END
>  <minimizedAffinity>  (1) 
-4.59560156

>  <minimizedRMSD>  (1) 
7.68742228

$$$$
