
     RDKit          3D

 20 21  0  0  0  0  0  0  0  0999 V2000
   43.6790   34.4740   41.8650 N   0  0  0  0  0  0  0  0  0  0  0  0
   43.7770   34.1040   40.5920 C   0  0  0  0  0  0  0  0  0  0  0  0
   42.7730   34.7500   39.8640 C   0  0  0  0  0  0  0  0  0  0  0  0
   42.0790   35.5000   40.6990 N   0  0  0  0  0  0  0  0  0  0  0  0
   42.6240   35.3390   41.9270 C   0  0  0  0  0  0  0  0  0  0  0  0
   44.5900   35.0850   43.9790 C   0  0  0  0  0  0  0  0  0  0  0  0
   44.4490   34.1030   42.9690 C   0  0  0  0  0  0  0  0  0  0  0  0
   45.0730   32.8800   43.1530 C   0  0  0  0  0  0  0  0  0  0  0  0
   45.7920   32.6810   44.2970 N   0  0  0  0  0  0  0  0  0  0  0  0
   45.9120   33.6300   45.2410 C   0  0  0  0  0  0  0  0  0  0  0  0
   45.3060   34.8390   45.0790 N   0  0  0  0  0  0  0  0  0  0  0  0
   42.5870   34.5650   38.3970 C   0  0  0  0  0  0  0  0  0  0  0  0
   42.4570   35.8050   37.8310 F   0  0  0  0  0  0  0  0  0  0  0  0
   41.4960   33.7740   38.1020 F   0  0  0  0  0  0  0  0  0  0  0  0
   43.6770   33.9360   37.8390 F   0  0  0  0  0  0  0  0  0  0  0  0
   44.5222   33.4072   40.1807 H   0  0  0  0  0  0  0  0  0  0  0  0
   42.2686   35.8335   42.8431 H   0  0  0  0  0  0  0  0  0  0  0  0
   44.1032   36.0637   43.8560 H   0  0  0  0  0  0  0  0  0  0  0  0
   44.9913   32.0871   42.3949 H   0  0  0  0  0  0  0  0  0  0  0  0
   46.5017   33.4296   46.1477 H   0  0  0  0  0  0  0  0  0  0  0  0
  1  5  1  0
  1  7  1  0
  2  1  1  0
  3  2  2  0
  3  4  1  0
  4  5  2  0
  6 11  2  0
  7  8  2  0
  7  6  1  0
  8  9  1  0
  9 10  2  0
 11 10  1  0
 12  3  1  0
 13 12  1  0
 14 12  1  0
 15 12  1  0
  2 16  1  0
  5 17  1  0
  6 18  1  0
  8 19  1  0
 10 20  1  0
M  ISO  5  16  14  17  14  18  14  19  14  20  14
M  END
>  <minimizedAffinity>  (1) 
-3.63297987

>  <minimizedRMSD>  (1) 
1.17530477

$$$$
