
     RDKit          3D

 19 20  0  0  0  0  0  0  0  0999 V2000
   43.6370   34.3220   41.5230 N   0  0  0  0  0  0  0  0  0  0  0  0
   43.2530   33.3340   40.7270 C   0  0  0  0  0  0  0  0  0  0  0  0
   42.6680   33.9040   39.6030 C   0  0  0  0  0  0  0  0  0  0  0  0
   42.7030   35.2380   39.7280 N   0  0  0  0  0  0  0  0  0  0  0  0
   43.3000   35.4930   40.9110 C   0  0  0  0  0  0  0  0  0  0  0  0
   44.2090   35.4260   43.5680 C   0  0  0  0  0  0  0  0  0  0  0  0
   44.2780   34.2490   42.7790 C   0  0  0  0  0  0  0  0  0  0  0  0
   44.9560   33.1300   43.2850 C   0  0  0  0  0  0  0  0  0  0  0  0
   45.5100   33.2570   44.5180 N   0  0  0  0  0  0  0  0  0  0  0  0
   45.4270   34.3850   45.2410 C   0  0  0  0  0  0  0  0  0  0  0  0
   44.7810   35.4700   44.7720 N   0  0  0  0  0  0  0  0  0  0  0  0
   42.1130   33.1560   38.4810 C   0  0  0  0  0  0  0  0  0  0  0  0
   40.9670   33.3430   37.9980 O   0  0  0  0  0  0  0  0  0  0  0  0
   43.3753   32.2582   40.9211 H   0  0  0  0  0  0  0  0  0  0  0  0
   43.4870   36.4965   41.3208 H   0  0  0  0  0  0  0  0  0  0  0  0
   43.6792   36.3100   43.1834 H   0  0  0  0  0  0  0  0  0  0  0  0
   45.0350   32.1951   42.7107 H   0  0  0  0  0  0  0  0  0  0  0  0
   45.8955   34.4241   46.2355 H   0  0  0  0  0  0  0  0  0  0  0  0
   42.7396   32.3748   38.0260 H   0  0  0  0  0  0  0  0  0  0  0  0
  1  7  1  0
  2  1  1  0
  3  4  1  0
  3  2  2  0
  4  5  2  0
  5  1  1  0
  6 11  2  0
  7  8  2  0
  7  6  1  0
  8  9  1  0
  9 10  2  0
 11 10  1  0
 12  3  1  0
 13 12  2  0
  2 14  1  0
  5 15  1  0
  6 16  1  0
  8 17  1  0
 10 18  1  0
 12 19  1  0
M  ISO  6  14  14  15  14  16  14  17  14  18  14  19   6
M  END
>  <minimizedAffinity>  (1) 
-3.31475568

>  <minimizedRMSD>  (1) 
0.699950337

$$$$
