
     RDKit          3D

 23 24  0  0  0  0  0  0  0  0999 V2000
   43.5120   34.2840   41.4560 N   0  0  0  0  0  0  0  0  0  0  0  0
   42.8980   33.3660   40.7260 C   0  0  0  0  0  0  0  0  0  0  0  0
   42.3360   33.9840   39.6030 C   0  0  0  0  0  0  0  0  0  0  0  0
   42.6170   35.2690   39.6720 N   0  0  0  0  0  0  0  0  0  0  0  0
   43.3390   35.4700   40.8030 C   0  0  0  0  0  0  0  0  0  0  0  0
   44.2900   35.3230   43.4600 C   0  0  0  0  0  0  0  0  0  0  0  0
   44.2130   34.1610   42.6550 C   0  0  0  0  0  0  0  0  0  0  0  0
   44.8370   33.0020   43.1170 C   0  0  0  0  0  0  0  0  0  0  0  0
   45.4850   33.0500   44.3170 N   0  0  0  0  0  0  0  0  0  0  0  0
   45.5380   34.1720   45.0570 C   0  0  0  0  0  0  0  0  0  0  0  0
   44.9400   35.3150   44.6310 N   0  0  0  0  0  0  0  0  0  0  0  0
   41.5730   33.1930   38.5880 C   0  0  0  0  0  0  0  0  0  0  0  0
   40.3880   33.9420   38.0590 C   0  0  0  0  0  0  0  0  0  0  0  0
   42.8392   32.2935   40.9631 H   0  0  0  0  0  0  0  0  0  0  0  0
   43.7264   36.4420   41.1424 H   0  0  0  0  0  0  0  0  0  0  0  0
   43.8069   36.2499   43.1173 H   0  0  0  0  0  0  0  0  0  0  0  0
   44.8074   32.0729   42.5289 H   0  0  0  0  0  0  0  0  0  0  0  0
   46.0720   34.1640   46.0187 H   0  0  0  0  0  0  0  0  0  0  0  0
   42.2432   32.9530   37.7495 H   0  0  0  0  0  0  0  0  0  0  0  0
   41.2034   32.2810   39.0796 H   0  0  0  0  0  0  0  0  0  0  0  0
   39.7885   34.3209   38.8999 H   0  0  0  0  0  0  0  0  0  0  0  0
   40.7326   34.7867   37.4444 H   0  0  0  0  0  0  0  0  0  0  0  0
   39.7729   33.2683   37.4444 H   0  0  0  0  0  0  0  0  0  0  0  0
  1  7  1  0
  2  1  1  0
  3  4  1  0
  3  2  2  0
  4  5  2  0
  5  1  1  0
  6 11  2  0
  7  8  2  0
  7  6  1  0
  8  9  1  0
  9 10  2  0
 11 10  1  0
 12  3  1  0
 13 12  1  0
  2 14  1  0
  5 15  1  0
  6 16  1  0
  8 17  1  0
 10 18  1  0
 12 19  1  0
 12 20  1  0
 13 21  1  0
 13 22  1  0
 13 23  1  0
M  ISO  8  14  14  15  14  16  14  17  14  18  14  19   8  20   8  21   8
M  ISO  2  22   8  23   8
M  END
>  <minimizedAffinity>  (1) 
-3.42688441

>  <minimizedRMSD>  (1) 
0.991412938

$$$$
