
     RDKit          3D

 30 32  0  0  0  0  0  0  0  0999 V2000
   46.9670   31.6730   47.7540 N   0  0  0  0  0  0  0  0  0  0  0  0
   46.9300   32.3840   46.6440 C   0  0  0  0  0  0  0  0  0  0  0  0
   45.7880   33.1630   46.6130 C   0  0  0  0  0  0  0  0  0  0  0  0
   45.1280   32.9060   47.7390 N   0  0  0  0  0  0  0  0  0  0  0  0
   45.8390   32.0040   48.4310 C   0  0  0  0  0  0  0  0  0  0  0  0
   48.6010   31.1120   49.3920 C   0  0  0  0  0  0  0  0  0  0  0  0
   47.9170   30.7610   48.2050 C   0  0  0  0  0  0  0  0  0  0  0  0
   48.2510   29.5550   47.6040 C   0  0  0  0  0  0  0  0  0  0  0  0
   49.2050   28.7840   48.1820 N   0  0  0  0  0  0  0  0  0  0  0  0
   49.8380   29.1390   49.3080 C   0  0  0  0  0  0  0  0  0  0  0  0
   49.5260   30.3060   49.9020 N   0  0  0  0  0  0  0  0  0  0  0  0
   45.3970   34.0780   45.5540 C   0  0  0  0  0  0  0  0  0  0  0  0
   44.6390   35.2210   45.6990 C   0  0  0  0  0  0  0  0  0  0  0  0
   44.5230   35.7690   44.4230 C   0  0  0  0  0  0  0  0  0  0  0  0
   45.2120   34.9270   43.5920 C   0  0  0  0  0  0  0  0  0  0  0  0
   45.7090   33.9530   44.2800 O   0  0  0  0  0  0  0  0  0  0  0  0
   45.3330   35.1590   42.1160 C   0  0  0  0  0  0  0  0  0  0  0  0
   43.9720   35.3460   41.4830 C   0  0  0  0  0  0  0  0  0  0  0  0
   47.6972   32.3607   45.8561 H   0  0  0  0  0  0  0  0  0  0  0  0
   45.5489   31.5912   49.4085 H   0  0  0  0  0  0  0  0  0  0  0  0
   48.3652   32.0602   49.8973 H   0  0  0  0  0  0  0  0  0  0  0  0
   47.7523   29.2317   46.6784 H   0  0  0  0  0  0  0  0  0  0  0  0
   50.6059   28.4827   49.7433 H   0  0  0  0  0  0  0  0  0  0  0  0
   44.2129   35.6190   46.6317 H   0  0  0  0  0  0  0  0  0  0  0  0
   43.9883   36.6882   44.1416 H   0  0  0  0  0  0  0  0  0  0  0  0
   45.9376   36.0614   41.9421 H   0  0  0  0  0  0  0  0  0  0  0  0
   45.8130   34.2798   41.6614 H   0  0  0  0  0  0  0  0  0  0  0  0
   43.2121   35.4504   42.2715 H   0  0  0  0  0  0  0  0  0  0  0  0
   43.9793   36.2516   40.8586 H   0  0  0  0  0  0  0  0  0  0  0  0
   43.7348   34.4720   40.8586 H   0  0  0  0  0  0  0  0  0  0  0  0
  1  7  1  0
  1  5  1  0
  2  1  1  0
  3  2  2  0
  3  4  1  0
  4  5  2  0
  6 11  2  0
  7  6  1  0
  8  9  1  0
  8  7  2  0
  9 10  2  0
 10 11  1  0
 12 13  2  0
 12  3  1  0
 14 13  1  0
 15 16  1  0
 15 14  2  0
 16 12  1  0
 17 15  1  0
 18 17  1  0
  2 19  1  0
  5 20  1  0
  6 21  1  0
  8 22  1  0
 10 23  1  0
 13 24  1  0
 14 25  1  0
 17 26  1  0
 17 27  1  0
 18 28  1  0
 18 29  1  0
 18 30  1  0
M  ISO  8  19  14  20  14  21  14  22  14  23  14  24  14  25  14  26   8
M  ISO  4  27   8  28   8  29   8  30   8
M  END
>  <minimizedAffinity>  (1) 
-5.13715363

>  <minimizedRMSD>  (1) 
1.39585745

$$$$
