
     RDKit          3D

 33 35  0  0  0  0  0  0  0  0999 V2000
   47.6940   31.1640   48.1610 N   0  0  0  0  0  0  0  0  0  0  0  0
   47.7140   31.6870   46.9610 C   0  0  0  0  0  0  0  0  0  0  0  0
   46.6490   32.5460   46.7910 C   0  0  0  0  0  0  0  0  0  0  0  0
   45.9690   32.5340   47.9370 N   0  0  0  0  0  0  0  0  0  0  0  0
   46.6050   31.6940   48.7700 C   0  0  0  0  0  0  0  0  0  0  0  0
   49.1620   30.6660   49.9760 C   0  0  0  0  0  0  0  0  0  0  0  0
   48.5720   30.2500   48.7640 C   0  0  0  0  0  0  0  0  0  0  0  0
   48.8960   28.9910   48.2650 C   0  0  0  0  0  0  0  0  0  0  0  0
   49.7700   28.2250   48.9820 N   0  0  0  0  0  0  0  0  0  0  0  0
   50.3190   28.6370   50.1280 C   0  0  0  0  0  0  0  0  0  0  0  0
   50.0040   29.8430   50.5970 N   0  0  0  0  0  0  0  0  0  0  0  0
   46.3180   33.3210   45.6030 C   0  0  0  0  0  0  0  0  0  0  0  0
   47.0010   33.2430   44.3910 C   0  0  0  0  0  0  0  0  0  0  0  0
   46.3340   34.1550   43.5600 C   0  0  0  0  0  0  0  0  0  0  0  0
   45.3230   34.7060   44.3030 C   0  0  0  0  0  0  0  0  0  0  0  0
   45.3420   34.1940   45.4950 O   0  0  0  0  0  0  0  0  0  0  0  0
   44.3810   35.7260   43.7730 C   0  0  0  0  0  0  0  0  0  0  0  0
   45.0850   37.0620   43.5690 C   0  0  0  0  0  0  0  0  0  0  0  0
   43.8140   35.2860   42.4230 C   0  0  0  0  0  0  0  0  0  0  0  0
   48.4740   31.4713   46.1956 H   0  0  0  0  0  0  0  0  0  0  0  0
   46.2877   31.4685   49.7988 H   0  0  0  0  0  0  0  0  0  0  0  0
   48.9302   31.6538   50.4007 H   0  0  0  0  0  0  0  0  0  0  0  0
   48.4616   28.6251   47.3230 H   0  0  0  0  0  0  0  0  0  0  0  0
   51.0203   27.9903   50.6757 H   0  0  0  0  0  0  0  0  0  0  0  0
   47.8660   32.6105   44.1426 H   0  0  0  0  0  0  0  0  0  0  0  0
   46.5762   34.3842   42.5118 H   0  0  0  0  0  0  0  0  0  0  0  0
   43.5717   35.8347   44.5100 H   0  0  0  0  0  0  0  0  0  0  0  0
   45.3191   37.5063   44.5477 H   0  0  0  0  0  0  0  0  0  0  0  0
   46.0166   36.9034   43.0060 H   0  0  0  0  0  0  0  0  0  0  0  0
   44.4275   37.7408   43.0060 H   0  0  0  0  0  0  0  0  0  0  0  0
   42.9546   34.6191   42.5861 H   0  0  0  0  0  0  0  0  0  0  0  0
   43.4891   36.1707   41.8558 H   0  0  0  0  0  0  0  0  0  0  0  0
   44.5904   34.7516   41.8558 H   0  0  0  0  0  0  0  0  0  0  0  0
  1  7  1  0
  1  5  1  0
  2  1  1  0
  3  2  2  0
  3  4  1  0
  4  5  2  0
  6 11  2  0
  7  6  1  0
  8  7  2  0
  8  9  1  0
  9 10  2  0
 10 11  1  0
 12  3  1  0
 13 12  2  0
 14 15  2  0
 14 13  1  0
 15 16  1  0
 16 12  1  0
 17 15  1  0
 18 17  1  0
 19 17  1  0
  2 20  1  0
  5 21  1  0
  6 22  1  0
  8 23  1  0
 10 24  1  0
 13 25  1  0
 14 26  1  0
 17 27  1  0
 18 28  1  0
 18 29  1  0
 18 30  1  0
 19 31  1  0
 19 32  1  0
 19 33  1  0
M  ISO  8  20  14  21  14  22  14  23  14  24  14  25  14  26  14  27   8
M  ISO  6  28   8  29   8  30   8  31   8  32   8  33   8
M  END
>  <minimizedAffinity>  (1) 
-4.85889626

>  <minimizedRMSD>  (1) 
1.366413

$$$$
