
     RDKit          3D

 19 19  0  0  0  0  0  0  0  0999 V2000
   44.9830   35.0320   44.3700 C   0  0  0  0  0  0  0  0  0  0  0  0
   45.7500   35.1490   43.2100 C   0  0  0  0  0  0  0  0  0  0  0  0
   46.8950   34.3510   43.0930 C   0  0  0  0  0  0  0  0  0  0  0  0
   47.1830   33.5150   44.1230 N   0  0  0  0  0  0  0  0  0  0  0  0
   46.4190   33.4320   45.2240 C   0  0  0  0  0  0  0  0  0  0  0  0
   45.3260   34.1830   45.3530 N   0  0  0  0  0  0  0  0  0  0  0  0
   43.8080   35.7870   44.5950 N   0  0  0  0  0  0  0  0  0  0  0  0
   47.6980   34.4480   41.9250 N   0  0  0  0  0  0  0  0  0  0  0  0
   48.9090   35.1930   41.9430 C   0  0  0  0  0  0  0  0  0  0  0  0
   49.6480   35.1900   42.9760 N   0  0  0  0  0  0  0  0  0  0  0  0
   49.2960   35.9430   40.7950 N   0  0  0  0  0  0  0  0  0  0  0  0
   49.5340   34.7210   43.8710 H   0  0  0  0  0  0  0  0  0  0  0  0
   45.4635   35.8480   42.4104 H   0  0  0  0  0  0  0  0  0  0  0  0
   46.6986   32.7361   46.0287 H   0  0  0  0  0  0  0  0  0  0  0  0
   43.4835   36.4586   43.8847 H   0  0  0  0  0  0  0  0  0  0  0  0
   43.2770   35.6651   45.4691 H   0  0  0  0  0  0  0  0  0  0  0  0
   47.4009   33.9755   41.0593 H   0  0  0  0  0  0  0  0  0  0  0  0
   50.1726   36.4838   40.8046 H   0  0  0  0  0  0  0  0  0  0  0  0
   48.6992   35.9444   39.9555 H   0  0  0  0  0  0  0  0  0  0  0  0
  1  7  1  0
  1  6  2  0
  2  1  1  0
  3  2  2  0
  3  4  1  0
  4  5  2  0
  5  6  1  0
  8  9  1  0
  8  3  1  0
  9 10  2  0
 10 12  1  0
 11  9  1  0
  2 13  1  0
  5 14  1  0
  7 15  1  0
  7 16  1  0
  8 17  1  0
 11 18  1  0
 11 19  1  0
M  ISO  2  13  14  14  14
M  END
>  <minimizedAffinity>  (1) 
-4.76836967

>  <minimizedRMSD>  (1) 
0.516495883

$$$$
