
     RDKit          3D

 24 24  0  0  0  0  0  0  0  0999 V2000
   45.1860   35.0670   43.6970 C   0  0  0  0  0  0  0  0  0  0  0  0
   46.1010   35.2540   42.6610 C   0  0  0  0  0  0  0  0  0  0  0  0
   47.3090   34.5030   42.6820 C   0  0  0  0  0  0  0  0  0  0  0  0
   47.4940   33.6420   43.7260 N   0  0  0  0  0  0  0  0  0  0  0  0
   46.5750   33.4980   44.7070 C   0  0  0  0  0  0  0  0  0  0  0  0
   45.4430   34.2010   44.6880 N   0  0  0  0  0  0  0  0  0  0  0  0
   43.9500   35.7580   43.7840 N   0  0  0  0  0  0  0  0  0  0  0  0
   48.2900   34.6820   41.5990 C   0  0  0  0  0  0  0  0  0  0  0  0
   49.3300   33.5690   41.7620 C   0  0  0  0  0  0  0  0  0  0  0  0
   49.0130   35.9830   41.6290 C   0  0  0  0  0  0  0  0  0  0  0  0
   47.5790   34.3930   40.2970 C   0  0  0  0  0  0  0  0  0  0  0  0
   45.8936   35.9648   41.8476 H   0  0  0  0  0  0  0  0  0  0  0  0
   46.7637   32.7928   45.5299 H   0  0  0  0  0  0  0  0  0  0  0  0
   43.6881   36.4384   43.0565 H   0  0  0  0  0  0  0  0  0  0  0  0
   43.3146   35.5793   44.5747 H   0  0  0  0  0  0  0  0  0  0  0  0
   49.5036   33.3832   42.8322 H   0  0  0  0  0  0  0  0  0  0  0  0
   48.9603   32.6491   41.2854 H   0  0  0  0  0  0  0  0  0  0  0  0
   50.2728   33.8755   41.2854 H   0  0  0  0  0  0  0  0  0  0  0  0
   49.1809   36.2852   42.6733 H   0  0  0  0  0  0  0  0  0  0  0  0
   49.9812   35.8763   41.1179 H   0  0  0  0  0  0  0  0  0  0  0  0
   48.4111   36.7489   41.1179 H   0  0  0  0  0  0  0  0  0  0  0  0
   46.5788   33.9865   40.5078 H   0  0  0  0  0  0  0  0  0  0  0  0
   47.4821   35.3231   39.7178 H   0  0  0  0  0  0  0  0  0  0  0  0
   48.1585   33.6591   39.7178 H   0  0  0  0  0  0  0  0  0  0  0  0
  1  7  1  0
  1  6  2  0
  2  3  2  0
  2  1  1  0
  3  4  1  0
  4  5  2  0
  6  5  1  0
  8 10  1  0
  8  9  1  0
  8  3  1  0
 11  8  1  0
  2 12  1  0
  5 13  1  0
  7 14  1  0
  7 15  1  0
  9 16  1  0
  9 17  1  0
  9 18  1  0
 10 19  1  0
 10 20  1  0
 10 21  1  0
 11 22  1  0
 11 23  1  0
 11 24  1  0
M  ISO  8  12  14  13  14  16   8  17   8  18   8  19   8  20   8  21   8
M  ISO  3  22   8  23   8  24   8
M  END
>  <minimizedAffinity>  (1) 
-4.63040686

>  <minimizedRMSD>  (1) 
1.1200484

$$$$
