
     RDKit          3D

 26 27  0  0  0  0  0  0  0  0999 V2000
   44.9410   35.0330   44.3990 C   0  0  0  0  0  0  0  0  0  0  0  0
   45.9180   34.8630   43.4180 C   0  0  0  0  0  0  0  0  0  0  0  0
   46.9830   33.9870   43.6740 C   0  0  0  0  0  0  0  0  0  0  0  0
   47.0230   33.3380   44.8680 N   0  0  0  0  0  0  0  0  0  0  0  0
   46.0510   33.5310   45.7960 C   0  0  0  0  0  0  0  0  0  0  0  0
   45.0210   34.3720   45.5620 N   0  0  0  0  0  0  0  0  0  0  0  0
   43.8200   35.8780   44.2780 N   0  0  0  0  0  0  0  0  0  0  0  0
   47.9790   33.7960   42.7070 N   0  0  0  0  0  0  0  0  0  0  0  0
   47.7560   32.8250   41.6520 C   0  0  0  0  0  0  0  0  0  0  0  0
   48.8320   33.1390   40.6030 C   0  0  0  0  0  0  0  0  0  0  0  0
   50.1100   32.8900   41.2080 N   0  0  0  0  0  0  0  0  0  0  0  0
   50.3790   33.7950   42.2750 C   0  0  0  0  0  0  0  0  0  0  0  0
   49.2030   34.5720   42.7850 C   0  0  0  0  0  0  0  0  0  0  0  0
   45.8545   35.4050   42.4629 H   0  0  0  0  0  0  0  0  0  0  0  0
   46.1035   32.9934   46.7542 H   0  0  0  0  0  0  0  0  0  0  0  0
   43.6780   36.4251   43.4169 H   0  0  0  0  0  0  0  0  0  0  0  0
   43.1425   35.9486   45.0506 H   0  0  0  0  0  0  0  0  0  0  0  0
   47.8746   31.8008   42.0354 H   0  0  0  0  0  0  0  0  0  0  0  0
   46.7389   32.8856   41.2374 H   0  0  0  0  0  0  0  0  0  0  0  0
   48.7608   34.1928   40.2958 H   0  0  0  0  0  0  0  0  0  0  0  0
   48.6972   32.5113   39.7098 H   0  0  0  0  0  0  0  0  0  0  0  0
   50.1222   31.9282   41.5763 H   0  0  0  0  0  0  0  0  0  0  0  0
   50.7893   33.2144   43.1144 H   0  0  0  0  0  0  0  0  0  0  0  0
   51.0745   34.5418   41.8645 H   0  0  0  0  0  0  0  0  0  0  0  0
   49.0875   35.4837   42.1804 H   0  0  0  0  0  0  0  0  0  0  0  0
   49.3862   34.8228   43.8402 H   0  0  0  0  0  0  0  0  0  0  0  0
  1  6  2  0
  2  3  2  0
  2  1  1  0
  3  4  1  0
  4  5  2  0
  6  5  1  0
  7  1  1  0
  8 13  1  0
  8  3  1  0
  9  8  1  0
 10 11  1  0
 10  9  1  0
 11 12  1  0
 12 13  1  0
  2 14  1  0
  5 15  1  0
  7 16  1  0
  7 17  1  0
  9 18  1  0
  9 19  1  0
 10 20  1  0
 10 21  1  0
 11 22  1  0
 12 23  1  0
 12 24  1  0
 13 25  1  0
 13 26  1  0
M  ISO  8  14  14  15  14  18  13  19  13  20  13  21  13  22   5  23  13
M  ISO  3  24  13  25  13  26  13
M  END
>  <minimizedAffinity>  (1) 
-4.6557188

>  <minimizedRMSD>  (1) 
0.804668963

$$$$
