
     RDKit          3D

 21 21  0  0  0  0  0  0  0  0999 V2000
   44.9650   35.1200   43.9400 C   0  0  0  0  0  0  0  0  0  0  0  0
   45.8040   35.5370   42.9020 C   0  0  0  0  0  0  0  0  0  0  0  0
   47.0420   34.8920   42.7680 C   0  0  0  0  0  0  0  0  0  0  0  0
   47.3510   33.8980   43.6560 N   0  0  0  0  0  0  0  0  0  0  0  0
   46.5040   33.5310   44.6430 C   0  0  0  0  0  0  0  0  0  0  0  0
   45.3180   34.1430   44.7780 N   0  0  0  0  0  0  0  0  0  0  0  0
   43.6880   35.6880   44.1860 N   0  0  0  0  0  0  0  0  0  0  0  0
   47.9530   35.3140   41.6770 C   0  0  0  0  0  0  0  0  0  0  0  0
   49.3880   35.2160   42.1320 C   0  0  0  0  0  0  0  0  0  0  0  0
   47.7120   34.4030   40.4730 C   0  0  0  0  0  0  0  0  0  0  0  0
   45.5037   36.3421   42.2152 H   0  0  0  0  0  0  0  0  0  0  0  0
   46.7882   32.7274   45.3383 H   0  0  0  0  0  0  0  0  0  0  0  0
   43.3381   36.4482   43.5855 H   0  0  0  0  0  0  0  0  0  0  0  0
   43.1110   35.3401   44.9651 H   0  0  0  0  0  0  0  0  0  0  0  0
   47.7548   36.3600   41.4004 H   0  0  0  0  0  0  0  0  0  0  0  0
   49.4247   35.2135   43.2314 H   0  0  0  0  0  0  0  0  0  0  0  0
   49.8316   34.2855   41.7482 H   0  0  0  0  0  0  0  0  0  0  0  0
   49.9540   36.0776   41.7482 H   0  0  0  0  0  0  0  0  0  0  0  0
   47.4453   33.3950   40.8235 H   0  0  0  0  0  0  0  0  0  0  0  0
   46.8904   34.8090   39.8647 H   0  0  0  0  0  0  0  0  0  0  0  0
   48.6269   34.3496   39.8647 H   0  0  0  0  0  0  0  0  0  0  0  0
  1  7  1  0
  1  6  2  0
  2  1  1  0
  3  2  2  0
  3  4  1  0
  4  5  2  0
  5  6  1  0
  8  9  1  0
  8  3  1  0
 10  8  1  0
  2 11  1  0
  5 12  1  0
  7 13  1  0
  7 14  1  0
  8 15  1  0
  9 16  1  0
  9 17  1  0
  9 18  1  0
 10 19  1  0
 10 20  1  0
 10 21  1  0
M  ISO  8  11  14  12  14  15   8  16   8  17   8  18   8  19   8  20   8
M  ISO  1  21   8
M  END
>  <minimizedAffinity>  (1) 
-4.43057823

>  <minimizedRMSD>  (1) 
1.30475974

$$$$
