
     RDKit          3D

 22 23  0  0  0  0  0  0  0  0999 V2000
   44.9790   35.0500   44.3040 C   0  0  0  0  0  0  0  0  0  0  0  0
   46.0650   34.6700   43.5110 C   0  0  0  0  0  0  0  0  0  0  0  0
   46.9870   33.7530   44.0360 C   0  0  0  0  0  0  0  0  0  0  0  0
   46.7670   33.2880   45.2920 N   0  0  0  0  0  0  0  0  0  0  0  0
   45.7160   33.6770   46.0180 C   0  0  0  0  0  0  0  0  0  0  0  0
   44.8170   34.5560   45.5370 N   0  0  0  0  0  0  0  0  0  0  0  0
   43.9910   35.9680   43.8710 N   0  0  0  0  0  0  0  0  0  0  0  0
   48.1270   33.3280   43.2570 C   0  0  0  0  0  0  0  0  0  0  0  0
   48.3650   32.0540   42.7880 C   0  0  0  0  0  0  0  0  0  0  0  0
   49.4930   31.7540   42.0490 C   0  0  0  0  0  0  0  0  0  0  0  0
   50.4310   32.6860   41.7380 C   0  0  0  0  0  0  0  0  0  0  0  0
   50.2130   33.9680   42.1960 C   0  0  0  0  0  0  0  0  0  0  0  0
   49.0890   34.2690   42.9340 C   0  0  0  0  0  0  0  0  0  0  0  0
   46.1937   35.0806   42.4986 H   0  0  0  0  0  0  0  0  0  0  0  0
   45.5819   33.2703   47.0312 H   0  0  0  0  0  0  0  0  0  0  0  0
   44.0537   36.3873   42.9323 H   0  0  0  0  0  0  0  0  0  0  0  0
   43.2099   36.2162   44.4948 H   0  0  0  0  0  0  0  0  0  0  0  0
   47.6393   31.2569   43.0074 H   0  0  0  0  0  0  0  0  0  0  0  0
   49.6371   30.7211   41.6991 H   0  0  0  0  0  0  0  0  0  0  0  0
   51.3233   32.4297   41.1480 H   0  0  0  0  0  0  0  0  0  0  0  0
   50.9437   34.7585   41.9700 H   0  0  0  0  0  0  0  0  0  0  0  0
   48.9502   35.3033   43.2819 H   0  0  0  0  0  0  0  0  0  0  0  0
  1  6  2  0
  2  3  2  0
  2  1  1  0
  3  4  1  0
  4  5  2  0
  6  5  1  0
  7  1  1  0
  8  3  1  0
  9  8  2  0
 10  9  1  0
 11 10  2  0
 11 12  1  0
 12 13  2  0
 13  8  1  0
  2 14  1  0
  5 15  1  0
  7 16  1  0
  7 17  1  0
  9 18  1  0
 10 19  1  0
 11 20  1  0
 12 21  1  0
 13 22  1  0
M  ISO  7  14  14  15  14  18  14  19  14  20  14  21  14  22  14
M  END
>  <minimizedAffinity>  (1) 
-4.56188583

>  <minimizedRMSD>  (1) 
0.98550719

$$$$
