
     RDKit          3D

 18 19  0  0  0  0  0  0  0  0999 V2000
   44.9090   35.0170   44.5250 C   0  0  0  0  0  0  0  0  0  0  0  0
   45.9040   34.7540   43.5850 C   0  0  0  0  0  0  0  0  0  0  0  0
   46.9250   33.8490   43.9060 C   0  0  0  0  0  0  0  0  0  0  0  0
   46.8640   33.2860   45.1370 N   0  0  0  0  0  0  0  0  0  0  0  0
   45.8920   33.5560   46.0270 C   0  0  0  0  0  0  0  0  0  0  0  0
   44.9230   34.4160   45.7180 N   0  0  0  0  0  0  0  0  0  0  0  0
   43.8440   35.9120   44.2870 N   0  0  0  0  0  0  0  0  0  0  0  0
   47.9940   33.5400   42.9550 C   0  0  0  0  0  0  0  0  0  0  0  0
   47.7900   32.5820   41.9450 C   0  0  0  0  0  0  0  0  0  0  0  0
   49.3770   32.5550   41.0410 S   0  0  0  0  0  0  0  0  0  0  0  0
   50.0750   33.8800   42.2090 C   0  0  0  0  0  0  0  0  0  0  0  0
   49.1910   34.0600   42.9050 N   0  0  0  0  0  0  0  0  0  0  0  0
   45.8881   35.2505   42.6035 H   0  0  0  0  0  0  0  0  0  0  0  0
   45.8975   33.0657   47.0117 H   0  0  0  0  0  0  0  0  0  0  0  0
   43.7783   36.4063   43.3857 H   0  0  0  0  0  0  0  0  0  0  0  0
   43.1325   36.0709   45.0146 H   0  0  0  0  0  0  0  0  0  0  0  0
   46.8858   31.9879   41.7461 H   0  0  0  0  0  0  0  0  0  0  0  0
   51.0697   34.3495   42.2126 H   0  0  0  0  0  0  0  0  0  0  0  0
  1  6  2  0
  2  3  2  0
  2  1  1  0
  3  4  1  0
  4  5  2  0
  6  5  1  0
  7  1  1  0
  8  3  1  0
  9  8  2  0
 10  9  1  0
 10 11  1  0
 11 12  2  0
 12  8  1  0
  2 13  1  0
  5 14  1  0
  7 15  1  0
  7 16  1  0
  9 17  1  0
 11 18  1  0
M  ISO  4  13  14  14  14  17  14  18  14
M  END
>  <minimizedAffinity>  (1) 
-4.09906387

>  <minimizedRMSD>  (1) 
0.542776525

$$$$
