
     RDKit          3D

 18 18  0  0  0  0  0  0  0  0999 V2000
   45.0130   35.1550   43.9810 C   0  0  0  0  0  0  0  0  0  0  0  0
   45.7540   35.4210   42.8230 C   0  0  0  0  0  0  0  0  0  0  0  0
   46.9510   34.7150   42.6400 C   0  0  0  0  0  0  0  0  0  0  0  0
   47.3200   33.8210   43.5940 N   0  0  0  0  0  0  0  0  0  0  0  0
   46.5840   33.5940   44.6870 C   0  0  0  0  0  0  0  0  0  0  0  0
   45.4300   34.2580   44.8870 N   0  0  0  0  0  0  0  0  0  0  0  0
   43.7890   35.7900   44.2950 N   0  0  0  0  0  0  0  0  0  0  0  0
   47.7560   34.9780   41.4230 C   0  0  0  0  0  0  0  0  0  0  0  0
   49.0000   35.7760   41.7040 C   0  0  0  0  0  0  0  0  0  0  0  0
   45.4089   36.1581   42.0830 H   0  0  0  0  0  0  0  0  0  0  0  0
   46.9246   32.8577   45.4299 H   0  0  0  0  0  0  0  0  0  0  0  0
   43.3944   36.4933   43.6542 H   0  0  0  0  0  0  0  0  0  0  0  0
   43.2921   35.5492   45.1645 H   0  0  0  0  0  0  0  0  0  0  0  0
   47.1358   35.5359   40.7060 H   0  0  0  0  0  0  0  0  0  0  0  0
   48.0727   34.0045   41.0204 H   0  0  0  0  0  0  0  0  0  0  0  0
   49.1401   35.8659   42.7913 H   0  0  0  0  0  0  0  0  0  0  0  0
   49.8697   35.2668   41.2631 H   0  0  0  0  0  0  0  0  0  0  0  0
   48.8998   36.7788   41.2631 H   0  0  0  0  0  0  0  0  0  0  0  0
  1  7  1  0
  1  6  2  0
  2  1  1  0
  3  2  2  0
  3  4  1  0
  4  5  2  0
  5  6  1  0
  8  9  1  0
  8  3  1  0
  2 10  1  0
  5 11  1  0
  7 12  1  0
  7 13  1  0
  8 14  1  0
  8 15  1  0
  9 16  1  0
  9 17  1  0
  9 18  1  0
M  ISO  7  10  14  11  14  14   8  15   8  16   8  17   8  18   8
M  END
>  <minimizedAffinity>  (1) 
-4.1519928

>  <minimizedRMSD>  (1) 
0.968041122

$$$$
