
     RDKit          3D

 13 13  0  0  0  0  0  0  0  0999 V2000
   44.9490   35.0380   44.3670 C   0  0  0  0  0  0  0  0  0  0  0  0
   45.8860   34.9420   43.3330 C   0  0  0  0  0  0  0  0  0  0  0  0
   46.9720   34.0700   43.5260 C   0  0  0  0  0  0  0  0  0  0  0  0
   47.0460   33.3790   44.6970 N   0  0  0  0  0  0  0  0  0  0  0  0
   46.1250   33.5050   45.6600 C   0  0  0  0  0  0  0  0  0  0  0  0
   45.0750   34.3360   45.4950 N   0  0  0  0  0  0  0  0  0  0  0  0
   43.8020   35.8740   44.3200 N   0  0  0  0  0  0  0  0  0  0  0  0
   47.8360   34.0350   42.4700 O   0  0  0  0  0  0  0  0  0  0  0  0
   45.7777   35.5250   42.4065 H   0  0  0  0  0  0  0  0  0  0  0  0
   46.2247   32.9278   46.5911 H   0  0  0  0  0  0  0  0  0  0  0  0
   43.6211   36.4539   43.4882 H   0  0  0  0  0  0  0  0  0  0  0  0
   43.1510   35.9005   45.1177 H   0  0  0  0  0  0  0  0  0  0  0  0
   48.6355   33.4521   42.5037 H   0  0  0  0  0  0  0  0  0  0  0  0
  1  6  2  0
  2  3  2  0
  2  1  1  0
  3  4  1  0
  4  5  2  0
  6  5  1  0
  7  1  1  0
  8  3  1  0
  2  9  1  0
  5 10  1  0
  7 11  1  0
  7 12  1  0
  8 13  1  0
M  ISO  3   9  14  10  14  13   3
M  END
>  <minimizedAffinity>  (1) 
-3.34537888

>  <minimizedRMSD>  (1) 
0.0404733978

$$$$
