
     RDKit          3D

 14 14  0  0  0  0  0  0  0  0999 V2000
   44.9310   35.1610   44.0120 C   0  0  0  0  0  0  0  0  0  0  0  0
   45.7690   35.4130   42.9000 C   0  0  0  0  0  0  0  0  0  0  0  0
   46.9640   34.6830   42.8140 C   0  0  0  0  0  0  0  0  0  0  0  0
   47.2590   33.7750   43.7950 N   0  0  0  0  0  0  0  0  0  0  0  0
   46.4130   33.5850   44.8300 C   0  0  0  0  0  0  0  0  0  0  0  0
   45.2630   34.2670   44.9410 N   0  0  0  0  0  0  0  0  0  0  0  0
   43.7030   35.8160   44.2340 N   0  0  0  0  0  0  0  0  0  0  0  0
   47.7750   34.9800   41.6640 C   0  0  0  0  0  0  0  0  0  0  0  0
   48.7020   35.8300   41.6150 O   0  0  0  0  0  0  0  0  0  0  0  0
   45.4943   36.1522   42.1331 H   0  0  0  0  0  0  0  0  0  0  0  0
   46.6743   32.8494   45.6050 H   0  0  0  0  0  0  0  0  0  0  0  0
   43.3684   36.5236   43.5645 H   0  0  0  0  0  0  0  0  0  0  0  0
   43.1402   35.5871   45.0657 H   0  0  0  0  0  0  0  0  0  0  0  0
   47.5664   34.4133   40.7446 H   0  0  0  0  0  0  0  0  0  0  0  0
  1  7  1  0
  1  6  2  0
  2  1  1  0
  3  2  2  0
  3  4  1  0
  4  5  2  0
  5  6  1  0
  8  3  1  0
  9  8  2  0
  2 10  1  0
  5 11  1  0
  7 12  1  0
  7 13  1  0
  8 14  1  0
M  ISO  3  10  14  11  14  14   6
M  END
>  <minimizedAffinity>  (1) 
-3.72552967

>  <minimizedRMSD>  (1) 
1.25610805

$$$$
