
     RDKit          3D

 32 34  0  0  0  0  0  0  0  0999 V2000
   45.6880   31.9900   43.4840 N   0  0  0  0  0  0  0  0  0  0  0  0
   44.9550   30.8590   43.4660 C   0  0  0  0  0  0  0  0  0  0  0  0
   45.7550   29.8400   43.1040 N   0  0  0  0  0  0  0  0  0  0  0  0
   46.9850   30.3240   42.8930 C   0  0  0  0  0  0  0  0  0  0  0  0
   48.2140   29.7810   42.5090 C   0  0  0  0  0  0  0  0  0  0  0  0
   49.2670   30.6040   42.3970 N   0  0  0  0  0  0  0  0  0  0  0  0
   49.2360   31.9360   42.6290 C   0  0  0  0  0  0  0  0  0  0  0  0
   48.0450   32.4690   43.0030 N   0  0  0  0  0  0  0  0  0  0  0  0
   46.9480   31.6800   43.1310 C   0  0  0  0  0  0  0  0  0  0  0  0
   44.3250   35.3900   43.0760 C   0  0  0  0  0  0  0  0  0  0  0  0
   44.7470   34.0840   42.7350 C   0  0  0  0  0  0  0  0  0  0  0  0
   45.2590   33.3090   43.8100 C   0  0  0  0  0  0  0  0  0  0  0  0
   45.3150   33.8480   45.0680 N   0  0  0  0  0  0  0  0  0  0  0  0
   44.8920   35.0960   45.3000 C   0  0  0  0  0  0  0  0  0  0  0  0
   44.4040   35.8690   44.3370 N   0  0  0  0  0  0  0  0  0  0  0  0
   43.7910   36.2810   42.1170 N   0  0  0  0  0  0  0  0  0  0  0  0
   50.4200   32.8160   42.4950 C   0  0  0  0  0  0  0  0  0  0  0  0
   51.3540   32.3520   41.4020 C   0  0  0  0  0  0  0  0  0  0  0  0
   50.0570   34.2780   42.3350 C   0  0  0  0  0  0  0  0  0  0  0  0
   43.8844   30.7823   43.7065 H   0  0  0  0  0  0  0  0  0  0  0  0
   48.3153   28.7051   42.3037 H   0  0  0  0  0  0  0  0  0  0  0  0
   44.6832   33.6950   41.7081 H   0  0  0  0  0  0  0  0  0  0  0  0
   44.9505   35.4952   46.3233 H   0  0  0  0  0  0  0  0  0  0  0  0
   43.6999   35.9860   41.1344 H   0  0  0  0  0  0  0  0  0  0  0  0
   43.4930   37.2252   42.4009 H   0  0  0  0  0  0  0  0  0  0  0  0
   50.9629   32.7336   43.4482 H   0  0  0  0  0  0  0  0  0  0  0  0
   52.2527   31.9056   41.8527 H   0  0  0  0  0  0  0  0  0  0  0  0
   50.8451   31.6019   40.7787 H   0  0  0  0  0  0  0  0  0  0  0  0
   51.6443   33.2107   40.7787 H   0  0  0  0  0  0  0  0  0  0  0  0
   49.9427   34.7382   43.3276 H   0  0  0  0  0  0  0  0  0  0  0  0
   50.8540   34.7951   41.7806 H   0  0  0  0  0  0  0  0  0  0  0  0
   49.1107   34.3623   41.7806 H   0  0  0  0  0  0  0  0  0  0  0  0
  1 12  1  0
  2  1  1  0
  3  2  2  0
  4  3  1  0
  4  9  2  0
  5  4  1  0
  6  5  2  0
  6  7  1  0
  7  8  2  0
  8  9  1  0
  9  1  1  0
 10 15  2  0
 11 10  1  0
 11 12  2  0
 12 13  1  0
 13 14  2  0
 15 14  1  0
 16 10  1  0
 17  7  1  0
 18 17  1  0
 19 17  1  0
  2 20  1  0
  5 21  1  0
 11 22  1  0
 14 23  1  0
 16 24  1  0
 16 25  1  0
 17 26  1  0
 18 27  1  0
 18 28  1  0
 18 29  1  0
 19 30  1  0
 19 31  1  0
 19 32  1  0
M  ISO  8  20  14  21  14  22  14  23  14  26   8  27   8  28   8  29   8
M  ISO  3  30   8  31   8  32   8
M  END
>  <minimizedAffinity>  (1) 
-4.37121058

>  <minimizedRMSD>  (1) 
2.18932891

$$$$
