
     RDKit          3D

 28 31  0  0  0  0  0  0  0  0999 V2000
   46.6220   32.7230   42.4850 N   0  0  0  0  0  0  0  0  0  0  0  0
   47.4370   32.2710   41.5240 C   0  0  0  0  0  0  0  0  0  0  0  0
   48.2400   31.3310   42.0430 N   0  0  0  0  0  0  0  0  0  0  0  0
   47.9420   31.1820   43.3330 C   0  0  0  0  0  0  0  0  0  0  0  0
   48.4140   30.3820   44.3750 C   0  0  0  0  0  0  0  0  0  0  0  0
   47.8440   30.5130   45.5990 N   0  0  0  0  0  0  0  0  0  0  0  0
   46.8550   31.3590   45.8800 C   0  0  0  0  0  0  0  0  0  0  0  0
   46.3690   32.1570   44.8860 N   0  0  0  0  0  0  0  0  0  0  0  0
   46.9100   32.0610   43.6370 C   0  0  0  0  0  0  0  0  0  0  0  0
   44.8900   35.9620   42.9240 C   0  0  0  0  0  0  0  0  0  0  0  0
   45.8930   34.9760   42.9960 C   0  0  0  0  0  0  0  0  0  0  0  0
   45.6000   33.7220   42.4100 C   0  0  0  0  0  0  0  0  0  0  0  0
   44.3930   33.5330   41.8190 N   0  0  0  0  0  0  0  0  0  0  0  0
   43.4770   34.5140   41.7830 C   0  0  0  0  0  0  0  0  0  0  0  0
   43.7110   35.7050   42.3210 N   0  0  0  0  0  0  0  0  0  0  0  0
   45.0430   37.2580   43.4650 N   0  0  0  0  0  0  0  0  0  0  0  0
   46.3080   31.4260   47.2310 C   0  0  0  0  0  0  0  0  0  0  0  0
   46.7960   30.6330   48.2020 N   0  0  0  0  0  0  0  0  0  0  0  0
   46.1990   30.8270   49.3190 O   0  0  0  0  0  0  0  0  0  0  0  0
   45.3020   31.7530   49.1100 C   0  0  0  0  0  0  0  0  0  0  0  0
   45.3360   32.1600   47.8070 N   0  0  0  0  0  0  0  0  0  0  0  0
   47.4464   32.6147   40.4791 H   0  0  0  0  0  0  0  0  0  0  0  0
   49.2289   29.6624   44.2076 H   0  0  0  0  0  0  0  0  0  0  0  0
   46.8588   35.1716   43.4848 H   0  0  0  0  0  0  0  0  0  0  0  0
   42.5088   34.3263   41.2958 H   0  0  0  0  0  0  0  0  0  0  0  0
   44.2779   37.9429   43.3854 H   0  0  0  0  0  0  0  0  0  0  0  0
   45.9197   37.5180   43.9390 H   0  0  0  0  0  0  0  0  0  0  0  0
   44.6170   32.1485   49.8744 H   0  0  0  0  0  0  0  0  0  0  0  0
  1  9  1  0
  2  3  2  0
  2  1  1  0
  3  4  1  0
  4  9  2  0
  4  5  1  0
  5  6  2  0
  6  7  1  0
  7 17  1  0
  8  7  2  0
  9  8  1  0
 10 11  2  0
 10 16  1  0
 12  1  1  0
 12 11  1  0
 13 12  2  0
 14 13  1  0
 14 15  2  0
 15 10  1  0
 17 21  1  0
 17 18  2  0
 18 19  1  0
 20 19  1  0
 21 20  2  0
  2 22  1  0
  5 23  1  0
 11 24  1  0
 14 25  1  0
 16 26  1  0
 16 27  1  0
 20 28  1  0
M  ISO  5  22  14  23  14  24  14  25  14  28  14
M  END
>  <minimizedAffinity>  (1) 
-4.84073973

>  <minimizedRMSD>  (1) 
5.46128702

$$$$
