
     RDKit          3D

 40 43  0  0  0  0  0  0  0  0999 V2000
   51.9140   31.1870   41.1890 N   0  0  0  0  0  0  0  0  0  0  0  0
   52.9250   31.1360   40.3010 C   0  0  0  0  0  0  0  0  0  0  0  0
   53.6710   30.0530   40.5830 N   0  0  0  0  0  0  0  0  0  0  0  0
   53.1470   29.4270   41.6280 C   0  0  0  0  0  0  0  0  0  0  0  0
   53.4610   28.2810   42.3660 C   0  0  0  0  0  0  0  0  0  0  0  0
   52.6750   27.9480   43.3920 N   0  0  0  0  0  0  0  0  0  0  0  0
   51.5810   28.6270   43.7930 C   0  0  0  0  0  0  0  0  0  0  0  0
   51.2620   29.7400   43.0890 N   0  0  0  0  0  0  0  0  0  0  0  0
   52.0270   30.1330   42.0320 C   0  0  0  0  0  0  0  0  0  0  0  0
   50.0240   34.1460   42.3130 C   0  0  0  0  0  0  0  0  0  0  0  0
   51.0340   33.2000   42.2070 C   0  0  0  0  0  0  0  0  0  0  0  0
   50.8760   32.1450   41.2890 C   0  0  0  0  0  0  0  0  0  0  0  0
   49.7330   32.1170   40.5550 N   0  0  0  0  0  0  0  0  0  0  0  0
   48.7690   33.0410   40.6740 C   0  0  0  0  0  0  0  0  0  0  0  0
   48.9100   34.0430   41.5410 N   0  0  0  0  0  0  0  0  0  0  0  0
   50.0540   35.2490   43.1890 N   0  0  0  0  0  0  0  0  0  0  0  0
   50.8230   28.1250   44.9430 C   0  0  0  0  0  0  0  0  0  0  0  0
   51.2170   28.7740   46.2340 C   0  0  0  0  0  0  0  0  0  0  0  0
   50.1220   29.3040   46.9920 N   0  0  0  0  0  0  0  0  0  0  0  0
   48.8420   29.3700   46.5360 C   0  0  0  0  0  0  0  0  0  0  0  0
   47.8420   29.8970   47.3340 C   0  0  0  0  0  0  0  0  0  0  0  0
   48.1500   30.3620   48.6090 C   0  0  0  0  0  0  0  0  0  0  0  0
   47.1610   30.9120   49.4680 N   0  0  0  0  0  0  0  0  0  0  0  0
   49.4320   30.2730   49.0120 N   0  0  0  0  0  0  0  0  0  0  0  0
   50.4130   29.7630   48.2450 C   0  0  0  0  0  0  0  0  0  0  0  0
   51.5930   29.7130   48.6930 O   0  0  0  0  0  0  0  0  0  0  0  0
   53.1085   31.8538   39.4880 H   0  0  0  0  0  0  0  0  0  0  0  0
   54.3365   27.6677   42.1065 H   0  0  0  0  0  0  0  0  0  0  0  0
   51.9392   33.2733   42.8276 H   0  0  0  0  0  0  0  0  0  0  0  0
   47.8617   32.9720   40.0560 H   0  0  0  0  0  0  0  0  0  0  0  0
   49.2648   35.9105   43.2114 H   0  0  0  0  0  0  0  0  0  0  0  0
   50.8651   35.3939   43.8070 H   0  0  0  0  0  0  0  0  0  0  0  0
   49.7538   28.3148   44.7676 H   0  0  0  0  0  0  0  0  0  0  0  0
   51.0404   27.0507   45.0358 H   0  0  0  0  0  0  0  0  0  0  0  0
   51.7316   28.0239   46.8525 H   0  0  0  0  0  0  0  0  0  0  0  0
   51.8580   29.6285   45.9714 H   0  0  0  0  0  0  0  0  0  0  0  0
   48.6008   29.0025   45.5277 H   0  0  0  0  0  0  0  0  0  0  0  0
   46.8080   29.9482   46.9622 H   0  0  0  0  0  0  0  0  0  0  0  0
   47.4225   31.2473   50.4062 H   0  0  0  0  0  0  0  0  0  0  0  0
   46.1825   30.9755   49.1526 H   0  0  0  0  0  0  0  0  0  0  0  0
  1 12  1  0
  1  9  1  0
  2  3  2  0
  2  1  1  0
  3  4  1  0
  4  9  2  0
  4  5  1  0
  5  6  2  0
  6  7  1  0
  7 17  1  0
  8  7  2  0
  9  8  1  0
 10 16  1  0
 11 10  2  0
 12 11  1  0
 13 14  1  0
 13 12  2  0
 14 15  2  0
 15 10  1  0
 17 18  1  0
 18 19  1  0
 19 25  1  0
 20 19  1  0
 20 21  2  0
 21 22  1  0
 22 24  2  0
 22 23  1  0
 25 26  2  0
 25 24  1  0
  2 27  1  0
  5 28  1  0
 11 29  1  0
 14 30  1  0
 16 31  1  0
 16 32  1  0
 17 33  1  0
 17 34  1  0
 18 35  1  0
 18 36  1  0
 20 37  1  0
 21 38  1  0
 23 39  1  0
 23 40  1  0
M  ISO  8  27  14  28  14  29  14  30  14  33   8  34   8  35   8  36   8
M  ISO  2  37  14  38  14
M  END
>  <minimizedAffinity>  (1) 
-5.09738779

>  <minimizedRMSD>  (1) 
8.36159897

$$$$
