
     RDKit          3D

 44 47  0  0  0  0  0  0  0  0999 V2000
   46.3210   32.2740   44.7920 N   0  0  0  0  0  0  0  0  0  0  0  0
   46.0760   31.2890   45.6670 C   0  0  0  0  0  0  0  0  0  0  0  0
   46.9940   30.3220   45.4700 N   0  0  0  0  0  0  0  0  0  0  0  0
   47.8040   30.6900   44.4900 C   0  0  0  0  0  0  0  0  0  0  0  0
   48.9090   30.1270   43.8460 C   0  0  0  0  0  0  0  0  0  0  0  0
   49.4870   30.8240   42.8500 N   0  0  0  0  0  0  0  0  0  0  0  0
   49.0880   32.0300   42.4130 C   0  0  0  0  0  0  0  0  0  0  0  0
   48.0200   32.6030   43.0170 N   0  0  0  0  0  0  0  0  0  0  0  0
   47.4000   31.9340   44.0330 C   0  0  0  0  0  0  0  0  0  0  0  0
   44.5350   35.0600   43.1530 C   0  0  0  0  0  0  0  0  0  0  0  0
   45.2320   33.8620   43.3220 C   0  0  0  0  0  0  0  0  0  0  0  0
   45.6190   33.4880   44.6340 C   0  0  0  0  0  0  0  0  0  0  0  0
   45.2810   34.3310   45.6370 N   0  0  0  0  0  0  0  0  0  0  0  0
   44.6130   35.4710   45.4400 C   0  0  0  0  0  0  0  0  0  0  0  0
   44.2400   35.8390   44.2100 N   0  0  0  0  0  0  0  0  0  0  0  0
   44.1050   35.5320   41.8820 N   0  0  0  0  0  0  0  0  0  0  0  0
   49.8280   32.6430   41.3030 C   0  0  0  0  0  0  0  0  0  0  0  0
   49.2870   32.2700   39.9500 C   0  0  0  0  0  0  0  0  0  0  0  0
   48.0510   32.8740   39.5880 N   0  0  0  0  0  0  0  0  0  0  0  0
   48.1460   34.2560   39.2220 C   0  0  0  0  0  0  0  0  0  0  0  0
   48.3050   34.4510   37.7300 C   0  0  0  0  0  0  0  0  0  0  0  0
   48.9740   33.3210   37.0140 C   0  0  0  0  0  0  0  0  0  0  0  0
   48.4120   31.9790   37.3580 C   0  0  0  0  0  0  0  0  0  0  0  0
   47.4570   32.1380   38.5000 C   0  0  0  0  0  0  0  0  0  0  0  0
   45.2686   31.2726   46.4138 H   0  0  0  0  0  0  0  0  0  0  0  0
   49.2958   29.1415   44.1447 H   0  0  0  0  0  0  0  0  0  0  0  0
   45.4748   33.2244   42.4592 H   0  0  0  0  0  0  0  0  0  0  0  0
   44.3674   36.1134   46.2985 H   0  0  0  0  0  0  0  0  0  0  0  0
   43.5935   36.4231   41.8096 H   0  0  0  0  0  0  0  0  0  0  0  0
   44.3052   34.9827   41.0340 H   0  0  0  0  0  0  0  0  0  0  0  0
   49.7762   33.7365   41.4105 H   0  0  0  0  0  0  0  0  0  0  0  0
   50.8616   32.2701   41.3549 H   0  0  0  0  0  0  0  0  0  0  0  0
   50.0357   32.5565   39.1968 H   0  0  0  0  0  0  0  0  0  0  0  0
   49.0884   31.1891   39.9960 H   0  0  0  0  0  0  0  0  0  0  0  0
   47.2310   34.7713   39.5495 H   0  0  0  0  0  0  0  0  0  0  0  0
   49.0405   34.6702   39.7103 H   0  0  0  0  0  0  0  0  0  0  0  0
   47.3039   34.5862   37.2947 H   0  0  0  0  0  0  0  0  0  0  0  0
   48.9581   35.3268   37.6016 H   0  0  0  0  0  0  0  0  0  0  0  0
   50.0426   33.3279   37.2748 H   0  0  0  0  0  0  0  0  0  0  0  0
   48.8053   33.4755   35.9380 H   0  0  0  0  0  0  0  0  0  0  0  0
   47.8824   31.5650   36.4873 H   0  0  0  0  0  0  0  0  0  0  0  0
   49.2243   31.2933   37.6409 H   0  0  0  0  0  0  0  0  0  0  0  0
   46.5657   32.6781   38.1479 H   0  0  0  0  0  0  0  0  0  0  0  0
   47.1889   31.1364   38.8672 H   0  0  0  0  0  0  0  0  0  0  0  0
  1  2  1  0
  3  2  2  0
  4  3  1  0
  5  4  2  0
  6  5  1  0
  7  6  2  0
  7  8  1  0
  8  9  2  0
  9  4  1  0
  9  1  1  0
 10 11  2  0
 10 15  1  0
 11 12  1  0
 12  1  1  0
 12 13  2  0
 14 13  1  0
 15 14  2  0
 16 10  1  0
 17  7  1  0
 18 17  1  0
 19 18  1  0
 20 19  1  0
 21 20  1  0
 22 23  1  0
 22 21  1  0
 23 24  1  0
 24 19  1  0
  2 25  1  0
  5 26  1  0
 11 27  1  0
 14 28  1  0
 16 29  1  0
 16 30  1  0
 17 31  1  0
 17 32  1  0
 18 33  1  0
 18 34  1  0
 20 35  1  0
 20 36  1  0
 21 37  1  0
 21 38  1  0
 22 39  1  0
 22 40  1  0
 23 41  1  0
 23 42  1  0
 24 43  1  0
 24 44  1  0
M  ISO  8  25  14  26  14  27  14  28  14  31   8  32   8  33   8  34   8
M  ISO  8  35  13  36  13  37  13  38  13  39  13  40  13  41  13  42  13
M  ISO  2  43  13  44  13
M  END
>  <minimizedAffinity>  (1) 
-4.99971867

>  <minimizedRMSD>  (1) 
2.92676425

$$$$
