
     RDKit          3D

 34 34  0  0  0  0  0  0  0  0999 V2000
   49.1280   34.1740   41.7580 C   0  0  0  0  0  0  0  0  0  0  0  0
   45.9410   34.6590   43.7790 C   0  0  0  0  0  0  0  0  0  0  0  0
   46.9570   34.9160   42.8220 C   0  0  0  0  0  0  0  0  0  0  0  0
   48.0200   34.0100   42.7150 C   0  0  0  0  0  0  0  0  0  0  0  0
   48.0260   32.9150   43.5410 N   0  0  0  0  0  0  0  0  0  0  0  0
   47.0430   32.6940   44.4470 C   0  0  0  0  0  0  0  0  0  0  0  0
   46.0130   33.5540   44.5650 N   0  0  0  0  0  0  0  0  0  0  0  0
   44.8170   35.6280   43.8860 C   0  0  0  0  0  0  0  0  0  0  0  0
   43.7020   35.1640   42.9590 C   0  0  0  0  0  0  0  0  0  0  0  0
   44.3100   35.7820   45.2830 C   0  0  0  0  0  0  0  0  0  0  0  0
   45.3150   36.9390   43.3230 C   0  0  0  0  0  0  0  0  0  0  0  0
   49.0020   35.5470   41.1280 C   0  0  0  0  0  0  0  0  0  0  0  0
   48.9650   33.1610   40.6360 C   0  0  0  0  0  0  0  0  0  0  0  0
   50.4910   33.9460   42.3470 C   0  0  0  0  0  0  0  0  0  0  0  0
   46.9108   35.8069   42.1785 H   0  0  0  0  0  0  0  0  0  0  0  0
   47.0865   31.8041   45.0921 H   0  0  0  0  0  0  0  0  0  0  0  0
   42.8505   34.8096   43.5584 H   0  0  0  0  0  0  0  0  0  0  0  0
   43.3799   36.0028   42.3244 H   0  0  0  0  0  0  0  0  0  0  0  0
   44.0700   34.3443   42.3244 H   0  0  0  0  0  0  0  0  0  0  0  0
   45.1134   35.5380   45.9936 H   0  0  0  0  0  0  0  0  0  0  0  0
   43.9827   36.8201   45.4419 H   0  0  0  0  0  0  0  0  0  0  0  0
   43.4606   35.1013   45.4419 H   0  0  0  0  0  0  0  0  0  0  0  0
   45.5730   37.6183   44.1488 H   0  0  0  0  0  0  0  0  0  0  0  0
   46.2068   36.7576   42.7052 H   0  0  0  0  0  0  0  0  0  0  0  0
   44.5276   37.3954   42.7052 H   0  0  0  0  0  0  0  0  0  0  0  0
   48.9321   36.3083   41.9189 H   0  0  0  0  0  0  0  0  0  0  0  0
   49.8856   35.7466   40.5040 H   0  0  0  0  0  0  0  0  0  0  0  0
   48.0968   35.5824   40.5040 H   0  0  0  0  0  0  0  0  0  0  0  0
   48.8041   32.1611   41.0653 H   0  0  0  0  0  0  0  0  0  0  0  0
   48.0997   33.4372   40.0155 H   0  0  0  0  0  0  0  0  0  0  0  0
   49.8732   33.1518   40.0155 H   0  0  0  0  0  0  0  0  0  0  0  0
   50.4226   33.9574   43.4448 H   0  0  0  0  0  0  0  0  0  0  0  0
   50.8760   32.9710   42.0137 H   0  0  0  0  0  0  0  0  0  0  0  0
   51.1724   34.7426   42.0137 H   0  0  0  0  0  0  0  0  0  0  0  0
  1 14  1  0
  1  4  1  0
  2  8  1  0
  2  7  2  0
  3  2  1  0
  4  3  2  0
  4  5  1  0
  5  6  2  0
  6  7  1  0
  8 10  1  0
  9  8  1  0
 11  8  1  0
 12  1  1  0
 13  1  1  0
  3 15  1  0
  6 16  1  0
  9 17  1  0
  9 18  1  0
  9 19  1  0
 10 20  1  0
 10 21  1  0
 10 22  1  0
 11 23  1  0
 11 24  1  0
 11 25  1  0
 12 26  1  0
 12 27  1  0
 12 28  1  0
 13 29  1  0
 13 30  1  0
 13 31  1  0
 14 32  1  0
 14 33  1  0
 14 34  1  0
M  ISO  8  15  14  16  14  17   8  18   8  19   8  20   8  21   8  22   8
M  ISO  8  23   8  24   8  25   8  26   8  27   8  28   8  29   8  30   8
M  ISO  4  31   8  32   8  33   8  34   8
M  END
>  <minimizedAffinity>  (1) 
-4.21800756

>  <minimizedRMSD>  (1) 
2.16768932

$$$$
