
     RDKit          3D

 29 30  0  0  0  0  0  0  0  0999 V2000
   48.4860   34.7720   41.6380 C   0  0  0  0  0  0  0  0  0  0  0  0
   46.4110   33.6400   44.6020 C   0  0  0  0  0  0  0  0  0  0  0  0
   47.5060   33.6730   43.7020 C   0  0  0  0  0  0  0  0  0  0  0  0
   47.4310   34.6190   42.6450 C   0  0  0  0  0  0  0  0  0  0  0  0
   46.3330   35.4260   42.5540 N   0  0  0  0  0  0  0  0  0  0  0  0
   45.3120   35.3510   43.4440 C   0  0  0  0  0  0  0  0  0  0  0  0
   45.3550   34.4620   44.4610 N   0  0  0  0  0  0  0  0  0  0  0  0
   46.4790   32.6570   45.7080 C   0  0  0  0  0  0  0  0  0  0  0  0
   45.8430   31.3040   45.3240 C   0  0  0  0  0  0  0  0  0  0  0  0
   47.3260   31.4600   45.6290 C   0  0  0  0  0  0  0  0  0  0  0  0
   47.8730   34.4170   40.2780 C   0  0  0  0  0  0  0  0  0  0  0  0
   49.5610   33.7280   41.8710 C   0  0  0  0  0  0  0  0  0  0  0  0
   49.1460   36.0950   41.5840 C   0  0  0  0  0  0  0  0  0  0  0  0
   48.3691   33.0007   43.8163 H   0  0  0  0  0  0  0  0  0  0  0  0
   44.4437   36.0179   43.3373 H   0  0  0  0  0  0  0  0  0  0  0  0
   46.3903   33.4243   46.4911 H   0  0  0  0  0  0  0  0  0  0  0  0
   45.5019   31.1205   44.2945 H   0  0  0  0  0  0  0  0  0  0  0  0
   45.0172   30.6807   45.6975 H   0  0  0  0  0  0  0  0  0  0  0  0
   47.7406   31.0251   46.5504 H   0  0  0  0  0  0  0  0  0  0  0  0
   48.2493   31.2105   45.0856 H   0  0  0  0  0  0  0  0  0  0  0  0
   46.9305   33.8712   40.4319 H   0  0  0  0  0  0  0  0  0  0  0  0
   47.6743   35.3398   39.7133 H   0  0  0  0  0  0  0  0  0  0  0  0
   48.5745   33.7854   39.7133 H   0  0  0  0  0  0  0  0  0  0  0  0
   49.7066   33.5866   42.9521 H   0  0  0  0  0  0  0  0  0  0  0  0
   49.2523   32.7758   41.4149 H   0  0  0  0  0  0  0  0  0  0  0  0
   50.5038   34.0644   41.4149 H   0  0  0  0  0  0  0  0  0  0  0  0
   49.3265   36.4568   42.6070 H   0  0  0  0  0  0  0  0  0  0  0  0
   50.1048   36.0050   41.0524 H   0  0  0  0  0  0  0  0  0  0  0  0
   48.4974   36.8069   41.0524 H   0  0  0  0  0  0  0  0  0  0  0  0
  1 12  1  0
  1  4  1  0
  2  8  1  0
  3  2  2  0
  4  3  1  0
  5  4  2  0
  5  6  1  0
  6  7  2  0
  7  2  1  0
  9 10  1  0
  9  8  1  0
 10  8  1  0
 11  1  1  0
 13  1  1  0
  3 14  1  0
  6 15  1  0
  8 16  1  0
  9 17  1  0
  9 18  1  0
 10 19  1  0
 10 20  1  0
 11 21  1  0
 11 22  1  0
 11 23  1  0
 12 24  1  0
 12 25  1  0
 12 26  1  0
 13 27  1  0
 13 28  1  0
 13 29  1  0
M  ISO  8  14  14  15  14  16  13  17  13  18  13  19  13  20  13  21   8
M  ISO  8  22   8  23   8  24   8  25   8  26   8  27   8  28   8  29   8
M  END
>  <minimizedAffinity>  (1) 
-4.32635117

>  <minimizedRMSD>  (1) 
3.78436518

$$$$
