
     RDKit          3D

 27 27  0  0  0  0  0  0  0  0999 V2000
   47.8950   34.2890   41.3550 C   0  0  0  0  0  0  0  0  0  0  0  0
   44.8270   35.4220   43.2880 C   0  0  0  0  0  0  0  0  0  0  0  0
   46.1730   35.1510   43.0070 C   0  0  0  0  0  0  0  0  0  0  0  0
   46.5140   34.6140   41.7620 C   0  0  0  0  0  0  0  0  0  0  0  0
   45.5010   34.3750   40.8620 N   0  0  0  0  0  0  0  0  0  0  0  0
   44.2090   34.6560   41.1840 C   0  0  0  0  0  0  0  0  0  0  0  0
   43.8740   35.1680   42.3710 N   0  0  0  0  0  0  0  0  0  0  0  0
   44.5660   35.9830   44.6160 C   0  0  0  0  0  0  0  0  0  0  0  0
   44.5560   35.3420   45.6810 O   0  0  0  0  0  0  0  0  0  0  0  0
   47.9590   32.7740   41.1880 C   0  0  0  0  0  0  0  0  0  0  0  0
   48.8400   34.6210   42.4820 C   0  0  0  0  0  0  0  0  0  0  0  0
   48.3500   34.9710   40.1340 C   0  0  0  0  0  0  0  0  0  0  0  0
   48.3340   34.0380   39.0860 O   0  0  0  0  0  0  0  0  0  0  0  0
   48.3340   34.4440   37.7430 C   0  0  0  0  0  0  0  0  0  0  0  0
   48.9010   33.7890   36.8300 O   0  0  0  0  0  0  0  0  0  0  0  0
   46.9512   35.3581   43.7564 H   0  0  0  0  0  0  0  0  0  0  0  0
   43.4184   34.4558   40.4458 H   0  0  0  0  0  0  0  0  0  0  0  0
   44.3617   37.0622   44.6757 H   0  0  0  0  0  0  0  0  0  0  0  0
   47.9792   32.2964   42.1787 H   0  0  0  0  0  0  0  0  0  0  0  0
   47.0746   32.4287   40.6324 H   0  0  0  0  0  0  0  0  0  0  0  0
   48.8693   32.5045   40.6324 H   0  0  0  0  0  0  0  0  0  0  0  0
   48.3384   34.4448   43.4450 H   0  0  0  0  0  0  0  0  0  0  0  0
   49.7332   33.9828   42.4116 H   0  0  0  0  0  0  0  0  0  0  0  0
   49.1378   35.6776   42.4116 H   0  0  0  0  0  0  0  0  0  0  0  0
   47.6751   35.8074   39.8998 H   0  0  0  0  0  0  0  0  0  0  0  0
   49.3650   35.3710   40.2747 H   0  0  0  0  0  0  0  0  0  0  0  0
   47.8152   35.3765   37.4761 H   0  0  0  0  0  0  0  0  0  0  0  0
  1  4  1  0
  1 11  1  0
  2  8  1  0
  3  2  2  0
  4  3  1  0
  5  6  1  0
  5  4  2  0
  6  7  2  0
  7  2  1  0
  8  9  2  0
 10  1  1  0
 12  1  1  0
 13 12  1  0
 14 13  1  0
 15 14  2  0
  3 16  1  0
  6 17  1  0
  8 18  1  0
 10 19  1  0
 10 20  1  0
 10 21  1  0
 11 22  1  0
 11 23  1  0
 11 24  1  0
 12 25  1  0
 12 26  1  0
 14 27  1  0
M  ISO  8  16  14  17  14  18   6  19   8  20   8  21   8  22   8  23   8
M  ISO  4  24   8  25   8  26   8  27   6
M  END
>  <minimizedAffinity>  (1) 
-4.19935656

>  <minimizedRMSD>  (1) 
1.78119779

$$$$
