
     RDKit          3D

 47 49  0  0  1  0  0  0  0  0999 V2000
   48.3370   34.3560   41.5420 C   0  0  0  0  0  0  0  0  0  0  0  0
   45.7180   34.5860   44.2610 C   0  0  0  0  0  0  0  0  0  0  0  0
   46.4190   34.9490   43.1020 C   0  0  0  0  0  0  0  0  0  0  0  0
   47.5060   34.1280   42.7270 C   0  0  0  0  0  0  0  0  0  0  0  0
   47.8140   33.0400   43.5000 N   0  0  0  0  0  0  0  0  0  0  0  0
   47.0790   32.7520   44.6200 C   0  0  0  0  0  0  0  0  0  0  0  0
   46.0580   33.5120   44.9810 N   0  0  0  0  0  0  0  0  0  0  0  0
   44.5960   35.4790   44.5900 C   0  0  0  0  0  0  0  0  0  0  0  0
   44.6210   36.6880   44.7090 O   0  0  0  0  0  0  0  0  0  0  0  0
   49.4670   33.3340   41.5570 C   0  0  0  0  0  0  0  0  0  0  0  0
   49.0770   35.6970   41.7190 C   0  0  0  0  0  0  0  0  0  0  0  0
   47.6900   34.4360   40.2640 C   0  0  0  0  0  0  0  0  0  0  0  0
   48.3600   33.5930   39.3640 O   0  0  0  0  0  0  0  0  0  0  0  0
   48.1840   34.1930   38.1410 C   0  0  1  0  0  0  0  0  0  0  0  0
   48.8430   33.7340   36.9260 C   0  0  0  0  0  0  0  0  0  0  0  0
   47.4410   33.3210   37.1440 C   0  0  1  0  0  0  0  0  0  0  0  0
   47.2530   31.9210   37.4260 N   0  0  0  0  0  0  0  0  0  0  0  0
   47.4580   31.2140   36.1510 C   0  0  0  0  0  0  0  0  0  0  0  0
   46.4600   31.5930   35.1080 C   0  0  0  0  0  0  0  0  0  0  0  0
   45.0480   31.7210   35.5930 C   0  0  0  0  0  0  0  0  0  0  0  0
   44.9790   32.3690   36.9660 C   0  0  0  0  0  0  0  0  0  0  0  0
   45.9260   31.5660   37.8370 C   0  0  0  0  0  0  0  0  0  0  0  0
   46.1355   35.8328   42.5116 H   0  0  0  0  0  0  0  0  0  0  0  0
   47.3422   31.8745   45.2289 H   0  0  0  0  0  0  0  0  0  0  0  0
   43.6204   34.9956   44.7466 H   0  0  0  0  0  0  0  0  0  0  0  0
   49.7314   33.0949   42.5977 H   0  0  0  0  0  0  0  0  0  0  0  0
   49.1403   32.4185   41.0421 H   0  0  0  0  0  0  0  0  0  0  0  0
   50.3452   33.7508   41.0421 H   0  0  0  0  0  0  0  0  0  0  0  0
   49.1955   35.9117   42.7913 H   0  0  0  0  0  0  0  0  0  0  0  0
   50.0681   35.6341   41.2460 H   0  0  0  0  0  0  0  0  0  0  0  0
   48.4954   36.5020   41.2460 H   0  0  0  0  0  0  0  0  0  0  0  0
   46.6419   34.1162   40.3597 H   0  0  0  0  0  0  0  0  0  0  0  0
   47.7168   35.4722   39.8959 H   0  0  0  0  0  0  0  0  0  0  0  0
   48.1151   35.1931   38.5938 H   0  0  0  0  0  0  0  0  0  0  0  0
   49.6466   32.9858   36.9931 H   0  0  0  0  0  0  0  0  0  0  0  0
   49.3710   34.2413   36.1051 H   0  0  0  0  0  0  0  0  0  0  0  0
   46.4758   33.4083   36.6237 H   0  0  0  0  0  0  0  0  0  0  0  0
   48.4645   31.4516   35.7761 H   0  0  0  0  0  0  0  0  0  0  0  0
   47.3368   30.1385   36.3475 H   0  0  0  0  0  0  0  0  0  0  0  0
   46.4813   30.8244   34.3213 H   0  0  0  0  0  0  0  0  0  0  0  0
   46.7530   32.5924   34.7538 H   0  0  0  0  0  0  0  0  0  0  0  0
   44.4810   32.3372   34.8796 H   0  0  0  0  0  0  0  0  0  0  0  0
   44.6202   30.7105   35.6701 H   0  0  0  0  0  0  0  0  0  0  0  0
   45.3018   33.4192   36.9128 H   0  0  0  0  0  0  0  0  0  0  0  0
   43.9548   32.3701   37.3674 H   0  0  0  0  0  0  0  0  0  0  0  0
   45.7574   30.4890   37.6899 H   0  0  0  0  0  0  0  0  0  0  0  0
   45.7674   31.7827   38.9037 H   0  0  0  0  0  0  0  0  0  0  0  0
  1 10  1  0
  1 11  1  0
  1  4  1  0
  2  8  1  0
  2  7  2  0
  3  2  1  0
  4  3  2  0
  4  5  1  0
  5  6  2  0
  6  7  1  0
  8  9  2  0
 12  1  1  0
 13 12  1  0
 14 13  1  0
 15 16  1  0
 15 14  1  0
 16 17  1  0
 16 14  1  0
 17 22  1  0
 18 17  1  0
 19 20  1  0
 19 18  1  0
 20 21  1  0
 21 22  1  0
  3 23  1  0
  6 24  1  0
  8 25  1  0
 10 26  1  0
 10 27  1  0
 10 28  1  0
 11 29  1  0
 11 30  1  0
 11 31  1  0
 12 32  1  0
 12 33  1  0
 14 34  1  1
 15 35  1  0
 15 36  1  0
 16 37  1  6
 18 38  1  0
 18 39  1  0
 19 40  1  0
 19 41  1  0
 20 42  1  0
 20 43  1  0
 21 44  1  0
 21 45  1  0
 22 46  1  0
 22 47  1  0
M  ISO  8  23  14  24  14  25   6  26   8  27   8  28   8  29   8  30   8
M  ISO  8  31   8  32   8  33   8  34  13  35  13  36  13  37  13  38  13
M  ISO  8  39  13  40  13  41  13  42  13  43  13  44  13  45  13  46  13
M  ISO  1  47  13
M  END
>  <minimizedAffinity>  (1) 
-4.8456378

>  <minimizedRMSD>  (1) 
5.69059277

$$$$
