
     RDKit          3D

 43 45  0  0  1  0  0  0  0  0999 V2000
   48.5210   33.2270   41.7660 C   0  0  0  0  0  0  0  0  0  0  0  0
   47.9580   34.4460   41.2620 C   0  0  0  0  0  0  0  0  0  0  0  0
   44.1950   34.8210   41.3600 C   0  0  0  0  0  0  0  0  0  0  0  0
   45.4520   34.4310   40.8750 C   0  0  0  0  0  0  0  0  0  0  0  0
   46.5880   34.7880   41.6340 C   0  0  0  0  0  0  0  0  0  0  0  0
   46.4010   35.4900   42.7930 N   0  0  0  0  0  0  0  0  0  0  0  0
   45.1520   35.8380   43.2060 C   0  0  0  0  0  0  0  0  0  0  0  0
   44.0750   35.5120   42.5100 N   0  0  0  0  0  0  0  0  0  0  0  0
   43.0630   34.4100   40.5160 C   0  0  0  0  0  0  0  0  0  0  0  0
   42.4620   35.1040   39.7120 O   0  0  0  0  0  0  0  0  0  0  0  0
   48.8450   35.6580   41.5540 C   0  0  0  0  0  0  0  0  0  0  0  0
   48.0350   34.3350   39.7270 C   0  0  0  0  0  0  0  0  0  0  0  0
   49.9020   33.2320   41.5600 O   0  0  0  0  0  0  0  0  0  0  0  0
   50.2350   31.9020   41.4200 C   0  0  1  0  0  0  0  0  0  0  0  0
   50.0320   31.1590   40.1860 C   0  0  0  0  0  0  0  0  0  0  0  0
   51.3940   31.7050   40.4340 C   0  0  2  0  0  0  0  0  0  0  0  0
   52.4110   30.7830   40.8900 N   0  0  0  0  0  0  0  0  0  0  0  0
   52.2740   30.0600   42.0160 C   0  0  0  0  0  0  0  0  0  0  0  0
   53.3020   29.1910   42.3880 C   0  0  0  0  0  0  0  0  0  0  0  0
   54.4610   29.0580   41.6200 C   0  0  0  0  0  0  0  0  0  0  0  0
   55.4540   28.1490   42.0780 N   0  0  0  0  0  0  0  0  0  0  0  0
   54.5670   29.7950   40.4990 N   0  0  0  0  0  0  0  0  0  0  0  0
   53.5580   30.6210   40.1720 C   0  0  0  0  0  0  0  0  0  0  0  0
   53.6770   31.3040   39.1170 O   0  0  0  0  0  0  0  0  0  0  0  0
   48.3112   33.1438   42.8426 H   0  0  0  0  0  0  0  0  0  0  0  0
   48.0747   32.3713   41.2382 H   0  0  0  0  0  0  0  0  0  0  0  0
   45.5495   33.8666   39.9359 H   0  0  0  0  0  0  0  0  0  0  0  0
   45.0348   36.4044   44.1417 H   0  0  0  0  0  0  0  0  0  0  0  0
   42.7227   33.3692   40.6202 H   0  0  0  0  0  0  0  0  0  0  0  0
   48.9407   35.7887   42.6420 H   0  0  0  0  0  0  0  0  0  0  0  0
   49.8408   35.4979   41.1150 H   0  0  0  0  0  0  0  0  0  0  0  0
   48.3912   36.5587   41.1150 H   0  0  0  0  0  0  0  0  0  0  0  0
   48.6422   33.4597   39.4527 H   0  0  0  0  0  0  0  0  0  0  0  0
   47.0209   34.2211   39.3163 H   0  0  0  0  0  0  0  0  0  0  0  0
   48.4969   35.2449   39.3163 H   0  0  0  0  0  0  0  0  0  0  0  0
   49.9560   31.6590   42.4559 H   0  0  0  0  0  0  0  0  0  0  0  0
   49.4113   31.5927   39.3881 H   0  0  0  0  0  0  0  0  0  0  0  0
   49.6449   30.1551   39.9574 H   0  0  0  0  0  0  0  0  0  0  0  0
   52.0913   32.3363   39.8637 H   0  0  0  0  0  0  0  0  0  0  0  0
   51.3680   30.1516   42.6331 H   0  0  0  0  0  0  0  0  0  0  0  0
   53.1964   28.5971   43.3078 H   0  0  0  0  0  0  0  0  0  0  0  0
   56.3233   28.0220   41.5403 H   0  0  0  0  0  0  0  0  0  0  0  0
   55.3040   27.6176   42.9475 H   0  0  0  0  0  0  0  0  0  0  0  0
  2 11  1  0
  2  5  1  0
  2  1  1  0
  3  8  2  0
  4  3  1  0
  4  5  2  0
  5  6  1  0
  6  7  2  0
  8  7  1  0
  9  3  1  0
 10  9  2  0
 12  2  1  0
 13  1  1  0
 14 13  1  0
 15 16  1  0
 15 14  1  0
 16 17  1  0
 16 14  1  0
 17 18  1  0
 18 19  2  0
 20 21  1  0
 20 19  1  0
 22 20  2  0
 23 22  1  0
 23 17  1  0
 24 23  2  0
  1 25  1  0
  1 26  1  0
  4 27  1  0
  7 28  1  0
  9 29  1  0
 11 30  1  0
 11 31  1  0
 11 32  1  0
 12 33  1  0
 12 34  1  0
 12 35  1  0
 14 36  1  1
 15 37  1  0
 15 38  1  0
 16 39  1  6
 18 40  1  0
 19 41  1  0
 21 42  1  0
 21 43  1  0
M  ISO  8  25   8  26   8  27  14  28  14  29   6  30   8  31   8  32   8
M  ISO  8  33   8  34   8  35   8  36  13  37  13  38  13  39  13  40  14
M  ISO  1  41  14
M  END
>  <minimizedAffinity>  (1) 
-4.70905352

>  <minimizedRMSD>  (1) 
2.28334475

$$$$
