
     RDKit          3D

 35 36  0  0  1  0  0  0  0  0999 V2000
   47.9640   34.3940   41.1470 C   0  0  0  0  0  0  0  0  0  0  0  0
   44.1960   34.7900   41.3490 C   0  0  0  0  0  0  0  0  0  0  0  0
   45.4380   34.3950   40.8290 C   0  0  0  0  0  0  0  0  0  0  0  0
   46.5960   34.7300   41.5460 C   0  0  0  0  0  0  0  0  0  0  0  0
   46.4410   35.4270   42.7190 N   0  0  0  0  0  0  0  0  0  0  0  0
   45.2190   35.7830   43.1780 C   0  0  0  0  0  0  0  0  0  0  0  0
   44.1090   35.4720   42.5050 N   0  0  0  0  0  0  0  0  0  0  0  0
   43.0360   34.3920   40.5210 C   0  0  0  0  0  0  0  0  0  0  0  0
   42.4550   35.0990   39.7100 O   0  0  0  0  0  0  0  0  0  0  0  0
   48.8700   35.5370   41.4980 C   0  0  0  0  0  0  0  0  0  0  0  0
   48.0050   34.3050   39.6210 C   0  0  0  0  0  0  0  0  0  0  0  0
   48.4640   33.0690   41.6310 C   0  0  0  0  0  0  0  0  0  0  0  0
   49.8790   33.1650   41.5130 O   0  0  0  0  0  0  0  0  0  0  0  0
   50.2390   31.8840   41.1570 C   0  0  1  0  0  0  0  0  0  0  0  0
   50.6140   31.5340   39.7860 C   0  0  0  0  0  0  0  0  0  0  0  0
   51.6970   31.7370   40.7690 C   0  0  2  0  0  0  0  0  0  0  0  0
   52.4330   30.4910   41.1060 C   0  0  0  0  0  0  0  0  0  0  0  0
   52.5940   29.6120   40.2220 O   0  0  0  0  0  0  0  0  0  0  0  0
   52.9320   30.3190   42.3910 O   0  0  0  0  0  0  0  0  0  0  0  0
   45.5018   33.8369   39.8832 H   0  0  0  0  0  0  0  0  0  0  0  0
   45.1387   36.3392   44.1236 H   0  0  0  0  0  0  0  0  0  0  0  0
   42.6618   33.3653   40.6467 H   0  0  0  0  0  0  0  0  0  0  0  0
   48.9407   35.6262   42.5921 H   0  0  0  0  0  0  0  0  0  0  0  0
   49.8707   35.3535   41.0796 H   0  0  0  0  0  0  0  0  0  0  0  0
   48.4630   36.4694   41.0796 H   0  0  0  0  0  0  0  0  0  0  0  0
   48.4479   33.3436   39.3215 H   0  0  0  0  0  0  0  0  0  0  0  0
   46.9826   34.3779   39.2219 H   0  0  0  0  0  0  0  0  0  0  0  0
   48.6141   35.1295   39.2219 H   0  0  0  0  0  0  0  0  0  0  0  0
   48.1705   32.9000   42.6775 H   0  0  0  0  0  0  0  0  0  0  0  0
   48.0497   32.2272   41.0568 H   0  0  0  0  0  0  0  0  0  0  0  0
   49.5197   31.4374   41.8593 H   0  0  0  0  0  0  0  0  0  0  0  0
   50.4681   32.2662   38.9781 H   0  0  0  0  0  0  0  0  0  0  0  0
   50.3431   30.7147   39.1038 H   0  0  0  0  0  0  0  0  0  0  0  0
   52.5777   32.3822   40.9033 H   0  0  0  0  0  0  0  0  0  0  0  0
   53.4236   29.4920   42.6245 H   0  0  0  0  0  0  0  0  0  0  0  0
  1 10  1  0
  1  4  1  0
  1 12  1  0
  2  7  2  0
  3  2  1  0
  3  4  2  0
  4  5  1  0
  5  6  2  0
  7  6  1  0
  8  2  1  0
  9  8  2  0
 11  1  1  0
 13 12  1  0
 14 13  1  0
 15 16  1  0
 15 14  1  0
 16 17  1  0
 16 14  1  0
 17 19  1  0
 18 17  2  0
  3 20  1  0
  6 21  1  0
  8 22  1  0
 10 23  1  0
 10 24  1  0
 10 25  1  0
 11 26  1  0
 11 27  1  0
 11 28  1  0
 12 29  1  0
 12 30  1  0
 14 31  1  1
 15 32  1  0
 15 33  1  0
 16 34  1  6
 19 35  1  0
M  ISO  8  20  14  21  14  22   6  23   8  24   8  25   8  26   8  27   8
M  ISO  8  28   8  29   8  30   8  31  13  32  13  33  13  34  13  35   3
M  END
>  <minimizedAffinity>  (1) 
-4.36535931

>  <minimizedRMSD>  (1) 
0.95622009

$$$$
