
     RDKit          3D

 34 35  0  0  1  0  0  0  0  0999 V2000
   47.9490   34.4250   41.1760 C   0  0  0  0  0  0  0  0  0  0  0  0
   44.1850   34.8020   41.3480 C   0  0  0  0  0  0  0  0  0  0  0  0
   45.4320   34.4100   40.8380 C   0  0  0  0  0  0  0  0  0  0  0  0
   46.5840   34.7620   41.5720 C   0  0  0  0  0  0  0  0  0  0  0  0
   46.4210   35.4620   42.7360 N   0  0  0  0  0  0  0  0  0  0  0  0
   45.1880   35.8160   43.1860 C   0  0  0  0  0  0  0  0  0  0  0  0
   44.0950   35.4940   42.5090 N   0  0  0  0  0  0  0  0  0  0  0  0
   43.0330   34.3980   40.5260 C   0  0  0  0  0  0  0  0  0  0  0  0
   42.4550   35.0830   39.6940 O   0  0  0  0  0  0  0  0  0  0  0  0
   48.8540   35.6010   41.5290 C   0  0  0  0  0  0  0  0  0  0  0  0
   48.0130   34.3850   39.6370 C   0  0  0  0  0  0  0  0  0  0  0  0
   48.4900   33.1690   41.6170 C   0  0  0  0  0  0  0  0  0  0  0  0
   49.8870   33.2610   41.6440 O   0  0  0  0  0  0  0  0  0  0  0  0
   50.3160   32.0010   41.2920 C   0  0  1  0  0  0  0  0  0  0  0  0
   51.6900   31.7060   40.8990 C   0  0  0  0  0  0  0  0  0  0  0  0
   51.3030   31.4170   42.2950 C   0  0  2  0  0  0  0  0  0  0  0  0
   51.0710   30.0150   42.7370 C   0  0  0  0  0  0  0  0  0  0  0  0
   50.9720   29.7310   43.9340 O   0  0  0  0  0  0  0  0  0  0  0  0
   45.5088   33.8465   39.8964 H   0  0  0  0  0  0  0  0  0  0  0  0
   45.0960   36.3785   44.1268 H   0  0  0  0  0  0  0  0  0  0  0  0
   42.6534   33.3764   40.6751 H   0  0  0  0  0  0  0  0  0  0  0  0
   48.9252   35.6935   42.6228 H   0  0  0  0  0  0  0  0  0  0  0  0
   49.8565   35.4310   41.1094 H   0  0  0  0  0  0  0  0  0  0  0  0
   48.4330   36.5266   41.1094 H   0  0  0  0  0  0  0  0  0  0  0  0
   48.9066   33.8265   39.3216 H   0  0  0  0  0  0  0  0  0  0  0  0
   47.1130   33.8884   39.2454 H   0  0  0  0  0  0  0  0  0  0  0  0
   48.0650   35.4116   39.2454 H   0  0  0  0  0  0  0  0  0  0  0  0
   48.1156   32.9394   42.6255 H   0  0  0  0  0  0  0  0  0  0  0  0
   48.1826   32.3685   40.9281 H   0  0  0  0  0  0  0  0  0  0  0  0
   49.3590   31.7541   40.8092 H   0  0  0  0  0  0  0  0  0  0  0  0
   51.8903   30.8741   40.2078 H   0  0  0  0  0  0  0  0  0  0  0  0
   52.4949   32.2968   40.4373 H   0  0  0  0  0  0  0  0  0  0  0  0
   51.7111   31.6906   43.2792 H   0  0  0  0  0  0  0  0  0  0  0  0
   50.9863   29.2179   41.9837 H   0  0  0  0  0  0  0  0  0  0  0  0
  1 10  1  0
  1  4  1  0
  1 12  1  0
  2  7  2  0
  3  2  1  0
  3  4  2  0
  4  5  1  0
  5  6  2  0
  7  6  1  0
  8  2  1  0
  9  8  2  0
 11  1  1  0
 12 13  1  0
 14 13  1  0
 14 16  1  0
 15 14  1  0
 15 16  1  0
 16 17  1  0
 17 18  2  0
  3 19  1  0
  6 20  1  0
  8 21  1  0
 10 22  1  0
 10 23  1  0
 10 24  1  0
 11 25  1  0
 11 26  1  0
 11 27  1  0
 12 28  1  0
 12 29  1  0
 14 30  1  6
 15 31  1  0
 15 32  1  0
 16 33  1  1
 17 34  1  0
M  ISO  8  19  14  20  14  21   6  22   8  23   8  24   8  25   8  26   8
M  ISO  8  27   8  28   8  29   8  30  13  31  13  32  13  33  13  34   6
M  END
>  <minimizedAffinity>  (1) 
-4.12337732

>  <minimizedRMSD>  (1) 
0.0562863834

$$$$
