
     RDKit          3D

 39 41  0  0  1  0  0  0  0  0999 V2000
   47.9360   34.4180   41.1680 C   0  0  0  0  0  0  0  0  0  0  0  0
   44.1770   34.7760   41.3650 C   0  0  0  0  0  0  0  0  0  0  0  0
   45.4210   34.3860   40.8480 C   0  0  0  0  0  0  0  0  0  0  0  0
   46.5740   34.7620   41.5760 C   0  0  0  0  0  0  0  0  0  0  0  0
   46.4210   35.4770   42.7330 N   0  0  0  0  0  0  0  0  0  0  0  0
   45.1800   35.8240   43.1790 C   0  0  0  0  0  0  0  0  0  0  0  0
   44.0880   35.4830   42.5140 N   0  0  0  0  0  0  0  0  0  0  0  0
   43.0250   34.3500   40.5740 C   0  0  0  0  0  0  0  0  0  0  0  0
   42.4530   34.9630   39.6950 O   0  0  0  0  0  0  0  0  0  0  0  0
   48.8380   35.6080   41.5270 C   0  0  0  0  0  0  0  0  0  0  0  0
   48.0020   34.3990   39.6330 C   0  0  0  0  0  0  0  0  0  0  0  0
   48.4860   33.1680   41.6150 C   0  0  0  0  0  0  0  0  0  0  0  0
   49.8830   33.2670   41.6370 O   0  0  0  0  0  0  0  0  0  0  0  0
   50.3220   32.0020   41.3080 C   0  0  1  0  0  0  0  0  0  0  0  0
   51.6940   31.7130   40.9100 C   0  0  0  0  0  0  0  0  0  0  0  0
   51.3350   31.4700   42.3290 C   0  0  2  0  0  0  0  0  0  0  0  0
   51.2030   30.0210   42.7170 C   0  0  0  0  0  0  0  0  0  0  0  0
   52.1380   29.4140   43.6970 C   0  0  0  0  0  0  0  0  0  0  0  0
   50.6360   29.5530   43.9750 C   0  0  0  0  0  0  0  0  0  0  0  0
   45.4970   33.8106   39.9136 H   0  0  0  0  0  0  0  0  0  0  0  0
   45.0846   36.3997   44.1115 H   0  0  0  0  0  0  0  0  0  0  0  0
   42.6263   33.3506   40.8026 H   0  0  0  0  0  0  0  0  0  0  0  0
   48.9069   35.6989   42.6211 H   0  0  0  0  0  0  0  0  0  0  0  0
   49.8423   35.4462   41.1085 H   0  0  0  0  0  0  0  0  0  0  0  0
   48.4108   36.5313   41.1085 H   0  0  0  0  0  0  0  0  0  0  0  0
   49.0134   34.1078   39.3131 H   0  0  0  0  0  0  0  0  0  0  0  0
   47.2715   33.6747   39.2435 H   0  0  0  0  0  0  0  0  0  0  0  0
   47.7684   35.4009   39.2435 H   0  0  0  0  0  0  0  0  0  0  0  0
   48.1162   32.9428   42.6262 H   0  0  0  0  0  0  0  0  0  0  0  0
   48.1810   32.3619   40.9315 H   0  0  0  0  0  0  0  0  0  0  0  0
   49.3668   31.7250   40.8381 H   0  0  0  0  0  0  0  0  0  0  0  0
   51.8978   30.8581   40.2485 H   0  0  0  0  0  0  0  0  0  0  0  0
   52.4818   32.2992   40.4143 H   0  0  0  0  0  0  0  0  0  0  0  0
   51.7005   31.7960   43.3140 H   0  0  0  0  0  0  0  0  0  0  0  0
   50.9310   29.8288   41.6686 H   0  0  0  0  0  0  0  0  0  0  0  0
   52.5791   28.4246   43.5058 H   0  0  0  0  0  0  0  0  0  0  0  0
   53.0672   29.7215   44.1990 H   0  0  0  0  0  0  0  0  0  0  0  0
   50.2780   30.2770   44.7218 H   0  0  0  0  0  0  0  0  0  0  0  0
   49.8271   28.8637   44.2587 H   0  0  0  0  0  0  0  0  0  0  0  0
  1 10  1  0
  1  4  1  0
  1 12  1  0
  2  7  2  0
  3  2  1  0
  3  4  2  0
  4  5  1  0
  5  6  2  0
  7  6  1  0
  8  2  1  0
  9  8  2  0
 11  1  1  0
 12 13  1  0
 14 13  1  0
 14 16  1  0
 15 14  1  0
 15 16  1  0
 16 17  1  0
 17 18  1  0
 17 19  1  0
 18 19  1  0
  3 20  1  0
  6 21  1  0
  8 22  1  0
 10 23  1  0
 10 24  1  0
 10 25  1  0
 11 26  1  0
 11 27  1  0
 11 28  1  0
 12 29  1  0
 12 30  1  0
 14 31  1  6
 15 32  1  0
 15 33  1  0
 16 34  1  1
 17 35  1  0
 18 36  1  0
 18 37  1  0
 19 38  1  0
 19 39  1  0
M  ISO  8  20  14  21  14  22   6  23   8  24   8  25   8  26   8  27   8
M  ISO  8  28   8  29   8  30   8  31  13  32  13  33  13  34  13  35  13
M  ISO  4  36  13  37  13  38  13  39  13
M  END
>  <minimizedAffinity>  (1) 
-4.25201941

>  <minimizedRMSD>  (1) 
0.80288142

$$$$
