
     RDKit          3D

 39 41  0  0  1  0  0  0  0  0999 V2000
   47.9510   34.4150   41.1810 C   0  0  0  0  0  0  0  0  0  0  0  0
   44.1940   34.8110   41.3600 C   0  0  0  0  0  0  0  0  0  0  0  0
   45.4310   34.4150   40.8380 C   0  0  0  0  0  0  0  0  0  0  0  0
   46.5860   34.7610   41.5750 C   0  0  0  0  0  0  0  0  0  0  0  0
   46.4270   35.4550   42.7440 N   0  0  0  0  0  0  0  0  0  0  0  0
   45.1890   35.8070   43.1920 C   0  0  0  0  0  0  0  0  0  0  0  0
   44.0990   35.4900   42.5110 N   0  0  0  0  0  0  0  0  0  0  0  0
   43.0350   34.4070   40.5340 C   0  0  0  0  0  0  0  0  0  0  0  0
   42.4520   35.0810   39.7090 O   0  0  0  0  0  0  0  0  0  0  0  0
   48.8570   35.5900   41.5210 C   0  0  0  0  0  0  0  0  0  0  0  0
   48.0130   34.3580   39.6420 C   0  0  0  0  0  0  0  0  0  0  0  0
   48.4910   33.1660   41.6340 C   0  0  0  0  0  0  0  0  0  0  0  0
   49.8750   33.1640   41.4490 O   0  0  0  0  0  0  0  0  0  0  0  0
   50.1710   31.8750   41.0690 C   0  0  1  0  0  0  0  0  0  0  0  0
   50.8110   31.5290   39.8100 C   0  0  0  0  0  0  0  0  0  0  0  0
   51.6830   31.6210   41.0110 C   0  0  2  0  0  0  0  0  0  0  0  0
   52.1200   30.2990   41.5900 C   0  0  0  0  0  0  0  0  0  0  0  0
   52.2960   29.9010   42.8380 C   0  0  0  0  0  0  0  0  0  0  0  0
   52.7060   28.6210   43.0930 C   0  0  0  0  0  0  0  0  0  0  0  0
   52.9190   27.8040   41.9870 C   0  0  0  0  0  0  0  0  0  0  0  0
   52.5070   28.9400   40.5760 S   0  0  0  0  0  0  0  0  0  0  0  0
   45.5011   33.8572   39.8925 H   0  0  0  0  0  0  0  0  0  0  0  0
   45.0939   36.3641   44.1357 H   0  0  0  0  0  0  0  0  0  0  0  0
   42.6602   33.3837   40.6836 H   0  0  0  0  0  0  0  0  0  0  0  0
   48.9338   35.6896   42.6138 H   0  0  0  0  0  0  0  0  0  0  0  0
   49.8572   35.4163   41.0975 H   0  0  0  0  0  0  0  0  0  0  0  0
   48.4347   36.5132   41.0975 H   0  0  0  0  0  0  0  0  0  0  0  0
   48.7901   33.6436   39.3326 H   0  0  0  0  0  0  0  0  0  0  0  0
   47.0387   34.0337   39.2475 H   0  0  0  0  0  0  0  0  0  0  0  0
   48.2544   35.3561   39.2475 H   0  0  0  0  0  0  0  0  0  0  0  0
   48.2634   33.0337   42.7020 H   0  0  0  0  0  0  0  0  0  0  0  0
   48.0426   32.3422   41.0594 H   0  0  0  0  0  0  0  0  0  0  0  0
   49.2615   31.4744   41.5405 H   0  0  0  0  0  0  0  0  0  0  0  0
   50.8964   32.2885   39.0189 H   0  0  0  0  0  0  0  0  0  0  0  0
   50.6342   30.7472   39.0566 H   0  0  0  0  0  0  0  0  0  0  0  0
   52.5952   32.1710   41.2856 H   0  0  0  0  0  0  0  0  0  0  0  0
   52.1132   30.5973   43.6697 H   0  0  0  0  0  0  0  0  0  0  0  0
   52.8594   28.2565   44.1194 H   0  0  0  0  0  0  0  0  0  0  0  0
   53.2472   26.7546   41.9561 H   0  0  0  0  0  0  0  0  0  0  0  0
  1 10  1  0
  1  4  1  0
  1 12  1  0
  2  7  2  0
  3  2  1  0
  3  4  2  0
  4  5  1  0
  5  6  2  0
  7  6  1  0
  8  2  1  0
  9  8  2  0
 11  1  1  0
 13 12  1  0
 14 13  1  0
 15 16  1  0
 15 14  1  0
 16 14  1  0
 16 17  1  0
 17 18  2  0
 18 19  1  0
 20 19  2  0
 21 17  1  0
 21 20  1  0
  3 22  1  0
  6 23  1  0
  8 24  1  0
 10 25  1  0
 10 26  1  0
 10 27  1  0
 11 28  1  0
 11 29  1  0
 11 30  1  0
 12 31  1  0
 12 32  1  0
 14 33  1  1
 15 34  1  0
 15 35  1  0
 16 36  1  6
 18 37  1  0
 19 38  1  0
 20 39  1  0
M  ISO  8  22  14  23  14  24   6  25   8  26   8  27   8  28   8  29   8
M  ISO  8  30   8  31   8  32   8  33  13  34  13  35  13  36  13  37  14
M  ISO  2  38  14  39  14
M  END
>  <minimizedAffinity>  (1) 
-4.30318069

>  <minimizedRMSD>  (1) 
1.06216395

$$$$
