
     RDKit          3D

 34 35  0  0  1  0  0  0  0  0999 V2000
   47.9670   34.3130   41.1130 C   0  0  0  0  0  0  0  0  0  0  0  0
   44.2220   34.7810   41.3250 C   0  0  0  0  0  0  0  0  0  0  0  0
   45.4520   34.3590   40.8000 C   0  0  0  0  0  0  0  0  0  0  0  0
   46.6190   34.6910   41.5280 C   0  0  0  0  0  0  0  0  0  0  0  0
   46.4840   35.4000   42.6970 N   0  0  0  0  0  0  0  0  0  0  0  0
   45.2700   35.7780   43.1510 C   0  0  0  0  0  0  0  0  0  0  0  0
   44.1510   35.4760   42.4780 N   0  0  0  0  0  0  0  0  0  0  0  0
   43.0560   34.3980   40.5210 C   0  0  0  0  0  0  0  0  0  0  0  0
   42.4530   35.0810   39.7180 O   0  0  0  0  0  0  0  0  0  0  0  0
   48.9320   35.3860   41.6390 C   0  0  0  0  0  0  0  0  0  0  0  0
   48.0830   34.4780   39.5890 C   0  0  0  0  0  0  0  0  0  0  0  0
   48.4240   32.9850   41.4100 C   0  0  0  0  0  0  0  0  0  0  0  0
   49.8270   32.9900   41.4680 O   0  0  0  0  0  0  0  0  0  0  0  0
   50.1950   31.8330   40.8230 C   0  0  1  0  0  0  0  0  0  0  0  0
   51.5480   31.6070   40.3200 C   0  0  0  0  0  0  0  0  0  0  0  0
   51.1840   30.9920   41.6140 C   0  0  1  0  0  0  0  0  0  0  0  0
   51.7040   31.5190   42.8610 N   0  0  0  0  0  0  0  0  0  0  0  0
   45.5074   33.7920   39.8590 H   0  0  0  0  0  0  0  0  0  0  0  0
   45.1979   36.3446   44.0911 H   0  0  0  0  0  0  0  0  0  0  0  0
   42.6845   33.3723   40.6620 H   0  0  0  0  0  0  0  0  0  0  0  0
   48.9249   35.3781   42.7389 H   0  0  0  0  0  0  0  0  0  0  0  0
   49.9489   35.1736   41.2774 H   0  0  0  0  0  0  0  0  0  0  0  0
   48.6133   36.3748   41.2774 H   0  0  0  0  0  0  0  0  0  0  0  0
   48.7020   35.3584   39.3616 H   0  0  0  0  0  0  0  0  0  0  0  0
   48.5498   33.5803   39.1575 H   0  0  0  0  0  0  0  0  0  0  0  0
   47.0803   34.6134   39.1575 H   0  0  0  0  0  0  0  0  0  0  0  0
   48.0154   32.6617   42.3788 H   0  0  0  0  0  0  0  0  0  0  0  0
   48.0855   32.2902   40.6273 H   0  0  0  0  0  0  0  0  0  0  0  0
   49.2125   31.7327   40.3387 H   0  0  0  0  0  0  0  0  0  0  0  0
   51.7003   30.9676   39.4380 H   0  0  0  0  0  0  0  0  0  0  0  0
   52.3617   32.2702   39.9912 H   0  0  0  0  0  0  0  0  0  0  0  0
   51.2190   29.9719   42.0241 H   0  0  0  0  0  0  0  0  0  0  0  0
   51.2406   31.0494   43.6520 H   0  0  0  0  0  0  0  0  0  0  0  0
   52.7190   31.3503   42.9083 H   0  0  0  0  0  0  0  0  0  0  0  0
  1 12  1  0
  1  4  1  0
  1 10  1  0
  2  7  2  0
  3  2  1  0
  3  4  2  0
  4  5  1  0
  5  6  2  0
  7  6  1  0
  8  2  1  0
  9  8  2  0
 11  1  1  0
 12 13  1  0
 14 13  1  0
 14 16  1  0
 15 14  1  0
 15 16  1  0
 16 17  1  0
  3 18  1  0
  6 19  1  0
  8 20  1  0
 10 21  1  0
 10 22  1  0
 10 23  1  0
 11 24  1  0
 11 25  1  0
 11 26  1  0
 12 27  1  0
 12 28  1  0
 14 29  1  6
 15 30  1  0
 15 31  1  0
 16 32  1  6
 17 33  1  0
 17 34  1  0
M  ISO  8  18  14  19  14  20   6  21   8  22   8  23   8  24   8  25   8
M  ISO  8  26   8  27   8  28   8  29  13  30  13  31  13  32  13  33   5
M  ISO  1  34   5
M  END
>  <minimizedAffinity>  (1) 
-4.24935722

>  <minimizedRMSD>  (1) 
0.338520288

$$$$
