
     RDKit          3D

 45 48  0  0  1  0  0  0  0  0999 V2000
   47.4250   32.1090   44.6590 C   0  0  0  0  0  0  0  0  0  0  0  0
   46.7660   33.3000   44.2570 C   0  0  0  0  0  0  0  0  0  0  0  0
   45.9030   33.8520   45.1960 C   0  0  0  0  0  0  0  0  0  0  0  0
   45.7320   33.2600   46.4050 N   0  0  0  0  0  0  0  0  0  0  0  0
   46.3810   32.1330   46.7320 C   0  0  0  0  0  0  0  0  0  0  0  0
   47.2160   31.5500   45.8940 N   0  0  0  0  0  0  0  0  0  0  0  0
   47.1050   33.7420   42.9460 C   0  0  0  0  0  0  0  0  0  0  0  0
   48.1630   34.5890   42.9210 N   0  0  0  0  0  0  0  0  0  0  0  0
   48.6310   35.1100   41.7600 C   0  0  0  0  0  0  0  0  0  0  0  0
   48.0790   34.8220   40.5650 N   0  0  0  0  0  0  0  0  0  0  0  0
   47.0060   33.9700   40.5340 C   0  0  0  0  0  0  0  0  0  0  0  0
   46.3350   33.5790   39.4040 C   0  0  0  0  0  0  0  0  0  0  0  0
   45.2810   32.7380   39.4130 C   0  0  0  0  0  0  0  0  0  0  0  0
   44.8390   32.2300   40.6240 C   0  0  0  0  0  0  0  0  0  0  0  0
   45.4700   32.5840   41.7870 C   0  0  0  0  0  0  0  0  0  0  0  0
   46.5400   33.4470   41.7180 C   0  0  0  0  0  0  0  0  0  0  0  0
   46.1540   31.5590   48.0490 C   0  0  1  0  0  0  0  0  0  0  0  0
   44.7120   31.8780   48.5700 C   0  0  0  0  0  0  0  0  0  0  0  0
   46.3480   30.0730   48.1320 C   0  0  0  0  0  0  0  0  0  0  0  0
   45.1620   29.4670   47.9020 O   0  0  0  0  0  0  0  0  0  0  0  0
   44.7400   28.6690   46.8510 C   0  0  0  0  0  0  0  0  0  0  0  0
   44.8110   29.0320   45.6430 O   0  0  0  0  0  0  0  0  0  0  0  0
   44.2280   27.4390   47.1720 O   0  0  0  0  0  0  0  0  0  0  0  0
   44.7990   26.5600   48.1310 C   0  0  0  0  0  0  0  0  0  0  0  0
   44.2100   26.2050   49.3150 C   0  0  0  0  0  0  0  0  0  0  0  0
   44.9370   25.3450   50.1000 C   0  0  0  0  0  0  0  0  0  0  0  0
   46.1520   24.8720   49.7480 N   0  0  0  0  0  0  0  0  0  0  0  0
   46.7120   25.2470   48.5560 C   0  0  0  0  0  0  0  0  0  0  0  0
   45.9870   26.1080   47.7640 N   0  0  0  0  0  0  0  0  0  0  0  0
   48.1219   31.6212   43.9616 H   0  0  0  0  0  0  0  0  0  0  0  0
   45.3547   34.7753   44.9576 H   0  0  0  0  0  0  0  0  0  0  0  0
   49.4928   35.7927   41.7949 H   0  0  0  0  0  0  0  0  0  0  0  0
   46.6757   33.9737   38.4354 H   0  0  0  0  0  0  0  0  0  0  0  0
   44.7801   32.4597   38.4740 H   0  0  0  0  0  0  0  0  0  0  0  0
   43.9810   31.5422   40.6514 H   0  0  0  0  0  0  0  0  0  0  0  0
   45.1292   32.1874   42.7547 H   0  0  0  0  0  0  0  0  0  0  0  0
   46.9235   32.0334   48.6757 H   0  0  0  0  0  0  0  0  0  0  0  0
   44.7113   31.8782   49.6700 H   0  0  0  0  0  0  0  0  0  0  0  0
   44.3999   32.8669   48.2030 H   0  0  0  0  0  0  0  0  0  0  0  0
   44.0119   31.1130   48.2030 H   0  0  0  0  0  0  0  0  0  0  0  0
   47.0800   29.7526   47.3760 H   0  0  0  0  0  0  0  0  0  0  0  0
   46.7211   29.7992   49.1299 H   0  0  0  0  0  0  0  0  0  0  0  0
   43.2220   26.5830   49.6165 H   0  0  0  0  0  0  0  0  0  0  0  0
   44.5094   25.0258   51.0619 H   0  0  0  0  0  0  0  0  0  0  0  0
   47.6995   24.8758   48.2446 H   0  0  0  0  0  0  0  0  0  0  0  0
  1  6  2  0
  2  1  1  0
  2  3  2  0
  3  4  1  0
  4  5  2  0
  5 17  1  0
  6  5  1  0
  7  2  1  0
  8  7  2  0
  9  8  1  0
 10  9  2  0
 11 10  1  0
 11 16  2  0
 12 13  2  0
 12 11  1  0
 13 14  1  0
 14 15  2  0
 16 15  1  0
 16  7  1  0
 17 19  1  0
 17 18  1  0
 20 19  1  0
 21 23  1  0
 21 20  1  0
 22 21  2  0
 23 24  1  0
 24 25  2  0
 25 26  1  0
 27 26  2  0
 28 27  1  0
 29 24  1  0
 29 28  2  0
  1 30  1  0
  3 31  1  0
  9 32  1  0
 12 33  1  0
 13 34  1  0
 14 35  1  0
 15 36  1  0
 17 37  1  1
 18 38  1  0
 18 39  1  0
 18 40  1  0
 19 41  1  0
 19 42  1  0
 25 43  1  0
 26 44  1  0
 28 45  1  0
M  ISO  8  30  14  31  14  32  14  33  14  34  14  35  14  36  14  37   8
M  ISO  8  38   8  39   8  40   8  41   8  42   8  43  14  44  14  45  14
M  END
>  <minimizedAffinity>  (1) 
-5.22037601

>  <minimizedRMSD>  (1) 
1.1788094

$$$$
