
     RDKit          3D

 49 51  0  0  1  0  0  0  0  0999 V2000
   47.5550   32.1850   44.5240 C   0  0  0  0  0  0  0  0  0  0  0  0
   46.8730   33.3630   44.1140 C   0  0  0  0  0  0  0  0  0  0  0  0
   45.9830   33.8890   45.0380 C   0  0  0  0  0  0  0  0  0  0  0  0
   45.8030   33.2920   46.2390 N   0  0  0  0  0  0  0  0  0  0  0  0
   46.4750   32.1780   46.5760 C   0  0  0  0  0  0  0  0  0  0  0  0
   47.3390   31.6160   45.7530 N   0  0  0  0  0  0  0  0  0  0  0  0
   47.2300   33.8100   42.8060 C   0  0  0  0  0  0  0  0  0  0  0  0
   48.2640   34.6950   42.8080 N   0  0  0  0  0  0  0  0  0  0  0  0
   48.7510   35.2310   41.6630 C   0  0  0  0  0  0  0  0  0  0  0  0
   48.2300   34.9110   40.4480 N   0  0  0  0  0  0  0  0  0  0  0  0
   47.1970   34.0300   40.4000 C   0  0  0  0  0  0  0  0  0  0  0  0
   46.5700   33.6130   39.2430 C   0  0  0  0  0  0  0  0  0  0  0  0
   45.5320   32.7250   39.2360 C   0  0  0  0  0  0  0  0  0  0  0  0
   45.0860   32.2200   40.4300 C   0  0  0  0  0  0  0  0  0  0  0  0
   45.6650   32.5940   41.6130 C   0  0  0  0  0  0  0  0  0  0  0  0
   46.7100   33.4930   41.5660 C   0  0  0  0  0  0  0  0  0  0  0  0
   46.2450   31.5910   47.8870 C   0  0  1  0  0  0  0  0  0  0  0  0
   44.7580   31.7740   48.3360 C   0  0  0  0  0  0  0  0  0  0  0  0
   46.5890   30.1390   47.9950 C   0  0  0  0  0  0  0  0  0  0  0  0
   45.5720   29.4170   47.4780 O   0  0  0  0  0  0  0  0  0  0  0  0
   45.2440   28.0770   47.5690 C   0  0  0  0  0  0  0  0  0  0  0  0
   45.4970   27.2530   46.6490 O   0  0  0  0  0  0  0  0  0  0  0  0
   44.6200   27.6470   48.7120 O   0  0  0  0  0  0  0  0  0  0  0  0
   44.3700   26.2540   49.0240 C   0  0  0  0  0  0  0  0  0  0  0  0
   43.7920   26.2100   50.4230 C   0  0  0  0  0  0  0  0  0  0  0  0
   45.5760   25.4010   48.9690 C   0  0  0  0  0  0  0  0  0  0  0  0
   43.3100   25.7390   48.0820 C   0  0  0  0  0  0  0  0  0  0  0  0
   48.2755   31.7172   43.8369 H   0  0  0  0  0  0  0  0  0  0  0  0
   45.4179   34.8002   44.7924 H   0  0  0  0  0  0  0  0  0  0  0  0
   49.5882   35.9424   41.7173 H   0  0  0  0  0  0  0  0  0  0  0  0
   46.9228   34.0146   38.2816 H   0  0  0  0  0  0  0  0  0  0  0  0
   45.0623   32.4205   38.2891 H   0  0  0  0  0  0  0  0  0  0  0  0
   44.2509   31.5040   40.4377 H   0  0  0  0  0  0  0  0  0  0  0  0
   45.3077   32.1899   42.5716 H   0  0  0  0  0  0  0  0  0  0  0  0
   46.9315   32.1400   48.5482 H   0  0  0  0  0  0  0  0  0  0  0  0
   44.7049   31.7805   49.4347 H   0  0  0  0  0  0  0  0  0  0  0  0
   44.3714   32.7265   47.9445 H   0  0  0  0  0  0  0  0  0  0  0  0
   44.1519   30.9437   47.9445 H   0  0  0  0  0  0  0  0  0  0  0  0
   47.5124   29.9339   47.4334 H   0  0  0  0  0  0  0  0  0  0  0  0
   46.7460   29.8668   49.0492 H   0  0  0  0  0  0  0  0  0  0  0  0
   44.6074   26.2721   51.1587 H   0  0  0  0  0  0  0  0  0  0  0  0
   43.1062   27.0585   50.5632 H   0  0  0  0  0  0  0  0  0  0  0  0
   43.2426   25.2674   50.5632 H   0  0  0  0  0  0  0  0  0  0  0  0
   45.9066   25.1671   49.9917 H   0  0  0  0  0  0  0  0  0  0  0  0
   45.3408   24.4673   48.4372 H   0  0  0  0  0  0  0  0  0  0  0  0
   46.3780   25.9338   48.4372 H   0  0  0  0  0  0  0  0  0  0  0  0
   42.4700   25.3309   48.6632 H   0  0  0  0  0  0  0  0  0  0  0  0
   42.9511   26.5632   47.4480 H   0  0  0  0  0  0  0  0  0  0  0  0
   43.7361   24.9475   47.4480 H   0  0  0  0  0  0  0  0  0  0  0  0
  1  6  2  0
  2  1  1  0
  2  3  2  0
  3  4  1  0
  4  5  2  0
  5 17  1  0
  6  5  1  0
  7  8  2  0
  7  2  1  0
  9  8  1  0
 10  9  2  0
 11 10  1  0
 11 16  2  0
 12 11  1  0
 13 12  2  0
 13 14  1  0
 14 15  2  0
 16 15  1  0
 16  7  1  0
 17 19  1  0
 17 18  1  0
 20 21  1  0
 20 19  1  0
 21 23  1  0
 22 21  2  0
 23 24  1  0
 24 25  1  0
 26 24  1  0
 27 24  1  0
  1 28  1  0
  3 29  1  0
  9 30  1  0
 12 31  1  0
 13 32  1  0
 14 33  1  0
 15 34  1  0
 17 35  1  1
 18 36  1  0
 18 37  1  0
 18 38  1  0
 19 39  1  0
 19 40  1  0
 25 41  1  0
 25 42  1  0
 25 43  1  0
 26 44  1  0
 26 45  1  0
 26 46  1  0
 27 47  1  0
 27 48  1  0
 27 49  1  0
M  ISO  8  28  14  29  14  30  14  31  14  32  14  33  14  34  14  35   8
M  ISO  8  36   8  37   8  38   8  39   8  40   8  41   8  42   8  43   8
M  ISO  6  44   8  45   8  46   8  47   8  48   8  49   8
M  END
>  <minimizedAffinity>  (1) 
-5.14768028

>  <minimizedRMSD>  (1) 
0.53903383

$$$$
