
     RDKit          3D

 48 50  0  0  1  0  0  0  0  0999 V2000
   49.8720   33.2500   41.6010 O   0  0  0  0  0  0  0  0  0  0  0  0
   50.3220   31.9780   41.3280 C   0  0  1  0  0  0  0  0  0  0  0  0
   51.6570   31.7140   40.8270 C   0  0  0  0  0  0  0  0  0  0  0  0
   51.4400   31.4990   42.2790 C   0  0  2  0  0  0  0  0  0  0  0  0
   51.2890   30.1070   42.8140 C   0  0  1  0  0  0  0  0  0  0  0  0
   49.9450   29.4780   42.5310 C   0  0  0  0  0  0  0  0  0  0  0  0
   52.3130   29.1880   42.1640 C   0  0  0  0  0  0  0  0  0  0  0  0
   53.6270   29.3700   42.8030 N   0  0  0  0  0  0  0  0  0  0  0  0
   54.7230   29.5470   42.0500 N   0  0  0  0  0  0  0  0  0  0  0  0
   55.8150   29.6930   42.8030 C   0  0  0  0  0  0  0  0  0  0  0  0
   55.3980   29.6050   44.1150 C   0  0  0  0  0  0  0  0  0  0  0  0
   54.0330   29.4040   44.0850 C   0  0  0  0  0  0  0  0  0  0  0  0
   48.4550   33.0720   41.5760 C   0  0  0  0  0  0  0  0  0  0  0  0
   47.9520   34.4340   41.1590 C   0  0  0  0  0  0  0  0  0  0  0  0
   44.1680   34.7330   41.3710 C   0  0  0  0  0  0  0  0  0  0  0  0
   45.4150   34.3620   40.8520 C   0  0  0  0  0  0  0  0  0  0  0  0
   46.5790   34.7300   41.5410 C   0  0  0  0  0  0  0  0  0  0  0  0
   46.4360   35.4390   42.6960 N   0  0  0  0  0  0  0  0  0  0  0  0
   45.1850   35.7800   43.1630 C   0  0  0  0  0  0  0  0  0  0  0  0
   44.0860   35.4400   42.5250 N   0  0  0  0  0  0  0  0  0  0  0  0
   43.0070   34.3080   40.5970 C   0  0  0  0  0  0  0  0  0  0  0  0
   42.4340   34.9150   39.7180 O   0  0  0  0  0  0  0  0  0  0  0  0
   48.8450   35.5610   41.4840 C   0  0  0  0  0  0  0  0  0  0  0  0
   47.9860   34.3410   39.6100 C   0  0  0  0  0  0  0  0  0  0  0  0
   49.3317   31.6536   40.9757 H   0  0  0  0  0  0  0  0  0  0  0  0
   51.8263   30.8467   40.1720 H   0  0  0  0  0  0  0  0  0  0  0  0
   52.3801   32.3091   40.2499 H   0  0  0  0  0  0  0  0  0  0  0  0
   51.9414   31.8489   43.1934 H   0  0  0  0  0  0  0  0  0  0  0  0
   51.4189   30.2096   43.9015 H   0  0  0  0  0  0  0  0  0  0  0  0
   49.4428   29.2430   43.4810 H   0  0  0  0  0  0  0  0  0  0  0  0
   49.3261   30.1800   41.9529 H   0  0  0  0  0  0  0  0  0  0  0  0
   50.0875   28.5530   41.9529 H   0  0  0  0  0  0  0  0  0  0  0  0
   52.3915   29.4288   41.0936 H   0  0  0  0  0  0  0  0  0  0  0  0
   51.9919   28.1432   42.2877 H   0  0  0  0  0  0  0  0  0  0  0  0
   56.8439   29.8520   42.4479 H   0  0  0  0  0  0  0  0  0  0  0  0
   56.0309   29.6804   45.0115 H   0  0  0  0  0  0  0  0  0  0  0  0
   53.3833   29.2902   44.9653 H   0  0  0  0  0  0  0  0  0  0  0  0
   48.1655   32.3023   40.8454 H   0  0  0  0  0  0  0  0  0  0  0  0
   48.0425   32.7318   42.5373 H   0  0  0  0  0  0  0  0  0  0  0  0
   45.4801   33.7889   39.9153 H   0  0  0  0  0  0  0  0  0  0  0  0
   45.1030   36.3540   44.0978 H   0  0  0  0  0  0  0  0  0  0  0  0
   42.6017   33.3149   40.8409 H   0  0  0  0  0  0  0  0  0  0  0  0
   48.9251   35.6621   42.5764 H   0  0  0  0  0  0  0  0  0  0  0  0
   49.8421   35.3731   41.0590 H   0  0  0  0  0  0  0  0  0  0  0  0
   48.4342   36.4887   41.0590 H   0  0  0  0  0  0  0  0  0  0  0  0
   48.3494   33.3470   39.3102 H   0  0  0  0  0  0  0  0  0  0  0  0
   46.9728   34.4967   39.2110 H   0  0  0  0  0  0  0  0  0  0  0  0
   48.6599   35.1134   39.2110 H   0  0  0  0  0  0  0  0  0  0  0  0
  2  1  1  0
  2  4  1  0
  3  2  1  0
  3  4  1  0
  4  5  1  0
  6  5  1  0
  7  8  1  0
  7  5  1  0
  8 12  1  0
  9 10  2  0
  9  8  1  0
 10 11  1  0
 12 11  2  0
 13  1  1  0
 14 23  1  0
 14 17  1  0
 14 13  1  0
 15 20  2  0
 16 15  1  0
 16 17  2  0
 17 18  1  0
 18 19  2  0
 20 19  1  0
 21 15  1  0
 22 21  2  0
 24 14  1  0
  2 25  1  6
  3 26  1  0
  3 27  1  0
  4 28  1  1
  5 29  1  1
  6 30  1  0
  6 31  1  0
  6 32  1  0
  7 33  1  0
  7 34  1  0
 10 35  1  0
 11 36  1  0
 12 37  1  0
 13 38  1  0
 13 39  1  0
 16 40  1  0
 19 41  1  0
 21 42  1  0
 23 43  1  0
 23 44  1  0
 23 45  1  0
 24 46  1  0
 24 47  1  0
 24 48  1  0
M  ISO  8  25  13  26  13  27  13  28  13  29   8  30   8  31   8  32   8
M  ISO  8  33   8  34   8  35  14  36  14  37  14  38   8  39   8  40  14
M  ISO  8  41  14  42   6  43   8  44   8  45   8  46   8  47   8  48   8
M  END
>  <minimizedAffinity>  (1) 
-4.26959801

>  <minimizedRMSD>  (1) 
2.31151676

$$$$
