
     RDKit          3D

 46 48  0  0  1  0  0  0  0  0999 V2000
   48.4660   33.1620   41.6260 C   0  0  0  0  0  0  0  0  0  0  0  0
   47.9370   34.4620   41.2090 C   0  0  0  0  0  0  0  0  0  0  0  0
   44.1720   34.8220   41.3590 C   0  0  0  0  0  0  0  0  0  0  0  0
   45.4200   34.4390   40.8520 C   0  0  0  0  0  0  0  0  0  0  0  0
   46.5710   34.7840   41.5810 C   0  0  0  0  0  0  0  0  0  0  0  0
   46.4130   35.4730   42.7420 N   0  0  0  0  0  0  0  0  0  0  0  0
   45.1670   35.8240   43.1940 C   0  0  0  0  0  0  0  0  0  0  0  0
   44.0760   35.5060   42.5190 N   0  0  0  0  0  0  0  0  0  0  0  0
   43.0210   34.4270   40.5560 C   0  0  0  0  0  0  0  0  0  0  0  0
   42.4490   35.0520   39.6910 O   0  0  0  0  0  0  0  0  0  0  0  0
   48.8340   35.6270   41.5300 C   0  0  0  0  0  0  0  0  0  0  0  0
   48.0020   34.3890   39.6580 C   0  0  0  0  0  0  0  0  0  0  0  0
   49.8790   33.2770   41.5720 O   0  0  0  0  0  0  0  0  0  0  0  0
   50.2880   31.9810   41.4040 C   0  0  1  0  0  0  0  0  0  0  0  0
   51.5970   31.6430   40.8830 C   0  0  0  0  0  0  0  0  0  0  0  0
   51.4290   31.5770   42.3580 C   0  0  2  0  0  0  0  0  0  0  0  0
   51.2650   30.2400   43.0280 C   0  0  1  0  0  0  0  0  0  0  0  0
   50.0920   29.4270   42.5310 C   0  0  0  0  0  0  0  0  0  0  0  0
   52.4880   29.3890   42.7760 C   0  0  0  0  0  0  0  0  0  0  0  0
   53.5300   29.5990   43.8170 C   0  0  0  0  0  0  0  0  0  0  0  0
   53.1150   30.0260   45.0300 N   0  0  0  0  0  0  0  0  0  0  0  0
   54.1340   30.1530   45.7950 O   0  0  0  0  0  0  0  0  0  0  0  0
   55.2300   29.8340   45.1690 C   0  0  0  0  0  0  0  0  0  0  0  0
   54.8780   29.4830   43.9280 N   0  0  0  0  0  0  0  0  0  0  0  0
   48.1408   32.9282   42.6505 H   0  0  0  0  0  0  0  0  0  0  0  0
   48.1033   32.3528   40.9751 H   0  0  0  0  0  0  0  0  0  0  0  0
   45.4975   33.8820   39.9066 H   0  0  0  0  0  0  0  0  0  0  0  0
   45.0734   36.3816   44.1376 H   0  0  0  0  0  0  0  0  0  0  0  0
   42.6174   33.4251   40.7643 H   0  0  0  0  0  0  0  0  0  0  0  0
   48.9176   35.7356   42.6214 H   0  0  0  0  0  0  0  0  0  0  0  0
   49.8317   35.4505   41.1016 H   0  0  0  0  0  0  0  0  0  0  0  0
   48.4084   36.5464   41.1016 H   0  0  0  0  0  0  0  0  0  0  0  0
   48.7056   33.5988   39.3573 H   0  0  0  0  0  0  0  0  0  0  0  0
   47.0024   34.1610   39.2594 H   0  0  0  0  0  0  0  0  0  0  0  0
   48.3440   35.3555   39.2594 H   0  0  0  0  0  0  0  0  0  0  0  0
   49.2809   31.6433   41.1179 H   0  0  0  0  0  0  0  0  0  0  0  0
   51.7275   30.7121   40.3117 H   0  0  0  0  0  0  0  0  0  0  0  0
   52.3076   32.1633   40.2239 H   0  0  0  0  0  0  0  0  0  0  0  0
   51.9700   32.0047   43.2149 H   0  0  0  0  0  0  0  0  0  0  0  0
   51.1046   30.4796   44.0895 H   0  0  0  0  0  0  0  0  0  0  0  0
   49.5271   29.0355   43.3898 H   0  0  0  0  0  0  0  0  0  0  0  0
   49.4359   30.0651   41.9207 H   0  0  0  0  0  0  0  0  0  0  0  0
   50.4592   28.5887   41.9207 H   0  0  0  0  0  0  0  0  0  0  0  0
   52.1914   28.3297   42.7774 H   0  0  0  0  0  0  0  0  0  0  0  0
   52.9124   29.6789   41.8034 H   0  0  0  0  0  0  0  0  0  0  0  0
   56.2495   29.8502   45.5818 H   0  0  0  0  0  0  0  0  0  0  0  0
  2 11  1  0
  2  5  1  0
  2  1  1  0
  3  8  2  0
  4  3  1  0
  4  5  2  0
  5  6  1  0
  6  7  2  0
  8  7  1  0
  9  3  1  0
 10  9  2  0
 12  2  1  0
 13  1  1  0
 14 13  1  0
 14 16  1  0
 15 14  1  0
 15 16  1  0
 16 17  1  0
 18 17  1  0
 19 17  1  0
 19 20  1  0
 20 24  1  0
 20 21  2  0
 21 22  1  0
 23 22  1  0
 24 23  2  0
  1 25  1  0
  1 26  1  0
  4 27  1  0
  7 28  1  0
  9 29  1  0
 11 30  1  0
 11 31  1  0
 11 32  1  0
 12 33  1  0
 12 34  1  0
 12 35  1  0
 14 36  1  6
 15 37  1  0
 15 38  1  0
 16 39  1  1
 17 40  1  1
 18 41  1  0
 18 42  1  0
 18 43  1  0
 19 44  1  0
 19 45  1  0
 23 46  1  0
M  ISO  8  25   8  26   8  27  14  28  14  29   6  30   8  31   8  32   8
M  ISO  8  33   8  34   8  35   8  36  13  37  13  38  13  39  13  40   8
M  ISO  6  41   8  42   8  43   8  44   8  45   8  46  14
M  END
>  <minimizedAffinity>  (1) 
-4.27919626

>  <minimizedRMSD>  (1) 
2.54835033

$$$$
