
     RDKit          3D

 27 29  0  0  0  0  0  0  0  0999 V2000
   47.0170   34.6500   41.9550 C   0  0  0  0  0  0  0  0  0  0  0  0
   45.7660   34.7510   41.3250 C   0  0  0  0  0  0  0  0  0  0  0  0
   44.5880   34.6050   42.0880 C   0  0  0  0  0  0  0  0  0  0  0  0
   44.7340   34.3700   43.4140 N   0  0  0  0  0  0  0  0  0  0  0  0
   45.9720   34.2810   43.9830 C   0  0  0  0  0  0  0  0  0  0  0  0
   47.0810   34.4180   43.2640 N   0  0  0  0  0  0  0  0  0  0  0  0
   43.3120   34.7040   41.4650 N   0  0  0  0  0  0  0  0  0  0  0  0
   42.1880   35.3930   41.7310 C   0  0  0  0  0  0  0  0  0  0  0  0
   41.2660   35.1080   40.7970 N   0  0  0  0  0  0  0  0  0  0  0  0
   41.8070   34.2270   39.9240 C   0  0  0  0  0  0  0  0  0  0  0  0
   41.2370   33.6450   38.7970 C   0  0  0  0  0  0  0  0  0  0  0  0
   42.0040   32.7930   38.0970 N   0  0  0  0  0  0  0  0  0  0  0  0
   43.2720   32.5240   38.4860 C   0  0  0  0  0  0  0  0  0  0  0  0
   43.7810   33.1110   39.5850 N   0  0  0  0  0  0  0  0  0  0  0  0
   43.0820   33.9800   40.3470 C   0  0  0  0  0  0  0  0  0  0  0  0
   48.1190   34.8310   41.0040 C   0  0  0  0  0  0  0  0  0  0  0  0
   49.0780   35.9140   41.4720 C   0  0  0  0  0  0  0  0  0  0  0  0
   45.7048   34.9427   40.2436 H   0  0  0  0  0  0  0  0  0  0  0  0
   46.0533   34.0912   45.0634 H   0  0  0  0  0  0  0  0  0  0  0  0
   42.0465   36.0802   42.5782 H   0  0  0  0  0  0  0  0  0  0  0  0
   40.2047   33.8721   38.4925 H   0  0  0  0  0  0  0  0  0  0  0  0
   43.8881   31.8239   37.9026 H   0  0  0  0  0  0  0  0  0  0  0  0
   47.7052   35.1167   40.0257 H   0  0  0  0  0  0  0  0  0  0  0  0
   48.6734   33.8838   40.9295 H   0  0  0  0  0  0  0  0  0  0  0  0
   49.0976   35.9362   42.5716 H   0  0  0  0  0  0  0  0  0  0  0  0
   50.0875   35.6993   41.0915 H   0  0  0  0  0  0  0  0  0  0  0  0
   48.7427   36.8901   41.0915 H   0  0  0  0  0  0  0  0  0  0  0  0
  1  6  2  0
  2  1  1  0
  2  3  2  0
  3  4  1  0
  4  5  2  0
  6  5  1  0
  7  8  1  0
  7  3  1  0
  9  8  2  0
 10 15  2  0
 10  9  1  0
 11 10  1  0
 12 13  1  0
 12 11  2  0
 13 14  2  0
 14 15  1  0
 15  7  1  0
 16 17  1  0
 16  1  1  0
  2 18  1  0
  5 19  1  0
  8 20  1  0
 11 21  1  0
 13 22  1  0
 16 23  1  0
 16 24  1  0
 17 25  1  0
 17 26  1  0
 17 27  1  0
M  ISO  8  18  14  19  14  20  14  21  14  22  14  23   8  24   8  25   8
M  ISO  2  26   8  27   8
M  END
>  <minimizedAffinity>  (1) 
-4.90787411

>  <minimizedRMSD>  (1) 
3.2958169

$$$$
