
     RDKit          3D

 42 43  0  0  1  0  0  0  0  0999 V2000
   48.4610   33.1280   41.6190 C   0  0  0  0  0  0  0  0  0  0  0  0
   47.9510   34.4860   41.1960 C   0  0  0  0  0  0  0  0  0  0  0  0
   44.1610   34.7370   41.3950 C   0  0  0  0  0  0  0  0  0  0  0  0
   45.4140   34.3730   40.8860 C   0  0  0  0  0  0  0  0  0  0  0  0
   46.5690   34.7650   41.5640 C   0  0  0  0  0  0  0  0  0  0  0  0
   46.4130   35.4940   42.7080 N   0  0  0  0  0  0  0  0  0  0  0  0
   45.1580   35.8260   43.1670 C   0  0  0  0  0  0  0  0  0  0  0  0
   44.0680   35.4620   42.5350 N   0  0  0  0  0  0  0  0  0  0  0  0
   43.0060   34.2800   40.6250 C   0  0  0  0  0  0  0  0  0  0  0  0
   42.4200   34.8620   39.7390 O   0  0  0  0  0  0  0  0  0  0  0  0
   48.8290   35.6160   41.5350 C   0  0  0  0  0  0  0  0  0  0  0  0
   47.9910   34.3900   39.6470 C   0  0  0  0  0  0  0  0  0  0  0  0
   49.8790   33.2970   41.5910 O   0  0  0  0  0  0  0  0  0  0  0  0
   50.3100   32.0070   41.3520 C   0  0  1  0  0  0  0  0  0  0  0  0
   51.6610   31.6960   40.9390 C   0  0  0  0  0  0  0  0  0  0  0  0
   51.3520   31.5200   42.3850 C   0  0  2  0  0  0  0  0  0  0  0  0
   51.1220   30.1370   42.9130 C   0  0  1  0  0  0  0  0  0  0  0  0
   49.7530   29.9140   43.5300 C   0  0  0  0  0  0  0  0  0  0  0  0
   51.2840   29.1160   41.8520 C   0  0  0  0  0  0  0  0  0  0  0  0
   50.2050   28.4110   41.4450 O   0  0  0  0  0  0  0  0  0  0  0  0
   48.1128   32.8719   42.6305 H   0  0  0  0  0  0  0  0  0  0  0  0
   48.1080   32.3107   40.9729 H   0  0  0  0  0  0  0  0  0  0  0  0
   45.4870   33.7835   39.9602 H   0  0  0  0  0  0  0  0  0  0  0  0
   45.0669   36.4144   44.0919 H   0  0  0  0  0  0  0  0  0  0  0  0
   42.6205   33.2824   40.8823 H   0  0  0  0  0  0  0  0  0  0  0  0
   48.9012   35.7090   42.6287 H   0  0  0  0  0  0  0  0  0  0  0  0
   49.8305   35.4411   41.1149 H   0  0  0  0  0  0  0  0  0  0  0  0
   48.4120   36.5432   41.1149 H   0  0  0  0  0  0  0  0  0  0  0  0
   48.3984   33.4122   39.3506 H   0  0  0  0  0  0  0  0  0  0  0  0
   46.9724   34.4995   39.2464 H   0  0  0  0  0  0  0  0  0  0  0  0
   48.6305   35.1903   39.2464 H   0  0  0  0  0  0  0  0  0  0  0  0
   49.3382   31.7039   40.9352 H   0  0  0  0  0  0  0  0  0  0  0  0
   51.8440   30.8094   40.3142 H   0  0  0  0  0  0  0  0  0  0  0  0
   52.4335   32.2579   40.3935 H   0  0  0  0  0  0  0  0  0  0  0  0
   51.8036   31.8769   43.3224 H   0  0  0  0  0  0  0  0  0  0  0  0
   51.8824   30.0334   43.7011 H   0  0  0  0  0  0  0  0  0  0  0  0
   49.8384   29.9279   44.6266 H   0  0  0  0  0  0  0  0  0  0  0  0
   49.0699   30.7127   43.2052 H   0  0  0  0  0  0  0  0  0  0  0  0
   49.3587   28.9398   43.2052 H   0  0  0  0  0  0  0  0  0  0  0  0
   51.6827   29.6330   40.9667 H   0  0  0  0  0  0  0  0  0  0  0  0
   51.9323   28.3578   42.3154 H   0  0  0  0  0  0  0  0  0  0  0  0
   49.7063   28.0851   42.2357 H   0  0  0  0  0  0  0  0  0  0  0  0
  2 11  1  0
  2  5  1  0
  2  1  1  0
  3  8  2  0
  4  3  1  0
  4  5  2  0
  5  6  1  0
  6  7  2  0
  8  7  1  0
  9  3  1  0
 10  9  2  0
 12  2  1  0
 13  1  1  0
 14 13  1  0
 14 16  1  0
 15 14  1  0
 15 16  1  0
 16 17  1  0
 17 18  1  0
 19 17  1  0
 20 19  1  0
  1 21  1  0
  1 22  1  0
  4 23  1  0
  7 24  1  0
  9 25  1  0
 11 26  1  0
 11 27  1  0
 11 28  1  0
 12 29  1  0
 12 30  1  0
 12 31  1  0
 14 32  1  6
 15 33  1  0
 15 34  1  0
 16 35  1  1
 17 36  1  1
 18 37  1  0
 18 38  1  0
 18 39  1  0
 19 40  1  0
 19 41  1  0
 20 42  1  0
M  ISO  8  21   8  22   8  23  14  24  14  25   6  26   8  27   8  28   8
M  ISO  8  29   8  30   8  31   8  32  13  33  13  34  13  35  13  36   8
M  ISO  6  37   8  38   8  39   8  40   8  41   8  42   3
M  END
>  <minimizedAffinity>  (1) 
-4.05879688

>  <minimizedRMSD>  (1) 
0.231919989

$$$$
