
     RDKit          3D

 54 56  0  0  1  0  0  0  0  0999 V2000
   48.4730   33.1580   41.6200 C   0  0  0  0  0  0  0  0  0  0  0  0
   47.9380   34.4610   41.2060 C   0  0  0  0  0  0  0  0  0  0  0  0
   44.1680   34.7550   41.3920 C   0  0  0  0  0  0  0  0  0  0  0  0
   45.4180   34.3790   40.8820 C   0  0  0  0  0  0  0  0  0  0  0  0
   46.5690   34.7710   41.5850 C   0  0  0  0  0  0  0  0  0  0  0  0
   46.4100   35.4960   42.7230 N   0  0  0  0  0  0  0  0  0  0  0  0
   45.1670   35.8390   43.1810 C   0  0  0  0  0  0  0  0  0  0  0  0
   44.0710   35.4770   42.5300 N   0  0  0  0  0  0  0  0  0  0  0  0
   43.0150   34.3130   40.6160 C   0  0  0  0  0  0  0  0  0  0  0  0
   42.4420   34.8930   39.7110 O   0  0  0  0  0  0  0  0  0  0  0  0
   48.8270   35.6290   41.5360 C   0  0  0  0  0  0  0  0  0  0  0  0
   48.0000   34.3990   39.6550 C   0  0  0  0  0  0  0  0  0  0  0  0
   49.8870   33.2780   41.5520 O   0  0  0  0  0  0  0  0  0  0  0  0
   50.2880   31.9820   41.3760 C   0  0  1  0  0  0  0  0  0  0  0  0
   51.6310   31.6450   40.9320 C   0  0  0  0  0  0  0  0  0  0  0  0
   51.3760   31.5350   42.3710 C   0  0  2  0  0  0  0  0  0  0  0  0
   51.1460   30.1880   43.0070 C   0  0  1  0  0  0  0  0  0  0  0  0
   49.9450   29.4390   42.4970 C   0  0  0  0  0  0  0  0  0  0  0  0
   52.3170   29.2970   42.7760 C   0  0  0  0  0  0  0  0  0  0  0  0
   53.5270   29.6190   43.4390 N   0  0  0  0  0  0  0  0  0  0  0  0
   53.4220   29.7400   44.8680 C   0  0  0  0  0  0  0  0  0  0  0  0
   53.1760   28.4440   45.5800 C   0  0  0  0  0  0  0  0  0  0  0  0
   53.2330   27.3190   44.8010 O   0  0  0  0  0  0  0  0  0  0  0  0
   54.2030   27.2860   43.8380 C   0  0  0  0  0  0  0  0  0  0  0  0
   54.5350   28.5980   43.1970 C   0  0  0  0  0  0  0  0  0  0  0  0
   48.1579   32.9240   42.6476 H   0  0  0  0  0  0  0  0  0  0  0  0
   48.1051   32.3469   40.9744 H   0  0  0  0  0  0  0  0  0  0  0  0
   45.4957   33.7920   39.9550 H   0  0  0  0  0  0  0  0  0  0  0  0
   45.0759   36.4261   44.1067 H   0  0  0  0  0  0  0  0  0  0  0  0
   42.6094   33.3260   40.8831 H   0  0  0  0  0  0  0  0  0  0  0  0
   48.9059   35.7326   42.6283 H   0  0  0  0  0  0  0  0  0  0  0  0
   49.8272   35.4602   41.1105 H   0  0  0  0  0  0  0  0  0  0  0  0
   48.3979   36.5481   41.1105 H   0  0  0  0  0  0  0  0  0  0  0  0
   48.7468   33.6522   39.3475 H   0  0  0  0  0  0  0  0  0  0  0  0
   47.0135   34.1154   39.2596 H   0  0  0  0  0  0  0  0  0  0  0  0
   48.2836   35.3855   39.2596 H   0  0  0  0  0  0  0  0  0  0  0  0
   49.2939   31.6656   41.0271 H   0  0  0  0  0  0  0  0  0  0  0  0
   51.7904   30.7311   40.3409 H   0  0  0  0  0  0  0  0  0  0  0  0
   52.3864   32.1795   40.3374 H   0  0  0  0  0  0  0  0  0  0  0  0
   51.8836   31.9267   43.2648 H   0  0  0  0  0  0  0  0  0  0  0  0
   50.9831   30.4227   44.0693 H   0  0  0  0  0  0  0  0  0  0  0  0
   49.3540   29.0704   43.3484 H   0  0  0  0  0  0  0  0  0  0  0  0
   49.3262   30.1116   41.8849 H   0  0  0  0  0  0  0  0  0  0  0  0
   50.2767   28.5874   41.8849 H   0  0  0  0  0  0  0  0  0  0  0  0
   52.0275   28.2842   43.0929 H   0  0  0  0  0  0  0  0  0  0  0  0
   52.5464   29.4089   41.7060 H   0  0  0  0  0  0  0  0  0  0  0  0
   54.3613   30.1687   45.2474 H   0  0  0  0  0  0  0  0  0  0  0  0
   52.5493   30.3795   45.0669 H   0  0  0  0  0  0  0  0  0  0  0  0
   53.9321   28.3450   46.3728 H   0  0  0  0  0  0  0  0  0  0  0  0
   52.1429   28.4983   45.9537 H   0  0  0  0  0  0  0  0  0  0  0  0
   55.1218   26.8942   44.2988 H   0  0  0  0  0  0  0  0  0  0  0  0
   53.8001   26.6551   43.0320 H   0  0  0  0  0  0  0  0  0  0  0  0
   54.6257   28.4450   42.1115 H   0  0  0  0  0  0  0  0  0  0  0  0
   55.4767   28.9528   43.6412 H   0  0  0  0  0  0  0  0  0  0  0  0
  2 11  1  0
  2  5  1  0
  2  1  1  0
  3  8  2  0
  4  3  1  0
  4  5  2  0
  5  6  1  0
  6  7  2  0
  8  7  1  0
  9  3  1  0
 10  9  2  0
 12  2  1  0
 13  1  1  0
 14 13  1  0
 14 16  1  0
 15 14  1  0
 15 16  1  0
 16 17  1  0
 18 17  1  0
 19 17  1  0
 19 20  1  0
 20 21  1  0
 21 22  1  0
 23 22  1  0
 24 23  1  0
 25 20  1  0
 25 24  1  0
  1 26  1  0
  1 27  1  0
  4 28  1  0
  7 29  1  0
  9 30  1  0
 11 31  1  0
 11 32  1  0
 11 33  1  0
 12 34  1  0
 12 35  1  0
 12 36  1  0
 14 37  1  6
 15 38  1  0
 15 39  1  0
 16 40  1  1
 17 41  1  1
 18 42  1  0
 18 43  1  0
 18 44  1  0
 19 45  1  0
 19 46  1  0
 21 47  1  0
 21 48  1  0
 22 49  1  0
 22 50  1  0
 24 51  1  0
 24 52  1  0
 25 53  1  0
 25 54  1  0
M  ISO  8  26   8  27   8  28  14  29  14  30   6  31   8  32   8  33   8
M  ISO  8  34   8  35   8  36   8  37  13  38  13  39  13  40  13  41   8
M  ISO  8  42   8  43   8  44   8  45   8  46   8  47  13  48  13  49  13
M  ISO  5  50  13  51  13  52  13  53  13  54  13
M  END
>  <minimizedAffinity>  (1) 
-4.12682104

>  <minimizedRMSD>  (1) 
1.69896889

$$$$
