
     RDKit          3D

 29 30  0  0  0  0  0  0  0  0999 V2000
   47.0890   34.5930   41.9610 C   0  0  0  0  0  0  0  0  0  0  0  0
   45.8410   34.5450   41.3120 C   0  0  0  0  0  0  0  0  0  0  0  0
   44.6900   34.2850   42.0860 C   0  0  0  0  0  0  0  0  0  0  0  0
   44.8420   34.0960   43.4140 N   0  0  0  0  0  0  0  0  0  0  0  0
   46.0820   34.1540   44.0010 C   0  0  0  0  0  0  0  0  0  0  0  0
   47.1870   34.4030   43.2620 N   0  0  0  0  0  0  0  0  0  0  0  0
   43.3910   34.2170   41.5120 N   0  0  0  0  0  0  0  0  0  0  0  0
   42.4590   35.2850   41.6840 C   0  0  0  0  0  0  0  0  0  0  0  0
   41.6240   35.3250   40.3960 C   0  0  0  0  0  0  0  0  0  0  0  0
   40.8800   34.1760   40.2780 O   0  0  0  0  0  0  0  0  0  0  0  0
   41.4550   33.0510   40.8220 C   0  0  0  0  0  0  0  0  0  0  0  0
   42.9850   33.0600   40.7390 C   0  0  0  0  0  0  0  0  0  0  0  0
   48.1710   34.8680   41.0070 C   0  0  0  0  0  0  0  0  0  0  0  0
   49.1060   35.9500   41.5080 C   0  0  0  0  0  0  0  0  0  0  0  0
   45.7646   34.7064   40.2266 H   0  0  0  0  0  0  0  0  0  0  0  0
   46.1778   33.9960   45.0854 H   0  0  0  0  0  0  0  0  0  0  0  0
   41.8129   35.0929   42.5533 H   0  0  0  0  0  0  0  0  0  0  0  0
   42.9699   36.2423   41.8645 H   0  0  0  0  0  0  0  0  0  0  0  0
   40.9494   36.1933   40.4269 H   0  0  0  0  0  0  0  0  0  0  0  0
   42.2999   35.4057   39.5319 H   0  0  0  0  0  0  0  0  0  0  0  0
   41.1619   32.9844   41.8801 H   0  0  0  0  0  0  0  0  0  0  0  0
   41.0994   32.1867   40.2418 H   0  0  0  0  0  0  0  0  0  0  0  0
   43.4020   32.1389   41.1721 H   0  0  0  0  0  0  0  0  0  0  0  0
   43.3442   33.1077   39.7004 H   0  0  0  0  0  0  0  0  0  0  0  0
   47.7298   35.1931   40.0532 H   0  0  0  0  0  0  0  0  0  0  0  0
   48.7556   33.9449   40.8799 H   0  0  0  0  0  0  0  0  0  0  0  0
   49.1081   35.9524   42.6080 H   0  0  0  0  0  0  0  0  0  0  0  0
   50.1239   35.7543   41.1399 H   0  0  0  0  0  0  0  0  0  0  0  0
   48.7648   36.9288   41.1399 H   0  0  0  0  0  0  0  0  0  0  0  0
  1  6  2  0
  2  1  1  0
  2  3  2  0
  3  4  1  0
  4  5  2  0
  6  5  1  0
  7  8  1  0
  7  3  1  0
  9  8  1  0
 10  9  1  0
 10 11  1  0
 12 11  1  0
 12  7  1  0
 13 14  1  0
 13  1  1  0
  2 15  1  0
  5 16  1  0
  8 17  1  0
  8 18  1  0
  9 19  1  0
  9 20  1  0
 11 21  1  0
 11 22  1  0
 12 23  1  0
 12 24  1  0
 13 25  1  0
 13 26  1  0
 14 27  1  0
 14 28  1  0
 14 29  1  0
M  ISO  8  15  14  16  14  17  13  18  13  19  13  20  13  21  13  22  13
M  ISO  7  23  13  24  13  25   8  26   8  27   8  28   8  29   8
M  END
>  <minimizedAffinity>  (1) 
-4.4535985

>  <minimizedRMSD>  (1) 
3.14861941

$$$$
