
     RDKit          3D

 19 19  0  0  0  0  0  0  0  0999 V2000
   47.4400   34.3240   42.4490 C   0  0  0  0  0  0  0  0  0  0  0  0
   46.3320   35.0430   42.9390 C   0  0  0  0  0  0  0  0  0  0  0  0
   45.7150   34.6240   44.1320 C   0  0  0  0  0  0  0  0  0  0  0  0
   46.2420   33.5390   44.7360 N   0  0  0  0  0  0  0  0  0  0  0  0
   47.3080   32.8630   44.2480 C   0  0  0  0  0  0  0  0  0  0  0  0
   47.8770   33.2740   43.1190 N   0  0  0  0  0  0  0  0  0  0  0  0
   47.9600   34.8980   41.1970 C   0  0  0  0  0  0  0  0  0  0  0  0
   49.0630   35.9140   41.4770 C   0  0  0  0  0  0  0  0  0  0  0  0
   44.5650   35.3380   44.6780 C   0  0  0  0  0  0  0  0  0  0  0  0
   44.4650   35.4840   45.9010 O   0  0  0  0  0  0  0  0  0  0  0  0
   43.6110   35.8320   43.8090 O   0  0  0  0  0  0  0  0  0  0  0  0
   45.9538   35.9214   42.3954 H   0  0  0  0  0  0  0  0  0  0  0  0
   47.6993   31.9831   44.7797 H   0  0  0  0  0  0  0  0  0  0  0  0
   47.1387   35.3972   40.6620 H   0  0  0  0  0  0  0  0  0  0  0  0
   48.3799   34.0847   40.5869 H   0  0  0  0  0  0  0  0  0  0  0  0
   49.1881   36.0292   42.5638 H   0  0  0  0  0  0  0  0  0  0  0  0
   50.0066   35.5621   41.0346 H   0  0  0  0  0  0  0  0  0  0  0  0
   48.7896   36.8833   41.0346 H   0  0  0  0  0  0  0  0  0  0  0  0
   42.8245   36.3188   44.1620 H   0  0  0  0  0  0  0  0  0  0  0  0
  1  2  2  0
  1  6  1  0
  2  3  1  0
  3  9  1  0
  3  4  2  0
  5  4  1  0
  6  5  2  0
  7  8  1  0
  7  1  1  0
  9 10  2  0
 11  9  1  0
  2 12  1  0
  5 13  1  0
  7 14  1  0
  7 15  1  0
  8 16  1  0
  8 17  1  0
  8 18  1  0
 11 19  1  0
M  ISO  8  12  14  13  14  14   8  15   8  16   8  17   8  18   8  19   3
M  END
>  <minimizedAffinity>  (1) 
-4.46249342

>  <minimizedRMSD>  (1) 
0.974198163

$$$$
