
     RDKit          3D

 22 23  0  0  0  0  0  0  0  0999 V2000
   47.1150   34.5790   42.0150 C   0  0  0  0  0  0  0  0  0  0  0  0
   45.8200   34.6060   41.4860 C   0  0  0  0  0  0  0  0  0  0  0  0
   44.7120   34.3210   42.3150 C   0  0  0  0  0  0  0  0  0  0  0  0
   44.9940   34.0320   43.6010 N   0  0  0  0  0  0  0  0  0  0  0  0
   46.2530   34.0110   44.0920 C   0  0  0  0  0  0  0  0  0  0  0  0
   47.2790   34.2830   43.2940 N   0  0  0  0  0  0  0  0  0  0  0  0
   43.3690   34.3500   41.7550 C   0  0  0  0  0  0  0  0  0  0  0  0
   42.7570   33.1460   41.3660 C   0  0  0  0  0  0  0  0  0  0  0  0
   41.0650   33.6810   40.7150 S   0  0  0  0  0  0  0  0  0  0  0  0
   41.5460   35.4630   41.1140 C   0  0  0  0  0  0  0  0  0  0  0  0
   42.6280   35.4180   41.5630 N   0  0  0  0  0  0  0  0  0  0  0  0
   48.1290   34.8980   41.0030 C   0  0  0  0  0  0  0  0  0  0  0  0
   49.1020   35.9470   41.5070 C   0  0  0  0  0  0  0  0  0  0  0  0
   45.6645   34.8491   40.4245 H   0  0  0  0  0  0  0  0  0  0  0  0
   46.4275   33.7690   45.1508 H   0  0  0  0  0  0  0  0  0  0  0  0
   43.1679   32.1274   41.4265 H   0  0  0  0  0  0  0  0  0  0  0  0
   40.9335   36.3631   40.9566 H   0  0  0  0  0  0  0  0  0  0  0  0
   47.6274   35.2788   40.1012 H   0  0  0  0  0  0  0  0  0  0  0  0
   48.6938   33.9814   40.7774 H   0  0  0  0  0  0  0  0  0  0  0  0
   49.1029   35.9479   42.6070 H   0  0  0  0  0  0  0  0  0  0  0  0
   50.1128   35.7161   41.1397 H   0  0  0  0  0  0  0  0  0  0  0  0
   48.7959   36.9377   41.1397 H   0  0  0  0  0  0  0  0  0  0  0  0
  1  6  2  0
  2  1  1  0
  2  3  2  0
  3  4  1  0
  4  5  2  0
  6  5  1  0
  7  3  1  0
  8  7  2  0
  9 10  1  0
  9  8  1  0
 10 11  2  0
 11  7  1  0
 12 13  1  0
 12  1  1  0
  2 14  1  0
  5 15  1  0
  8 16  1  0
 10 17  1  0
 12 18  1  0
 12 19  1  0
 13 20  1  0
 13 21  1  0
 13 22  1  0
M  ISO  8  14  14  15  14  16  14  17  14  18   8  19   8  20   8  21   8
M  ISO  1  22   8
M  END
>  <minimizedAffinity>  (1) 
-4.1359396

>  <minimizedRMSD>  (1) 
2.63166332

$$$$
