
     RDKit          3D

 17 17  0  0  0  0  0  0  0  0999 V2000
   47.0270   34.6800   42.6540 C   0  0  0  0  0  0  0  0  0  0  0  0
   45.8050   35.3710   42.7620 C   0  0  0  0  0  0  0  0  0  0  0  0
   44.9720   35.1430   43.8700 C   0  0  0  0  0  0  0  0  0  0  0  0
   45.3980   34.2520   44.7900 N   0  0  0  0  0  0  0  0  0  0  0  0
   46.5890   33.5890   44.6700 C   0  0  0  0  0  0  0  0  0  0  0  0
   47.3740   33.8240   43.5980 N   0  0  0  0  0  0  0  0  0  0  0  0
   47.7590   35.0400   41.4330 C   0  0  0  0  0  0  0  0  0  0  0  0
   49.0400   35.7670   41.7350 C   0  0  0  0  0  0  0  0  0  0  0  0
   43.7580   35.8110   44.0040 O   0  0  0  0  0  0  0  0  0  0  0  0
   45.5039   36.0861   41.9823 H   0  0  0  0  0  0  0  0  0  0  0  0
   46.9038   32.8704   45.4411 H   0  0  0  0  0  0  0  0  0  0  0  0
   47.1205   35.6883   40.8148 H   0  0  0  0  0  0  0  0  0  0  0  0
   48.0141   34.1097   40.9043 H   0  0  0  0  0  0  0  0  0  0  0  0
   49.1712   35.8415   42.8246 H   0  0  0  0  0  0  0  0  0  0  0  0
   49.8863   35.2146   41.3007 H   0  0  0  0  0  0  0  0  0  0  0  0
   48.9997   36.7768   41.3007 H   0  0  0  0  0  0  0  0  0  0  0  0
   43.1826   35.6389   44.7910 H   0  0  0  0  0  0  0  0  0  0  0  0
  1  2  2  0
  1  6  1  0
  2  3  1  0
  3  9  1  0
  3  4  2  0
  5  4  1  0
  6  5  2  0
  7  8  1  0
  7  1  1  0
  2 10  1  0
  5 11  1  0
  7 12  1  0
  7 13  1  0
  8 14  1  0
  8 15  1  0
  8 16  1  0
  9 17  1  0
M  ISO  8  10  14  11  14  12   8  13   8  14   8  15   8  16   8  17   3
M  END
>  <minimizedAffinity>  (1) 
-4.02698755

>  <minimizedRMSD>  (1) 
0.159915388

$$$$
