
     RDKit          3D

 23 24  0  0  0  0  0  0  0  0999 V2000
   47.0730   34.5790   42.0070 C   0  0  0  0  0  0  0  0  0  0  0  0
   45.7600   34.6280   41.4590 C   0  0  0  0  0  0  0  0  0  0  0  0
   44.6800   34.3850   42.3010 C   0  0  0  0  0  0  0  0  0  0  0  0
   44.9350   34.1120   43.6140 N   0  0  0  0  0  0  0  0  0  0  0  0
   46.2000   34.0750   44.0910 C   0  0  0  0  0  0  0  0  0  0  0  0
   47.2450   34.3040   43.3010 N   0  0  0  0  0  0  0  0  0  0  0  0
   43.3510   34.4280   41.7850 N   0  0  0  0  0  0  0  0  0  0  0  0
   42.3790   35.3110   41.7270 N   0  0  0  0  0  0  0  0  0  0  0  0
   41.3270   34.7560   41.0990 C   0  0  0  0  0  0  0  0  0  0  0  0
   41.6560   33.4460   40.7400 C   0  0  0  0  0  0  0  0  0  0  0  0
   42.9550   33.2660   41.1930 C   0  0  0  0  0  0  0  0  0  0  0  0
   48.1180   34.8560   41.0010 C   0  0  0  0  0  0  0  0  0  0  0  0
   49.0820   35.9210   41.5000 C   0  0  0  0  0  0  0  0  0  0  0  0
   45.6032   34.8530   40.3937 H   0  0  0  0  0  0  0  0  0  0  0  0
   46.3680   33.8508   45.1547 H   0  0  0  0  0  0  0  0  0  0  0  0
   40.3654   35.2519   40.9005 H   0  0  0  0  0  0  0  0  0  0  0  0
   41.0231   32.7167   40.2132 H   0  0  0  0  0  0  0  0  0  0  0  0
   43.5567   32.3506   41.0925 H   0  0  0  0  0  0  0  0  0  0  0  0
   47.6415   35.2073   40.0739 H   0  0  0  0  0  0  0  0  0  0  0  0
   48.6821   33.9300   40.8157 H   0  0  0  0  0  0  0  0  0  0  0  0
   49.0861   35.9255   42.6000 H   0  0  0  0  0  0  0  0  0  0  0  0
   50.0945   35.7012   41.1305 H   0  0  0  0  0  0  0  0  0  0  0  0
   48.7628   36.9067   41.1305 H   0  0  0  0  0  0  0  0  0  0  0  0
  1  6  2  0
  2  1  1  0
  2  3  2  0
  3  4  1  0
  4  5  2  0
  6  5  1  0
  7  3  1  0
  8  7  1  0
  9  8  2  0
 10  9  1  0
 10 11  2  0
 11  7  1  0
 12 13  1  0
 12  1  1  0
  2 14  1  0
  5 15  1  0
  9 16  1  0
 10 17  1  0
 11 18  1  0
 12 19  1  0
 12 20  1  0
 13 21  1  0
 13 22  1  0
 13 23  1  0
M  ISO  8  14  14  15  14  16  14  17  14  18  14  19   8  20   8  21   8
M  ISO  2  22   8  23   8
M  END
>  <minimizedAffinity>  (1) 
-4.2887392

>  <minimizedRMSD>  (1) 
2.53970051

$$$$
