
     RDKit          3D

 40 42  0  0  1  0  0  0  0  0999 V2000
   47.5360   32.0290   44.4940 C   0  0  0  0  0  0  0  0  0  0  0  0
   46.9070   33.2480   44.1360 C   0  0  0  0  0  0  0  0  0  0  0  0
   46.0560   33.7790   45.0950 C   0  0  0  0  0  0  0  0  0  0  0  0
   45.8660   33.1440   46.2770 N   0  0  0  0  0  0  0  0  0  0  0  0
   46.4890   31.9890   46.5640 C   0  0  0  0  0  0  0  0  0  0  0  0
   47.3110   31.4260   45.7040 N   0  0  0  0  0  0  0  0  0  0  0  0
   47.2590   33.7330   42.8440 C   0  0  0  0  0  0  0  0  0  0  0  0
   48.2830   34.6240   42.8640 N   0  0  0  0  0  0  0  0  0  0  0  0
   48.7640   35.1980   41.7390 C   0  0  0  0  0  0  0  0  0  0  0  0
   48.2440   34.9080   40.5150 N   0  0  0  0  0  0  0  0  0  0  0  0
   47.2230   34.0250   40.4530 C   0  0  0  0  0  0  0  0  0  0  0  0
   46.5950   33.6340   39.2770 C   0  0  0  0  0  0  0  0  0  0  0  0
   45.5620   32.7350   39.2480 C   0  0  0  0  0  0  0  0  0  0  0  0
   45.1220   32.1920   40.4270 C   0  0  0  0  0  0  0  0  0  0  0  0
   45.6980   32.5350   41.6220 C   0  0  0  0  0  0  0  0  0  0  0  0
   46.7350   33.4450   41.5910 C   0  0  0  0  0  0  0  0  0  0  0  0
   46.2480   31.3630   47.8540 C   0  0  1  0  0  0  0  0  0  0  0  0
   44.7830   31.6160   48.3410 C   0  0  0  0  0  0  0  0  0  0  0  0
   46.5050   29.8920   47.9040 C   0  0  0  0  0  0  0  0  0  0  0  0
   45.3340   29.2410   47.7210 O   0  0  0  0  0  0  0  0  0  0  0  0
   44.9750   27.9160   47.8770 C   0  0  0  0  0  0  0  0  0  0  0  0
   45.0770   27.0680   46.9440 O   0  0  0  0  0  0  0  0  0  0  0  0
   44.4870   27.5290   49.1060 O   0  0  0  0  0  0  0  0  0  0  0  0
   44.1960   26.1250   49.3680 C   0  0  0  0  0  0  0  0  0  0  0  0
   44.8700   25.4890   50.2180 O   0  0  0  0  0  0  0  0  0  0  0  0
   43.1610   25.5470   48.6450 O   0  0  0  0  0  0  0  0  0  0  0  0
   48.2245   31.5534   43.7800 H   0  0  0  0  0  0  0  0  0  0  0  0
   45.5307   34.7243   44.8938 H   0  0  0  0  0  0  0  0  0  0  0  0
   49.5943   35.9156   41.8142 H   0  0  0  0  0  0  0  0  0  0  0  0
   46.9429   34.0656   38.3269 H   0  0  0  0  0  0  0  0  0  0  0  0
   45.0930   32.4533   38.2937 H   0  0  0  0  0  0  0  0  0  0  0  0
   44.2930   31.4691   40.4137 H   0  0  0  0  0  0  0  0  0  0  0  0
   45.3471   32.1014   42.5701 H   0  0  0  0  0  0  0  0  0  0  0  0
   46.9813   31.8435   48.5184 H   0  0  0  0  0  0  0  0  0  0  0  0
   44.7578   31.6204   49.4407 H   0  0  0  0  0  0  0  0  0  0  0  0
   44.4334   32.5878   47.9624 H   0  0  0  0  0  0  0  0  0  0  0  0
   44.1277   30.8177   47.9624 H   0  0  0  0  0  0  0  0  0  0  0  0
   47.2121   29.6125   47.1091 H   0  0  0  0  0  0  0  0  0  0  0  0
   46.9369   29.6198   48.8784 H   0  0  0  0  0  0  0  0  0  0  0  0
   42.9273   24.5959   48.7893 H   0  0  0  0  0  0  0  0  0  0  0  0
  1  6  2  0
  2  1  1  0
  2  3  2  0
  3  4  1  0
  4  5  2  0
  5 17  1  0
  6  5  1  0
  7  8  2  0
  7  2  1  0
  9  8  1  0
 10  9  2  0
 11 10  1  0
 11 16  2  0
 12 11  1  0
 13 12  2  0
 13 14  1  0
 14 15  2  0
 16 15  1  0
 16  7  1  0
 17 19  1  0
 17 18  1  0
 20 21  1  0
 20 19  1  0
 21 23  1  0
 22 21  2  0
 23 24  1  0
 24 25  2  0
 26 24  1  0
  1 27  1  0
  3 28  1  0
  9 29  1  0
 12 30  1  0
 13 31  1  0
 14 32  1  0
 15 33  1  0
 17 34  1  1
 18 35  1  0
 18 36  1  0
 18 37  1  0
 19 38  1  0
 19 39  1  0
 26 40  1  0
M  ISO  8  27  14  28  14  29  14  30  14  31  14  32  14  33  14  34   8
M  ISO  6  35   8  36   8  37   8  38   8  39   8  40   3
M  END
>  <minimizedAffinity>  (1) 
-4.92407465

>  <minimizedRMSD>  (1) 
0.34645471

$$$$
