
     RDKit          3D

 44 47  0  0  1  0  0  0  0  0999 V2000
   47.4130   32.3840   44.6400 C   0  0  0  0  0  0  0  0  0  0  0  0
   46.6990   33.4940   44.1270 C   0  0  0  0  0  0  0  0  0  0  0  0
   45.7900   34.0760   45.0120 C   0  0  0  0  0  0  0  0  0  0  0  0
   45.6360   33.5800   46.2620 N   0  0  0  0  0  0  0  0  0  0  0  0
   46.3440   32.5230   46.6930 C   0  0  0  0  0  0  0  0  0  0  0  0
   47.2190   31.9220   45.9150 N   0  0  0  0  0  0  0  0  0  0  0  0
   47.0290   33.8380   42.7850 C   0  0  0  0  0  0  0  0  0  0  0  0
   48.0920   34.6770   42.6950 N   0  0  0  0  0  0  0  0  0  0  0  0
   48.5540   35.1140   41.5010 C   0  0  0  0  0  0  0  0  0  0  0  0
   47.9820   34.7430   40.3300 N   0  0  0  0  0  0  0  0  0  0  0  0
   46.9090   33.8990   40.3760 C   0  0  0  0  0  0  0  0  0  0  0  0
   46.2240   33.4360   39.2660 C   0  0  0  0  0  0  0  0  0  0  0  0
   45.1640   32.6000   39.3490 C   0  0  0  0  0  0  0  0  0  0  0  0
   44.7330   32.1820   40.5930 C   0  0  0  0  0  0  0  0  0  0  0  0
   45.3660   32.6060   41.7280 C   0  0  0  0  0  0  0  0  0  0  0  0
   46.4530   33.4660   41.5900 C   0  0  0  0  0  0  0  0  0  0  0  0
   46.1260   32.0580   48.0550 C   0  0  1  0  0  0  0  0  0  0  0  0
   44.6020   31.9160   48.3740 C   0  0  0  0  0  0  0  0  0  0  0  0
   46.7880   30.7510   48.3810 C   0  0  0  0  0  0  0  0  0  0  0  0
   45.8750   29.7630   48.2630 O   0  0  0  0  0  0  0  0  0  0  0  0
   45.8610   28.6010   47.5170 C   0  0  0  0  0  0  0  0  0  0  0  0
   46.8340   28.2200   46.8200 O   0  0  0  0  0  0  0  0  0  0  0  0
   44.7140   27.8340   47.5510 O   0  0  0  0  0  0  0  0  0  0  0  0
   44.7090   26.4970   48.1490 C   0  0  0  0  0  0  0  0  0  0  0  0
   44.0830   26.2740   49.4490 C   0  0  0  0  0  0  0  0  0  0  0  0
   43.4380   25.7650   48.2120 C   0  0  0  0  0  0  0  0  0  0  0  0
   48.1459   31.8772   43.9950 H   0  0  0  0  0  0  0  0  0  0  0  0
   45.1947   34.9437   44.6914 H   0  0  0  0  0  0  0  0  0  0  0  0
   49.4205   35.7912   41.4801 H   0  0  0  0  0  0  0  0  0  0  0  0
   46.5572   33.7631   38.2700 H   0  0  0  0  0  0  0  0  0  0  0  0
   44.6518   32.2574   38.4378 H   0  0  0  0  0  0  0  0  0  0  0  0
   43.8723   31.5015   40.6711 H   0  0  0  0  0  0  0  0  0  0  0  0
   45.0268   32.2776   42.7215 H   0  0  0  0  0  0  0  0  0  0  0  0
   46.5911   32.8360   48.6783 H   0  0  0  0  0  0  0  0  0  0  0  0
   44.4553   31.9023   49.4641 H   0  0  0  0  0  0  0  0  0  0  0  0
   44.0559   32.7672   47.9412 H   0  0  0  0  0  0  0  0  0  0  0  0
   44.2226   30.9786   47.9412 H   0  0  0  0  0  0  0  0  0  0  0  0
   47.6191   30.5725   47.6829 H   0  0  0  0  0  0  0  0  0  0  0  0
   47.1831   30.7762   49.4073 H   0  0  0  0  0  0  0  0  0  0  0  0
   45.7105   26.2942   47.7417 H   0  0  0  0  0  0  0  0  0  0  0  0
   44.5344   25.5705   50.1640 H   0  0  0  0  0  0  0  0  0  0  0  0
   43.7684   26.9186   50.2830 H   0  0  0  0  0  0  0  0  0  0  0  0
   42.5137   26.2307   47.8396 H   0  0  0  0  0  0  0  0  0  0  0  0
   43.0817   24.7849   47.8621 H   0  0  0  0  0  0  0  0  0  0  0  0
  1  6  2  0
  2  1  1  0
  2  3  2  0
  3  4  1  0
  4  5  2  0
  5 17  1  0
  6  5  1  0
  7  2  1  0
  8  7  2  0
  9  8  1  0
 10 11  1  0
 10  9  2  0
 11 16  2  0
 12 13  2  0
 12 11  1  0
 13 14  1  0
 14 15  2  0
 16 15  1  0
 16  7  1  0
 17 18  1  0
 17 19  1  0
 20 19  1  0
 21 23  1  0
 21 20  1  0
 22 21  2  0
 23 24  1  0
 24 26  1  0
 24 25  1  0
 26 25  1  0
  1 27  1  0
  3 28  1  0
  9 29  1  0
 12 30  1  0
 13 31  1  0
 14 32  1  0
 15 33  1  0
 17 34  1  1
 18 35  1  0
 18 36  1  0
 18 37  1  0
 19 38  1  0
 19 39  1  0
 24 40  1  0
 25 41  1  0
 25 42  1  0
 26 43  1  0
 26 44  1  0
M  ISO  8  27  14  28  14  29  14  30  14  31  14  32  14  33  14  34   8
M  ISO  8  35   8  36   8  37   8  38   8  39   8  40  13  41  13  42  13
M  ISO  2  43  13  44  13
M  END
>  <minimizedAffinity>  (1) 
-4.88958549

>  <minimizedRMSD>  (1) 
0.713733852

$$$$
