
     RDKit          3D

 28 28  0  0  0  0  0  0  0  0999 V2000
   48.4080   34.0500   42.7580 C   0  0  0  0  0  0  0  0  0  0  0  0
   47.3220   34.9360   42.8340 C   0  0  0  0  0  0  0  0  0  0  0  0
   46.1450   34.5640   43.5240 C   0  0  0  0  0  0  0  0  0  0  0  0
   46.1340   33.3360   44.0900 N   0  0  0  0  0  0  0  0  0  0  0  0
   47.2180   32.5020   43.9920 C   0  0  0  0  0  0  0  0  0  0  0  0
   48.3210   32.8520   43.3440 N   0  0  0  0  0  0  0  0  0  0  0  0
   44.9850   35.4880   43.6130 C   0  0  0  0  0  0  0  0  0  0  0  0
   43.8500   35.0690   42.6780 C   0  0  0  0  0  0  0  0  0  0  0  0
   45.3500   36.9040   43.2140 C   0  0  0  0  0  0  0  0  0  0  0  0
   44.4270   35.5650   45.0120 C   0  0  0  0  0  0  0  0  0  0  0  0
   49.5250   34.6310   42.0050 C   0  0  0  0  0  0  0  0  0  0  0  0
   49.1430   35.9910   41.4400 C   0  0  0  0  0  0  0  0  0  0  0  0
   47.3867   35.9240   42.3548 H   0  0  0  0  0  0  0  0  0  0  0  0
   47.1713   31.5106   44.4662 H   0  0  0  0  0  0  0  0  0  0  0  0
   42.9829   34.7489   43.2744 H   0  0  0  0  0  0  0  0  0  0  0  0
   43.5642   35.9209   42.0435 H   0  0  0  0  0  0  0  0  0  0  0  0
   44.1863   34.2358   42.0435 H   0  0  0  0  0  0  0  0  0  0  0  0
   45.5064   37.5109   44.1180 H   0  0  0  0  0  0  0  0  0  0  0  0
   46.2739   36.8902   42.6172 H   0  0  0  0  0  0  0  0  0  0  0  0
   44.5345   37.3385   42.6172 H   0  0  0  0  0  0  0  0  0  0  0  0
   45.2443   35.4522   45.7395 H   0  0  0  0  0  0  0  0  0  0  0  0
   43.9376   36.5392   45.1585 H   0  0  0  0  0  0  0  0  0  0  0  0
   43.6921   34.7598   45.1585 H   0  0  0  0  0  0  0  0  0  0  0  0
   50.3898   34.7482   42.6747 H   0  0  0  0  0  0  0  0  0  0  0  0
   49.7765   33.9595   41.1709 H   0  0  0  0  0  0  0  0  0  0  0  0
   48.9468   36.6895   42.2668 H   0  0  0  0  0  0  0  0  0  0  0  0
   49.9677   36.3762   40.8224 H   0  0  0  0  0  0  0  0  0  0  0  0
   48.2383   35.8905   40.8224 H   0  0  0  0  0  0  0  0  0  0  0  0
  1  2  2  0
  1  6  1  0
  2  3  1  0
  3  7  1  0
  3  4  2  0
  5  4  1  0
  6  5  2  0
  7 10  1  0
  8  7  1  0
  9  7  1  0
 11  1  1  0
 12 11  1  0
  2 13  1  0
  5 14  1  0
  8 15  1  0
  8 16  1  0
  8 17  1  0
  9 18  1  0
  9 19  1  0
  9 20  1  0
 10 21  1  0
 10 22  1  0
 10 23  1  0
 11 24  1  0
 11 25  1  0
 12 26  1  0
 12 27  1  0
 12 28  1  0
M  ISO  8  13  14  14  14  15   8  16   8  17   8  18   8  19   8  20   8
M  ISO  8  21   8  22   8  23   8  24   8  25   8  26   8  27   8  28   8
M  END
>  <minimizedAffinity>  (1) 
-3.87419009

>  <minimizedRMSD>  (1) 
1.51034749

$$$$
