
     RDKit          3D

 25 25  0  0  0  0  0  0  0  0999 V2000
   47.8870   34.2000   42.2600 C   0  0  0  0  0  0  0  0  0  0  0  0
   46.7630   34.9470   42.6320 C   0  0  0  0  0  0  0  0  0  0  0  0
   45.9810   34.5360   43.7350 C   0  0  0  0  0  0  0  0  0  0  0  0
   46.3700   33.4190   44.3820 N   0  0  0  0  0  0  0  0  0  0  0  0
   47.4800   32.7150   43.9850 C   0  0  0  0  0  0  0  0  0  0  0  0
   48.2070   33.1130   42.9460 N   0  0  0  0  0  0  0  0  0  0  0  0
   48.5660   34.7850   41.0930 C   0  0  0  0  0  0  0  0  0  0  0  0
   49.1880   36.1350   41.4450 C   0  0  0  0  0  0  0  0  0  0  0  0
   44.7760   35.2760   44.1880 C   0  0  0  0  0  0  0  0  0  0  0  0
   44.6140   35.1880   45.7030 C   0  0  0  0  0  0  0  0  0  0  0  0
   44.8430   36.7410   43.8400 C   0  0  0  0  0  0  0  0  0  0  0  0
   46.4895   35.8507   42.0677 H   0  0  0  0  0  0  0  0  0  0  0  0
   47.7719   31.8082   44.5350 H   0  0  0  0  0  0  0  0  0  0  0  0
   47.8345   34.9255   40.2836 H   0  0  0  0  0  0  0  0  0  0  0  0
   49.3664   34.1018   40.7728 H   0  0  0  0  0  0  0  0  0  0  0  0
   49.2373   36.2420   42.5387 H   0  0  0  0  0  0  0  0  0  0  0  0
   50.2030   36.1917   41.0249 H   0  0  0  0  0  0  0  0  0  0  0  0
   48.5716   36.9434   41.0249 H   0  0  0  0  0  0  0  0  0  0  0  0
   43.9270   34.8050   43.6709 H   0  0  0  0  0  0  0  0  0  0  0  0
   45.4797   35.6583   46.1923 H   0  0  0  0  0  0  0  0  0  0  0  0
   43.6940   35.7104   46.0043 H   0  0  0  0  0  0  0  0  0  0  0  0
   44.5515   34.1319   46.0043 H   0  0  0  0  0  0  0  0  0  0  0  0
   44.8702   37.3366   44.7644 H   0  0  0  0  0  0  0  0  0  0  0  0
   45.7510   36.9368   43.2508 H   0  0  0  0  0  0  0  0  0  0  0  0
   43.9566   37.0188   43.2508 H   0  0  0  0  0  0  0  0  0  0  0  0
  1  2  2  0
  1  6  1  0
  2  3  1  0
  3  9  1  0
  3  4  2  0
  5  4  1  0
  6  5  2  0
  7  8  1  0
  7  1  1  0
  9 10  1  0
 11  9  1  0
  2 12  1  0
  5 13  1  0
  7 14  1  0
  7 15  1  0
  8 16  1  0
  8 17  1  0
  8 18  1  0
  9 19  1  0
 10 20  1  0
 10 21  1  0
 10 22  1  0
 11 23  1  0
 11 24  1  0
 11 25  1  0
M  ISO  8  12  14  13  14  14   8  15   8  16   8  17   8  18   8  19   8
M  ISO  6  20   8  21   8  22   8  23   8  24   8  25   8
M  END
>  <minimizedAffinity>  (1) 
-3.88553119

>  <minimizedRMSD>  (1) 
1.15239096

$$$$
