
     RDKit          3D

 28 30  0  0  0  0  0  0  0  0999 V2000
   48.0340   33.8100   42.1090 C   0  0  0  0  0  0  0  0  0  0  0  0
   47.2430   34.0470   43.2530 C   0  0  0  0  0  0  0  0  0  0  0  0
   47.1030   33.0290   44.1760 C   0  0  0  0  0  0  0  0  0  0  0  0
   47.7380   31.8350   43.9420 N   0  0  0  0  0  0  0  0  0  0  0  0
   48.4800   31.6620   42.8370 C   0  0  0  0  0  0  0  0  0  0  0  0
   48.6340   32.6150   41.9340 N   0  0  0  0  0  0  0  0  0  0  0  0
   48.0920   34.9960   41.2060 C   0  0  0  0  0  0  0  0  0  0  0  0
   49.1670   35.9460   41.6520 C   0  0  0  0  0  0  0  0  0  0  0  0
   46.1260   33.2410   45.6420 S   0  0  0  0  0  0  0  0  0  0  0  0
   45.9450   28.9380   48.0250 N   0  0  0  0  0  0  0  0  0  0  0  0
   45.1390   29.0530   46.9610 C   0  0  0  0  0  0  0  0  0  0  0  0
   45.2560   30.2660   46.3710 N   0  0  0  0  0  0  0  0  0  0  0  0
   46.1720   30.9510   47.0850 C   0  0  0  0  0  0  0  0  0  0  0  0
   46.7120   32.2170   46.9840 C   0  0  0  0  0  0  0  0  0  0  0  0
   47.6470   32.6160   47.8950 N   0  0  0  0  0  0  0  0  0  0  0  0
   48.0450   31.7910   48.8850 C   0  0  0  0  0  0  0  0  0  0  0  0
   47.5380   30.5320   49.0230 N   0  0  0  0  0  0  0  0  0  0  0  0
   46.6070   30.1250   48.1210 C   0  0  0  0  0  0  0  0  0  0  0  0
   46.7500   35.0184   43.4061 H   0  0  0  0  0  0  0  0  0  0  0  0
   48.9771   30.6938   42.6773 H   0  0  0  0  0  0  0  0  0  0  0  0
   47.1213   35.5132   41.2252 H   0  0  0  0  0  0  0  0  0  0  0  0
   48.3203   34.6548   40.1855 H   0  0  0  0  0  0  0  0  0  0  0  0
   49.1987   35.9740   42.7512 H   0  0  0  0  0  0  0  0  0  0  0  0
   50.1395   35.6068   41.2657 H   0  0  0  0  0  0  0  0  0  0  0  0
   48.9500   36.9528   41.2657 H   0  0  0  0  0  0  0  0  0  0  0  0
   46.0439   28.1203   48.6434 H   0  0  0  0  0  0  0  0  0  0  0  0
   44.4642   28.2585   46.6095 H   0  0  0  0  0  0  0  0  0  0  0  0
   48.8007   32.1437   49.6023 H   0  0  0  0  0  0  0  0  0  0  0  0
  1  2  2  0
  2  3  1  0
  3  9  1  0
  4  3  2  0
  5  4  1  0
  6  1  1  0
  6  5  2  0
  7  8  1  0
  7  1  1  0
  9 14  1  0
 10 18  1  0
 11 10  1  0
 12 11  2  0
 12 13  1  0
 13 18  2  0
 14 13  1  0
 14 15  2  0
 15 16  1  0
 16 17  2  0
 18 17  1  0
  2 19  1  0
  5 20  1  0
  7 21  1  0
  7 22  1  0
  8 23  1  0
  8 24  1  0
  8 25  1  0
 10 26  1  0
 11 27  1  0
 16 28  1  0
M  ISO  8  19  14  20  14  21   8  22   8  23   8  24   8  25   8  26   9
M  ISO  2  27  14  28  14
M  END
>  <minimizedAffinity>  (1) 
-4.74604416

>  <minimizedRMSD>  (1) 
3.5155549

$$$$
