
     RDKit          3D

 31 33  0  0  0  0  0  0  0  0999 V2000
   47.7330   33.8450   42.5590 C   0  0  0  0  0  0  0  0  0  0  0  0
   46.9710   34.0110   43.7530 C   0  0  0  0  0  0  0  0  0  0  0  0
   46.9230   32.9630   44.6490 C   0  0  0  0  0  0  0  0  0  0  0  0
   47.6140   31.8140   44.3380 N   0  0  0  0  0  0  0  0  0  0  0  0
   48.3210   31.6940   43.2050 C   0  0  0  0  0  0  0  0  0  0  0  0
   48.3800   32.7000   42.3240 N   0  0  0  0  0  0  0  0  0  0  0  0
   47.6980   35.0430   41.6910 C   0  0  0  0  0  0  0  0  0  0  0  0
   49.0590   35.7180   41.6510 C   0  0  0  0  0  0  0  0  0  0  0  0
   46.0080   33.0720   46.1540 S   0  0  0  0  0  0  0  0  0  0  0  0
   46.1430   31.5420   47.0530 C   0  0  0  0  0  0  0  0  0  0  0  0
   46.8540   31.3830   48.2250 C   0  0  0  0  0  0  0  0  0  0  0  0
   46.7330   30.1060   48.6140 N   0  0  0  0  0  0  0  0  0  0  0  0
   45.9670   29.4090   47.7420 C   0  0  0  0  0  0  0  0  0  0  0  0
   45.5630   28.0750   47.7180 C   0  0  0  0  0  0  0  0  0  0  0  0
   44.7590   27.6720   46.6560 C   0  0  0  0  0  0  0  0  0  0  0  0
   44.3920   28.5810   45.6780 C   0  0  0  0  0  0  0  0  0  0  0  0
   44.7970   29.8980   45.7090 C   0  0  0  0  0  0  0  0  0  0  0  0
   45.5960   30.3040   46.7650 C   0  0  0  0  0  0  0  0  0  0  0  0
   46.4353   34.9504   43.9544 H   0  0  0  0  0  0  0  0  0  0  0  0
   48.8591   30.7574   42.9970 H   0  0  0  0  0  0  0  0  0  0  0  0
   47.4142   34.7421   40.6717 H   0  0  0  0  0  0  0  0  0  0  0  0
   46.9632   35.7531   42.0982 H   0  0  0  0  0  0  0  0  0  0  0  0
   49.4118   35.8930   42.6781 H   0  0  0  0  0  0  0  0  0  0  0  0
   49.7742   35.0702   41.1230 H   0  0  0  0  0  0  0  0  0  0  0  0
   48.9761   36.6794   41.1230 H   0  0  0  0  0  0  0  0  0  0  0  0
   47.4209   32.1670   48.7484 H   0  0  0  0  0  0  0  0  0  0  0  0
   47.1641   29.7090   49.4610 H   0  0  0  0  0  0  0  0  0  0  0  0
   45.8671   27.3701   48.5058 H   0  0  0  0  0  0  0  0  0  0  0  0
   44.4143   26.6293   46.5933 H   0  0  0  0  0  0  0  0  0  0  0  0
   43.7555   28.2403   44.8480 H   0  0  0  0  0  0  0  0  0  0  0  0
   44.4955   30.6036   44.9208 H   0  0  0  0  0  0  0  0  0  0  0  0
  1  2  2  0
  2  3  1  0
  3  9  1  0
  4  3  2  0
  5  4  1  0
  6  1  1  0
  6  5  2  0
  7  1  1  0
  8  7  1  0
  9 10  1  0
 10 11  2  0
 11 12  1  0
 13 12  1  0
 14 13  2  0
 15 14  1  0
 16 17  1  0
 16 15  2  0
 17 18  2  0
 18 10  1  0
 18 13  1  0
  2 19  1  0
  5 20  1  0
  7 21  1  0
  7 22  1  0
  8 23  1  0
  8 24  1  0
  8 25  1  0
 11 26  1  0
 12 27  1  0
 14 28  1  0
 15 29  1  0
 16 30  1  0
 17 31  1  0
M  ISO  8  19  14  20  14  21   8  22   8  23   8  24   8  25   8  26  14
M  ISO  5  27   9  28  14  29  14  30  14  31  14
M  END
>  <minimizedAffinity>  (1) 
-4.44962502

>  <minimizedRMSD>  (1) 
3.50129795

$$$$
