
     RDKit          3D

 32 33  0  0  0  0  0  0  0  0999 V2000
   47.7650   33.8040   42.6750 C   0  0  0  0  0  0  0  0  0  0  0  0
   46.9250   34.0950   43.7730 C   0  0  0  0  0  0  0  0  0  0  0  0
   46.7060   33.1290   44.7330 C   0  0  0  0  0  0  0  0  0  0  0  0
   47.3250   31.9130   44.5710 N   0  0  0  0  0  0  0  0  0  0  0  0
   48.1220   31.6640   43.5110 C   0  0  0  0  0  0  0  0  0  0  0  0
   48.3320   32.6060   42.5810 N   0  0  0  0  0  0  0  0  0  0  0  0
   47.9090   34.9310   41.7260 C   0  0  0  0  0  0  0  0  0  0  0  0
   49.2630   35.5870   41.8800 C   0  0  0  0  0  0  0  0  0  0  0  0
   45.6680   33.4490   46.1160 S   0  0  0  0  0  0  0  0  0  0  0  0
   47.0870   30.3790   48.9490 N   0  0  0  0  0  0  0  0  0  0  0  0
   46.3490   29.8600   47.7980 C   0  0  0  0  0  0  0  0  0  0  0  0
   45.5880   30.9640   47.1160 C   0  0  0  0  0  0  0  0  0  0  0  0
   46.0300   32.3370   47.5040 C   0  0  0  0  0  0  0  0  0  0  0  0
   47.4480   32.4930   47.8850 C   0  0  0  0  0  0  0  0  0  0  0  0
   48.1150   31.2410   48.3830 C   0  0  0  0  0  0  0  0  0  0  0  0
   46.4498   35.0831   43.8616 H   0  0  0  0  0  0  0  0  0  0  0  0
   48.6032   30.6801   43.4094 H   0  0  0  0  0  0  0  0  0  0  0  0
   47.1226   35.6740   41.9251 H   0  0  0  0  0  0  0  0  0  0  0  0
   47.8167   34.5448   40.7002 H   0  0  0  0  0  0  0  0  0  0  0  0
   49.4962   35.7000   42.9490 H   0  0  0  0  0  0  0  0  0  0  0  0
   50.0304   34.9608   41.4015 H   0  0  0  0  0  0  0  0  0  0  0  0
   49.2472   36.5773   41.4015 H   0  0  0  0  0  0  0  0  0  0  0  0
   46.4625   30.9179   49.5659 H   0  0  0  0  0  0  0  0  0  0  0  0
   47.0582   29.4153   47.0844 H   0  0  0  0  0  0  0  0  0  0  0  0
   45.6347   29.1002   48.1478 H   0  0  0  0  0  0  0  0  0  0  0  0
   44.5231   30.8586   47.3709 H   0  0  0  0  0  0  0  0  0  0  0  0
   45.7778   30.8618   46.0373 H   0  0  0  0  0  0  0  0  0  0  0  0
   45.4733   32.5775   48.4217 H   0  0  0  0  0  0  0  0  0  0  0  0
   48.0013   32.8461   47.0023 H   0  0  0  0  0  0  0  0  0  0  0  0
   47.4637   33.2037   48.7245 H   0  0  0  0  0  0  0  0  0  0  0  0
   48.6154   30.7274   47.5489 H   0  0  0  0  0  0  0  0  0  0  0  0
   48.8698   31.4868   49.1444 H   0  0  0  0  0  0  0  0  0  0  0  0
  1  2  2  0
  2  3  1  0
  3  9  1  0
  4  3  2  0
  5  4  1  0
  6  1  1  0
  6  5  2  0
  7  8  1  0
  7  1  1  0
  9 13  1  0
 11 10  1  0
 12 13  1  0
 12 11  1  0
 13 14  1  0
 14 15  1  0
 15 10  1  0
  2 16  1  0
  5 17  1  0
  7 18  1  0
  7 19  1  0
  8 20  1  0
  8 21  1  0
  8 22  1  0
 10 23  1  0
 11 24  1  0
 11 25  1  0
 12 26  1  0
 12 27  1  0
 13 28  1  0
 14 29  1  0
 14 30  1  0
 15 31  1  0
 15 32  1  0
M  ISO  8  16  14  17  14  18   8  19   8  20   8  21   8  22   8  23   5
M  ISO  8  24  13  25  13  26  13  27  13  28  13  29  13  30  13  31  13
M  ISO  1  32  13
M  END
>  <minimizedAffinity>  (1) 
-4.31842709

>  <minimizedRMSD>  (1) 
3.17348552

$$$$
