
     RDKit          3D

 24 25  0  0  0  0  0  0  0  0999 V2000
   47.8830   34.3240   42.9540 C   0  0  0  0  0  0  0  0  0  0  0  0
   46.8100   35.0630   42.4100 C   0  0  0  0  0  0  0  0  0  0  0  0
   45.5080   34.7990   42.8510 C   0  0  0  0  0  0  0  0  0  0  0  0
   45.3490   33.8190   43.8020 N   0  0  0  0  0  0  0  0  0  0  0  0
   46.4130   33.1470   44.2830 C   0  0  0  0  0  0  0  0  0  0  0  0
   47.6470   33.3830   43.8790 N   0  0  0  0  0  0  0  0  0  0  0  0
   49.1960   34.7110   42.3940 C   0  0  0  0  0  0  0  0  0  0  0  0
   49.0430   35.8940   41.4660 C   0  0  0  0  0  0  0  0  0  0  0  0
   44.1360   35.6860   42.2110 S   0  0  0  0  0  0  0  0  0  0  0  0
   42.9710   34.7190   41.2630 C   0  0  0  0  0  0  0  0  0  0  0  0
   42.5170   35.0740   39.9200 C   0  0  0  0  0  0  0  0  0  0  0  0
   41.6260   35.4540   41.0350 C   0  0  0  0  0  0  0  0  0  0  0  0
   46.9948   35.8361   41.6496 H   0  0  0  0  0  0  0  0  0  0  0  0
   46.2464   32.3699   45.0435 H   0  0  0  0  0  0  0  0  0  0  0  0
   49.8758   34.9802   43.2158 H   0  0  0  0  0  0  0  0  0  0  0  0
   49.6070   33.8627   41.8271 H   0  0  0  0  0  0  0  0  0  0  0  0
   48.9242   36.8126   42.0594 H   0  0  0  0  0  0  0  0  0  0  0  0
   49.9374   35.9804   40.8316 H   0  0  0  0  0  0  0  0  0  0  0  0
   48.1560   35.7500   40.8316 H   0  0  0  0  0  0  0  0  0  0  0  0
   43.3661   33.7743   41.6649 H   0  0  0  0  0  0  0  0  0  0  0  0
   42.2056   34.2780   39.2277 H   0  0  0  0  0  0  0  0  0  0  0  0
   42.9734   35.6363   39.0920 H   0  0  0  0  0  0  0  0  0  0  0  0
   41.5134   36.5099   41.3221 H   0  0  0  0  0  0  0  0  0  0  0  0
   40.5734   35.2784   41.3017 H   0  0  0  0  0  0  0  0  0  0  0  0
  1  6  2  0
  2  3  2  0
  2  1  1  0
  3  4  1  0
  4  5  2  0
  6  5  1  0
  7  1  1  0
  8  7  1  0
  9  3  1  0
 10  9  1  0
 11 12  1  0
 11 10  1  0
 12 10  1  0
  2 13  1  0
  5 14  1  0
  7 15  1  0
  7 16  1  0
  8 17  1  0
  8 18  1  0
  8 19  1  0
 10 20  1  0
 11 21  1  0
 11 22  1  0
 12 23  1  0
 12 24  1  0
M  ISO  8  13  14  14  14  15   8  16   8  17   8  18   8  19   8  20  13
M  ISO  4  21  13  22  13  23  13  24  13
M  END
>  <minimizedAffinity>  (1) 
-3.80244827

>  <minimizedRMSD>  (1) 
1.87487066

$$$$
