
     RDKit          3D

 40 42  0  0  1  0  0  0  0  0999 V2000
   47.4400   32.0980   44.5880 C   0  0  0  0  0  0  0  0  0  0  0  0
   46.7990   33.3040   44.2000 C   0  0  0  0  0  0  0  0  0  0  0  0
   45.9540   33.8560   45.1490 C   0  0  0  0  0  0  0  0  0  0  0  0
   45.7790   33.2590   46.3530 N   0  0  0  0  0  0  0  0  0  0  0  0
   46.4120   32.1170   46.6680 C   0  0  0  0  0  0  0  0  0  0  0  0
   47.2300   31.5300   45.8200 N   0  0  0  0  0  0  0  0  0  0  0  0
   47.1380   33.7480   42.8900 C   0  0  0  0  0  0  0  0  0  0  0  0
   48.2110   34.5850   42.8680 N   0  0  0  0  0  0  0  0  0  0  0  0
   48.6820   35.1050   41.7110 C   0  0  0  0  0  0  0  0  0  0  0  0
   48.1130   34.8210   40.5050 N   0  0  0  0  0  0  0  0  0  0  0  0
   47.0480   33.9950   40.4900 C   0  0  0  0  0  0  0  0  0  0  0  0
   46.3540   33.6070   39.3480 C   0  0  0  0  0  0  0  0  0  0  0  0
   45.2830   32.7720   39.3600 C   0  0  0  0  0  0  0  0  0  0  0  0
   44.8510   32.2770   40.5610 C   0  0  0  0  0  0  0  0  0  0  0  0
   45.4800   32.6120   41.7300 C   0  0  0  0  0  0  0  0  0  0  0  0
   46.5680   33.4670   41.6590 C   0  0  0  0  0  0  0  0  0  0  0  0
   46.1870   31.5340   47.9820 C   0  0  1  0  0  0  0  0  0  0  0  0
   44.7190   31.7490   48.4590 C   0  0  0  0  0  0  0  0  0  0  0  0
   46.5060   30.0800   48.0850 C   0  0  0  0  0  0  0  0  0  0  0  0
   45.3490   29.3810   48.0670 O   0  0  0  0  0  0  0  0  0  0  0  0
   45.0570   28.0820   47.7060 C   0  0  0  0  0  0  0  0  0  0  0  0
   45.1750   27.6580   46.5220 O   0  0  0  0  0  0  0  0  0  0  0  0
   44.6190   27.2240   48.6860 O   0  0  0  0  0  0  0  0  0  0  0  0
   43.9240   25.9660   48.3240 C   0  0  0  0  0  0  0  0  0  0  0  0
   48.1241   31.6050   43.8816 H   0  0  0  0  0  0  0  0  0  0  0  0
   45.4188   34.7899   44.9226 H   0  0  0  0  0  0  0  0  0  0  0  0
   49.5514   35.7781   41.7445 H   0  0  0  0  0  0  0  0  0  0  0  0
   46.6929   33.9999   38.3781 H   0  0  0  0  0  0  0  0  0  0  0  0
   44.7733   32.4991   38.4242 H   0  0  0  0  0  0  0  0  0  0  0  0
   43.9849   31.5994   40.5872 H   0  0  0  0  0  0  0  0  0  0  0  0
   45.1326   32.2149   42.6952 H   0  0  0  0  0  0  0  0  0  0  0  0
   46.8934   32.0708   48.6323 H   0  0  0  0  0  0  0  0  0  0  0  0
   44.6877   31.7536   49.5585 H   0  0  0  0  0  0  0  0  0  0  0  0
   44.3467   32.7112   48.0776 H   0  0  0  0  0  0  0  0  0  0  0  0
   44.0864   30.9339   48.0776 H   0  0  0  0  0  0  0  0  0  0  0  0
   47.1346   29.7776   47.2345 H   0  0  0  0  0  0  0  0  0  0  0  0
   47.0503   29.8806   49.0198 H   0  0  0  0  0  0  0  0  0  0  0  0
   43.6296   25.4331   49.2401 H   0  0  0  0  0  0  0  0  0  0  0  0
   43.0272   26.2000   47.7316 H   0  0  0  0  0  0  0  0  0  0  0  0
   44.5995   25.3313   47.7316 H   0  0  0  0  0  0  0  0  0  0  0  0
  1  6  2  0
  2  1  1  0
  2  3  2  0
  3  4  1  0
  4  5  2  0
  5 17  1  0
  6  5  1  0
  7  2  1  0
  8  7  2  0
  9  8  1  0
 10  9  2  0
 11 10  1  0
 11 16  2  0
 12 13  2  0
 12 11  1  0
 13 14  1  0
 14 15  2  0
 16 15  1  0
 16  7  1  0
 17 19  1  0
 17 18  1  0
 20 19  1  0
 21 20  1  0
 21 23  1  0
 22 21  2  0
 24 23  1  0
  1 25  1  0
  3 26  1  0
  9 27  1  0
 12 28  1  0
 13 29  1  0
 14 30  1  0
 15 31  1  0
 17 32  1  1
 18 33  1  0
 18 34  1  0
 18 35  1  0
 19 36  1  0
 19 37  1  0
 24 38  1  0
 24 39  1  0
 24 40  1  0
M  ISO  8  25  14  26  14  27  14  28  14  29  14  30  14  31  14  32   8
M  ISO  8  33   8  34   8  35   8  36   8  37   8  38   8  39   8  40   8
M  END
>  <minimizedAffinity>  (1) 
-4.56295824

>  <minimizedRMSD>  (1) 
0.174713045

$$$$
