
     RDKit          3D

 24 25  0  0  0  0  0  0  0  0999 V2000
   47.2830   34.9320   42.5370 C   0  0  0  0  0  0  0  0  0  0  0  0
   47.6640   33.7670   43.2430 C   0  0  0  0  0  0  0  0  0  0  0  0
   46.7450   33.2080   44.1200 C   0  0  0  0  0  0  0  0  0  0  0  0
   45.5190   33.8150   44.2540 N   0  0  0  0  0  0  0  0  0  0  0  0
   45.2050   34.9250   43.5580 C   0  0  0  0  0  0  0  0  0  0  0  0
   46.0710   35.4780   42.7110 N   0  0  0  0  0  0  0  0  0  0  0  0
   48.3630   35.4180   41.6360 C   0  0  0  0  0  0  0  0  0  0  0  0
   49.7130   35.2250   42.2680 C   0  0  0  0  0  0  0  0  0  0  0  0
   47.1050   31.7630   45.0510 S   0  0  0  0  0  0  0  0  0  0  0  0
   46.0830   31.6390   46.5280 C   0  0  0  0  0  0  0  0  0  0  0  0
   45.7070   32.4050   47.6330 C   0  0  0  0  0  0  0  0  0  0  0  0
   44.8600   31.6120   48.3790 C   0  0  0  0  0  0  0  0  0  0  0  0
   44.7240   30.4160   47.7560 N   0  0  0  0  0  0  0  0  0  0  0  0
   45.4570   30.4350   46.6490 N   0  0  0  0  0  0  0  0  0  0  0  0
   48.6581   33.3179   43.1013 H   0  0  0  0  0  0  0  0  0  0  0  0
   44.2141   35.3833   43.6920 H   0  0  0  0  0  0  0  0  0  0  0  0
   48.2093   36.4882   41.4336 H   0  0  0  0  0  0  0  0  0  0  0  0
   48.3266   34.8419   40.6996 H   0  0  0  0  0  0  0  0  0  0  0  0
   49.6106   35.2396   43.3631 H   0  0  0  0  0  0  0  0  0  0  0  0
   50.1311   34.2580   41.9517 H   0  0  0  0  0  0  0  0  0  0  0  0
   50.3853   36.0362   41.9517 H   0  0  0  0  0  0  0  0  0  0  0  0
   46.0225   33.4335   47.8625 H   0  0  0  0  0  0  0  0  0  0  0  0
   44.3754   31.9021   49.3229 H   0  0  0  0  0  0  0  0  0  0  0  0
   44.1498   29.6268   48.0852 H   0  0  0  0  0  0  0  0  0  0  0  0
  1  6  2  0
  1  2  1  0
  2  3  2  0
  3  4  1  0
  3  9  1  0
  5  4  2  0
  6  5  1  0
  7  8  1  0
  7  1  1  0
  9 10  1  0
 10 14  2  0
 10 11  1  0
 11 12  2  0
 13 12  1  0
 14 13  1  0
  2 15  1  0
  5 16  1  0
  7 17  1  0
  7 18  1  0
  8 19  1  0
  8 20  1  0
  8 21  1  0
 11 22  1  0
 12 23  1  0
 13 24  1  0
M  ISO  8  15  14  16  14  17   8  18   8  19   8  20   8  21   8  22  14
M  ISO  2  23  14  24   9
M  END
>  <minimizedAffinity>  (1) 
-4.37605524

>  <minimizedRMSD>  (1) 
4.61284685

$$$$
