
     RDKit          3D

 32 34  0  0  0  0  0  0  0  0999 V2000
   46.9730   34.7640   42.2680 C   0  0  0  0  0  0  0  0  0  0  0  0
   47.0350   33.4910   42.8530 C   0  0  0  0  0  0  0  0  0  0  0  0
   46.1580   33.1720   43.8800 C   0  0  0  0  0  0  0  0  0  0  0  0
   45.2630   34.1350   44.2740 N   0  0  0  0  0  0  0  0  0  0  0  0
   45.2410   35.3410   43.6830 C   0  0  0  0  0  0  0  0  0  0  0  0
   46.0760   35.6470   42.7050 N   0  0  0  0  0  0  0  0  0  0  0  0
   47.9850   34.9230   41.1900 C   0  0  0  0  0  0  0  0  0  0  0  0
   49.0620   35.8940   41.5970 C   0  0  0  0  0  0  0  0  0  0  0  0
   46.1570   31.6060   44.6780 S   0  0  0  0  0  0  0  0  0  0  0  0
   46.6520   31.7090   46.3890 C   0  0  0  0  0  0  0  0  0  0  0  0
   46.3760   32.4940   47.5240 C   0  0  0  0  0  0  0  0  0  0  0  0
   47.1540   31.9740   48.5270 C   0  0  0  0  0  0  0  0  0  0  0  0
   47.8700   30.9310   48.0480 N   0  0  0  0  0  0  0  0  0  0  0  0
   47.5650   30.7780   46.7680 N   0  0  0  0  0  0  0  0  0  0  0  0
   48.7710   30.1950   48.8710 C   0  0  0  0  0  0  0  0  0  0  0  0
   49.1870   28.9600   48.3970 C   0  0  0  0  0  0  0  0  0  0  0  0
   50.0650   28.1610   49.1170 C   0  0  0  0  0  0  0  0  0  0  0  0
   50.5250   28.6020   50.3160 N   0  0  0  0  0  0  0  0  0  0  0  0
   50.0980   29.8140   50.7490 C   0  0  0  0  0  0  0  0  0  0  0  0
   49.2390   30.6170   50.0620 N   0  0  0  0  0  0  0  0  0  0  0  0
   47.7711   32.7531   42.5015 H   0  0  0  0  0  0  0  0  0  0  0  0
   44.5111   36.0915   44.0207 H   0  0  0  0  0  0  0  0  0  0  0  0
   47.4880   35.2972   40.2828 H   0  0  0  0  0  0  0  0  0  0  0  0
   48.4501   33.9444   41.0000 H   0  0  0  0  0  0  0  0  0  0  0  0
   49.1160   35.9427   42.6946 H   0  0  0  0  0  0  0  0  0  0  0  0
   50.0297   35.5572   41.1968 H   0  0  0  0  0  0  0  0  0  0  0  0
   48.8269   36.8913   41.1968 H   0  0  0  0  0  0  0  0  0  0  0  0
   45.6826   33.3452   47.5924 H   0  0  0  0  0  0  0  0  0  0  0  0
   47.1901   32.3474   49.5610 H   0  0  0  0  0  0  0  0  0  0  0  0
   48.8119   28.6044   47.4260 H   0  0  0  0  0  0  0  0  0  0  0  0
   50.3833   27.1850   48.7219 H   0  0  0  0  0  0  0  0  0  0  0  0
   50.4703   30.1725   51.7200 H   0  0  0  0  0  0  0  0  0  0  0  0
  1  6  2  0
  1  2  1  0
  2  3  2  0
  3  4  1  0
  3  9  1  0
  5  4  2  0
  6  5  1  0
  7  8  1  0
  7  1  1  0
  9 10  1  0
 10 14  2  0
 10 11  1  0
 11 12  2  0
 13 12  1  0
 13 15  1  0
 14 13  1  0
 15 20  1  0
 16 15  2  0
 16 17  1  0
 17 18  2  0
 18 19  1  0
 20 19  2  0
  2 21  1  0
  5 22  1  0
  7 23  1  0
  7 24  1  0
  8 25  1  0
  8 26  1  0
  8 27  1  0
 11 28  1  0
 12 29  1  0
 16 30  1  0
 17 31  1  0
 19 32  1  0
M  ISO  8  21  14  22  14  23   8  24   8  25   8  26   8  27   8  28  14
M  ISO  4  29  14  30  14  31  14  32  14
M  END
>  <minimizedAffinity>  (1) 
-5.11774969

>  <minimizedRMSD>  (1) 
3.99558783

$$$$
