
     RDKit          3D

 38 40  0  0  1  0  0  0  0  0999 V2000
   47.2200   34.7150   42.7230 C   0  0  0  0  0  0  0  0  0  0  0  0
   47.7140   33.5040   43.2420 C   0  0  0  0  0  0  0  0  0  0  0  0
   46.9320   32.7900   44.1310 C   0  0  0  0  0  0  0  0  0  0  0  0
   45.7080   33.3100   44.4540 N   0  0  0  0  0  0  0  0  0  0  0  0
   45.2630   34.4720   43.9400 C   0  0  0  0  0  0  0  0  0  0  0  0
   46.0120   35.1730   43.0790 N   0  0  0  0  0  0  0  0  0  0  0  0
   48.1870   35.3520   41.7860 C   0  0  0  0  0  0  0  0  0  0  0  0
   49.5990   35.1860   42.3000 C   0  0  0  0  0  0  0  0  0  0  0  0
   47.4290   31.2750   44.8470 S   0  0  0  0  0  0  0  0  0  0  0  0
   46.3150   30.7090   46.1240 C   0  0  0  0  0  0  0  0  0  0  0  0
   45.7620   31.1630   47.3120 C   0  0  0  0  0  0  0  0  0  0  0  0
   44.9600   30.1300   47.7700 C   0  0  0  0  0  0  0  0  0  0  0  0
   45.0260   29.1020   46.9030 N   0  0  0  0  0  0  0  0  0  0  0  0
   45.8380   29.4540   45.9200 N   0  0  0  0  0  0  0  0  0  0  0  0
   44.2820   27.8710   47.1240 C   0  0  2  0  0  0  0  0  0  0  0  0
   44.6130   27.2110   48.3870 C   0  0  0  0  0  0  0  0  0  0  0  0
   44.8700   25.7540   48.3910 C   0  0  0  0  0  0  0  0  0  0  0  0
   44.5950   25.0330   47.1050 C   0  0  0  0  0  0  0  0  0  0  0  0
   45.2900   25.8470   46.0110 C   0  0  0  0  0  0  0  0  0  0  0  0
   44.4260   27.0730   45.8610 C   0  0  0  0  0  0  0  0  0  0  0  0
   48.7057   33.1316   42.9454 H   0  0  0  0  0  0  0  0  0  0  0  0
   44.2719   34.8504   44.2308 H   0  0  0  0  0  0  0  0  0  0  0  0
   47.9559   36.4239   41.6986 H   0  0  0  0  0  0  0  0  0  0  0  0
   48.1043   34.8684   40.8015 H   0  0  0  0  0  0  0  0  0  0  0  0
   49.5913   35.1869   43.4000 H   0  0  0  0  0  0  0  0  0  0  0  0
   50.0117   34.2332   41.9370 H   0  0  0  0  0  0  0  0  0  0  0  0
   50.2214   36.0172   41.9370 H   0  0  0  0  0  0  0  0  0  0  0  0
   45.9259   32.1396   47.7909 H   0  0  0  0  0  0  0  0  0  0  0  0
   44.3643   30.1471   48.6946 H   0  0  0  0  0  0  0  0  0  0  0  0
   43.2092   28.0472   47.2914 H   0  0  0  0  0  0  0  0  0  0  0  0
   44.6700   27.7899   49.3206 H   0  0  0  0  0  0  0  0  0  0  0  0
   45.2409   25.2304   49.2845 H   0  0  0  0  0  0  0  0  0  0  0  0
   45.0058   24.0133   47.1426 H   0  0  0  0  0  0  0  0  0  0  0  0
   43.5152   24.9416   46.9161 H   0  0  0  0  0  0  0  0  0  0  0  0
   46.3097   26.1229   46.3176 H   0  0  0  0  0  0  0  0  0  0  0  0
   45.3955   25.2868   45.0702 H   0  0  0  0  0  0  0  0  0  0  0  0
   43.4246   26.7539   45.5363 H   0  0  0  0  0  0  0  0  0  0  0  0
   44.9196   27.7246   45.1249 H   0  0  0  0  0  0  0  0  0  0  0  0
  1  6  2  0
  1  2  1  0
  2  3  2  0
  3  4  1  0
  3  9  1  0
  5  4  2  0
  6  5  1  0
  7  8  1  0
  7  1  1  0
  9 10  1  0
 10 11  1  0
 11 12  2  0
 13 15  1  0
 13 12  1  0
 14 10  2  0
 14 13  1  0
 15 20  1  0
 15 16  1  0
 16 17  2  0
 18 17  1  0
 19 18  1  0
 20 19  1  0
  2 21  1  0
  5 22  1  0
  7 23  1  0
  7 24  1  0
  8 25  1  0
  8 26  1  0
  8 27  1  0
 11 28  1  0
 12 29  1  0
 15 30  1  1
 16 31  1  0
 17 32  1  0
 18 33  1  0
 18 34  1  0
 19 35  1  0
 19 36  1  0
 20 37  1  0
 20 38  1  0
M  ISO  8  21  14  22  14  23   8  24   8  25   8  26   8  27   8  28  14
M  ISO  8  29  14  30  13  31  13  32  13  33  13  34  13  35  13  36  13
M  ISO  2  37  13  38  13
M  END
>  <minimizedAffinity>  (1) 
-4.41537189

>  <minimizedRMSD>  (1) 
1.44636095

$$$$
