
     RDKit          3D

 39 41  0  0  0  0  0  0  0  0999 V2000
   47.2160   34.7270   42.7120 C   0  0  0  0  0  0  0  0  0  0  0  0
   47.7120   33.5320   43.2470 C   0  0  0  0  0  0  0  0  0  0  0  0
   46.9300   32.8140   44.1360 C   0  0  0  0  0  0  0  0  0  0  0  0
   45.7000   33.3120   44.4520 N   0  0  0  0  0  0  0  0  0  0  0  0
   45.2570   34.4690   43.9160 C   0  0  0  0  0  0  0  0  0  0  0  0
   46.0060   35.1650   43.0590 N   0  0  0  0  0  0  0  0  0  0  0  0
   48.1780   35.3670   41.7800 C   0  0  0  0  0  0  0  0  0  0  0  0
   49.5950   35.2170   42.2640 C   0  0  0  0  0  0  0  0  0  0  0  0
   47.4540   31.3040   44.8650 S   0  0  0  0  0  0  0  0  0  0  0  0
   46.3150   30.7010   46.1040 C   0  0  0  0  0  0  0  0  0  0  0  0
   45.7370   31.1320   47.3110 C   0  0  0  0  0  0  0  0  0  0  0  0
   44.9280   30.0970   47.7130 C   0  0  0  0  0  0  0  0  0  0  0  0
   45.0000   29.0940   46.8160 N   0  0  0  0  0  0  0  0  0  0  0  0
   45.8330   29.4570   45.8510 N   0  0  0  0  0  0  0  0  0  0  0  0
   44.6390   24.9660   47.4320 N   0  0  0  0  0  0  0  0  0  0  0  0
   44.0380   25.8340   48.4060 C   0  0  0  0  0  0  0  0  0  0  0  0
   44.6180   27.2230   48.3190 C   0  0  0  0  0  0  0  0  0  0  0  0
   44.2400   27.8720   46.9990 C   0  0  0  0  0  0  0  0  0  0  0  0
   44.4460   26.8840   45.9000 C   0  0  0  0  0  0  0  0  0  0  0  0
   45.2460   25.6630   46.3180 C   0  0  0  0  0  0  0  0  0  0  0  0
   48.7108   33.1679   42.9645 H   0  0  0  0  0  0  0  0  0  0  0  0
   44.2604   34.8448   44.1908 H   0  0  0  0  0  0  0  0  0  0  0  0
   47.9391   36.4377   41.6988 H   0  0  0  0  0  0  0  0  0  0  0  0
   48.0926   34.8723   40.8012 H   0  0  0  0  0  0  0  0  0  0  0  0
   49.6086   35.2156   43.3639 H   0  0  0  0  0  0  0  0  0  0  0  0
   50.0116   34.2697   41.8909 H   0  0  0  0  0  0  0  0  0  0  0  0
   50.2007   36.0561   41.8909 H   0  0  0  0  0  0  0  0  0  0  0  0
   45.8980   32.0919   47.8235 H   0  0  0  0  0  0  0  0  0  0  0  0
   44.3156   30.0884   48.6267 H   0  0  0  0  0  0  0  0  0  0  0  0
   45.3670   24.4081   47.9006 H   0  0  0  0  0  0  0  0  0  0  0  0
   42.9543   25.8841   48.2239 H   0  0  0  0  0  0  0  0  0  0  0  0
   44.2406   25.4306   49.4091 H   0  0  0  0  0  0  0  0  0  0  0  0
   44.2269   27.8318   49.1475 H   0  0  0  0  0  0  0  0  0  0  0  0
   45.7141   27.1570   48.3836 H   0  0  0  0  0  0  0  0  0  0  0  0
   43.1784   28.1600   46.9915 H   0  0  0  0  0  0  0  0  0  0  0  0
   44.9800   27.3845   45.0788 H   0  0  0  0  0  0  0  0  0  0  0  0
   43.4502   26.5275   45.5978 H   0  0  0  0  0  0  0  0  0  0  0  0
   45.3130   24.9739   45.4632 H   0  0  0  0  0  0  0  0  0  0  0  0
   46.2420   26.0048   46.6361 H   0  0  0  0  0  0  0  0  0  0  0  0
  1  6  2  0
  1  2  1  0
  2  3  2  0
  3  4  1  0
  3  9  1  0
  5  4  2  0
  6  5  1  0
  7  8  1  0
  7  1  1  0
  9 10  1  0
 10 11  1  0
 11 12  2  0
 13 18  1  0
 13 12  1  0
 14 10  2  0
 14 13  1  0
 15 16  1  0
 17 16  1  0
 18 17  1  0
 19 20  1  0
 19 18  1  0
 20 15  1  0
  2 21  1  0
  5 22  1  0
  7 23  1  0
  7 24  1  0
  8 25  1  0
  8 26  1  0
  8 27  1  0
 11 28  1  0
 12 29  1  0
 15 30  1  0
 16 31  1  0
 16 32  1  0
 17 33  1  0
 17 34  1  0
 18 35  1  0
 19 36  1  0
 19 37  1  0
 20 38  1  0
 20 39  1  0
M  ISO  8  21  14  22  14  23   8  24   8  25   8  26   8  27   8  28  14
M  ISO  8  29  14  30   5  31  13  32  13  33  13  34  13  35  13  36  13
M  ISO  3  37  13  38  13  39  13
M  END
>  <minimizedAffinity>  (1) 
-4.44380617

>  <minimizedRMSD>  (1) 
1.77256596

$$$$
