
     RDKit          3D

 31 33  0  0  0  0  0  0  0  0999 V2000
   47.2120   34.2980   43.1800 C   0  0  0  0  0  0  0  0  0  0  0  0
   47.7050   33.0590   43.6330 C   0  0  0  0  0  0  0  0  0  0  0  0
   46.9720   32.3560   44.5750 C   0  0  0  0  0  0  0  0  0  0  0  0
   45.8040   32.9050   45.0170 N   0  0  0  0  0  0  0  0  0  0  0  0
   45.3650   34.0910   44.5630 C   0  0  0  0  0  0  0  0  0  0  0  0
   46.0620   34.7810   43.6510 N   0  0  0  0  0  0  0  0  0  0  0  0
   48.1100   34.9180   42.1760 C   0  0  0  0  0  0  0  0  0  0  0  0
   49.5520   34.8030   42.6060 C   0  0  0  0  0  0  0  0  0  0  0  0
   47.4900   30.8000   45.2140 S   0  0  0  0  0  0  0  0  0  0  0  0
   46.4590   30.2090   46.5280 C   0  0  0  0  0  0  0  0  0  0  0  0
   45.8740   30.7030   47.6970 C   0  0  0  0  0  0  0  0  0  0  0  0
   45.1750   29.6480   48.2570 C   0  0  0  0  0  0  0  0  0  0  0  0
   45.3280   28.5670   47.4670 N   0  0  0  0  0  0  0  0  0  0  0  0
   46.0970   28.8990   46.4320 N   0  0  0  0  0  0  0  0  0  0  0  0
   43.7680   25.6910   48.9210 N   0  0  0  0  0  0  0  0  0  0  0  0
   44.2600   26.9340   48.9800 N   0  0  0  0  0  0  0  0  0  0  0  0
   44.7340   27.2980   47.7550 C   0  0  0  0  0  0  0  0  0  0  0  0
   44.5300   26.2350   46.8800 C   0  0  0  0  0  0  0  0  0  0  0  0
   43.9220   25.2500   47.6540 C   0  0  0  0  0  0  0  0  0  0  0  0
   48.6533   32.6575   43.2465 H   0  0  0  0  0  0  0  0  0  0  0  0
   44.4190   34.5013   44.9461 H   0  0  0  0  0  0  0  0  0  0  0  0
   47.8497   35.9811   42.0665 H   0  0  0  0  0  0  0  0  0  0  0  0
   47.9841   34.3933   41.2175 H   0  0  0  0  0  0  0  0  0  0  0  0
   49.6078   34.7986   43.7046 H   0  0  0  0  0  0  0  0  0  0  0  0
   49.9782   33.8680   42.2134 H   0  0  0  0  0  0  0  0  0  0  0  0
   50.1210   35.6586   42.2134 H   0  0  0  0  0  0  0  0  0  0  0  0
   45.9533   31.7262   48.0930 H   0  0  0  0  0  0  0  0  0  0  0  0
   44.5928   29.6855   49.1895 H   0  0  0  0  0  0  0  0  0  0  0  0
   43.3478   25.1656   49.7009 H   0  0  0  0  0  0  0  0  0  0  0  0
   44.7914   26.1842   45.8127 H   0  0  0  0  0  0  0  0  0  0  0  0
   43.6131   24.2598   47.2878 H   0  0  0  0  0  0  0  0  0  0  0  0
  1  2  2  0
  1  6  1  0
  2  3  1  0
  3  4  2  0
  3  9  1  0
  5  4  1  0
  6  5  2  0
  7  8  1  0
  7  1  1  0
  9 10  1  0
 10 11  1  0
 11 12  2  0
 13 17  1  0
 13 12  1  0
 14 10  2  0
 14 13  1  0
 15 16  1  0
 17 16  2  0
 18 19  2  0
 18 17  1  0
 19 15  1  0
  2 20  1  0
  5 21  1  0
  7 22  1  0
  7 23  1  0
  8 24  1  0
  8 25  1  0
  8 26  1  0
 11 27  1  0
 12 28  1  0
 15 29  1  0
 18 30  1  0
 19 31  1  0
M  ISO  8  20  14  21  14  22   8  23   8  24   8  25   8  26   8  27  14
M  ISO  4  28  14  29   9  30  14  31  14
M  END
>  <minimizedAffinity>  (1) 
-4.68957806

>  <minimizedRMSD>  (1) 
1.74235249

$$$$
