
     RDKit          3D

 31 33  0  0  0  0  0  0  0  0999 V2000
   47.2250   34.6550   42.7830 C   0  0  0  0  0  0  0  0  0  0  0  0
   47.6880   33.4200   43.2870 C   0  0  0  0  0  0  0  0  0  0  0  0
   46.8840   32.7030   44.1500 C   0  0  0  0  0  0  0  0  0  0  0  0
   45.6660   33.2380   44.4720 N   0  0  0  0  0  0  0  0  0  0  0  0
   45.2640   34.4130   43.9730 C   0  0  0  0  0  0  0  0  0  0  0  0
   46.0200   35.1190   43.1420 N   0  0  0  0  0  0  0  0  0  0  0  0
   48.2210   35.2800   41.8740 C   0  0  0  0  0  0  0  0  0  0  0  0
   49.6150   35.0890   42.4180 C   0  0  0  0  0  0  0  0  0  0  0  0
   47.3640   31.1600   44.8330 S   0  0  0  0  0  0  0  0  0  0  0  0
   46.3410   30.6730   46.2130 C   0  0  0  0  0  0  0  0  0  0  0  0
   45.7260   31.2650   47.3320 C   0  0  0  0  0  0  0  0  0  0  0  0
   45.0770   30.2400   47.9760 C   0  0  0  0  0  0  0  0  0  0  0  0
   45.2730   29.0850   47.3070 N   0  0  0  0  0  0  0  0  0  0  0  0
   46.0310   29.3470   46.2530 N   0  0  0  0  0  0  0  0  0  0  0  0
   44.7240   27.8390   47.7310 C   0  0  0  0  0  0  0  0  0  0  0  0
   44.0330   26.8610   47.0190 C   0  0  0  0  0  0  0  0  0  0  0  0
   43.7240   25.8620   47.8850 N   0  0  0  0  0  0  0  0  0  0  0  0
   44.2030   26.1880   49.1130 C   0  0  0  0  0  0  0  0  0  0  0  0
   44.8130   27.4010   49.0050 N   0  0  0  0  0  0  0  0  0  0  0  0
   48.6762   33.0344   42.9958 H   0  0  0  0  0  0  0  0  0  0  0  0
   44.2773   34.8052   44.2604 H   0  0  0  0  0  0  0  0  0  0  0  0
   48.0090   36.3559   41.7875 H   0  0  0  0  0  0  0  0  0  0  0  0
   48.1532   34.8031   40.8851 H   0  0  0  0  0  0  0  0  0  0  0  0
   49.5833   35.0933   43.5175 H   0  0  0  0  0  0  0  0  0  0  0  0
   50.0172   34.1274   42.0666 H   0  0  0  0  0  0  0  0  0  0  0  0
   50.2610   35.9070   42.0666 H   0  0  0  0  0  0  0  0  0  0  0  0
   45.7583   32.3239   47.6280 H   0  0  0  0  0  0  0  0  0  0  0  0
   44.4865   30.3450   48.8981 H   0  0  0  0  0  0  0  0  0  0  0  0
   43.7829   26.8925   45.9483 H   0  0  0  0  0  0  0  0  0  0  0  0
   44.1146   25.5832   50.0276 H   0  0  0  0  0  0  0  0  0  0  0  0
   45.2716   27.9064   49.7765 H   0  0  0  0  0  0  0  0  0  0  0  0
  1  6  2  0
  1  2  1  0
  2  3  2  0
  3  4  1  0
  3  9  1  0
  5  4  2  0
  6  5  1  0
  7  8  1  0
  7  1  1  0
  9 10  1  0
 10 14  2  0
 10 11  1  0
 11 12  2  0
 13 15  1  0
 13 12  1  0
 14 13  1  0
 15 19  1  0
 16 15  2  0
 16 17  1  0
 17 18  2  0
 19 18  1  0
  2 20  1  0
  5 21  1  0
  7 22  1  0
  7 23  1  0
  8 24  1  0
  8 25  1  0
  8 26  1  0
 11 27  1  0
 12 28  1  0
 16 29  1  0
 18 30  1  0
 19 31  1  0
M  ISO  8  20  14  21  14  22   8  23   8  24   8  25   8  26   8  27  14
M  ISO  4  28  14  29  14  30  14  31   9
M  END
>  <minimizedAffinity>  (1) 
-4.71972656

>  <minimizedRMSD>  (1) 
1.31906438

$$$$
