
     RDKit          3D

 37 39  0  0  0  0  0  0  0  0999 V2000
   46.0200   30.6590   45.1280 C   0  0  0  0  0  0  0  0  0  0  0  0
   46.0700   31.2780   46.3920 C   0  0  0  0  0  0  0  0  0  0  0  0
   46.0490   30.2530   47.2910 C   0  0  0  0  0  0  0  0  0  0  0  0
   45.9890   29.0760   46.6390 N   0  0  0  0  0  0  0  0  0  0  0  0
   45.9720   29.3240   45.3320 N   0  0  0  0  0  0  0  0  0  0  0  0
   45.9980   25.3910   48.7080 C   0  0  0  0  0  0  0  0  0  0  0  0
   47.1120   25.9000   48.0700 C   0  0  0  0  0  0  0  0  0  0  0  0
   47.1360   27.1110   47.3820 C   0  0  0  0  0  0  0  0  0  0  0  0
   45.9570   27.8390   47.3450 C   0  0  0  0  0  0  0  0  0  0  0  0
   44.8050   27.3890   47.9610 C   0  0  0  0  0  0  0  0  0  0  0  0
   44.8350   26.1650   48.6400 C   0  0  0  0  0  0  0  0  0  0  0  0
   46.0410   23.8630   49.5530 S   0  0  0  0  0  0  0  0  0  0  0  0
   47.3920   23.2130   49.5180 O   0  0  0  0  0  0  0  0  0  0  0  0
   45.6390   24.1230   50.9910 O   0  0  0  0  0  0  0  0  0  0  0  0
   46.0030   31.1460   43.4120 S   0  0  0  0  0  0  0  0  0  0  0  0
   47.1740   34.8810   42.3880 C   0  0  0  0  0  0  0  0  0  0  0  0
   47.1790   33.4760   42.5130 C   0  0  0  0  0  0  0  0  0  0  0  0
   46.1180   32.8780   43.1850 C   0  0  0  0  0  0  0  0  0  0  0  0
   45.1300   33.6940   43.6850 N   0  0  0  0  0  0  0  0  0  0  0  0
   45.1740   35.0240   43.5370 C   0  0  0  0  0  0  0  0  0  0  0  0
   46.1850   35.6170   42.8940 N   0  0  0  0  0  0  0  0  0  0  0  0
   48.3730   35.3670   41.6460 C   0  0  0  0  0  0  0  0  0  0  0  0
   49.6310   35.0820   42.4290 C   0  0  0  0  0  0  0  0  0  0  0  0
   46.1161   32.3557   46.6075 H   0  0  0  0  0  0  0  0  0  0  0  0
   46.0769   30.3698   48.3844 H   0  0  0  0  0  0  0  0  0  0  0  0
   48.0403   25.3111   48.1075 H   0  0  0  0  0  0  0  0  0  0  0  0
   48.0504   27.4736   46.8897 H   0  0  0  0  0  0  0  0  0  0  0  0
   43.8798   27.9825   47.9186 H   0  0  0  0  0  0  0  0  0  0  0  0
   43.9206   25.8028   49.1326 H   0  0  0  0  0  0  0  0  0  0  0  0
   45.1795   22.9988   48.9303 H   0  0  0  0  0  0  0  0  0  0  0  0
   47.9964   32.8721   42.0922 H   0  0  0  0  0  0  0  0  0  0  0  0
   44.3630   35.6403   43.9523 H   0  0  0  0  0  0  0  0  0  0  0  0
   48.4285   34.8560   40.6735 H   0  0  0  0  0  0  0  0  0  0  0  0
   48.2840   36.4535   41.4992 H   0  0  0  0  0  0  0  0  0  0  0  0
   49.4118   35.1317   43.5058 H   0  0  0  0  0  0  0  0  0  0  0  0
   50.0007   34.0773   42.1760 H   0  0  0  0  0  0  0  0  0  0  0  0
   50.3976   35.8292   42.1760 H   0  0  0  0  0  0  0  0  0  0  0  0
  1  5  2  0
  1  2  1  0
  2  3  2  0
  4  3  1  0
  4  9  1  0
  5  4  1  0
  6 12  1  0
  7  6  2  0
  8  7  1  0
  9  8  2  0
  9 10  1  0
 10 11  2  0
 11  6  1  0
 12 14  2  0
 13 12  2  0
 15  1  1  0
 16 17  2  0
 16 21  1  0
 17 18  1  0
 18 15  1  0
 18 19  2  0
 20 19  1  0
 21 20  2  0
 22 16  1  0
 22 23  1  0
  2 24  1  0
  3 25  1  0
  7 26  1  0
  8 27  1  0
 10 28  1  0
 11 29  1  0
 12 30  1  0
 17 31  1  0
 20 32  1  0
 22 33  1  0
 22 34  1  0
 23 35  1  0
 23 36  1  0
 23 37  1  0
M  ISO  8  24  14  25  14  26  14  27  14  28  14  29  14  30  11  31  14
M  ISO  6  32  14  33   8  34   8  35   8  36   8  37   8
M  END
>  <minimizedAffinity>  (1) 
-4.71730375

>  <minimizedRMSD>  (1) 
2.88018966

$$$$
