
     RDKit          3D

 27 28  0  0  0  0  0  0  0  0999 V2000
   47.2990   34.9780   42.4860 C   0  0  0  0  0  0  0  0  0  0  0  0
   47.6580   33.8080   43.1780 C   0  0  0  0  0  0  0  0  0  0  0  0
   46.7190   33.1970   43.9870 C   0  0  0  0  0  0  0  0  0  0  0  0
   45.4820   33.7670   44.0740 N   0  0  0  0  0  0  0  0  0  0  0  0
   45.1690   34.8930   43.3960 C   0  0  0  0  0  0  0  0  0  0  0  0
   46.0740   35.4910   42.6090 N   0  0  0  0  0  0  0  0  0  0  0  0
   48.4170   35.5080   41.6620 C   0  0  0  0  0  0  0  0  0  0  0  0
   49.7450   35.1930   42.3050 C   0  0  0  0  0  0  0  0  0  0  0  0
   47.0530   31.7360   44.8960 S   0  0  0  0  0  0  0  0  0  0  0  0
   46.1900   31.6770   46.4590 C   0  0  0  0  0  0  0  0  0  0  0  0
   45.6340   32.5450   47.3880 C   0  0  0  0  0  0  0  0  0  0  0  0
   45.1210   31.7410   48.3880 C   0  0  0  0  0  0  0  0  0  0  0  0
   45.3530   30.4490   48.0840 N   0  0  0  0  0  0  0  0  0  0  0  0
   45.9930   30.4150   46.9290 N   0  0  0  0  0  0  0  0  0  0  0  0
   44.9210   29.3770   48.9640 C   0  0  0  0  0  0  0  0  0  0  0  0
   48.6689   33.3862   43.0772 H   0  0  0  0  0  0  0  0  0  0  0  0
   44.1611   35.3233   43.4910 H   0  0  0  0  0  0  0  0  0  0  0  0
   48.3108   36.5987   41.5670 H   0  0  0  0  0  0  0  0  0  0  0  0
   48.3819   35.0349   40.6696 H   0  0  0  0  0  0  0  0  0  0  0  0
   49.6377   35.2185   43.3995 H   0  0  0  0  0  0  0  0  0  0  0  0
   50.0755   34.1915   41.9922 H   0  0  0  0  0  0  0  0  0  0  0  0
   50.4901   35.9393   41.9922 H   0  0  0  0  0  0  0  0  0  0  0  0
   45.6072   33.6436   47.3387 H   0  0  0  0  0  0  0  0  0  0  0  0
   44.6043   32.0995   49.2905 H   0  0  0  0  0  0  0  0  0  0  0  0
   45.0468   29.6891   50.0113 H   0  0  0  0  0  0  0  0  0  0  0  0
   43.8615   29.1508   48.7736 H   0  0  0  0  0  0  0  0  0  0  0  0
   45.5276   28.4793   48.7736 H   0  0  0  0  0  0  0  0  0  0  0  0
  1  6  2  0
  1  2  1  0
  2  3  2  0
  3  4  1  0
  3  9  1  0
  5  4  2  0
  6  5  1  0
  7  8  1  0
  7  1  1  0
  9 10  1  0
 10 14  2  0
 10 11  1  0
 11 12  2  0
 13 12  1  0
 13 15  1  0
 14 13  1  0
  2 16  1  0
  5 17  1  0
  7 18  1  0
  7 19  1  0
  8 20  1  0
  8 21  1  0
  8 22  1  0
 11 23  1  0
 12 24  1  0
 15 25  1  0
 15 26  1  0
 15 27  1  0
M  ISO  8  16  14  17  14  18   8  19   8  20   8  21   8  22   8  23  14
M  ISO  4  24  14  25   8  26   8  27   8
M  END
>  <minimizedAffinity>  (1) 
-4.08387804

>  <minimizedRMSD>  (1) 
0.428530008

$$$$
