
     RDKit          3D

 36 37  0  0  0  0  0  0  0  0999 V2000
   46.9730   34.5860   42.9980 C   0  0  0  0  0  0  0  0  0  0  0  0
   47.5460   33.3980   43.4970 C   0  0  0  0  0  0  0  0  0  0  0  0
   46.9210   32.7240   44.5240 C   0  0  0  0  0  0  0  0  0  0  0  0
   45.7530   33.2620   45.0070 N   0  0  0  0  0  0  0  0  0  0  0  0
   45.2350   34.3940   44.5080 C   0  0  0  0  0  0  0  0  0  0  0  0
   45.8360   35.0530   43.5110 N   0  0  0  0  0  0  0  0  0  0  0  0
   47.7770   35.1840   41.8920 C   0  0  0  0  0  0  0  0  0  0  0  0
   49.2370   35.1300   42.2140 C   0  0  0  0  0  0  0  0  0  0  0  0
   47.5380   31.2430   45.2250 S   0  0  0  0  0  0  0  0  0  0  0  0
   46.3510   30.4400   46.2940 C   0  0  0  0  0  0  0  0  0  0  0  0
   45.5430   30.7340   47.3840 C   0  0  0  0  0  0  0  0  0  0  0  0
   44.8750   29.5590   47.6790 C   0  0  0  0  0  0  0  0  0  0  0  0
   45.2580   28.6020   46.8130 N   0  0  0  0  0  0  0  0  0  0  0  0
   46.1400   29.1310   45.9870 N   0  0  0  0  0  0  0  0  0  0  0  0
   44.7090   27.2610   46.8960 C   0  0  0  0  0  0  0  0  0  0  0  0
   45.6390   26.2740   46.2470 C   0  0  0  0  0  0  0  0  0  0  0  0
   43.3650   27.1630   46.2000 C   0  0  0  0  0  0  0  0  0  0  0  0
   44.6130   26.8900   48.3610 C   0  0  0  0  0  0  0  0  0  0  0  0
   48.4837   33.0126   43.0702 H   0  0  0  0  0  0  0  0  0  0  0  0
   44.2974   34.7883   44.9268 H   0  0  0  0  0  0  0  0  0  0  0  0
   47.4761   36.2328   41.7524 H   0  0  0  0  0  0  0  0  0  0  0  0
   47.5954   34.6104   40.9711 H   0  0  0  0  0  0  0  0  0  0  0  0
   49.3718   35.1250   43.3057 H   0  0  0  0  0  0  0  0  0  0  0  0
   49.6732   34.2151   41.7865 H   0  0  0  0  0  0  0  0  0  0  0  0
   49.7396   36.0102   41.7865 H   0  0  0  0  0  0  0  0  0  0  0  0
   45.4528   31.6991   47.9041 H   0  0  0  0  0  0  0  0  0  0  0  0
   44.1463   29.4275   48.4924 H   0  0  0  0  0  0  0  0  0  0  0  0
   46.1728   25.7074   47.0242 H   0  0  0  0  0  0  0  0  0  0  0  0
   45.0586   25.5803   45.6210 H   0  0  0  0  0  0  0  0  0  0  0  0
   46.3660   26.8121   45.6210 H   0  0  0  0  0  0  0  0  0  0  0  0
   42.5654   27.1047   46.9532 H   0  0  0  0  0  0  0  0  0  0  0  0
   43.2121   28.0524   45.5710 H   0  0  0  0  0  0  0  0  0  0  0  0
   43.3427   26.2608   45.5710 H   0  0  0  0  0  0  0  0  0  0  0  0
   44.8411   27.7715   48.9782 H   0  0  0  0  0  0  0  0  0  0  0  0
   43.5946   26.5395   48.5845 H   0  0  0  0  0  0  0  0  0  0  0  0
   45.3336   26.0895   48.5845 H   0  0  0  0  0  0  0  0  0  0  0  0
  1  2  2  0
  1  6  1  0
  2  3  1  0
  3  4  2  0
  3  9  1  0
  5  4  1  0
  6  5  2  0
  7  8  1  0
  7  1  1  0
  9 10  1  0
 10 11  1  0
 11 12  2  0
 13 15  1  0
 13 12  1  0
 14 10  2  0
 14 13  1  0
 15 18  1  0
 16 15  1  0
 17 15  1  0
  2 19  1  0
  5 20  1  0
  7 21  1  0
  7 22  1  0
  8 23  1  0
  8 24  1  0
  8 25  1  0
 11 26  1  0
 12 27  1  0
 16 28  1  0
 16 29  1  0
 16 30  1  0
 17 31  1  0
 17 32  1  0
 17 33  1  0
 18 34  1  0
 18 35  1  0
 18 36  1  0
M  ISO  8  19  14  20  14  21   8  22   8  23   8  24   8  25   8  26  14
M  ISO  8  27  14  28   8  29   8  30   8  31   8  32   8  33   8  34   8
M  ISO  2  35   8  36   8
M  END
>  <minimizedAffinity>  (1) 
-4.08257008

>  <minimizedRMSD>  (1) 
1.79315042

$$$$
