
     RDKit          3D

 27 28  0  0  0  0  0  0  0  0999 V2000
   47.2010   34.7590   42.6950 C   0  0  0  0  0  0  0  0  0  0  0  0
   47.6980   33.5750   43.2600 C   0  0  0  0  0  0  0  0  0  0  0  0
   46.9120   32.8680   44.1500 C   0  0  0  0  0  0  0  0  0  0  0  0
   45.6620   33.3690   44.4400 N   0  0  0  0  0  0  0  0  0  0  0  0
   45.2280   34.5060   43.8740 C   0  0  0  0  0  0  0  0  0  0  0  0
   45.9800   35.1930   43.0170 N   0  0  0  0  0  0  0  0  0  0  0  0
   48.1790   35.3840   41.7660 C   0  0  0  0  0  0  0  0  0  0  0  0
   49.5870   35.2210   42.2590 C   0  0  0  0  0  0  0  0  0  0  0  0
   47.4370   31.3760   44.9140 S   0  0  0  0  0  0  0  0  0  0  0  0
   46.3960   30.8890   46.2770 C   0  0  0  0  0  0  0  0  0  0  0  0
   45.6860   31.4960   47.3260 C   0  0  0  0  0  0  0  0  0  0  0  0
   45.0880   30.4760   48.0140 C   0  0  0  0  0  0  0  0  0  0  0  0
   45.4040   29.3030   47.4320 N   0  0  0  0  0  0  0  0  0  0  0  0
   46.1900   29.5540   46.3880 N   0  0  0  0  0  0  0  0  0  0  0  0
   44.9300   28.0170   47.9170 C   0  0  0  0  0  0  0  0  0  0  0  0
   44.4740   28.1350   49.2070 F   0  0  0  0  0  0  0  0  0  0  0  0
   46.0090   27.1270   47.9160 F   0  0  0  0  0  0  0  0  0  0  0  0
   43.9540   27.5470   47.0760 F   0  0  0  0  0  0  0  0  0  0  0  0
   48.7030   33.2131   42.9973 H   0  0  0  0  0  0  0  0  0  0  0  0
   44.2244   34.8800   44.1249 H   0  0  0  0  0  0  0  0  0  0  0  0
   47.9530   36.4569   41.6779 H   0  0  0  0  0  0  0  0  0  0  0  0
   48.0952   34.8848   40.7894 H   0  0  0  0  0  0  0  0  0  0  0  0
   49.5926   35.2204   43.3590 H   0  0  0  0  0  0  0  0  0  0  0  0
   49.9970   34.2694   41.8897 H   0  0  0  0  0  0  0  0  0  0  0  0
   50.2035   36.0538   41.8897 H   0  0  0  0  0  0  0  0  0  0  0  0
   45.6236   32.5714   47.5487 H   0  0  0  0  0  0  0  0  0  0  0  0
   44.4499   30.5949   48.9021 H   0  0  0  0  0  0  0  0  0  0  0  0
  1  6  2  0
  1  2  1  0
  2  3  2  0
  3  4  1  0
  3  9  1  0
  5  4  2  0
  6  5  1  0
  7  8  1  0
  7  1  1  0
  9 10  1  0
 10 14  2  0
 10 11  1  0
 11 12  2  0
 13 15  1  0
 13 12  1  0
 14 13  1  0
 15 16  1  0
 17 15  1  0
 18 15  1  0
  2 19  1  0
  5 20  1  0
  7 21  1  0
  7 22  1  0
  8 23  1  0
  8 24  1  0
  8 25  1  0
 11 26  1  0
 12 27  1  0
M  ISO  8  19  14  20  14  21   8  22   8  23   8  24   8  25   8  26  14
M  ISO  1  27  14
M  END
>  <minimizedAffinity>  (1) 
-4.36747122

>  <minimizedRMSD>  (1) 
1.21641839

$$$$
