
     RDKit          3D

 37 39  0  0  0  0  0  0  0  0999 V2000
   45.9940   31.7580   47.1450 C   0  0  0  0  0  0  0  0  0  0  0  0
   45.2600   31.7130   48.3360 C   0  0  0  0  0  0  0  0  0  0  0  0
   44.7110   30.4380   48.3910 C   0  0  0  0  0  0  0  0  0  0  0  0
   45.0970   29.7660   47.2950 N   0  0  0  0  0  0  0  0  0  0  0  0
   45.8670   30.5500   46.5430 N   0  0  0  0  0  0  0  0  0  0  0  0
   44.6960   28.4180   47.0570 C   0  0  0  0  0  0  0  0  0  0  0  0
   44.3190   27.9100   45.7060 C   0  0  0  0  0  0  0  0  0  0  0  0
   43.9250   26.1250   46.1500 S   0  0  0  0  0  0  0  0  0  0  0  0
   44.3340   26.4330   47.9690 C   0  0  0  0  0  0  0  0  0  0  0  0
   44.6340   27.5230   48.0350 N   0  0  0  0  0  0  0  0  0  0  0  0
   44.1940   25.2830   48.8810 N   0  0  0  0  0  0  0  0  0  0  0  0
   44.4960   25.5290   50.2470 C   0  0  0  0  0  0  0  0  0  0  0  0
   44.2210   26.6800   50.7140 N   0  0  0  0  0  0  0  0  0  0  0  0
   45.0780   24.4950   51.0170 N   0  0  0  0  0  0  0  0  0  0  0  0
   43.8030   27.4820   50.2470 H   0  0  0  0  0  0  0  0  0  0  0  0
   46.9900   32.9450   46.3020 S   0  0  0  0  0  0  0  0  0  0  0  0
   45.6420   34.7680   42.9700 C   0  0  0  0  0  0  0  0  0  0  0  0
   46.4100   33.9360   43.8010 C   0  0  0  0  0  0  0  0  0  0  0  0
   46.1100   33.9350   45.1590 C   0  0  0  0  0  0  0  0  0  0  0  0
   45.1040   34.7260   45.6050 N   0  0  0  0  0  0  0  0  0  0  0  0
   44.3890   35.5140   44.7650 C   0  0  0  0  0  0  0  0  0  0  0  0
   44.6580   35.5280   43.4780 N   0  0  0  0  0  0  0  0  0  0  0  0
   46.0610   34.6800   41.5410 C   0  0  0  0  0  0  0  0  0  0  0  0
   47.5690   34.7840   41.4340 C   0  0  0  0  0  0  0  0  0  0  0  0
   45.1423   32.5195   49.0748 H   0  0  0  0  0  0  0  0  0  0  0  0
   44.0701   30.0464   49.1947 H   0  0  0  0  0  0  0  0  0  0  0  0
   44.2822   28.4270   44.7358 H   0  0  0  0  0  0  0  0  0  0  0  0
   43.8948   24.3557   48.5472 H   0  0  0  0  0  0  0  0  0  0  0  0
   45.3035   24.6561   52.0090 H   0  0  0  0  0  0  0  0  0  0  0  0
   45.2763   23.5809   50.5857 H   0  0  0  0  0  0  0  0  0  0  0  0
   47.2173   33.3096   43.3936 H   0  0  0  0  0  0  0  0  0  0  0  0
   43.5799   36.1447   45.1620 H   0  0  0  0  0  0  0  0  0  0  0  0
   45.7321   33.7167   41.1239 H   0  0  0  0  0  0  0  0  0  0  0  0
   45.6020   35.5069   40.9793 H   0  0  0  0  0  0  0  0  0  0  0  0
   48.0069   34.8142   42.4426 H   0  0  0  0  0  0  0  0  0  0  0  0
   47.9592   33.9106   40.8909 H   0  0  0  0  0  0  0  0  0  0  0  0
   47.8356   35.7027   40.8909 H   0  0  0  0  0  0  0  0  0  0  0  0
  1  2  1  0
  2  3  2  0
  4  3  1  0
  5  1  2  0
  5  4  1  0
  6  4  1  0
  6 10  1  0
  7  8  1  0
  7  6  2  0
  8  9  1  0
  9 10  2  0
  9 11  1  0
 11 12  1  0
 12 13  2  0
 12 14  1  0
 15 13  1  0
 16  1  1  0
 17 22  2  0
 17 18  1  0
 18 19  2  0
 19 20  1  0
 19 16  1  0
 21 20  2  0
 22 21  1  0
 23 17  1  0
 24 23  1  0
  2 25  1  0
  3 26  1  0
  7 27  1  0
 11 28  1  0
 14 29  1  0
 14 30  1  0
 18 31  1  0
 21 32  1  0
 23 33  1  0
 23 34  1  0
 24 35  1  0
 24 36  1  0
 24 37  1  0
M  ISO  8  25  14  26  14  27  14  31  14  32  14  33   8  34   8  35   8
M  ISO  2  36   8  37   8
M  END
>  <minimizedAffinity>  (1) 
-6.1379056

>  <minimizedRMSD>  (1) 
1.44390154

$$$$
