
     RDKit          3D

 37 40  0  0  0  0  0  0  0  0999 V2000
   46.3920   30.6220   46.2560 C   0  0  0  0  0  0  0  0  0  0  0  0
   45.6040   31.0720   47.3240 C   0  0  0  0  0  0  0  0  0  0  0  0
   44.9660   29.9470   47.8090 C   0  0  0  0  0  0  0  0  0  0  0  0
   45.3490   28.8850   47.0780 N   0  0  0  0  0  0  0  0  0  0  0  0
   46.2070   29.2760   46.1380 N   0  0  0  0  0  0  0  0  0  0  0  0
   44.8600   27.5680   47.3360 C   0  0  0  0  0  0  0  0  0  0  0  0
   43.6900   26.9760   46.6360 C   0  0  0  0  0  0  0  0  0  0  0  0
   43.6430   25.2980   47.4570 S   0  0  0  0  0  0  0  0  0  0  0  0
   45.1430   25.7220   48.5260 C   0  0  0  0  0  0  0  0  0  0  0  0
   45.4330   26.7730   48.2350 N   0  0  0  0  0  0  0  0  0  0  0  0
   45.6130   24.6500   49.4810 C   0  0  0  0  0  0  0  0  0  0  0  0
   46.4950   23.6430   49.2620 C   0  0  0  0  0  0  0  0  0  0  0  0
   46.5170   23.0130   50.4720 N   0  0  0  0  0  0  0  0  0  0  0  0
   45.6820   23.6470   51.3250 C   0  0  0  0  0  0  0  0  0  0  0  0
   45.0920   24.7030   50.7000 N   0  0  0  0  0  0  0  0  0  0  0  0
   47.5180   31.3450   45.0910 S   0  0  0  0  0  0  0  0  0  0  0  0
   47.0900   34.6760   42.8680 C   0  0  0  0  0  0  0  0  0  0  0  0
   47.6440   33.4940   43.3850 C   0  0  0  0  0  0  0  0  0  0  0  0
   46.9310   32.8260   44.3680 C   0  0  0  0  0  0  0  0  0  0  0  0
   45.7470   33.3420   44.7780 N   0  0  0  0  0  0  0  0  0  0  0  0
   45.2460   34.4860   44.2530 C   0  0  0  0  0  0  0  0  0  0  0  0
   45.9200   35.1320   43.3140 N   0  0  0  0  0  0  0  0  0  0  0  0
   47.9490   35.3000   41.8200 C   0  0  0  0  0  0  0  0  0  0  0  0
   49.4060   35.1980   42.2120 C   0  0  0  0  0  0  0  0  0  0  0  0
   45.5129   32.1028   47.6970 H   0  0  0  0  0  0  0  0  0  0  0  0
   44.2613   29.9235   48.6533 H   0  0  0  0  0  0  0  0  0  0  0  0
   43.0392   27.4028   45.8586 H   0  0  0  0  0  0  0  0  0  0  0  0
   47.0499   23.3974   48.3446 H   0  0  0  0  0  0  0  0  0  0  0  0
   45.5051   23.3531   52.3702 H   0  0  0  0  0  0  0  0  0  0  0  0
   44.4105   25.3758   51.0793 H   0  0  0  0  0  0  0  0  0  0  0  0
   48.6097   33.1117   43.0227 H   0  0  0  0  0  0  0  0  0  0  0  0
   44.2807   34.8777   44.6063 H   0  0  0  0  0  0  0  0  0  0  0  0
   47.6756   36.3597   41.7093 H   0  0  0  0  0  0  0  0  0  0  0  0
   47.7951   34.7717   40.8675 H   0  0  0  0  0  0  0  0  0  0  0  0
   49.4911   35.1920   43.3087 H   0  0  0  0  0  0  0  0  0  0  0  0
   49.8306   34.2679   41.8062 H   0  0  0  0  0  0  0  0  0  0  0  0
   49.9561   36.0598   41.8062 H   0  0  0  0  0  0  0  0  0  0  0  0
  1  2  1  0
  2  3  2  0
  4  6  1  0
  4  3  1  0
  5  1  2  0
  5  4  1  0
  6 10  1  0
  7  6  2  0
  7  8  1  0
  8  9  1  0
  9 11  1  0
 10  9  2  0
 11 15  1  0
 12 11  2  0
 12 13  1  0
 13 14  2  0
 15 14  1  0
 16  1  1  0
 17 22  2  0
 17 18  1  0
 18 19  2  0
 19 20  1  0
 19 16  1  0
 21 20  2  0
 22 21  1  0
 23 24  1  0
 23 17  1  0
  2 25  1  0
  3 26  1  0
  7 27  1  0
 12 28  1  0
 14 29  1  0
 15 30  1  0
 18 31  1  0
 21 32  1  0
 23 33  1  0
 23 34  1  0
 24 35  1  0
 24 36  1  0
 24 37  1  0
M  ISO  8  25  14  26  14  27  14  28  14  29  14  30   9  31  14  32  14
M  ISO  5  33   8  34   8  35   8  36   8  37   8
M  END
>  <minimizedAffinity>  (1) 
-5.55484819

>  <minimizedRMSD>  (1) 
1.01439822

$$$$
