
     RDKit          3D

 37 40  0  0  0  0  0  0  0  0999 V2000
   46.3870   30.6440   46.0960 C   0  0  0  0  0  0  0  0  0  0  0  0
   45.6480   31.1330   47.1950 C   0  0  0  0  0  0  0  0  0  0  0  0
   44.9720   30.0360   47.6880 C   0  0  0  0  0  0  0  0  0  0  0  0
   45.2770   28.9690   46.9460 N   0  0  0  0  0  0  0  0  0  0  0  0
   46.1280   29.3080   45.9810 N   0  0  0  0  0  0  0  0  0  0  0  0
   44.7400   27.6660   47.2040 C   0  0  0  0  0  0  0  0  0  0  0  0
   43.5430   27.1160   46.5350 C   0  0  0  0  0  0  0  0  0  0  0  0
   43.4530   25.4360   47.3360 S   0  0  0  0  0  0  0  0  0  0  0  0
   45.0070   25.7960   48.3930 C   0  0  0  0  0  0  0  0  0  0  0  0
   45.2980   26.8400   48.0820 N   0  0  0  0  0  0  0  0  0  0  0  0
   45.5000   24.8020   49.3050 N   0  0  0  0  0  0  0  0  0  0  0  0
   45.2360   24.7100   50.6180 C   0  0  0  0  0  0  0  0  0  0  0  0
   45.9320   23.6060   51.0400 C   0  0  0  0  0  0  0  0  0  0  0  0
   46.5890   23.0750   49.9670 N   0  0  0  0  0  0  0  0  0  0  0  0
   46.3250   23.8120   48.8890 C   0  0  0  0  0  0  0  0  0  0  0  0
   47.5150   31.3140   44.9000 S   0  0  0  0  0  0  0  0  0  0  0  0
   47.2170   34.6960   42.7320 C   0  0  0  0  0  0  0  0  0  0  0  0
   47.7440   33.5070   43.2680 C   0  0  0  0  0  0  0  0  0  0  0  0
   46.9570   32.7980   44.1630 C   0  0  0  0  0  0  0  0  0  0  0  0
   45.7310   33.2830   44.4740 N   0  0  0  0  0  0  0  0  0  0  0  0
   45.2640   34.4320   43.9340 C   0  0  0  0  0  0  0  0  0  0  0  0
   46.0010   35.1150   43.0810 N   0  0  0  0  0  0  0  0  0  0  0  0
   48.1500   35.3650   41.7900 C   0  0  0  0  0  0  0  0  0  0  0  0
   49.5790   35.2060   42.2700 C   0  0  0  0  0  0  0  0  0  0  0  0
   45.6177   32.1646   47.5756 H   0  0  0  0  0  0  0  0  0  0  0  0
   44.2918   30.0399   48.5525 H   0  0  0  0  0  0  0  0  0  0  0  0
   42.8885   27.5707   45.7768 H   0  0  0  0  0  0  0  0  0  0  0  0
   44.6010   25.3742   51.2227 H   0  0  0  0  0  0  0  0  0  0  0  0
   45.9568   23.2149   52.0678 H   0  0  0  0  0  0  0  0  0  0  0  0
   46.7009   23.6493   47.8681 H   0  0  0  0  0  0  0  0  0  0  0  0
   48.7463   33.1517   42.9868 H   0  0  0  0  0  0  0  0  0  0  0  0
   44.2637   34.7983   44.2083 H   0  0  0  0  0  0  0  0  0  0  0  0
   47.9028   36.4353   41.7319 H   0  0  0  0  0  0  0  0  0  0  0  0
   48.0507   34.9031   40.7966 H   0  0  0  0  0  0  0  0  0  0  0  0
   49.5983   35.2039   43.3698 H   0  0  0  0  0  0  0  0  0  0  0  0
   49.9885   34.2567   41.8942 H   0  0  0  0  0  0  0  0  0  0  0  0
   50.1872   36.0420   41.8942 H   0  0  0  0  0  0  0  0  0  0  0  0
  1  2  1  0
  2  3  2  0
  4  6  1  0
  4  3  1  0
  5  1  2  0
  5  4  1  0
  6 10  1  0
  7  6  2  0
  7  8  1  0
  8  9  1  0
  9 11  1  0
 10  9  2  0
 11 12  1  0
 12 13  2  0
 14 13  1  0
 15 11  1  0
 15 14  2  0
 16  1  1  0
 17 22  2  0
 17 18  1  0
 18 19  2  0
 19 20  1  0
 19 16  1  0
 21 20  2  0
 22 21  1  0
 23 24  1  0
 23 17  1  0
  2 25  1  0
  3 26  1  0
  7 27  1  0
 12 28  1  0
 13 29  1  0
 15 30  1  0
 18 31  1  0
 21 32  1  0
 23 33  1  0
 23 34  1  0
 24 35  1  0
 24 36  1  0
 24 37  1  0
M  ISO  8  25  14  26  14  27  14  28  14  29  14  30  14  31  14  32  14
M  ISO  5  33   8  34   8  35   8  36   8  37   8
M  END
>  <minimizedAffinity>  (1) 
-5.36471653

>  <minimizedRMSD>  (1) 
0.903875589

$$$$
