
     RDKit          3D

 39 41  0  0  0  0  0  0  0  0999 V2000
   47.4910   31.3890   44.8670 S   0  0  0  0  0  0  0  0  0  0  0  0
   47.2300   34.7590   42.6750 C   0  0  0  0  0  0  0  0  0  0  0  0
   47.7520   33.5760   43.2230 C   0  0  0  0  0  0  0  0  0  0  0  0
   46.9490   32.8740   44.1150 C   0  0  0  0  0  0  0  0  0  0  0  0
   45.7180   33.3600   44.4080 N   0  0  0  0  0  0  0  0  0  0  0  0
   45.2610   34.5060   43.8520 C   0  0  0  0  0  0  0  0  0  0  0  0
   46.0040   35.1840   43.0080 N   0  0  0  0  0  0  0  0  0  0  0  0
   48.1860   35.4150   41.7360 C   0  0  0  0  0  0  0  0  0  0  0  0
   49.5910   35.2750   42.2320 C   0  0  0  0  0  0  0  0  0  0  0  0
   46.3660   30.7630   46.0940 C   0  0  0  0  0  0  0  0  0  0  0  0
   45.7420   31.2460   47.2490 C   0  0  0  0  0  0  0  0  0  0  0  0
   44.9940   30.1950   47.7270 C   0  0  0  0  0  0  0  0  0  0  0  0
   45.1530   29.1440   46.9160 N   0  0  0  0  0  0  0  0  0  0  0  0
   45.9790   29.4650   45.9230 N   0  0  0  0  0  0  0  0  0  0  0  0
   44.5010   27.8900   47.1490 C   0  0  0  0  0  0  0  0  0  0  0  0
   43.6850   27.1890   46.1340 C   0  0  0  0  0  0  0  0  0  0  0  0
   43.1760   25.6780   47.1060 S   0  0  0  0  0  0  0  0  0  0  0  0
   44.1370   26.2800   48.6320 C   0  0  0  0  0  0  0  0  0  0  0  0
   44.5910   27.2600   48.3150 N   0  0  0  0  0  0  0  0  0  0  0  0
   44.1170   25.4160   49.8740 C   0  0  0  0  0  0  0  0  0  0  0  0
   45.5260   24.9420   50.1620 C   0  0  0  0  0  0  0  0  0  0  0  0
   43.5310   26.1960   51.0290 C   0  0  0  0  0  0  0  0  0  0  0  0
   48.7576   33.2185   42.9567 H   0  0  0  0  0  0  0  0  0  0  0  0
   44.2567   34.8733   44.1098 H   0  0  0  0  0  0  0  0  0  0  0  0
   47.9364   36.4831   41.6537 H   0  0  0  0  0  0  0  0  0  0  0  0
   48.1070   34.9289   40.7524 H   0  0  0  0  0  0  0  0  0  0  0  0
   49.5932   35.2748   43.3320 H   0  0  0  0  0  0  0  0  0  0  0  0
   50.0172   34.3299   41.8643 H   0  0  0  0  0  0  0  0  0  0  0  0
   50.1953   36.1174   41.8643 H   0  0  0  0  0  0  0  0  0  0  0  0
   45.8306   32.2528   47.6831 H   0  0  0  0  0  0  0  0  0  0  0  0
   44.3666   30.2159   48.6303 H   0  0  0  0  0  0  0  0  0  0  0  0
   43.4457   27.4763   45.0995 H   0  0  0  0  0  0  0  0  0  0  0  0
   43.4813   24.5313   49.7216 H   0  0  0  0  0  0  0  0  0  0  0  0
   45.6802   24.8901   51.2499 H   0  0  0  0  0  0  0  0  0  0  0  0
   45.6743   23.9445   49.7227 H   0  0  0  0  0  0  0  0  0  0  0  0
   46.2470   25.6470   49.7227 H   0  0  0  0  0  0  0  0  0  0  0  0
   43.8648   25.7517   51.9783 H   0  0  0  0  0  0  0  0  0  0  0  0
   43.8690   27.2414   50.9745 H   0  0  0  0  0  0  0  0  0  0  0  0
   42.4329   26.1624   50.9745 H   0  0  0  0  0  0  0  0  0  0  0  0
  1 10  1  0
  2  7  2  0
  2  3  1  0
  3  4  2  0
  4  5  1  0
  4  1  1  0
  6  5  2  0
  7  6  1  0
  8  9  1  0
  8  2  1  0
 10 11  1  0
 11 12  2  0
 13 15  1  0
 13 12  1  0
 14 10  2  0
 14 13  1  0
 15 19  1  0
 16 17  1  0
 16 15  2  0
 17 18  1  0
 18 20  1  0
 19 18  2  0
 20 21  1  0
 20 22  1  0
  3 23  1  0
  6 24  1  0
  8 25  1  0
  8 26  1  0
  9 27  1  0
  9 28  1  0
  9 29  1  0
 11 30  1  0
 12 31  1  0
 16 32  1  0
 20 33  1  0
 21 34  1  0
 21 35  1  0
 21 36  1  0
 22 37  1  0
 22 38  1  0
 22 39  1  0
M  ISO  8  23  14  24  14  25   8  26   8  27   8  28   8  29   8  30  14
M  ISO  8  31  14  32  14  33   8  34   8  35   8  36   8  37   8  38   8
M  ISO  1  39   8
M  END
>  <minimizedAffinity>  (1) 
-4.83601284

>  <minimizedRMSD>  (1) 
0.27915138

$$$$
