
     RDKit          3D

 36 38  0  0  0  0  0  0  0  0999 V2000
   47.4430   31.3360   44.8460 S   0  0  0  0  0  0  0  0  0  0  0  0
   47.2300   34.7350   42.6970 C   0  0  0  0  0  0  0  0  0  0  0  0
   47.7230   33.5440   43.2330 C   0  0  0  0  0  0  0  0  0  0  0  0
   46.9220   32.8370   44.1130 C   0  0  0  0  0  0  0  0  0  0  0  0
   45.6970   33.3350   44.4110 N   0  0  0  0  0  0  0  0  0  0  0  0
   45.2560   34.4940   43.8680 C   0  0  0  0  0  0  0  0  0  0  0  0
   46.0070   35.1740   43.0330 N   0  0  0  0  0  0  0  0  0  0  0  0
   48.1930   35.3930   41.7680 C   0  0  0  0  0  0  0  0  0  0  0  0
   49.6020   35.2230   42.2640 C   0  0  0  0  0  0  0  0  0  0  0  0
   46.3560   30.7500   46.1240 C   0  0  0  0  0  0  0  0  0  0  0  0
   45.7230   31.2890   47.2520 C   0  0  0  0  0  0  0  0  0  0  0  0
   45.0150   30.2450   47.8070 C   0  0  0  0  0  0  0  0  0  0  0  0
   45.2080   29.1500   47.0640 N   0  0  0  0  0  0  0  0  0  0  0  0
   46.0130   29.4310   46.0430 N   0  0  0  0  0  0  0  0  0  0  0  0
   44.6000   27.8950   47.3890 C   0  0  0  0  0  0  0  0  0  0  0  0
   43.8190   27.0870   46.3970 C   0  0  0  0  0  0  0  0  0  0  0  0
   43.3470   25.6370   47.4750 S   0  0  0  0  0  0  0  0  0  0  0  0
   44.2610   26.3870   48.9790 C   0  0  0  0  0  0  0  0  0  0  0  0
   44.6880   27.3570   48.6010 N   0  0  0  0  0  0  0  0  0  0  0  0
   44.3130   25.6920   50.3490 C   0  0  0  0  0  0  0  0  0  0  0  0
   43.1020   26.1100   51.1540 C   0  0  0  0  0  0  0  0  0  0  0  0
   48.7238   33.1763   42.9625 H   0  0  0  0  0  0  0  0  0  0  0  0
   44.2561   34.8706   44.1296 H   0  0  0  0  0  0  0  0  0  0  0  0
   47.9587   36.4658   41.7038 H   0  0  0  0  0  0  0  0  0  0  0  0
   48.1061   34.9261   40.7758 H   0  0  0  0  0  0  0  0  0  0  0  0
   49.6059   35.2225   43.3640 H   0  0  0  0  0  0  0  0  0  0  0  0
   50.0079   34.2694   41.8955 H   0  0  0  0  0  0  0  0  0  0  0  0
   50.2231   36.0527   41.8955 H   0  0  0  0  0  0  0  0  0  0  0  0
   45.7793   32.3252   47.6169 H   0  0  0  0  0  0  0  0  0  0  0  0
   44.3932   30.3029   48.7125 H   0  0  0  0  0  0  0  0  0  0  0  0
   43.5902   27.2895   45.3403 H   0  0  0  0  0  0  0  0  0  0  0  0
   44.3062   24.6008   50.2105 H   0  0  0  0  0  0  0  0  0  0  0  0
   45.2323   25.9804   50.8797 H   0  0  0  0  0  0  0  0  0  0  0  0
   43.3301   26.0313   52.2272 H   0  0  0  0  0  0  0  0  0  0  0  0
   42.8408   27.1503   50.9100 H   0  0  0  0  0  0  0  0  0  0  0  0
   42.2547   25.4523   50.9100 H   0  0  0  0  0  0  0  0  0  0  0  0
  1 10  1  0
  2  7  2  0
  2  3  1  0
  3  4  2  0
  4  5  1  0
  4  1  1  0
  6  5  2  0
  7  6  1  0
  8  9  1  0
  8  2  1  0
 10 11  1  0
 11 12  2  0
 13 15  1  0
 13 12  1  0
 14 10  2  0
 14 13  1  0
 15 19  1  0
 16 15  2  0
 16 17  1  0
 17 18  1  0
 18 20  1  0
 19 18  2  0
 20 21  1  0
  3 22  1  0
  6 23  1  0
  8 24  1  0
  8 25  1  0
  9 26  1  0
  9 27  1  0
  9 28  1  0
 11 29  1  0
 12 30  1  0
 16 31  1  0
 20 32  1  0
 20 33  1  0
 21 34  1  0
 21 35  1  0
 21 36  1  0
M  ISO  8  22  14  23  14  24   8  25   8  26   8  27   8  28   8  29  14
M  ISO  7  30  14  31  14  32   8  33   8  34   8  35   8  36   8
M  END
>  <minimizedAffinity>  (1) 
-4.86215973

>  <minimizedRMSD>  (1) 
0.182737723

$$$$
