
     RDKit          3D

 42 45  0  0  0  0  0  0  0  0999 V2000
   45.7520   30.5800   44.7590 C   0  0  0  0  0  0  0  0  0  0  0  0
   45.9280   31.1040   46.0490 C   0  0  0  0  0  0  0  0  0  0  0  0
   45.5840   30.0740   46.9020 C   0  0  0  0  0  0  0  0  0  0  0  0
   45.2260   29.0050   46.1850 N   0  0  0  0  0  0  0  0  0  0  0  0
   45.3200   29.2930   44.8880 N   0  0  0  0  0  0  0  0  0  0  0  0
   44.8180   27.7740   46.7860 C   0  0  0  0  0  0  0  0  0  0  0  0
   43.5660   27.0580   46.4110 C   0  0  0  0  0  0  0  0  0  0  0  0
   43.6930   25.5880   47.5520 S   0  0  0  0  0  0  0  0  0  0  0  0
   45.3470   26.2150   48.2760 C   0  0  0  0  0  0  0  0  0  0  0  0
   45.5430   27.1780   47.7260 N   0  0  0  0  0  0  0  0  0  0  0  0
   45.8400   25.3170   49.2680 N   0  0  0  0  0  0  0  0  0  0  0  0
   45.2590   24.8740   50.5200 C   0  0  0  0  0  0  0  0  0  0  0  0
   45.8710   23.5210   50.8100 C   0  0  0  0  0  0  0  0  0  0  0  0
   46.7120   23.2280   49.5820 C   0  0  0  0  0  0  0  0  0  0  0  0
   47.1160   24.6440   49.1700 C   0  0  0  0  0  0  0  0  0  0  0  0
   45.9530   31.1560   43.0860 S   0  0  0  0  0  0  0  0  0  0  0  0
   47.2080   34.9030   42.3060 C   0  0  0  0  0  0  0  0  0  0  0  0
   47.1750   33.5080   42.3640 C   0  0  0  0  0  0  0  0  0  0  0  0
   46.0860   32.8960   42.9590 C   0  0  0  0  0  0  0  0  0  0  0  0
   45.1010   33.6800   43.4600 N   0  0  0  0  0  0  0  0  0  0  0  0
   45.1710   35.0300   43.3840 C   0  0  0  0  0  0  0  0  0  0  0  0
   46.1990   35.6210   42.8220 N   0  0  0  0  0  0  0  0  0  0  0  0
   48.4280   35.4350   41.6440 C   0  0  0  0  0  0  0  0  0  0  0  0
   49.6550   35.0730   42.4430 C   0  0  0  0  0  0  0  0  0  0  0  0
   46.2662   32.1147   46.3212 H   0  0  0  0  0  0  0  0  0  0  0  0
   45.6019   30.1256   48.0006 H   0  0  0  0  0  0  0  0  0  0  0  0
   42.7917   27.3203   45.6750 H   0  0  0  0  0  0  0  0  0  0  0  0
   45.5009   25.5831   51.3254 H   0  0  0  0  0  0  0  0  0  0  0  0
   44.1625   24.8141   50.4557 H   0  0  0  0  0  0  0  0  0  0  0  0
   46.4980   23.5609   51.7129 H   0  0  0  0  0  0  0  0  0  0  0  0
   45.1140   22.7457   50.9996 H   0  0  0  0  0  0  0  0  0  0  0  0
   47.5892   22.6120   49.8292 H   0  0  0  0  0  0  0  0  0  0  0  0
   46.1928   22.6556   48.7992 H   0  0  0  0  0  0  0  0  0  0  0  0
   47.5127   24.6716   48.1444 H   0  0  0  0  0  0  0  0  0  0  0  0
   47.9182   25.0885   49.7774 H   0  0  0  0  0  0  0  0  0  0  0  0
   47.9971   32.9087   41.9457 H   0  0  0  0  0  0  0  0  0  0  0  0
   44.3549   35.6397   43.7991 H   0  0  0  0  0  0  0  0  0  0  0  0
   48.5112   35.0040   40.6354 H   0  0  0  0  0  0  0  0  0  0  0  0
   48.3523   36.5305   41.5796 H   0  0  0  0  0  0  0  0  0  0  0  0
   49.4263   35.1405   43.5169 H   0  0  0  0  0  0  0  0  0  0  0  0
   49.9626   34.0458   42.1974 H   0  0  0  0  0  0  0  0  0  0  0  0
   50.4709   35.7687   42.1974 H   0  0  0  0  0  0  0  0  0  0  0  0
  1  5  2  0
  1  2  1  0
  2  3  2  0
  4  6  1  0
  4  3  1  0
  5  4  1  0
  6 10  1  0
  7  6  2  0
  7  8  1  0
  8  9  1  0
  9 11  1  0
 10  9  2  0
 11 12  1  0
 12 13  1  0
 14 13  1  0
 15 11  1  0
 15 14  1  0
 16  1  1  0
 17 18  2  0
 17 22  1  0
 18 19  1  0
 19 16  1  0
 19 20  2  0
 21 20  1  0
 22 21  2  0
 23 17  1  0
 23 24  1  0
  2 25  1  0
  3 26  1  0
  7 27  1  0
 12 28  1  0
 12 29  1  0
 13 30  1  0
 13 31  1  0
 14 32  1  0
 14 33  1  0
 15 34  1  0
 15 35  1  0
 18 36  1  0
 21 37  1  0
 23 38  1  0
 23 39  1  0
 24 40  1  0
 24 41  1  0
 24 42  1  0
M  ISO  8  25  14  26  14  27  14  28  13  29  13  30  13  31  13  32  13
M  ISO  8  33  13  34  13  35  13  36  14  37  14  38   8  39   8  40   8
M  ISO  2  41   8  42   8
M  END
>  <minimizedAffinity>  (1) 
-5.09716797

>  <minimizedRMSD>  (1) 
1.36982

$$$$
