
     RDKit          3D

 32 34  0  0  0  0  0  0  0  0999 V2000
   47.4370   31.3820   44.8420 S   0  0  0  0  0  0  0  0  0  0  0  0
   47.2270   34.7670   42.6670 C   0  0  0  0  0  0  0  0  0  0  0  0
   47.7240   33.5800   43.2190 C   0  0  0  0  0  0  0  0  0  0  0  0
   46.9170   32.8740   44.0930 C   0  0  0  0  0  0  0  0  0  0  0  0
   45.6850   33.3660   44.3730 N   0  0  0  0  0  0  0  0  0  0  0  0
   45.2370   34.5170   43.8210 C   0  0  0  0  0  0  0  0  0  0  0  0
   46.0030   35.1970   42.9850 N   0  0  0  0  0  0  0  0  0  0  0  0
   48.1980   35.4230   41.7460 C   0  0  0  0  0  0  0  0  0  0  0  0
   49.6160   35.2480   42.2510 C   0  0  0  0  0  0  0  0  0  0  0  0
   46.3520   30.8040   46.1210 C   0  0  0  0  0  0  0  0  0  0  0  0
   45.7070   31.3580   47.2330 C   0  0  0  0  0  0  0  0  0  0  0  0
   45.0080   30.3180   47.8100 C   0  0  0  0  0  0  0  0  0  0  0  0
   45.2160   29.2080   47.0950 N   0  0  0  0  0  0  0  0  0  0  0  0
   46.0240   29.4830   46.0730 N   0  0  0  0  0  0  0  0  0  0  0  0
   44.6300   27.9470   47.4370 C   0  0  0  0  0  0  0  0  0  0  0  0
   43.8080   27.1450   46.5010 C   0  0  0  0  0  0  0  0  0  0  0  0
   43.4100   25.6840   47.5880 S   0  0  0  0  0  0  0  0  0  0  0  0
   44.3940   26.4240   49.0290 C   0  0  0  0  0  0  0  0  0  0  0  0
   44.7920   27.4010   48.6370 N   0  0  0  0  0  0  0  0  0  0  0  0
   44.3820   25.5630   50.2360 C   0  0  0  0  0  0  0  0  0  0  0  0
   45.3490   24.8210   50.5460 O   0  0  0  0  0  0  0  0  0  0  0  0
   48.7309   33.2180   42.9640 H   0  0  0  0  0  0  0  0  0  0  0  0
   44.2317   34.8885   44.0686 H   0  0  0  0  0  0  0  0  0  0  0  0
   47.9670   36.4966   41.6826 H   0  0  0  0  0  0  0  0  0  0  0  0
   48.1155   34.9560   40.7535 H   0  0  0  0  0  0  0  0  0  0  0  0
   49.6161   35.2480   43.3510 H   0  0  0  0  0  0  0  0  0  0  0  0
   50.0206   34.2931   41.8843 H   0  0  0  0  0  0  0  0  0  0  0  0
   50.2406   36.0759   41.8843 H   0  0  0  0  0  0  0  0  0  0  0  0
   45.7487   32.4027   47.5748 H   0  0  0  0  0  0  0  0  0  0  0  0
   44.3817   30.3904   48.7114 H   0  0  0  0  0  0  0  0  0  0  0  0
   43.5158   27.3526   45.4610 H   0  0  0  0  0  0  0  0  0  0  0  0
   43.4938   25.5736   50.8848 H   0  0  0  0  0  0  0  0  0  0  0  0
  1 10  1  0
  2  7  2  0
  2  3  1  0
  3  4  2  0
  4  5  1  0
  4  1  1  0
  6  5  2  0
  7  6  1  0
  8  9  1  0
  8  2  1  0
 10 11  1  0
 11 12  2  0
 13 15  1  0
 13 12  1  0
 14 10  2  0
 14 13  1  0
 15 19  1  0
 16 15  2  0
 16 17  1  0
 17 18  1  0
 18 20  1  0
 19 18  2  0
 20 21  2  0
  3 22  1  0
  6 23  1  0
  8 24  1  0
  8 25  1  0
  9 26  1  0
  9 27  1  0
  9 28  1  0
 11 29  1  0
 12 30  1  0
 16 31  1  0
 20 32  1  0
M  ISO  8  22  14  23  14  24   8  25   8  26   8  27   8  28   8  29  14
M  ISO  3  30  14  31  14  32   6
M  END
>  <minimizedAffinity>  (1) 
-4.70318794

>  <minimizedRMSD>  (1) 
0.242601976

$$$$
