
     RDKit          3D

 37 40  0  0  1  0  0  0  0  0999 V2000
   44.5820   34.6090   41.7260 C   0  0  2  0  0  0  0  0  0  0  0  0
   43.1220   34.9320   41.3150 C   0  0  0  0  0  0  0  0  0  0  0  0
   43.3880   34.9470   39.7960 C   0  0  1  0  0  0  0  0  0  0  0  0
   44.1230   33.6500   39.6320 C   0  0  0  0  0  0  0  0  0  0  0  0
   44.8090   33.3800   40.9680 C   0  0  0  0  0  0  0  0  0  0  0  0
   42.1310   34.9980   39.0320 C   0  0  0  0  0  0  0  0  0  0  0  0
   41.8410   35.6330   37.8190 C   0  0  0  0  0  0  0  0  0  0  0  0
   40.5420   35.4130   37.4820 N   0  0  0  0  0  0  0  0  0  0  0  0
   39.9560   34.6530   38.4270 C   0  0  0  0  0  0  0  0  0  0  0  0
   38.6720   34.2010   38.4860 C   0  0  0  0  0  0  0  0  0  0  0  0
   38.3260   33.4300   39.5800 C   0  0  0  0  0  0  0  0  0  0  0  0
   39.2420   33.1250   40.5810 C   0  0  0  0  0  0  0  0  0  0  0  0
   40.5170   33.6290   40.4330 C   0  0  0  0  0  0  0  0  0  0  0  0
   40.9370   34.4080   39.3670 C   0  0  0  0  0  0  0  0  0  0  0  0
   44.3630   35.6730   43.9300 C   0  0  0  0  0  0  0  0  0  0  0  0
   44.7630   34.5350   43.1750 C   0  0  0  0  0  0  0  0  0  0  0  0
   45.3280   33.4130   43.8450 C   0  0  0  0  0  0  0  0  0  0  0  0
   45.4560   33.4960   45.2010 N   0  0  0  0  0  0  0  0  0  0  0  0
   45.0600   34.6030   45.8950 C   0  0  0  0  0  0  0  0  0  0  0  0
   44.5180   35.6800   45.2580 N   0  0  0  0  0  0  0  0  0  0  0  0
   45.3302   35.3806   41.4917 H   0  0  0  0  0  0  0  0  0  0  0  0
   42.4116   34.1476   41.6152 H   0  0  0  0  0  0  0  0  0  0  0  0
   42.6614   35.8289   41.7548 H   0  0  0  0  0  0  0  0  0  0  0  0
   43.9455   35.8199   39.4255 H   0  0  0  0  0  0  0  0  0  0  0  0
   43.4184   32.8395   39.3940 H   0  0  0  0  0  0  0  0  0  0  0  0
   44.8517   33.7024   38.8096 H   0  0  0  0  0  0  0  0  0  0  0  0
   44.3545   32.5162   41.4753 H   0  0  0  0  0  0  0  0  0  0  0  0
   45.8761   33.1363   40.8588 H   0  0  0  0  0  0  0  0  0  0  0  0
   42.5568   36.2220   37.2268 H   0  0  0  0  0  0  0  0  0  0  0  0
   40.0782   35.7719   36.6353 H   0  0  0  0  0  0  0  0  0  0  0  0
   37.9427   34.4391   37.6977 H   0  0  0  0  0  0  0  0  0  0  0  0
   37.2979   33.0472   39.6610 H   0  0  0  0  0  0  0  0  0  0  0  0
   38.9627   32.5108   41.4497 H   0  0  0  0  0  0  0  0  0  0  0  0
   41.2528   33.3961   41.2168 H   0  0  0  0  0  0  0  0  0  0  0  0
   43.9269   36.5457   43.4218 H   0  0  0  0  0  0  0  0  0  0  0  0
   45.6479   32.5170   43.2928 H   0  0  0  0  0  0  0  0  0  0  0  0
   45.1804   34.6266   46.9881 H   0  0  0  0  0  0  0  0  0  0  0  0
  1 16  1  0
  2  1  1  0
  3  2  1  0
  4  3  1  0
  4  5  1  0
  5  1  1  0
  6 14  1  0
  6  3  1  0
  7  6  2  0
  8  7  1  0
  8  9  1  0
  9 10  2  0
  9 14  1  0
 10 11  1  0
 11 12  2  0
 13 12  1  0
 14 13  2  0
 15 20  2  0
 16 17  2  0
 16 15  1  0
 17 18  1  0
 18 19  2  0
 20 19  1  0
  1 21  1  6
  2 22  1  0
  2 23  1  0
  3 24  1  1
  4 25  1  0
  4 26  1  0
  5 27  1  0
  5 28  1  0
  7 29  1  0
  8 30  1  0
 10 31  1  0
 11 32  1  0
 12 33  1  0
 13 34  1  0
 15 35  1  0
 17 36  1  0
 19 37  1  0
M  ISO  8  21  13  22  13  23  13  24  13  25  13  26  13  27  13  28  13
M  ISO  8  29  14  30   9  31  14  32  14  33  14  34  14  35  14  36  14
M  ISO  1  37  14
M  END
>  <minimizedAffinity>  (1) 
-6.07997274

>  <minimizedRMSD>  (1) 
1.03344321

$$$$
