
     RDKit          3D

 31 33  0  0  1  0  0  0  0  0999 V2000
   43.9370   34.9630   41.6660 C   0  0  2  0  0  0  0  0  0  0  0  0
   42.4270   34.6680   41.5000 C   0  0  0  0  0  0  0  0  0  0  0  0
   42.3460   35.0440   40.0050 C   0  0  1  0  0  0  0  0  0  0  0  0
   43.4910   34.2440   39.4710 C   0  0  0  0  0  0  0  0  0  0  0  0
   44.5220   34.1640   40.5970 C   0  0  0  0  0  0  0  0  0  0  0  0
   44.2110   35.7430   43.9790 C   0  0  0  0  0  0  0  0  0  0  0  0
   44.4070   34.7210   43.0340 C   0  0  0  0  0  0  0  0  0  0  0  0
   45.0590   33.5190   43.4340 C   0  0  0  0  0  0  0  0  0  0  0  0
   45.4660   33.4220   44.7320 N   0  0  0  0  0  0  0  0  0  0  0  0
   45.2570   34.4380   45.6180 C   0  0  0  0  0  0  0  0  0  0  0  0
   44.6320   35.5920   45.2420 N   0  0  0  0  0  0  0  0  0  0  0  0
   41.0310   34.7240   39.4470 C   0  0  0  0  0  0  0  0  0  0  0  0
   40.7660   34.7600   38.0920 C   0  0  0  0  0  0  0  0  0  0  0  0
   39.4780   34.4330   37.7230 C   0  0  0  0  0  0  0  0  0  0  0  0
   38.5010   34.0920   38.5870 N   0  0  0  0  0  0  0  0  0  0  0  0
   38.7940   34.0660   39.9190 C   0  0  0  0  0  0  0  0  0  0  0  0
   40.0340   34.3790   40.3130 N   0  0  0  0  0  0  0  0  0  0  0  0
   44.2330   36.0170   41.5588 H   0  0  0  0  0  0  0  0  0  0  0  0
   42.1782   33.6127   41.6859 H   0  0  0  0  0  0  0  0  0  0  0  0
   41.7386   35.1865   42.1835 H   0  0  0  0  0  0  0  0  0  0  0  0
   42.4319   36.1125   39.7583 H   0  0  0  0  0  0  0  0  0  0  0  0
   43.1531   33.2351   39.1918 H   0  0  0  0  0  0  0  0  0  0  0  0
   43.9182   34.7098   38.5707 H   0  0  0  0  0  0  0  0  0  0  0  0
   44.6673   33.1230   40.9213 H   0  0  0  0  0  0  0  0  0  0  0  0
   45.5139   34.5274   40.2903 H   0  0  0  0  0  0  0  0  0  0  0  0
   43.7080   36.6742   43.6792 H   0  0  0  0  0  0  0  0  0  0  0  0
   45.2281   32.6984   42.7212 H   0  0  0  0  0  0  0  0  0  0  0  0
   45.5993   34.3250   46.6573 H   0  0  0  0  0  0  0  0  0  0  0  0
   41.5342   35.0324   37.3533 H   0  0  0  0  0  0  0  0  0  0  0  0
   39.2312   34.4517   36.6512 H   0  0  0  0  0  0  0  0  0  0  0  0
   38.0247   33.7926   40.6562 H   0  0  0  0  0  0  0  0  0  0  0  0
  1  7  1  0
  2  1  1  0
  3  2  1  0
  4  3  1  0
  4  5  1  0
  5  1  1  0
  6 11  2  0
  7  8  2  0
  7  6  1  0
  8  9  1  0
  9 10  2  0
 11 10  1  0
 12  3  1  0
 12 17  1  0
 13 12  2  0
 14 13  1  0
 14 15  2  0
 15 16  1  0
 16 17  2  0
  1 18  1  6
  2 19  1  0
  2 20  1  0
  3 21  1  1
  4 22  1  0
  4 23  1  0
  5 24  1  0
  5 25  1  0
  6 26  1  0
  8 27  1  0
 10 28  1  0
 13 29  1  0
 14 30  1  0
 16 31  1  0
M  ISO  8  18  13  19  13  20  13  21  13  22  13  23  13  24  13  25  13
M  ISO  6  26  14  27  14  28  14  29  14  30  14  31  14
M  END
>  <minimizedAffinity>  (1) 
-5.11860752

>  <minimizedRMSD>  (1) 
1.00695908

$$$$
