
     RDKit          3D

 30 32  0  0  1  0  0  0  0  0999 V2000
   43.8550   34.9590   41.6750 C   0  0  2  0  0  0  0  0  0  0  0  0
   42.3410   34.6490   41.5440 C   0  0  0  0  0  0  0  0  0  0  0  0
   42.2010   35.0190   40.0710 C   0  0  1  0  0  0  0  0  0  0  0  0
   43.3900   34.2840   39.4750 C   0  0  0  0  0  0  0  0  0  0  0  0
   44.3990   34.1450   40.5890 C   0  0  0  0  0  0  0  0  0  0  0  0
   44.1980   35.7360   43.9810 C   0  0  0  0  0  0  0  0  0  0  0  0
   44.3740   34.7010   43.0200 C   0  0  0  0  0  0  0  0  0  0  0  0
   45.0440   33.5000   43.3960 C   0  0  0  0  0  0  0  0  0  0  0  0
   45.4860   33.4130   44.6810 N   0  0  0  0  0  0  0  0  0  0  0  0
   45.3020   34.4230   45.5800 C   0  0  0  0  0  0  0  0  0  0  0  0
   44.6610   35.5750   45.2260 N   0  0  0  0  0  0  0  0  0  0  0  0
   40.9700   34.6810   39.5330 C   0  0  0  0  0  0  0  0  0  0  0  0
   40.6540   34.8170   38.1920 C   0  0  0  0  0  0  0  0  0  0  0  0
   39.4860   34.5100   37.5950 C   0  0  0  0  0  0  0  0  0  0  0  0
   38.4790   33.9650   38.6000 C   0  0  0  0  0  0  0  0  0  0  0  0
   39.4240   33.9950   40.2590 S   0  0  0  0  0  0  0  0  0  0  0  0
   44.1383   36.0169   41.5716 H   0  0  0  0  0  0  0  0  0  0  0  0
   42.1102   33.5907   41.7356 H   0  0  0  0  0  0  0  0  0  0  0  0
   41.6706   35.1654   42.2467 H   0  0  0  0  0  0  0  0  0  0  0  0
   42.2170   36.0994   39.8648 H   0  0  0  0  0  0  0  0  0  0  0  0
   43.0827   33.2919   39.1126 H   0  0  0  0  0  0  0  0  0  0  0  0
   43.8110   34.8301   38.6180 H   0  0  0  0  0  0  0  0  0  0  0  0
   44.4936   33.0941   40.8998 H   0  0  0  0  0  0  0  0  0  0  0  0
   45.4058   34.4684   40.2860 H   0  0  0  0  0  0  0  0  0  0  0  0
   43.6824   36.6664   43.7008 H   0  0  0  0  0  0  0  0  0  0  0  0
   45.1972   32.6796   42.6794 H   0  0  0  0  0  0  0  0  0  0  0  0
   45.6767   34.3068   46.6077 H   0  0  0  0  0  0  0  0  0  0  0  0
   41.4443   35.2205   37.5419 H   0  0  0  0  0  0  0  0  0  0  0  0
   39.2853   34.6365   36.5209 H   0  0  0  0  0  0  0  0  0  0  0  0
   37.4475   33.6317   38.4133 H   0  0  0  0  0  0  0  0  0  0  0  0
  1  7  1  0
  2  1  1  0
  3  2  1  0
  4  3  1  0
  4  5  1  0
  5  1  1  0
  6 11  2  0
  7  8  2  0
  7  6  1  0
  8  9  1  0
  9 10  2  0
 11 10  1  0
 12  3  1  0
 12 16  1  0
 13 12  2  0
 14 13  1  0
 14 15  2  0
 15 16  1  0
  1 17  1  6
  2 18  1  0
  2 19  1  0
  3 20  1  1
  4 21  1  0
  4 22  1  0
  5 23  1  0
  5 24  1  0
  6 25  1  0
  8 26  1  0
 10 27  1  0
 13 28  1  0
 14 29  1  0
 15 30  1  0
M  ISO  8  17  13  18  13  19  13  20  13  21  13  22  13  23  13  24  13
M  ISO  6  25  14  26  14  27  14  28  14  29  14  30  14
M  END
>  <minimizedAffinity>  (1) 
-4.91845655

>  <minimizedRMSD>  (1) 
0.619005084

$$$$
