
     RDKit          3D

 26 27  0  0  1  0  0  0  0  0999 V2000
   43.6850   35.1400   41.5950 C   0  0  2  0  0  0  0  0  0  0  0  0
   42.1450   35.2590   41.6900 C   0  0  0  0  0  0  0  0  0  0  0  0
   41.8940   35.6080   40.2120 C   0  0  1  0  0  0  0  0  0  0  0  0
   42.7500   34.5810   39.5120 C   0  0  0  0  0  0  0  0  0  0  0  0
   43.8370   34.1780   40.5010 C   0  0  0  0  0  0  0  0  0  0  0  0
   44.2340   35.7010   43.9210 C   0  0  0  0  0  0  0  0  0  0  0  0
   44.2860   34.7420   42.8760 C   0  0  0  0  0  0  0  0  0  0  0  0
   44.9260   33.4920   43.1230 C   0  0  0  0  0  0  0  0  0  0  0  0
   45.4480   33.2970   44.3510 N   0  0  0  0  0  0  0  0  0  0  0  0
   45.3890   34.2270   45.3430 C   0  0  0  0  0  0  0  0  0  0  0  0
   44.7790   35.4270   45.1190 N   0  0  0  0  0  0  0  0  0  0  0  0
   40.4310   35.4740   39.9130 C   0  0  0  0  0  0  0  0  0  0  0  0
   40.2270   35.4510   38.5680 F   0  0  0  0  0  0  0  0  0  0  0  0
   39.7620   36.5040   40.5360 F   0  0  0  0  0  0  0  0  0  0  0  0
   39.9990   34.2820   40.4580 F   0  0  0  0  0  0  0  0  0  0  0  0
   44.2181   36.0800   41.3895 H   0  0  0  0  0  0  0  0  0  0  0  0
   41.6671   34.3136   41.9865 H   0  0  0  0  0  0  0  0  0  0  0  0
   41.7502   35.9636   42.4368 H   0  0  0  0  0  0  0  0  0  0  0  0
   42.1468   36.6340   39.9063 H   0  0  0  0  0  0  0  0  0  0  0  0
   42.1439   33.7056   39.2357 H   0  0  0  0  0  0  0  0  0  0  0  0
   43.1845   34.9885   38.5873 H   0  0  0  0  0  0  0  0  0  0  0  0
   43.6804   33.1495   40.8584 H   0  0  0  0  0  0  0  0  0  0  0  0
   44.8435   34.1924   40.0574 H   0  0  0  0  0  0  0  0  0  0  0  0
   43.7460   36.6719   43.7501 H   0  0  0  0  0  0  0  0  0  0  0  0
   44.9913   32.7184   42.3437 H   0  0  0  0  0  0  0  0  0  0  0  0
   45.8333   34.0112   46.3259 H   0  0  0  0  0  0  0  0  0  0  0  0
  1  2  1  0
  1  7  1  0
  3  2  1  0
  4  3  1  0
  4  5  1  0
  5  1  1  0
  6 11  2  0
  7  8  2  0
  7  6  1  0
  8  9  1  0
  9 10  2  0
 11 10  1  0
 12  3  1  0
 12 15  1  0
 12 14  1  0
 13 12  1  0
  1 16  1  6
  2 17  1  0
  2 18  1  0
  3 19  1  1
  4 20  1  0
  4 21  1  0
  5 22  1  0
  5 23  1  0
  6 24  1  0
  8 25  1  0
 10 26  1  0
M  ISO  8  16  13  17  13  18  13  19  13  20  13  21  13  22  13  23  13
M  ISO  3  24  14  25  14  26  14
M  END
>  <minimizedAffinity>  (1) 
-4.85286045

>  <minimizedRMSD>  (1) 
0.695507348

$$$$
