
     RDKit          3D

 35 36  0  0  1  0  0  0  0  0999 V2000
   44.0680   34.8560   41.5930 C   0  0  2  0  0  0  0  0  0  0  0  0
   42.5340   34.9900   41.4280 C   0  0  0  0  0  0  0  0  0  0  0  0
   42.5680   35.2500   39.9090 C   0  0  1  0  0  0  0  0  0  0  0  0
   43.3770   34.0650   39.4780 C   0  0  0  0  0  0  0  0  0  0  0  0
   44.3420   33.7790   40.6340 C   0  0  0  0  0  0  0  0  0  0  0  0
   44.2550   35.6960   43.8780 C   0  0  0  0  0  0  0  0  0  0  0  0
   44.4780   34.6460   42.9700 C   0  0  0  0  0  0  0  0  0  0  0  0
   45.1120   33.4610   43.4380 C   0  0  0  0  0  0  0  0  0  0  0  0
   45.4760   33.3990   44.7490 N   0  0  0  0  0  0  0  0  0  0  0  0
   45.2450   34.4380   45.6010 C   0  0  0  0  0  0  0  0  0  0  0  0
   44.6390   35.5800   45.1760 N   0  0  0  0  0  0  0  0  0  0  0  0
   41.2080   35.3700   39.3430 C   0  0  0  0  0  0  0  0  0  0  0  0
   41.2350   35.9270   37.9600 C   0  0  0  0  0  0  0  0  0  0  0  0
   40.6560   33.9390   39.2600 C   0  0  0  0  0  0  0  0  0  0  0  0
   40.2820   36.0960   40.2680 C   0  0  0  0  0  0  0  0  0  0  0  0
   44.6614   35.7570   41.3785 H   0  0  0  0  0  0  0  0  0  0  0  0
   41.9945   34.0681   41.6910 H   0  0  0  0  0  0  0  0  0  0  0  0
   42.0209   35.7327   42.0566 H   0  0  0  0  0  0  0  0  0  0  0  0
   43.0034   36.2009   39.5682 H   0  0  0  0  0  0  0  0  0  0  0  0
   42.7233   33.1983   39.3008 H   0  0  0  0  0  0  0  0  0  0  0  0
   43.9152   34.2607   38.5388 H   0  0  0  0  0  0  0  0  0  0  0  0
   44.1375   32.7949   41.0809 H   0  0  0  0  0  0  0  0  0  0  0  0
   45.3939   33.7521   40.3134 H   0  0  0  0  0  0  0  0  0  0  0  0
   43.7655   36.6193   43.5345 H   0  0  0  0  0  0  0  0  0  0  0  0
   45.3031   32.6172   42.7587 H   0  0  0  0  0  0  0  0  0  0  0  0
   45.5546   34.3515   46.6530 H   0  0  0  0  0  0  0  0  0  0  0  0
   41.2882   37.0247   38.0078 H   0  0  0  0  0  0  0  0  0  0  0  0
   42.1154   35.5401   37.4260 H   0  0  0  0  0  0  0  0  0  0  0  0
   40.3213   35.6271   37.4260 H   0  0  0  0  0  0  0  0  0  0  0  0
   40.5041   33.5451   40.2758 H   0  0  0  0  0  0  0  0  0  0  0  0
   39.6964   33.9468   38.7224 H   0  0  0  0  0  0  0  0  0  0  0  0
   41.3723   33.3003   38.7224 H   0  0  0  0  0  0  0  0  0  0  0  0
   40.5595   35.8784   41.3099 H   0  0  0  0  0  0  0  0  0  0  0  0
   40.3571   37.1784   40.0869 H   0  0  0  0  0  0  0  0  0  0  0  0
   39.2488   35.7648   40.0869 H   0  0  0  0  0  0  0  0  0  0  0  0
  1  7  1  0
  2  1  1  0
  3  2  1  0
  4  3  1  0
  4  5  1  0
  5  1  1  0
  6 11  2  0
  7  8  2  0
  7  6  1  0
  8  9  1  0
  9 10  2  0
 11 10  1  0
 12  3  1  0
 12 15  1  0
 13 12  1  0
 14 12  1  0
  1 16  1  6
  2 17  1  0
  2 18  1  0
  3 19  1  1
  4 20  1  0
  4 21  1  0
  5 22  1  0
  5 23  1  0
  6 24  1  0
  8 25  1  0
 10 26  1  0
 13 27  1  0
 13 28  1  0
 13 29  1  0
 14 30  1  0
 14 31  1  0
 14 32  1  0
 15 33  1  0
 15 34  1  0
 15 35  1  0
M  ISO  8  16  13  17  13  18  13  19  13  20  13  21  13  22  13  23  13
M  ISO  8  24  14  25  14  26  14  27   8  28   8  29   8  30   8  31   8
M  ISO  4  32   8  33   8  34   8  35   8
M  END
>  <minimizedAffinity>  (1) 
-5.01190329

>  <minimizedRMSD>  (1) 
0.197790489

$$$$
