
     RDKit          3D

 42 43  0  0  1  0  0  0  0  0999 V2000
   46.0830   34.7800   41.9400 C   0  0  2  0  0  0  0  0  0  0  0  0
   45.5840   33.5190   41.1540 C   0  0  0  0  0  0  0  0  0  0  0  0
   46.1830   33.9640   39.8030 C   0  0  1  0  0  0  0  0  0  0  0  0
   47.6020   34.2090   40.2230 C   0  0  0  0  0  0  0  0  0  0  0  0
   47.5070   34.7010   41.6710 C   0  0  0  0  0  0  0  0  0  0  0  0
   44.8800   35.8890   43.7520 C   0  0  0  0  0  0  0  0  0  0  0  0
   45.6360   34.7820   43.3180 C   0  0  0  0  0  0  0  0  0  0  0  0
   45.9350   33.7360   44.2530 C   0  0  0  0  0  0  0  0  0  0  0  0
   45.4780   33.8540   45.5200 N   0  0  0  0  0  0  0  0  0  0  0  0
   44.7430   34.9490   45.9110 C   0  0  0  0  0  0  0  0  0  0  0  0
   44.4430   35.9600   45.0430 N   0  0  0  0  0  0  0  0  0  0  0  0
   45.9590   32.9790   38.7250 C   0  0  0  0  0  0  0  0  0  0  0  0
   46.7270   33.2920   37.5010 C   0  0  0  0  0  0  0  0  0  0  0  0
   46.4740   31.6460   39.3040 C   0  0  0  0  0  0  0  0  0  0  0  0
   44.4820   32.7690   38.5030 C   0  0  0  0  0  0  0  0  0  0  0  0
   43.8700   34.0120   37.9980 N   0  0  0  0  0  0  0  0  0  0  0  0
   42.6050   34.4010   38.5070 C   0  0  0  0  0  0  0  0  0  0  0  0
   42.4630   34.1890   39.7960 N   0  0  0  0  0  0  0  0  0  0  0  0
   41.5460   34.9770   37.7610 N   0  0  0  0  0  0  0  0  0  0  0  0
   41.5850   34.4370   40.2640 H   0  0  0  0  0  0  0  0  0  0  0  0
   45.6791   35.7577   41.6385 H   0  0  0  0  0  0  0  0  0  0  0  0
   46.0176   32.5798   41.5281 H   0  0  0  0  0  0  0  0  0  0  0  0
   44.5095   33.2857   41.1870 H   0  0  0  0  0  0  0  0  0  0  0  0
   45.7300   34.8469   39.3284 H   0  0  0  0  0  0  0  0  0  0  0  0
   48.1876   33.2794   40.1680 H   0  0  0  0  0  0  0  0  0  0  0  0
   48.1062   34.9375   39.5711 H   0  0  0  0  0  0  0  0  0  0  0  0
   47.9922   33.9894   42.3552 H   0  0  0  0  0  0  0  0  0  0  0  0
   48.0125   35.6671   41.8166 H   0  0  0  0  0  0  0  0  0  0  0  0
   44.6411   36.6993   43.0475 H   0  0  0  0  0  0  0  0  0  0  0  0
   46.5226   32.8581   43.9462 H   0  0  0  0  0  0  0  0  0  0  0  0
   44.3875   35.0121   46.9501 H   0  0  0  0  0  0  0  0  0  0  0  0
   47.7125   33.6937   37.7792 H   0  0  0  0  0  0  0  0  0  0  0  0
   46.8589   32.3759   36.9066 H   0  0  0  0  0  0  0  0  0  0  0  0
   46.1810   34.0393   36.9066 H   0  0  0  0  0  0  0  0  0  0  0  0
   46.4561   31.6923   40.4029 H   0  0  0  0  0  0  0  0  0  0  0  0
   45.8289   30.8237   38.9611 H   0  0  0  0  0  0  0  0  0  0  0  0
   47.5044   31.4710   38.9611 H   0  0  0  0  0  0  0  0  0  0  0  0
   44.3342   31.9644   37.7676 H   0  0  0  0  0  0  0  0  0  0  0  0
   44.0077   32.4924   39.4561 H   0  0  0  0  0  0  0  0  0  0  0  0
   44.3512   34.5855   37.2906 H   0  0  0  0  0  0  0  0  0  0  0  0
   40.6622   35.2249   38.2283 H   0  0  0  0  0  0  0  0  0  0  0  0
   41.6604   35.1476   36.7517 H   0  0  0  0  0  0  0  0  0  0  0  0
  1  7  1  0
  2  1  1  0
  3  4  1  0
  3  2  1  0
  4  5  1  0
  5  1  1  0
  6 11  2  0
  7  6  1  0
  7  8  2  0
  8  9  1  0
  9 10  2  0
 11 10  1  0
 12 14  1  0
 12  3  1  0
 13 12  1  0
 15 12  1  0
 16 15  1  0
 16 17  1  0
 17 18  2  0
 18 20  1  0
 19 17  1  0
  1 21  1  6
  2 22  1  0
  2 23  1  0
  3 24  1  6
  4 25  1  0
  4 26  1  0
  5 27  1  0
  5 28  1  0
  6 29  1  0
  8 30  1  0
 10 31  1  0
 13 32  1  0
 13 33  1  0
 13 34  1  0
 14 35  1  0
 14 36  1  0
 14 37  1  0
 15 38  1  0
 15 39  1  0
 16 40  1  0
 19 41  1  0
 19 42  1  0
M  ISO  8  21  13  22  13  23  13  24  13  25  13  26  13  27  13  28  13
M  ISO  8  29  14  30  14  31  14  32   8  33   8  34   8  35   8  36   8
M  ISO  3  37   8  38   8  39   8
M  END
>  <minimizedAffinity>  (1) 
-5.01126337

>  <minimizedRMSD>  (1) 
3.9985311

$$$$
