
     RDKit          3D

 26 28  0  0  0  0  0  0  0  0999 V2000
   46.8320   32.5720   45.0140 C   0  0  0  0  0  0  0  0  0  0  0  0
   47.7020   32.1550   44.0800 N   0  0  0  0  0  0  0  0  0  0  0  0
   47.9190   32.7770   42.9330 C   0  0  0  0  0  0  0  0  0  0  0  0
   47.2650   33.8970   42.6190 N   0  0  0  0  0  0  0  0  0  0  0  0
   46.3660   34.4140   43.4780 C   0  0  0  0  0  0  0  0  0  0  0  0
   45.6810   35.5740   43.1660 C   0  0  0  0  0  0  0  0  0  0  0  0
   44.7640   36.1090   44.0300 C   0  0  0  0  0  0  0  0  0  0  0  0
   44.5540   35.4460   45.2100 C   0  0  0  0  0  0  0  0  0  0  0  0
   45.2560   34.2920   45.4880 C   0  0  0  0  0  0  0  0  0  0  0  0
   46.1790   33.7300   44.6520 C   0  0  0  0  0  0  0  0  0  0  0  0
   47.2230   31.9960   48.6480 C   0  0  0  0  0  0  0  0  0  0  0  0
   47.2690   32.4570   47.3300 C   0  0  0  0  0  0  0  0  0  0  0  0
   46.6030   31.8780   46.2710 C   0  0  0  0  0  0  0  0  0  0  0  0
   45.8960   30.8020   46.6630 N   0  0  0  0  0  0  0  0  0  0  0  0
   45.8160   30.3190   47.8990 C   0  0  0  0  0  0  0  0  0  0  0  0
   46.4710   30.9050   48.8890 N   0  0  0  0  0  0  0  0  0  0  0  0
   44.9810   29.1370   48.0660 C   0  0  0  0  0  0  0  0  0  0  0  0
   44.6190   28.4600   47.0700 O   0  0  0  0  0  0  0  0  0  0  0  0
   48.6521   32.3634   42.2249 H   0  0  0  0  0  0  0  0  0  0  0  0
   45.8764   36.0756   42.2067 H   0  0  0  0  0  0  0  0  0  0  0  0
   44.2185   37.0328   43.7868 H   0  0  0  0  0  0  0  0  0  0  0  0
   43.8249   35.8343   45.9364 H   0  0  0  0  0  0  0  0  0  0  0  0
   45.0597   33.7904   46.4471 H   0  0  0  0  0  0  0  0  0  0  0  0
   47.7764   32.5016   49.4531 H   0  0  0  0  0  0  0  0  0  0  0  0
   47.8813   33.3469   47.1221 H   0  0  0  0  0  0  0  0  0  0  0  0
   44.6636   28.8333   49.0745 H   0  0  0  0  0  0  0  0  0  0  0  0
  1 13  1  0
  2  1  2  0
  3  2  1  0
  4  3  2  0
  4  5  1  0
  5 10  2  0
  6  5  1  0
  6  7  2  0
  7  8  1  0
  8  9  2  0
 10  1  1  0
 10  9  1  0
 11 16  2  0
 12 11  1  0
 13 14  1  0
 13 12  2  0
 14 15  2  0
 15 17  1  0
 15 16  1  0
 18 17  2  0
  3 19  1  0
  6 20  1  0
  7 21  1  0
  8 22  1  0
  9 23  1  0
 11 24  1  0
 12 25  1  0
 17 26  1  0
M  ISO  8  19  14  20  14  21  14  22  14  23  14  24  14  25  14  26   6
M  END
>  <minimizedAffinity>  (1) 
-5.2569747

>  <minimizedRMSD>  (1) 
2.03628182

$$$$
