
     RDKit          3D

 51 53  0  0  1  0  0  0  0  0999 V2000
   44.2870   34.8000   41.4050 C   0  0  2  0  0  0  0  0  0  0  0  0
   42.7360   34.7940   41.1030 C   0  0  0  0  0  0  0  0  0  0  0  0
   42.8870   34.9920   39.5900 C   0  0  1  0  0  0  0  0  0  0  0  0
   43.8410   33.8740   39.2930 C   0  0  0  0  0  0  0  0  0  0  0  0
   44.7730   33.8020   40.5050 C   0  0  0  0  0  0  0  0  0  0  0  0
   44.2800   35.8530   43.5980 C   0  0  0  0  0  0  0  0  0  0  0  0
   44.5560   34.7320   42.8330 C   0  0  0  0  0  0  0  0  0  0  0  0
   45.1160   33.5370   43.4200 C   0  0  0  0  0  0  0  0  0  0  0  0
   45.3580   33.5630   44.7620 N   0  0  0  0  0  0  0  0  0  0  0  0
   45.0750   34.6930   45.5120 C   0  0  0  0  0  0  0  0  0  0  0  0
   44.5450   35.8220   44.9500 N   0  0  0  0  0  0  0  0  0  0  0  0
   41.5820   34.9510   38.9000 C   0  0  0  0  0  0  0  0  0  0  0  0
   41.5110   35.9990   37.8290 C   0  0  0  0  0  0  0  0  0  0  0  0
   41.5360   33.6100   38.1820 C   0  0  0  0  0  0  0  0  0  0  0  0
   40.4530   34.9910   39.8440 C   0  0  0  0  0  0  0  0  0  0  0  0
   39.5870   33.7550   39.6420 C   0  0  2  0  0  0  0  0  0  0  0  0
   38.1250   33.7880   39.8730 C   0  0  0  0  0  0  0  0  0  0  0  0
   38.9460   33.1800   40.9350 C   0  0  1  0  0  0  0  0  0  0  0  0
   39.1330   31.6880   41.0410 C   0  0  0  0  0  0  0  0  0  0  0  0
   40.1540   31.3400   42.0970 C   0  0  0  0  0  0  0  0  0  0  0  0
   37.8520   30.9390   41.1500 C   0  0  0  0  0  0  0  0  0  0  0  0
   44.8502   35.7238   41.2067 H   0  0  0  0  0  0  0  0  0  0  0  0
   42.2528   33.8409   41.3639 H   0  0  0  0  0  0  0  0  0  0  0  0
   42.1082   35.5127   41.6501 H   0  0  0  0  0  0  0  0  0  0  0  0
   43.2606   35.9667   39.2429 H   0  0  0  0  0  0  0  0  0  0  0  0
   43.2966   32.9262   39.1693 H   0  0  0  0  0  0  0  0  0  0  0  0
   44.3965   34.0475   38.3596 H   0  0  0  0  0  0  0  0  0  0  0  0
   44.7263   32.8062   40.9700 H   0  0  0  0  0  0  0  0  0  0  0  0
   45.8241   33.9715   40.2286 H   0  0  0  0  0  0  0  0  0  0  0  0
   43.8554   36.7550   43.1332 H   0  0  0  0  0  0  0  0  0  0  0  0
   45.3371   32.6469   42.8127 H   0  0  0  0  0  0  0  0  0  0  0  0
   45.2828   34.6820   46.5921 H   0  0  0  0  0  0  0  0  0  0  0  0
   41.4436   36.9939   38.2934 H   0  0  0  0  0  0  0  0  0  0  0  0
   42.4148   35.9465   37.2041 H   0  0  0  0  0  0  0  0  0  0  0  0
   40.6226   35.8251   37.2041 H   0  0  0  0  0  0  0  0  0  0  0  0
   41.5081   32.7979   38.9234 H   0  0  0  0  0  0  0  0  0  0  0  0
   40.6357   33.5622   37.5518 H   0  0  0  0  0  0  0  0  0  0  0  0
   42.4309   33.5006   37.5518 H   0  0  0  0  0  0  0  0  0  0  0  0
   40.8360   35.0073   40.8750 H   0  0  0  0  0  0  0  0  0  0  0  0
   39.8533   35.8956   39.6646 H   0  0  0  0  0  0  0  0  0  0  0  0
   40.2088   33.4080   38.8036 H   0  0  0  0  0  0  0  0  0  0  0  0
   37.6291   34.7521   40.0588 H   0  0  0  0  0  0  0  0  0  0  0  0
   37.2588   33.4383   39.2921 H   0  0  0  0  0  0  0  0  0  0  0  0
   38.9610   33.3321   42.0243 H   0  0  0  0  0  0  0  0  0  0  0  0
   39.5527   31.3400   40.0856 H   0  0  0  0  0  0  0  0  0  0  0  0
   39.7153   31.4895   43.0946 H   0  0  0  0  0  0  0  0  0  0  0  0
   40.4556   30.2883   41.9830 H   0  0  0  0  0  0  0  0  0  0  0  0
   41.0351   31.9886   41.9830 H   0  0  0  0  0  0  0  0  0  0  0  0
   37.6019   30.7928   42.2112 H   0  0  0  0  0  0  0  0  0  0  0  0
   37.0502   31.5106   40.6597 H   0  0  0  0  0  0  0  0  0  0  0  0
   37.9569   29.9599   40.6597 H   0  0  0  0  0  0  0  0  0  0  0  0
  1  7  1  0
  2  1  1  0
  3  2  1  0
  4  3  1  0
  4  5  1  0
  5  1  1  0
  6 11  2  0
  7  8  2  0
  7  6  1  0
  8  9  1  0
  9 10  2  0
 11 10  1  0
 12  3  1  0
 12 15  1  0
 13 12  1  0
 14 12  1  0
 16 15  1  0
 16 17  1  0
 16 18  1  0
 17 18  1  0
 18 19  1  0
 19 21  1  0
 19 20  1  0
  1 22  1  6
  2 23  1  0
  2 24  1  0
  3 25  1  1
  4 26  1  0
  4 27  1  0
  5 28  1  0
  5 29  1  0
  6 30  1  0
  8 31  1  0
 10 32  1  0
 13 33  1  0
 13 34  1  0
 13 35  1  0
 14 36  1  0
 14 37  1  0
 14 38  1  0
 15 39  1  0
 15 40  1  0
 16 41  1  6
 17 42  1  0
 17 43  1  0
 18 44  1  1
 19 45  1  0
 20 46  1  0
 20 47  1  0
 20 48  1  0
 21 49  1  0
 21 50  1  0
 21 51  1  0
M  ISO  8  22  13  23  13  24  13  25  13  26  13  27  13  28  13  29  13
M  ISO  8  30  14  31  14  32  14  33   8  34   8  35   8  36   8  37   8
M  ISO  8  38   8  39   8  40   8  41  13  42  13  43  13  44  13  45   8
M  ISO  6  46   8  47   8  48   8  49   8  50   8  51   8
M  END
>  <minimizedAffinity>  (1) 
-5.8255434

>  <minimizedRMSD>  (1) 
1.75303841

$$$$
