
     RDKit          3D

 49 52  0  0  1  0  0  0  0  0999 V2000
   42.5480   34.2900   39.0840 C   0  0  0  0  0  0  0  0  0  0  0  0
   44.8640   34.5020   41.9550 C   0  0  2  0  0  0  0  0  0  0  0  0
   43.3960   34.2540   41.4400 C   0  0  0  0  0  0  0  0  0  0  0  0
   43.7150   34.5180   39.9660 C   0  0  1  0  0  0  0  0  0  0  0  0
   44.8830   33.6220   39.7730 C   0  0  0  0  0  0  0  0  0  0  0  0
   45.6220   33.6270   41.1170 C   0  0  0  0  0  0  0  0  0  0  0  0
   44.4870   35.4920   44.1470 C   0  0  0  0  0  0  0  0  0  0  0  0
   44.9480   34.4190   43.4030 C   0  0  0  0  0  0  0  0  0  0  0  0
   45.5130   33.2630   44.0490 C   0  0  0  0  0  0  0  0  0  0  0  0
   45.5810   33.2630   45.4090 N   0  0  0  0  0  0  0  0  0  0  0  0
   45.1150   34.3460   46.1320 C   0  0  0  0  0  0  0  0  0  0  0  0
   44.5820   35.4340   45.5200 N   0  0  0  0  0  0  0  0  0  0  0  0
   42.3530   35.4100   38.1230 C   0  0  0  0  0  0  0  0  0  0  0  0
   42.8660   33.0510   38.2780 C   0  0  0  0  0  0  0  0  0  0  0  0
   41.3270   33.9850   39.8750 C   0  0  0  0  0  0  0  0  0  0  0  0
   40.2450   34.9880   39.5710 C   0  0  2  0  0  0  0  0  0  0  0  0
   39.1700   35.3230   40.5240 C   0  0  0  0  0  0  0  0  0  0  0  0
   38.7970   34.4330   39.4130 C   0  0  2  0  0  0  0  0  0  0  0  0
   38.5530   33.0180   39.7400 C   0  0  0  0  0  0  0  0  0  0  0  0
   38.5590   31.8090   39.0770 C   0  0  0  0  0  0  0  0  0  0  0  0
   38.2340   30.8000   39.8990 N   0  0  0  0  0  0  0  0  0  0  0  0
   38.0100   31.3210   41.1100 C   0  0  0  0  0  0  0  0  0  0  0  0
   38.2000   32.6480   41.0110 N   0  0  0  0  0  0  0  0  0  0  0  0
   45.2844   35.5134   41.8530 H   0  0  0  0  0  0  0  0  0  0  0  0
   43.0458   33.2277   41.6245 H   0  0  0  0  0  0  0  0  0  0  0  0
   42.5901   34.8455   41.8990 H   0  0  0  0  0  0  0  0  0  0  0  0
   43.9501   35.5593   39.7006 H   0  0  0  0  0  0  0  0  0  0  0  0
   44.5506   32.6045   39.5197 H   0  0  0  0  0  0  0  0  0  0  0  0
   45.5280   33.9601   38.9486 H   0  0  0  0  0  0  0  0  0  0  0  0
   45.6532   32.6139   41.5444 H   0  0  0  0  0  0  0  0  0  0  0  0
   46.6658   33.9580   41.0124 H   0  0  0  0  0  0  0  0  0  0  0  0
   44.0535   36.3732   43.6515 H   0  0  0  0  0  0  0  0  0  0  0  0
   45.8781   32.4070   43.4626 H   0  0  0  0  0  0  0  0  0  0  0  0
   45.1779   34.3251   47.2300 H   0  0  0  0  0  0  0  0  0  0  0  0
   42.1901   36.3455   38.6783 H   0  0  0  0  0  0  0  0  0  0  0  0
   43.2472   35.5101   37.4903 H   0  0  0  0  0  0  0  0  0  0  0  0
   41.4776   35.2020   37.4903 H   0  0  0  0  0  0  0  0  0  0  0  0
   43.0806   32.2150   38.9600 H   0  0  0  0  0  0  0  0  0  0  0  0
   42.0045   32.7950   37.6438 H   0  0  0  0  0  0  0  0  0  0  0  0
   43.7443   33.2416   37.6438 H   0  0  0  0  0  0  0  0  0  0  0  0
   40.9702   32.9767   39.6179 H   0  0  0  0  0  0  0  0  0  0  0  0
   41.5719   34.0355   40.9462 H   0  0  0  0  0  0  0  0  0  0  0  0
   40.9630   35.5955   39.0005 H   0  0  0  0  0  0  0  0  0  0  0  0
   39.2115   34.9201   41.5467 H   0  0  0  0  0  0  0  0  0  0  0  0
   38.7628   36.2740   40.8980 H   0  0  0  0  0  0  0  0  0  0  0  0
   38.0424   34.4330   38.6126 H   0  0  0  0  0  0  0  0  0  0  0  0
   38.7995   31.6875   38.0105 H   0  0  0  0  0  0  0  0  0  0  0  0
   37.7240   30.7677   42.0167 H   0  0  0  0  0  0  0  0  0  0  0  0
   38.0932   33.3068   41.7955 H   0  0  0  0  0  0  0  0  0  0  0  0
  1 15  1  0
  1  4  1  0
  2  8  1  0
  3  2  1  0
  4  3  1  0
  5  4  1  0
  5  6  1  0
  6  2  1  0
  7 12  2  0
  8  9  2  0
  8  7  1  0
  9 10  1  0
 10 11  2  0
 12 11  1  0
 13  1  1  0
 14  1  1  0
 16 15  1  0
 16 17  1  0
 18 16  1  0
 18 19  1  0
 18 17  1  0
 19 23  1  0
 20 19  2  0
 20 21  1  0
 21 22  2  0
 23 22  1  0
  2 24  1  6
  3 25  1  0
  3 26  1  0
  4 27  1  1
  5 28  1  0
  5 29  1  0
  6 30  1  0
  6 31  1  0
  7 32  1  0
  9 33  1  0
 11 34  1  0
 13 35  1  0
 13 36  1  0
 13 37  1  0
 14 38  1  0
 14 39  1  0
 14 40  1  0
 15 41  1  0
 15 42  1  0
 16 43  1  6
 17 44  1  0
 17 45  1  0
 18 46  1  6
 20 47  1  0
 22 48  1  0
 23 49  1  0
M  ISO  8  24  13  25  13  26  13  27  13  28  13  29  13  30  13  31  13
M  ISO  8  32  14  33  14  34  14  35   8  36   8  37   8  38   8  39   8
M  ISO  8  40   8  41   8  42   8  43  13  44  13  45  13  46  13  47  14
M  ISO  2  48  14  49   9
M  END
>  <minimizedAffinity>  (1) 
-5.81799698

>  <minimizedRMSD>  (1) 
1.11873186

$$$$
