
     RDKit          3D

 58 61  0  0  1  0  0  0  0  0999 V2000
   44.0060   34.2100   41.2320 C   0  0  0  0  0  0  0  0  0  0  0  0
   45.9130   33.8070   44.3640 C   0  0  2  0  0  0  0  0  0  0  0  0
   44.8890   33.2000   43.3280 C   0  0  0  0  0  0  0  0  0  0  0  0
   44.8340   34.4400   42.4280 C   0  0  1  0  0  0  0  0  0  0  0  0
   46.2950   34.6920   42.2240 C   0  0  0  0  0  0  0  0  0  0  0  0
   46.9830   34.2330   43.5180 C   0  0  0  0  0  0  0  0  0  0  0  0
   45.5380   33.2210   46.6960 C   0  0  0  0  0  0  0  0  0  0  0  0
   46.1420   32.9170   45.4870 C   0  0  0  0  0  0  0  0  0  0  0  0
   46.9880   31.7700   45.3590 C   0  0  0  0  0  0  0  0  0  0  0  0
   47.1840   30.9860   46.4520 N   0  0  0  0  0  0  0  0  0  0  0  0
   46.5700   31.3070   47.6520 C   0  0  0  0  0  0  0  0  0  0  0  0
   45.7590   32.4050   47.7770 N   0  0  0  0  0  0  0  0  0  0  0  0
   43.3660   35.4780   40.7650 C   0  0  0  0  0  0  0  0  0  0  0  0
   44.9850   33.8030   40.1300 C   0  0  0  0  0  0  0  0  0  0  0  0
   43.0630   33.0950   41.4110 C   0  0  0  0  0  0  0  0  0  0  0  0
   41.6730   33.6430   41.7010 C   0  0  2  0  0  0  0  0  0  0  0  0
   40.4960   32.7470   41.7790 C   0  0  0  0  0  0  0  0  0  0  0  0
   40.6550   33.5140   40.5280 C   0  0  1  0  0  0  0  0  0  0  0  0
   39.6890   34.6200   40.3120 C   0  0  0  0  0  0  0  0  0  0  0  0
   38.3640   34.0220   39.8890 C   0  0  0  0  0  0  0  0  0  0  0  0
   38.5310   33.2380   38.6320 C   0  0  0  0  0  0  0  0  0  0  0  0
   39.2850   33.8990   37.5370 C   0  0  0  0  0  0  0  0  0  0  0  0
   40.3920   34.8080   37.9520 C   0  0  0  0  0  0  0  0  0  0  0  0
   40.0750   35.5790   39.1890 C   0  0  0  0  0  0  0  0  0  0  0  0
   45.5924   34.6779   44.9546 H   0  0  0  0  0  0  0  0  0  0  0  0
   45.2821   32.3133   42.8091 H   0  0  0  0  0  0  0  0  0  0  0  0
   43.9356   32.8194   43.7232 H   0  0  0  0  0  0  0  0  0  0  0  0
   44.3309   35.3308   42.8322 H   0  0  0  0  0  0  0  0  0  0  0  0
   46.6675   34.1132   41.3660 H   0  0  0  0  0  0  0  0  0  0  0  0
   46.4974   35.7522   42.0118 H   0  0  0  0  0  0  0  0  0  0  0  0
   47.6735   33.4008   43.3165 H   0  0  0  0  0  0  0  0  0  0  0  0
   47.5844   35.0318   43.9765 H   0  0  0  0  0  0  0  0  0  0  0  0
   44.8897   34.1049   46.7883 H   0  0  0  0  0  0  0  0  0  0  0  0
   47.4681   31.5286   44.3992 H   0  0  0  0  0  0  0  0  0  0  0  0
   46.7379   30.6633   48.5280 H   0  0  0  0  0  0  0  0  0  0  0  0
   43.0631   36.0781   41.6357 H   0  0  0  0  0  0  0  0  0  0  0  0
   44.0838   36.0491   40.1579 H   0  0  0  0  0  0  0  0  0  0  0  0
   42.4802   35.2397   40.1579 H   0  0  0  0  0  0  0  0  0  0  0  0
   45.9098   33.4185   40.5848 H   0  0  0  0  0  0  0  0  0  0  0  0
   44.5299   33.0195   39.5062 H   0  0  0  0  0  0  0  0  0  0  0  0
   45.2195   34.6782   39.5062 H   0  0  0  0  0  0  0  0  0  0  0  0
   43.0336   32.4896   40.4931 H   0  0  0  0  0  0  0  0  0  0  0  0
   43.3923   32.4700   42.2542 H   0  0  0  0  0  0  0  0  0  0  0  0
   42.0715   34.4242   42.3650 H   0  0  0  0  0  0  0  0  0  0  0  0
   40.6455   31.6573   41.7667 H   0  0  0  0  0  0  0  0  0  0  0  0
   39.6732   32.6409   42.5013 H   0  0  0  0  0  0  0  0  0  0  0  0
   40.7327   33.2865   39.4546 H   0  0  0  0  0  0  0  0  0  0  0  0
   39.6579   35.1778   41.2596 H   0  0  0  0  0  0  0  0  0  0  0  0
   37.9942   33.3585   40.6847 H   0  0  0  0  0  0  0  0  0  0  0  0
   37.6436   34.8343   39.7124 H   0  0  0  0  0  0  0  0  0  0  0  0
   39.0577   32.3064   38.8861 H   0  0  0  0  0  0  0  0  0  0  0  0
   37.5133   33.0936   38.2403 H   0  0  0  0  0  0  0  0  0  0  0  0
   38.5694   34.4902   36.9467 H   0  0  0  0  0  0  0  0  0  0  0  0
   39.7687   33.0831   36.9799 H   0  0  0  0  0  0  0  0  0  0  0  0
   41.2926   34.2037   38.1358 H   0  0  0  0  0  0  0  0  0  0  0  0
   40.5459   35.5340   37.1400 H   0  0  0  0  0  0  0  0  0  0  0  0
   40.9578   36.1606   39.4929 H   0  0  0  0  0  0  0  0  0  0  0  0
   39.2342   36.2590   38.9874 H   0  0  0  0  0  0  0  0  0  0  0  0
  1 15  1  0
  1  4  1  0
  2  8  1  0
  3  2  1  0
  4  3  1  0
  5  4  1  0
  5  6  1  0
  6  2  1  0
  7 12  2  0
  8  7  1  0
  9  8  2  0
  9 10  1  0
 10 11  2  0
 11 12  1  0
 13  1  1  0
 14  1  1  0
 15 16  1  0
 16 17  1  0
 18 16  1  0
 18 17  1  0
 19 18  1  0
 20 19  1  0
 21 20  1  0
 22 23  1  0
 22 21  1  0
 23 24  1  0
 24 19  1  0
  2 25  1  1
  3 26  1  0
  3 27  1  0
  4 28  1  1
  5 29  1  0
  5 30  1  0
  6 31  1  0
  6 32  1  0
  7 33  1  0
  9 34  1  0
 11 35  1  0
 13 36  1  0
 13 37  1  0
 13 38  1  0
 14 39  1  0
 14 40  1  0
 14 41  1  0
 15 42  1  0
 15 43  1  0
 16 44  1  1
 17 45  1  0
 17 46  1  0
 18 47  1  6
 19 48  1  0
 20 49  1  0
 20 50  1  0
 21 51  1  0
 21 52  1  0
 22 53  1  0
 22 54  1  0
 23 55  1  0
 23 56  1  0
 24 57  1  0
 24 58  1  0
M  ISO  8  25  13  26  13  27  13  28  13  29  13  30  13  31  13  32  13
M  ISO  8  33  14  34  14  35  14  36   8  37   8  38   8  39   8  40   8
M  ISO  8  41   8  42   8  43   8  44  13  45  13  46  13  47  13  48  13
M  ISO  8  49  13  50  13  51  13  52  13  53  13  54  13  55  13  56  13
M  ISO  2  57  13  58  13
M  END
>  <minimizedAffinity>  (1) 
-5.94771242

>  <minimizedRMSD>  (1) 
2.78442478

$$$$
