
     RDKit          3D

 45 47  0  0  1  0  0  0  0  0999 V2000
   41.6080   34.8980   38.9490 C   0  0  0  0  0  0  0  0  0  0  0  0
   44.3120   34.7740   41.4520 C   0  0  2  0  0  0  0  0  0  0  0  0
   42.7660   34.7280   41.1440 C   0  0  0  0  0  0  0  0  0  0  0  0
   42.9090   34.9620   39.6360 C   0  0  1  0  0  0  0  0  0  0  0  0
   43.9000   33.8810   39.3180 C   0  0  0  0  0  0  0  0  0  0  0  0
   44.8360   33.8140   40.5330 C   0  0  0  0  0  0  0  0  0  0  0  0
   44.2920   35.7780   43.6710 C   0  0  0  0  0  0  0  0  0  0  0  0
   44.5800   34.6820   42.8750 C   0  0  0  0  0  0  0  0  0  0  0  0
   45.1530   33.4840   43.4450 C   0  0  0  0  0  0  0  0  0  0  0  0
   45.3970   33.4740   44.7840 N   0  0  0  0  0  0  0  0  0  0  0  0
   45.1010   34.5770   45.5540 C   0  0  0  0  0  0  0  0  0  0  0  0
   44.5580   35.7160   45.0210 N   0  0  0  0  0  0  0  0  0  0  0  0
   41.5060   35.9420   37.8780 C   0  0  0  0  0  0  0  0  0  0  0  0
   41.5940   33.5540   38.2230 C   0  0  0  0  0  0  0  0  0  0  0  0
   40.4750   34.8930   39.8890 C   0  0  0  0  0  0  0  0  0  0  0  0
   39.4930   33.7990   39.4980 C   0  0  2  0  0  0  0  0  0  0  0  0
   38.0350   33.9810   39.6080 C   0  0  0  0  0  0  0  0  0  0  0  0
   38.6750   33.1880   40.6720 C   0  0  1  0  0  0  0  0  0  0  0  0
   38.4750   31.6910   40.6270 C   0  0  0  0  0  0  0  0  0  0  0  0
   37.4830   31.2780   41.4860 F   0  0  0  0  0  0  0  0  0  0  0  0
   39.6480   31.0640   41.0250 F   0  0  0  0  0  0  0  0  0  0  0  0
   38.2620   31.3430   39.3160 F   0  0  0  0  0  0  0  0  0  0  0  0
   44.8431   35.7211   41.2759 H   0  0  0  0  0  0  0  0  0  0  0  0
   42.3116   33.7554   41.3839 H   0  0  0  0  0  0  0  0  0  0  0  0
   42.1174   35.4176   41.7041 H   0  0  0  0  0  0  0  0  0  0  0  0
   43.2513   35.9538   39.3055 H   0  0  0  0  0  0  0  0  0  0  0  0
   43.3867   32.9188   39.1744 H   0  0  0  0  0  0  0  0  0  0  0  0
   44.4505   34.0917   38.3893 H   0  0  0  0  0  0  0  0  0  0  0  0
   44.8242   32.8072   40.9759 H   0  0  0  0  0  0  0  0  0  0  0  0
   45.8813   34.0254   40.2635 H   0  0  0  0  0  0  0  0  0  0  0  0
   43.8562   36.6869   43.2306 H   0  0  0  0  0  0  0  0  0  0  0  0
   45.3840   32.6101   42.8182 H   0  0  0  0  0  0  0  0  0  0  0  0
   45.3077   34.5420   46.6338 H   0  0  0  0  0  0  0  0  0  0  0  0
   41.4090   36.9347   38.3417 H   0  0  0  0  0  0  0  0  0  0  0  0
   42.4110   35.9160   37.2532 H   0  0  0  0  0  0  0  0  0  0  0  0
   40.6232   35.7413   37.2532 H   0  0  0  0  0  0  0  0  0  0  0  0
   41.5855   32.7386   38.9612 H   0  0  0  0  0  0  0  0  0  0  0  0
   40.6951   33.4872   37.5925 H   0  0  0  0  0  0  0  0  0  0  0  0
   42.4913   33.4685   37.5925 H   0  0  0  0  0  0  0  0  0  0  0  0
   40.8452   34.7057   40.9077 H   0  0  0  0  0  0  0  0  0  0  0  0
   39.9678   35.8685   39.8553 H   0  0  0  0  0  0  0  0  0  0  0  0
   40.1472   33.4605   38.6810 H   0  0  0  0  0  0  0  0  0  0  0  0
   37.6322   34.9766   39.8456 H   0  0  0  0  0  0  0  0  0  0  0  0
   37.1961   33.7880   38.9231 H   0  0  0  0  0  0  0  0  0  0  0  0
   38.7049   33.2316   41.7707 H   0  0  0  0  0  0  0  0  0  0  0  0
  1  4  1  0
  1 15  1  0
  2  8  1  0
  3  2  1  0
  4  3  1  0
  5  4  1  0
  5  6  1  0
  6  2  1  0
  7 12  2  0
  8  9  2  0
  8  7  1  0
  9 10  1  0
 10 11  2  0
 12 11  1  0
 13  1  1  0
 14  1  1  0
 16 17  1  0
 16 15  1  0
 16 18  1  0
 17 18  1  0
 19 18  1  0
 19 21  1  0
 19 20  1  0
 22 19  1  0
  2 23  1  6
  3 24  1  0
  3 25  1  0
  4 26  1  1
  5 27  1  0
  5 28  1  0
  6 29  1  0
  6 30  1  0
  7 31  1  0
  9 32  1  0
 11 33  1  0
 13 34  1  0
 13 35  1  0
 13 36  1  0
 14 37  1  0
 14 38  1  0
 14 39  1  0
 15 40  1  0
 15 41  1  0
 16 42  1  6
 17 43  1  0
 17 44  1  0
 18 45  1  1
M  ISO  8  23  13  24  13  25  13  26  13  27  13  28  13  29  13  30  13
M  ISO  8  31  14  32  14  33  14  34   8  35   8  36   8  37   8  38   8
M  ISO  7  39   8  40   8  41   8  42  13  43  13  44  13  45  13
M  END
>  <minimizedAffinity>  (1) 
-5.91928482

>  <minimizedRMSD>  (1) 
1.74102843

$$$$
