
     RDKit          3D

 49 52  0  0  1  0  0  0  0  0999 V2000
   42.7300   34.2460   39.0950 C   0  0  0  0  0  0  0  0  0  0  0  0
   44.9790   34.4800   42.0190 C   0  0  2  0  0  0  0  0  0  0  0  0
   43.5230   34.2070   41.4700 C   0  0  0  0  0  0  0  0  0  0  0  0
   43.8740   34.4840   40.0070 C   0  0  1  0  0  0  0  0  0  0  0  0
   45.0590   33.5950   39.8390 C   0  0  0  0  0  0  0  0  0  0  0  0
   45.7650   33.6110   41.2020 C   0  0  0  0  0  0  0  0  0  0  0  0
   44.5220   35.4530   44.2040 C   0  0  0  0  0  0  0  0  0  0  0  0
   45.0260   34.3950   43.4660 C   0  0  0  0  0  0  0  0  0  0  0  0
   45.6020   33.2490   44.1350 C   0  0  0  0  0  0  0  0  0  0  0  0
   45.6310   33.2450   45.4950 N   0  0  0  0  0  0  0  0  0  0  0  0
   45.1190   34.3190   46.2040 C   0  0  0  0  0  0  0  0  0  0  0  0
   44.5720   35.4090   45.5740 N   0  0  0  0  0  0  0  0  0  0  0  0
   42.6020   35.3310   38.0810 C   0  0  0  0  0  0  0  0  0  0  0  0
   43.0470   32.9700   38.3480 C   0  0  0  0  0  0  0  0  0  0  0  0
   41.4780   34.0020   39.8520 C   0  0  0  0  0  0  0  0  0  0  0  0
   40.4830   35.0890   39.5440 C   0  0  2  0  0  0  0  0  0  0  0  0
   39.5710   35.6310   40.5900 C   0  0  0  0  0  0  0  0  0  0  0  0
   38.9700   34.6980   39.6530 C   0  0  2  0  0  0  0  0  0  0  0  0
   38.7060   33.2910   39.9220 C   0  0  0  0  0  0  0  0  0  0  0  0
   38.5420   32.2090   39.0490 C   0  0  0  0  0  0  0  0  0  0  0  0
   38.3050   31.0410   39.7590 C   0  0  0  0  0  0  0  0  0  0  0  0
   38.3370   31.4810   41.0530 C   0  0  0  0  0  0  0  0  0  0  0  0
   38.5640   32.7460   41.1110 O   0  0  0  0  0  0  0  0  0  0  0  0
   45.3892   35.4962   41.9242 H   0  0  0  0  0  0  0  0  0  0  0  0
   43.1870   33.1738   41.6418 H   0  0  0  0  0  0  0  0  0  0  0  0
   42.6952   34.7801   41.9131 H   0  0  0  0  0  0  0  0  0  0  0  0
   44.1040   35.5291   39.7525 H   0  0  0  0  0  0  0  0  0  0  0  0
   44.7425   32.5739   39.5796 H   0  0  0  0  0  0  0  0  0  0  0  0
   45.7193   33.9360   39.0280 H   0  0  0  0  0  0  0  0  0  0  0  0
   45.7957   32.5993   41.6327 H   0  0  0  0  0  0  0  0  0  0  0  0
   46.8075   33.9525   41.1217 H   0  0  0  0  0  0  0  0  0  0  0  0
   44.0840   36.3238   43.6943 H   0  0  0  0  0  0  0  0  0  0  0  0
   46.0058   32.4032   43.5592 H   0  0  0  0  0  0  0  0  0  0  0  0
   45.1516   34.2979   47.3033 H   0  0  0  0  0  0  0  0  0  0  0  0
   42.4879   36.2985   38.5917 H   0  0  0  0  0  0  0  0  0  0  0  0
   43.5038   35.3528   37.4515 H   0  0  0  0  0  0  0  0  0  0  0  0
   41.7199   35.1424   37.4515 H   0  0  0  0  0  0  0  0  0  0  0  0
   43.2474   32.1634   39.0686 H   0  0  0  0  0  0  0  0  0  0  0  0
   42.1905   32.6927   37.7160 H   0  0  0  0  0  0  0  0  0  0  0  0
   43.9338   33.1257   37.7160 H   0  0  0  0  0  0  0  0  0  0  0  0
   41.0580   33.0278   39.5611 H   0  0  0  0  0  0  0  0  0  0  0  0
   41.6967   34.0010   40.9300 H   0  0  0  0  0  0  0  0  0  0  0  0
   41.1688   35.5436   38.8139 H   0  0  0  0  0  0  0  0  0  0  0  0
   39.7122   35.3254   41.6372 H   0  0  0  0  0  0  0  0  0  0  0  0
   39.3111   36.6526   40.9044 H   0  0  0  0  0  0  0  0  0  0  0  0
   38.0424   34.7553   39.0646 H   0  0  0  0  0  0  0  0  0  0  0  0
   38.5939   32.2757   37.9522 H   0  0  0  0  0  0  0  0  0  0  0  0
   38.1351   30.0229   39.3787 H   0  0  0  0  0  0  0  0  0  0  0  0
   38.1878   30.8363   41.9317 H   0  0  0  0  0  0  0  0  0  0  0  0
  1 15  1  0
  1  4  1  0
  2  8  1  0
  3  2  1  0
  4  3  1  0
  5  4  1  0
  5  6  1  0
  6  2  1  0
  7 12  2  0
  8  9  2  0
  8  7  1  0
  9 10  1  0
 10 11  2  0
 12 11  1  0
 13  1  1  0
 14  1  1  0
 16 18  1  0
 16 15  1  0
 16 17  1  0
 18 19  1  0
 18 17  1  0
 19 23  1  0
 20 21  1  0
 20 19  2  0
 21 22  2  0
 22 23  1  0
  2 24  1  1
  3 25  1  0
  3 26  1  0
  4 27  1  1
  5 28  1  0
  5 29  1  0
  6 30  1  0
  6 31  1  0
  7 32  1  0
  9 33  1  0
 11 34  1  0
 13 35  1  0
 13 36  1  0
 13 37  1  0
 14 38  1  0
 14 39  1  0
 14 40  1  0
 15 41  1  0
 15 42  1  0
 16 43  1  6
 17 44  1  0
 17 45  1  0
 18 46  1  6
 20 47  1  0
 21 48  1  0
 22 49  1  0
M  ISO  8  24  13  25  13  26  13  27  13  28  13  29  13  30  13  31  13
M  ISO  8  32  14  33  14  34  14  35   8  36   8  37   8  38   8  39   8
M  ISO  8  40   8  41   8  42   8  43  13  44  13  45  13  46  13  47  14
M  ISO  2  48  14  49  14
M  END
>  <minimizedAffinity>  (1) 
-5.61031961

>  <minimizedRMSD>  (1) 
0.864087224

$$$$
