
     RDKit          3D

 50 53  0  0  1  0  0  0  0  0999 V2000
   41.6980   34.7420   38.9730 C   0  0  0  0  0  0  0  0  0  0  0  0
   44.3850   34.7020   41.5110 C   0  0  2  0  0  0  0  0  0  0  0  0
   42.8430   34.6050   41.1910 C   0  0  0  0  0  0  0  0  0  0  0  0
   42.9850   34.8590   39.6900 C   0  0  1  0  0  0  0  0  0  0  0  0
   44.0340   33.8420   39.3570 C   0  0  0  0  0  0  0  0  0  0  0  0
   44.9390   33.7610   40.5910 C   0  0  0  0  0  0  0  0  0  0  0  0
   44.3410   35.7130   43.7260 C   0  0  0  0  0  0  0  0  0  0  0  0
   44.6460   34.6130   42.9410 C   0  0  0  0  0  0  0  0  0  0  0  0
   45.2280   33.4220   43.5100 C   0  0  0  0  0  0  0  0  0  0  0  0
   45.4670   33.4180   44.8530 N   0  0  0  0  0  0  0  0  0  0  0  0
   45.1540   34.5290   45.6190 C   0  0  0  0  0  0  0  0  0  0  0  0
   44.6010   35.6600   45.0720 N   0  0  0  0  0  0  0  0  0  0  0  0
   41.4860   35.8920   38.0430 C   0  0  0  0  0  0  0  0  0  0  0  0
   41.8000   33.4970   38.1200 C   0  0  0  0  0  0  0  0  0  0  0  0
   40.5750   34.5370   39.9110 C   0  0  0  0  0  0  0  0  0  0  0  0
   39.3680   34.0030   39.1810 C   0  0  2  0  0  0  0  0  0  0  0  0
   38.1040   33.6650   39.8910 C   0  0  0  0  0  0  0  0  0  0  0  0
   38.9620   32.5380   39.4750 C   0  0  2  0  0  0  0  0  0  0  0  0
   39.6530   31.8080   40.5510 C   0  0  0  0  0  0  0  0  0  0  0  0
   40.4130   30.7330   40.0760 C   0  0  0  0  0  0  0  0  0  0  0  0
   41.1480   29.9050   40.9290 C   0  0  0  0  0  0  0  0  0  0  0  0
   41.1230   30.1530   42.2500 N   0  0  0  0  0  0  0  0  0  0  0  0
   40.3780   31.2060   42.6970 C   0  0  0  0  0  0  0  0  0  0  0  0
   39.6760   31.9930   41.8640 N   0  0  0  0  0  0  0  0  0  0  0  0
   44.8902   35.6649   41.3450 H   0  0  0  0  0  0  0  0  0  0  0  0
   42.4218   33.6145   41.4180 H   0  0  0  0  0  0  0  0  0  0  0  0
   42.1676   35.2662   41.7537 H   0  0  0  0  0  0  0  0  0  0  0  0
   43.2753   35.8761   39.3880 H   0  0  0  0  0  0  0  0  0  0  0  0
   43.5708   32.8647   39.1562 H   0  0  0  0  0  0  0  0  0  0  0  0
   44.5997   34.1220   38.4561 H   0  0  0  0  0  0  0  0  0  0  0  0
   44.9235   32.7470   41.0172 H   0  0  0  0  0  0  0  0  0  0  0  0
   45.9893   33.9831   40.3513 H   0  0  0  0  0  0  0  0  0  0  0  0
   43.8976   36.6142   43.2774 H   0  0  0  0  0  0  0  0  0  0  0  0
   45.4699   32.5500   42.8846 H   0  0  0  0  0  0  0  0  0  0  0  0
   45.3550   34.5040   46.7002 H   0  0  0  0  0  0  0  0  0  0  0  0
   41.3169   36.8091   38.6265 H   0  0  0  0  0  0  0  0  0  0  0  0
   42.3758   36.0196   37.4089 H   0  0  0  0  0  0  0  0  0  0  0  0
   40.6092   35.6940   37.4089 H   0  0  0  0  0  0  0  0  0  0  0  0
   41.8725   32.6123   38.7697 H   0  0  0  0  0  0  0  0  0  0  0  0
   40.9057   33.4133   37.4850 H   0  0  0  0  0  0  0  0  0  0  0  0
   42.6960   33.5600   37.4850 H   0  0  0  0  0  0  0  0  0  0  0  0
   40.8773   33.8171   40.6858 H   0  0  0  0  0  0  0  0  0  0  0  0
   40.3147   35.5018   40.3708 H   0  0  0  0  0  0  0  0  0  0  0  0
   39.6046   34.6260   38.3058 H   0  0  0  0  0  0  0  0  0  0  0  0
   38.0031   33.9030   40.9602 H   0  0  0  0  0  0  0  0  0  0  0  0
   37.0468   33.9178   39.7226 H   0  0  0  0  0  0  0  0  0  0  0  0
   38.8498   31.6322   38.8611 H   0  0  0  0  0  0  0  0  0  0  0  0
   40.4325   30.5330   38.9945 H   0  0  0  0  0  0  0  0  0  0  0  0
   41.7357   29.0665   40.5271 H   0  0  0  0  0  0  0  0  0  0  0  0
   40.3514   31.4176   43.7761 H   0  0  0  0  0  0  0  0  0  0  0  0
  1  4  1  0
  1 15  1  0
  2  8  1  0
  3  2  1  0
  4  3  1  0
  5  4  1  0
  5  6  1  0
  6  2  1  0
  7 12  2  0
  8  9  2  0
  8  7  1  0
  9 10  1  0
 10 11  2  0
 12 11  1  0
 13  1  1  0
 14  1  1  0
 16 18  1  0
 16 17  1  0
 16 15  1  0
 18 17  1  0
 18 19  1  0
 19 24  1  0
 20 19  2  0
 20 21  1  0
 21 22  2  0
 22 23  1  0
 24 23  2  0
  2 25  1  6
  3 26  1  0
  3 27  1  0
  4 28  1  1
  5 29  1  0
  5 30  1  0
  6 31  1  0
  6 32  1  0
  7 33  1  0
  9 34  1  0
 11 35  1  0
 13 36  1  0
 13 37  1  0
 13 38  1  0
 14 39  1  0
 14 40  1  0
 14 41  1  0
 15 42  1  0
 15 43  1  0
 16 44  1  6
 17 45  1  0
 17 46  1  0
 18 47  1  6
 20 48  1  0
 21 49  1  0
 23 50  1  0
M  ISO  8  25  13  26  13  27  13  28  13  29  13  30  13  31  13  32  13
M  ISO  8  33  14  34  14  35  14  36   8  37   8  38   8  39   8  40   8
M  ISO  8  41   8  42   8  43   8  44  13  45  13  46  13  47  13  48  14
M  ISO  2  49  14  50  14
M  END
>  <minimizedAffinity>  (1) 
-5.71244526

>  <minimizedRMSD>  (1) 
1.64670277

$$$$
