
     RDKit          3D

 49 52  0  0  1  0  0  0  0  0999 V2000
   44.2770   34.7860   41.3910 C   0  0  2  0  0  0  0  0  0  0  0  0
   42.7270   34.8390   41.1020 C   0  0  0  0  0  0  0  0  0  0  0  0
   42.8740   34.9820   39.5860 C   0  0  1  0  0  0  0  0  0  0  0  0
   43.7760   33.8140   39.3150 C   0  0  0  0  0  0  0  0  0  0  0  0
   44.7180   33.7450   40.5210 C   0  0  0  0  0  0  0  0  0  0  0  0
   44.2810   35.8770   43.5720 C   0  0  0  0  0  0  0  0  0  0  0  0
   44.5530   34.7410   42.8230 C   0  0  0  0  0  0  0  0  0  0  0  0
   45.1100   33.5570   43.4350 C   0  0  0  0  0  0  0  0  0  0  0  0
   45.3570   33.6030   44.7750 N   0  0  0  0  0  0  0  0  0  0  0  0
   45.0780   34.7480   45.5040 C   0  0  0  0  0  0  0  0  0  0  0  0
   44.5530   35.8600   44.9210 N   0  0  0  0  0  0  0  0  0  0  0  0
   41.5660   34.9890   38.9050 C   0  0  0  0  0  0  0  0  0  0  0  0
   41.4780   36.0950   37.9000 C   0  0  0  0  0  0  0  0  0  0  0  0
   41.5190   33.6890   38.1040 C   0  0  0  0  0  0  0  0  0  0  0  0
   40.4420   34.9500   39.8560 C   0  0  0  0  0  0  0  0  0  0  0  0
   39.3960   33.9680   39.3480 C   0  0  2  0  0  0  0  0  0  0  0  0
   38.1170   33.7700   40.0600 C   0  0  0  0  0  0  0  0  0  0  0  0
   39.1360   32.7350   40.2560 C   0  0  2  0  0  0  0  0  0  0  0  0
   39.9270   32.6000   41.5230 C   0  0  0  0  0  0  0  0  0  0  0  0
   39.8920   31.1700   42.1250 C   0  0  0  0  0  0  0  0  0  0  0  0
   41.1350   31.7720   41.5980 C   0  0  0  0  0  0  0  0  0  0  0  0
   44.8731   35.6809   41.1591 H   0  0  0  0  0  0  0  0  0  0  0  0
   42.2046   33.9169   41.3966 H   0  0  0  0  0  0  0  0  0  0  0  0
   42.1359   35.6012   41.6308 H   0  0  0  0  0  0  0  0  0  0  0  0
   43.2901   35.9268   39.2062 H   0  0  0  0  0  0  0  0  0  0  0  0
   43.1908   32.8866   39.2292 H   0  0  0  0  0  0  0  0  0  0  0  0
   44.3264   33.9305   38.3698 H   0  0  0  0  0  0  0  0  0  0  0  0
   44.6400   32.7666   41.0176 H   0  0  0  0  0  0  0  0  0  0  0  0
   45.7720   33.8665   40.2307 H   0  0  0  0  0  0  0  0  0  0  0  0
   43.8563   36.7736   43.0968 H   0  0  0  0  0  0  0  0  0  0  0  0
   45.3261   32.6549   42.8439 H   0  0  0  0  0  0  0  0  0  0  0  0
   45.2867   34.7584   46.5840 H   0  0  0  0  0  0  0  0  0  0  0  0
   41.4012   37.0599   38.4225 H   0  0  0  0  0  0  0  0  0  0  0  0
   42.3794   36.0901   37.2695 H   0  0  0  0  0  0  0  0  0  0  0  0
   40.5887   35.9476   37.2695 H   0  0  0  0  0  0  0  0  0  0  0  0
   41.4881   32.8336   38.7949 H   0  0  0  0  0  0  0  0  0  0  0  0
   40.6200   33.6811   37.4702 H   0  0  0  0  0  0  0  0  0  0  0  0
   42.4151   33.6162   37.4702 H   0  0  0  0  0  0  0  0  0  0  0  0
   40.8047   34.6249   40.8423 H   0  0  0  0  0  0  0  0  0  0  0  0
   39.9975   35.9521   39.9468 H   0  0  0  0  0  0  0  0  0  0  0  0
   39.6549   34.1796   38.3000 H   0  0  0  0  0  0  0  0  0  0  0  0
   37.8564   34.4356   40.8961 H   0  0  0  0  0  0  0  0  0  0  0  0
   37.0669   33.7439   39.7334 H   0  0  0  0  0  0  0  0  0  0  0  0
   39.1363   31.6394   40.1577 H   0  0  0  0  0  0  0  0  0  0  0  0
   39.7234   33.6380   41.8247 H   0  0  0  0  0  0  0  0  0  0  0  0
   39.7597   31.0256   43.2074 H   0  0  0  0  0  0  0  0  0  0  0  0
   39.3201   30.2486   41.9406 H   0  0  0  0  0  0  0  0  0  0  0  0
   41.5760   31.3756   40.6715 H   0  0  0  0  0  0  0  0  0  0  0  0
   42.1365   31.9329   42.0235 H   0  0  0  0  0  0  0  0  0  0  0  0
  1  7  1  0
  2  1  1  0
  3  2  1  0
  4  3  1  0
  4  5  1  0
  5  1  1  0
  6 11  2  0
  7  8  2  0
  7  6  1  0
  8  9  1  0
  9 10  2  0
 11 10  1  0
 12  3  1  0
 12 15  1  0
 13 12  1  0
 14 12  1  0
 16 15  1  0
 16 17  1  0
 16 18  1  0
 17 18  1  0
 18 19  1  0
 19 21  1  0
 19 20  1  0
 21 20  1  0
  1 22  1  6
  2 23  1  0
  2 24  1  0
  3 25  1  1
  4 26  1  0
  4 27  1  0
  5 28  1  0
  5 29  1  0
  6 30  1  0
  8 31  1  0
 10 32  1  0
 13 33  1  0
 13 34  1  0
 13 35  1  0
 14 36  1  0
 14 37  1  0
 14 38  1  0
 15 39  1  0
 15 40  1  0
 16 41  1  6
 17 42  1  0
 17 43  1  0
 18 44  1  6
 19 45  1  0
 20 46  1  0
 20 47  1  0
 21 48  1  0
 21 49  1  0
M  ISO  8  22  13  23  13  24  13  25  13  26  13  27  13  28  13  29  13
M  ISO  8  30  14  31  14  32  14  33   8  34   8  35   8  36   8  37   8
M  ISO  8  38   8  39   8  40   8  41  13  42  13  43  13  44  13  45  13
M  ISO  4  46  13  47  13  48  13  49  13
M  END
>  <minimizedAffinity>  (1) 
-5.50923014

>  <minimizedRMSD>  (1) 
1.23605049

$$$$
