
     RDKit          3D

 49 52  0  0  1  0  0  0  0  0999 V2000
   41.7460   34.7220   39.0060 C   0  0  0  0  0  0  0  0  0  0  0  0
   44.4200   34.7050   41.5510 C   0  0  2  0  0  0  0  0  0  0  0  0
   42.8810   34.5910   41.2220 C   0  0  0  0  0  0  0  0  0  0  0  0
   43.0320   34.8560   39.7180 C   0  0  1  0  0  0  0  0  0  0  0  0
   44.1060   33.8700   39.3800 C   0  0  0  0  0  0  0  0  0  0  0  0
   44.9930   33.7730   40.6330 C   0  0  0  0  0  0  0  0  0  0  0  0
   44.3570   35.7010   43.7720 C   0  0  0  0  0  0  0  0  0  0  0  0
   44.6720   34.6130   42.9780 C   0  0  0  0  0  0  0  0  0  0  0  0
   45.2590   33.4230   43.5490 C   0  0  0  0  0  0  0  0  0  0  0  0
   45.4900   33.4100   44.8910 N   0  0  0  0  0  0  0  0  0  0  0  0
   45.1640   34.5120   45.6640 C   0  0  0  0  0  0  0  0  0  0  0  0
   44.6070   35.6420   45.1190 N   0  0  0  0  0  0  0  0  0  0  0  0
   41.5550   35.8380   38.0280 C   0  0  0  0  0  0  0  0  0  0  0  0
   41.8590   33.4460   38.1800 C   0  0  0  0  0  0  0  0  0  0  0  0
   40.6140   34.5440   39.9350 C   0  0  0  0  0  0  0  0  0  0  0  0
   39.4190   33.9830   39.1830 C   0  0  2  0  0  0  0  0  0  0  0  0
   38.1440   33.6620   39.8480 C   0  0  0  0  0  0  0  0  0  0  0  0
   39.0210   32.5260   39.5240 C   0  0  2  0  0  0  0  0  0  0  0  0
   39.6990   31.8790   40.6260 N   0  0  0  0  0  0  0  0  0  0  0  0
   40.5380   30.8440   40.4330 C   0  0  0  0  0  0  0  0  0  0  0  0
   40.9930   30.4870   41.6810 C   0  0  0  0  0  0  0  0  0  0  0  0
   40.4160   31.3140   42.5940 N   0  0  0  0  0  0  0  0  0  0  0  0
   39.6120   32.1790   41.9350 C   0  0  0  0  0  0  0  0  0  0  0  0
   44.9130   35.6750   41.3892 H   0  0  0  0  0  0  0  0  0  0  0  0
   42.4703   33.5943   41.4408 H   0  0  0  0  0  0  0  0  0  0  0  0
   42.1935   35.2401   41.7841 H   0  0  0  0  0  0  0  0  0  0  0  0
   43.3109   35.8766   39.4172 H   0  0  0  0  0  0  0  0  0  0  0  0
   43.6661   32.8896   39.1449 H   0  0  0  0  0  0  0  0  0  0  0  0
   44.6830   34.1853   38.4981 H   0  0  0  0  0  0  0  0  0  0  0  0
   44.9696   32.7545   41.0478 H   0  0  0  0  0  0  0  0  0  0  0  0
   46.0483   33.9951   40.4161 H   0  0  0  0  0  0  0  0  0  0  0  0
   43.9111   36.6032   43.3280 H   0  0  0  0  0  0  0  0  0  0  0  0
   45.5111   32.5561   42.9206 H   0  0  0  0  0  0  0  0  0  0  0  0
   45.3571   34.4808   46.7465 H   0  0  0  0  0  0  0  0  0  0  0  0
   41.3938   36.7797   38.5732 H   0  0  0  0  0  0  0  0  0  0  0  0
   42.4506   35.9289   37.3959 H   0  0  0  0  0  0  0  0  0  0  0  0
   40.6801   35.6259   37.3959 H   0  0  0  0  0  0  0  0  0  0  0  0
   41.9358   32.5792   38.8529 H   0  0  0  0  0  0  0  0  0  0  0  0
   40.9668   33.3397   37.5455 H   0  0  0  0  0  0  0  0  0  0  0  0
   42.7560   33.4982   37.5455 H   0  0  0  0  0  0  0  0  0  0  0  0
   40.9033   33.8464   40.7348 H   0  0  0  0  0  0  0  0  0  0  0  0
   40.3454   35.5166   40.3731 H   0  0  0  0  0  0  0  0  0  0  0  0
   39.6741   34.5828   38.2969 H   0  0  0  0  0  0  0  0  0  0  0  0
   37.9965   33.9477   40.9000 H   0  0  0  0  0  0  0  0  0  0  0  0
   37.0929   33.8952   39.6225 H   0  0  0  0  0  0  0  0  0  0  0  0
   38.9249   31.5871   38.9590 H   0  0  0  0  0  0  0  0  0  0  0  0
   40.8052   30.3786   39.4728 H   0  0  0  0  0  0  0  0  0  0  0  0
   41.7004   29.6742   41.9023 H   0  0  0  0  0  0  0  0  0  0  0  0
   39.0023   32.9769   42.3840 H   0  0  0  0  0  0  0  0  0  0  0  0
  1  4  1  0
  1 15  1  0
  2  8  1  0
  3  2  1  0
  4  3  1  0
  5  4  1  0
  5  6  1  0
  6  2  1  0
  7 12  2  0
  8  9  2  0
  8  7  1  0
  9 10  1  0
 10 11  2  0
 12 11  1  0
 13  1  1  0
 14  1  1  0
 16 18  1  0
 16 17  1  0
 16 15  1  0
 18 17  1  0
 18 19  1  0
 19 23  1  0
 20 19  1  0
 20 21  2  0
 21 22  1  0
 23 22  2  0
  2 24  1  6
  3 25  1  0
  3 26  1  0
  4 27  1  1
  5 28  1  0
  5 29  1  0
  6 30  1  0
  6 31  1  0
  7 32  1  0
  9 33  1  0
 11 34  1  0
 13 35  1  0
 13 36  1  0
 13 37  1  0
 14 38  1  0
 14 39  1  0
 14 40  1  0
 15 41  1  0
 15 42  1  0
 16 43  1  6
 17 44  1  0
 17 45  1  0
 18 46  1  6
 20 47  1  0
 21 48  1  0
 23 49  1  0
M  ISO  8  24  13  25  13  26  13  27  13  28  13  29  13  30  13  31  13
M  ISO  8  32  14  33  14  34  14  35   8  36   8  37   8  38   8  39   8
M  ISO  8  40   8  41   8  42   8  43  13  44  13  45  13  46  13  47  14
M  ISO  2  48  14  49  14
M  END
>  <minimizedAffinity>  (1) 
-5.56741524

>  <minimizedRMSD>  (1) 
1.32821834

$$$$
