
     RDKit          3D

 11 11  0  0  0  0  0  0  0  0999 V2000
   44.5040   35.9590   44.5470 C   0  0  0  0  0  0  0  0  0  0  0  0
   45.1260   35.9980   43.2890 C   0  0  0  0  0  0  0  0  0  0  0  0
   46.0830   34.9960   43.0060 C   0  0  0  0  0  0  0  0  0  0  0  0
   46.3460   34.0540   43.9710 N   0  0  0  0  0  0  0  0  0  0  0  0
   45.7130   34.0730   45.1570 C   0  0  0  0  0  0  0  0  0  0  0  0
   44.8010   35.0090   45.4540 N   0  0  0  0  0  0  0  0  0  0  0  0
   46.0980   32.8130   46.3800 S   0  0  0  0  0  0  0  0  0  0  0  0
   43.7547   36.7242   44.7982 H   0  0  0  0  0  0  0  0  0  0  0  0
   44.8788   36.7770   42.5527 H   0  0  0  0  0  0  0  0  0  0  0  0
   46.6038   34.9714   42.0374 H   0  0  0  0  0  0  0  0  0  0  0  0
   45.9390   33.3333   47.6373 H   0  0  0  0  0  0  0  0  0  0  0  0
  1  6  2  0
  2  1  1  0
  3  2  2  0
  3  4  1  0
  4  5  2  0
  5  6  1  0
  5  7  1  0
  1  8  1  0
  2  9  1  0
  3 10  1  0
  7 11  1  0
M  ISO  4   8  14   9  14  10  14  11  11
M  END
>  <minimizedAffinity>  (1) 
-2.9787581

>  <minimizedRMSD>  (1) 
0.537846088

$$$$
