
     RDKit          3D

 43 45  0  0  1  0  0  0  0  0999 V2000
   44.8940   34.6480   42.1200 C   0  0  2  0  0  0  0  0  0  0  0  0
   43.5270   34.1100   41.5450 C   0  0  0  0  0  0  0  0  0  0  0  0
   43.7920   34.5580   40.1010 C   0  0  1  0  0  0  0  0  0  0  0  0
   45.1410   33.9350   39.8950 C   0  0  0  0  0  0  0  0  0  0  0  0
   45.8510   34.0380   41.2520 C   0  0  0  0  0  0  0  0  0  0  0  0
   44.4700   35.5100   44.3550 C   0  0  0  0  0  0  0  0  0  0  0  0
   44.9710   34.4910   43.5620 C   0  0  0  0  0  0  0  0  0  0  0  0
   45.5740   33.3160   44.1460 C   0  0  0  0  0  0  0  0  0  0  0  0
   45.6330   33.2460   45.5070 N   0  0  0  0  0  0  0  0  0  0  0  0
   45.1270   34.2780   46.2780 C   0  0  0  0  0  0  0  0  0  0  0  0
   44.5540   35.3920   45.7230 N   0  0  0  0  0  0  0  0  0  0  0  0
   42.7160   34.1220   39.1880 C   0  0  0  0  0  0  0  0  0  0  0  0
   42.2640   35.2480   38.3160 C   0  0  0  0  0  0  0  0  0  0  0  0
   43.3540   33.0940   38.2550 C   0  0  0  0  0  0  0  0  0  0  0  0
   41.6230   33.4400   39.9020 C   0  0  0  0  0  0  0  0  0  0  0  0
   40.3310   34.2190   39.7040 C   0  0  2  0  0  0  0  0  0  0  0  0
   39.7800   35.0890   40.7650 C   0  0  0  0  0  0  0  0  0  0  0  0
   39.1470   33.7640   40.6230 C   0  0  1  0  0  0  0  0  0  0  0  0
   37.8960   33.7010   40.0360 O   0  0  0  0  0  0  0  0  0  0  0  0
   45.0720   35.7332   42.0943 H   0  0  0  0  0  0  0  0  0  0  0  0
   43.4222   33.0193   41.6418 H   0  0  0  0  0  0  0  0  0  0  0  0
   42.6013   34.4618   42.0239 H   0  0  0  0  0  0  0  0  0  0  0  0
   43.7941   35.6397   39.9011 H   0  0  0  0  0  0  0  0  0  0  0  0
   45.0365   32.8820   39.5946 H   0  0  0  0  0  0  0  0  0  0  0  0
   45.7069   34.4404   39.0986 H   0  0  0  0  0  0  0  0  0  0  0  0
   46.1277   33.0394   41.6212 H   0  0  0  0  0  0  0  0  0  0  0  0
   46.7835   34.6181   41.1894 H   0  0  0  0  0  0  0  0  0  0  0  0
   44.0121   36.3997   43.8981 H   0  0  0  0  0  0  0  0  0  0  0  0
   45.9714   32.5066   43.5160 H   0  0  0  0  0  0  0  0  0  0  0  0
   45.1869   34.2013   47.3737 H   0  0  0  0  0  0  0  0  0  0  0  0
   41.9276   36.0860   38.9442 H   0  0  0  0  0  0  0  0  0  0  0  0
   43.0993   35.5781   37.6809 H   0  0  0  0  0  0  0  0  0  0  0  0
   41.4323   34.9089   37.6809 H   0  0  0  0  0  0  0  0  0  0  0  0
   43.8411   32.3092   38.8524 H   0  0  0  0  0  0  0  0  0  0  0  0
   42.5770   32.6427   37.6205 H   0  0  0  0  0  0  0  0  0  0  0  0
   44.1033   33.5900   37.6205 H   0  0  0  0  0  0  0  0  0  0  0  0
   41.5029   32.4216   39.5038 H   0  0  0  0  0  0  0  0  0  0  0  0
   41.8604   33.3860   40.9747 H   0  0  0  0  0  0  0  0  0  0  0  0
   40.5391   34.3784   38.6357 H   0  0  0  0  0  0  0  0  0  0  0  0
   40.3883   35.3024   41.6563 H   0  0  0  0  0  0  0  0  0  0  0  0
   39.3855   36.1158   40.7678 H   0  0  0  0  0  0  0  0  0  0  0  0
   38.9399   32.9205   41.2980 H   0  0  0  0  0  0  0  0  0  0  0  0
   37.2020   33.6660   40.7411 H   0  0  0  0  0  0  0  0  0  0  0  0
  1  7  1  0
  2  1  1  0
  3  2  1  0
  4  3  1  0
  4  5  1  0
  5  1  1  0
  6 11  2  0
  7  8  2  0
  7  6  1  0
  8  9  1  0
  9 10  2  0
 11 10  1  0
 12 15  1  0
 12  3  1  0
 13 12  1  0
 14 12  1  0
 16 15  1  0
 16 18  1  0
 16 17  1  0
 18 17  1  0
 19 18  1  0
  1 20  1  1
  2 21  1  0
  2 22  1  0
  3 23  1  1
  4 24  1  0
  4 25  1  0
  5 26  1  0
  5 27  1  0
  6 28  1  0
  8 29  1  0
 10 30  1  0
 13 31  1  0
 13 32  1  0
 13 33  1  0
 14 34  1  0
 14 35  1  0
 14 36  1  0
 15 37  1  0
 15 38  1  0
 16 39  1  6
 17 40  1  0
 17 41  1  0
 18 42  1  1
 19 43  1  0
M  ISO  8  20  13  21  13  22  13  23  13  24  13  25  13  26  13  27  13
M  ISO  8  28  14  29  14  30  14  31   8  32   8  33   8  34   8  35   8
M  ISO  8  36   8  37   8  38   8  39  13  40  13  41  13  42  13  43   3
M  END
>  <minimizedAffinity>  (1) 
-4.94687986

>  <minimizedRMSD>  (1) 
0.385894299

$$$$
