
     RDKit          3D

 25 27  0  0  0  0  0  0  0  0999 V2000
   47.6870   31.9620   43.7260 S   0  0  0  0  0  0  0  0  0  0  0  0
   46.7130   32.5520   45.1030 C   0  0  0  0  0  0  0  0  0  0  0  0
   45.8870   33.6570   45.1300 C   0  0  0  0  0  0  0  0  0  0  0  0
   45.3250   33.7780   46.3350 N   0  0  0  0  0  0  0  0  0  0  0  0
   45.7450   32.7760   47.1510 C   0  0  0  0  0  0  0  0  0  0  0  0
   45.5100   32.4000   48.4600 C   0  0  0  0  0  0  0  0  0  0  0  0
   46.1560   31.2640   48.9510 C   0  0  0  0  0  0  0  0  0  0  0  0
   47.0180   30.4880   48.2150 C   0  0  0  0  0  0  0  0  0  0  0  0
   47.2500   30.8750   46.8940 C   0  0  0  0  0  0  0  0  0  0  0  0
   46.6180   31.9990   46.3840 C   0  0  0  0  0  0  0  0  0  0  0  0
   49.5830   35.1540   42.3310 C   0  0  0  0  0  0  0  0  0  0  0  0
   48.8300   35.5510   41.2030 C   0  0  0  0  0  0  0  0  0  0  0  0
   47.6970   34.7840   40.8880 C   0  0  0  0  0  0  0  0  0  0  0  0
   47.3820   33.7120   41.6700 N   0  0  0  0  0  0  0  0  0  0  0  0
   48.1420   33.3820   42.7360 C   0  0  0  0  0  0  0  0  0  0  0  0
   49.2220   34.0920   43.0580 N   0  0  0  0  0  0  0  0  0  0  0  0
   45.7166   34.3381   44.2832 H   0  0  0  0  0  0  0  0  0  0  0  0
   44.6680   34.5232   46.6068 H   0  0  0  0  0  0  0  0  0  0  0  0
   44.8302   32.9819   49.0997 H   0  0  0  0  0  0  0  0  0  0  0  0
   45.9624   30.9717   49.9936 H   0  0  0  0  0  0  0  0  0  0  0  0
   47.5039   29.6009   48.6474 H   0  0  0  0  0  0  0  0  0  0  0  0
   47.9321   30.2901   46.2595 H   0  0  0  0  0  0  0  0  0  0  0  0
   50.4783   35.7267   42.6146 H   0  0  0  0  0  0  0  0  0  0  0  0
   49.1190   36.4231   40.5980 H   0  0  0  0  0  0  0  0  0  0  0  0
   47.0714   35.0444   40.0215 H   0  0  0  0  0  0  0  0  0  0  0  0
  1  2  1  0
  2  3  2  0
  2 10  1  0
  3  4  1  0
  4  5  1  0
  5  6  2  0
  6  7  1  0
  8  7  2  0
  9  8  1  0
 10  9  2  0
 10  5  1  0
 11 16  2  0
 12 11  1  0
 13 12  2  0
 13 14  1  0
 14 15  2  0
 15 16  1  0
 15  1  1  0
  3 17  1  0
  4 18  1  0
  6 19  1  0
  7 20  1  0
  8 21  1  0
  9 22  1  0
 11 23  1  0
 12 24  1  0
 13 25  1  0
M  ISO  8  17  14  18   9  19  14  20  14  21  14  22  14  23  14  24  14
M  ISO  1  25  14
M  END
>  <minimizedAffinity>  (1) 
-5.14452744

>  <minimizedRMSD>  (1) 
3.67071652

$$$$
