
     RDKit          3D

 20 20  0  0  0  0  0  0  0  0999 V2000
   44.5610   35.8010   44.8280 C   0  0  0  0  0  0  0  0  0  0  0  0
   45.0160   36.1250   43.5500 C   0  0  0  0  0  0  0  0  0  0  0  0
   45.9360   35.2370   42.9250 C   0  0  0  0  0  0  0  0  0  0  0  0
   46.3020   34.1280   43.6310 N   0  0  0  0  0  0  0  0  0  0  0  0
   45.8320   33.8690   44.8570 C   0  0  0  0  0  0  0  0  0  0  0  0
   44.9590   34.6940   45.4730 N   0  0  0  0  0  0  0  0  0  0  0  0
   46.3730   32.3860   45.7060 S   0  0  0  0  0  0  0  0  0  0  0  0
   46.3170   32.6670   47.4880 C   0  0  0  0  0  0  0  0  0  0  0  0
   45.1590   31.9460   48.1260 C   0  0  0  0  0  0  0  0  0  0  0  0
   47.5690   32.1130   48.1720 C   0  0  0  0  0  0  0  0  0  0  0  0
   43.8502   36.4775   45.3250 H   0  0  0  0  0  0  0  0  0  0  0  0
   44.6744   37.0384   43.0410 H   0  0  0  0  0  0  0  0  0  0  0  0
   46.3338   35.4355   41.9189 H   0  0  0  0  0  0  0  0  0  0  0  0
   46.2294   33.7561   47.6156 H   0  0  0  0  0  0  0  0  0  0  0  0
   45.2500   32.0027   49.2208 H   0  0  0  0  0  0  0  0  0  0  0  0
   44.2158   32.4168   47.8116 H   0  0  0  0  0  0  0  0  0  0  0  0
   45.1653   30.8919   47.8116 H   0  0  0  0  0  0  0  0  0  0  0  0
   47.4451   32.1678   49.2636 H   0  0  0  0  0  0  0  0  0  0  0  0
   47.7175   31.0652   47.8720 H   0  0  0  0  0  0  0  0  0  0  0  0
   48.4443   32.7078   47.8720 H   0  0  0  0  0  0  0  0  0  0  0  0
  1  6  2  0
  2  1  1  0
  3  2  2  0
  3  4  1  0
  4  5  2  0
  5  6  1  0
  5  7  1  0
  7  8  1  0
  8  9  1  0
  8 10  1  0
  1 11  1  0
  2 12  1  0
  3 13  1  0
  8 14  1  0
  9 15  1  0
  9 16  1  0
  9 17  1  0
 10 18  1  0
 10 19  1  0
 10 20  1  0
M  ISO  8  11  14  12  14  13  14  14   8  15   8  16   8  17   8  18   8
M  ISO  2  19   8  20   8
M  END
>  <minimizedAffinity>  (1) 
-3.6067369

>  <minimizedRMSD>  (1) 
1.15502429

$$$$
