
     RDKit          3D

 21 22  0  0  0  0  0  0  0  0999 V2000
   46.7990   32.1930   44.5630 S   0  0  0  0  0  0  0  0  0  0  0  0
   44.6000   35.4010   45.3670 C   0  0  0  0  0  0  0  0  0  0  0  0
   44.7140   36.1840   44.2180 C   0  0  0  0  0  0  0  0  0  0  0  0
   45.4960   35.7130   43.1500 C   0  0  0  0  0  0  0  0  0  0  0  0
   46.1050   34.4980   43.3090 N   0  0  0  0  0  0  0  0  0  0  0  0
   45.9730   33.7740   44.4260 C   0  0  0  0  0  0  0  0  0  0  0  0
   45.2330   34.2080   45.4490 N   0  0  0  0  0  0  0  0  0  0  0  0
   47.1440   31.7420   46.2480 C   0  0  0  0  0  0  0  0  0  0  0  0
   47.1240   32.5480   47.3690 C   0  0  0  0  0  0  0  0  0  0  0  0
   47.4210   32.0210   48.6070 C   0  0  0  0  0  0  0  0  0  0  0  0
   47.7460   30.6930   48.7740 C   0  0  0  0  0  0  0  0  0  0  0  0
   47.7670   29.8810   47.6500 C   0  0  0  0  0  0  0  0  0  0  0  0
   47.4690   30.3920   46.3830 C   0  0  0  0  0  0  0  0  0  0  0  0
   43.9915   35.7559   46.2119 H   0  0  0  0  0  0  0  0  0  0  0  0
   44.2001   37.1542   44.1493 H   0  0  0  0  0  0  0  0  0  0  0  0
   45.6137   36.2964   42.2249 H   0  0  0  0  0  0  0  0  0  0  0  0
   46.8702   33.6140   47.2734 H   0  0  0  0  0  0  0  0  0  0  0  0
   47.3979   32.6800   49.4875 H   0  0  0  0  0  0  0  0  0  0  0  0
   47.9819   30.2885   49.7694 H   0  0  0  0  0  0  0  0  0  0  0  0
   48.0225   28.8165   47.7570 H   0  0  0  0  0  0  0  0  0  0  0  0
   47.4906   29.7355   45.5007 H   0  0  0  0  0  0  0  0  0  0  0  0
  1  8  1  0
  2  7  2  0
  3  2  1  0
  4  5  1  0
  4  3  2  0
  5  6  2  0
  6  1  1  0
  6  7  1  0
  8 13  1  0
  8  9  2  0
  9 10  1  0
 10 11  2  0
 12 11  1  0
 13 12  2  0
  2 14  1  0
  3 15  1  0
  4 16  1  0
  9 17  1  0
 10 18  1  0
 11 19  1  0
 12 20  1  0
 13 21  1  0
M  ISO  8  14  14  15  14  16  14  17  14  18  14  19  14  20  14  21  14
M  END
>  <minimizedAffinity>  (1) 
-4.11135626

>  <minimizedRMSD>  (1) 
2.30851936

$$$$
