
     RDKit          3D

 14 14  0  0  0  0  0  0  0  0999 V2000
   44.5900   35.4000   45.4120 C   0  0  0  0  0  0  0  0  0  0  0  0
   44.6960   36.0840   44.1920 C   0  0  0  0  0  0  0  0  0  0  0  0
   45.5230   35.5350   43.1930 C   0  0  0  0  0  0  0  0  0  0  0  0
   46.1700   34.3650   43.4830 N   0  0  0  0  0  0  0  0  0  0  0  0
   46.0300   33.7520   44.6710 C   0  0  0  0  0  0  0  0  0  0  0  0
   45.2540   34.2560   45.6280 N   0  0  0  0  0  0  0  0  0  0  0  0
   46.9120   32.2180   44.9700 S   0  0  0  0  0  0  0  0  0  0  0  0
   46.8370   31.8820   46.7510 C   0  0  0  0  0  0  0  0  0  0  0  0
   47.6350   30.7910   47.0150 F   0  0  0  0  0  0  0  0  0  0  0  0
   47.3510   32.9600   47.4160 F   0  0  0  0  0  0  0  0  0  0  0  0
   45.5350   31.6800   47.1690 F   0  0  0  0  0  0  0  0  0  0  0  0
   43.9496   35.8104   46.2067 H   0  0  0  0  0  0  0  0  0  0  0  0
   44.1487   37.0226   44.0204 H   0  0  0  0  0  0  0  0  0  0  0  0
   45.6441   36.0279   42.2171 H   0  0  0  0  0  0  0  0  0  0  0  0
  1  6  2  0
  2  1  1  0
  3  4  1  0
  3  2  2  0
  4  5  2  0
  5  7  1  0
  5  6  1  0
  7  8  1  0
  8  9  1  0
  8 11  1  0
  8 10  1  0
  1 12  1  0
  2 13  1  0
  3 14  1  0
M  ISO  3  12  14  13  14  14  14
M  END
>  <minimizedAffinity>  (1) 
-3.58535886

>  <minimizedRMSD>  (1) 
1.56714654

$$$$
