
     RDKit          3D

 18 19  0  0  0  0  0  0  0  0999 V2000
   44.9150   35.2390   44.6400 C   0  0  0  0  0  0  0  0  0  0  0  0
   45.8390   34.7740   43.6850 C   0  0  0  0  0  0  0  0  0  0  0  0
   46.6580   33.6800   44.0330 C   0  0  0  0  0  0  0  0  0  0  0  0
   46.5060   33.1310   45.2830 N   0  0  0  0  0  0  0  0  0  0  0  0
   45.5980   33.6250   46.1520 C   0  0  0  0  0  0  0  0  0  0  0  0
   44.8090   34.6550   45.8600 N   0  0  0  0  0  0  0  0  0  0  0  0
   45.4480   32.8590   47.7750 S   0  0  0  0  0  0  0  0  0  0  0  0
   45.8080   31.0800   47.5610 C   0  0  0  0  0  0  0  0  0  0  0  0
   44.9590   30.0460   47.4500 C   0  0  0  0  0  0  0  0  0  0  0  0
   45.4330   28.8090   47.2970 C   0  0  0  0  0  0  0  0  0  0  0  0
   46.7620   28.7030   47.2680 C   0  0  0  0  0  0  0  0  0  0  0  0
   47.4820   30.3280   47.4500 S   0  0  0  0  0  0  0  0  0  0  0  0
   44.2665   36.0923   44.3923 H   0  0  0  0  0  0  0  0  0  0  0  0
   45.9197   35.2500   42.6966 H   0  0  0  0  0  0  0  0  0  0  0  0
   47.3969   33.2780   43.3242 H   0  0  0  0  0  0  0  0  0  0  0  0
   43.8733   30.2190   47.4852 H   0  0  0  0  0  0  0  0  0  0  0  0
   44.7722   27.9348   47.2012 H   0  0  0  0  0  0  0  0  0  0  0  0
   47.3249   27.7652   47.1508 H   0  0  0  0  0  0  0  0  0  0  0  0
  1  6  2  0
  2  3  2  0
  2  1  1  0
  3  4  1  0
  4  5  2  0
  5  7  1  0
  6  5  1  0
  8  7  1  0
  9  8  2  0
 10  9  1  0
 11 10  2  0
 11 12  1  0
 12  8  1  0
  1 13  1  0
  2 14  1  0
  3 15  1  0
  9 16  1  0
 10 17  1  0
 11 18  1  0
M  ISO  6  13  14  14  14  15  14  16  14  17  14  18  14
M  END
>  <minimizedAffinity>  (1) 
-3.43955779

>  <minimizedRMSD>  (1) 
2.50996399

$$$$
