
     RDKit          3D

 17 17  0  0  0  0  0  0  0  0999 V2000
   44.4840   35.8600   44.6180 C   0  0  0  0  0  0  0  0  0  0  0  0
   45.0720   35.9750   43.3420 C   0  0  0  0  0  0  0  0  0  0  0  0
   46.0890   35.0450   42.9960 C   0  0  0  0  0  0  0  0  0  0  0  0
   46.4380   34.0950   43.9180 N   0  0  0  0  0  0  0  0  0  0  0  0
   45.8390   34.0380   45.1180 C   0  0  0  0  0  0  0  0  0  0  0  0
   44.8800   34.9020   45.4640 N   0  0  0  0  0  0  0  0  0  0  0  0
   46.3400   32.7680   46.2740 S   0  0  0  0  0  0  0  0  0  0  0  0
   45.2350   32.7430   47.7060 C   0  0  0  0  0  0  0  0  0  0  0  0
   45.8860   32.1900   48.9310 C   0  0  0  0  0  0  0  0  0  0  0  0
   43.6938   36.5630   44.9204 H   0  0  0  0  0  0  0  0  0  0  0  0
   44.7543   36.7582   42.6380 H   0  0  0  0  0  0  0  0  0  0  0  0
   46.5826   35.0872   42.0139 H   0  0  0  0  0  0  0  0  0  0  0  0
   44.9087   33.7723   47.9159 H   0  0  0  0  0  0  0  0  0  0  0  0
   44.3868   32.0880   47.4579 H   0  0  0  0  0  0  0  0  0  0  0  0
   45.3975   32.6050   49.8249 H   0  0  0  0  0  0  0  0  0  0  0  0
   45.7885   31.0943   48.9352 H   0  0  0  0  0  0  0  0  0  0  0  0
   46.9515   32.4634   48.9352 H   0  0  0  0  0  0  0  0  0  0  0  0
  1  6  2  0
  2  1  1  0
  3  2  2  0
  3  4  1  0
  4  5  2  0
  5  6  1  0
  5  7  1  0
  7  8  1  0
  8  9  1  0
  1 10  1  0
  2 11  1  0
  3 12  1  0
  8 13  1  0
  8 14  1  0
  9 15  1  0
  9 16  1  0
  9 17  1  0
M  ISO  8  10  14  11  14  12  14  13   8  14   8  15   8  16   8  17   8
M  END
>  <minimizedAffinity>  (1) 
-3.45093107

>  <minimizedRMSD>  (1) 
0.261699915

$$$$
