
     RDKit          3D

 38 41  0  0  0  0  0  0  0  0999 V2000
   44.6640   35.6660   44.6050 C   0  0  0  0  0  0  0  0  0  0  0  0
   45.5190   35.3350   43.5620 C   0  0  0  0  0  0  0  0  0  0  0  0
   46.3980   34.2220   43.7510 C   0  0  0  0  0  0  0  0  0  0  0  0
   46.3330   33.5590   44.9480 N   0  0  0  0  0  0  0  0  0  0  0  0
   45.4830   33.9320   45.9150 C   0  0  0  0  0  0  0  0  0  0  0  0
   44.6500   34.9820   45.7460 N   0  0  0  0  0  0  0  0  0  0  0  0
   47.3280   33.8230   42.6780 C   0  0  0  0  0  0  0  0  0  0  0  0
   46.9320   34.6170   41.4370 C   0  0  0  0  0  0  0  0  0  0  0  0
   47.9910   34.5760   40.3840 C   0  0  0  0  0  0  0  0  0  0  0  0
   48.8200   33.3140   40.6020 C   0  0  0  0  0  0  0  0  0  0  0  0
   49.6160   33.4900   41.9010 C   0  0  0  0  0  0  0  0  0  0  0  0
   48.7560   34.1390   42.9640 C   0  0  0  0  0  0  0  0  0  0  0  0
   45.4440   33.0300   47.4570 S   0  0  0  0  0  0  0  0  0  0  0  0
   48.6300   29.5290   48.6450 N   0  0  0  0  0  0  0  0  0  0  0  0
   48.6890   30.6370   49.3970 C   0  0  0  0  0  0  0  0  0  0  0  0
   47.7690   31.5090   48.9670 N   0  0  0  0  0  0  0  0  0  0  0  0
   47.0930   30.9790   47.9230 C   0  0  0  0  0  0  0  0  0  0  0  0
   46.0560   31.3840   47.0800 C   0  0  0  0  0  0  0  0  0  0  0  0
   45.6290   30.5700   46.1210 N   0  0  0  0  0  0  0  0  0  0  0  0
   46.2220   29.3500   45.9880 C   0  0  0  0  0  0  0  0  0  0  0  0
   47.2360   28.8920   46.7740 N   0  0  0  0  0  0  0  0  0  0  0  0
   47.6570   29.7330   47.7420 C   0  0  0  0  0  0  0  0  0  0  0  0
   43.9788   36.5180   44.4843 H   0  0  0  0  0  0  0  0  0  0  0  0
   45.5204   35.9085   42.6233 H   0  0  0  0  0  0  0  0  0  0  0  0
   47.2539   32.7316   42.5627 H   0  0  0  0  0  0  0  0  0  0  0  0
   46.0048   34.1923   41.0247 H   0  0  0  0  0  0  0  0  0  0  0  0
   46.7910   35.6662   41.7360 H   0  0  0  0  0  0  0  0  0  0  0  0
   48.6342   35.4646   40.4660 H   0  0  0  0  0  0  0  0  0  0  0  0
   47.5357   34.5673   39.3827 H   0  0  0  0  0  0  0  0  0  0  0  0
   48.1562   32.4409   40.6861 H   0  0  0  0  0  0  0  0  0  0  0  0
   49.5020   33.1529   39.7541 H   0  0  0  0  0  0  0  0  0  0  0  0
   49.9504   32.5045   42.2574 H   0  0  0  0  0  0  0  0  0  0  0  0
   50.4845   34.1352   41.7022 H   0  0  0  0  0  0  0  0  0  0  0  0
   48.9051   35.2287   42.9470 H   0  0  0  0  0  0  0  0  0  0  0  0
   49.0339   33.7570   43.9574 H   0  0  0  0  0  0  0  0  0  0  0  0
   49.2155   28.6870   48.7408 H   0  0  0  0  0  0  0  0  0  0  0  0
   49.3829   30.8032   50.2342 H   0  0  0  0  0  0  0  0  0  0  0  0
   45.8558   28.6882   45.1893 H   0  0  0  0  0  0  0  0  0  0  0  0
  1  6  2  0
  2  3  2  0
  2  1  1  0
  3  4  1  0
  4  5  2  0
  5 13  1  0
  6  5  1  0
  7 12  1  0
  7  3  1  0
  8  7  1  0
  9 10  1  0
  9  8  1  0
 10 11  1  0
 11 12  1  0
 14 15  1  0
 16 15  2  0
 17 16  1  0
 18 13  1  0
 18 17  2  0
 19 18  1  0
 20 19  2  0
 20 21  1  0
 21 22  2  0
 22 17  1  0
 22 14  1  0
  1 23  1  0
  2 24  1  0
  7 25  1  0
  8 26  1  0
  8 27  1  0
  9 28  1  0
  9 29  1  0
 10 30  1  0
 10 31  1  0
 11 32  1  0
 11 33  1  0
 12 34  1  0
 12 35  1  0
 14 36  1  0
 15 37  1  0
 20 38  1  0
M  ISO  8  23  14  24  14  25  13  26  13  27  13  28  13  29  13  30  13
M  ISO  8  31  13  32  13  33  13  34  13  35  13  36   9  37  14  38  14
M  END
>  <minimizedAffinity>  (1) 
-6.05796766

>  <minimizedRMSD>  (1) 
0.441830814

$$$$
