
     RDKit          3D

 36 40  0  0  0  0  0  0  0  0999 V2000
   45.1660   35.0990   43.5530 C   0  0  0  0  0  0  0  0  0  0  0  0
   46.3670   34.8990   42.8880 C   0  0  0  0  0  0  0  0  0  0  0  0
   47.3540   34.0860   43.4770 C   0  0  0  0  0  0  0  0  0  0  0  0
   47.0280   33.5350   44.7130 N   0  0  0  0  0  0  0  0  0  0  0  0
   45.8610   33.7590   45.3100 C   0  0  0  0  0  0  0  0  0  0  0  0
   44.9300   34.5350   44.7410 N   0  0  0  0  0  0  0  0  0  0  0  0
   48.6330   33.7320   42.9460 C   0  0  0  0  0  0  0  0  0  0  0  0
   49.6560   34.6810   42.8160 C   0  0  0  0  0  0  0  0  0  0  0  0
   50.7540   34.1390   42.2840 N   0  0  0  0  0  0  0  0  0  0  0  0
   50.5490   32.8510   42.0310 C   0  0  0  0  0  0  0  0  0  0  0  0
   51.2960   31.8250   41.4900 C   0  0  0  0  0  0  0  0  0  0  0  0
   50.7770   30.5350   41.3390 C   0  0  0  0  0  0  0  0  0  0  0  0
   49.4600   30.3320   41.7600 C   0  0  0  0  0  0  0  0  0  0  0  0
   48.7540   31.3730   42.2900 C   0  0  0  0  0  0  0  0  0  0  0  0
   49.2590   32.6210   42.4380 C   0  0  0  0  0  0  0  0  0  0  0  0
   45.5570   33.0020   46.8990 S   0  0  0  0  0  0  0  0  0  0  0  0
   48.5450   29.6270   48.7830 N   0  0  0  0  0  0  0  0  0  0  0  0
   48.5710   30.8310   49.3750 C   0  0  0  0  0  0  0  0  0  0  0  0
   47.7200   31.6610   48.7790 N   0  0  0  0  0  0  0  0  0  0  0  0
   47.1060   31.0070   47.7620 C   0  0  0  0  0  0  0  0  0  0  0  0
   46.1420   31.3110   46.7850 C   0  0  0  0  0  0  0  0  0  0  0  0
   45.7640   30.3820   45.9110 N   0  0  0  0  0  0  0  0  0  0  0  0
   46.3290   29.1500   45.9920 C   0  0  0  0  0  0  0  0  0  0  0  0
   47.2740   28.7870   46.9190 N   0  0  0  0  0  0  0  0  0  0  0  0
   47.6390   29.7460   47.7910 C   0  0  0  0  0  0  0  0  0  0  0  0
   44.3938   35.7336   43.0937 H   0  0  0  0  0  0  0  0  0  0  0  0
   46.5463   35.3708   41.9106 H   0  0  0  0  0  0  0  0  0  0  0  0
   49.5659   35.7361   43.1138 H   0  0  0  0  0  0  0  0  0  0  0  0
   51.6314   34.6452   42.0971 H   0  0  0  0  0  0  0  0  0  0  0  0
   52.3284   32.0271   41.1685 H   0  0  0  0  0  0  0  0  0  0  0  0
   51.3769   29.7192   40.9094 H   0  0  0  0  0  0  0  0  0  0  0  0
   48.9953   29.3395   41.6649 H   0  0  0  0  0  0  0  0  0  0  0  0
   47.7192   31.1884   42.6144 H   0  0  0  0  0  0  0  0  0  0  0  0
   49.0967   28.7936   49.0319 H   0  0  0  0  0  0  0  0  0  0  0  0
   49.2070   31.0944   50.2329 H   0  0  0  0  0  0  0  0  0  0  0  0
   46.0072   28.3903   45.2645 H   0  0  0  0  0  0  0  0  0  0  0  0
  1  6  2  0
  2  3  2  0
  2  1  1  0
  3  4  1  0
  4  5  2  0
  5 16  1  0
  6  5  1  0
  7  3  1  0
  8  7  2  0
  9  8  1  0
 10  9  1  0
 10 15  2  0
 11 10  1  0
 12 11  2  0
 12 13  1  0
 13 14  2  0
 14 15  1  0
 15  7  1  0
 17 18  1  0
 19 18  2  0
 20 25  2  0
 20 19  1  0
 21 16  1  0
 21 20  1  0
 22 23  1  0
 22 21  2  0
 23 24  2  0
 24 25  1  0
 25 17  1  0
  1 26  1  0
  2 27  1  0
  8 28  1  0
  9 29  1  0
 11 30  1  0
 12 31  1  0
 13 32  1  0
 14 33  1  0
 17 34  1  0
 18 35  1  0
 23 36  1  0
M  ISO  8  26  14  27  14  28  14  29   9  30  14  31  14  32  14  33  14
M  ISO  3  34   9  35  14  36  14
M  END
>  <minimizedAffinity>  (1) 
-6.16658735

>  <minimizedRMSD>  (1) 
1.34420478

$$$$
