
     RDKit          3D

 29 32  0  0  0  0  0  0  0  0999 V2000
   44.5910   35.7070   44.6460 C   0  0  0  0  0  0  0  0  0  0  0  0
   45.4750   35.4380   43.5900 C   0  0  0  0  0  0  0  0  0  0  0  0
   46.3840   34.3620   43.7500 C   0  0  0  0  0  0  0  0  0  0  0  0
   46.3410   33.6490   44.9370 N   0  0  0  0  0  0  0  0  0  0  0  0
   45.4640   33.9680   45.9030 C   0  0  0  0  0  0  0  0  0  0  0  0
   44.5960   34.9860   45.7640 N   0  0  0  0  0  0  0  0  0  0  0  0
   47.2920   34.0580   42.7080 N   0  0  0  0  0  0  0  0  0  0  0  0
   48.3570   33.2520   42.6920 N   0  0  0  0  0  0  0  0  0  0  0  0
   48.9500   33.2460   41.4960 C   0  0  0  0  0  0  0  0  0  0  0  0
   48.2370   34.0980   40.6710 C   0  0  0  0  0  0  0  0  0  0  0  0
   47.1990   34.5960   41.4570 C   0  0  0  0  0  0  0  0  0  0  0  0
   45.4710   32.9990   47.4020 S   0  0  0  0  0  0  0  0  0  0  0  0
   48.6680   29.5120   48.5830 N   0  0  0  0  0  0  0  0  0  0  0  0
   48.6610   30.5920   49.4000 C   0  0  0  0  0  0  0  0  0  0  0  0
   47.7410   31.4700   48.9650 N   0  0  0  0  0  0  0  0  0  0  0  0
   47.1400   30.9730   47.8610 C   0  0  0  0  0  0  0  0  0  0  0  0
   46.1420   31.3950   46.9810 C   0  0  0  0  0  0  0  0  0  0  0  0
   45.7790   30.6170   45.9500 N   0  0  0  0  0  0  0  0  0  0  0  0
   46.4130   29.4180   45.7950 C   0  0  0  0  0  0  0  0  0  0  0  0
   47.3940   28.9540   46.6210 N   0  0  0  0  0  0  0  0  0  0  0  0
   47.7330   29.7500   47.6390 C   0  0  0  0  0  0  0  0  0  0  0  0
   43.8749   36.5360   44.5468 H   0  0  0  0  0  0  0  0  0  0  0  0
   45.4631   36.0410   42.6701 H   0  0  0  0  0  0  0  0  0  0  0  0
   49.8436   32.6684   41.2169 H   0  0  0  0  0  0  0  0  0  0  0  0
   48.4454   34.3329   39.6168 H   0  0  0  0  0  0  0  0  0  0  0  0
   46.4294   35.3075   41.1231 H   0  0  0  0  0  0  0  0  0  0  0  0
   49.2660   28.6775   48.6653 H   0  0  0  0  0  0  0  0  0  0  0  0
   49.3062   30.7290   50.2803 H   0  0  0  0  0  0  0  0  0  0  0  0
   46.1127   28.7841   44.9477 H   0  0  0  0  0  0  0  0  0  0  0  0
  1  6  2  0
  2  3  2  0
  2  1  1  0
  3  4  1  0
  4  5  2  0
  5 12  1  0
  6  5  1  0
  7  3  1  0
  8  7  1  0
  9  8  2  0
 10 11  2  0
 10  9  1  0
 11  7  1  0
 13 14  1  0
 15 14  2  0
 16 15  1  0
 17 12  1  0
 17 16  2  0
 18 17  1  0
 19 18  2  0
 19 20  1  0
 20 21  2  0
 21 16  1  0
 21 13  1  0
  1 22  1  0
  2 23  1  0
  9 24  1  0
 10 25  1  0
 11 26  1  0
 13 27  1  0
 14 28  1  0
 19 29  1  0
M  ISO  8  22  14  23  14  24  14  25  14  26  14  27   9  28  14  29  14
M  END
>  <minimizedAffinity>  (1) 
-5.30897331

>  <minimizedRMSD>  (1) 
0.559666991

$$$$
