
     RDKit          3D

 27 30  0  0  0  0  0  0  0  0999 V2000
   44.7090   35.6290   44.4790 C   0  0  0  0  0  0  0  0  0  0  0  0
   45.6240   35.3190   43.4850 C   0  0  0  0  0  0  0  0  0  0  0  0
   46.5260   34.2460   43.7270 C   0  0  0  0  0  0  0  0  0  0  0  0
   46.4420   33.5780   44.9240 N   0  0  0  0  0  0  0  0  0  0  0  0
   45.5200   33.9420   45.8440 C   0  0  0  0  0  0  0  0  0  0  0  0
   44.6670   34.9520   45.6250 N   0  0  0  0  0  0  0  0  0  0  0  0
   47.5300   33.8310   42.7530 C   0  0  0  0  0  0  0  0  0  0  0  0
   47.4130   33.2590   41.5460 N   0  0  0  0  0  0  0  0  0  0  0  0
   48.6090   33.0640   41.0230 O   0  0  0  0  0  0  0  0  0  0  0  0
   49.5240   33.5040   41.8750 C   0  0  0  0  0  0  0  0  0  0  0  0
   48.8570   33.9850   42.9590 N   0  0  0  0  0  0  0  0  0  0  0  0
   45.4430   33.0490   47.3890 S   0  0  0  0  0  0  0  0  0  0  0  0
   48.6080   29.5550   48.6560 N   0  0  0  0  0  0  0  0  0  0  0  0
   48.6670   30.6740   49.3960 C   0  0  0  0  0  0  0  0  0  0  0  0
   47.7440   31.5440   48.9360 N   0  0  0  0  0  0  0  0  0  0  0  0
   47.0830   30.9970   47.8990 C   0  0  0  0  0  0  0  0  0  0  0  0
   46.0590   31.4000   47.0500 C   0  0  0  0  0  0  0  0  0  0  0  0
   45.6310   30.5620   46.0880 N   0  0  0  0  0  0  0  0  0  0  0  0
   46.2220   29.3400   45.9800 C   0  0  0  0  0  0  0  0  0  0  0  0
   47.2260   28.9050   46.7890 N   0  0  0  0  0  0  0  0  0  0  0  0
   47.6340   29.7530   47.7370 C   0  0  0  0  0  0  0  0  0  0  0  0
   44.0002   36.4545   44.3172 H   0  0  0  0  0  0  0  0  0  0  0  0
   45.6517   35.8835   42.5413 H   0  0  0  0  0  0  0  0  0  0  0  0
   50.6146   33.4841   41.7329 H   0  0  0  0  0  0  0  0  0  0  0  0
   49.1894   28.7119   48.7660 H   0  0  0  0  0  0  0  0  0  0  0  0
   49.3534   30.8517   50.2370 H   0  0  0  0  0  0  0  0  0  0  0  0
   45.8658   28.6626   45.1899 H   0  0  0  0  0  0  0  0  0  0  0  0
  1  6  2  0
  2  3  2  0
  2  1  1  0
  3  4  1  0
  4  5  2  0
  5 12  1  0
  6  5  1  0
  7 11  1  0
  7  3  1  0
  8  7  2  0
  9  8  1  0
  9 10  1  0
 10 11  2  0
 13 14  1  0
 15 14  2  0
 16 15  1  0
 17 12  1  0
 17 16  2  0
 18 17  1  0
 19 18  2  0
 19 20  1  0
 20 21  2  0
 21 16  1  0
 21 13  1  0
  1 22  1  0
  2 23  1  0
 10 24  1  0
 13 25  1  0
 14 26  1  0
 19 27  1  0
M  ISO  6  22  14  23  14  24  14  25   9  26  14  27  14
M  END
>  <minimizedAffinity>  (1) 
-5.18860388

>  <minimizedRMSD>  (1) 
0.361020893

$$$$
