
     RDKit          3D

 29 32  0  0  0  0  0  0  0  0999 V2000
   45.4800   33.1040   47.2260 S   0  0  0  0  0  0  0  0  0  0  0  0
   48.5550   29.5680   48.5850 N   0  0  0  0  0  0  0  0  0  0  0  0
   48.5460   30.6650   49.3770 C   0  0  0  0  0  0  0  0  0  0  0  0
   47.6710   31.5460   48.8970 N   0  0  0  0  0  0  0  0  0  0  0  0
   47.0870   31.0450   47.7830 C   0  0  0  0  0  0  0  0  0  0  0  0
   46.1270   31.4670   46.8610 C   0  0  0  0  0  0  0  0  0  0  0  0
   45.7760   30.6890   45.8410 N   0  0  0  0  0  0  0  0  0  0  0  0
   46.3870   29.4670   45.7330 C   0  0  0  0  0  0  0  0  0  0  0  0
   47.3270   28.9950   46.5940 N   0  0  0  0  0  0  0  0  0  0  0  0
   47.6660   29.8010   47.6170 C   0  0  0  0  0  0  0  0  0  0  0  0
   44.6980   35.7320   44.3680 C   0  0  0  0  0  0  0  0  0  0  0  0
   45.5830   35.4220   43.3470 C   0  0  0  0  0  0  0  0  0  0  0  0
   46.4810   34.3360   43.5440 C   0  0  0  0  0  0  0  0  0  0  0  0
   46.4190   33.6560   44.7350 N   0  0  0  0  0  0  0  0  0  0  0  0
   45.5270   34.0160   45.6860 C   0  0  0  0  0  0  0  0  0  0  0  0
   44.6660   35.0490   45.5140 N   0  0  0  0  0  0  0  0  0  0  0  0
   47.4680   33.9320   42.4990 C   0  0  0  0  0  0  0  0  0  0  0  0
   48.8500   34.6310   42.6230 C   0  0  0  0  0  0  0  0  0  0  0  0
   47.9210   34.9080   41.4860 C   0  0  0  0  0  0  0  0  0  0  0  0
   49.1318   28.7231   48.7049 H   0  0  0  0  0  0  0  0  0  0  0  0
   49.1642   30.8065   50.2758 H   0  0  0  0  0  0  0  0  0  0  0  0
   46.0962   28.8227   44.8902 H   0  0  0  0  0  0  0  0  0  0  0  0
   43.9984   36.5694   44.2288 H   0  0  0  0  0  0  0  0  0  0  0  0
   45.5908   35.9994   42.4108 H   0  0  0  0  0  0  0  0  0  0  0  0
   47.0714   32.9084   42.4292 H   0  0  0  0  0  0  0  0  0  0  0  0
   49.0202   35.3916   43.3993 H   0  0  0  0  0  0  0  0  0  0  0  0
   49.8946   34.3023   42.7270 H   0  0  0  0  0  0  0  0  0  0  0  0
   48.1820   34.5585   40.4762 H   0  0  0  0  0  0  0  0  0  0  0  0
   47.4845   35.8273   41.0685 H   0  0  0  0  0  0  0  0  0  0  0  0
  2  3  1  0
  4  3  2  0
  5  4  1  0
  6  1  1  0
  6  5  2  0
  7  6  1  0
  8  7  2  0
  8  9  1  0
  9 10  2  0
 10  5  1  0
 10  2  1  0
 11 16  2  0
 12 13  2  0
 12 11  1  0
 13 14  1  0
 14 15  2  0
 15  1  1  0
 16 15  1  0
 17 18  1  0
 17 13  1  0
 19 17  1  0
 19 18  1  0
  2 20  1  0
  3 21  1  0
  8 22  1  0
 11 23  1  0
 12 24  1  0
 17 25  1  0
 18 26  1  0
 18 27  1  0
 19 28  1  0
 19 29  1  0
M  ISO  8  20   9  21  14  22  14  23  14  24  14  25  13  26  13  27  13
M  ISO  2  28  13  29  13
M  END
>  <minimizedAffinity>  (1) 
-5.24323654

>  <minimizedRMSD>  (1) 
0.674375951

$$$$
