
     RDKit          3D

 36 40  0  0  1  0  0  0  0  0999 V2000
   44.5860   35.7960   44.7020 C   0  0  0  0  0  0  0  0  0  0  0  0
   45.3610   35.4710   43.5880 C   0  0  0  0  0  0  0  0  0  0  0  0
   46.2010   34.3260   43.6720 C   0  0  0  0  0  0  0  0  0  0  0  0
   46.2010   33.6160   44.8340 N   0  0  0  0  0  0  0  0  0  0  0  0
   45.4230   33.9940   45.8730 C   0  0  0  0  0  0  0  0  0  0  0  0
   44.6150   35.0780   45.8160 N   0  0  0  0  0  0  0  0  0  0  0  0
   47.0700   33.9170   42.5180 C   0  0  2  0  0  0  0  0  0  0  0  0
   48.5500   34.4040   42.6500 C   0  0  0  0  0  0  0  0  0  0  0  0
   47.6140   34.9090   41.5900 C   0  0  1  0  0  0  0  0  0  0  0  0
   47.7920   34.4700   40.1750 C   0  0  0  0  0  0  0  0  0  0  0  0
   47.0940   33.4800   39.4990 C   0  0  0  0  0  0  0  0  0  0  0  0
   47.5310   33.3640   38.2290 N   0  0  0  0  0  0  0  0  0  0  0  0
   48.5040   34.2720   38.0790 C   0  0  0  0  0  0  0  0  0  0  0  0
   48.6640   34.9350   39.2380 N   0  0  0  0  0  0  0  0  0  0  0  0
   45.4610   33.0330   47.3870 S   0  0  0  0  0  0  0  0  0  0  0  0
   48.6590   29.5340   48.5560 N   0  0  0  0  0  0  0  0  0  0  0  0
   48.6380   30.5900   49.3870 C   0  0  0  0  0  0  0  0  0  0  0  0
   47.7300   31.4650   48.9590 N   0  0  0  0  0  0  0  0  0  0  0  0
   47.1420   30.9980   47.8410 C   0  0  0  0  0  0  0  0  0  0  0  0
   46.1550   31.4400   46.9630 C   0  0  0  0  0  0  0  0  0  0  0  0
   45.8020   30.6930   45.9130 N   0  0  0  0  0  0  0  0  0  0  0  0
   46.4420   29.4960   45.7410 C   0  0  0  0  0  0  0  0  0  0  0  0
   47.4170   29.0060   46.5690 N   0  0  0  0  0  0  0  0  0  0  0  0
   47.7500   29.7830   47.6190 C   0  0  0  0  0  0  0  0  0  0  0  0
   43.9293   36.6771   44.6542 H   0  0  0  0  0  0  0  0  0  0  0  0
   45.3236   36.0811   42.6735 H   0  0  0  0  0  0  0  0  0  0  0  0
   46.5199   32.9784   42.3552 H   0  0  0  0  0  0  0  0  0  0  0  0
   48.8513   35.0543   43.4845 H   0  0  0  0  0  0  0  0  0  0  0  0
   49.5432   33.9318   42.6743 H   0  0  0  0  0  0  0  0  0  0  0  0
   47.3258   35.9259   41.2855 H   0  0  0  0  0  0  0  0  0  0  0  0
   46.2912   32.8710   39.9403 H   0  0  0  0  0  0  0  0  0  0  0  0
   49.0788   34.4470   37.1576 H   0  0  0  0  0  0  0  0  0  0  0  0
   49.3491   35.6879   39.3948 H   0  0  0  0  0  0  0  0  0  0  0  0
   49.2587   28.6999   48.6303 H   0  0  0  0  0  0  0  0  0  0  0  0
   49.2703   30.7121   50.2788 H   0  0  0  0  0  0  0  0  0  0  0  0
   46.1526   28.8826   44.8750 H   0  0  0  0  0  0  0  0  0  0  0  0
  1  6  2  0
  2  3  2  0
  2  1  1  0
  3  4  1  0
  4  5  2  0
  5 15  1  0
  6  5  1  0
  7  8  1  0
  7  3  1  0
  9  7  1  0
  9  8  1  0
 10  9  1  0
 11 10  2  0
 12 11  1  0
 13 12  2  0
 13 14  1  0
 14 10  1  0
 16 17  1  0
 18 17  2  0
 19 18  1  0
 20 15  1  0
 20 19  2  0
 21 20  1  0
 22 21  2  0
 22 23  1  0
 23 24  2  0
 24 19  1  0
 24 16  1  0
  1 25  1  0
  2 26  1  0
  7 27  1  6
  8 28  1  0
  8 29  1  0
  9 30  1  6
 11 31  1  0
 13 32  1  0
 14 33  1  0
 16 34  1  0
 17 35  1  0
 22 36  1  0
M  ISO  8  25  14  26  14  27  13  28  13  29  13  30  13  31  14  32  14
M  ISO  4  33   9  34   9  35  14  36  14
M  END
>  <minimizedAffinity>  (1) 
-6.27074528

>  <minimizedRMSD>  (1) 
0.474935144

$$$$
