
     RDKit          3D

 38 42  0  0  1  0  0  0  0  0999 V2000
   44.6910   35.8090   43.8590 C   0  0  0  0  0  0  0  0  0  0  0  0
   45.6180   35.5160   42.8670 C   0  0  0  0  0  0  0  0  0  0  0  0
   46.5840   34.4930   43.1390 C   0  0  0  0  0  0  0  0  0  0  0  0
   46.5360   33.8740   44.3490 N   0  0  0  0  0  0  0  0  0  0  0  0
   45.6020   34.2170   45.2630 C   0  0  0  0  0  0  0  0  0  0  0  0
   44.6780   35.1810   45.0270 N   0  0  0  0  0  0  0  0  0  0  0  0
   47.6210   34.1340   42.1250 C   0  0  2  0  0  0  0  0  0  0  0  0
   48.4850   35.3450   41.6480 C   0  0  0  0  0  0  0  0  0  0  0  0
   47.5470   34.6350   40.7510 C   0  0  1  0  0  0  0  0  0  0  0  0
   47.9770   33.7120   39.6580 C   0  0  0  0  0  0  0  0  0  0  0  0
   48.6700   34.5530   38.6050 C   0  0  0  0  0  0  0  0  0  0  0  0
   47.8970   34.3870   37.3270 C   0  0  0  0  0  0  0  0  0  0  0  0
   46.8570   33.3230   37.5480 C   0  0  0  0  0  0  0  0  0  0  0  0
   46.9270   32.9040   39.0020 C   0  0  0  0  0  0  0  0  0  0  0  0
   45.5780   33.3820   46.8510 S   0  0  0  0  0  0  0  0  0  0  0  0
   48.3530   29.6990   48.4590 N   0  0  0  0  0  0  0  0  0  0  0  0
   48.3530   30.7990   49.2400 C   0  0  0  0  0  0  0  0  0  0  0  0
   47.5610   31.7230   48.6900 N   0  0  0  0  0  0  0  0  0  0  0  0
   47.0280   31.2460   47.5400 C   0  0  0  0  0  0  0  0  0  0  0  0
   46.1590   31.7180   46.5510 C   0  0  0  0  0  0  0  0  0  0  0  0
   45.8380   30.9500   45.5160 N   0  0  0  0  0  0  0  0  0  0  0  0
   46.3890   29.6940   45.4630 C   0  0  0  0  0  0  0  0  0  0  0  0
   47.2430   29.1750   46.3960 N   0  0  0  0  0  0  0  0  0  0  0  0
   47.5470   29.9710   47.4250 C   0  0  0  0  0  0  0  0  0  0  0  0
   43.9404   36.5903   43.6689 H   0  0  0  0  0  0  0  0  0  0  0  0
   45.6109   36.0508   41.9058 H   0  0  0  0  0  0  0  0  0  0  0  0
   47.7631   33.1269   42.5441 H   0  0  0  0  0  0  0  0  0  0  0  0
   48.2582   36.3629   41.9978 H   0  0  0  0  0  0  0  0  0  0  0  0
   49.5554   35.5983   41.6349 H   0  0  0  0  0  0  0  0  0  0  0  0
   46.7578   35.0246   40.0912 H   0  0  0  0  0  0  0  0  0  0  0  0
   48.6221   32.9648   40.1434 H   0  0  0  0  0  0  0  0  0  0  0  0
   49.5698   35.1692   38.7490 H   0  0  0  0  0  0  0  0  0  0  0  0
   48.0626   34.9455   36.3939 H   0  0  0  0  0  0  0  0  0  0  0  0
   46.1689   32.9212   36.7897 H   0  0  0  0  0  0  0  0  0  0  0  0
   46.3063   32.1346   39.4845 H   0  0  0  0  0  0  0  0  0  0  0  0
   48.8702   28.8239   48.6251 H   0  0  0  0  0  0  0  0  0  0  0  0
   48.9148   30.9160   50.1785 H   0  0  0  0  0  0  0  0  0  0  0  0
   46.1237   29.0575   44.6060 H   0  0  0  0  0  0  0  0  0  0  0  0
  1  6  2  0
  2  3  2  0
  2  1  1  0
  3  4  1  0
  4  5  2  0
  5 15  1  0
  6  5  1  0
  7  3  1  0
  8  7  1  0
  9  8  1  0
  9  7  1  0
 10 11  1  0
 10  9  1  0
 12 13  1  0
 12 11  2  0
 13 14  2  0
 14 10  1  0
 16 17  1  0
 18 17  2  0
 19 18  1  0
 20 15  1  0
 20 19  2  0
 21 20  1  0
 22 21  2  0
 22 23  1  0
 23 24  2  0
 24 19  1  0
 24 16  1  0
  1 25  1  0
  2 26  1  0
  7 27  1  6
  8 28  1  0
  8 29  1  0
  9 30  1  6
 10 31  1  0
 11 32  1  0
 12 33  1  0
 13 34  1  0
 14 35  1  0
 16 36  1  0
 17 37  1  0
 22 38  1  0
M  ISO  8  25  14  26  14  27  13  28  13  29  13  30  13  31  13  32  13
M  ISO  6  33  13  34  13  35  13  36   9  37  14  38  14
M  END
>  <minimizedAffinity>  (1) 
-6.0160532

>  <minimizedRMSD>  (1) 
1.14403284

$$$$
