
     RDKit          3D

 32 35  0  0  1  0  0  0  0  0999 V2000
   44.5960   35.7490   44.6710 C   0  0  0  0  0  0  0  0  0  0  0  0
   45.4310   35.4670   43.5940 C   0  0  0  0  0  0  0  0  0  0  0  0
   46.3190   34.3510   43.7190 C   0  0  0  0  0  0  0  0  0  0  0  0
   46.3000   33.6300   44.8730 N   0  0  0  0  0  0  0  0  0  0  0  0
   45.4480   33.9790   45.8770 C   0  0  0  0  0  0  0  0  0  0  0  0
   44.6020   35.0270   45.7820 N   0  0  0  0  0  0  0  0  0  0  0  0
   47.2650   33.9790   42.6130 C   0  0  2  0  0  0  0  0  0  0  0  0
   48.7420   34.4150   42.8870 C   0  0  0  0  0  0  0  0  0  0  0  0
   47.9030   35.0020   41.7840 C   0  0  1  0  0  0  0  0  0  0  0  0
   48.1520   34.5480   40.3410 C   0  0  0  0  0  0  0  0  0  0  0  0
   49.0350   33.4860   40.3180 F   0  0  0  0  0  0  0  0  0  0  0  0
   48.7720   35.6400   39.7420 F   0  0  0  0  0  0  0  0  0  0  0  0
   46.9930   34.2920   39.6620 F   0  0  0  0  0  0  0  0  0  0  0  0
   45.4640   33.0120   47.3910 S   0  0  0  0  0  0  0  0  0  0  0  0
   48.6650   29.5320   48.5790 N   0  0  0  0  0  0  0  0  0  0  0  0
   48.6550   30.5980   49.4060 C   0  0  0  0  0  0  0  0  0  0  0  0
   47.7420   31.4630   48.9650 N   0  0  0  0  0  0  0  0  0  0  0  0
   47.1420   30.9960   47.8580 C   0  0  0  0  0  0  0  0  0  0  0  0
   46.1570   31.4180   46.9760 C   0  0  0  0  0  0  0  0  0  0  0  0
   45.7930   30.6690   45.9370 N   0  0  0  0  0  0  0  0  0  0  0  0
   46.4360   29.4600   45.7770 C   0  0  0  0  0  0  0  0  0  0  0  0
   47.4040   28.9870   46.5970 N   0  0  0  0  0  0  0  0  0  0  0  0
   47.7540   29.7710   47.6440 C   0  0  0  0  0  0  0  0  0  0  0  0
   43.9059   36.6024   44.5973 H   0  0  0  0  0  0  0  0  0  0  0  0
   45.4095   36.0791   42.6803 H   0  0  0  0  0  0  0  0  0  0  0  0
   46.7064   33.0668   42.3563 H   0  0  0  0  0  0  0  0  0  0  0  0
   48.9921   35.0120   43.7764 H   0  0  0  0  0  0  0  0  0  0  0  0
   49.7183   33.9139   42.9632 H   0  0  0  0  0  0  0  0  0  0  0  0
   47.6890   36.0466   41.5139 H   0  0  0  0  0  0  0  0  0  0  0  0
   49.2624   28.6967   48.6579 H   0  0  0  0  0  0  0  0  0  0  0  0
   49.2919   30.7306   50.2930 H   0  0  0  0  0  0  0  0  0  0  0  0
   46.1413   28.8346   44.9214 H   0  0  0  0  0  0  0  0  0  0  0  0
  1  6  2  0
  2  3  2  0
  2  1  1  0
  3  4  1  0
  4  5  2  0
  5 14  1  0
  6  5  1  0
  7  8  1  0
  7  3  1  0
  9  7  1  0
  9  8  1  0
 10  9  1  0
 11 10  1  0
 12 10  1  0
 13 10  1  0
 15 16  1  0
 17 16  2  0
 18 17  1  0
 19 14  1  0
 19 18  2  0
 20 19  1  0
 21 20  2  0
 21 22  1  0
 22 23  2  0
 23 18  1  0
 23 15  1  0
  1 24  1  0
  2 25  1  0
  7 26  1  6
  8 27  1  0
  8 28  1  0
  9 29  1  6
 15 30  1  0
 16 31  1  0
 21 32  1  0
M  ISO  8  24  14  25  14  26  13  27  13  28  13  29  13  30   9  31  14
M  ISO  1  32  14
M  END
>  <minimizedAffinity>  (1) 
-6.25772905

>  <minimizedRMSD>  (1) 
0.275595903

$$$$
