
     RDKit          3D

 44 48  0  0  1  0  0  0  0  0999 V2000
   44.5550   35.7230   44.8330 C   0  0  0  0  0  0  0  0  0  0  0  0
   45.2890   35.3570   43.7090 C   0  0  0  0  0  0  0  0  0  0  0  0
   46.1040   34.1940   43.7880 C   0  0  0  0  0  0  0  0  0  0  0  0
   46.1190   33.5060   44.9640 N   0  0  0  0  0  0  0  0  0  0  0  0
   45.3800   33.9230   46.0140 C   0  0  0  0  0  0  0  0  0  0  0  0
   44.6020   35.0230   45.9590 N   0  0  0  0  0  0  0  0  0  0  0  0
   46.9260   33.7480   42.6250 C   0  0  2  0  0  0  0  0  0  0  0  0
   48.2470   34.5730   42.4320 C   0  0  0  0  0  0  0  0  0  0  0  0
   47.1210   34.6060   41.4540 C   0  0  1  0  0  0  0  0  0  0  0  0
   47.2390   34.0910   40.1220 N   0  0  0  0  0  0  0  0  0  0  0  0
   47.2550   32.6610   40.0370 C   0  0  0  0  0  0  0  0  0  0  0  0
   47.6950   32.1690   38.6910 C   0  0  0  0  0  0  0  0  0  0  0  0
   47.5810   33.2120   37.6030 C   0  0  0  0  0  0  0  0  0  0  0  0
   48.3840   34.4280   37.9760 C   0  0  0  0  0  0  0  0  0  0  0  0
   48.3260   34.7310   39.4530 C   0  0  0  0  0  0  0  0  0  0  0  0
   45.4370   32.9940   47.5520 S   0  0  0  0  0  0  0  0  0  0  0  0
   48.6610   29.4760   48.6120 N   0  0  0  0  0  0  0  0  0  0  0  0
   48.7210   30.5760   49.4090 C   0  0  0  0  0  0  0  0  0  0  0  0
   47.7970   31.4500   49.0150 N   0  0  0  0  0  0  0  0  0  0  0  0
   47.1140   30.9520   47.9610 C   0  0  0  0  0  0  0  0  0  0  0  0
   46.0650   31.3730   47.1310 C   0  0  0  0  0  0  0  0  0  0  0  0
   45.6320   30.5990   46.1550 N   0  0  0  0  0  0  0  0  0  0  0  0
   46.2400   29.3790   45.9850 C   0  0  0  0  0  0  0  0  0  0  0  0
   47.2660   28.9060   46.7550 N   0  0  0  0  0  0  0  0  0  0  0  0
   47.6870   29.7170   47.7420 C   0  0  0  0  0  0  0  0  0  0  0  0
   43.9176   36.6183   44.7866 H   0  0  0  0  0  0  0  0  0  0  0  0
   45.2403   35.9510   42.7844 H   0  0  0  0  0  0  0  0  0  0  0  0
   46.6107   32.6995   42.7314 H   0  0  0  0  0  0  0  0  0  0  0  0
   48.4584   35.4446   43.0689 H   0  0  0  0  0  0  0  0  0  0  0  0
   49.3239   34.3515   42.3964 H   0  0  0  0  0  0  0  0  0  0  0  0
   46.5283   35.4203   41.0116 H   0  0  0  0  0  0  0  0  0  0  0  0
   47.9463   32.2704   40.7983 H   0  0  0  0  0  0  0  0  0  0  0  0
   46.2272   32.3056   40.2023 H   0  0  0  0  0  0  0  0  0  0  0  0
   48.7462   31.8529   38.7620 H   0  0  0  0  0  0  0  0  0  0  0  0
   47.0284   31.3386   38.4154 H   0  0  0  0  0  0  0  0  0  0  0  0
   46.5255   33.4956   37.4783 H   0  0  0  0  0  0  0  0  0  0  0  0
   47.9674   32.7970   36.6604 H   0  0  0  0  0  0  0  0  0  0  0  0
   49.4331   34.2581   37.6921 H   0  0  0  0  0  0  0  0  0  0  0  0
   47.9535   35.2881   37.4423 H   0  0  0  0  0  0  0  0  0  0  0  0
   49.2660   34.3947   39.9149 H   0  0  0  0  0  0  0  0  0  0  0  0
   48.1764   35.8159   39.5558 H   0  0  0  0  0  0  0  0  0  0  0  0
   49.2484   28.6320   48.6708 H   0  0  0  0  0  0  0  0  0  0  0  0
   49.4208   30.7207   50.2453 H   0  0  0  0  0  0  0  0  0  0  0  0
   45.8750   28.7361   45.1705 H   0  0  0  0  0  0  0  0  0  0  0  0
  1  6  2  0
  2  3  2  0
  2  1  1  0
  3  4  1  0
  4  5  2  0
  5 16  1  0
  6  5  1  0
  7  3  1  0
  8  7  1  0
  9  8  1  0
  9  7  1  0
 10  9  1  0
 11 10  1  0
 12 11  1  0
 13 14  1  0
 13 12  1  0
 14 15  1  0
 15 10  1  0
 17 18  1  0
 19 18  2  0
 20 19  1  0
 21 16  1  0
 21 20  2  0
 22 21  1  0
 23 22  2  0
 23 24  1  0
 24 25  2  0
 25 20  1  0
 25 17  1  0
  1 26  1  0
  2 27  1  0
  7 28  1  6
  8 29  1  0
  8 30  1  0
  9 31  1  6
 11 32  1  0
 11 33  1  0
 12 34  1  0
 12 35  1  0
 13 36  1  0
 13 37  1  0
 14 38  1  0
 14 39  1  0
 15 40  1  0
 15 41  1  0
 17 42  1  0
 18 43  1  0
 23 44  1  0
M  ISO  8  26  14  27  14  28  13  29  13  30  13  31  13  32  13  33  13
M  ISO  8  34  13  35  13  36  13  37  13  38  13  39  13  40  13  41  13
M  ISO  3  42   9  43  14  44  14
M  END
>  <minimizedAffinity>  (1) 
-5.94526243

>  <minimizedRMSD>  (1) 
0.746529937

$$$$
