
     RDKit          3D

 31 34  0  0  1  0  0  0  0  0999 V2000
   44.6790   35.7440   44.3460 C   0  0  0  0  0  0  0  0  0  0  0  0
   45.5740   35.4530   43.3180 C   0  0  0  0  0  0  0  0  0  0  0  0
   46.4950   34.3720   43.5130 C   0  0  0  0  0  0  0  0  0  0  0  0
   46.4310   33.6980   44.6980 N   0  0  0  0  0  0  0  0  0  0  0  0
   45.5340   34.0410   45.6480 C   0  0  0  0  0  0  0  0  0  0  0  0
   44.6570   35.0590   45.4790 N   0  0  0  0  0  0  0  0  0  0  0  0
   47.4890   34.0060   42.4640 C   0  0  2  0  0  0  0  0  0  0  0  0
   48.9220   34.5790   42.7410 C   0  0  0  0  0  0  0  0  0  0  0  0
   48.0770   35.0100   41.5770 C   0  0  1  0  0  0  0  0  0  0  0  0
   48.5890   34.5340   40.2820 N   0  0  0  0  0  0  0  0  0  0  0  0
   45.4990   33.1290   47.1940 S   0  0  0  0  0  0  0  0  0  0  0  0
   48.5470   29.5590   48.5570 N   0  0  0  0  0  0  0  0  0  0  0  0
   48.5410   30.6520   49.3560 C   0  0  0  0  0  0  0  0  0  0  0  0
   47.6770   31.5420   48.8780 N   0  0  0  0  0  0  0  0  0  0  0  0
   47.0940   31.0620   47.7570 C   0  0  0  0  0  0  0  0  0  0  0  0
   46.1410   31.4970   46.8270 C   0  0  0  0  0  0  0  0  0  0  0  0
   45.7880   30.7360   45.8020 N   0  0  0  0  0  0  0  0  0  0  0  0
   46.3980   29.5080   45.6970 C   0  0  0  0  0  0  0  0  0  0  0  0
   47.3310   29.0180   46.5610 N   0  0  0  0  0  0  0  0  0  0  0  0
   47.6670   29.8240   47.5980 C   0  0  0  0  0  0  0  0  0  0  0  0
   43.9664   36.5711   44.2115 H   0  0  0  0  0  0  0  0  0  0  0  0
   45.5736   36.0355   42.3849 H   0  0  0  0  0  0  0  0  0  0  0  0
   47.0053   33.0394   42.2598 H   0  0  0  0  0  0  0  0  0  0  0  0
   49.0971   35.2604   43.5866 H   0  0  0  0  0  0  0  0  0  0  0  0
   49.9312   34.1645   42.8813 H   0  0  0  0  0  0  0  0  0  0  0  0
   47.6990   35.9735   41.2044 H   0  0  0  0  0  0  0  0  0  0  0  0
   49.3343   33.8411   40.4412 H   0  0  0  0  0  0  0  0  0  0  0  0
   47.8229   34.0979   39.7492 H   0  0  0  0  0  0  0  0  0  0  0  0
   49.1125   28.7054   48.6688 H   0  0  0  0  0  0  0  0  0  0  0  0
   49.1550   30.7830   50.2593 H   0  0  0  0  0  0  0  0  0  0  0  0
   46.1099   28.8706   44.8481 H   0  0  0  0  0  0  0  0  0  0  0  0
  1  6  2  0
  2  3  2  0
  2  1  1  0
  3  4  1  0
  4  5  2  0
  5 11  1  0
  6  5  1  0
  7  8  1  0
  7  3  1  0
  9  7  1  0
  9  8  1  0
 10  9  1  0
 12 13  1  0
 14 13  2  0
 15 14  1  0
 16 11  1  0
 16 15  2  0
 17 16  1  0
 18 17  2  0
 18 19  1  0
 19 20  2  0
 20 15  1  0
 20 12  1  0
  1 21  1  0
  2 22  1  0
  7 23  1  6
  8 24  1  0
  8 25  1  0
  9 26  1  6
 10 27  1  0
 10 28  1  0
 12 29  1  0
 13 30  1  0
 18 31  1  0
M  ISO  8  21  14  22  14  23  13  24  13  25  13  26  13  27   5  28   5
M  ISO  3  29   9  30  14  31  14
M  END
>  <minimizedAffinity>  (1) 
-5.54087687

>  <minimizedRMSD>  (1) 
0.098573111

$$$$
