
     RDKit          3D

 29 30  0  0  0  0  0  0  0  0999 V2000
   48.4800   33.4650   41.8920 C   0  0  0  0  0  0  0  0  0  0  0  0
   49.7900   34.1870   42.1620 C   0  0  0  0  0  0  0  0  0  0  0  0
   50.9410   33.2700   42.4050 C   0  0  0  0  0  0  0  0  0  0  0  0
   51.1380   32.2280   41.3380 C   0  0  0  0  0  0  0  0  0  0  0  0
   49.8610   31.9680   40.5850 C   0  0  0  0  0  0  0  0  0  0  0  0
   48.7280   32.0170   41.5890 C   0  0  0  0  0  0  0  0  0  0  0  0
   45.7190   34.8590   44.0570 C   0  0  0  0  0  0  0  0  0  0  0  0
   46.6140   34.7530   42.9680 C   0  0  0  0  0  0  0  0  0  0  0  0
   47.5030   33.6780   43.0000 C   0  0  0  0  0  0  0  0  0  0  0  0
   47.4710   32.8040   44.0490 N   0  0  0  0  0  0  0  0  0  0  0  0
   46.5920   32.9410   45.0800 C   0  0  0  0  0  0  0  0  0  0  0  0
   45.7350   33.9600   45.0680 N   0  0  0  0  0  0  0  0  0  0  0  0
   44.7660   35.9990   44.0340 C   0  0  0  0  0  0  0  0  0  0  0  0
   43.5680   35.5820   43.4870 F   0  0  0  0  0  0  0  0  0  0  0  0
   44.5480   36.4880   45.3260 F   0  0  0  0  0  0  0  0  0  0  0  0
   45.2280   37.0280   43.2400 F   0  0  0  0  0  0  0  0  0  0  0  0
   48.0145   33.8993   40.9949 H   0  0  0  0  0  0  0  0  0  0  0  0
   50.0254   34.8166   41.2913 H   0  0  0  0  0  0  0  0  0  0  0  0
   49.6490   34.7762   43.0801 H   0  0  0  0  0  0  0  0  0  0  0  0
   51.8569   33.8759   42.4681 H   0  0  0  0  0  0  0  0  0  0  0  0
   50.7214   32.7289   43.3372 H   0  0  0  0  0  0  0  0  0  0  0  0
   51.9052   32.5787   40.6320 H   0  0  0  0  0  0  0  0  0  0  0  0
   51.4529   31.2914   41.8213 H   0  0  0  0  0  0  0  0  0  0  0  0
   49.7147   32.7392   39.8144 H   0  0  0  0  0  0  0  0  0  0  0  0
   49.8962   30.9888   40.0851 H   0  0  0  0  0  0  0  0  0  0  0  0
   47.8235   31.5591   41.1620 H   0  0  0  0  0  0  0  0  0  0  0  0
   48.9857   31.4610   42.5025 H   0  0  0  0  0  0  0  0  0  0  0  0
   46.6099   35.4781   42.1408 H   0  0  0  0  0  0  0  0  0  0  0  0
   46.5900   32.2201   45.9109 H   0  0  0  0  0  0  0  0  0  0  0  0
  1  2  1  0
  1  9  1  0
  2  3  1  0
  4  3  1  0
  5  4  1  0
  5  6  1  0
  6  1  1  0
  7 12  2  0
  8  9  2  0
  8  7  1  0
  9 10  1  0
 10 11  2  0
 12 11  1  0
 13  7  1  0
 13 15  1  0
 14 13  1  0
 16 13  1  0
  1 17  1  0
  2 18  1  0
  2 19  1  0
  3 20  1  0
  3 21  1  0
  4 22  1  0
  4 23  1  0
  5 24  1  0
  5 25  1  0
  6 26  1  0
  6 27  1  0
  8 28  1  0
 11 29  1  0
M  ISO  8  17  13  18  13  19  13  20  13  21  13  22  13  23  13  24  13
M  ISO  5  25  13  26  13  27  13  28  14  29  14
M  END
>  <minimizedAffinity>  (1) 
-4.94693851

>  <minimizedRMSD>  (1) 
1.74020123

$$$$
