
     RDKit          3D

 50 54  0  0  0  0  0  0  0  0999 V2000
   48.4200   33.8810   41.9540 C   0  0  0  0  0  0  0  0  0  0  0  0
   45.4400   34.9880   43.8740 C   0  0  0  0  0  0  0  0  0  0  0  0
   45.5920   34.0940   44.9400 C   0  0  0  0  0  0  0  0  0  0  0  0
   46.6210   33.1570   45.0550 C   0  0  0  0  0  0  0  0  0  0  0  0
   47.4090   33.2670   43.9940 N   0  0  0  0  0  0  0  0  0  0  0  0
   47.3520   34.0560   42.9640 C   0  0  0  0  0  0  0  0  0  0  0  0
   46.3490   34.9370   42.8980 N   0  0  0  0  0  0  0  0  0  0  0  0
   46.5250   32.3660   46.2630 C   0  0  0  0  0  0  0  0  0  0  0  0
   46.9450   32.7900   47.4680 N   0  0  0  0  0  0  0  0  0  0  0  0
   46.8540   32.0660   48.5810 C   0  0  0  0  0  0  0  0  0  0  0  0
   46.3140   30.8210   48.5580 N   0  0  0  0  0  0  0  0  0  0  0  0
   45.8690   30.3120   47.4160 C   0  0  0  0  0  0  0  0  0  0  0  0
   45.3350   29.0630   47.4130 C   0  0  0  0  0  0  0  0  0  0  0  0
   44.8640   28.5060   46.2170 C   0  0  0  0  0  0  0  0  0  0  0  0
   44.9590   29.2630   45.0490 C   0  0  0  0  0  0  0  0  0  0  0  0
   45.5160   30.5250   45.1420 C   0  0  0  0  0  0  0  0  0  0  0  0
   45.9860   31.1050   46.2800 C   0  0  0  0  0  0  0  0  0  0  0  0
   48.3620   35.0120   40.9530 C   0  0  0  0  0  0  0  0  0  0  0  0
   49.7700   34.0590   42.6840 C   0  0  0  0  0  0  0  0  0  0  0  0
   48.3940   32.5360   41.2740 C   0  0  0  0  0  0  0  0  0  0  0  0
   49.4050   31.6580   41.8350 N   0  0  0  0  0  0  0  0  0  0  0  0
   49.1850   30.9600   42.9740 C   0  0  0  0  0  0  0  0  0  0  0  0
   50.3170   30.2440   43.2220 N   0  0  0  0  0  0  0  0  0  0  0  0
   51.2050   30.5230   42.2280 C   0  0  0  0  0  0  0  0  0  0  0  0
   52.4940   30.0780   41.9870 C   0  0  0  0  0  0  0  0  0  0  0  0
   52.9670   29.2590   42.8280 O   0  0  0  0  0  0  0  0  0  0  0  0
   53.1710   30.5170   40.9080 N   0  0  0  0  0  0  0  0  0  0  0  0
   52.5810   31.3970   40.0600 C   0  0  0  0  0  0  0  0  0  0  0  0
   53.4140   31.7690   38.9710 N   0  0  0  0  0  0  0  0  0  0  0  0
   51.3140   31.8510   40.2720 N   0  0  0  0  0  0  0  0  0  0  0  0
   50.6360   31.4140   41.3490 C   0  0  0  0  0  0  0  0  0  0  0  0
   44.6053   35.7037   43.8418 H   0  0  0  0  0  0  0  0  0  0  0  0
   44.8456   34.1323   45.7471 H   0  0  0  0  0  0  0  0  0  0  0  0
   47.2209   32.4816   49.5311 H   0  0  0  0  0  0  0  0  0  0  0  0
   45.2724   28.4891   48.3494 H   0  0  0  0  0  0  0  0  0  0  0  0
   44.4295   27.4956   46.1992 H   0  0  0  0  0  0  0  0  0  0  0  0
   44.6025   28.8688   44.0859 H   0  0  0  0  0  0  0  0  0  0  0  0
   45.5854   31.1121   44.2144 H   0  0  0  0  0  0  0  0  0  0  0  0
   48.3128   35.9723   41.4872 H   0  0  0  0  0  0  0  0  0  0  0  0
   49.2625   34.9894   40.3216 H   0  0  0  0  0  0  0  0  0  0  0  0
   47.4686   34.8974   40.3216 H   0  0  0  0  0  0  0  0  0  0  0  0
   49.6046   34.0372   43.7713 H   0  0  0  0  0  0  0  0  0  0  0  0
   50.4507   33.2428   42.4002 H   0  0  0  0  0  0  0  0  0  0  0  0
   50.2159   35.0237   42.4002 H   0  0  0  0  0  0  0  0  0  0  0  0
   48.5884   32.6706   40.1997 H   0  0  0  0  0  0  0  0  0  0  0  0
   47.4047   32.0805   41.4285 H   0  0  0  0  0  0  0  0  0  0  0  0
   48.2685   30.9693   43.5822 H   0  0  0  0  0  0  0  0  0  0  0  0
   54.1299   30.1869   40.7280 H   0  0  0  0  0  0  0  0  0  0  0  0
   54.3621   31.3747   38.8897 H   0  0  0  0  0  0  0  0  0  0  0  0
   53.0699   32.4330   38.2628 H   0  0  0  0  0  0  0  0  0  0  0  0
  1 19  1  0
  1  6  1  0
  2  3  2  0
  3  4  1  0
  4  8  1  0
  5  4  2  0
  6  5  1  0
  7  6  2  0
  7  2  1  0
  8 17  1  0
  8  9  2  0
  9 10  1  0
 11 10  2  0
 12 11  1  0
 13 12  2  0
 14 13  1  0
 15 16  1  0
 15 14  2  0
 16 17  2  0
 17 12  1  0
 18  1  1  0
 20 21  1  0
 20  1  1  0
 21 22  1  0
 22 23  2  0
 24 23  1  0
 25 24  1  0
 25 26  2  0
 27 25  1  0
 28 30  2  0
 28 27  1  0
 29 28  1  0
 30 31  1  0
 31 21  1  0
 31 24  2  0
  2 32  1  0
  3 33  1  0
 10 34  1  0
 13 35  1  0
 14 36  1  0
 15 37  1  0
 16 38  1  0
 18 39  1  0
 18 40  1  0
 18 41  1  0
 19 42  1  0
 19 43  1  0
 19 44  1  0
 20 45  1  0
 20 46  1  0
 22 47  1  0
 27 48  1  0
 29 49  1  0
 29 50  1  0
M  ISO  8  32  14  33  14  34  14  35  14  36  14  37  14  38  14  39   8
M  ISO  8  40   8  41   8  42   8  43   8  44   8  45   8  46   8  47  14
M  ISO  1  48   9
M  END
>  <minimizedAffinity>  (1) 
-6.64296103

>  <minimizedRMSD>  (1) 
3.23505759

$$$$
