
     RDKit          3D

 53 56  0  0  1  0  0  0  0  0999 V2000
   44.0790   34.8570   41.2960 C   0  0  0  0  0  0  0  0  0  0  0  0
   45.3000   34.3820   40.8480 C   0  0  0  0  0  0  0  0  0  0  0  0
   46.4260   34.7100   41.6230 C   0  0  0  0  0  0  0  0  0  0  0  0
   46.2670   35.4680   42.7610 N   0  0  0  0  0  0  0  0  0  0  0  0
   45.0280   35.9100   43.1540 C   0  0  0  0  0  0  0  0  0  0  0  0
   43.9550   35.5920   42.4090 N   0  0  0  0  0  0  0  0  0  0  0  0
   47.7980   34.2380   41.2590 C   0  0  0  0  0  0  0  0  0  0  0  0
   48.8020   35.3910   41.4330 C   0  0  0  0  0  0  0  0  0  0  0  0
   49.7880   35.1410   42.5160 C   0  0  0  0  0  0  0  0  0  0  0  0
   50.5190   33.8350   42.3780 C   0  0  0  0  0  0  0  0  0  0  0  0
   49.6900   32.8060   41.6420 C   0  0  0  0  0  0  0  0  0  0  0  0
   48.2460   33.0330   42.0030 C   0  0  0  0  0  0  0  0  0  0  0  0
   42.8500   34.5540   40.5130 C   0  0  1  0  0  0  0  0  0  0  0  0
   43.0770   33.5600   39.3920 C   0  0  0  0  0  0  0  0  0  0  0  0
   42.0760   32.4480   39.6270 C   0  0  0  0  0  0  0  0  0  0  0  0
   41.9320   32.4850   41.1110 C   0  0  0  0  0  0  0  0  0  0  0  0
   41.7910   33.9380   41.4140 C   0  0  2  0  0  0  0  0  0  0  0  0
   40.5480   34.5230   41.1070 N   0  0  0  0  0  0  0  0  0  0  0  0
   39.6020   33.5630   40.6370 C   0  0  0  0  0  0  0  0  0  0  0  0
   38.6250   34.1990   39.6770 C   0  0  0  0  0  0  0  0  0  0  0  0
   39.3530   34.5450   38.4700 N   0  0  0  0  0  0  0  0  0  0  0  0
   40.4950   35.3710   38.7960 C   0  0  0  0  0  0  0  0  0  0  0  0
   40.5380   35.6730   40.2950 C   0  0  0  0  0  0  0  0  0  0  0  0
   45.3846   33.7786   39.9322 H   0  0  0  0  0  0  0  0  0  0  0  0
   44.9149   36.5156   44.0653 H   0  0  0  0  0  0  0  0  0  0  0  0
   47.7526   33.9262   40.2051 H   0  0  0  0  0  0  0  0  0  0  0  0
   49.3467   35.5277   40.4872 H   0  0  0  0  0  0  0  0  0  0  0  0
   48.2291   36.2885   41.7091 H   0  0  0  0  0  0  0  0  0  0  0  0
   50.5274   35.9554   42.5073 H   0  0  0  0  0  0  0  0  0  0  0  0
   49.2245   35.0958   43.4596 H   0  0  0  0  0  0  0  0  0  0  0  0
   51.4522   34.0057   41.8212 H   0  0  0  0  0  0  0  0  0  0  0  0
   50.7274   33.4499   43.3871 H   0  0  0  0  0  0  0  0  0  0  0  0
   49.9963   31.7936   41.9439 H   0  0  0  0  0  0  0  0  0  0  0  0
   49.8338   32.9029   40.5558 H   0  0  0  0  0  0  0  0  0  0  0  0
   48.1488   33.1996   43.0860 H   0  0  0  0  0  0  0  0  0  0  0  0
   47.6329   32.1583   41.7403 H   0  0  0  0  0  0  0  0  0  0  0  0
   42.5360   35.5183   40.0870 H   0  0  0  0  0  0  0  0  0  0  0  0
   44.1037   33.1669   39.4290 H   0  0  0  0  0  0  0  0  0  0  0  0
   42.9464   34.0238   38.4032 H   0  0  0  0  0  0  0  0  0  0  0  0
   41.1194   32.6560   39.1253 H   0  0  0  0  0  0  0  0  0  0  0  0
   42.3905   31.4709   39.2315 H   0  0  0  0  0  0  0  0  0  0  0  0
   41.0395   31.9284   41.4329 H   0  0  0  0  0  0  0  0  0  0  0  0
   42.7804   32.0199   41.6343 H   0  0  0  0  0  0  0  0  0  0  0  0
   41.8894   34.1024   42.4972 H   0  0  0  0  0  0  0  0  0  0  0  0
   40.1371   32.7514   40.1222 H   0  0  0  0  0  0  0  0  0  0  0  0
   39.0435   33.1672   41.4981 H   0  0  0  0  0  0  0  0  0  0  0  0
   37.8192   33.4894   39.4379 H   0  0  0  0  0  0  0  0  0  0  0  0
   38.1740   35.0966   40.1252 H   0  0  0  0  0  0  0  0  0  0  0  0
   38.7300   35.0617   37.8330 H   0  0  0  0  0  0  0  0  0  0  0  0
   41.4159   34.8427   38.5082 H   0  0  0  0  0  0  0  0  0  0  0  0
   40.4106   36.3209   38.2477 H   0  0  0  0  0  0  0  0  0  0  0  0
   41.4480   36.2540   40.5056 H   0  0  0  0  0  0  0  0  0  0  0  0
   39.6189   36.2271   40.5363 H   0  0  0  0  0  0  0  0  0  0  0  0
  1  6  1  0
  2  1  2  0
  2  3  1  0
  3  4  2  0
  4  5  1  0
  6  5  2  0
  7  8  1  0
  7  3  1  0
  7 12  1  0
  8  9  1  0
 10  9  1  0
 11 12  1  0
 11 10  1  0
 13  1  1  0
 13 17  1  0
 14 15  1  0
 14 13  1  0
 15 16  1  0
 16 17  1  0
 18 17  1  0
 19 18  1  0
 20 19  1  0
 21 22  1  0
 21 20  1  0
 22 23  1  0
 23 18  1  0
  2 24  1  0
  5 25  1  0
  7 26  1  0
  8 27  1  0
  8 28  1  0
  9 29  1  0
  9 30  1  0
 10 31  1  0
 10 32  1  0
 11 33  1  0
 11 34  1  0
 12 35  1  0
 12 36  1  0
 13 37  1  6
 14 38  1  0
 14 39  1  0
 15 40  1  0
 15 41  1  0
 16 42  1  0
 16 43  1  0
 17 44  1  1
 19 45  1  0
 19 46  1  0
 20 47  1  0
 20 48  1  0
 21 49  1  0
 22 50  1  0
 22 51  1  0
 23 52  1  0
 23 53  1  0
M  ISO  8  24  14  25  14  26  13  27  13  28  13  29  13  30  13  31  13
M  ISO  8  32  13  33  13  34  13  35  13  36  13  37  13  38  13  39  13
M  ISO  8  40  13  41  13  42  13  43  13  44  13  45  13  46  13  47  13
M  ISO  6  48  13  49   5  50  13  51  13  52  13  53  13
M  END
>  <minimizedAffinity>  (1) 
-6.66747522

>  <minimizedRMSD>  (1) 
1.50672185

$$$$
