
     RDKit          3D

 47 50  0  0  1  0  0  0  0  0999 V2000
   44.2570   34.4290   40.6830 C   0  0  0  0  0  0  0  0  0  0  0  0
   45.5610   34.0790   40.3740 C   0  0  0  0  0  0  0  0  0  0  0  0
   46.5500   34.4770   41.2910 C   0  0  0  0  0  0  0  0  0  0  0  0
   46.1940   35.1750   42.4220 N   0  0  0  0  0  0  0  0  0  0  0  0
   44.8850   35.4950   42.6780 C   0  0  0  0  0  0  0  0  0  0  0  0
   43.9350   35.1120   41.7960 N   0  0  0  0  0  0  0  0  0  0  0  0
   47.9990   34.1400   41.0760 C   0  0  0  0  0  0  0  0  0  0  0  0
   48.8650   35.3760   41.3670 C   0  0  0  0  0  0  0  0  0  0  0  0
   49.7460   35.2090   42.5520 C   0  0  0  0  0  0  0  0  0  0  0  0
   50.5990   33.9790   42.4940 C   0  0  0  0  0  0  0  0  0  0  0  0
   49.9670   32.8900   41.6630 C   0  0  0  0  0  0  0  0  0  0  0  0
   48.4660   32.9710   41.8620 C   0  0  0  0  0  0  0  0  0  0  0  0
   43.1470   34.0670   39.7740 C   0  0  1  0  0  0  0  0  0  0  0  0
   43.6180   33.4680   38.4700 C   0  0  0  0  0  0  0  0  0  0  0  0
   42.9060   32.1320   38.3430 C   0  0  0  0  0  0  0  0  0  0  0  0
   42.6970   31.7600   39.7920 C   0  0  0  0  0  0  0  0  0  0  0  0
   42.2500   33.0270   40.4330 C   0  0  2  0  0  0  0  0  0  0  0  0
   40.8260   33.3550   40.2850 C   0  0  0  0  0  0  0  0  0  0  0  0
   40.3950   34.5820   39.7840 C   0  0  0  0  0  0  0  0  0  0  0  0
   39.0260   34.7350   39.7070 C   0  0  0  0  0  0  0  0  0  0  0  0
   38.1400   33.7940   40.0780 N   0  0  0  0  0  0  0  0  0  0  0  0
   38.5830   32.6300   40.5540 C   0  0  0  0  0  0  0  0  0  0  0  0
   39.9120   32.4370   40.6470 N   0  0  0  0  0  0  0  0  0  0  0  0
   45.8097   33.5196   39.4601 H   0  0  0  0  0  0  0  0  0  0  0  0
   44.6130   36.0538   43.5856 H   0  0  0  0  0  0  0  0  0  0  0  0
   48.1041   33.8455   40.0214 H   0  0  0  0  0  0  0  0  0  0  0  0
   49.4956   35.5755   40.4881 H   0  0  0  0  0  0  0  0  0  0  0  0
   48.1812   36.2100   41.5836 H   0  0  0  0  0  0  0  0  0  0  0  0
   50.4052   36.0868   42.6222 H   0  0  0  0  0  0  0  0  0  0  0  0
   49.0913   35.1075   43.4301 H   0  0  0  0  0  0  0  0  0  0  0  0
   51.5719   34.2423   42.0533 H   0  0  0  0  0  0  0  0  0  0  0  0
   50.7158   33.5986   43.5195 H   0  0  0  0  0  0  0  0  0  0  0  0
   50.3359   31.9068   41.9906 H   0  0  0  0  0  0  0  0  0  0  0  0
   50.2224   33.0184   40.6008 H   0  0  0  0  0  0  0  0  0  0  0  0
   48.2310   33.1111   42.9274 H   0  0  0  0  0  0  0  0  0  0  0  0
   47.9705   32.0461   41.5317 H   0  0  0  0  0  0  0  0  0  0  0  0
   42.6142   35.0069   39.5673 H   0  0  0  0  0  0  0  0  0  0  0  0
   43.3513   34.1249   37.6290 H   0  0  0  0  0  0  0  0  0  0  0  0
   44.7111   33.3457   38.4537 H   0  0  0  0  0  0  0  0  0  0  0  0
   41.9477   32.2367   37.8133 H   0  0  0  0  0  0  0  0  0  0  0  0
   43.4637   31.3810   37.7642 H   0  0  0  0  0  0  0  0  0  0  0  0
   41.9261   30.9812   39.8876 H   0  0  0  0  0  0  0  0  0  0  0  0
   43.6055   31.3499   40.2572 H   0  0  0  0  0  0  0  0  0  0  0  0
   42.3413   32.9647   41.5274 H   0  0  0  0  0  0  0  0  0  0  0  0
   41.0953   35.3710   39.4726 H   0  0  0  0  0  0  0  0  0  0  0  0
   38.6347   35.6865   39.3177 H   0  0  0  0  0  0  0  0  0  0  0  0
   37.8779   31.8446   40.8639 H   0  0  0  0  0  0  0  0  0  0  0  0
  1  6  1  0
  2  1  2  0
  2  3  1  0
  3  4  2  0
  4  5  1  0
  6  5  2  0
  7  3  1  0
  7  8  1  0
  7 12  1  0
  8  9  1  0
 10  9  1  0
 11 12  1  0
 11 10  1  0
 13 17  1  0
 13  1  1  0
 14 13  1  0
 15 14  1  0
 15 16  1  0
 16 17  1  0
 18 17  1  0
 18 23  1  0
 19 18  2  0
 20 19  1  0
 20 21  2  0
 21 22  1  0
 22 23  2  0
  2 24  1  0
  5 25  1  0
  7 26  1  0
  8 27  1  0
  8 28  1  0
  9 29  1  0
  9 30  1  0
 10 31  1  0
 10 32  1  0
 11 33  1  0
 11 34  1  0
 12 35  1  0
 12 36  1  0
 13 37  1  6
 14 38  1  0
 14 39  1  0
 15 40  1  0
 15 41  1  0
 16 42  1  0
 16 43  1  0
 17 44  1  1
 19 45  1  0
 20 46  1  0
 22 47  1  0
M  ISO  8  24  14  25  14  26  13  27  13  28  13  29  13  30  13  31  13
M  ISO  8  32  13  33  13  34  13  35  13  36  13  37  13  38  13  39  13
M  ISO  8  40  13  41  13  42  13  43  13  44  13  45  14  46  14  47  14
M  END
>  <minimizedAffinity>  (1) 
-6.27857494

>  <minimizedRMSD>  (1) 
2.42310739

$$$$
