
     RDKit          3D

 43 45  0  0  0  0  0  0  0  0999 V2000
   48.5130   35.0480   40.8310 C   0  0  0  0  0  0  0  0  0  0  0  0
   47.6780   35.1160   41.9490 C   0  0  0  0  0  0  0  0  0  0  0  0
   46.8210   34.0950   42.3640 C   0  0  0  0  0  0  0  0  0  0  0  0
   46.9430   33.0730   41.5230 N   0  0  0  0  0  0  0  0  0  0  0  0
   47.6830   32.9150   40.4660 C   0  0  0  0  0  0  0  0  0  0  0  0
   48.4930   33.9340   40.1100 N   0  0  0  0  0  0  0  0  0  0  0  0
   46.0670   34.4380   43.5580 C   0  0  0  0  0  0  0  0  0  0  0  0
   45.2520   35.5030   43.6350 N   0  0  0  0  0  0  0  0  0  0  0  0
   44.5590   35.8120   44.7330 C   0  0  0  0  0  0  0  0  0  0  0  0
   44.6370   35.0610   45.8480 N   0  0  0  0  0  0  0  0  0  0  0  0
   45.4250   33.9810   45.8590 C   0  0  0  0  0  0  0  0  0  0  0  0
   45.4950   33.2270   46.9990 C   0  0  0  0  0  0  0  0  0  0  0  0
   46.3100   32.0960   47.0400 C   0  0  0  0  0  0  0  0  0  0  0  0
   47.0350   31.7690   45.8990 C   0  0  0  0  0  0  0  0  0  0  0  0
   46.9180   32.5710   44.7860 C   0  0  0  0  0  0  0  0  0  0  0  0
   46.1320   33.6880   44.7030 C   0  0  0  0  0  0  0  0  0  0  0  0
   47.5460   31.6210   39.7550 C   0  0  0  0  0  0  0  0  0  0  0  0
   48.9210   31.1070   39.4080 C   0  0  0  0  0  0  0  0  0  0  0  0
   47.0000   30.5990   40.7740 C   0  0  0  0  0  0  0  0  0  0  0  0
   46.6330   31.7010   38.5730 C   0  0  0  0  0  0  0  0  0  0  0  0
   46.4830   33.0070   38.0120 N   0  0  0  0  0  0  0  0  0  0  0  0
   47.2130   33.4590   36.9010 C   0  0  0  0  0  0  0  0  0  0  0  0
   47.4410   32.6490   35.9360 N   0  0  0  0  0  0  0  0  0  0  0  0
   47.6840   34.8030   36.8600 N   0  0  0  0  0  0  0  0  0  0  0  0
   47.1070   31.6700   35.9440 H   0  0  0  0  0  0  0  0  0  0  0  0
   49.1656   35.8902   40.5573 H   0  0  0  0  0  0  0  0  0  0  0  0
   47.6972   36.0403   42.5451 H   0  0  0  0  0  0  0  0  0  0  0  0
   43.9097   36.6999   44.7270 H   0  0  0  0  0  0  0  0  0  0  0  0
   44.9078   33.5134   47.8840 H   0  0  0  0  0  0  0  0  0  0  0  0
   46.3775   31.4801   47.9489 H   0  0  0  0  0  0  0  0  0  0  0  0
   47.6901   30.8855   45.8860 H   0  0  0  0  0  0  0  0  0  0  0  0
   47.5008   32.2926   43.8956 H   0  0  0  0  0  0  0  0  0  0  0  0
   49.4787   30.8985   40.3329 H   0  0  0  0  0  0  0  0  0  0  0  0
   48.8290   30.1825   38.8190 H   0  0  0  0  0  0  0  0  0  0  0  0
   49.4580   31.8651   38.8190 H   0  0  0  0  0  0  0  0  0  0  0  0
   47.1930   30.9602   41.7949 H   0  0  0  0  0  0  0  0  0  0  0  0
   45.9167   30.4773   40.6268 H   0  0  0  0  0  0  0  0  0  0  0  0
   47.5011   29.6309   40.6268 H   0  0  0  0  0  0  0  0  0  0  0  0
   47.0291   31.0371   37.7905 H   0  0  0  0  0  0  0  0  0  0  0  0
   45.6368   31.4056   38.9339 H   0  0  0  0  0  0  0  0  0  0  0  0
   45.8045   33.6497   38.4450 H   0  0  0  0  0  0  0  0  0  0  0  0
   48.2197   35.1364   36.0459 H   0  0  0  0  0  0  0  0  0  0  0  0
   47.4888   35.4413   37.6445 H   0  0  0  0  0  0  0  0  0  0  0  0
  1  2  2  0
  2  3  1  0
  3  7  1  0
  4  3  2  0
  5  4  1  0
  6  5  2  0
  6  1  1  0
  7  8  2  0
  7 16  1  0
  8  9  1  0
  9 10  2  0
 10 11  1  0
 11 12  2  0
 12 13  1  0
 14 13  2  0
 15 14  1  0
 16 15  2  0
 16 11  1  0
 17  5  1  0
 17 19  1  0
 18 17  1  0
 20 17  1  0
 21 20  1  0
 22 21  1  0
 23 25  1  0
 23 22  2  0
 24 22  1  0
  1 26  1  0
  2 27  1  0
  9 28  1  0
 12 29  1  0
 13 30  1  0
 14 31  1  0
 15 32  1  0
 18 33  1  0
 18 34  1  0
 18 35  1  0
 19 36  1  0
 19 37  1  0
 19 38  1  0
 20 39  1  0
 20 40  1  0
 21 41  1  0
 24 42  1  0
 24 43  1  0
M  ISO  8  26  14  27  14  28  14  29  14  30  14  31  14  32  14  33   8
M  ISO  7  34   8  35   8  36   8  37   8  38   8  39   8  40   8
M  END
>  <minimizedAffinity>  (1) 
-5.83596897

>  <minimizedRMSD>  (1) 
2.88533568

$$$$
