
     RDKit          3D

 50 54  0  0  1  0  0  0  0  0999 V2000
   43.2490   34.9200   41.7680 C   0  0  0  0  0  0  0  0  0  0  0  0
   44.1900   34.3060   40.9570 C   0  0  0  0  0  0  0  0  0  0  0  0
   45.5400   34.5110   41.2920 C   0  0  0  0  0  0  0  0  0  0  0  0
   45.8580   35.2890   42.3820 N   0  0  0  0  0  0  0  0  0  0  0  0
   44.8780   35.8720   43.1500 C   0  0  0  0  0  0  0  0  0  0  0  0
   43.5880   35.6690   42.8180 N   0  0  0  0  0  0  0  0  0  0  0  0
   46.6560   33.8870   40.5030 C   0  0  0  0  0  0  0  0  0  0  0  0
   47.9490   34.6900   40.7200 C   0  0  0  0  0  0  0  0  0  0  0  0
   48.9970   33.9300   41.4510 C   0  0  0  0  0  0  0  0  0  0  0  0
   49.3120   32.6110   40.8190 C   0  0  0  0  0  0  0  0  0  0  0  0
   48.1320   32.0370   40.0730 C   0  0  0  0  0  0  0  0  0  0  0  0
   46.8750   32.4510   40.8060 C   0  0  0  0  0  0  0  0  0  0  0  0
   41.8060   34.7660   41.4790 C   0  0  1  0  0  0  0  0  0  0  0  0
   41.0990   36.0760   41.2220 C   0  0  0  0  0  0  0  0  0  0  0  0
   40.4210   35.9050   39.8710 C   0  0  0  0  0  0  0  0  0  0  0  0
   41.3450   34.9200   39.1800 C   0  0  0  0  0  0  0  0  0  0  0  0
   41.5910   33.8980   40.2520 C   0  0  2  0  0  0  0  0  0  0  0  0
   40.4460   33.0410   40.4710 N   0  0  0  0  0  0  0  0  0  0  0  0
   39.6140   32.8600   41.4920 C   0  0  0  0  0  0  0  0  0  0  0  0
   38.6840   31.9340   41.2190 N   0  0  0  0  0  0  0  0  0  0  0  0
   38.9510   31.5070   39.9530 C   0  0  0  0  0  0  0  0  0  0  0  0
   38.2530   30.5470   39.2330 C   0  0  0  0  0  0  0  0  0  0  0  0
   38.7230   30.3020   37.9840 N   0  0  0  0  0  0  0  0  0  0  0  0
   39.7830   30.9620   37.5210 C   0  0  0  0  0  0  0  0  0  0  0  0
   40.4590   31.8920   38.2170 N   0  0  0  0  0  0  0  0  0  0  0  0
   40.0560   32.2020   39.4820 C   0  0  0  0  0  0  0  0  0  0  0  0
   43.8957   33.6895   40.0949 H   0  0  0  0  0  0  0  0  0  0  0  0
   45.1420   36.4925   44.0191 H   0  0  0  0  0  0  0  0  0  0  0  0
   46.3572   33.9236   39.4450 H   0  0  0  0  0  0  0  0  0  0  0  0
   48.3492   34.9798   39.7372 H   0  0  0  0  0  0  0  0  0  0  0  0
   47.6905   35.5639   41.3361 H   0  0  0  0  0  0  0  0  0  0  0  0
   49.9154   34.5349   41.4757 H   0  0  0  0  0  0  0  0  0  0  0  0
   48.6113   33.7267   42.4609 H   0  0  0  0  0  0  0  0  0  0  0  0
   50.1447   32.7468   40.1132 H   0  0  0  0  0  0  0  0  0  0  0  0
   49.5769   31.9076   41.6222 H   0  0  0  0  0  0  0  0  0  0  0  0
   48.2047   30.9398   40.0453 H   0  0  0  0  0  0  0  0  0  0  0  0
   48.1136   32.4098   39.0383 H   0  0  0  0  0  0  0  0  0  0  0  0
   47.0035   32.3077   41.8890 H   0  0  0  0  0  0  0  0  0  0  0  0
   46.0143   31.8445   40.4877 H   0  0  0  0  0  0  0  0  0  0  0  0
   41.3836   34.3043   42.3837 H   0  0  0  0  0  0  0  0  0  0  0  0
   40.3527   36.2719   42.0061 H   0  0  0  0  0  0  0  0  0  0  0  0
   41.7957   36.9272   41.2275 H   0  0  0  0  0  0  0  0  0  0  0  0
   39.4072   35.4928   39.9814 H   0  0  0  0  0  0  0  0  0  0  0  0
   40.2835   36.8472   39.3202 H   0  0  0  0  0  0  0  0  0  0  0  0
   40.8592   34.4672   38.3031 H   0  0  0  0  0  0  0  0  0  0  0  0
   42.2662   35.3802   38.7933 H   0  0  0  0  0  0  0  0  0  0  0  0
   42.4227   33.2232   40.0010 H   0  0  0  0  0  0  0  0  0  0  0  0
   39.6807   33.4043   42.4456 H   0  0  0  0  0  0  0  0  0  0  0  0
   37.3795   30.0215   39.6464 H   0  0  0  0  0  0  0  0  0  0  0  0
   40.1278   30.7309   36.5023 H   0  0  0  0  0  0  0  0  0  0  0  0
  1  6  2  0
  2  3  2  0
  2  1  1  0
  3  4  1  0
  4  5  2  0
  6  5  1  0
  7  8  1  0
  7 12  1  0
  7  3  1  0
  8  9  1  0
 10  9  1  0
 11 12  1  0
 11 10  1  0
 13  1  1  0
 14 13  1  0
 15 14  1  0
 16 15  1  0
 16 17  1  0
 17 18  1  0
 17 13  1  0
 18 19  1  0
 20 19  2  0
 21 20  1  0
 22 21  2  0
 23 22  1  0
 24 23  2  0
 24 25  1  0
 25 26  2  0
 26 21  1  0
 26 18  1  0
  2 27  1  0
  5 28  1  0
  7 29  1  0
  8 30  1  0
  8 31  1  0
  9 32  1  0
  9 33  1  0
 10 34  1  0
 10 35  1  0
 11 36  1  0
 11 37  1  0
 12 38  1  0
 12 39  1  0
 13 40  1  1
 14 41  1  0
 14 42  1  0
 15 43  1  0
 15 44  1  0
 16 45  1  0
 16 46  1  0
 17 47  1  6
 19 48  1  0
 22 49  1  0
 24 50  1  0
M  ISO  8  27  14  28  14  29  13  30  13  31  13  32  13  33  13  34  13
M  ISO  8  35  13  36  13  37  13  38  13  39  13  40  13  41  13  42  13
M  ISO  8  43  13  44  13  45  13  46  13  47  13  48  14  49  14  50  14
M  END
>  <minimizedAffinity>  (1) 
-6.30089188

>  <minimizedRMSD>  (1) 
4.00271177

$$$$
