
     RDKit          3D

 45 48  0  0  1  0  0  0  0  0999 V2000
   43.8980   34.6680   40.8580 C   0  0  0  0  0  0  0  0  0  0  0  0
   45.1920   34.1890   40.6250 C   0  0  0  0  0  0  0  0  0  0  0  0
   46.1540   34.5360   41.5900 C   0  0  0  0  0  0  0  0  0  0  0  0
   45.7910   35.3010   42.6760 N   0  0  0  0  0  0  0  0  0  0  0  0
   44.4970   35.7340   42.8350 C   0  0  0  0  0  0  0  0  0  0  0  0
   43.5770   35.4060   41.9180 N   0  0  0  0  0  0  0  0  0  0  0  0
   47.5790   34.0790   41.4750 C   0  0  0  0  0  0  0  0  0  0  0  0
   48.4570   35.2360   40.9660 C   0  0  0  0  0  0  0  0  0  0  0  0
   49.4430   35.7150   41.9710 C   0  0  0  0  0  0  0  0  0  0  0  0
   50.2930   34.6250   42.5630 C   0  0  0  0  0  0  0  0  0  0  0  0
   49.6110   33.2790   42.4820 C   0  0  0  0  0  0  0  0  0  0  0  0
   48.1330   33.5150   42.7310 C   0  0  0  0  0  0  0  0  0  0  0  0
   42.8270   34.3510   39.8790 C   0  0  1  0  0  0  0  0  0  0  0  0
   43.3210   33.8160   38.5800 C   0  0  0  0  0  0  0  0  0  0  0  0
   42.6090   32.4770   38.3760 C   0  0  0  0  0  0  0  0  0  0  0  0
   42.3650   32.0450   39.8080 C   0  0  0  0  0  0  0  0  0  0  0  0
   41.8900   33.2840   40.4760 C   0  0  2  0  0  0  0  0  0  0  0  0
   40.5180   33.6240   40.2390 N   0  0  0  0  0  0  0  0  0  0  0  0
   40.0060   34.8380   39.9140 C   0  0  0  0  0  0  0  0  0  0  0  0
   38.6540   34.7510   39.7720 N   0  0  0  0  0  0  0  0  0  0  0  0
   38.3360   33.4820   40.0100 C   0  0  0  0  0  0  0  0  0  0  0  0
   39.4550   32.8200   40.2870 N   0  0  0  0  0  0  0  0  0  0  0  0
   45.4407   33.5800   39.7434 H   0  0  0  0  0  0  0  0  0  0  0  0
   44.2189   36.3442   43.7069 H   0  0  0  0  0  0  0  0  0  0  0  0
   47.5859   33.2515   40.7503 H   0  0  0  0  0  0  0  0  0  0  0  0
   49.0049   34.8927   40.0761 H   0  0  0  0  0  0  0  0  0  0  0  0
   47.7863   36.0785   40.7417 H   0  0  0  0  0  0  0  0  0  0  0  0
   50.1065   36.4447   41.4838 H   0  0  0  0  0  0  0  0  0  0  0  0
   48.8659   36.1530   42.7987 H   0  0  0  0  0  0  0  0  0  0  0  0
   51.2444   34.5763   42.0131 H   0  0  0  0  0  0  0  0  0  0  0  0
   50.4629   34.8603   43.6240 H   0  0  0  0  0  0  0  0  0  0  0  0
   49.7606   32.8391   41.4850 H   0  0  0  0  0  0  0  0  0  0  0  0
   50.0278   32.5824   43.2243 H   0  0  0  0  0  0  0  0  0  0  0  0
   47.9959   34.2254   43.5595 H   0  0  0  0  0  0  0  0  0  0  0  0
   47.6219   32.5809   43.0070 H   0  0  0  0  0  0  0  0  0  0  0  0
   42.3202   35.3069   39.6802 H   0  0  0  0  0  0  0  0  0  0  0  0
   43.0732   34.5089   37.7624 H   0  0  0  0  0  0  0  0  0  0  0  0
   44.4142   33.6940   38.5846 H   0  0  0  0  0  0  0  0  0  0  0  0
   41.6639   32.6036   37.8276 H   0  0  0  0  0  0  0  0  0  0  0  0
   43.1804   31.7509   37.7791 H   0  0  0  0  0  0  0  0  0  0  0  0
   41.5993   31.2566   39.8544 H   0  0  0  0  0  0  0  0  0  0  0  0
   43.2624   31.6226   40.2836 H   0  0  0  0  0  0  0  0  0  0  0  0
   41.9219   33.1793   41.5705 H   0  0  0  0  0  0  0  0  0  0  0  0
   40.5960   35.7573   39.7843 H   0  0  0  0  0  0  0  0  0  0  0  0
   37.3229   33.0543   39.9825 H   0  0  0  0  0  0  0  0  0  0  0  0
  1  6  1  0
  2  1  2  0
  2  3  1  0
  3  4  2  0
  4  5  1  0
  6  5  2  0
  7  3  1  0
  7 12  1  0
  8  7  1  0
  8  9  1  0
  9 10  1  0
 11 10  1  0
 11 12  1  0
 13 17  1  0
 13  1  1  0
 14 13  1  0
 15 14  1  0
 15 16  1  0
 16 17  1  0
 18 22  1  0
 18 17  1  0
 19 18  1  0
 20 19  2  0
 20 21  1  0
 21 22  2  0
  2 23  1  0
  5 24  1  0
  7 25  1  0
  8 26  1  0
  8 27  1  0
  9 28  1  0
  9 29  1  0
 10 30  1  0
 10 31  1  0
 11 32  1  0
 11 33  1  0
 12 34  1  0
 12 35  1  0
 13 36  1  6
 14 37  1  0
 14 38  1  0
 15 39  1  0
 15 40  1  0
 16 41  1  0
 16 42  1  0
 17 43  1  1
 19 44  1  0
 21 45  1  0
M  ISO  8  23  14  24  14  25  13  26  13  27  13  28  13  29  13  30  13
M  ISO  8  31  13  32  13  33  13  34  13  35  13  36  13  37  13  38  13
M  ISO  7  39  13  40  13  41  13  42  13  43  13  44  14  45  14
M  END
>  <minimizedAffinity>  (1) 
-6.21740007

>  <minimizedRMSD>  (1) 
1.99161625

$$$$
