
     RDKit          3D

 20 20  0  0  0  0  0  0  0  0999 V2000
   45.3760   35.0170   44.1190 C   0  0  0  0  0  0  0  0  0  0  0  0
   46.4200   34.4830   43.3680 C   0  0  0  0  0  0  0  0  0  0  0  0
   47.1270   33.4480   43.9370 C   0  0  0  0  0  0  0  0  0  0  0  0
   46.7820   33.0090   45.1740 N   0  0  0  0  0  0  0  0  0  0  0  0
   45.7600   33.5520   45.8760 C   0  0  0  0  0  0  0  0  0  0  0  0
   45.0530   34.5600   45.3500 N   0  0  0  0  0  0  0  0  0  0  0  0
   45.3880   33.1240   47.1360 O   0  0  0  0  0  0  0  0  0  0  0  0
   46.1860   32.3170   47.9710 C   0  0  0  0  0  0  0  0  0  0  0  0
   47.4780   32.7970   48.0560 F   0  0  0  0  0  0  0  0  0  0  0  0
   46.1160   30.9900   47.5910 F   0  0  0  0  0  0  0  0  0  0  0  0
   45.6740   32.4260   49.2710 F   0  0  0  0  0  0  0  0  0  0  0  0
   46.7250   35.0200   42.0360 C   0  0  0  0  0  0  0  0  0  0  0  0
   48.1790   35.2750   41.7940 C   0  0  0  0  0  0  0  0  0  0  0  0
   44.7898   35.8448   43.6933 H   0  0  0  0  0  0  0  0  0  0  0  0
   47.9628   32.9816   43.3948 H   0  0  0  0  0  0  0  0  0  0  0  0
   46.3719   34.2986   41.2844 H   0  0  0  0  0  0  0  0  0  0  0  0
   46.2180   35.9936   41.9648 H   0  0  0  0  0  0  0  0  0  0  0  0
   48.7006   35.3665   42.7581 H   0  0  0  0  0  0  0  0  0  0  0  0
   48.6079   34.4384   41.2230 H   0  0  0  0  0  0  0  0  0  0  0  0
   48.2976   36.2077   41.2230 H   0  0  0  0  0  0  0  0  0  0  0  0
  1  6  2  0
  2  3  2  0
  2  1  1  0
  3  4  1  0
  4  5  2  0
  5  7  1  0
  6  5  1  0
  7  8  1  0
  8  9  1  0
  8 11  1  0
 10  8  1  0
 12  2  1  0
 13 12  1  0
  1 14  1  0
  3 15  1  0
 12 16  1  0
 12 17  1  0
 13 18  1  0
 13 19  1  0
 13 20  1  0
M  ISO  7  14  14  15  14  16   8  17   8  18   8  19   8  20   8
M  END
>  <minimizedAffinity>  (1) 
-4.28510714

>  <minimizedRMSD>  (1) 
1.14219975

$$$$
