
     RDKit          3D

 43 46  0  0  0  0  0  0  0  0999 V2000
   47.3290   34.1550   40.1670 C   0  0  0  0  0  0  0  0  0  0  0  0
   46.6540   34.4450   41.3530 C   0  0  0  0  0  0  0  0  0  0  0  0
   47.0710   34.0360   42.6210 C   0  0  0  0  0  0  0  0  0  0  0  0
   48.1940   33.3400   42.5030 N   0  0  0  0  0  0  0  0  0  0  0  0
   48.8850   33.0250   41.4440 C   0  0  0  0  0  0  0  0  0  0  0  0
   48.4470   33.4400   40.2420 N   0  0  0  0  0  0  0  0  0  0  0  0
   46.1820   34.4780   43.6780 C   0  0  0  0  0  0  0  0  0  0  0  0
   45.3930   35.5620   43.5810 N   0  0  0  0  0  0  0  0  0  0  0  0
   44.5760   35.9720   44.5590 C   0  0  0  0  0  0  0  0  0  0  0  0
   44.5010   35.2960   45.7290 N   0  0  0  0  0  0  0  0  0  0  0  0
   45.2460   34.2080   45.9200 C   0  0  0  0  0  0  0  0  0  0  0  0
   45.1540   33.5460   47.1060 C   0  0  0  0  0  0  0  0  0  0  0  0
   45.9310   32.4010   47.3240 C   0  0  0  0  0  0  0  0  0  0  0  0
   46.7820   31.9760   46.3040 C   0  0  0  0  0  0  0  0  0  0  0  0
   46.8090   32.7030   45.1450 C   0  0  0  0  0  0  0  0  0  0  0  0
   46.0770   33.8210   44.8780 C   0  0  0  0  0  0  0  0  0  0  0  0
   50.1050   32.2160   41.6770 C   0  0  0  0  0  0  0  0  0  0  0  0
   50.6470   31.7410   40.3460 C   0  0  0  0  0  0  0  0  0  0  0  0
   51.1840   33.1630   42.2410 C   0  0  0  0  0  0  0  0  0  0  0  0
   49.8870   31.0700   42.6340 C   0  0  0  0  0  0  0  0  0  0  0  0
   51.1060   30.2210   42.7380 C   0  0  0  0  0  0  0  0  0  0  0  0
   51.3210   28.9850   42.1650 C   0  0  0  0  0  0  0  0  0  0  0  0
   52.5370   28.5170   42.4730 N   0  0  0  0  0  0  0  0  0  0  0  0
   53.1180   29.4410   43.2440 C   0  0  0  0  0  0  0  0  0  0  0  0
   52.2580   30.4800   43.4110 N   0  0  0  0  0  0  0  0  0  0  0  0
   46.9470   34.5079   39.1977 H   0  0  0  0  0  0  0  0  0  0  0  0
   45.7293   35.0368   41.2843 H   0  0  0  0  0  0  0  0  0  0  0  0
   43.9579   36.8696   44.4098 H   0  0  0  0  0  0  0  0  0  0  0  0
   44.4725   33.9086   47.8897 H   0  0  0  0  0  0  0  0  0  0  0  0
   45.8715   31.8513   48.2750 H   0  0  0  0  0  0  0  0  0  0  0  0
   47.4126   31.0832   46.4275 H   0  0  0  0  0  0  0  0  0  0  0  0
   47.4865   32.3513   44.3530 H   0  0  0  0  0  0  0  0  0  0  0  0
   51.4642   31.0248   40.5174 H   0  0  0  0  0  0  0  0  0  0  0  0
   49.8434   31.2510   39.7767 H   0  0  0  0  0  0  0  0  0  0  0  0
   51.0273   32.6019   39.7767 H   0  0  0  0  0  0  0  0  0  0  0  0
   51.1555   33.1380   43.3403 H   0  0  0  0  0  0  0  0  0  0  0  0
   52.1755   32.8382   41.8924 H   0  0  0  0  0  0  0  0  0  0  0  0
   50.9906   34.1882   41.8924 H   0  0  0  0  0  0  0  0  0  0  0  0
   49.6437   31.4731   43.6281 H   0  0  0  0  0  0  0  0  0  0  0  0
   49.0603   30.4506   42.2559 H   0  0  0  0  0  0  0  0  0  0  0  0
   50.5899   28.4539   41.5378 H   0  0  0  0  0  0  0  0  0  0  0  0
   54.1282   29.3719   43.6737 H   0  0  0  0  0  0  0  0  0  0  0  0
   52.4491   31.3297   43.9609 H   0  0  0  0  0  0  0  0  0  0  0  0
  1  6  2  0
  1  2  1  0
  2  3  2  0
  3  7  1  0
  4  3  1  0
  5 17  1  0
  5  4  2  0
  6  5  1  0
  7 16  1  0
  8  7  2  0
  8  9  1  0
  9 10  2  0
 10 11  1  0
 11 12  2  0
 12 13  1  0
 14 13  2  0
 15 14  1  0
 16 15  2  0
 16 11  1  0
 17 19  1  0
 17 20  1  0
 18 17  1  0
 20 21  1  0
 21 25  1  0
 22 23  1  0
 22 21  2  0
 23 24  2  0
 24 25  1  0
  1 26  1  0
  2 27  1  0
  9 28  1  0
 12 29  1  0
 13 30  1  0
 14 31  1  0
 15 32  1  0
 18 33  1  0
 18 34  1  0
 18 35  1  0
 19 36  1  0
 19 37  1  0
 19 38  1  0
 20 39  1  0
 20 40  1  0
 22 41  1  0
 24 42  1  0
 25 43  1  0
M  ISO  8  26  14  27  14  28  14  29  14  30  14  31  14  32  14  33   8
M  ISO  8  34   8  35   8  36   8  37   8  38   8  39   8  40   8  41  14
M  ISO  2  42  14  43   9
M  END
>  <minimizedAffinity>  (1) 
-5.66834164

>  <minimizedRMSD>  (1) 
0.587502301

$$$$
