
     RDKit          3D

 16 16  0  0  0  0  0  0  0  0999 V2000
   44.6380   35.6870   44.8320 C   0  0  0  0  0  0  0  0  0  0  0  0
   45.4130   35.1620   43.8070 C   0  0  0  0  0  0  0  0  0  0  0  0
   46.0770   33.9850   44.0610 C   0  0  0  0  0  0  0  0  0  0  0  0
   45.9410   33.4050   45.2850 N   0  0  0  0  0  0  0  0  0  0  0  0
   45.1850   33.9290   46.2670 C   0  0  0  0  0  0  0  0  0  0  0  0
   44.5240   35.0860   46.0390 N   0  0  0  0  0  0  0  0  0  0  0  0
   45.5090   35.8220   42.5530 N   0  0  0  0  0  0  0  0  0  0  0  0
   45.0300   33.3660   47.5110 O   0  0  0  0  0  0  0  0  0  0  0  0
   45.9020   32.3900   48.0430 C   0  0  0  0  0  0  0  0  0  0  0  0
   47.2310   32.7380   47.8850 F   0  0  0  0  0  0  0  0  0  0  0  0
   45.5990   31.1490   47.5470 F   0  0  0  0  0  0  0  0  0  0  0  0
   45.6820   32.3680   49.4290 F   0  0  0  0  0  0  0  0  0  0  0  0
   44.0957   36.6278   44.6563 H   0  0  0  0  0  0  0  0  0  0  0  0
   46.7072   33.5201   43.2885 H   0  0  0  0  0  0  0  0  0  0  0  0
   44.9990   36.7027   42.3942 H   0  0  0  0  0  0  0  0  0  0  0  0
   46.0886   35.4199   41.8025 H   0  0  0  0  0  0  0  0  0  0  0  0
  1  6  2  0
  2  3  2  0
  2  1  1  0
  3  4  1  0
  4  5  2  0
  5  8  1  0
  6  5  1  0
  7  2  1  0
  8  9  1  0
  9 12  1  0
 10  9  1  0
 11  9  1  0
  1 13  1  0
  3 14  1  0
  7 15  1  0
  7 16  1  0
M  ISO  2  13  14  14  14
M  END
>  <minimizedAffinity>  (1) 
-3.92372632

>  <minimizedRMSD>  (1) 
0.635347068

$$$$
