
     RDKit          3D

 17 17  0  0  0  0  0  0  0  0999 V2000
   44.6880   35.4560   45.0850 C   0  0  0  0  0  0  0  0  0  0  0  0
   45.5290   34.9590   44.0970 C   0  0  0  0  0  0  0  0  0  0  0  0
   46.2120   33.7930   44.3690 C   0  0  0  0  0  0  0  0  0  0  0  0
   46.0260   33.1980   45.5840 N   0  0  0  0  0  0  0  0  0  0  0  0
   45.2100   33.6970   46.5230 C   0  0  0  0  0  0  0  0  0  0  0  0
   44.5410   34.8330   46.2630 N   0  0  0  0  0  0  0  0  0  0  0  0
   45.6670   35.6730   42.8080 C   0  0  0  0  0  0  0  0  0  0  0  0
   45.2710   36.9900   43.0050 F   0  0  0  0  0  0  0  0  0  0  0  0
   44.8180   35.1650   41.8520 F   0  0  0  0  0  0  0  0  0  0  0  0
   46.9590   35.6180   42.3330 F   0  0  0  0  0  0  0  0  0  0  0  0
   45.0010   33.1200   47.7610 O   0  0  0  0  0  0  0  0  0  0  0  0
   45.8600   32.1730   48.3310 C   0  0  0  0  0  0  0  0  0  0  0  0
   47.1710   32.6060   48.3580 F   0  0  0  0  0  0  0  0  0  0  0  0
   45.7100   30.9410   47.7400 F   0  0  0  0  0  0  0  0  0  0  0  0
   45.4990   32.0650   49.6860 F   0  0  0  0  0  0  0  0  0  0  0  0
   44.1286   36.3841   44.8959 H   0  0  0  0  0  0  0  0  0  0  0  0
   46.8912   33.3520   43.6246 H   0  0  0  0  0  0  0  0  0  0  0  0
  1  6  2  0
  2  3  2  0
  2  1  1  0
  3  4  1  0
  4  5  2  0
  5 11  1  0
  6  5  1  0
  7  8  1  0
  7  2  1  0
  9  7  1  0
 10  7  1  0
 11 12  1  0
 12 13  1  0
 12 15  1  0
 14 12  1  0
  1 16  1  0
  3 17  1  0
M  ISO  2  16  14  17  14
M  END
>  <minimizedAffinity>  (1) 
-4.81235361

>  <minimizedRMSD>  (1) 
1.11791837

$$$$
