
     RDKit          3D

 31 33  0  0  0  0  0  0  0  0999 V2000
   44.5970   35.5290   44.8580 C   0  0  0  0  0  0  0  0  0  0  0  0
   45.1180   34.8790   43.7550 C   0  0  0  0  0  0  0  0  0  0  0  0
   45.6610   33.6370   43.9590 C   0  0  0  0  0  0  0  0  0  0  0  0
   45.6650   33.1050   45.2210 N   0  0  0  0  0  0  0  0  0  0  0  0
   45.1480   33.7690   46.2730 C   0  0  0  0  0  0  0  0  0  0  0  0
   44.6170   34.9830   46.0720 N   0  0  0  0  0  0  0  0  0  0  0  0
   46.2230   32.8850   42.8870 N   0  0  0  0  0  0  0  0  0  0  0  0
   45.7740   31.9080   42.0800 C   0  0  0  0  0  0  0  0  0  0  0  0
   46.7390   31.5470   41.2180 N   0  0  0  0  0  0  0  0  0  0  0  0
   47.8270   32.2980   41.4660 C   0  0  0  0  0  0  0  0  0  0  0  0
   49.0650   32.2730   40.8220 C   0  0  0  0  0  0  0  0  0  0  0  0
   49.3540   31.5120   39.8760 O   0  0  0  0  0  0  0  0  0  0  0  0
   49.9780   33.1460   41.2870 N   0  0  0  0  0  0  0  0  0  0  0  0
   49.6840   33.9740   42.3070 C   0  0  0  0  0  0  0  0  0  0  0  0
   50.5460   34.9430   42.8970 N   0  0  0  0  0  0  0  0  0  0  0  0
   48.4810   33.9580   42.8910 N   0  0  0  0  0  0  0  0  0  0  0  0
   47.4990   33.1230   42.5000 C   0  0  0  0  0  0  0  0  0  0  0  0
   45.0880   35.4960   42.4180 C   0  0  0  0  0  0  0  0  0  0  0  0
   44.3920   36.7050   42.5280 F   0  0  0  0  0  0  0  0  0  0  0  0
   44.3490   34.7580   41.5210 F   0  0  0  0  0  0  0  0  0  0  0  0
   46.3510   35.7080   41.9030 F   0  0  0  0  0  0  0  0  0  0  0  0
   45.1330   33.2640   47.5640 O   0  0  0  0  0  0  0  0  0  0  0  0
   46.0690   32.3420   48.0530 C   0  0  0  0  0  0  0  0  0  0  0  0
   47.3620   32.7460   47.8370 F   0  0  0  0  0  0  0  0  0  0  0  0
   45.7990   31.0770   47.5780 F   0  0  0  0  0  0  0  0  0  0  0  0
   45.9170   32.3390   49.4570 F   0  0  0  0  0  0  0  0  0  0  0  0
   44.1527   36.5270   44.7289 H   0  0  0  0  0  0  0  0  0  0  0  0
   44.7660   31.4693   42.1197 H   0  0  0  0  0  0  0  0  0  0  0  0
   50.9133   33.1810   40.8570 H   0  0  0  0  0  0  0  0  0  0  0  0
   50.2095   35.5241   43.6780 H   0  0  0  0  0  0  0  0  0  0  0  0
   51.5057   35.0624   42.5425 H   0  0  0  0  0  0  0  0  0  0  0  0
  1  6  2  0
  2  3  2  0
  2  1  1  0
  3  4  1  0
  4  5  2  0
  5 22  1  0
  6  5  1  0
  7  3  1  0
  8  7  1  0
  9 10  1  0
  9  8  2  0
 10 17  2  0
 11 13  1  0
 11 10  1  0
 12 11  2  0
 13 14  1  0
 14 16  2  0
 14 15  1  0
 17  7  1  0
 17 16  1  0
 18 19  1  0
 18  2  1  0
 20 18  1  0
 21 18  1  0
 22 23  1  0
 23 26  1  0
 24 23  1  0
 25 23  1  0
  1 27  1  0
  8 28  1  0
 13 29  1  0
 15 30  1  0
 15 31  1  0
M  ISO  3  27  14  28  14  29   9
M  END
>  <minimizedAffinity>  (1) 
-6.64518738

>  <minimizedRMSD>  (1) 
1.14683044

$$$$
