
     RDKit          3D

 31 33  0  0  0  0  0  0  0  0999 V2000
   44.7070   35.4550   44.7730 C   0  0  0  0  0  0  0  0  0  0  0  0
   45.2810   34.7460   43.7040 C   0  0  0  0  0  0  0  0  0  0  0  0
   45.8140   33.5080   43.9540 C   0  0  0  0  0  0  0  0  0  0  0  0
   45.7240   33.1000   45.2630 N   0  0  0  0  0  0  0  0  0  0  0  0
   45.1960   33.7450   46.2650 C   0  0  0  0  0  0  0  0  0  0  0  0
   44.6800   34.9430   46.0110 N   0  0  0  0  0  0  0  0  0  0  0  0
   46.4000   32.6750   42.9130 C   0  0  0  0  0  0  0  0  0  0  0  0
   45.8190   31.7370   42.1780 N   0  0  0  0  0  0  0  0  0  0  0  0
   46.2850   30.9740   41.2310 C   0  0  0  0  0  0  0  0  0  0  0  0
   47.5720   31.0950   40.8760 N   0  0  0  0  0  0  0  0  0  0  0  0
   48.3040   32.0110   41.5320 C   0  0  0  0  0  0  0  0  0  0  0  0
   49.6170   32.1140   41.1320 C   0  0  0  0  0  0  0  0  0  0  0  0
   50.4300   33.0400   41.7490 C   0  0  0  0  0  0  0  0  0  0  0  0
   49.9100   33.8520   42.7620 C   0  0  0  0  0  0  0  0  0  0  0  0
   48.5910   33.6610   43.0750 C   0  0  0  0  0  0  0  0  0  0  0  0
   47.7120   32.7690   42.5200 C   0  0  0  0  0  0  0  0  0  0  0  0
   45.3240   35.3760   42.3600 C   0  0  0  0  0  0  0  0  0  0  0  0
   44.5350   36.5470   42.4050 F   0  0  0  0  0  0  0  0  0  0  0  0
   44.7030   34.6010   41.4350 F   0  0  0  0  0  0  0  0  0  0  0  0
   46.5890   35.7260   41.9910 F   0  0  0  0  0  0  0  0  0  0  0  0
   45.1470   33.2620   47.5460 O   0  0  0  0  0  0  0  0  0  0  0  0
   46.0240   32.3410   48.1030 C   0  0  0  0  0  0  0  0  0  0  0  0
   47.3430   32.7490   47.9450 F   0  0  0  0  0  0  0  0  0  0  0  0
   45.8110   31.0770   47.6250 F   0  0  0  0  0  0  0  0  0  0  0  0
   45.8400   32.3550   49.4970 F   0  0  0  0  0  0  0  0  0  0  0  0
   44.2719   36.4486   44.5901 H   0  0  0  0  0  0  0  0  0  0  0  0
   45.6334   30.2425   40.7308 H   0  0  0  0  0  0  0  0  0  0  0  0
   50.0107   31.4681   40.3334 H   0  0  0  0  0  0  0  0  0  0  0  0
   51.4828   33.1400   41.4462 H   0  0  0  0  0  0  0  0  0  0  0  0
   50.5265   34.6024   43.2785 H   0  0  0  0  0  0  0  0  0  0  0  0
   48.1869   34.3037   43.8710 H   0  0  0  0  0  0  0  0  0  0  0  0
  1  6  2  0
  2  3  2  0
  2  1  1  0
  3  4  1  0
  4  5  2  0
  5 21  1  0
  6  5  1  0
  7  3  1  0
  8  7  2  0
  9  8  1  0
 10  9  2  0
 10 11  1  0
 11 16  2  0
 12 11  1  0
 12 13  2  0
 13 14  1  0
 14 15  2  0
 16  7  1  0
 16 15  1  0
 17 18  1  0
 17  2  1  0
 19 17  1  0
 20 17  1  0
 21 22  1  0
 22 25  1  0
 23 22  1  0
 24 22  1  0
  1 26  1  0
  9 27  1  0
 12 28  1  0
 13 29  1  0
 14 30  1  0
 15 31  1  0
M  ISO  6  26  14  27  14  28  14  29  14  30  14  31  14
M  END
>  <minimizedAffinity>  (1) 
-5.84685183

>  <minimizedRMSD>  (1) 
0.97371012

$$$$
