
     RDKit          3D

 28 29  0  0  0  0  0  0  0  0999 V2000
   45.0000   34.9360   44.8290 C   0  0  0  0  0  0  0  0  0  0  0  0
   45.9290   34.7250   43.8320 C   0  0  0  0  0  0  0  0  0  0  0  0
   46.8550   33.7370   44.0380 C   0  0  0  0  0  0  0  0  0  0  0  0
   46.8300   33.0110   45.1930 N   0  0  0  0  0  0  0  0  0  0  0  0
   45.9110   33.2370   46.1530 C   0  0  0  0  0  0  0  0  0  0  0  0
   44.9980   34.2040   45.9590 N   0  0  0  0  0  0  0  0  0  0  0  0
   47.8550   33.4410   43.0700 N   0  0  0  0  0  0  0  0  0  0  0  0
   49.0730   33.9780   42.9190 C   0  0  0  0  0  0  0  0  0  0  0  0
   49.8960   33.5410   41.9020 C   0  0  0  0  0  0  0  0  0  0  0  0
   49.4420   32.5450   41.0490 C   0  0  0  0  0  0  0  0  0  0  0  0
   50.3020   32.0900   39.9890 N   0  0  0  0  0  0  0  0  0  0  0  0
   48.2110   31.9950   41.1940 N   0  0  0  0  0  0  0  0  0  0  0  0
   47.4450   32.4650   42.2120 C   0  0  0  0  0  0  0  0  0  0  0  0
   46.3140   31.8810   42.2560 O   0  0  0  0  0  0  0  0  0  0  0  0
   45.9150   35.5360   42.5990 C   0  0  0  0  0  0  0  0  0  0  0  0
   45.0200   36.5910   42.8020 F   0  0  0  0  0  0  0  0  0  0  0  0
   45.3990   34.8310   41.5340 F   0  0  0  0  0  0  0  0  0  0  0  0
   47.1500   36.0330   42.2830 F   0  0  0  0  0  0  0  0  0  0  0  0
   45.8320   32.5380   47.3460 O   0  0  0  0  0  0  0  0  0  0  0  0
   46.9540   31.9980   47.9970 C   0  0  0  0  0  0  0  0  0  0  0  0
   47.9490   32.9330   48.1620 F   0  0  0  0  0  0  0  0  0  0  0  0
   47.3840   30.8470   47.3960 F   0  0  0  0  0  0  0  0  0  0  0  0
   46.5310   31.6940   49.3090 F   0  0  0  0  0  0  0  0  0  0  0  0
   44.2417   35.7220   44.6978 H   0  0  0  0  0  0  0  0  0  0  0  0
   49.4163   34.7663   43.6051 H   0  0  0  0  0  0  0  0  0  0  0  0
   50.8977   33.9757   41.7690 H   0  0  0  0  0  0  0  0  0  0  0  0
   51.2384   32.5029   39.8724 H   0  0  0  0  0  0  0  0  0  0  0  0
   49.9812   31.3514   39.3468 H   0  0  0  0  0  0  0  0  0  0  0  0
  1  6  2  0
  2  3  2  0
  2  1  1  0
  3  4  1  0
  4  5  2  0
  5 19  1  0
  6  5  1  0
  7  3  1  0
  8  7  1  0
  9  8  2  0
 10 12  2  0
 10  9  1  0
 11 10  1  0
 12 13  1  0
 13 14  2  0
 13  7  1  0
 15 16  1  0
 15  2  1  0
 17 15  1  0
 18 15  1  0
 19 20  1  0
 20 21  1  0
 20 23  1  0
 22 20  1  0
  1 24  1  0
  8 25  1  0
  9 26  1  0
 11 27  1  0
 11 28  1  0
M  ISO  3  24  14  25  14  26  14
M  END
>  <minimizedAffinity>  (1) 
-5.87537146

>  <minimizedRMSD>  (1) 
1.22457421

$$$$
