
     RDKit          3D

 24 25  0  0  0  0  0  0  0  0999 V2000
   44.6830   35.4610   45.0610 C   0  0  0  0  0  0  0  0  0  0  0  0
   45.4980   34.9680   44.0480 C   0  0  0  0  0  0  0  0  0  0  0  0
   46.1840   33.8090   44.2820 C   0  0  0  0  0  0  0  0  0  0  0  0
   46.0200   33.2120   45.5120 N   0  0  0  0  0  0  0  0  0  0  0  0
   45.2420   33.6890   46.4700 C   0  0  0  0  0  0  0  0  0  0  0  0
   44.5820   34.8140   46.2260 N   0  0  0  0  0  0  0  0  0  0  0  0
   47.0130   33.0350   43.3530 C   0  0  0  0  0  0  0  0  0  0  0  0
   48.3800   32.9290   43.0670 C   0  0  0  0  0  0  0  0  0  0  0  0
   48.7500   32.1110   42.0500 C   0  0  0  0  0  0  0  0  0  0  0  0
   47.8000   31.3900   41.3010 C   0  0  0  0  0  0  0  0  0  0  0  0
   46.2940   31.9360   42.1270 S   0  0  0  0  0  0  0  0  0  0  0  0
   45.6520   35.6830   42.7640 C   0  0  0  0  0  0  0  0  0  0  0  0
   45.1010   36.9750   42.9590 F   0  0  0  0  0  0  0  0  0  0  0  0
   44.8770   35.1490   41.7860 F   0  0  0  0  0  0  0  0  0  0  0  0
   46.9510   35.8380   42.3770 F   0  0  0  0  0  0  0  0  0  0  0  0
   45.0760   33.0910   47.6980 O   0  0  0  0  0  0  0  0  0  0  0  0
   45.9890   32.2210   48.2850 C   0  0  0  0  0  0  0  0  0  0  0  0
   47.2770   32.7380   48.2520 F   0  0  0  0  0  0  0  0  0  0  0  0
   45.9120   30.9480   47.7490 F   0  0  0  0  0  0  0  0  0  0  0  0
   45.6690   32.1580   49.6540 F   0  0  0  0  0  0  0  0  0  0  0  0
   44.1170   36.3908   44.9022 H   0  0  0  0  0  0  0  0  0  0  0  0
   49.1278   33.4897   43.6470 H   0  0  0  0  0  0  0  0  0  0  0  0
   49.8174   32.0084   41.8046 H   0  0  0  0  0  0  0  0  0  0  0  0
   47.9370   30.6964   40.4583 H   0  0  0  0  0  0  0  0  0  0  0  0
  1  6  2  0
  2  3  2  0
  2  1  1  0
  3  4  1  0
  4  5  2  0
  5 16  1  0
  6  5  1  0
  7  3  1  0
  8  7  2  0
  9  8  1  0
 10  9  2  0
 10 11  1  0
 11  7  1  0
 12 13  1  0
 12  2  1  0
 14 12  1  0
 15 12  1  0
 16 17  1  0
 17 20  1  0
 18 17  1  0
 19 17  1  0
  1 21  1  0
  8 22  1  0
  9 23  1  0
 10 24  1  0
M  ISO  4  21  14  22  14  23  14  24  14
M  END
>  <minimizedAffinity>  (1) 
-5.30564642

>  <minimizedRMSD>  (1) 
0.386802703

$$$$
