
     RDKit          3D

 29 30  0  0  0  0  0  0  0  0999 V2000
   44.7200   35.4120   44.9810 C   0  0  0  0  0  0  0  0  0  0  0  0
   45.5430   34.8810   44.0100 C   0  0  0  0  0  0  0  0  0  0  0  0
   46.2220   33.7340   44.3200 C   0  0  0  0  0  0  0  0  0  0  0  0
   46.0640   33.1630   45.5530 N   0  0  0  0  0  0  0  0  0  0  0  0
   45.2550   33.7000   46.4810 C   0  0  0  0  0  0  0  0  0  0  0  0
   44.5880   34.8250   46.1840 N   0  0  0  0  0  0  0  0  0  0  0  0
   47.1030   33.0420   43.4520 N   0  0  0  0  0  0  0  0  0  0  0  0
   48.4970   33.2020   43.1110 C   0  0  0  0  0  0  0  0  0  0  0  0
   48.7810   32.1680   42.0410 C   0  0  0  0  0  0  0  0  0  0  0  0
   47.7280   31.0960   42.3430 C   0  0  0  0  0  0  0  0  0  0  0  0
   46.5410   31.9230   42.7190 C   0  0  0  0  0  0  0  0  0  0  0  0
   45.6910   35.5270   42.7000 C   0  0  0  0  0  0  0  0  0  0  0  0
   44.9120   36.6920   42.7120 F   0  0  0  0  0  0  0  0  0  0  0  0
   45.1590   34.7720   41.6790 F   0  0  0  0  0  0  0  0  0  0  0  0
   46.9930   35.8550   42.4060 F   0  0  0  0  0  0  0  0  0  0  0  0
   45.0530   33.1730   47.7430 O   0  0  0  0  0  0  0  0  0  0  0  0
   45.8820   32.2110   48.3230 C   0  0  0  0  0  0  0  0  0  0  0  0
   47.2040   32.6110   48.3330 F   0  0  0  0  0  0  0  0  0  0  0  0
   45.7100   30.9660   47.7480 F   0  0  0  0  0  0  0  0  0  0  0  0
   45.5380   32.1190   49.6740 F   0  0  0  0  0  0  0  0  0  0  0  0
   44.1601   36.3344   44.7673 H   0  0  0  0  0  0  0  0  0  0  0  0
   48.6830   34.2148   42.7241 H   0  0  0  0  0  0  0  0  0  0  0  0
   49.1467   33.0661   43.9882 H   0  0  0  0  0  0  0  0  0  0  0  0
   49.8000   31.7647   42.1359 H   0  0  0  0  0  0  0  0  0  0  0  0
   48.7273   32.5650   41.0165 H   0  0  0  0  0  0  0  0  0  0  0  0
   47.5204   30.4788   41.4564 H   0  0  0  0  0  0  0  0  0  0  0  0
   48.0341   30.3805   43.1204 H   0  0  0  0  0  0  0  0  0  0  0  0
   46.0092   32.2723   41.8217 H   0  0  0  0  0  0  0  0  0  0  0  0
   45.8056   31.3587   43.3113 H   0  0  0  0  0  0  0  0  0  0  0  0
  1  6  2  0
  2  3  2  0
  2  1  1  0
  3  4  1  0
  4  5  2  0
  5 16  1  0
  6  5  1  0
  7  3  1  0
  8  7  1  0
  9 10  1  0
  9  8  1  0
 10 11  1  0
 11  7  1  0
 12 13  1  0
 12  2  1  0
 14 12  1  0
 15 12  1  0
 16 17  1  0
 17 18  1  0
 17 20  1  0
 19 17  1  0
  1 21  1  0
  8 22  1  0
  8 23  1  0
  9 24  1  0
  9 25  1  0
 10 26  1  0
 10 27  1  0
 11 28  1  0
 11 29  1  0
M  ISO  8  21  14  22  13  23  13  24  13  25  13  26  13  27  13  28  13
M  ISO  1  29  13
M  END
>  <minimizedAffinity>  (1) 
-5.23845863

>  <minimizedRMSD>  (1) 
0.279547751

$$$$
