
     RDKit          3D

 52 55  0  0  0  0  0  0  0  0999 V2000
   47.4530   34.2010   39.9520 C   0  0  0  0  0  0  0  0  0  0  0  0
   46.7770   34.4870   41.1340 C   0  0  0  0  0  0  0  0  0  0  0  0
   47.1070   33.9610   42.3820 C   0  0  0  0  0  0  0  0  0  0  0  0
   48.1560   33.1580   42.2570 N   0  0  0  0  0  0  0  0  0  0  0  0
   48.8470   32.8340   41.2020 C   0  0  0  0  0  0  0  0  0  0  0  0
   48.4870   33.3700   40.0140 N   0  0  0  0  0  0  0  0  0  0  0  0
   46.2390   34.4280   43.4500 C   0  0  0  0  0  0  0  0  0  0  0  0
   45.4580   35.5180   43.3420 N   0  0  0  0  0  0  0  0  0  0  0  0
   44.6670   35.9610   44.3220 C   0  0  0  0  0  0  0  0  0  0  0  0
   44.6130   35.3130   45.5090 N   0  0  0  0  0  0  0  0  0  0  0  0
   45.3550   34.2170   45.7110 C   0  0  0  0  0  0  0  0  0  0  0  0
   45.2940   33.5650   46.9140 C   0  0  0  0  0  0  0  0  0  0  0  0
   46.0530   32.4260   47.1410 C   0  0  0  0  0  0  0  0  0  0  0  0
   46.8660   31.9770   46.1200 C   0  0  0  0  0  0  0  0  0  0  0  0
   46.8780   32.6810   44.9380 C   0  0  0  0  0  0  0  0  0  0  0  0
   46.1530   33.8020   44.6660 C   0  0  0  0  0  0  0  0  0  0  0  0
   49.9790   31.8740   41.4310 C   0  0  0  0  0  0  0  0  0  0  0  0
   50.6730   31.6580   40.0940 C   0  0  0  0  0  0  0  0  0  0  0  0
   51.0050   32.6230   42.2880 C   0  0  0  0  0  0  0  0  0  0  0  0
   49.5300   30.5920   42.0190 C   0  0  0  0  0  0  0  0  0  0  0  0
   50.0240   30.2420   43.3840 C   0  0  0  0  0  0  0  0  0  0  0  0
   51.0390   29.0980   43.1710 C   0  0  0  0  0  0  0  0  0  0  0  0
   51.8710   29.0820   44.4440 C   0  0  0  0  0  0  0  0  0  0  0  0
   50.9390   28.7620   45.5910 C   0  0  0  0  0  0  0  0  0  0  0  0
   49.5560   28.4810   45.1030 C   0  0  0  0  0  0  0  0  0  0  0  0
   49.0090   29.6910   44.3270 C   0  0  0  0  0  0  0  0  0  0  0  0
   47.1410   34.6488   38.9969 H   0  0  0  0  0  0  0  0  0  0  0  0
   45.9219   35.1768   41.0798 H   0  0  0  0  0  0  0  0  0  0  0  0
   44.0539   36.8604   44.1634 H   0  0  0  0  0  0  0  0  0  0  0  0
   44.6366   33.9483   47.7082 H   0  0  0  0  0  0  0  0  0  0  0  0
   46.0082   31.8973   48.1046 H   0  0  0  0  0  0  0  0  0  0  0  0
   47.4885   31.0792   46.2481 H   0  0  0  0  0  0  0  0  0  0  0  0
   47.5333   32.3041   44.1389 H   0  0  0  0  0  0  0  0  0  0  0  0
   51.7102   31.3352   40.2672 H   0  0  0  0  0  0  0  0  0  0  0  0
   50.1383   30.8838   39.5242 H   0  0  0  0  0  0  0  0  0  0  0  0
   50.6721   32.5989   39.5242 H   0  0  0  0  0  0  0  0  0  0  0  0
   50.7820   32.4602   43.3528 H   0  0  0  0  0  0  0  0  0  0  0  0
   52.0143   32.2478   42.0632 H   0  0  0  0  0  0  0  0  0  0  0  0
   50.9552   33.6986   42.0632 H   0  0  0  0  0  0  0  0  0  0  0  0
   48.4313   30.6187   42.0644 H   0  0  0  0  0  0  0  0  0  0  0  0
   49.9589   29.8205   41.3626 H   0  0  0  0  0  0  0  0  0  0  0  0
   50.4009   31.1740   43.8304 H   0  0  0  0  0  0  0  0  0  0  0  0
   50.5194   28.1381   43.0345 H   0  0  0  0  0  0  0  0  0  0  0  0
   51.6547   29.2483   42.2719 H   0  0  0  0  0  0  0  0  0  0  0  0
   52.6547   28.3135   44.3710 H   0  0  0  0  0  0  0  0  0  0  0  0
   52.3589   30.0554   44.6007 H   0  0  0  0  0  0  0  0  0  0  0  0
   51.3175   27.8776   46.1244 H   0  0  0  0  0  0  0  0  0  0  0  0
   50.9007   29.6334   46.2612 H   0  0  0  0  0  0  0  0  0  0  0  0
   49.5762   27.6034   44.4401 H   0  0  0  0  0  0  0  0  0  0  0  0
   48.9041   28.2849   45.9670 H   0  0  0  0  0  0  0  0  0  0  0  0
   48.7242   30.4756   45.0434 H   0  0  0  0  0  0  0  0  0  0  0  0
   48.1389   29.3596   43.7412 H   0  0  0  0  0  0  0  0  0  0  0  0
  1  6  2  0
  1  2  1  0
  2  3  2  0
  3  7  1  0
  4  3  1  0
  5 17  1  0
  5  4  2  0
  6  5  1  0
  7 16  1  0
  8  7  2  0
  8  9  1  0
  9 10  2  0
 10 11  1  0
 11 12  2  0
 12 13  1  0
 14 13  2  0
 15 14  1  0
 16 15  2  0
 16 11  1  0
 17 20  1  0
 17 19  1  0
 18 17  1  0
 20 21  1  0
 21 26  1  0
 22 21  1  0
 22 23  1  0
 23 24  1  0
 25 24  1  0
 26 25  1  0
  1 27  1  0
  2 28  1  0
  9 29  1  0
 12 30  1  0
 13 31  1  0
 14 32  1  0
 15 33  1  0
 18 34  1  0
 18 35  1  0
 18 36  1  0
 19 37  1  0
 19 38  1  0
 19 39  1  0
 20 40  1  0
 20 41  1  0
 21 42  1  0
 22 43  1  0
 22 44  1  0
 23 45  1  0
 23 46  1  0
 24 47  1  0
 24 48  1  0
 25 49  1  0
 25 50  1  0
 26 51  1  0
 26 52  1  0
M  ISO  8  27  14  28  14  29  14  30  14  31  14  32  14  33  14  34   8
M  ISO  8  35   8  36   8  37   8  38   8  39   8  40   8  41   8  42  13
M  ISO  8  43  13  44  13  45  13  46  13  47  13  48  13  49  13  50  13
M  ISO  2  51  13  52  13
M  END
>  <minimizedAffinity>  (1) 
-5.59415102

>  <minimizedRMSD>  (1) 
1.19419193

$$$$
