
     RDKit          3D

 23 23  0  0  0  0  0  0  0  0999 V2000
   44.7150   35.3990   45.0170 C   0  0  0  0  0  0  0  0  0  0  0  0
   45.5620   34.8620   44.0420 C   0  0  0  0  0  0  0  0  0  0  0  0
   46.2640   33.7060   44.3420 C   0  0  0  0  0  0  0  0  0  0  0  0
   46.0560   33.1860   45.5940 N   0  0  0  0  0  0  0  0  0  0  0  0
   45.2510   33.7010   46.5110 C   0  0  0  0  0  0  0  0  0  0  0  0
   44.5800   34.8150   46.2100 N   0  0  0  0  0  0  0  0  0  0  0  0
   45.7040   35.5140   42.7180 C   0  0  0  0  0  0  0  0  0  0  0  0
   44.9940   36.7280   42.7770 F   0  0  0  0  0  0  0  0  0  0  0  0
   45.0770   34.8140   41.7320 F   0  0  0  0  0  0  0  0  0  0  0  0
   47.0030   35.7820   42.3950 F   0  0  0  0  0  0  0  0  0  0  0  0
   45.0530   33.1660   47.7690 O   0  0  0  0  0  0  0  0  0  0  0  0
   45.8620   32.1580   48.3320 C   0  0  0  0  0  0  0  0  0  0  0  0
   47.1870   32.5540   48.3700 F   0  0  0  0  0  0  0  0  0  0  0  0
   45.6570   30.9530   47.7140 F   0  0  0  0  0  0  0  0  0  0  0  0
   45.4770   32.0480   49.6800 F   0  0  0  0  0  0  0  0  0  0  0  0
   47.1810   33.0240   43.4280 C   0  0  0  0  0  0  0  0  0  0  0  0
   47.6590   31.6720   43.9310 C   0  0  0  0  0  0  0  0  0  0  0  0
   44.1509   36.3174   44.7973 H   0  0  0  0  0  0  0  0  0  0  0  0
   48.0601   33.6674   43.2753 H   0  0  0  0  0  0  0  0  0  0  0  0
   46.6255   32.8401   42.4965 H   0  0  0  0  0  0  0  0  0  0  0  0
   47.6599   31.6694   45.0310 H   0  0  0  0  0  0  0  0  0  0  0  0
   46.9848   30.8846   43.5630 H   0  0  0  0  0  0  0  0  0  0  0  0
   48.6783   31.4833   43.5630 H   0  0  0  0  0  0  0  0  0  0  0  0
  1  6  2  0
  2  3  2  0
  2  1  1  0
  3  4  1  0
  4  5  2  0
  5 11  1  0
  6  5  1  0
  7  8  1  0
  7  2  1  0
  9  7  1  0
 10  7  1  0
 11 12  1  0
 12 13  1  0
 12 15  1  0
 14 12  1  0
 16 17  1  0
 16  3  1  0
  1 18  1  0
 16 19  1  0
 16 20  1  0
 17 21  1  0
 17 22  1  0
 17 23  1  0
M  ISO  6  18  14  19   8  20   8  21   8  22   8  23   8
M  END
>  <minimizedAffinity>  (1) 
-4.92188025

>  <minimizedRMSD>  (1) 
0.287550658

$$$$
