
     RDKit          3D

 24 25  0  0  0  0  0  0  0  0999 V2000
   44.7310   35.3580   44.9740 C   0  0  0  0  0  0  0  0  0  0  0  0
   45.6290   34.8620   44.0370 C   0  0  0  0  0  0  0  0  0  0  0  0
   46.3630   33.7550   44.3840 C   0  0  0  0  0  0  0  0  0  0  0  0
   46.1700   33.2090   45.6200 N   0  0  0  0  0  0  0  0  0  0  0  0
   45.2930   33.7070   46.5140 C   0  0  0  0  0  0  0  0  0  0  0  0
   44.5790   34.7830   46.1790 N   0  0  0  0  0  0  0  0  0  0  0  0
   45.7700   35.5250   42.7170 C   0  0  0  0  0  0  0  0  0  0  0  0
   45.0550   36.7090   42.7520 F   0  0  0  0  0  0  0  0  0  0  0  0
   45.1760   34.7680   41.7200 F   0  0  0  0  0  0  0  0  0  0  0  0
   47.0820   35.7210   42.3840 F   0  0  0  0  0  0  0  0  0  0  0  0
   47.3380   33.1850   43.4160 C   0  0  0  0  0  0  0  0  0  0  0  0
   46.9800   32.0690   42.5250 C   0  0  0  0  0  0  0  0  0  0  0  0
   47.7300   31.7580   43.7740 C   0  0  0  0  0  0  0  0  0  0  0  0
   45.0860   33.1670   47.7670 O   0  0  0  0  0  0  0  0  0  0  0  0
   45.8820   32.1540   48.3280 C   0  0  0  0  0  0  0  0  0  0  0  0
   47.2030   32.5220   48.3930 F   0  0  0  0  0  0  0  0  0  0  0  0
   45.6720   30.9500   47.6930 F   0  0  0  0  0  0  0  0  0  0  0  0
   45.4790   32.0290   49.6740 F   0  0  0  0  0  0  0  0  0  0  0  0
   44.1292   36.2439   44.7231 H   0  0  0  0  0  0  0  0  0  0  0  0
   47.8123   34.1555   43.2084 H   0  0  0  0  0  0  0  0  0  0  0  0
   45.9276   31.7630   42.4310 H   0  0  0  0  0  0  0  0  0  0  0  0
   47.1450   31.8561   41.4585 H   0  0  0  0  0  0  0  0  0  0  0  0
   48.7829   31.4436   43.7243 H   0  0  0  0  0  0  0  0  0  0  0  0
   47.5784   31.0939   44.6377 H   0  0  0  0  0  0  0  0  0  0  0  0
  1  6  2  0
  2  3  2  0
  2  1  1  0
  3  4  1  0
  4  5  2  0
  5 14  1  0
  6  5  1  0
  7  8  1  0
  7  2  1  0
  9  7  1  0
 10  7  1  0
 11 13  1  0
 11  3  1  0
 12 11  1  0
 12 13  1  0
 14 15  1  0
 15 16  1  0
 15 18  1  0
 17 15  1  0
  1 19  1  0
 11 20  1  0
 12 21  1  0
 12 22  1  0
 13 23  1  0
 13 24  1  0
M  ISO  6  19  14  20  13  21  13  22  13  23  13  24  13
M  END
>  <minimizedAffinity>  (1) 
-5.07628441

>  <minimizedRMSD>  (1) 
0.582984865

$$$$
