
     RDKit          3D

 31 33  0  0  0  0  0  0  0  0999 V2000
   44.6770   35.3850   45.0150 C   0  0  0  0  0  0  0  0  0  0  0  0
   45.5750   34.9260   44.0740 C   0  0  0  0  0  0  0  0  0  0  0  0
   46.3250   33.8340   44.4160 C   0  0  0  0  0  0  0  0  0  0  0  0
   46.1520   33.2560   45.6540 N   0  0  0  0  0  0  0  0  0  0  0  0
   45.2850   33.7120   46.5400 C   0  0  0  0  0  0  0  0  0  0  0  0
   44.5600   34.7770   46.1970 N   0  0  0  0  0  0  0  0  0  0  0  0
   45.7460   35.5570   42.7560 C   0  0  0  0  0  0  0  0  0  0  0  0
   44.8620   36.6470   42.7150 F   0  0  0  0  0  0  0  0  0  0  0  0
   45.2670   34.7230   41.7450 F   0  0  0  0  0  0  0  0  0  0  0  0
   47.0120   35.9590   42.4920 F   0  0  0  0  0  0  0  0  0  0  0  0
   47.3130   33.1770   43.6190 C   0  0  0  0  0  0  0  0  0  0  0  0
   47.2430   32.0120   43.1550 O   0  0  0  0  0  0  0  0  0  0  0  0
   48.5530   33.3700   43.0570 O   0  0  0  0  0  0  0  0  0  0  0  0
   48.8930   33.0900   38.5130 N   0  0  0  0  0  0  0  0  0  0  0  0
   48.1360   34.1300   38.9110 C   0  0  0  0  0  0  0  0  0  0  0  0
   48.0810   34.1470   40.2680 N   0  0  0  0  0  0  0  0  0  0  0  0
   48.7940   33.1300   40.7810 C   0  0  0  0  0  0  0  0  0  0  0  0
   49.1040   32.6460   42.0410 C   0  0  0  0  0  0  0  0  0  0  0  0
   49.8850   31.5520   42.1530 N   0  0  0  0  0  0  0  0  0  0  0  0
   50.3490   30.9500   41.0630 C   0  0  0  0  0  0  0  0  0  0  0  0
   50.0690   31.3930   39.8220 N   0  0  0  0  0  0  0  0  0  0  0  0
   49.2910   32.4840   39.6490 C   0  0  0  0  0  0  0  0  0  0  0  0
   45.0690   33.1770   47.7920 O   0  0  0  0  0  0  0  0  0  0  0  0
   45.8660   32.1710   48.3370 C   0  0  0  0  0  0  0  0  0  0  0  0
   47.1920   32.5260   48.4090 F   0  0  0  0  0  0  0  0  0  0  0  0
   45.6730   30.9660   47.7000 F   0  0  0  0  0  0  0  0  0  0  0  0
   45.4600   32.0300   49.6830 F   0  0  0  0  0  0  0  0  0  0  0  0
   44.0512   36.2609   44.7888 H   0  0  0  0  0  0  0  0  0  0  0  0
   49.1196   32.8160   37.5463 H   0  0  0  0  0  0  0  0  0  0  0  0
   47.6411   34.8508   38.2436 H   0  0  0  0  0  0  0  0  0  0  0  0
   50.9838   30.0590   41.1780 H   0  0  0  0  0  0  0  0  0  0  0  0
  1  6  2  0
  2  3  2  0
  2  1  1  0
  3  4  1  0
  4  5  2  0
  5 23  1  0
  6  5  1  0
  7  2  1  0
  8  7  1  0
  9  7  1  0
 10  7  1  0
 11  3  1  0
 12 11  2  0
 13 11  1  0
 14 15  1  0
 14 22  1  0
 15 16  2  0
 16 17  1  0
 17 18  2  0
 18 19  1  0
 18 13  1  0
 20 19  2  0
 21 20  1  0
 22 21  2  0
 22 17  1  0
 23 24  1  0
 24 25  1  0
 24 27  1  0
 26 24  1  0
  1 28  1  0
 14 29  1  0
 15 30  1  0
 20 31  1  0
M  ISO  4  28  14  29   9  30  14  31  14
M  END
>  <minimizedAffinity>  (1) 
-6.04164171

>  <minimizedRMSD>  (1) 
1.15629029

$$$$
