
     RDKit          3D

 34 36  0  0  0  0  0  0  0  0999 V2000
   44.7190   35.3740   44.9780 C   0  0  0  0  0  0  0  0  0  0  0  0
   45.6100   34.8790   44.0480 C   0  0  0  0  0  0  0  0  0  0  0  0
   46.3370   33.7780   44.4000 C   0  0  0  0  0  0  0  0  0  0  0  0
   46.1550   33.2200   45.6420 N   0  0  0  0  0  0  0  0  0  0  0  0
   45.2960   33.7080   46.5240 C   0  0  0  0  0  0  0  0  0  0  0  0
   44.5930   34.7810   46.1680 N   0  0  0  0  0  0  0  0  0  0  0  0
   45.7790   35.5030   42.7210 C   0  0  0  0  0  0  0  0  0  0  0  0
   44.9100   36.6040   42.6750 F   0  0  0  0  0  0  0  0  0  0  0  0
   45.3070   34.6790   41.7150 F   0  0  0  0  0  0  0  0  0  0  0  0
   47.0580   35.8940   42.4600 F   0  0  0  0  0  0  0  0  0  0  0  0
   47.3080   33.1020   43.5990 C   0  0  0  0  0  0  0  0  0  0  0  0
   47.1950   31.9510   43.1270 O   0  0  0  0  0  0  0  0  0  0  0  0
   48.5530   33.2570   43.0420 O   0  0  0  0  0  0  0  0  0  0  0  0
   49.0530   32.5980   41.9620 C   0  0  0  0  0  0  0  0  0  0  0  0
   49.8630   31.4670   41.9090 C   0  0  0  0  0  0  0  0  0  0  0  0
   50.1030   31.1780   40.5990 N   0  0  0  0  0  0  0  0  0  0  0  0
   49.4830   32.0760   39.8180 C   0  0  0  0  0  0  0  0  0  0  0  0
   49.4110   32.2270   38.4480 C   0  0  0  0  0  0  0  0  0  0  0  0
   48.6760   33.2760   37.8890 C   0  0  0  0  0  0  0  0  0  0  0  0
   47.9990   34.1950   38.6980 C   0  0  0  0  0  0  0  0  0  0  0  0
   48.1010   34.0010   40.0770 C   0  0  0  0  0  0  0  0  0  0  0  0
   48.8240   32.9670   40.6350 C   0  0  0  0  0  0  0  0  0  0  0  0
   45.0760   33.1900   47.7780 O   0  0  0  0  0  0  0  0  0  0  0  0
   45.8520   32.1700   48.3420 C   0  0  0  0  0  0  0  0  0  0  0  0
   47.1880   32.5170   48.4050 F   0  0  0  0  0  0  0  0  0  0  0  0
   45.6540   30.9720   47.7230 F   0  0  0  0  0  0  0  0  0  0  0  0
   45.4620   32.0600   49.6890 F   0  0  0  0  0  0  0  0  0  0  0  0
   44.1111   36.2590   44.7388 H   0  0  0  0  0  0  0  0  0  0  0  0
   50.2433   30.9043   42.7743 H   0  0  0  0  0  0  0  0  0  0  0  0
   50.6734   30.3902   40.2600 H   0  0  0  0  0  0  0  0  0  0  0  0
   49.9356   31.5170   37.7918 H   0  0  0  0  0  0  0  0  0  0  0  0
   48.6290   33.3808   36.7950 H   0  0  0  0  0  0  0  0  0  0  0  0
   47.4178   35.0255   38.2708 H   0  0  0  0  0  0  0  0  0  0  0  0
   47.5827   34.7026   40.7471 H   0  0  0  0  0  0  0  0  0  0  0  0
  1  6  2  0
  2  3  2  0
  2  1  1  0
  3  4  1  0
  4  5  2  0
  5 23  1  0
  6  5  1  0
  7  2  1  0
  8  7  1  0
  9  7  1  0
 10  7  1  0
 11  3  1  0
 12 11  2  0
 13 11  1  0
 14 13  1  0
 15 14  2  0
 16 15  1  0
 17 16  1  0
 17 22  2  0
 18 17  1  0
 19 18  2  0
 19 20  1  0
 20 21  2  0
 21 22  1  0
 22 14  1  0
 23 24  1  0
 24 25  1  0
 24 27  1  0
 26 24  1  0
  1 28  1  0
 15 29  1  0
 16 30  1  0
 18 31  1  0
 19 32  1  0
 20 33  1  0
 21 34  1  0
M  ISO  7  28  14  29  14  30   9  31  14  32  14  33  14  34  14
M  END
>  <minimizedAffinity>  (1) 
-6.12087536

>  <minimizedRMSD>  (1) 
0.612639248

$$$$
