
     RDKit          3D

 29 30  0  0  0  0  0  0  0  0999 V2000
   44.7030   35.4390   45.0540 C   0  0  0  0  0  0  0  0  0  0  0  0
   45.5190   34.9800   44.0370 C   0  0  0  0  0  0  0  0  0  0  0  0
   46.2150   33.8250   44.2770 C   0  0  0  0  0  0  0  0  0  0  0  0
   46.0700   33.1970   45.4870 N   0  0  0  0  0  0  0  0  0  0  0  0
   45.2850   33.6540   46.4430 C   0  0  0  0  0  0  0  0  0  0  0  0
   44.6130   34.7710   46.2050 N   0  0  0  0  0  0  0  0  0  0  0  0
   45.6490   35.6800   42.7550 C   0  0  0  0  0  0  0  0  0  0  0  0
   44.7820   36.7820   42.7930 F   0  0  0  0  0  0  0  0  0  0  0  0
   45.1250   34.9170   41.7100 F   0  0  0  0  0  0  0  0  0  0  0  0
   46.9110   36.0670   42.4550 F   0  0  0  0  0  0  0  0  0  0  0  0
   47.1120   33.1630   43.3850 C   0  0  0  0  0  0  0  0  0  0  0  0
   46.9670   32.0080   42.9250 O   0  0  0  0  0  0  0  0  0  0  0  0
   48.3020   33.3470   42.7120 O   0  0  0  0  0  0  0  0  0  0  0  0
   48.4700   33.2070   41.3620 C   0  0  0  0  0  0  0  0  0  0  0  0
   47.9430   34.0750   40.4460 C   0  0  0  0  0  0  0  0  0  0  0  0
   48.0580   34.0200   39.0720 C   0  0  0  0  0  0  0  0  0  0  0  0
   48.8050   32.9430   38.5920 C   0  0  0  0  0  0  0  0  0  0  0  0
   49.3550   32.0420   39.4960 C   0  0  0  0  0  0  0  0  0  0  0  0
   49.1870   32.1790   40.8310 N   0  0  0  0  0  0  0  0  0  0  0  0
   45.1020   33.0610   47.6770 O   0  0  0  0  0  0  0  0  0  0  0  0
   46.0490   32.1990   48.2630 C   0  0  0  0  0  0  0  0  0  0  0  0
   47.3080   32.7390   48.2380 F   0  0  0  0  0  0  0  0  0  0  0  0
   45.9930   30.9320   47.7370 F   0  0  0  0  0  0  0  0  0  0  0  0
   45.7240   32.1460   49.6350 F   0  0  0  0  0  0  0  0  0  0  0  0
   44.1230   36.3629   44.9129 H   0  0  0  0  0  0  0  0  0  0  0  0
   47.3596   34.9147   40.8517 H   0  0  0  0  0  0  0  0  0  0  0  0
   47.5974   34.7659   38.4075 H   0  0  0  0  0  0  0  0  0  0  0  0
   48.9566   32.8089   37.5108 H   0  0  0  0  0  0  0  0  0  0  0  0
   49.9432   31.1940   39.1152 H   0  0  0  0  0  0  0  0  0  0  0  0
  1  6  2  0
  2  3  2  0
  2  1  1  0
  3  4  1  0
  4  5  2  0
  5 20  1  0
  6  5  1  0
  7  8  1  0
  7  2  1  0
  9  7  1  0
 10  7  1  0
 11  3  1  0
 12 11  2  0
 13 11  1  0
 14 13  1  0
 15 14  2  0
 16 15  1  0
 17 16  2  0
 17 18  1  0
 18 19  2  0
 19 14  1  0
 20 21  1  0
 21 24  1  0
 22 21  1  0
 23 21  1  0
  1 25  1  0
 15 26  1  0
 16 27  1  0
 17 28  1  0
 18 29  1  0
M  ISO  5  25  14  26  14  27  14  28  14  29  14
M  END
>  <minimizedAffinity>  (1) 
-5.59134054

>  <minimizedRMSD>  (1) 
1.37404203

$$$$
