
     RDKit          3D

 28 29  0  0  0  0  0  0  0  0999 V2000
   44.7490   35.2920   44.9240 C   0  0  0  0  0  0  0  0  0  0  0  0
   45.6840   34.8220   44.0280 C   0  0  0  0  0  0  0  0  0  0  0  0
   46.4530   33.7660   44.4170 C   0  0  0  0  0  0  0  0  0  0  0  0
   46.2660   33.2270   45.6620 N   0  0  0  0  0  0  0  0  0  0  0  0
   45.3660   33.6830   46.5180 C   0  0  0  0  0  0  0  0  0  0  0  0
   44.6190   34.7190   46.1200 N   0  0  0  0  0  0  0  0  0  0  0  0
   45.8620   35.4230   42.6940 C   0  0  0  0  0  0  0  0  0  0  0  0
   44.9480   36.4820   42.5950 F   0  0  0  0  0  0  0  0  0  0  0  0
   45.4400   34.5560   41.6880 F   0  0  0  0  0  0  0  0  0  0  0  0
   47.1260   35.8570   42.4510 F   0  0  0  0  0  0  0  0  0  0  0  0
   47.4760   33.1160   43.6610 C   0  0  0  0  0  0  0  0  0  0  0  0
   47.5170   31.9000   43.3490 O   0  0  0  0  0  0  0  0  0  0  0  0
   48.6660   33.3550   43.0170 O   0  0  0  0  0  0  0  0  0  0  0  0
   49.0190   32.9040   41.7860 C   0  0  0  0  0  0  0  0  0  0  0  0
   50.0560   32.0720   41.4180 C   0  0  0  0  0  0  0  0  0  0  0  0
   50.2860   31.7000   40.1100 C   0  0  0  0  0  0  0  0  0  0  0  0
   49.4270   32.2020   39.1770 N   0  0  0  0  0  0  0  0  0  0  0  0
   48.4160   33.0090   39.5030 C   0  0  0  0  0  0  0  0  0  0  0  0
   48.2090   33.3590   40.7860 N   0  0  0  0  0  0  0  0  0  0  0  0
   45.1290   33.1890   47.7790 O   0  0  0  0  0  0  0  0  0  0  0  0
   45.8840   32.1420   48.3400 C   0  0  0  0  0  0  0  0  0  0  0  0
   47.2090   32.4830   48.4380 F   0  0  0  0  0  0  0  0  0  0  0  0
   45.6840   30.9500   47.7080 F   0  0  0  0  0  0  0  0  0  0  0  0
   45.4450   32.0400   49.6780 F   0  0  0  0  0  0  0  0  0  0  0  0
   44.1077   36.1431   44.6512 H   0  0  0  0  0  0  0  0  0  0  0  0
   50.7276   31.6892   42.2006 H   0  0  0  0  0  0  0  0  0  0  0  0
   51.1172   31.0345   39.8341 H   0  0  0  0  0  0  0  0  0  0  0  0
   47.7470   33.3910   38.7178 H   0  0  0  0  0  0  0  0  0  0  0  0
  1  6  2  0
  2  3  2  0
  2  1  1  0
  3  4  1  0
  4  5  2  0
  5 20  1  0
  6  5  1  0
  7  2  1  0
  8  7  1  0
  9  7  1  0
 10  7  1  0
 11  3  1  0
 12 11  2  0
 13 11  1  0
 14 13  1  0
 15 14  2  0
 16 15  1  0
 17 18  1  0
 17 16  2  0
 18 19  2  0
 19 14  1  0
 20 21  1  0
 21 22  1  0
 21 24  1  0
 23 21  1  0
  1 25  1  0
 15 26  1  0
 16 27  1  0
 18 28  1  0
M  ISO  4  25  14  26  14  27  14  28  14
M  END
>  <minimizedAffinity>  (1) 
-5.54191589

>  <minimizedRMSD>  (1) 
0.833606541

$$$$
