
     RDKit          3D

 27 28  0  0  0  0  0  0  0  0999 V2000
   44.7320   35.4780   45.0610 C   0  0  0  0  0  0  0  0  0  0  0  0
   45.4630   34.9900   43.9860 C   0  0  0  0  0  0  0  0  0  0  0  0
   46.0930   33.7790   44.1600 C   0  0  0  0  0  0  0  0  0  0  0  0
   45.9770   33.1250   45.3480 N   0  0  0  0  0  0  0  0  0  0  0  0
   45.2690   33.6150   46.3650 C   0  0  0  0  0  0  0  0  0  0  0  0
   44.6650   34.7840   46.1890 N   0  0  0  0  0  0  0  0  0  0  0  0
   45.5660   35.7260   42.7150 C   0  0  0  0  0  0  0  0  0  0  0  0
   44.7570   36.8620   42.8350 F   0  0  0  0  0  0  0  0  0  0  0  0
   44.9850   35.0200   41.6800 F   0  0  0  0  0  0  0  0  0  0  0  0
   46.8320   36.0770   42.3880 F   0  0  0  0  0  0  0  0  0  0  0  0
   46.8900   33.0960   43.1930 C   0  0  0  0  0  0  0  0  0  0  0  0
   46.6870   31.9440   42.7460 O   0  0  0  0  0  0  0  0  0  0  0  0
   48.0170   33.2550   42.4160 O   0  0  0  0  0  0  0  0  0  0  0  0
   48.1690   33.3070   41.1370 C   0  0  0  0  0  0  0  0  0  0  0  0
   47.7690   34.1830   40.1350 C   0  0  0  0  0  0  0  0  0  0  0  0
   48.0680   34.0080   38.8200 C   0  0  0  0  0  0  0  0  0  0  0  0
   48.8710   32.7940   38.4690 C   0  0  0  0  0  0  0  0  0  0  0  0
   49.1290   31.9890   40.1660 S   0  0  0  0  0  0  0  0  0  0  0  0
   45.1180   32.9940   47.5910 O   0  0  0  0  0  0  0  0  0  0  0  0
   46.1180   32.2010   48.1800 C   0  0  0  0  0  0  0  0  0  0  0  0
   47.3520   32.8090   48.1120 F   0  0  0  0  0  0  0  0  0  0  0  0
   46.1330   30.9270   47.6940 F   0  0  0  0  0  0  0  0  0  0  0  0
   45.8390   32.1780   49.5600 F   0  0  0  0  0  0  0  0  0  0  0  0
   44.2079   36.4414   44.9768 H   0  0  0  0  0  0  0  0  0  0  0  0
   47.1785   35.0658   40.4211 H   0  0  0  0  0  0  0  0  0  0  0  0
   47.7364   34.7227   38.0524 H   0  0  0  0  0  0  0  0  0  0  0  0
   49.2207   32.4566   37.4822 H   0  0  0  0  0  0  0  0  0  0  0  0
  1  6  2  0
  2  3  2  0
  2  1  1  0
  3  4  1  0
  4  5  2  0
  5 19  1  0
  6  5  1  0
  7  8  1  0
  7  2  1  0
  9  7  1  0
 10  7  1  0
 11  3  1  0
 12 11  2  0
 13 11  1  0
 14 13  1  0
 15 14  2  0
 16 15  1  0
 17 16  2  0
 17 18  1  0
 18 14  1  0
 19 20  1  0
 20 23  1  0
 21 20  1  0
 22 20  1  0
  1 24  1  0
 15 25  1  0
 16 26  1  0
 17 27  1  0
M  ISO  4  24  14  25  14  26  14  27  14
M  END
>  <minimizedAffinity>  (1) 
-5.37498951

>  <minimizedRMSD>  (1) 
1.5605278

$$$$
