
     RDKit          3D

 23 23  0  0  0  0  0  0  0  0999 V2000
   44.6900   35.4000   45.0110 C   0  0  0  0  0  0  0  0  0  0  0  0
   45.5630   34.9020   44.0630 C   0  0  0  0  0  0  0  0  0  0  0  0
   46.2960   33.7790   44.3790 C   0  0  0  0  0  0  0  0  0  0  0  0
   46.1140   33.2240   45.6170 N   0  0  0  0  0  0  0  0  0  0  0  0
   45.2700   33.7160   46.5160 C   0  0  0  0  0  0  0  0  0  0  0  0
   44.5780   34.7940   46.1910 N   0  0  0  0  0  0  0  0  0  0  0  0
   45.7200   35.5420   42.7380 C   0  0  0  0  0  0  0  0  0  0  0  0
   44.9590   36.7120   42.7520 F   0  0  0  0  0  0  0  0  0  0  0  0
   45.1010   34.7870   41.7400 F   0  0  0  0  0  0  0  0  0  0  0  0
   47.0030   35.8000   42.3960 F   0  0  0  0  0  0  0  0  0  0  0  0
   47.2440   33.1010   43.5540 C   0  0  0  0  0  0  0  0  0  0  0  0
   46.9600   32.1100   42.8190 O   0  0  0  0  0  0  0  0  0  0  0  0
   48.5530   33.1250   43.2060 O   0  0  0  0  0  0  0  0  0  0  0  0
   49.2010   32.2580   42.3220 C   0  0  0  0  0  0  0  0  0  0  0  0
   45.0650   33.1760   47.7750 O   0  0  0  0  0  0  0  0  0  0  0  0
   45.8610   32.1620   48.3250 C   0  0  0  0  0  0  0  0  0  0  0  0
   47.1870   32.5300   48.3890 F   0  0  0  0  0  0  0  0  0  0  0  0
   45.6630   30.9650   47.6960 F   0  0  0  0  0  0  0  0  0  0  0  0
   45.4770   32.0460   49.6750 F   0  0  0  0  0  0  0  0  0  0  0  0
   44.0891   36.2948   44.7913 H   0  0  0  0  0  0  0  0  0  0  0  0
   49.7637   31.5051   42.8933 H   0  0  0  0  0  0  0  0  0  0  0  0
   48.4552   31.7556   41.6884 H   0  0  0  0  0  0  0  0  0  0  0  0
   49.8941   32.8309   41.6884 H   0  0  0  0  0  0  0  0  0  0  0  0
  1  6  2  0
  2  3  2  0
  2  1  1  0
  3  4  1  0
  4  5  2  0
  5 15  1  0
  6  5  1  0
  7  8  1  0
  7  2  1  0
  9  7  1  0
 10  7  1  0
 11  3  1  0
 12 11  2  0
 13 11  1  0
 14 13  1  0
 15 16  1  0
 16 17  1  0
 16 19  1  0
 18 16  1  0
  1 20  1  0
 14 21  1  0
 14 22  1  0
 14 23  1  0
M  ISO  4  20  14  21   8  22   8  23   8
M  END
>  <minimizedAffinity>  (1) 
-4.96707821

>  <minimizedRMSD>  (1) 
0.0384409204

$$$$
