
     RDKit          3D

 36 38  0  0  0  0  0  0  0  0999 V2000
   47.3040   32.9700   43.6000 C   0  0  0  0  0  0  0  0  0  0  0  0
   47.3110   31.7510   43.3450 O   0  0  0  0  0  0  0  0  0  0  0  0
   44.7590   35.3190   44.9410 C   0  0  0  0  0  0  0  0  0  0  0  0
   45.6400   34.7870   44.0110 C   0  0  0  0  0  0  0  0  0  0  0  0
   46.3560   33.6720   44.3880 C   0  0  0  0  0  0  0  0  0  0  0  0
   46.1710   33.1510   45.6360 N   0  0  0  0  0  0  0  0  0  0  0  0
   45.3290   33.6650   46.5140 C   0  0  0  0  0  0  0  0  0  0  0  0
   44.6410   34.7350   46.1520 N   0  0  0  0  0  0  0  0  0  0  0  0
   45.8120   35.3780   42.6770 C   0  0  0  0  0  0  0  0  0  0  0  0
   44.9820   36.5060   42.6180 F   0  0  0  0  0  0  0  0  0  0  0  0
   45.3000   34.5500   41.6970 F   0  0  0  0  0  0  0  0  0  0  0  0
   47.0990   35.7210   42.3900 F   0  0  0  0  0  0  0  0  0  0  0  0
   45.0980   33.1880   47.7790 O   0  0  0  0  0  0  0  0  0  0  0  0
   45.8560   32.1400   48.3540 C   0  0  0  0  0  0  0  0  0  0  0  0
   47.2020   32.5060   48.4280 F   0  0  0  0  0  0  0  0  0  0  0  0
   45.6620   30.9370   47.7560 F   0  0  0  0  0  0  0  0  0  0  0  0
   45.4520   32.0520   49.6990 F   0  0  0  0  0  0  0  0  0  0  0  0
   48.4530   33.1870   42.8620 O   0  0  0  0  0  0  0  0  0  0  0  0
   48.6720   32.8040   41.5780 C   0  0  0  0  0  0  0  0  0  0  0  0
   47.6460   32.7920   40.4890 C   0  0  0  0  0  0  0  0  0  0  0  0
   48.6130   32.1810   39.0900 S   0  0  0  0  0  0  0  0  0  0  0  0
   50.1910   32.0370   40.1260 C   0  0  0  0  0  0  0  0  0  0  0  0
   49.8760   32.4010   41.2330 N   0  0  0  0  0  0  0  0  0  0  0  0
   51.4930   31.5670   39.6080 N   0  0  0  0  0  0  0  0  0  0  0  0
   52.4070   31.1300   40.5080 C   0  0  0  0  0  0  0  0  0  0  0  0
   53.6340   30.6870   40.0140 C   0  0  0  0  0  0  0  0  0  0  0  0
   53.8560   30.7140   38.6530 C   0  0  0  0  0  0  0  0  0  0  0  0
   54.9930   30.2970   38.2810 O   0  0  0  0  0  0  0  0  0  0  0  0
   52.9030   31.1610   37.8220 N   0  0  0  0  0  0  0  0  0  0  0  0
   51.7160   31.5920   38.2710 C   0  0  0  0  0  0  0  0  0  0  0  0
   50.8440   32.0040   37.4620 O   0  0  0  0  0  0  0  0  0  0  0  0
   44.1618   36.2090   44.6937 H   0  0  0  0  0  0  0  0  0  0  0  0
   46.5848   33.0789   40.5293 H   0  0  0  0  0  0  0  0  0  0  0  0
   52.1898   31.1248   41.5863 H   0  0  0  0  0  0  0  0  0  0  0  0
   54.4128   30.3216   40.6996 H   0  0  0  0  0  0  0  0  0  0  0  0
   53.0887   31.1734   36.8090 H   0  0  0  0  0  0  0  0  0  0  0  0
  1  5  1  0
  2  1  2  0
  3  8  2  0
  4  5  2  0
  4  3  1  0
  5  6  1  0
  6  7  2  0
  7 13  1  0
  8  7  1  0
  9  4  1  0
 10  9  1  0
 11  9  1  0
 12  9  1  0
 13 14  1  0
 14 15  1  0
 14 17  1  0
 16 14  1  0
 18  1  1  0
 19 18  1  0
 20 19  2  0
 21 22  1  0
 21 20  1  0
 22 23  2  0
 23 19  1  0
 24 22  1  0
 24 25  1  0
 26 25  2  0
 27 26  1  0
 28 27  2  0
 29 30  1  0
 29 27  1  0
 30 24  1  0
 31 30  2  0
  3 32  1  0
 20 33  1  0
 25 34  1  0
 26 35  1  0
 29 36  1  0
M  ISO  5  32  14  33  14  34  14  35  14  36   9
M  END
>  <minimizedAffinity>  (1) 
-6.49564171

>  <minimizedRMSD>  (1) 
0.589434206

$$$$
