
     RDKit          3D

 36 38  0  0  0  0  0  0  0  0999 V2000
   47.4820   32.9960   43.6390 C   0  0  0  0  0  0  0  0  0  0  0  0
   47.5220   31.7730   43.3960 O   0  0  0  0  0  0  0  0  0  0  0  0
   44.8040   35.2620   44.8870 C   0  0  0  0  0  0  0  0  0  0  0  0
   45.7330   34.7590   43.9790 C   0  0  0  0  0  0  0  0  0  0  0  0
   46.4800   33.6720   44.3990 C   0  0  0  0  0  0  0  0  0  0  0  0
   46.2770   33.1590   45.6440 N   0  0  0  0  0  0  0  0  0  0  0  0
   45.3910   33.6490   46.4910 C   0  0  0  0  0  0  0  0  0  0  0  0
   44.6740   34.6860   46.0990 N   0  0  0  0  0  0  0  0  0  0  0  0
   45.9240   35.3370   42.6520 C   0  0  0  0  0  0  0  0  0  0  0  0
   45.0680   36.4440   42.5620 F   0  0  0  0  0  0  0  0  0  0  0  0
   45.4550   34.4890   41.6630 F   0  0  0  0  0  0  0  0  0  0  0  0
   47.2100   35.7130   42.4040 F   0  0  0  0  0  0  0  0  0  0  0  0
   45.1440   33.1720   47.7560 O   0  0  0  0  0  0  0  0  0  0  0  0
   45.8820   32.1290   48.3450 C   0  0  0  0  0  0  0  0  0  0  0  0
   47.2260   32.4830   48.4410 F   0  0  0  0  0  0  0  0  0  0  0  0
   45.7020   30.9270   47.7490 F   0  0  0  0  0  0  0  0  0  0  0  0
   45.4540   32.0640   49.6850 F   0  0  0  0  0  0  0  0  0  0  0  0
   48.6490   33.2640   42.9440 O   0  0  0  0  0  0  0  0  0  0  0  0
   48.9230   32.8610   41.6750 C   0  0  0  0  0  0  0  0  0  0  0  0
   47.9500   32.8990   40.5320 C   0  0  0  0  0  0  0  0  0  0  0  0
   48.9710   32.2280   39.1760 S   0  0  0  0  0  0  0  0  0  0  0  0
   50.4790   32.0090   40.2980 C   0  0  0  0  0  0  0  0  0  0  0  0
   50.1230   32.3920   41.3760 N   0  0  0  0  0  0  0  0  0  0  0  0
   51.7610   31.4600   39.7910 C   0  0  0  0  0  0  0  0  0  0  0  0
   52.5750   30.8400   40.7140 C   0  0  0  0  0  0  0  0  0  0  0  0
   53.7570   30.3410   40.2190 C   0  0  0  0  0  0  0  0  0  0  0  0
   54.0800   30.4660   38.8870 C   0  0  0  0  0  0  0  0  0  0  0  0
   53.2460   31.0900   37.9900 C   0  0  0  0  0  0  0  0  0  0  0  0
   52.0530   31.6010   38.4590 C   0  0  0  0  0  0  0  0  0  0  0  0
   44.1790   36.1257   44.6162 H   0  0  0  0  0  0  0  0  0  0  0  0
   46.9041   33.2394   40.5162 H   0  0  0  0  0  0  0  0  0  0  0  0
   52.2981   30.7503   41.7748 H   0  0  0  0  0  0  0  0  0  0  0  0
   54.4564   29.8332   40.8994 H   0  0  0  0  0  0  0  0  0  0  0  0
   55.0350   30.0538   38.5292 H   0  0  0  0  0  0  0  0  0  0  0  0
   53.5216   31.1794   36.9289 H   0  0  0  0  0  0  0  0  0  0  0  0
   51.3528   32.1095   37.7800 H   0  0  0  0  0  0  0  0  0  0  0  0
  1  5  1  0
  2  1  2  0
  3  8  2  0
  4  5  2  0
  4  3  1  0
  5  6  1  0
  6  7  2  0
  7 13  1  0
  8  7  1  0
  9  4  1  0
 10  9  1  0
 11  9  1  0
 12  9  1  0
 13 14  1  0
 14 15  1  0
 14 17  1  0
 16 14  1  0
 18  1  1  0
 19 18  1  0
 20 19  2  0
 21 22  1  0
 21 20  1  0
 22 23  2  0
 23 19  1  0
 24 22  1  0
 24 25  2  0
 26 25  1  0
 27 26  2  0
 28 29  2  0
 28 27  1  0
 29 24  1  0
  3 30  1  0
 20 31  1  0
 25 32  1  0
 26 33  1  0
 27 34  1  0
 28 35  1  0
 29 36  1  0
M  ISO  7  30  14  31  14  32  14  33  14  34  14  35  14  36  14
M  END
>  <minimizedAffinity>  (1) 
-6.0078187

>  <minimizedRMSD>  (1) 
0.542101502

$$$$
