
     RDKit          3D

 39 41  0  0  0  0  0  0  0  0999 V2000
   44.7170   35.3680   44.9750 C   0  0  0  0  0  0  0  0  0  0  0  0
   45.5950   34.8540   44.0400 C   0  0  0  0  0  0  0  0  0  0  0  0
   46.3170   33.7450   44.3920 C   0  0  0  0  0  0  0  0  0  0  0  0
   46.1350   33.2100   45.6300 N   0  0  0  0  0  0  0  0  0  0  0  0
   45.3000   33.6980   46.5240 C   0  0  0  0  0  0  0  0  0  0  0  0
   44.6070   34.7680   46.1760 N   0  0  0  0  0  0  0  0  0  0  0  0
   45.7490   35.4720   42.7080 C   0  0  0  0  0  0  0  0  0  0  0  0
   44.9340   36.6060   42.6730 F   0  0  0  0  0  0  0  0  0  0  0  0
   45.2000   34.6520   41.7200 F   0  0  0  0  0  0  0  0  0  0  0  0
   47.0220   35.7970   42.4010 F   0  0  0  0  0  0  0  0  0  0  0  0
   47.2690   33.0610   43.5820 C   0  0  0  0  0  0  0  0  0  0  0  0
   47.2950   31.8470   43.3220 O   0  0  0  0  0  0  0  0  0  0  0  0
   48.3950   33.2840   42.8270 O   0  0  0  0  0  0  0  0  0  0  0  0
   48.6100   32.9090   41.5350 C   0  0  0  0  0  0  0  0  0  0  0  0
   47.6210   33.0760   40.4140 C   0  0  0  0  0  0  0  0  0  0  0  0
   48.5630   32.3750   39.0240 S   0  0  0  0  0  0  0  0  0  0  0  0
   50.0750   31.9880   40.1370 C   0  0  0  0  0  0  0  0  0  0  0  0
   49.7730   32.3560   41.2330 N   0  0  0  0  0  0  0  0  0  0  0  0
   51.0810   31.3910   39.2860 N   0  0  0  0  0  0  0  0  0  0  0  0
   51.4840   31.7220   37.9470 C   0  0  0  0  0  0  0  0  0  0  0  0
   52.9280   31.2140   37.7880 C   0  0  0  0  0  0  0  0  0  0  0  0
   53.7040   31.5010   38.9050 O   0  0  0  0  0  0  0  0  0  0  0  0
   53.3270   30.7110   39.9760 C   0  0  0  0  0  0  0  0  0  0  0  0
   51.8620   30.2690   39.8300 C   0  0  0  0  0  0  0  0  0  0  0  0
   45.0850   33.1990   47.7840 O   0  0  0  0  0  0  0  0  0  0  0  0
   45.8650   32.1560   48.3400 C   0  0  0  0  0  0  0  0  0  0  0  0
   47.1940   32.5020   48.4110 F   0  0  0  0  0  0  0  0  0  0  0  0
   45.6570   30.9650   47.7090 F   0  0  0  0  0  0  0  0  0  0  0  0
   45.4730   32.0440   49.6850 F   0  0  0  0  0  0  0  0  0  0  0  0
   44.1142   36.2579   44.7410 H   0  0  0  0  0  0  0  0  0  0  0  0
   46.6078   33.5039   40.4301 H   0  0  0  0  0  0  0  0  0  0  0  0
   50.8247   31.2276   37.2184 H   0  0  0  0  0  0  0  0  0  0  0  0
   51.4213   32.8056   37.7687 H   0  0  0  0  0  0  0  0  0  0  0  0
   52.9074   30.1242   37.6397 H   0  0  0  0  0  0  0  0  0  0  0  0
   53.3754   31.7235   36.9218 H   0  0  0  0  0  0  0  0  0  0  0  0
   53.9717   29.8205   40.0135 H   0  0  0  0  0  0  0  0  0  0  0  0
   53.4317   31.2945   40.9026 H   0  0  0  0  0  0  0  0  0  0  0  0
   51.4622   29.9828   40.8140 H   0  0  0  0  0  0  0  0  0  0  0  0
   51.7977   29.4051   39.1522 H   0  0  0  0  0  0  0  0  0  0  0  0
  1  6  2  0
  2  3  2  0
  2  1  1  0
  3  4  1  0
  4  5  2  0
  5 25  1  0
  6  5  1  0
  7  2  1  0
  8  7  1  0
  9  7  1  0
 10  7  1  0
 11  3  1  0
 12 11  2  0
 13 11  1  0
 14 13  1  0
 15 14  2  0
 16 17  1  0
 16 15  1  0
 17 18  2  0
 18 14  1  0
 19 24  1  0
 19 17  1  0
 20 19  1  0
 21 20  1  0
 21 22  1  0
 22 23  1  0
 24 23  1  0
 25 26  1  0
 26 27  1  0
 26 29  1  0
 28 26  1  0
  1 30  1  0
 15 31  1  0
 20 32  1  0
 20 33  1  0
 21 34  1  0
 21 35  1  0
 23 36  1  0
 23 37  1  0
 24 38  1  0
 24 39  1  0
M  ISO  8  30  14  31  14  32  13  33  13  34  13  35  13  36  13  37  13
M  ISO  2  38  13  39  13
M  END
>  <minimizedAffinity>  (1) 
-6.21207952

>  <minimizedRMSD>  (1) 
0.372427344

$$$$
