
     RDKit          3D

 33 35  0  0  0  0  0  0  0  0999 V2000
   44.7840   35.2580   44.8790 C   0  0  0  0  0  0  0  0  0  0  0  0
   45.7330   34.7600   43.9950 C   0  0  0  0  0  0  0  0  0  0  0  0
   46.4970   33.6950   44.4220 C   0  0  0  0  0  0  0  0  0  0  0  0
   46.2940   33.1850   45.6700 N   0  0  0  0  0  0  0  0  0  0  0  0
   45.3900   33.6620   46.5070 C   0  0  0  0  0  0  0  0  0  0  0  0
   44.6570   34.6840   46.0980 N   0  0  0  0  0  0  0  0  0  0  0  0
   45.9230   35.3370   42.6580 C   0  0  0  0  0  0  0  0  0  0  0  0
   45.0390   36.4170   42.5470 F   0  0  0  0  0  0  0  0  0  0  0  0
   45.4820   34.4700   41.6760 F   0  0  0  0  0  0  0  0  0  0  0  0
   47.1990   35.7390   42.4090 F   0  0  0  0  0  0  0  0  0  0  0  0
   47.5140   33.0400   43.6780 C   0  0  0  0  0  0  0  0  0  0  0  0
   47.5730   31.8060   43.4210 O   0  0  0  0  0  0  0  0  0  0  0  0
   48.6920   33.3110   43.0020 O   0  0  0  0  0  0  0  0  0  0  0  0
   49.0050   32.8870   41.7480 C   0  0  0  0  0  0  0  0  0  0  0  0
   48.0900   32.9210   40.5610 C   0  0  0  0  0  0  0  0  0  0  0  0
   49.1510   32.2110   39.2870 S   0  0  0  0  0  0  0  0  0  0  0  0
   50.6010   31.9840   40.4640 C   0  0  0  0  0  0  0  0  0  0  0  0
   50.2000   32.3940   41.5120 N   0  0  0  0  0  0  0  0  0  0  0  0
   51.8640   31.4150   40.0180 N   0  0  0  0  0  0  0  0  0  0  0  0
   52.7210   30.7900   40.7950 N   0  0  0  0  0  0  0  0  0  0  0  0
   53.7890   30.3850   40.0690 C   0  0  0  0  0  0  0  0  0  0  0  0
   53.5340   30.8100   38.7600 C   0  0  0  0  0  0  0  0  0  0  0  0
   52.3160   31.4560   38.7510 C   0  0  0  0  0  0  0  0  0  0  0  0
   45.1380   33.1940   47.7690 O   0  0  0  0  0  0  0  0  0  0  0  0
   45.8680   32.1390   48.3560 C   0  0  0  0  0  0  0  0  0  0  0  0
   47.2200   32.4750   48.4580 F   0  0  0  0  0  0  0  0  0  0  0  0
   45.6690   30.9370   47.7460 F   0  0  0  0  0  0  0  0  0  0  0  0
   45.4370   32.0540   49.6940 F   0  0  0  0  0  0  0  0  0  0  0  0
   44.1452   36.1064   44.5923 H   0  0  0  0  0  0  0  0  0  0  0  0
   47.0532   33.2811   40.4871 H   0  0  0  0  0  0  0  0  0  0  0  0
   54.6715   29.8373   40.4313 H   0  0  0  0  0  0  0  0  0  0  0  0
   54.1903   30.6557   37.8908 H   0  0  0  0  0  0  0  0  0  0  0  0
   51.8154   31.9122   37.8843 H   0  0  0  0  0  0  0  0  0  0  0  0
  1  6  2  0
  2  3  2  0
  2  1  1  0
  3  4  1  0
  4  5  2  0
  5 24  1  0
  6  5  1  0
  7  2  1  0
  8  7  1  0
  9  7  1  0
 10  7  1  0
 11  3  1  0
 12 11  2  0
 13 11  1  0
 14 13  1  0
 15 14  2  0
 16 17  1  0
 16 15  1  0
 17 18  2  0
 18 14  1  0
 19 17  1  0
 19 20  1  0
 21 20  2  0
 22 21  1  0
 23 22  2  0
 23 19  1  0
 24 25  1  0
 25 26  1  0
 25 28  1  0
 27 25  1  0
  1 29  1  0
 15 30  1  0
 21 31  1  0
 22 32  1  0
 23 33  1  0
M  ISO  5  29  14  30  14  31  14  32  14  33  14
M  END
>  <minimizedAffinity>  (1) 
-6.10529613

>  <minimizedRMSD>  (1) 
0.386627138

$$$$
