
     RDKit          3D

 32 34  0  0  0  0  0  0  0  0999 V2000
   44.7470   35.2870   44.9180 C   0  0  0  0  0  0  0  0  0  0  0  0
   45.6830   34.8000   44.0130 C   0  0  0  0  0  0  0  0  0  0  0  0
   46.4480   33.7280   44.4280 C   0  0  0  0  0  0  0  0  0  0  0  0
   46.2570   33.2090   45.6740 N   0  0  0  0  0  0  0  0  0  0  0  0
   45.3650   33.6800   46.5270 C   0  0  0  0  0  0  0  0  0  0  0  0
   44.6300   34.7050   46.1340 N   0  0  0  0  0  0  0  0  0  0  0  0
   45.8590   35.3830   42.6830 C   0  0  0  0  0  0  0  0  0  0  0  0
   44.9810   36.4710   42.5930 F   0  0  0  0  0  0  0  0  0  0  0  0
   45.4010   34.5260   41.6980 F   0  0  0  0  0  0  0  0  0  0  0  0
   47.1360   35.7760   42.4190 F   0  0  0  0  0  0  0  0  0  0  0  0
   47.4540   33.0760   43.6730 C   0  0  0  0  0  0  0  0  0  0  0  0
   47.5260   31.8410   43.4270 O   0  0  0  0  0  0  0  0  0  0  0  0
   48.6130   33.3430   42.9650 O   0  0  0  0  0  0  0  0  0  0  0  0
   48.9060   32.9140   41.7120 C   0  0  0  0  0  0  0  0  0  0  0  0
   47.9780   32.9560   40.5380 C   0  0  0  0  0  0  0  0  0  0  0  0
   49.0010   32.2390   39.2340 S   0  0  0  0  0  0  0  0  0  0  0  0
   50.4720   31.9970   40.3990 C   0  0  0  0  0  0  0  0  0  0  0  0
   50.0990   32.4100   41.4670 N   0  0  0  0  0  0  0  0  0  0  0  0
   51.8080   31.4140   40.0510 N   0  0  0  0  0  0  0  0  0  0  0  0
   52.3950   31.4500   38.8490 C   0  0  0  0  0  0  0  0  0  0  0  0
   53.5800   30.7970   39.0290 N   0  0  0  0  0  0  0  0  0  0  0  0
   53.6800   30.3860   40.3210 C   0  0  0  0  0  0  0  0  0  0  0  0
   52.5580   30.7860   40.9380 N   0  0  0  0  0  0  0  0  0  0  0  0
   45.1240   33.2070   47.7890 O   0  0  0  0  0  0  0  0  0  0  0  0
   45.8550   32.1380   48.3580 C   0  0  0  0  0  0  0  0  0  0  0  0
   47.2050   32.4820   48.4530 F   0  0  0  0  0  0  0  0  0  0  0  0
   45.6510   30.9470   47.7420 F   0  0  0  0  0  0  0  0  0  0  0  0
   45.4380   32.0440   49.7000 F   0  0  0  0  0  0  0  0  0  0  0  0
   44.1062   36.1392   44.6477 H   0  0  0  0  0  0  0  0  0  0  0  0
   46.9437   33.3266   40.4839 H   0  0  0  0  0  0  0  0  0  0  0  0
   52.0094   31.9037   37.9241 H   0  0  0  0  0  0  0  0  0  0  0  0
   54.5173   29.8335   40.7723 H   0  0  0  0  0  0  0  0  0  0  0  0
  1  6  2  0
  2  3  2  0
  2  1  1  0
  3  4  1  0
  4  5  2  0
  5 24  1  0
  6  5  1  0
  7  2  1  0
  8  7  1  0
  9  7  1  0
 10  7  1  0
 11  3  1  0
 12 11  2  0
 13 11  1  0
 14 13  1  0
 15 14  2  0
 16 17  1  0
 16 15  1  0
 17 18  2  0
 18 14  1  0
 19 17  1  0
 19 23  1  0
 20 21  2  0
 20 19  1  0
 21 22  1  0
 22 23  2  0
 24 25  1  0
 25 26  1  0
 25 28  1  0
 27 25  1  0
  1 29  1  0
 15 30  1  0
 20 31  1  0
 22 32  1  0
M  ISO  4  29  14  30  14  31  14  32  14
M  END
>  <minimizedAffinity>  (1) 
-6.08048487

>  <minimizedRMSD>  (1) 
0.341074914

$$$$
