
     RDKit          3D

 33 35  0  0  0  0  0  0  0  0999 V2000
   44.8120   35.2330   44.8730 C   0  0  0  0  0  0  0  0  0  0  0  0
   45.7570   34.7420   43.9820 C   0  0  0  0  0  0  0  0  0  0  0  0
   46.5160   33.6730   44.4160 C   0  0  0  0  0  0  0  0  0  0  0  0
   46.3060   33.1640   45.6620 N   0  0  0  0  0  0  0  0  0  0  0  0
   45.4040   33.6430   46.4960 C   0  0  0  0  0  0  0  0  0  0  0  0
   44.6770   34.6660   46.0850 N   0  0  0  0  0  0  0  0  0  0  0  0
   45.9540   35.3140   42.6460 C   0  0  0  0  0  0  0  0  0  0  0  0
   45.0760   36.4000   42.5330 F   0  0  0  0  0  0  0  0  0  0  0  0
   45.5120   34.4440   41.6670 F   0  0  0  0  0  0  0  0  0  0  0  0
   47.2320   35.7080   42.4000 F   0  0  0  0  0  0  0  0  0  0  0  0
   47.5320   33.0110   43.6750 C   0  0  0  0  0  0  0  0  0  0  0  0
   47.5850   31.7770   43.4200 O   0  0  0  0  0  0  0  0  0  0  0  0
   48.7110   33.2750   43.0000 O   0  0  0  0  0  0  0  0  0  0  0  0
   49.0170   32.8600   41.7410 C   0  0  0  0  0  0  0  0  0  0  0  0
   48.0900   32.8830   40.5630 C   0  0  0  0  0  0  0  0  0  0  0  0
   49.1450   32.1950   39.2730 S   0  0  0  0  0  0  0  0  0  0  0  0
   50.6110   31.9880   40.4310 C   0  0  0  0  0  0  0  0  0  0  0  0
   50.2210   32.3880   41.4970 N   0  0  0  0  0  0  0  0  0  0  0  0
   51.8390   31.4310   39.8760 C   0  0  0  0  0  0  0  0  0  0  0  0
   52.7720   30.7870   40.5510 C   0  0  0  0  0  0  0  0  0  0  0  0
   53.8770   30.3190   39.8910 C   0  0  0  0  0  0  0  0  0  0  0  0
   53.9410   30.5620   38.5050 C   0  0  0  0  0  0  0  0  0  0  0  0
   52.3690   31.4790   38.1970 S   0  0  0  0  0  0  0  0  0  0  0  0
   45.1440   33.1780   47.7580 O   0  0  0  0  0  0  0  0  0  0  0  0
   45.8810   32.1320   48.3560 C   0  0  0  0  0  0  0  0  0  0  0  0
   47.2280   32.4820   48.4560 F   0  0  0  0  0  0  0  0  0  0  0  0
   45.6900   30.9250   47.7570 F   0  0  0  0  0  0  0  0  0  0  0  0
   45.4460   32.0560   49.6920 F   0  0  0  0  0  0  0  0  0  0  0  0
   44.1754   36.0836   44.5882 H   0  0  0  0  0  0  0  0  0  0  0  0
   47.0470   33.2270   40.5021 H   0  0  0  0  0  0  0  0  0  0  0  0
   52.6633   30.6274   41.6339 H   0  0  0  0  0  0  0  0  0  0  0  0
   54.6769   29.7787   40.4185 H   0  0  0  0  0  0  0  0  0  0  0  0
   54.7267   30.2780   37.7894 H   0  0  0  0  0  0  0  0  0  0  0  0
  1  6  2  0
  2  3  2  0
  2  1  1  0
  3  4  1  0
  4  5  2  0
  5 24  1  0
  6  5  1  0
  7  2  1  0
  8  7  1  0
  9  7  1  0
 10  7  1  0
 11  3  1  0
 12 11  2  0
 13 11  1  0
 14 13  1  0
 15 14  2  0
 16 17  1  0
 16 15  1  0
 17 18  2  0
 18 14  1  0
 19 17  1  0
 19 20  2  0
 21 20  1  0
 22 21  2  0
 23 22  1  0
 23 19  1  0
 24 25  1  0
 25 26  1  0
 25 28  1  0
 27 25  1  0
  1 29  1  0
 15 30  1  0
 20 31  1  0
 21 32  1  0
 22 33  1  0
M  ISO  5  29  14  30  14  31  14  32  14  33  14
M  END
>  <minimizedAffinity>  (1) 
-5.8630724

>  <minimizedRMSD>  (1) 
0.45209834

$$$$
