
     RDKit          3D

 33 35  0  0  0  0  0  0  0  0999 V2000
   44.8180   35.2120   44.8370 C   0  0  0  0  0  0  0  0  0  0  0  0
   45.7810   34.7120   43.9680 C   0  0  0  0  0  0  0  0  0  0  0  0
   46.5480   33.6600   44.4190 C   0  0  0  0  0  0  0  0  0  0  0  0
   46.3350   33.1620   45.6700 N   0  0  0  0  0  0  0  0  0  0  0  0
   45.4160   33.6440   46.4880 C   0  0  0  0  0  0  0  0  0  0  0  0
   44.6820   34.6540   46.0550 N   0  0  0  0  0  0  0  0  0  0  0  0
   45.9800   35.2740   42.6270 C   0  0  0  0  0  0  0  0  0  0  0  0
   45.0670   36.3270   42.4820 F   0  0  0  0  0  0  0  0  0  0  0  0
   45.5930   34.3780   41.6510 F   0  0  0  0  0  0  0  0  0  0  0  0
   47.2470   35.7160   42.4020 F   0  0  0  0  0  0  0  0  0  0  0  0
   47.5800   33.0040   43.6940 C   0  0  0  0  0  0  0  0  0  0  0  0
   47.6580   31.7670   43.4580 O   0  0  0  0  0  0  0  0  0  0  0  0
   48.7580   33.2780   43.0220 O   0  0  0  0  0  0  0  0  0  0  0  0
   49.0980   32.8190   41.7880 C   0  0  0  0  0  0  0  0  0  0  0  0
   48.1900   32.7630   40.5960 C   0  0  0  0  0  0  0  0  0  0  0  0
   49.2860   32.0590   39.3500 S   0  0  0  0  0  0  0  0  0  0  0  0
   50.7430   31.9490   40.5440 C   0  0  0  0  0  0  0  0  0  0  0  0
   50.3190   32.3790   41.5800 N   0  0  0  0  0  0  0  0  0  0  0  0
   51.9820   31.4060   39.9960 C   0  0  0  0  0  0  0  0  0  0  0  0
   52.4930   31.4340   38.7340 C   0  0  0  0  0  0  0  0  0  0  0  0
   53.7010   30.7440   38.8550 C   0  0  0  0  0  0  0  0  0  0  0  0
   53.8760   30.3350   40.1420 N   0  0  0  0  0  0  0  0  0  0  0  0
   52.8160   30.7500   40.8200 N   0  0  0  0  0  0  0  0  0  0  0  0
   45.1580   33.1840   47.7560 O   0  0  0  0  0  0  0  0  0  0  0  0
   45.8770   32.1280   48.3550 C   0  0  0  0  0  0  0  0  0  0  0  0
   47.2270   32.4610   48.4690 F   0  0  0  0  0  0  0  0  0  0  0  0
   45.6820   30.9240   47.7490 F   0  0  0  0  0  0  0  0  0  0  0  0
   45.4350   32.0620   49.6910 F   0  0  0  0  0  0  0  0  0  0  0  0
   44.1758   36.0520   44.5338 H   0  0  0  0  0  0  0  0  0  0  0  0
   47.1374   33.0694   40.5060 H   0  0  0  0  0  0  0  0  0  0  0  0
   52.0576   31.8914   37.8333 H   0  0  0  0  0  0  0  0  0  0  0  0
   54.4070   30.5583   38.0321 H   0  0  0  0  0  0  0  0  0  0  0  0
   54.6768   29.8059   40.5158 H   0  0  0  0  0  0  0  0  0  0  0  0
  1  6  2  0
  2  3  2  0
  2  1  1  0
  3  4  1  0
  4  5  2  0
  5 24  1  0
  6  5  1  0
  7  2  1  0
  8  7  1  0
  9  7  1  0
 10  7  1  0
 11  3  1  0
 12 11  2  0
 13 11  1  0
 14 13  1  0
 15 14  2  0
 16 17  1  0
 16 15  1  0
 17 18  2  0
 18 14  1  0
 19 17  1  0
 19 23  2  0
 20 21  2  0
 20 19  1  0
 21 22  1  0
 22 23  1  0
 24 25  1  0
 25 26  1  0
 25 28  1  0
 27 25  1  0
  1 29  1  0
 15 30  1  0
 20 31  1  0
 21 32  1  0
 22 33  1  0
M  ISO  5  29  14  30  14  31  14  32  14  33   9
M  END
>  <minimizedAffinity>  (1) 
-5.83637142

>  <minimizedRMSD>  (1) 
0.617774367

$$$$
