
     RDKit          3D

 34 36  0  0  0  0  0  0  0  0999 V2000
   44.8180   35.2260   44.8670 C   0  0  0  0  0  0  0  0  0  0  0  0
   45.7590   34.7300   43.9750 C   0  0  0  0  0  0  0  0  0  0  0  0
   46.5170   33.6600   44.4060 C   0  0  0  0  0  0  0  0  0  0  0  0
   46.3040   33.1580   45.6610 N   0  0  0  0  0  0  0  0  0  0  0  0
   45.4010   33.6480   46.4930 C   0  0  0  0  0  0  0  0  0  0  0  0
   44.6790   34.6690   46.0800 N   0  0  0  0  0  0  0  0  0  0  0  0
   45.9520   35.2990   42.6390 C   0  0  0  0  0  0  0  0  0  0  0  0
   45.0610   36.3720   42.5160 F   0  0  0  0  0  0  0  0  0  0  0  0
   45.5200   34.4190   41.6580 F   0  0  0  0  0  0  0  0  0  0  0  0
   47.2260   35.7010   42.3920 F   0  0  0  0  0  0  0  0  0  0  0  0
   47.5290   32.9910   43.6750 C   0  0  0  0  0  0  0  0  0  0  0  0
   47.6050   31.7750   43.4340 O   0  0  0  0  0  0  0  0  0  0  0  0
   48.7040   33.2560   42.9920 O   0  0  0  0  0  0  0  0  0  0  0  0
   49.0170   32.8430   41.7360 C   0  0  0  0  0  0  0  0  0  0  0  0
   48.0900   32.8610   40.5600 C   0  0  0  0  0  0  0  0  0  0  0  0
   49.1570   32.1860   39.2630 S   0  0  0  0  0  0  0  0  0  0  0  0
   50.6220   31.9910   40.4380 C   0  0  0  0  0  0  0  0  0  0  0  0
   50.2290   32.3840   41.5060 N   0  0  0  0  0  0  0  0  0  0  0  0
   51.8720   31.4290   39.8400 C   0  0  0  0  0  0  0  0  0  0  0  0
   52.8000   30.7340   40.5670 C   0  0  0  0  0  0  0  0  0  0  0  0
   53.8860   30.3060   39.7960 C   0  0  0  0  0  0  0  0  0  0  0  0
   54.0220   30.5390   38.4970 N   0  0  0  0  0  0  0  0  0  0  0  0
   53.0920   31.2190   37.8350 C   0  0  0  0  0  0  0  0  0  0  0  0
   52.0290   31.6500   38.5460 N   0  0  0  0  0  0  0  0  0  0  0  0
   45.1500   33.1800   47.7610 O   0  0  0  0  0  0  0  0  0  0  0  0
   45.8780   32.1390   48.3540 C   0  0  0  0  0  0  0  0  0  0  0  0
   47.2240   32.4730   48.4560 F   0  0  0  0  0  0  0  0  0  0  0  0
   45.6880   30.9220   47.7490 F   0  0  0  0  0  0  0  0  0  0  0  0
   45.4500   32.0710   49.6920 F   0  0  0  0  0  0  0  0  0  0  0  0
   44.1846   36.0779   44.5788 H   0  0  0  0  0  0  0  0  0  0  0  0
   47.0434   33.1944   40.5005 H   0  0  0  0  0  0  0  0  0  0  0  0
   52.7023   30.5331   41.6441 H   0  0  0  0  0  0  0  0  0  0  0  0
   54.6810   29.7378   40.3010 H   0  0  0  0  0  0  0  0  0  0  0  0
   53.1842   31.4212   36.7577 H   0  0  0  0  0  0  0  0  0  0  0  0
  1  6  2  0
  2  3  2  0
  2  1  1  0
  3  4  1  0
  4  5  2  0
  5 25  1  0
  6  5  1  0
  7  2  1  0
  8  7  1  0
  9  7  1  0
 10  7  1  0
 11  3  1  0
 12 11  2  0
 13 11  1  0
 14 13  1  0
 15 14  2  0
 16 17  1  0
 16 15  1  0
 17 18  2  0
 18 14  1  0
 19 17  1  0
 19 20  2  0
 21 20  1  0
 22 21  2  0
 23 22  1  0
 23 24  2  0
 24 19  1  0
 25 26  1  0
 26 27  1  0
 26 29  1  0
 28 26  1  0
  1 30  1  0
 15 31  1  0
 20 32  1  0
 21 33  1  0
 23 34  1  0
M  ISO  5  30  14  31  14  32  14  33  14  34  14
M  END
>  <minimizedAffinity>  (1) 
-5.9350214

>  <minimizedRMSD>  (1) 
0.416312486

$$$$
