
     RDKit          3D

 33 35  0  0  0  0  0  0  0  0999 V2000
   44.7520   35.3470   44.9400 C   0  0  0  0  0  0  0  0  0  0  0  0
   45.6320   34.8300   44.0000 C   0  0  0  0  0  0  0  0  0  0  0  0
   46.3510   33.7110   44.3690 C   0  0  0  0  0  0  0  0  0  0  0  0
   46.1680   33.1790   45.6110 N   0  0  0  0  0  0  0  0  0  0  0  0
   45.3260   33.6810   46.4960 C   0  0  0  0  0  0  0  0  0  0  0  0
   44.6350   34.7560   46.1410 N   0  0  0  0  0  0  0  0  0  0  0  0
   45.7980   35.4320   42.6760 C   0  0  0  0  0  0  0  0  0  0  0  0
   44.9540   36.5490   42.6230 F   0  0  0  0  0  0  0  0  0  0  0  0
   45.2950   34.6080   41.6850 F   0  0  0  0  0  0  0  0  0  0  0  0
   47.0830   35.7930   42.3950 F   0  0  0  0  0  0  0  0  0  0  0  0
   47.2980   33.0220   43.5680 C   0  0  0  0  0  0  0  0  0  0  0  0
   47.2550   31.8120   43.2330 O   0  0  0  0  0  0  0  0  0  0  0  0
   48.4830   33.2340   42.8870 O   0  0  0  0  0  0  0  0  0  0  0  0
   48.7520   32.8550   41.6110 C   0  0  0  0  0  0  0  0  0  0  0  0
   47.9440   33.2230   40.4060 C   0  0  0  0  0  0  0  0  0  0  0  0
   48.8630   32.3900   39.0920 S   0  0  0  0  0  0  0  0  0  0  0  0
   50.1450   31.7000   40.2960 C   0  0  0  0  0  0  0  0  0  0  0  0
   49.8020   32.1000   41.3710 N   0  0  0  0  0  0  0  0  0  0  0  0
   51.2840   30.8360   39.7480 C   0  0  0  0  0  0  0  0  0  0  0  0
   52.6100   31.2420   40.2010 C   0  0  0  0  0  0  0  0  0  0  0  0
   52.2190   31.5370   38.7830 C   0  0  0  0  0  0  0  0  0  0  0  0
   45.1010   33.1870   47.7580 O   0  0  0  0  0  0  0  0  0  0  0  0
   45.8640   32.1570   48.3250 C   0  0  0  0  0  0  0  0  0  0  0  0
   47.2040   32.5200   48.3970 F   0  0  0  0  0  0  0  0  0  0  0  0
   45.6810   30.9430   47.7170 F   0  0  0  0  0  0  0  0  0  0  0  0
   45.4690   32.0730   49.6740 F   0  0  0  0  0  0  0  0  0  0  0  0
   44.1520   36.2379   44.7027 H   0  0  0  0  0  0  0  0  0  0  0  0
   47.0337   33.8368   40.3384 H   0  0  0  0  0  0  0  0  0  0  0  0
   50.7188   29.8926   39.7251 H   0  0  0  0  0  0  0  0  0  0  0  0
   52.7114   32.0668   40.9218 H   0  0  0  0  0  0  0  0  0  0  0  0
   53.4548   30.7181   40.6719 H   0  0  0  0  0  0  0  0  0  0  0  0
   52.6792   30.9816   37.9525 H   0  0  0  0  0  0  0  0  0  0  0  0
   52.1712   32.4329   38.1466 H   0  0  0  0  0  0  0  0  0  0  0  0
  1  6  2  0
  2  3  2  0
  2  1  1  0
  3  4  1  0
  4  5  2  0
  5 22  1  0
  6  5  1  0
  7  2  1  0
  8  7  1  0
  9  7  1  0
 10  7  1  0
 11  3  1  0
 12 11  2  0
 13 11  1  0
 14 13  1  0
 15 14  2  0
 16 17  1  0
 16 15  1  0
 17 18  2  0
 18 14  1  0
 19 20  1  0
 19 17  1  0
 21 19  1  0
 21 20  1  0
 22 23  1  0
 23 24  1  0
 23 26  1  0
 25 23  1  0
  1 27  1  0
 15 28  1  0
 19 29  1  0
 20 30  1  0
 20 31  1  0
 21 32  1  0
 21 33  1  0
M  ISO  7  27  14  28  14  29  13  30  13  31  13  32  13  33  13
M  END
>  <minimizedAffinity>  (1) 
-5.54851055

>  <minimizedRMSD>  (1) 
0.248915598

$$$$
