
     RDKit          3D

 27 28  0  0  0  0  0  0  0  0999 V2000
   44.7170   35.3810   44.9900 C   0  0  0  0  0  0  0  0  0  0  0  0
   45.5770   34.8620   44.0290 C   0  0  0  0  0  0  0  0  0  0  0  0
   46.2820   33.7280   44.3810 C   0  0  0  0  0  0  0  0  0  0  0  0
   46.1060   33.1830   45.6230 N   0  0  0  0  0  0  0  0  0  0  0  0
   45.2840   33.6900   46.5240 C   0  0  0  0  0  0  0  0  0  0  0  0
   44.6130   34.7700   46.1880 N   0  0  0  0  0  0  0  0  0  0  0  0
   45.7420   35.4700   42.7070 C   0  0  0  0  0  0  0  0  0  0  0  0
   44.9170   36.6030   42.6740 F   0  0  0  0  0  0  0  0  0  0  0  0
   45.2110   34.6580   41.7210 F   0  0  0  0  0  0  0  0  0  0  0  0
   47.0270   35.8120   42.4210 F   0  0  0  0  0  0  0  0  0  0  0  0
   47.2160   33.0240   43.5610 C   0  0  0  0  0  0  0  0  0  0  0  0
   47.1070   31.8480   43.1560 O   0  0  0  0  0  0  0  0  0  0  0  0
   48.4350   33.2180   42.9340 O   0  0  0  0  0  0  0  0  0  0  0  0
   48.7230   32.8950   41.6440 C   0  0  0  0  0  0  0  0  0  0  0  0
   47.9010   33.3000   40.4540 C   0  0  0  0  0  0  0  0  0  0  0  0
   48.8430   32.5450   39.0920 S   0  0  0  0  0  0  0  0  0  0  0  0
   50.1480   31.8280   40.2800 C   0  0  0  0  0  0  0  0  0  0  0  0
   49.7940   32.1720   41.3700 N   0  0  0  0  0  0  0  0  0  0  0  0
   51.2520   31.0650   39.8310 O   0  0  0  0  0  0  0  0  0  0  0  0
   45.0680   33.1870   47.7810 O   0  0  0  0  0  0  0  0  0  0  0  0
   45.8450   32.1510   48.3390 C   0  0  0  0  0  0  0  0  0  0  0  0
   47.1810   32.5170   48.4090 F   0  0  0  0  0  0  0  0  0  0  0  0
   45.6550   30.9480   47.7190 F   0  0  0  0  0  0  0  0  0  0  0  0
   45.4520   32.0490   49.6880 F   0  0  0  0  0  0  0  0  0  0  0  0
   44.1257   36.2833   44.7750 H   0  0  0  0  0  0  0  0  0  0  0  0
   46.9762   33.8944   40.4158 H   0  0  0  0  0  0  0  0  0  0  0  0
   51.9072   30.7110   40.4833 H   0  0  0  0  0  0  0  0  0  0  0  0
  1  6  2  0
  2  3  2  0
  2  1  1  0
  3  4  1  0
  4  5  2  0
  5 20  1  0
  6  5  1  0
  7  2  1  0
  8  7  1  0
  9  7  1  0
 10  7  1  0
 11  3  1  0
 12 11  2  0
 13 11  1  0
 14 13  1  0
 15 14  2  0
 16 17  1  0
 16 15  1  0
 17 18  2  0
 18 14  1  0
 19 17  1  0
 20 21  1  0
 21 22  1  0
 21 24  1  0
 23 21  1  0
  1 25  1  0
 15 26  1  0
 19 27  1  0
M  ISO  3  25  14  26  14  27   3
M  END
>  <minimizedAffinity>  (1) 
-5.42146587

>  <minimizedRMSD>  (1) 
0.119568422

$$$$
