
     RDKit          3D

 28 29  0  0  0  0  0  0  0  0999 V2000
   44.7500   35.2840   44.9270 C   0  0  0  0  0  0  0  0  0  0  0  0
   45.6790   34.7990   44.0170 C   0  0  0  0  0  0  0  0  0  0  0  0
   46.4420   33.7270   44.4290 C   0  0  0  0  0  0  0  0  0  0  0  0
   46.2520   33.2110   45.6760 N   0  0  0  0  0  0  0  0  0  0  0  0
   45.3600   33.6880   46.5260 C   0  0  0  0  0  0  0  0  0  0  0  0
   44.6270   34.7170   46.1330 N   0  0  0  0  0  0  0  0  0  0  0  0
   45.8530   35.3830   42.6850 C   0  0  0  0  0  0  0  0  0  0  0  0
   44.9710   36.4690   42.5940 F   0  0  0  0  0  0  0  0  0  0  0  0
   45.3980   34.5230   41.7030 F   0  0  0  0  0  0  0  0  0  0  0  0
   47.1270   35.7840   42.4230 F   0  0  0  0  0  0  0  0  0  0  0  0
   47.4490   33.0690   43.6690 C   0  0  0  0  0  0  0  0  0  0  0  0
   47.4950   31.8460   43.3910 O   0  0  0  0  0  0  0  0  0  0  0  0
   48.6260   33.3390   42.9910 O   0  0  0  0  0  0  0  0  0  0  0  0
   48.9340   32.9190   41.7330 C   0  0  0  0  0  0  0  0  0  0  0  0
   48.0610   33.0700   40.5240 C   0  0  0  0  0  0  0  0  0  0  0  0
   49.0820   32.3030   39.2480 S   0  0  0  0  0  0  0  0  0  0  0  0
   50.4730   31.9100   40.4630 C   0  0  0  0  0  0  0  0  0  0  0  0
   50.0880   32.3250   41.5230 N   0  0  0  0  0  0  0  0  0  0  0  0
   51.6850   31.2120   39.8970 C   0  0  0  0  0  0  0  0  0  0  0  0
   52.8290   31.5230   40.2960 O   0  0  0  0  0  0  0  0  0  0  0  0
   45.1260   33.2080   47.7920 O   0  0  0  0  0  0  0  0  0  0  0  0
   45.8580   32.1480   48.3600 C   0  0  0  0  0  0  0  0  0  0  0  0
   47.2060   32.4720   48.4670 F   0  0  0  0  0  0  0  0  0  0  0  0
   45.6550   30.9500   47.7240 F   0  0  0  0  0  0  0  0  0  0  0  0
   45.4330   32.0470   49.6980 F   0  0  0  0  0  0  0  0  0  0  0  0
   44.1121   36.1381   44.6558 H   0  0  0  0  0  0  0  0  0  0  0  0
   47.0640   33.5265   40.4373 H   0  0  0  0  0  0  0  0  0  0  0  0
   51.5626   30.4296   39.1335 H   0  0  0  0  0  0  0  0  0  0  0  0
  1  6  2  0
  2  3  2  0
  2  1  1  0
  3  4  1  0
  4  5  2  0
  5 21  1  0
  6  5  1  0
  7  2  1  0
  8  7  1  0
  9  7  1  0
 10  7  1  0
 11  3  1  0
 12 11  2  0
 13 11  1  0
 14 13  1  0
 15 14  2  0
 16 17  1  0
 16 15  1  0
 17 18  2  0
 18 14  1  0
 19 20  2  0
 19 17  1  0
 21 22  1  0
 22 23  1  0
 22 25  1  0
 24 22  1  0
  1 26  1  0
 15 27  1  0
 19 28  1  0
M  ISO  3  26  14  27  14  28   6
M  END
>  <minimizedAffinity>  (1) 
-5.47848082

>  <minimizedRMSD>  (1) 
0.213420674

$$$$
