
     RDKit          3D

 45 48  0  0  1  0  0  0  0  0999 V2000
   48.4090   33.1510   42.5370 O   0  0  0  0  0  0  0  0  0  0  0  0
   48.9150   32.2150   41.7180 C   0  0  0  0  0  0  0  0  0  0  0  0
   48.1290   31.4690   40.7120 C   0  0  0  0  0  0  0  0  0  0  0  0
   49.3800   30.3990   39.9780 S   0  0  0  0  0  0  0  0  0  0  0  0
   50.7420   31.0780   41.0860 C   0  0  0  0  0  0  0  0  0  0  0  0
   50.1700   31.8800   41.7440 N   0  0  0  0  0  0  0  0  0  0  0  0
   52.1450   30.5340   40.9370 C   0  0  0  0  0  0  0  0  0  0  0  0
   52.8150   29.7690   41.8320 C   0  0  0  0  0  0  0  0  0  0  0  0
   53.9810   29.5820   41.1950 N   0  0  0  0  0  0  0  0  0  0  0  0
   53.9660   30.2160   39.9940 C   0  0  0  0  0  0  0  0  0  0  0  0
   52.7660   30.8360   39.8290 N   0  0  0  0  0  0  0  0  0  0  0  0
   53.7270   32.1890   38.0990 N   0  0  0  0  0  0  0  0  0  0  0  0
   54.3890   30.9870   37.5690 C   0  0  0  0  0  0  0  0  0  0  0  0
   53.2770   30.3600   36.7580 C   0  0  0  0  0  0  0  0  0  0  0  0
   52.0270   30.7490   37.4700 C   0  0  0  0  0  0  0  0  0  0  0  0
   52.4920   31.5860   38.6350 C   0  0  1  0  0  0  0  0  0  0  0  0
   47.5580   32.9810   43.6010 C   0  0  0  0  0  0  0  0  0  0  0  0
   47.9930   31.8300   43.8190 O   0  0  0  0  0  0  0  0  0  0  0  0
   44.8400   35.2410   44.7290 C   0  0  0  0  0  0  0  0  0  0  0  0
   45.7840   34.7220   43.8540 C   0  0  0  0  0  0  0  0  0  0  0  0
   46.5450   33.6580   44.3250 C   0  0  0  0  0  0  0  0  0  0  0  0
   46.3370   33.1860   45.5810 N   0  0  0  0  0  0  0  0  0  0  0  0
   45.4330   33.6910   46.4030 C   0  0  0  0  0  0  0  0  0  0  0  0
   44.7060   34.7020   45.9670 N   0  0  0  0  0  0  0  0  0  0  0  0
   45.9800   35.2590   42.5030 C   0  0  0  0  0  0  0  0  0  0  0  0
   44.9760   36.2090   42.2910 F   0  0  0  0  0  0  0  0  0  0  0  0
   45.7160   34.3080   41.5490 F   0  0  0  0  0  0  0  0  0  0  0  0
   47.2040   35.8070   42.3170 F   0  0  0  0  0  0  0  0  0  0  0  0
   45.1780   33.2590   47.6790 O   0  0  0  0  0  0  0  0  0  0  0  0
   45.9040   32.2190   48.2940 C   0  0  0  0  0  0  0  0  0  0  0  0
   47.2570   32.5260   48.3880 F   0  0  0  0  0  0  0  0  0  0  0  0
   45.6670   31.0010   47.6990 F   0  0  0  0  0  0  0  0  0  0  0  0
   45.4810   32.1800   49.6340 F   0  0  0  0  0  0  0  0  0  0  0  0
   47.0580   31.5469   40.4733 H   0  0  0  0  0  0  0  0  0  0  0  0
   52.4904   29.4003   42.8162 H   0  0  0  0  0  0  0  0  0  0  0  0
   54.7933   30.2266   39.2691 H   0  0  0  0  0  0  0  0  0  0  0  0
   53.5268   32.8740   37.3563 H   0  0  0  0  0  0  0  0  0  0  0  0
   55.2493   31.2489   36.9355 H   0  0  0  0  0  0  0  0  0  0  0  0
   54.8047   30.3265   38.3442 H   0  0  0  0  0  0  0  0  0  0  0  0
   53.3847   29.2656   36.7323 H   0  0  0  0  0  0  0  0  0  0  0  0
   53.2830   30.6975   35.7111 H   0  0  0  0  0  0  0  0  0  0  0  0
   51.3710   31.3348   36.8093 H   0  0  0  0  0  0  0  0  0  0  0  0
   51.4440   29.8741   37.7937 H   0  0  0  0  0  0  0  0  0  0  0  0
   51.7222   32.3010   38.9609 H   0  0  0  0  0  0  0  0  0  0  0  0
   44.2043   36.0842   44.4208 H   0  0  0  0  0  0  0  0  0  0  0  0
  1 17  1  0
  2  6  1  0
  2  1  1  0
  3  2  2  0
  4  3  1  0
  4  5  1  0
  5  6  2  0
  7  5  1  0
  7  8  2  0
  9  8  1  0
 10  9  2  0
 11 10  1  0
 11  7  1  0
 12 16  1  0
 13 12  1  0
 14 15  1  0
 14 13  1  0
 16 15  1  0
 16 11  1  0
 17 18  2  0
 17 21  1  0
 19 24  2  0
 20 21  2  0
 20 19  1  0
 21 22  1  0
 22 23  2  0
 23 29  1  0
 24 23  1  0
 25 20  1  0
 26 25  1  0
 27 25  1  0
 28 25  1  0
 29 30  1  0
 30 31  1  0
 30 33  1  0
 32 30  1  0
  3 34  1  0
  8 35  1  0
 10 36  1  0
 12 37  1  0
 13 38  1  0
 13 39  1  0
 14 40  1  0
 14 41  1  0
 15 42  1  0
 15 43  1  0
 16 44  1  1
 19 45  1  0
M  ISO  8  34  14  35  14  36  14  37   5  38  13  39  13  40  13  41  13
M  ISO  4  42  13  43  13  44  13  45  14
M  END
>  <minimizedAffinity>  (1) 
-6.01374674

>  <minimizedRMSD>  (1) 
1.14922488

$$$$
