
     RDKit          3D

 32 33  0  0  1  0  0  0  0  0999 V2000
   46.8920   32.7280   44.9620 C   0  0  2  0  0  0  0  0  0  0  0  0
   44.5580   35.5980   44.8600 C   0  0  0  0  0  0  0  0  0  0  0  0
   44.8260   36.1810   43.6130 C   0  0  0  0  0  0  0  0  0  0  0  0
   45.8050   35.5670   42.8240 C   0  0  0  0  0  0  0  0  0  0  0  0
   46.4350   34.4560   43.2970 N   0  0  0  0  0  0  0  0  0  0  0  0
   46.1510   33.9170   44.5050 C   0  0  0  0  0  0  0  0  0  0  0  0
   45.2050   34.5080   45.2720 N   0  0  0  0  0  0  0  0  0  0  0  0
   47.6900   32.1820   43.7760 C   0  0  0  0  0  0  0  0  0  0  0  0
   46.0010   31.6600   45.5180 C   0  0  0  0  0  0  0  0  0  0  0  0
   46.3900   31.2950   46.8140 N   0  0  0  0  0  0  0  0  0  0  0  0
   46.7130   32.3050   47.7550 C   0  0  0  0  0  0  0  0  0  0  0  0
   45.9180   32.1830   49.0410 C   0  0  0  0  0  0  0  0  0  0  0  0
   45.7300   30.8920   49.4450 O   0  0  0  0  0  0  0  0  0  0  0  0
   45.1010   30.1540   48.4720 C   0  0  0  0  0  0  0  0  0  0  0  0
   46.1180   30.0180   47.3230 C   0  0  0  0  0  0  0  0  0  0  0  0
   47.5561   33.0311   45.7849 H   0  0  0  0  0  0  0  0  0  0  0  0
   43.7968   36.0504   45.5127 H   0  0  0  0  0  0  0  0  0  0  0  0
   44.2913   37.0794   43.2710 H   0  0  0  0  0  0  0  0  0  0  0  0
   46.0622   35.9758   41.8357 H   0  0  0  0  0  0  0  0  0  0  0  0
   48.5446   31.5973   44.1471 H   0  0  0  0  0  0  0  0  0  0  0  0
   47.0424   31.5369   43.1641 H   0  0  0  0  0  0  0  0  0  0  0  0
   48.0567   33.0194   43.1641 H   0  0  0  0  0  0  0  0  0  0  0  0
   44.9673   32.0349   45.5465 H   0  0  0  0  0  0  0  0  0  0  0  0
   46.0762   30.7738   44.8707 H   0  0  0  0  0  0  0  0  0  0  0  0
   47.7840   32.2326   47.9952 H   0  0  0  0  0  0  0  0  0  0  0  0
   46.4626   33.2749   47.3004 H   0  0  0  0  0  0  0  0  0  0  0  0
   46.4558   32.7215   49.8352 H   0  0  0  0  0  0  0  0  0  0  0  0
   44.9227   32.6097   48.8477 H   0  0  0  0  0  0  0  0  0  0  0  0
   44.8277   29.1619   48.8607 H   0  0  0  0  0  0  0  0  0  0  0  0
   44.1724   30.6377   48.1348 H   0  0  0  0  0  0  0  0  0  0  0  0
   45.6972   29.3842   46.5285 H   0  0  0  0  0  0  0  0  0  0  0  0
   47.0447   29.5557   47.6938 H   0  0  0  0  0  0  0  0  0  0  0  0
  1  9  1  0
  2  7  2  0
  3  2  1  0
  4  5  1  0
  4  3  2  0
  5  6  2  0
  6  1  1  0
  6  7  1  0
  8  1  1  0
  9 10  1  0
 10 15  1  0
 10 11  1  0
 11 12  1  0
 12 13  1  0
 14 13  1  0
 15 14  1  0
  1 16  1  1
  2 17  1  0
  3 18  1  0
  4 19  1  0
  8 20  1  0
  8 21  1  0
  8 22  1  0
  9 23  1  0
  9 24  1  0
 11 25  1  0
 11 26  1  0
 12 27  1  0
 12 28  1  0
 14 29  1  0
 14 30  1  0
 15 31  1  0
 15 32  1  0
M  ISO  8  16   8  17  14  18  14  19  14  20   8  21   8  22   8  23   8
M  ISO  8  24   8  25  13  26  13  27  13  28  13  29  13  30  13  31  13
M  ISO  1  32  13
M  END
>  <minimizedAffinity>  (1) 
-4.44872665

>  <minimizedRMSD>  (1) 
1.6405375

$$$$
