
     RDKit          3D

 33 35  0  0  1  0  0  0  0  0999 V2000
   47.1290   34.1230   43.4620 C   0  0  2  0  0  0  0  0  0  0  0  0
   50.6540   33.7760   42.3770 C   0  0  0  0  0  0  0  0  0  0  0  0
   50.7610   32.3820   42.2120 C   0  0  0  0  0  0  0  0  0  0  0  0
   49.6180   31.5820   42.4710 C   0  0  0  0  0  0  0  0  0  0  0  0
   48.4710   32.2180   42.8680 N   0  0  0  0  0  0  0  0  0  0  0  0
   48.4270   33.5650   43.0110 C   0  0  0  0  0  0  0  0  0  0  0  0
   49.4970   34.3330   42.7710 N   0  0  0  0  0  0  0  0  0  0  0  0
   46.1310   33.0320   43.7600 C   0  0  0  0  0  0  0  0  0  0  0  0
   46.5860   35.1620   42.5480 C   0  0  0  0  0  0  0  0  0  0  0  0
   45.7580   34.6530   41.4450 C   0  0  0  0  0  0  0  0  0  0  0  0
   46.2950   33.9420   40.3630 C   0  0  0  0  0  0  0  0  0  0  0  0
   45.2870   33.6200   39.5340 N   0  0  0  0  0  0  0  0  0  0  0  0
   44.1480   34.0950   40.0460 C   0  0  0  0  0  0  0  0  0  0  0  0
   42.8470   34.0290   39.5770 C   0  0  0  0  0  0  0  0  0  0  0  0
   41.8720   34.6340   40.3590 C   0  0  0  0  0  0  0  0  0  0  0  0
   42.0790   35.3010   41.5660 C   0  0  0  0  0  0  0  0  0  0  0  0
   43.3970   35.3250   41.9660 C   0  0  0  0  0  0  0  0  0  0  0  0
   44.4050   34.7460   41.2390 C   0  0  0  0  0  0  0  0  0  0  0  0
   47.3279   34.6482   44.4078 H   0  0  0  0  0  0  0  0  0  0  0  0
   51.5271   34.4158   42.1812 H   0  0  0  0  0  0  0  0  0  0  0  0
   51.7079   31.9240   41.8900 H   0  0  0  0  0  0  0  0  0  0  0  0
   49.6516   30.4884   42.3570 H   0  0  0  0  0  0  0  0  0  0  0  0
   46.0267   32.9180   44.8491 H   0  0  0  0  0  0  0  0  0  0  0  0
   45.1565   33.2974   43.3241 H   0  0  0  0  0  0  0  0  0  0  0  0
   46.4819   32.0850   43.3241 H   0  0  0  0  0  0  0  0  0  0  0  0
   45.9717   35.8527   43.1443 H   0  0  0  0  0  0  0  0  0  0  0  0
   47.4574   35.6427   42.0795 H   0  0  0  0  0  0  0  0  0  0  0  0
   47.3561   33.6913   40.2176 H   0  0  0  0  0  0  0  0  0  0  0  0
   45.3775   33.0953   38.6523 H   0  0  0  0  0  0  0  0  0  0  0  0
   42.5983   33.5228   38.6326 H   0  0  0  0  0  0  0  0  0  0  0  0
   40.8367   34.5821   39.9909 H   0  0  0  0  0  0  0  0  0  0  0  0
   41.2662   35.7645   42.1444 H   0  0  0  0  0  0  0  0  0  0  0  0
   43.6517   35.8304   42.9092 H   0  0  0  0  0  0  0  0  0  0  0  0
  1  8  1  0
  2  7  2  0
  3  2  1  0
  3  4  2  0
  4  5  1  0
  5  6  2  0
  6  1  1  0
  7  6  1  0
  9  1  1  0
 10  9  1  0
 11 10  2  0
 12 13  1  0
 12 11  1  0
 13 18  2  0
 14 13  1  0
 14 15  2  0
 15 16  1  0
 16 17  2  0
 18 10  1  0
 18 17  1  0
  1 19  1  1
  2 20  1  0
  3 21  1  0
  4 22  1  0
  8 23  1  0
  8 24  1  0
  8 25  1  0
  9 26  1  0
  9 27  1  0
 11 28  1  0
 12 29  1  0
 14 30  1  0
 15 31  1  0
 16 32  1  0
 17 33  1  0
M  ISO  8  19   8  20  14  21  14  22  14  23   8  24   8  25   8  26   8
M  ISO  7  27   8  28  14  29   9  30  14  31  14  32  14  33  14
M  END
>  <minimizedAffinity>  (1) 
-4.85261297

>  <minimizedRMSD>  (1) 
8.08526802

$$$$
