
     RDKit          3D

 26 27  0  0  1  0  0  0  0  0999 V2000
   46.2290   32.8990   46.0240 C   0  0  2  0  0  0  0  0  0  0  0  0
   44.4910   35.8950   44.7230 C   0  0  0  0  0  0  0  0  0  0  0  0
   45.0630   36.0200   43.4280 C   0  0  0  0  0  0  0  0  0  0  0  0
   46.0210   35.0590   43.0390 C   0  0  0  0  0  0  0  0  0  0  0  0
   46.3500   34.0600   43.9250 N   0  0  0  0  0  0  0  0  0  0  0  0
   45.7760   33.9880   45.1440 C   0  0  0  0  0  0  0  0  0  0  0  0
   44.8610   34.8990   45.5240 N   0  0  0  0  0  0  0  0  0  0  0  0
   46.1360   31.5650   45.3140 C   0  0  0  0  0  0  0  0  0  0  0  0
   45.5260   32.8780   47.3490 C   0  0  0  0  0  0  0  0  0  0  0  0
   45.5780   31.4640   47.8960 C   0  0  0  0  0  0  0  0  0  0  0  0
   45.0220   31.2010   49.2460 C   0  0  0  0  0  0  0  0  0  0  0  0
   46.4880   31.1720   49.0570 C   0  0  0  0  0  0  0  0  0  0  0  0
   47.2864   33.0947   46.2558 H   0  0  0  0  0  0  0  0  0  0  0  0
   43.7406   36.6234   45.0640 H   0  0  0  0  0  0  0  0  0  0  0  0
   44.7695   36.8370   42.7525 H   0  0  0  0  0  0  0  0  0  0  0  0
   46.4947   35.1082   42.0474 H   0  0  0  0  0  0  0  0  0  0  0  0
   46.0797   30.7568   46.0580 H   0  0  0  0  0  0  0  0  0  0  0  0
   45.2344   31.5470   44.6841 H   0  0  0  0  0  0  0  0  0  0  0  0
   47.0264   31.4221   44.6841 H   0  0  0  0  0  0  0  0  0  0  0  0
   46.0275   33.5649   48.0466 H   0  0  0  0  0  0  0  0  0  0  0  0
   44.4807   33.1981   47.2275 H   0  0  0  0  0  0  0  0  0  0  0  0
   45.4291   31.0383   46.8927 H   0  0  0  0  0  0  0  0  0  0  0  0
   44.5600   32.0201   49.8166 H   0  0  0  0  0  0  0  0  0  0  0  0
   44.2821   30.4955   49.6519 H   0  0  0  0  0  0  0  0  0  0  0  0
   47.0309   30.2165   49.1048 H   0  0  0  0  0  0  0  0  0  0  0  0
   47.3446   31.6805   49.5235 H   0  0  0  0  0  0  0  0  0  0  0  0
  1  9  1  0
  2  7  2  0
  3  2  1  0
  4  3  2  0
  4  5  1  0
  5  6  2  0
  6  7  1  0
  6  1  1  0
  8  1  1  0
  9 10  1  0
 10 12  1  0
 10 11  1  0
 12 11  1  0
  1 13  1  1
  2 14  1  0
  3 15  1  0
  4 16  1  0
  8 17  1  0
  8 18  1  0
  8 19  1  0
  9 20  1  0
  9 21  1  0
 10 22  1  0
 11 23  1  0
 11 24  1  0
 12 25  1  0
 12 26  1  0
M  ISO  8  13   8  14  14  15  14  16  14  17   8  18   8  19   8  20   8
M  ISO  6  21   8  22  13  23  13  24  13  25  13  26  13
M  END
>  <minimizedAffinity>  (1) 
-4.25497293

>  <minimizedRMSD>  (1) 
1.44040787

$$$$
