
     RDKit          3D

 24 25  0  0  1  0  0  0  0  0999 V2000
   46.3270   32.8410   45.5100 C   0  0  2  0  0  0  0  0  0  0  0  0
   44.5010   35.9190   44.5990 C   0  0  0  0  0  0  0  0  0  0  0  0
   45.0390   36.1980   43.3070 C   0  0  0  0  0  0  0  0  0  0  0  0
   46.0100   35.3120   42.7790 C   0  0  0  0  0  0  0  0  0  0  0  0
   46.3740   34.2360   43.5520 N   0  0  0  0  0  0  0  0  0  0  0  0
   45.8330   34.0190   44.7700 C   0  0  0  0  0  0  0  0  0  0  0  0
   44.9140   34.8480   45.2800 N   0  0  0  0  0  0  0  0  0  0  0  0
   46.0870   31.5660   44.7280 C   0  0  0  0  0  0  0  0  0  0  0  0
   45.7820   32.7370   46.9020 C   0  0  0  0  0  0  0  0  0  0  0  0
   46.6560   32.0040   47.8200 C   0  0  0  0  0  0  0  0  0  0  0  0
   47.8410   32.5500   48.2120 N   0  0  0  0  0  0  0  0  0  0  0  0
   48.4080   31.7030   49.0130 O   0  0  0  0  0  0  0  0  0  0  0  0
   47.6820   30.6440   49.1770 C   0  0  0  0  0  0  0  0  0  0  0  0
   46.5730   30.8140   48.4320 N   0  0  0  0  0  0  0  0  0  0  0  0
   47.4119   32.9842   45.6221 H   0  0  0  0  0  0  0  0  0  0  0  0
   43.7443   36.5881   45.0346 H   0  0  0  0  0  0  0  0  0  0  0  0
   44.7083   37.0781   42.7360 H   0  0  0  0  0  0  0  0  0  0  0  0
   46.4558   35.4792   41.7874 H   0  0  0  0  0  0  0  0  0  0  0  0
   45.9299   30.7313   45.4269 H   0  0  0  0  0  0  0  0  0  0  0  0
   45.1958   31.6866   44.0946 H   0  0  0  0  0  0  0  0  0  0  0  0
   46.9611   31.3543   44.0946 H   0  0  0  0  0  0  0  0  0  0  0  0
   45.6381   33.7539   47.2961 H   0  0  0  0  0  0  0  0  0  0  0  0
   44.8380   32.1759   46.8379 H   0  0  0  0  0  0  0  0  0  0  0  0
   47.9241   29.7732   49.8039 H   0  0  0  0  0  0  0  0  0  0  0  0
  1  9  1  0
  2  7  2  0
  3  2  1  0
  4  3  2  0
  4  5  1  0
  5  6  2  0
  6  7  1  0
  6  1  1  0
  8  1  1  0
  9 10  1  0
 10 11  2  0
 10 14  1  0
 11 12  1  0
 12 13  1  0
 14 13  2  0
  1 15  1  1
  2 16  1  0
  3 17  1  0
  4 18  1  0
  8 19  1  0
  8 20  1  0
  8 21  1  0
  9 22  1  0
  9 23  1  0
 13 24  1  0
M  ISO  8  15   8  16  14  17  14  18  14  19   8  20   8  21   8  22   8
M  ISO  2  23   8  24  14
M  END
>  <minimizedAffinity>  (1) 
-4.21973801

>  <minimizedRMSD>  (1) 
2.80007005

$$$$
