
     RDKit          3D

 37 39  0  0  0  0  0  0  0  0999 V2000
   47.3230   34.1790   40.1610 C   0  0  0  0  0  0  0  0  0  0  0  0
   46.6540   34.4450   41.3600 C   0  0  0  0  0  0  0  0  0  0  0  0
   47.0780   33.9960   42.6110 C   0  0  0  0  0  0  0  0  0  0  0  0
   48.1930   33.2930   42.4700 N   0  0  0  0  0  0  0  0  0  0  0  0
   48.8780   32.9990   41.4000 C   0  0  0  0  0  0  0  0  0  0  0  0
   48.4380   33.4490   40.2200 N   0  0  0  0  0  0  0  0  0  0  0  0
   46.2010   34.4180   43.6870 C   0  0  0  0  0  0  0  0  0  0  0  0
   45.4030   35.4980   43.6120 N   0  0  0  0  0  0  0  0  0  0  0  0
   44.5960   35.8970   44.6060 C   0  0  0  0  0  0  0  0  0  0  0  0
   44.5490   35.2100   45.7640 N   0  0  0  0  0  0  0  0  0  0  0  0
   45.3020   34.1230   45.9400 C   0  0  0  0  0  0  0  0  0  0  0  0
   45.2430   33.4340   47.1190 C   0  0  0  0  0  0  0  0  0  0  0  0
   46.0230   32.2980   47.3130 C   0  0  0  0  0  0  0  0  0  0  0  0
   46.8520   31.8920   46.2820 C   0  0  0  0  0  0  0  0  0  0  0  0
   46.8590   32.6340   45.1230 C   0  0  0  0  0  0  0  0  0  0  0  0
   46.1180   33.7510   44.8850 C   0  0  0  0  0  0  0  0  0  0  0  0
   50.0920   32.1750   41.6080 C   0  0  0  0  0  0  0  0  0  0  0  0
   50.6480   31.7630   40.2630 C   0  0  0  0  0  0  0  0  0  0  0  0
   51.1650   33.0890   42.2310 C   0  0  0  0  0  0  0  0  0  0  0  0
   49.8630   30.9870   42.5080 C   0  0  0  0  0  0  0  0  0  0  0  0
   51.0810   30.6450   43.0920 O   0  0  0  0  0  0  0  0  0  0  0  0
   46.9425   34.5590   39.2014 H   0  0  0  0  0  0  0  0  0  0  0  0
   45.7344   35.0469   41.3137 H   0  0  0  0  0  0  0  0  0  0  0  0
   43.9684   36.7909   44.4750 H   0  0  0  0  0  0  0  0  0  0  0  0
   44.5739   33.7801   47.9206 H   0  0  0  0  0  0  0  0  0  0  0  0
   45.9818   31.7385   48.2592 H   0  0  0  0  0  0  0  0  0  0  0  0
   47.4880   31.0005   46.3860 H   0  0  0  0  0  0  0  0  0  0  0  0
   47.5238   32.2936   44.3154 H   0  0  0  0  0  0  0  0  0  0  0  0
   51.5237   31.1141   40.4114 H   0  0  0  0  0  0  0  0  0  0  0  0
   49.8776   31.2160   39.6997 H   0  0  0  0  0  0  0  0  0  0  0  0
   50.9470   32.6593   39.6997 H   0  0  0  0  0  0  0  0  0  0  0  0
   51.1011   33.0346   43.3278 H   0  0  0  0  0  0  0  0  0  0  0  0
   52.1623   32.7587   41.9049 H   0  0  0  0  0  0  0  0  0  0  0  0
   50.9975   34.1261   41.9049 H   0  0  0  0  0  0  0  0  0  0  0  0
   49.1344   31.2467   43.2901 H   0  0  0  0  0  0  0  0  0  0  0  0
   49.4675   30.1402   41.9279 H   0  0  0  0  0  0  0  0  0  0  0  0
   50.9928   30.6698   44.0778 H   0  0  0  0  0  0  0  0  0  0  0  0
  1  6  2  0
  1  2  1  0
  2  3  2  0
  3  7  1  0
  4  3  1  0
  5 17  1  0
  5  4  2  0
  6  5  1  0
  7 16  1  0
  8  7  2  0
  8  9  1  0
  9 10  2  0
 10 11  1  0
 11 12  2  0
 12 13  1  0
 14 13  2  0
 15 14  1  0
 16 15  2  0
 16 11  1  0
 17 19  1  0
 17 20  1  0
 18 17  1  0
 20 21  1  0
  1 22  1  0
  2 23  1  0
  9 24  1  0
 12 25  1  0
 13 26  1  0
 14 27  1  0
 15 28  1  0
 18 29  1  0
 18 30  1  0
 18 31  1  0
 19 32  1  0
 19 33  1  0
 19 34  1  0
 20 35  1  0
 20 36  1  0
 21 37  1  0
M  ISO  8  22  14  23  14  24  14  25  14  26  14  27  14  28  14  29   8
M  ISO  8  30   8  31   8  32   8  33   8  34   8  35   8  36   8  37   3
M  END
>  <minimizedAffinity>  (1) 
-5.4145422

>  <minimizedRMSD>  (1) 
0.129927844

$$$$
