
     RDKit          3D

 26 27  0  0  1  0  0  0  0  0999 V2000
   46.1430   32.8700   45.9010 C   0  0  2  0  0  0  0  0  0  0  0  0
   44.4880   35.9670   44.7400 C   0  0  0  0  0  0  0  0  0  0  0  0
   45.0500   36.1140   43.4350 C   0  0  0  0  0  0  0  0  0  0  0  0
   45.9770   35.1360   42.9890 C   0  0  0  0  0  0  0  0  0  0  0  0
   46.2750   34.1060   43.8440 N   0  0  0  0  0  0  0  0  0  0  0  0
   45.7160   34.0120   45.0680 C   0  0  0  0  0  0  0  0  0  0  0  0
   44.8350   34.9320   45.5060 N   0  0  0  0  0  0  0  0  0  0  0  0
   45.9920   31.5670   45.1430 C   0  0  0  0  0  0  0  0  0  0  0  0
   45.4870   32.8320   47.2470 C   0  0  0  0  0  0  0  0  0  0  0  0
   46.3910   32.0280   48.1430 C   0  0  0  0  0  0  0  0  0  0  0  0
   47.7520   32.2590   48.1600 C   0  0  0  0  0  0  0  0  0  0  0  0
   48.3010   31.3890   49.0580 C   0  0  0  0  0  0  0  0  0  0  0  0
   47.2590   30.6680   49.5460 N   0  0  0  0  0  0  0  0  0  0  0  0
   46.1060   31.0380   49.0080 N   0  0  0  0  0  0  0  0  0  0  0  0
   47.2121   33.0149   46.1154 H   0  0  0  0  0  0  0  0  0  0  0  0
   43.7674   36.7092   45.1139 H   0  0  0  0  0  0  0  0  0  0  0  0
   44.7718   36.9626   42.7928 H   0  0  0  0  0  0  0  0  0  0  0  0
   46.4398   35.2019   41.9933 H   0  0  0  0  0  0  0  0  0  0  0  0
   45.8957   30.7362   45.8575 H   0  0  0  0  0  0  0  0  0  0  0  0
   45.0931   31.6128   44.5106 H   0  0  0  0  0  0  0  0  0  0  0  0
   46.8775   31.4060   44.5106 H   0  0  0  0  0  0  0  0  0  0  0  0
   45.3709   33.8522   47.6417 H   0  0  0  0  0  0  0  0  0  0  0  0
   44.4849   32.3822   47.1876 H   0  0  0  0  0  0  0  0  0  0  0  0
   48.2939   33.0057   47.5610 H   0  0  0  0  0  0  0  0  0  0  0  0
   49.3628   31.2926   49.3288 H   0  0  0  0  0  0  0  0  0  0  0  0
   47.3536   29.9224   50.2503 H   0  0  0  0  0  0  0  0  0  0  0  0
  1  9  1  0
  2  7  2  0
  3  2  1  0
  4  3  2  0
  4  5  1  0
  5  6  2  0
  6  7  1  0
  6  1  1  0
  8  1  1  0
  9 10  1  0
 10 11  1  0
 10 14  2  0
 11 12  2  0
 12 13  1  0
 14 13  1  0
  1 15  1  1
  2 16  1  0
  3 17  1  0
  4 18  1  0
  8 19  1  0
  8 20  1  0
  8 21  1  0
  9 22  1  0
  9 23  1  0
 11 24  1  0
 12 25  1  0
 13 26  1  0
M  ISO  8  15   8  16  14  17  14  18  14  19   8  20   8  21   8  22   8
M  ISO  4  23   8  24  14  25  14  26   9
M  END
>  <minimizedAffinity>  (1) 
-4.89163065

>  <minimizedRMSD>  (1) 
0.805019021

$$$$
