
     RDKit          3D

 43 46  0  0  0  0  0  0  0  0999 V2000
   47.3270   34.1930   40.1560 C   0  0  0  0  0  0  0  0  0  0  0  0
   46.6660   34.4500   41.3540 C   0  0  0  0  0  0  0  0  0  0  0  0
   47.0850   33.9930   42.6040 C   0  0  0  0  0  0  0  0  0  0  0  0
   48.1980   33.2860   42.4620 N   0  0  0  0  0  0  0  0  0  0  0  0
   48.8710   33.0030   41.3820 C   0  0  0  0  0  0  0  0  0  0  0  0
   48.4370   33.4600   40.2030 N   0  0  0  0  0  0  0  0  0  0  0  0
   46.2090   34.4090   43.6860 C   0  0  0  0  0  0  0  0  0  0  0  0
   45.4080   35.4860   43.6140 N   0  0  0  0  0  0  0  0  0  0  0  0
   44.6030   35.8810   44.6050 C   0  0  0  0  0  0  0  0  0  0  0  0
   44.5530   35.1910   45.7750 N   0  0  0  0  0  0  0  0  0  0  0  0
   45.3160   34.1060   45.9380 C   0  0  0  0  0  0  0  0  0  0  0  0
   45.2620   33.4150   47.1180 C   0  0  0  0  0  0  0  0  0  0  0  0
   46.0510   32.2790   47.3080 C   0  0  0  0  0  0  0  0  0  0  0  0
   46.8760   31.8820   46.2740 C   0  0  0  0  0  0  0  0  0  0  0  0
   46.8750   32.6290   45.1160 C   0  0  0  0  0  0  0  0  0  0  0  0
   46.1290   33.7420   44.8790 C   0  0  0  0  0  0  0  0  0  0  0  0
   50.0910   32.1760   41.5980 C   0  0  0  0  0  0  0  0  0  0  0  0
   50.6320   31.7470   40.2420 C   0  0  0  0  0  0  0  0  0  0  0  0
   51.1640   33.0570   42.2190 C   0  0  0  0  0  0  0  0  0  0  0  0
   49.8370   30.9640   42.4640 C   0  0  0  0  0  0  0  0  0  0  0  0
   51.1700   30.5140   43.0180 C   0  0  0  0  0  0  0  0  0  0  0  0
   51.1550   29.4580   44.1200 C   0  0  0  0  0  0  0  0  0  0  0  0
   51.6610   29.1390   42.7620 C   0  0  0  0  0  0  0  0  0  0  0  0
   46.9443   34.5831   39.2014 H   0  0  0  0  0  0  0  0  0  0  0  0
   45.7489   35.0560   41.3122 H   0  0  0  0  0  0  0  0  0  0  0  0
   43.9743   36.7739   44.4724 H   0  0  0  0  0  0  0  0  0  0  0  0
   44.5930   33.7567   47.9215 H   0  0  0  0  0  0  0  0  0  0  0  0
   46.0166   31.7170   48.2530 H   0  0  0  0  0  0  0  0  0  0  0  0
   47.5167   30.9933   46.3722 H   0  0  0  0  0  0  0  0  0  0  0  0
   47.5402   32.2938   44.3066 H   0  0  0  0  0  0  0  0  0  0  0  0
   51.4865   31.0694   40.3858 H   0  0  0  0  0  0  0  0  0  0  0  0
   49.8422   31.2270   39.6800 H   0  0  0  0  0  0  0  0  0  0  0  0
   50.9583   32.6345   39.6800 H   0  0  0  0  0  0  0  0  0  0  0  0
   51.0954   33.0007   43.3154 H   0  0  0  0  0  0  0  0  0  0  0  0
   52.1563   32.7096   41.8954 H   0  0  0  0  0  0  0  0  0  0  0  0
   51.0164   34.0979   41.8954 H   0  0  0  0  0  0  0  0  0  0  0  0
   49.1573   31.2269   43.2879 H   0  0  0  0  0  0  0  0  0  0  0  0
   49.3698   30.1595   41.8771 H   0  0  0  0  0  0  0  0  0  0  0  0
   51.5958   31.5187   42.8790 H   0  0  0  0  0  0  0  0  0  0  0  0
   51.8532   29.5326   44.9667 H   0  0  0  0  0  0  0  0  0  0  0  0
   50.3923   29.0365   44.7913 H   0  0  0  0  0  0  0  0  0  0  0  0
   51.0837   28.4673   42.1097 H   0  0  0  0  0  0  0  0  0  0  0  0
   52.6014   28.7211   42.3733 H   0  0  0  0  0  0  0  0  0  0  0  0
  1  6  2  0
  1  2  1  0
  2  3  2  0
  3  7  1  0
  4  3  1  0
  5 17  1  0
  5  4  2  0
  6  5  1  0
  7 16  1  0
  8  7  2  0
  8  9  1  0
  9 10  2  0
 10 11  1  0
 11 12  2  0
 12 13  1  0
 14 13  2  0
 15 14  1  0
 16 15  2  0
 16 11  1  0
 17 19  1  0
 17 20  1  0
 18 17  1  0
 20 21  1  0
 21 22  1  0
 23 21  1  0
 23 22  1  0
  1 24  1  0
  2 25  1  0
  9 26  1  0
 12 27  1  0
 13 28  1  0
 14 29  1  0
 15 30  1  0
 18 31  1  0
 18 32  1  0
 18 33  1  0
 19 34  1  0
 19 35  1  0
 19 36  1  0
 20 37  1  0
 20 38  1  0
 21 39  1  0
 22 40  1  0
 22 41  1  0
 23 42  1  0
 23 43  1  0
M  ISO  8  24  14  25  14  26  14  27  14  28  14  29  14  30  14  31   8
M  ISO  8  32   8  33   8  34   8  35   8  36   8  37   8  38   8  39  13
M  ISO  4  40  13  41  13  42  13  43  13
M  END
>  <minimizedAffinity>  (1) 
-5.411901

>  <minimizedRMSD>  (1) 
0.330399603

$$$$
