
     RDKit          3D

 48 51  0  0  0  0  0  0  0  0999 V2000
   47.3280   34.1440   40.1680 C   0  0  0  0  0  0  0  0  0  0  0  0
   46.6430   34.4280   41.3600 C   0  0  0  0  0  0  0  0  0  0  0  0
   47.0550   34.0350   42.6170 C   0  0  0  0  0  0  0  0  0  0  0  0
   48.1920   33.3510   42.5190 N   0  0  0  0  0  0  0  0  0  0  0  0
   48.8970   33.0380   41.4620 C   0  0  0  0  0  0  0  0  0  0  0  0
   48.4510   33.4450   40.2680 N   0  0  0  0  0  0  0  0  0  0  0  0
   46.1580   34.4820   43.6790 C   0  0  0  0  0  0  0  0  0  0  0  0
   45.3860   35.5660   43.5820 N   0  0  0  0  0  0  0  0  0  0  0  0
   44.5770   35.9920   44.5530 C   0  0  0  0  0  0  0  0  0  0  0  0
   44.4970   35.3180   45.7320 N   0  0  0  0  0  0  0  0  0  0  0  0
   45.2390   34.2100   45.9220 C   0  0  0  0  0  0  0  0  0  0  0  0
   45.1470   33.5410   47.1030 C   0  0  0  0  0  0  0  0  0  0  0  0
   45.8910   32.4020   47.3220 C   0  0  0  0  0  0  0  0  0  0  0  0
   46.7210   31.9740   46.3060 C   0  0  0  0  0  0  0  0  0  0  0  0
   46.7680   32.6950   45.1410 C   0  0  0  0  0  0  0  0  0  0  0  0
   46.0540   33.8240   44.8760 C   0  0  0  0  0  0  0  0  0  0  0  0
   50.1430   32.2490   41.7500 C   0  0  0  0  0  0  0  0  0  0  0  0
   50.6810   31.7550   40.4000 C   0  0  0  0  0  0  0  0  0  0  0  0
   51.1930   33.2240   42.2350 C   0  0  0  0  0  0  0  0  0  0  0  0
   49.8940   31.0970   42.6590 C   0  0  0  0  0  0  0  0  0  0  0  0
   50.8020   30.0050   42.5990 N   0  0  0  0  0  0  0  0  0  0  0  0
   51.8320   29.9860   43.5860 C   0  0  0  0  0  0  0  0  0  0  0  0
   51.7210   28.6820   44.3690 C   0  0  0  0  0  0  0  0  0  0  0  0
   50.3240   28.2280   44.0680 C   0  0  0  0  0  0  0  0  0  0  0  0
   50.0790   28.7650   42.6870 C   0  0  0  0  0  0  0  0  0  0  0  0
   46.9499   34.4862   39.1934 H   0  0  0  0  0  0  0  0  0  0  0  0
   45.7099   35.0059   41.2867 H   0  0  0  0  0  0  0  0  0  0  0  0
   43.9693   36.8959   44.3992 H   0  0  0  0  0  0  0  0  0  0  0  0
   44.4733   33.9123   47.8894 H   0  0  0  0  0  0  0  0  0  0  0  0
   45.8256   31.8533   48.2731 H   0  0  0  0  0  0  0  0  0  0  0  0
   47.3347   31.0694   46.4289 H   0  0  0  0  0  0  0  0  0  0  0  0
   47.4411   32.3298   44.3514 H   0  0  0  0  0  0  0  0  0  0  0  0
   51.4814   31.0201   40.5710 H   0  0  0  0  0  0  0  0  0  0  0  0
   49.8661   31.2839   39.8308 H   0  0  0  0  0  0  0  0  0  0  0  0
   51.0810   32.6070   39.8308 H   0  0  0  0  0  0  0  0  0  0  0  0
   51.2038   33.2341   43.3349 H   0  0  0  0  0  0  0  0  0  0  0  0
   52.1805   32.9153   41.8614 H   0  0  0  0  0  0  0  0  0  0  0  0
   50.9582   34.2316   41.8614 H   0  0  0  0  0  0  0  0  0  0  0  0
   49.9087   31.4814   43.6895 H   0  0  0  0  0  0  0  0  0  0  0  0
   48.9322   30.6801   42.3257 H   0  0  0  0  0  0  0  0  0  0  0  0
   52.8160   30.0441   43.0978 H   0  0  0  0  0  0  0  0  0  0  0  0
   51.7232   30.8455   44.2638 H   0  0  0  0  0  0  0  0  0  0  0  0
   52.4602   27.9463   44.0192 H   0  0  0  0  0  0  0  0  0  0  0  0
   51.9158   28.8035   45.4448 H   0  0  0  0  0  0  0  0  0  0  0  0
   50.2542   27.1303   44.0826 H   0  0  0  0  0  0  0  0  0  0  0  0
   49.5875   28.5806   44.8050 H   0  0  0  0  0  0  0  0  0  0  0  0
   49.0041   28.9396   42.5319 H   0  0  0  0  0  0  0  0  0  0  0  0
   50.4129   28.0534   41.9175 H   0  0  0  0  0  0  0  0  0  0  0  0
  1  6  2  0
  1  2  1  0
  2  3  2  0
  3  7  1  0
  4  3  1  0
  5 17  1  0
  5  4  2  0
  6  5  1  0
  7 16  1  0
  8  7  2  0
  8  9  1  0
  9 10  2  0
 10 11  1  0
 11 12  2  0
 12 13  1  0
 14 13  2  0
 15 14  1  0
 16 15  2  0
 16 11  1  0
 17 19  1  0
 17 20  1  0
 18 17  1  0
 21 20  1  0
 21 25  1  0
 21 22  1  0
 22 23  1  0
 24 23  1  0
 25 24  1  0
  1 26  1  0
  2 27  1  0
  9 28  1  0
 12 29  1  0
 13 30  1  0
 14 31  1  0
 15 32  1  0
 18 33  1  0
 18 34  1  0
 18 35  1  0
 19 36  1  0
 19 37  1  0
 19 38  1  0
 20 39  1  0
 20 40  1  0
 22 41  1  0
 22 42  1  0
 23 43  1  0
 23 44  1  0
 24 45  1  0
 24 46  1  0
 25 47  1  0
 25 48  1  0
M  ISO  8  26  14  27  14  28  14  29  14  30  14  31  14  32  14  33   8
M  ISO  8  34   8  35   8  36   8  37   8  38   8  39   8  40   8  41  13
M  ISO  7  42  13  43  13  44  13  45  13  46  13  47  13  48  13
M  END
>  <minimizedAffinity>  (1) 
-5.390728

>  <minimizedRMSD>  (1) 
0.764995158

$$$$
