
     RDKit          3D

 46 49  0  0  1  0  0  0  0  0999 V2000
   46.7420   33.3540   45.0880 C   0  0  0  0  0  0  0  0  0  0  0  0
   45.7500   34.1850   44.3530 C   0  0  0  0  0  0  0  0  0  0  0  0
   44.9780   35.0780   45.0480 C   0  0  0  0  0  0  0  0  0  0  0  0
   44.1540   35.7170   44.1590 C   0  0  0  0  0  0  0  0  0  0  0  0
   44.4860   35.1590   42.9540 N   0  0  0  0  0  0  0  0  0  0  0  0
   45.4300   34.2490   43.0490 N   0  0  0  0  0  0  0  0  0  0  0  0
   44.3980   34.7030   40.5930 N   0  0  0  0  0  0  0  0  0  0  0  0
   43.2640   34.2600   39.8190 C   0  0  0  0  0  0  0  0  0  0  0  0
   42.2180   34.0100   40.9160 C   0  0  0  0  0  0  0  0  0  0  0  0
   42.3760   35.2860   41.7150 C   0  0  0  0  0  0  0  0  0  0  0  0
   43.8750   35.5060   41.6640 C   0  0  1  0  0  0  0  0  0  0  0  0
   46.1950   32.0060   45.2620 C   0  0  2  0  0  0  0  0  0  0  0  0
   45.8220   32.2240   48.9380 C   0  0  0  0  0  0  0  0  0  0  0  0
   45.3460   30.9010   49.2500 C   0  0  0  0  0  0  0  0  0  0  0  0
   45.1720   29.9670   48.1770 C   0  0  0  0  0  0  0  0  0  0  0  0
   45.4690   30.3820   46.9060 N   0  0  0  0  0  0  0  0  0  0  0  0
   45.9100   31.6270   46.6720 C   0  0  0  0  0  0  0  0  0  0  0  0
   46.0870   32.5410   47.6730 N   0  0  0  0  0  0  0  0  0  0  0  0
   47.0560   30.9130   44.6400 C   0  0  0  0  0  0  0  0  0  0  0  0
   47.5200   31.1660   43.2900 C   0  0  0  0  0  0  0  0  0  0  0  0
   48.7770   31.4750   42.8290 C   0  0  0  0  0  0  0  0  0  0  0  0
   49.1120   31.6810   41.5240 C   0  0  0  0  0  0  0  0  0  0  0  0
   48.1440   31.5740   40.5960 N   0  0  0  0  0  0  0  0  0  0  0  0
   46.8970   31.2730   41.0000 C   0  0  0  0  0  0  0  0  0  0  0  0
   46.5870   31.0740   42.2940 N   0  0  0  0  0  0  0  0  0  0  0  0
   46.9414   33.8016   46.0728 H   0  0  0  0  0  0  0  0  0  0  0  0
   47.6819   33.3045   44.5186 H   0  0  0  0  0  0  0  0  0  0  0  0
   45.0135   35.2522   46.1335 H   0  0  0  0  0  0  0  0  0  0  0  0
   43.4034   36.4943   44.3649 H   0  0  0  0  0  0  0  0  0  0  0  0
   45.0322   35.2631   40.0057 H   0  0  0  0  0  0  0  0  0  0  0  0
   42.9300   35.0372   39.1159 H   0  0  0  0  0  0  0  0  0  0  0  0
   43.4688   33.3823   39.1884 H   0  0  0  0  0  0  0  0  0  0  0  0
   41.2045   33.9101   40.5003 H   0  0  0  0  0  0  0  0  0  0  0  0
   42.3562   33.0812   41.4889 H   0  0  0  0  0  0  0  0  0  0  0  0
   41.8334   36.1205   41.2469 H   0  0  0  0  0  0  0  0  0  0  0  0
   41.9714   35.2231   42.7359 H   0  0  0  0  0  0  0  0  0  0  0  0
   44.1102   36.5641   41.4765 H   0  0  0  0  0  0  0  0  0  0  0  0
   45.2385   32.0724   44.7228 H   0  0  0  0  0  0  0  0  0  0  0  0
   45.9652   32.9655   49.7378 H   0  0  0  0  0  0  0  0  0  0  0  0
   45.1212   30.6140   50.2878 H   0  0  0  0  0  0  0  0  0  0  0  0
   44.8103   28.9460   48.3687 H   0  0  0  0  0  0  0  0  0  0  0  0
   47.9398   30.7745   45.2801 H   0  0  0  0  0  0  0  0  0  0  0  0
   46.4090   30.0260   44.5719 H   0  0  0  0  0  0  0  0  0  0  0  0
   49.5800   31.5635   43.5755 H   0  0  0  0  0  0  0  0  0  0  0  0
   50.1450   31.9278   41.2376 H   0  0  0  0  0  0  0  0  0  0  0  0
   46.1017   31.1864   40.2451 H   0  0  0  0  0  0  0  0  0  0  0  0
  1 12  1  0
  2  3  1  0
  2  1  1  0
  4  3  2  0
  5  6  1  0
  5  4  1  0
  6  2  2  0
  7 11  1  0
  8  7  1  0
  8  9  1  0
  9 10  1  0
 11 10  1  0
 11  5  1  0
 12 17  1  0
 13 14  2  0
 15 14  1  0
 16 15  2  0
 17 16  1  0
 17 18  2  0
 18 13  1  0
 19 12  1  0
 20 19  1  0
 21 20  2  0
 22 21  1  0
 23 24  1  0
 23 22  2  0
 24 25  2  0
 25 20  1  0
  1 26  1  0
  1 27  1  0
  3 28  1  0
  4 29  1  0
  7 30  1  0
  8 31  1  0
  8 32  1  0
  9 33  1  0
  9 34  1  0
 10 35  1  0
 10 36  1  0
 11 37  1  6
 12 38  1  6
 13 39  1  0
 14 40  1  0
 15 41  1  0
 19 42  1  0
 19 43  1  0
 21 44  1  0
 22 45  1  0
 24 46  1  0
M  ISO  8  26   8  27   8  28  14  29  14  30   5  31  13  32  13  33  13
M  ISO  8  34  13  35  13  36  13  37  13  38   8  39  14  40  14  41  14
M  ISO  5  42   8  43   8  44  14  45  14  46  14
M  END
>  <minimizedAffinity>  (1) 
-5.27348804

>  <minimizedRMSD>  (1) 
0.614887297

$$$$
