
     RDKit          3D

 54 57  0  0  1  0  0  0  0  0999 V2000
   46.6680   33.2350   45.0640 C   0  0  0  0  0  0  0  0  0  0  0  0
   45.7150   34.1210   44.3460 C   0  0  0  0  0  0  0  0  0  0  0  0
   45.0080   35.0600   45.0380 C   0  0  0  0  0  0  0  0  0  0  0  0
   44.2090   35.7350   44.1540 C   0  0  0  0  0  0  0  0  0  0  0  0
   44.4890   35.1460   42.9490 N   0  0  0  0  0  0  0  0  0  0  0  0
   45.3770   34.1910   43.0490 N   0  0  0  0  0  0  0  0  0  0  0  0
   44.3950   34.7180   40.5770 N   0  0  0  0  0  0  0  0  0  0  0  0
   43.2630   34.2600   39.8000 C   0  0  0  0  0  0  0  0  0  0  0  0
   42.2170   34.0350   40.8960 C   0  0  0  0  0  0  0  0  0  0  0  0
   42.3800   35.2990   41.7150 C   0  0  0  0  0  0  0  0  0  0  0  0
   43.8800   35.5140   41.6600 C   0  0  1  0  0  0  0  0  0  0  0  0
   46.0200   31.9400   45.3060 C   0  0  2  0  0  0  0  0  0  0  0  0
   45.8430   32.2310   48.9790 C   0  0  0  0  0  0  0  0  0  0  0  0
   45.4260   30.8960   49.3520 C   0  0  0  0  0  0  0  0  0  0  0  0
   45.2270   29.9330   48.3060 C   0  0  0  0  0  0  0  0  0  0  0  0
   45.4430   30.3350   47.0160 N   0  0  0  0  0  0  0  0  0  0  0  0
   45.8270   31.5840   46.7260 C   0  0  0  0  0  0  0  0  0  0  0  0
   46.0270   32.5270   47.6940 N   0  0  0  0  0  0  0  0  0  0  0  0
   46.7720   30.7890   44.6170 C   0  0  0  0  0  0  0  0  0  0  0  0
   47.9030   31.1720   43.7660 C   0  0  0  0  0  0  0  0  0  0  0  0
   47.6430   31.2120   42.2970 C   0  0  0  0  0  0  0  0  0  0  0  0
   47.8450   29.8340   41.7290 C   0  0  0  0  0  0  0  0  0  0  0  0
   49.3530   29.6150   41.6100 C   0  0  0  0  0  0  0  0  0  0  0  0
   50.0000   30.0780   42.9000 C   0  0  0  0  0  0  0  0  0  0  0  0
   48.9890   30.1370   44.0200 C   0  0  0  0  0  0  0  0  0  0  0  0
   46.9475   33.6936   46.0240 H   0  0  0  0  0  0  0  0  0  0  0  0
   47.5744   33.0917   44.4574 H   0  0  0  0  0  0  0  0  0  0  0  0
   45.0691   35.2437   46.1208 H   0  0  0  0  0  0  0  0  0  0  0  0
   43.5077   36.5565   44.3623 H   0  0  0  0  0  0  0  0  0  0  0  0
   45.0193   35.2871   39.9877 H   0  0  0  0  0  0  0  0  0  0  0  0
   42.9337   35.0235   39.0799 H   0  0  0  0  0  0  0  0  0  0  0  0
   43.4690   33.3715   39.1851 H   0  0  0  0  0  0  0  0  0  0  0  0
   41.2034   33.9534   40.4765 H   0  0  0  0  0  0  0  0  0  0  0  0
   42.3513   33.1043   41.4668 H   0  0  0  0  0  0  0  0  0  0  0  0
   41.8378   36.1422   41.2622 H   0  0  0  0  0  0  0  0  0  0  0  0
   41.9784   35.2226   42.7362 H   0  0  0  0  0  0  0  0  0  0  0  0
   44.1238   36.5717   41.4816 H   0  0  0  0  0  0  0  0  0  0  0  0
   45.0193   32.0745   44.8695 H   0  0  0  0  0  0  0  0  0  0  0  0
   46.0068   32.9960   49.7522 H   0  0  0  0  0  0  0  0  0  0  0  0
   45.2662   30.6271   50.4066 H   0  0  0  0  0  0  0  0  0  0  0  0
   44.9109   28.9045   48.5344 H   0  0  0  0  0  0  0  0  0  0  0  0
   47.1543   30.1203   45.4023 H   0  0  0  0  0  0  0  0  0  0  0  0
   46.0402   30.3222   43.9413 H   0  0  0  0  0  0  0  0  0  0  0  0
   48.1651   32.2062   44.0340 H   0  0  0  0  0  0  0  0  0  0  0  0
   46.6088   31.5390   42.1138 H   0  0  0  0  0  0  0  0  0  0  0  0
   48.3345   31.9189   41.8151 H   0  0  0  0  0  0  0  0  0  0  0  0
   47.4059   29.0810   42.3999 H   0  0  0  0  0  0  0  0  0  0  0  0
   47.3564   29.7388   40.7481 H   0  0  0  0  0  0  0  0  0  0  0  0
   49.5631   28.5472   41.4500 H   0  0  0  0  0  0  0  0  0  0  0  0
   49.7542   30.1829   40.7576 H   0  0  0  0  0  0  0  0  0  0  0  0
   50.8002   29.3747   43.1740 H   0  0  0  0  0  0  0  0  0  0  0  0
   50.4108   31.0865   42.7444 H   0  0  0  0  0  0  0  0  0  0  0  0
   49.5106   30.3939   44.9538 H   0  0  0  0  0  0  0  0  0  0  0  0
   48.5046   29.1517   44.0873 H   0  0  0  0  0  0  0  0  0  0  0  0
  1 12  1  0
  2  3  1  0
  2  1  1  0
  4  3  2  0
  5  6  1  0
  5  4  1  0
  6  2  2  0
  7 11  1  0
  8  7  1  0
  8  9  1  0
  9 10  1  0
 11 10  1  0
 11  5  1  0
 12 17  1  0
 13 14  2  0
 15 14  1  0
 16 15  2  0
 17 16  1  0
 17 18  2  0
 18 13  1  0
 19 12  1  0
 20 25  1  0
 20 19  1  0
 21 20  1  0
 22 21  1  0
 23 22  1  0
 23 24  1  0
 24 25  1  0
  1 26  1  0
  1 27  1  0
  3 28  1  0
  4 29  1  0
  7 30  1  0
  8 31  1  0
  8 32  1  0
  9 33  1  0
  9 34  1  0
 10 35  1  0
 10 36  1  0
 11 37  1  6
 12 38  1  6
 13 39  1  0
 14 40  1  0
 15 41  1  0
 19 42  1  0
 19 43  1  0
 20 44  1  0
 21 45  1  0
 21 46  1  0
 22 47  1  0
 22 48  1  0
 23 49  1  0
 23 50  1  0
 24 51  1  0
 24 52  1  0
 25 53  1  0
 25 54  1  0
M  ISO  8  26   8  27   8  28  14  29  14  30   5  31  13  32  13  33  13
M  ISO  8  34  13  35  13  36  13  37  13  38   8  39  14  40  14  41  14
M  ISO  8  42   8  43   8  44  13  45  13  46  13  47  13  48  13  49  13
M  ISO  5  50  13  51  13  52  13  53  13  54  13
M  END
>  <minimizedAffinity>  (1) 
-5.25096703

>  <minimizedRMSD>  (1) 
0.817564011

$$$$
