
     RDKit          3D

 45 48  0  0  1  0  0  0  0  0999 V2000
   46.7580   33.3240   45.1180 C   0  0  0  0  0  0  0  0  0  0  0  0
   45.7720   34.1520   44.3770 C   0  0  0  0  0  0  0  0  0  0  0  0
   44.9900   35.0230   45.0710 C   0  0  0  0  0  0  0  0  0  0  0  0
   44.1680   35.6670   44.1860 C   0  0  0  0  0  0  0  0  0  0  0  0
   44.5170   35.1240   42.9710 N   0  0  0  0  0  0  0  0  0  0  0  0
   45.4620   34.2290   43.0710 N   0  0  0  0  0  0  0  0  0  0  0  0
   44.4400   34.6860   40.6110 N   0  0  0  0  0  0  0  0  0  0  0  0
   43.3120   34.2360   39.8280 C   0  0  0  0  0  0  0  0  0  0  0  0
   42.2600   34.0050   40.9120 C   0  0  0  0  0  0  0  0  0  0  0  0
   42.4120   35.2830   41.7300 C   0  0  0  0  0  0  0  0  0  0  0  0
   43.9150   35.4850   41.6830 C   0  0  1  0  0  0  0  0  0  0  0  0
   46.2030   31.9570   45.3100 C   0  0  2  0  0  0  0  0  0  0  0  0
   45.8150   32.2330   48.9700 C   0  0  0  0  0  0  0  0  0  0  0  0
   45.3170   30.9130   49.2860 C   0  0  0  0  0  0  0  0  0  0  0  0
   45.1430   29.9800   48.2190 C   0  0  0  0  0  0  0  0  0  0  0  0
   45.4610   30.4020   46.9650 N   0  0  0  0  0  0  0  0  0  0  0  0
   45.9160   31.6210   46.7040 C   0  0  0  0  0  0  0  0  0  0  0  0
   46.0910   32.5300   47.7100 N   0  0  0  0  0  0  0  0  0  0  0  0
   47.1280   30.9170   44.6930 C   0  0  0  0  0  0  0  0  0  0  0  0
   47.6550   31.2130   43.3720 C   0  0  0  0  0  0  0  0  0  0  0  0
   48.8140   31.6470   42.7650 C   0  0  0  0  0  0  0  0  0  0  0  0
   48.6910   31.7800   41.3990 C   0  0  0  0  0  0  0  0  0  0  0  0
   47.4170   31.4120   41.1840 N   0  0  0  0  0  0  0  0  0  0  0  0
   46.8060   31.0840   42.3080 N   0  0  0  0  0  0  0  0  0  0  0  0
   46.9589   33.7806   46.0984 H   0  0  0  0  0  0  0  0  0  0  0  0
   47.6955   33.2652   44.5456 H   0  0  0  0  0  0  0  0  0  0  0  0
   45.0143   35.1825   46.1591 H   0  0  0  0  0  0  0  0  0  0  0  0
   43.4094   36.4354   44.3961 H   0  0  0  0  0  0  0  0  0  0  0  0
   45.0736   35.2501   40.0268 H   0  0  0  0  0  0  0  0  0  0  0  0
   42.9881   35.0051   39.1114 H   0  0  0  0  0  0  0  0  0  0  0  0
   43.5204   33.3503   39.2099 H   0  0  0  0  0  0  0  0  0  0  0  0
   41.2505   33.9150   40.4845 H   0  0  0  0  0  0  0  0  0  0  0  0
   42.3927   33.0765   41.4867 H   0  0  0  0  0  0  0  0  0  0  0  0
   41.8773   36.1248   41.2659 H   0  0  0  0  0  0  0  0  0  0  0  0
   41.9961   35.2210   42.7464 H   0  0  0  0  0  0  0  0  0  0  0  0
   44.1576   36.5420   41.4991 H   0  0  0  0  0  0  0  0  0  0  0  0
   45.2328   31.9497   44.7918 H   0  0  0  0  0  0  0  0  0  0  0  0
   45.9623   32.9792   49.7647 H   0  0  0  0  0  0  0  0  0  0  0  0
   45.0780   30.6342   50.3229 H   0  0  0  0  0  0  0  0  0  0  0  0
   44.7676   28.9626   48.4031 H   0  0  0  0  0  0  0  0  0  0  0  0
   47.9839   30.7878   45.3718 H   0  0  0  0  0  0  0  0  0  0  0  0
   46.5059   30.0194   44.5611 H   0  0  0  0  0  0  0  0  0  0  0  0
   49.7417   31.8648   43.3145 H   0  0  0  0  0  0  0  0  0  0  0  0
   49.4461   32.1056   40.6684 H   0  0  0  0  0  0  0  0  0  0  0  0
   46.9711   31.3885   40.2558 H   0  0  0  0  0  0  0  0  0  0  0  0
  1 12  1  0
  2  3  1  0
  2  1  1  0
  4  3  2  0
  5  6  1  0
  5  4  1  0
  6  2  2  0
  7 11  1  0
  8  7  1  0
  8  9  1  0
  9 10  1  0
 11 10  1  0
 11  5  1  0
 12 17  1  0
 13 14  2  0
 15 14  1  0
 16 15  2  0
 17 16  1  0
 17 18  2  0
 18 13  1  0
 19 12  1  0
 20 19  1  0
 21 20  1  0
 22 21  2  0
 23 22  1  0
 23 24  1  0
 24 20  2  0
  1 25  1  0
  1 26  1  0
  3 27  1  0
  4 28  1  0
  7 29  1  0
  8 30  1  0
  8 31  1  0
  9 32  1  0
  9 33  1  0
 10 34  1  0
 10 35  1  0
 11 36  1  6
 12 37  1  6
 13 38  1  0
 14 39  1  0
 15 40  1  0
 19 41  1  0
 19 42  1  0
 21 43  1  0
 22 44  1  0
 23 45  1  0
M  ISO  8  25   8  26   8  27  14  28  14  29   5  30  13  31  13  32  13
M  ISO  8  33  13  34  13  35  13  36  13  37   8  38  14  39  14  40  14
M  ISO  5  41   8  42   8  43  14  44  14  45   9
M  END
>  <minimizedAffinity>  (1) 
-5.21086645

>  <minimizedRMSD>  (1) 
2.29466081

$$$$
