
     RDKit          3D

 44 47  0  0  1  0  0  0  0  0999 V2000
   46.7940   33.3500   45.0650 C   0  0  0  0  0  0  0  0  0  0  0  0
   45.7800   34.1730   44.3480 C   0  0  0  0  0  0  0  0  0  0  0  0
   44.9880   35.0300   45.0500 C   0  0  0  0  0  0  0  0  0  0  0  0
   44.1490   35.6690   44.1790 C   0  0  0  0  0  0  0  0  0  0  0  0
   44.4990   35.1390   42.9620 N   0  0  0  0  0  0  0  0  0  0  0  0
   45.4640   34.2520   43.0510 N   0  0  0  0  0  0  0  0  0  0  0  0
   44.4050   34.7040   40.5970 N   0  0  0  0  0  0  0  0  0  0  0  0
   43.2700   34.2480   39.8230 C   0  0  0  0  0  0  0  0  0  0  0  0
   42.2240   34.0060   40.9250 C   0  0  0  0  0  0  0  0  0  0  0  0
   42.3860   35.2790   41.7310 C   0  0  0  0  0  0  0  0  0  0  0  0
   43.8860   35.4980   41.6730 C   0  0  1  0  0  0  0  0  0  0  0  0
   46.2590   31.9980   45.2470 C   0  0  2  0  0  0  0  0  0  0  0  0
   45.8140   32.2520   48.9070 C   0  0  0  0  0  0  0  0  0  0  0  0
   45.3010   30.9340   49.2200 C   0  0  0  0  0  0  0  0  0  0  0  0
   45.1320   29.9960   48.1490 C   0  0  0  0  0  0  0  0  0  0  0  0
   45.4680   30.4060   46.8850 N   0  0  0  0  0  0  0  0  0  0  0  0
   45.9380   31.6340   46.6460 C   0  0  0  0  0  0  0  0  0  0  0  0
   46.1100   32.5460   47.6480 N   0  0  0  0  0  0  0  0  0  0  0  0
   47.1440   30.8930   44.6510 C   0  0  0  0  0  0  0  0  0  0  0  0
   47.5570   31.1570   43.2600 C   0  0  0  0  0  0  0  0  0  0  0  0
   46.5990   31.0450   42.0780 C   0  0  0  0  0  0  0  0  0  0  0  0
   47.6460   31.4950   40.7210 S   0  0  0  0  0  0  0  0  0  0  0  0
   49.1750   31.7690   41.8340 C   0  0  0  0  0  0  0  0  0  0  0  0
   48.8070   31.5200   43.0360 N   0  0  0  0  0  0  0  0  0  0  0  0
   47.0079   33.7986   46.0464 H   0  0  0  0  0  0  0  0  0  0  0  0
   47.7247   33.3090   44.4800 H   0  0  0  0  0  0  0  0  0  0  0  0
   45.0181   35.1832   46.1389 H   0  0  0  0  0  0  0  0  0  0  0  0
   43.3804   36.4242   44.4001 H   0  0  0  0  0  0  0  0  0  0  0  0
   45.0300   35.2721   40.0075 H   0  0  0  0  0  0  0  0  0  0  0  0
   42.9338   35.0168   39.1118 H   0  0  0  0  0  0  0  0  0  0  0  0
   43.4775   33.3653   39.2002 H   0  0  0  0  0  0  0  0  0  0  0  0
   41.2094   33.9124   40.5105 H   0  0  0  0  0  0  0  0  0  0  0  0
   42.3622   33.0765   41.4969 H   0  0  0  0  0  0  0  0  0  0  0  0
   41.8414   36.1163   41.2701 H   0  0  0  0  0  0  0  0  0  0  0  0
   41.9861   35.2113   42.7535 H   0  0  0  0  0  0  0  0  0  0  0  0
   44.1225   36.5564   41.4888 H   0  0  0  0  0  0  0  0  0  0  0  0
   45.3157   32.0534   44.6838 H   0  0  0  0  0  0  0  0  0  0  0  0
   45.9561   32.9985   49.7023 H   0  0  0  0  0  0  0  0  0  0  0  0
   45.0472   30.6594   50.2545 H   0  0  0  0  0  0  0  0  0  0  0  0
   44.7462   28.9828   48.3351 H   0  0  0  0  0  0  0  0  0  0  0  0
   48.0479   30.7985   45.2707 H   0  0  0  0  0  0  0  0  0  0  0  0
   46.5466   29.9694   44.6416 H   0  0  0  0  0  0  0  0  0  0  0  0
   45.5367   30.7597   42.0702 H   0  0  0  0  0  0  0  0  0  0  0  0
   50.1777   32.0804   41.5061 H   0  0  0  0  0  0  0  0  0  0  0  0
  1 12  1  0
  2  3  1  0
  2  1  1  0
  4  3  2  0
  5  6  1  0
  5  4  1  0
  6  2  2  0
  7 11  1  0
  8  7  1  0
  8  9  1  0
  9 10  1  0
 11 10  1  0
 11  5  1  0
 12 17  1  0
 13 14  2  0
 15 14  1  0
 16 15  2  0
 17 16  1  0
 17 18  2  0
 18 13  1  0
 19 12  1  0
 20 19  1  0
 21 20  2  0
 22 23  1  0
 22 21  1  0
 23 24  2  0
 24 20  1  0
  1 25  1  0
  1 26  1  0
  3 27  1  0
  4 28  1  0
  7 29  1  0
  8 30  1  0
  8 31  1  0
  9 32  1  0
  9 33  1  0
 10 34  1  0
 10 35  1  0
 11 36  1  6
 12 37  1  6
 13 38  1  0
 14 39  1  0
 15 40  1  0
 19 41  1  0
 19 42  1  0
 21 43  1  0
 23 44  1  0
M  ISO  8  25   8  26   8  27  14  28  14  29   5  30  13  31  13  32  13
M  ISO  8  33  13  34  13  35  13  36  13  37   8  38  14  39  14  40  14
M  ISO  4  41   8  42   8  43  14  44  14
M  END
>  <minimizedAffinity>  (1) 
-5.14672995

>  <minimizedRMSD>  (1) 
0.550656617

$$$$
