
     RDKit          3D

 38 40  0  0  0  0  0  0  0  0999 V2000
   47.3270   34.1860   40.1600 C   0  0  0  0  0  0  0  0  0  0  0  0
   46.6610   34.4500   41.3640 C   0  0  0  0  0  0  0  0  0  0  0  0
   47.0840   34.0010   42.6150 C   0  0  0  0  0  0  0  0  0  0  0  0
   48.2000   33.2990   42.4700 N   0  0  0  0  0  0  0  0  0  0  0  0
   48.8800   33.0090   41.3940 C   0  0  0  0  0  0  0  0  0  0  0  0
   48.4430   33.4550   40.2180 N   0  0  0  0  0  0  0  0  0  0  0  0
   46.2060   34.4230   43.6890 C   0  0  0  0  0  0  0  0  0  0  0  0
   45.4060   35.5020   43.6140 N   0  0  0  0  0  0  0  0  0  0  0  0
   44.5990   35.8960   44.6070 C   0  0  0  0  0  0  0  0  0  0  0  0
   44.5410   35.2090   45.7730 N   0  0  0  0  0  0  0  0  0  0  0  0
   45.3030   34.1180   45.9400 C   0  0  0  0  0  0  0  0  0  0  0  0
   45.2480   33.4220   47.1150 C   0  0  0  0  0  0  0  0  0  0  0  0
   46.0210   32.2960   47.3130 C   0  0  0  0  0  0  0  0  0  0  0  0
   46.8530   31.8950   46.2830 C   0  0  0  0  0  0  0  0  0  0  0  0
   46.8640   32.6400   45.1200 C   0  0  0  0  0  0  0  0  0  0  0  0
   46.1210   33.7550   44.8820 C   0  0  0  0  0  0  0  0  0  0  0  0
   50.0950   32.1860   41.6150 C   0  0  0  0  0  0  0  0  0  0  0  0
   50.6460   31.7370   40.2730 C   0  0  0  0  0  0  0  0  0  0  0  0
   51.1740   33.0800   42.2240 C   0  0  0  0  0  0  0  0  0  0  0  0
   49.8540   30.9890   42.5060 C   0  0  0  0  0  0  0  0  0  0  0  0
   48.7120   30.2660   42.0430 N   0  0  0  0  0  0  0  0  0  0  0  0
   46.9445   34.5671   39.2016 H   0  0  0  0  0  0  0  0  0  0  0  0
   45.7417   35.0525   41.3197 H   0  0  0  0  0  0  0  0  0  0  0  0
   43.9736   36.7911   44.4740 H   0  0  0  0  0  0  0  0  0  0  0  0
   44.5766   33.7650   47.9160 H   0  0  0  0  0  0  0  0  0  0  0  0
   45.9770   31.7358   48.2586 H   0  0  0  0  0  0  0  0  0  0  0  0
   47.4903   31.0045   46.3877 H   0  0  0  0  0  0  0  0  0  0  0  0
   47.5327   32.3020   44.3146 H   0  0  0  0  0  0  0  0  0  0  0  0
   51.4895   31.0496   40.4344 H   0  0  0  0  0  0  0  0  0  0  0  0
   49.8564   31.2218   39.7063 H   0  0  0  0  0  0  0  0  0  0  0  0
   50.9912   32.6143   39.7063 H   0  0  0  0  0  0  0  0  0  0  0  0
   51.1146   33.0308   43.3213 H   0  0  0  0  0  0  0  0  0  0  0  0
   52.1651   32.7348   41.8946 H   0  0  0  0  0  0  0  0  0  0  0  0
   51.0191   34.1180   41.8946 H   0  0  0  0  0  0  0  0  0  0  0  0
   50.7363   30.3325   42.4830 H   0  0  0  0  0  0  0  0  0  0  0  0
   49.6752   31.3317   43.5359 H   0  0  0  0  0  0  0  0  0  0  0  0
   48.1717   29.9239   42.8504 H   0  0  0  0  0  0  0  0  0  0  0  0
   48.1207   30.8870   41.4724 H   0  0  0  0  0  0  0  0  0  0  0  0
  1  6  2  0
  1  2  1  0
  2  3  2  0
  3  7  1  0
  4  3  1  0
  5 17  1  0
  5  4  2  0
  6  5  1  0
  7 16  1  0
  8  7  2  0
  8  9  1  0
  9 10  2  0
 10 11  1  0
 11 12  2  0
 12 13  1  0
 14 13  2  0
 15 14  1  0
 16 15  2  0
 16 11  1  0
 17 19  1  0
 17 20  1  0
 18 17  1  0
 21 20  1  0
  1 22  1  0
  2 23  1  0
  9 24  1  0
 12 25  1  0
 13 26  1  0
 14 27  1  0
 15 28  1  0
 18 29  1  0
 18 30  1  0
 18 31  1  0
 19 32  1  0
 19 33  1  0
 19 34  1  0
 20 35  1  0
 20 36  1  0
 21 37  1  0
 21 38  1  0
M  ISO  8  22  14  23  14  24  14  25  14  26  14  27  14  28  14  29   8
M  ISO  8  30   8  31   8  32   8  33   8  34   8  35   8  36   8  37   5
M  ISO  1  38   5
M  END
>  <minimizedAffinity>  (1) 
-5.36379147

>  <minimizedRMSD>  (1) 
0.050053101

$$$$
