
     RDKit          3D

 44 47  0  0  1  0  0  0  0  0999 V2000
   46.7440   33.3430   45.1950 C   0  0  0  0  0  0  0  0  0  0  0  0
   45.7810   34.1610   44.4110 C   0  0  0  0  0  0  0  0  0  0  0  0
   44.9840   35.0450   45.0670 C   0  0  0  0  0  0  0  0  0  0  0  0
   44.1860   35.6760   44.1480 C   0  0  0  0  0  0  0  0  0  0  0  0
   44.5620   35.1170   42.9640 N   0  0  0  0  0  0  0  0  0  0  0  0
   45.5010   34.2220   43.1020 N   0  0  0  0  0  0  0  0  0  0  0  0
   44.5290   34.6160   40.6040 N   0  0  0  0  0  0  0  0  0  0  0  0
   43.4250   34.1580   39.8050 C   0  0  0  0  0  0  0  0  0  0  0  0
   42.3460   33.9600   40.8680 C   0  0  0  0  0  0  0  0  0  0  0  0
   42.4910   35.2560   41.6590 C   0  0  0  0  0  0  0  0  0  0  0  0
   43.9960   35.4510   41.6470 C   0  0  1  0  0  0  0  0  0  0  0  0
   46.1960   31.9700   45.3560 C   0  0  2  0  0  0  0  0  0  0  0  0
   45.7860   32.1800   49.0220 C   0  0  0  0  0  0  0  0  0  0  0  0
   45.3070   30.8520   49.3190 C   0  0  0  0  0  0  0  0  0  0  0  0
   45.1530   29.9310   48.2310 C   0  0  0  0  0  0  0  0  0  0  0  0
   45.4710   30.3770   46.9830 N   0  0  0  0  0  0  0  0  0  0  0  0
   45.9100   31.6070   46.7470 C   0  0  0  0  0  0  0  0  0  0  0  0
   46.0650   32.5020   47.7660 N   0  0  0  0  0  0  0  0  0  0  0  0
   47.1330   30.9460   44.7270 C   0  0  0  0  0  0  0  0  0  0  0  0
   47.5570   31.2220   43.4030 N   0  0  0  0  0  0  0  0  0  0  0  0
   46.6830   30.8830   42.4100 C   0  0  0  0  0  0  0  0  0  0  0  0
   47.1950   31.2110   41.1950 N   0  0  0  0  0  0  0  0  0  0  0  0
   48.3960   31.7590   41.4400 C   0  0  0  0  0  0  0  0  0  0  0  0
   48.5760   31.7480   42.7690 N   0  0  0  0  0  0  0  0  0  0  0  0
   46.8940   33.7984   46.1850 H   0  0  0  0  0  0  0  0  0  0  0  0
   47.7084   33.2982   44.6677 H   0  0  0  0  0  0  0  0  0  0  0  0
   44.9799   35.2240   46.1523 H   0  0  0  0  0  0  0  0  0  0  0  0
   43.4239   36.4493   44.3246 H   0  0  0  0  0  0  0  0  0  0  0  0
   45.1834   35.1572   40.0211 H   0  0  0  0  0  0  0  0  0  0  0  0
   43.1251   34.9125   39.0628 H   0  0  0  0  0  0  0  0  0  0  0  0
   43.6422   33.2578   39.2113 H   0  0  0  0  0  0  0  0  0  0  0  0
   41.3460   33.8684   40.4190 H   0  0  0  0  0  0  0  0  0  0  0  0
   42.4561   33.0438   41.4667 H   0  0  0  0  0  0  0  0  0  0  0  0
   41.9738   36.0900   41.1621 H   0  0  0  0  0  0  0  0  0  0  0  0
   42.0517   35.2179   42.6668 H   0  0  0  0  0  0  0  0  0  0  0  0
   44.2612   36.4998   41.4480 H   0  0  0  0  0  0  0  0  0  0  0  0
   45.2293   31.9655   44.8312 H   0  0  0  0  0  0  0  0  0  0  0  0
   45.9183   32.9169   49.8279 H   0  0  0  0  0  0  0  0  0  0  0  0
   45.0668   30.5546   50.3504 H   0  0  0  0  0  0  0  0  0  0  0  0
   44.7925   28.9051   48.3970 H   0  0  0  0  0  0  0  0  0  0  0  0
   48.0299   30.8772   45.3601 H   0  0  0  0  0  0  0  0  0  0  0  0
   46.5534   30.0132   44.6642 H   0  0  0  0  0  0  0  0  0  0  0  0
   45.7026   30.4109   42.5711 H   0  0  0  0  0  0  0  0  0  0  0  0
   49.1016   32.1454   40.6897 H   0  0  0  0  0  0  0  0  0  0  0  0
  1 12  1  0
  2  3  1  0
  2  1  1  0
  4  3  2  0
  5  6  1  0
  5  4  1  0
  6  2  2  0
  7 11  1  0
  8  7  1  0
  8  9  1  0
  9 10  1  0
 11 10  1  0
 11  5  1  0
 12 17  1  0
 13 14  2  0
 15 14  1  0
 16 15  2  0
 17 16  1  0
 17 18  2  0
 18 13  1  0
 19 12  1  0
 20 19  1  0
 21 20  1  0
 22 23  1  0
 22 21  2  0
 23 24  2  0
 24 20  1  0
  1 25  1  0
  1 26  1  0
  3 27  1  0
  4 28  1  0
  7 29  1  0
  8 30  1  0
  8 31  1  0
  9 32  1  0
  9 33  1  0
 10 34  1  0
 10 35  1  0
 11 36  1  6
 12 37  1  6
 13 38  1  0
 14 39  1  0
 15 40  1  0
 19 41  1  0
 19 42  1  0
 21 43  1  0
 23 44  1  0
M  ISO  8  25   8  26   8  27  14  28  14  29   5  30  13  31  13  32  13
M  ISO  8  33  13  34  13  35  13  36  13  37   8  38  14  39  14  40  14
M  ISO  4  41   8  42   8  43  14  44  14
M  END
>  <minimizedAffinity>  (1) 
-5.118011

>  <minimizedRMSD>  (1) 
2.11616969

$$$$
