
     RDKit          3D

 52 55  0  0  1  0  0  0  0  0999 V2000
   46.7350   33.2540   45.0700 C   0  0  0  0  0  0  0  0  0  0  0  0
   45.7610   34.1140   44.3550 C   0  0  0  0  0  0  0  0  0  0  0  0
   45.0120   35.0040   45.0710 C   0  0  0  0  0  0  0  0  0  0  0  0
   44.1920   35.6660   44.1840 C   0  0  0  0  0  0  0  0  0  0  0  0
   44.4950   35.1320   42.9750 N   0  0  0  0  0  0  0  0  0  0  0  0
   45.4310   34.2020   43.0510 N   0  0  0  0  0  0  0  0  0  0  0  0
   44.4170   34.7110   40.6020 N   0  0  0  0  0  0  0  0  0  0  0  0
   43.2950   34.2700   39.8140 C   0  0  0  0  0  0  0  0  0  0  0  0
   42.2450   34.0170   40.9030 C   0  0  0  0  0  0  0  0  0  0  0  0
   42.3970   35.2790   41.7280 C   0  0  0  0  0  0  0  0  0  0  0  0
   43.8920   35.5040   41.6950 C   0  0  1  0  0  0  0  0  0  0  0  0
   46.1130   31.9290   45.3090 C   0  0  2  0  0  0  0  0  0  0  0  0
   45.8290   32.2520   48.9700 C   0  0  0  0  0  0  0  0  0  0  0  0
   45.3690   30.9240   49.3180 C   0  0  0  0  0  0  0  0  0  0  0  0
   45.1790   29.9600   48.2720 C   0  0  0  0  0  0  0  0  0  0  0  0
   45.4460   30.3570   46.9930 N   0  0  0  0  0  0  0  0  0  0  0  0
   45.8700   31.6000   46.7190 C   0  0  0  0  0  0  0  0  0  0  0  0
   46.0520   32.5120   47.6920 N   0  0  0  0  0  0  0  0  0  0  0  0
   46.9500   30.8140   44.6490 C   0  0  0  0  0  0  0  0  0  0  0  0
   47.6400   31.3200   43.4480 N   0  0  0  0  0  0  0  0  0  0  0  0
   48.9400   30.6640   43.3780 C   0  0  0  0  0  0  0  0  0  0  0  0
   49.3370   30.3580   41.9560 C   0  0  0  0  0  0  0  0  0  0  0  0
   48.5210   29.2720   41.4450 N   0  0  0  0  0  0  0  0  0  0  0  0
   47.1630   29.3990   41.9670 C   0  0  0  0  0  0  0  0  0  0  0  0
   46.9260   30.8760   42.2530 C   0  0  0  0  0  0  0  0  0  0  0  0
   47.0014   33.7168   46.0317 H   0  0  0  0  0  0  0  0  0  0  0  0
   47.6464   33.1368   44.4653 H   0  0  0  0  0  0  0  0  0  0  0  0
   45.0557   35.1632   46.1585 H   0  0  0  0  0  0  0  0  0  0  0  0
   43.4557   36.4523   44.4067 H   0  0  0  0  0  0  0  0  0  0  0  0
   45.0502   35.2824   40.0246 H   0  0  0  0  0  0  0  0  0  0  0  0
   42.9660   35.0489   39.1104 H   0  0  0  0  0  0  0  0  0  0  0  0
   43.5055   33.3967   39.1791 H   0  0  0  0  0  0  0  0  0  0  0  0
   41.2337   33.9274   40.4797 H   0  0  0  0  0  0  0  0  0  0  0  0
   42.3823   33.0814   41.4650 H   0  0  0  0  0  0  0  0  0  0  0  0
   41.8567   36.1214   41.2715 H   0  0  0  0  0  0  0  0  0  0  0  0
   41.9855   35.1942   42.7446 H   0  0  0  0  0  0  0  0  0  0  0  0
   44.1312   36.5658   41.5360 H   0  0  0  0  0  0  0  0  0  0  0  0
   45.1179   31.9959   44.8450 H   0  0  0  0  0  0  0  0  0  0  0  0
   45.9878   33.0191   49.7422 H   0  0  0  0  0  0  0  0  0  0  0  0
   45.1685   30.6584   50.3665 H   0  0  0  0  0  0  0  0  0  0  0  0
   44.8314   28.9399   48.4922 H   0  0  0  0  0  0  0  0  0  0  0  0
   47.6982   30.4504   45.3687 H   0  0  0  0  0  0  0  0  0  0  0  0
   46.2769   29.9964   44.3514 H   0  0  0  0  0  0  0  0  0  0  0  0
   49.6971   31.3254   43.8245 H   0  0  0  0  0  0  0  0  0  0  0  0
   48.8729   29.7128   43.9265 H   0  0  0  0  0  0  0  0  0  0  0  0
   49.1871   31.2525   41.3336 H   0  0  0  0  0  0  0  0  0  0  0  0
   50.3963   30.0629   41.9282 H   0  0  0  0  0  0  0  0  0  0  0  0
   48.4990   29.3134   40.4161 H   0  0  0  0  0  0  0  0  0  0  0  0
   46.4379   29.0383   41.2225 H   0  0  0  0  0  0  0  0  0  0  0  0
   47.0387   28.7997   42.8810 H   0  0  0  0  0  0  0  0  0  0  0  0
   47.2731   31.4654   41.3915 H   0  0  0  0  0  0  0  0  0  0  0  0
   45.8493   31.0220   42.4247 H   0  0  0  0  0  0  0  0  0  0  0  0
  1 12  1  0
  2  1  1  0
  2  3  1  0
  4  3  2  0
  5  6  1  0
  5  4  1  0
  6  2  2  0
  7 11  1  0
  8  7  1  0
  8  9  1  0
  9 10  1  0
 11 10  1  0
 11  5  1  0
 12 17  1  0
 13 14  2  0
 15 14  1  0
 16 15  2  0
 17 16  1  0
 17 18  2  0
 18 13  1  0
 19 12  1  0
 20 19  1  0
 21 20  1  0
 22 21  1  0
 23 22  1  0
 23 24  1  0
 24 25  1  0
 25 20  1  0
  1 26  1  0
  1 27  1  0
  3 28  1  0
  4 29  1  0
  7 30  1  0
  8 31  1  0
  8 32  1  0
  9 33  1  0
  9 34  1  0
 10 35  1  0
 10 36  1  0
 11 37  1  6
 12 38  1  6
 13 39  1  0
 14 40  1  0
 15 41  1  0
 19 42  1  0
 19 43  1  0
 21 44  1  0
 21 45  1  0
 22 46  1  0
 22 47  1  0
 23 48  1  0
 24 49  1  0
 24 50  1  0
 25 51  1  0
 25 52  1  0
M  ISO  8  26   8  27   8  28  14  29  14  30   5  31  13  32  13  33  13
M  ISO  8  34  13  35  13  36  13  37  13  38   8  39  14  40  14  41  14
M  ISO  8  42   8  43   8  44  13  45  13  46  13  47  13  48   5  49  13
M  ISO  3  50  13  51  13  52  13
M  END
>  <minimizedAffinity>  (1) 
-5.07330179

>  <minimizedRMSD>  (1) 
0.732010841

$$$$
