
     RDKit          3D

 39 41  0  0  1  0  0  0  0  0999 V2000
   45.7010   33.8500   44.2030 C   0  0  0  0  0  0  0  0  0  0  0  0
   45.1820   34.8720   44.9430 C   0  0  0  0  0  0  0  0  0  0  0  0
   44.4130   35.6460   44.1130 C   0  0  0  0  0  0  0  0  0  0  0  0
   44.5190   35.0270   42.8920 N   0  0  0  0  0  0  0  0  0  0  0  0
   45.2790   33.9620   42.9350 N   0  0  0  0  0  0  0  0  0  0  0  0
   44.3400   34.7260   40.5070 N   0  0  0  0  0  0  0  0  0  0  0  0
   43.1680   34.3370   39.7440 C   0  0  0  0  0  0  0  0  0  0  0  0
   42.1610   34.0530   40.8580 C   0  0  0  0  0  0  0  0  0  0  0  0
   42.3680   35.2710   41.7390 C   0  0  0  0  0  0  0  0  0  0  0  0
   43.8700   35.4710   41.6520 C   0  0  1  0  0  0  0  0  0  0  0  0
   46.5830   32.8470   44.8660 C   0  0  0  0  0  0  0  0  0  0  0  0
   45.7630   31.7060   45.2810 C   0  0  2  0  0  0  0  0  0  0  0  0
   45.9180   32.3000   48.9130 C   0  0  0  0  0  0  0  0  0  0  0  0
   45.4830   31.0190   49.4190 C   0  0  0  0  0  0  0  0  0  0  0  0
   45.1600   29.9990   48.4920 C   0  0  0  0  0  0  0  0  0  0  0  0
   45.2720   30.2600   47.1500 N   0  0  0  0  0  0  0  0  0  0  0  0
   45.6820   31.4680   46.7280 C   0  0  0  0  0  0  0  0  0  0  0  0
   45.9980   32.4690   47.6050 N   0  0  0  0  0  0  0  0  0  0  0  0
   46.2590   30.4010   44.5970 C   0  0  0  0  0  0  0  0  0  0  0  0
   48.0640   30.4050   44.5590 S   0  0  0  0  0  0  0  0  0  0  0  0
   45.3508   35.0445   46.0162 H   0  0  0  0  0  0  0  0  0  0  0  0
   43.8434   36.5523   44.3663 H   0  0  0  0  0  0  0  0  0  0  0  0
   44.9577   35.3153   39.9308 H   0  0  0  0  0  0  0  0  0  0  0  0
   42.8250   35.1525   39.0903 H   0  0  0  0  0  0  0  0  0  0  0  0
   43.3362   33.4889   39.0640 H   0  0  0  0  0  0  0  0  0  0  0  0
   41.1324   34.0020   40.4716 H   0  0  0  0  0  0  0  0  0  0  0  0
   42.3040   33.0894   41.3690 H   0  0  0  0  0  0  0  0  0  0  0  0
   41.8251   36.1441   41.3480 H   0  0  0  0  0  0  0  0  0  0  0  0
   41.9960   35.1439   42.7664 H   0  0  0  0  0  0  0  0  0  0  0  0
   44.1191   36.5354   41.5296 H   0  0  0  0  0  0  0  0  0  0  0  0
   47.3569   32.5102   44.1606 H   0  0  0  0  0  0  0  0  0  0  0  0
   47.0718   33.2973   45.7425 H   0  0  0  0  0  0  0  0  0  0  0  0
   44.7479   31.9805   44.9581 H   0  0  0  0  0  0  0  0  0  0  0  0
   46.1772   33.1175   49.6019 H   0  0  0  0  0  0  0  0  0  0  0  0
   45.4044   30.8398   50.5015 H   0  0  0  0  0  0  0  0  0  0  0  0
   44.8242   29.0119   48.8426 H   0  0  0  0  0  0  0  0  0  0  0  0
   45.9043   29.5289   45.1659 H   0  0  0  0  0  0  0  0  0  0  0  0
   45.8663   30.3475   43.5709 H   0  0  0  0  0  0  0  0  0  0  0  0
   48.5477   30.4061   45.8408 H   0  0  0  0  0  0  0  0  0  0  0  0
  1 11  1  0
  1  2  1  0
  3  2  2  0
  4  5  1  0
  4  3  1  0
  5  1  2  0
  6 10  1  0
  7  6  1  0
  7  8  1  0
  8  9  1  0
 10  9  1  0
 10  4  1  0
 11 12  1  0
 12 17  1  0
 13 14  2  0
 15 14  1  0
 16 15  2  0
 17 16  1  0
 17 18  2  0
 18 13  1  0
 19 12  1  0
 20 19  1  0
  2 21  1  0
  3 22  1  0
  6 23  1  0
  7 24  1  0
  7 25  1  0
  8 26  1  0
  8 27  1  0
  9 28  1  0
  9 29  1  0
 10 30  1  6
 11 31  1  0
 11 32  1  0
 12 33  1  6
 13 34  1  0
 14 35  1  0
 15 36  1  0
 19 37  1  0
 19 38  1  0
 20 39  1  0
M  ISO  8  21  14  22  14  23   5  24  13  25  13  26  13  27  13  28  13
M  ISO  8  29  13  30  13  31   8  32   8  33   8  34  14  35  14  36  14
M  ISO  3  37   8  38   8  39  11
M  END
>  <minimizedAffinity>  (1) 
-4.8141675

>  <minimizedRMSD>  (1) 
0.33077246

$$$$
