
     RDKit          3D

 46 49  0  0  0  0  0  0  0  0999 V2000
   47.2300   33.9510   40.0930 C   0  0  0  0  0  0  0  0  0  0  0  0
   46.5710   34.3060   41.2730 C   0  0  0  0  0  0  0  0  0  0  0  0
   47.0320   34.0040   42.5540 C   0  0  0  0  0  0  0  0  0  0  0  0
   48.1780   33.3390   42.4540 N   0  0  0  0  0  0  0  0  0  0  0  0
   48.8520   32.9720   41.3950 C   0  0  0  0  0  0  0  0  0  0  0  0
   48.3710   33.2840   40.1930 N   0  0  0  0  0  0  0  0  0  0  0  0
   46.1570   34.4960   43.6060 C   0  0  0  0  0  0  0  0  0  0  0  0
   45.4100   35.6070   43.4950 N   0  0  0  0  0  0  0  0  0  0  0  0
   44.6110   36.0560   44.4630 C   0  0  0  0  0  0  0  0  0  0  0  0
   44.5100   35.3990   45.6350 N   0  0  0  0  0  0  0  0  0  0  0  0
   45.2100   34.2880   45.8430 C   0  0  0  0  0  0  0  0  0  0  0  0
   45.0880   33.6420   47.0390 C   0  0  0  0  0  0  0  0  0  0  0  0
   45.8140   32.4760   47.2750 C   0  0  0  0  0  0  0  0  0  0  0  0
   46.6450   32.0080   46.2710 C   0  0  0  0  0  0  0  0  0  0  0  0
   46.7140   32.7120   45.0950 C   0  0  0  0  0  0  0  0  0  0  0  0
   46.0260   33.8570   44.8120 C   0  0  0  0  0  0  0  0  0  0  0  0
   50.1110   32.2400   41.6910 C   0  0  0  0  0  0  0  0  0  0  0  0
   50.7690   31.8730   40.3580 C   0  0  0  0  0  0  0  0  0  0  0  0
   51.0920   33.2180   42.3160 C   0  0  0  0  0  0  0  0  0  0  0  0
   49.9330   31.0300   42.5430 C   0  0  0  0  0  0  0  0  0  0  0  0
   48.8450   30.1450   42.1960 C   0  0  0  0  0  0  0  0  0  0  0  0
   48.5230   29.4830   41.0290 C   0  0  0  0  0  0  0  0  0  0  0  0
   47.4540   28.6710   40.8410 C   0  0  0  0  0  0  0  0  0  0  0  0
   46.5750   28.4480   41.8690 C   0  0  0  0  0  0  0  0  0  0  0  0
   46.8170   29.0640   43.0640 C   0  0  0  0  0  0  0  0  0  0  0  0
   47.9150   29.8790   43.2080 C   0  0  0  0  0  0  0  0  0  0  0  0
   46.8141   34.2173   39.1101 H   0  0  0  0  0  0  0  0  0  0  0  0
   45.6252   34.8609   41.1856 H   0  0  0  0  0  0  0  0  0  0  0  0
   44.0269   36.9743   44.3030 H   0  0  0  0  0  0  0  0  0  0  0  0
   44.4181   34.0408   47.8150 H   0  0  0  0  0  0  0  0  0  0  0  0
   45.7292   31.9419   48.2329 H   0  0  0  0  0  0  0  0  0  0  0  0
   47.2370   31.0918   46.4130 H   0  0  0  0  0  0  0  0  0  0  0  0
   47.3810   32.3201   44.3130 H   0  0  0  0  0  0  0  0  0  0  0  0
   51.7151   31.3453   40.5491 H   0  0  0  0  0  0  0  0  0  0  0  0
   50.0948   31.2206   39.7836 H   0  0  0  0  0  0  0  0  0  0  0  0
   50.9698   32.7894   39.7836 H   0  0  0  0  0  0  0  0  0  0  0  0
   51.0266   33.1528   43.4121 H   0  0  0  0  0  0  0  0  0  0  0  0
   52.1138   32.9685   41.9941 H   0  0  0  0  0  0  0  0  0  0  0  0
   50.8456   34.2406   41.9941 H   0  0  0  0  0  0  0  0  0  0  0  0
   50.8649   30.4476   42.4933 H   0  0  0  0  0  0  0  0  0  0  0  0
   49.6839   31.4152   43.5428 H   0  0  0  0  0  0  0  0  0  0  0  0
   49.1965   29.6276   40.1714 H   0  0  0  0  0  0  0  0  0  0  0  0
   47.2920   28.1914   39.8644 H   0  0  0  0  0  0  0  0  0  0  0  0
   45.7014   27.7930   41.7357 H   0  0  0  0  0  0  0  0  0  0  0  0
   46.1332   28.9080   43.9114 H   0  0  0  0  0  0  0  0  0  0  0  0
   48.0738   30.3553   44.1868 H   0  0  0  0  0  0  0  0  0  0  0  0
  1  6  2  0
  1  2  1  0
  2  3  2  0
  3  7  1  0
  4  3  1  0
  5 17  1  0
  5  4  2  0
  6  5  1  0
  7 16  1  0
  8  7  2  0
  8  9  1  0
  9 10  2  0
 10 11  1  0
 11 12  2  0
 12 13  1  0
 14 13  2  0
 15 14  1  0
 16 15  2  0
 16 11  1  0
 17 19  1  0
 17 20  1  0
 18 17  1  0
 21 20  1  0
 21 26  1  0
 22 21  2  0
 23 22  1  0
 23 24  2  0
 24 25  1  0
 25 26  2  0
  1 27  1  0
  2 28  1  0
  9 29  1  0
 12 30  1  0
 13 31  1  0
 14 32  1  0
 15 33  1  0
 18 34  1  0
 18 35  1  0
 18 36  1  0
 19 37  1  0
 19 38  1  0
 19 39  1  0
 20 40  1  0
 20 41  1  0
 22 42  1  0
 23 43  1  0
 24 44  1  0
 25 45  1  0
 26 46  1  0
M  ISO  8  27  14  28  14  29  14  30  14  31  14  32  14  33  14  34   8
M  ISO  8  35   8  36   8  37   8  38   8  39   8  40   8  41   8  42  14
M  ISO  4  43  14  44  14  45  14  46  14
M  END
>  <minimizedAffinity>  (1) 
-5.26446247

>  <minimizedRMSD>  (1) 
0.296955347

$$$$
