
     RDKit          3D

 33 35  0  0  1  0  0  0  0  0999 V2000
   44.4520   35.9440   44.7920 C   0  0  0  0  0  0  0  0  0  0  0  0
   44.8660   35.7700   43.4490 C   0  0  0  0  0  0  0  0  0  0  0  0
   45.6320   34.6510   43.1440 C   0  0  0  0  0  0  0  0  0  0  0  0
   45.9480   33.7760   44.1520 N   0  0  0  0  0  0  0  0  0  0  0  0
   45.5420   33.9690   45.4180 C   0  0  0  0  0  0  0  0  0  0  0  0
   44.8080   35.0380   45.7170 N   0  0  0  0  0  0  0  0  0  0  0  0
   45.8950   33.0350   46.4240 N   0  0  0  0  0  0  0  0  0  0  0  0
   45.1180   33.0530   47.6370 C   0  0  0  0  0  0  0  0  0  0  0  0
   45.7280   32.2700   48.7590 C   0  0  0  0  0  0  0  0  0  0  0  0
   47.0080   31.8130   48.4890 O   0  0  0  0  0  0  0  0  0  0  0  0
   46.9800   31.0910   47.3070 C   0  0  0  0  0  0  0  0  0  0  0  0
   47.0060   32.1160   46.1940 C   0  0  1  0  0  0  0  0  0  0  0  0
   46.9570   31.4860   44.8550 C   0  0  0  0  0  0  0  0  0  0  0  0
   45.8980   30.6560   44.5460 C   0  0  0  0  0  0  0  0  0  0  0  0
   45.8750   30.0800   43.2910 C   0  0  0  0  0  0  0  0  0  0  0  0
   46.8690   30.3050   42.3400 C   0  0  0  0  0  0  0  0  0  0  0  0
   47.9360   31.1350   42.6370 C   0  0  0  0  0  0  0  0  0  0  0  0
   47.9370   31.6980   43.8970 C   0  0  0  0  0  0  0  0  0  0  0  0
   43.8431   36.8151   45.0755 H   0  0  0  0  0  0  0  0  0  0  0  0
   44.5900   36.4976   42.6715 H   0  0  0  0  0  0  0  0  0  0  0  0
   45.9777   34.4708   42.1154 H   0  0  0  0  0  0  0  0  0  0  0  0
   45.0086   34.0979   47.9630 H   0  0  0  0  0  0  0  0  0  0  0  0
   44.1522   32.5802   47.4052 H   0  0  0  0  0  0  0  0  0  0  0  0
   45.7702   32.9146   49.6493 H   0  0  0  0  0  0  0  0  0  0  0  0
   45.0960   31.3828   48.9121 H   0  0  0  0  0  0  0  0  0  0  0  0
   47.8580   30.4317   47.2405 H   0  0  0  0  0  0  0  0  0  0  0  0
   46.0874   30.4510   47.2458 H   0  0  0  0  0  0  0  0  0  0  0  0
   47.9560   32.6704   46.2073 H   0  0  0  0  0  0  0  0  0  0  0  0
   45.0985   30.4598   45.2756 H   0  0  0  0  0  0  0  0  0  0  0  0
   45.0374   29.4160   43.0310 H   0  0  0  0  0  0  0  0  0  0  0  0
   46.8054   29.8228   41.3534 H   0  0  0  0  0  0  0  0  0  0  0  0
   48.7374   31.3345   41.9103 H   0  0  0  0  0  0  0  0  0  0  0  0
   48.7740   32.3616   44.1599 H   0  0  0  0  0  0  0  0  0  0  0  0
  1  6  2  0
  2  1  1  0
  3  2  2  0
  3  4  1  0
  4  5  2  0
  5  6  1  0
  5  7  1  0
  7  8  1  0
  8  9  1  0
 10  9  1  0
 11 10  1  0
 12  7  1  0
 12 11  1  0
 13 12  1  0
 14 13  2  0
 15 14  1  0
 16 17  1  0
 16 15  2  0
 17 18  2  0
 18 13  1  0
  1 19  1  0
  2 20  1  0
  3 21  1  0
  8 22  1  0
  8 23  1  0
  9 24  1  0
  9 25  1  0
 11 26  1  0
 11 27  1  0
 12 28  1  6
 14 29  1  0
 15 30  1  0
 16 31  1  0
 17 32  1  0
 18 33  1  0
M  ISO  8  19  14  20  14  21  14  22  13  23  13  24  13  25  13  26  13
M  ISO  7  27  13  28  13  29  14  30  14  31  14  32  14  33  14
M  END
>  <minimizedAffinity>  (1) 
-4.77993393

>  <minimizedRMSD>  (1) 
0.686968386

$$$$
