
     RDKit          3D

 38 40  0  0  1  0  0  0  0  0999 V2000
   44.4410   36.0620   44.7530 C   0  0  0  0  0  0  0  0  0  0  0  0
   44.9520   36.0230   43.4350 C   0  0  0  0  0  0  0  0  0  0  0  0
   45.8000   34.9800   43.0980 C   0  0  0  0  0  0  0  0  0  0  0  0
   46.0880   34.0560   44.0640 N   0  0  0  0  0  0  0  0  0  0  0  0
   45.5930   34.1170   45.3010 C   0  0  0  0  0  0  0  0  0  0  0  0
   44.7690   35.1190   45.6510 N   0  0  0  0  0  0  0  0  0  0  0  0
   45.9390   33.1180   46.2550 N   0  0  0  0  0  0  0  0  0  0  0  0
   45.1660   33.0800   47.4750 C   0  0  0  0  0  0  0  0  0  0  0  0
   45.7170   32.1530   48.5140 C   0  0  0  0  0  0  0  0  0  0  0  0
   47.0040   31.7290   48.2350 O   0  0  0  0  0  0  0  0  0  0  0  0
   46.9840   31.0970   46.9930 C   0  0  0  0  0  0  0  0  0  0  0  0
   47.0230   32.2050   45.9760 C   0  0  1  0  0  0  0  0  0  0  0  0
   47.0800   31.7370   44.6200 N   0  0  0  0  0  0  0  0  0  0  0  0
   47.8770   32.5410   43.7830 C   0  0  0  0  0  0  0  0  0  0  0  0
   47.7690   32.2250   42.3130 C   0  0  0  0  0  0  0  0  0  0  0  0
   46.2740   32.3630   41.9900 C   0  0  0  0  0  0  0  0  0  0  0  0
   45.6280   31.1970   42.7060 C   0  0  0  0  0  0  0  0  0  0  0  0
   45.7660   31.4320   44.1850 C   0  0  0  0  0  0  0  0  0  0  0  0
   43.7642   36.8777   45.0473 H   0  0  0  0  0  0  0  0  0  0  0  0
   44.6847   36.7966   42.7001 H   0  0  0  0  0  0  0  0  0  0  0  0
   46.2270   34.8982   42.0876 H   0  0  0  0  0  0  0  0  0  0  0  0
   45.1358   34.0951   47.8976 H   0  0  0  0  0  0  0  0  0  0  0  0
   44.1674   32.7035   47.2086 H   0  0  0  0  0  0  0  0  0  0  0  0
   45.7226   32.6756   49.4819 H   0  0  0  0  0  0  0  0  0  0  0  0
   45.0741   31.2606   48.5316 H   0  0  0  0  0  0  0  0  0  0  0  0
   47.8605   30.4418   46.8812 H   0  0  0  0  0  0  0  0  0  0  0  0
   46.0925   30.4641   46.8721 H   0  0  0  0  0  0  0  0  0  0  0  0
   47.9691   32.7577   46.0728 H   0  0  0  0  0  0  0  0  0  0  0  0
   47.5786   33.5894   43.9304 H   0  0  0  0  0  0  0  0  0  0  0  0
   48.9213   32.3429   44.0663 H   0  0  0  0  0  0  0  0  0  0  0  0
   48.3609   32.9371   41.7192 H   0  0  0  0  0  0  0  0  0  0  0  0
   48.1541   31.2225   42.0748 H   0  0  0  0  0  0  0  0  0  0  0  0
   45.8804   33.3184   42.3671 H   0  0  0  0  0  0  0  0  0  0  0  0
   46.0751   32.3545   40.9082 H   0  0  0  0  0  0  0  0  0  0  0  0
   44.5638   31.1345   42.4348 H   0  0  0  0  0  0  0  0  0  0  0  0
   46.1149   30.2530   42.4199 H   0  0  0  0  0  0  0  0  0  0  0  0
   45.1112   32.2719   44.4602 H   0  0  0  0  0  0  0  0  0  0  0  0
   45.4901   30.4866   44.6750 H   0  0  0  0  0  0  0  0  0  0  0  0
  1  6  2  0
  2  1  1  0
  3  2  2  0
  3  4  1  0
  4  5  2  0
  5  6  1  0
  5  7  1  0
  7  8  1  0
  8  9  1  0
 10  9  1  0
 11 10  1  0
 12  7  1  0
 12 11  1  0
 13 12  1  0
 14 13  1  0
 15 14  1  0
 16 15  1  0
 16 17  1  0
 17 18  1  0
 18 13  1  0
  1 19  1  0
  2 20  1  0
  3 21  1  0
  8 22  1  0
  8 23  1  0
  9 24  1  0
  9 25  1  0
 11 26  1  0
 11 27  1  0
 12 28  1  1
 14 29  1  0
 14 30  1  0
 15 31  1  0
 15 32  1  0
 16 33  1  0
 16 34  1  0
 17 35  1  0
 17 36  1  0
 18 37  1  0
 18 38  1  0
M  ISO  8  19  14  20  14  21  14  22  13  23  13  24  13  25  13  26  13
M  ISO  8  27  13  28  13  29  13  30  13  31  13  32  13  33  13  34  13
M  ISO  4  35  13  36  13  37  13  38  13
M  END
>  <minimizedAffinity>  (1) 
-4.93084049

>  <minimizedRMSD>  (1) 
0.658878148

$$$$
