
     RDKit          3D

 33 35  0  0  1  0  0  0  0  0999 V2000
   44.4640   35.9890   44.7590 C   0  0  0  0  0  0  0  0  0  0  0  0
   44.9130   35.8930   43.4220 C   0  0  0  0  0  0  0  0  0  0  0  0
   45.7050   34.8000   43.1050 C   0  0  0  0  0  0  0  0  0  0  0  0
   45.9990   33.8960   44.0890 N   0  0  0  0  0  0  0  0  0  0  0  0
   45.5600   34.0130   45.3430 C   0  0  0  0  0  0  0  0  0  0  0  0
   44.7990   35.0520   45.6740 N   0  0  0  0  0  0  0  0  0  0  0  0
   45.9080   33.0340   46.3040 N   0  0  0  0  0  0  0  0  0  0  0  0
   45.1540   33.0590   47.5400 C   0  0  0  0  0  0  0  0  0  0  0  0
   45.6330   32.0760   48.5630 C   0  0  0  0  0  0  0  0  0  0  0  0
   46.9230   31.6280   48.2990 O   0  0  0  0  0  0  0  0  0  0  0  0
   46.8800   30.9870   47.0780 C   0  0  0  0  0  0  0  0  0  0  0  0
   46.9680   32.0760   46.0280 C   0  0  1  0  0  0  0  0  0  0  0  0
   46.9360   31.5260   44.6570 C   0  0  0  0  0  0  0  0  0  0  0  0
   47.9880   31.7750   43.7980 C   0  0  0  0  0  0  0  0  0  0  0  0
   47.9510   31.2560   42.5090 C   0  0  0  0  0  0  0  0  0  0  0  0
   46.8240   30.5030   42.1720 C   0  0  0  0  0  0  0  0  0  0  0  0
   45.7620   30.2420   43.0150 C   0  0  0  0  0  0  0  0  0  0  0  0
   45.8370   30.7730   44.2780 C   0  0  0  0  0  0  0  0  0  0  0  0
   43.8329   36.8385   45.0592 H   0  0  0  0  0  0  0  0  0  0  0  0
   44.6467   36.6494   42.6690 H   0  0  0  0  0  0  0  0  0  0  0  0
   46.0891   34.6625   42.0834 H   0  0  0  0  0  0  0  0  0  0  0  0
   45.2266   34.0690   47.9696 H   0  0  0  0  0  0  0  0  0  0  0  0
   44.1200   32.7802   47.2889 H   0  0  0  0  0  0  0  0  0  0  0  0
   45.6213   32.5593   49.5511 H   0  0  0  0  0  0  0  0  0  0  0  0
   44.9613   31.2054   48.5346 H   0  0  0  0  0  0  0  0  0  0  0  0
   47.7284   30.2936   46.9808 H   0  0  0  0  0  0  0  0  0  0  0  0
   45.9593   30.3954   46.9670 H   0  0  0  0  0  0  0  0  0  0  0  0
   47.9366   32.5945   46.0823 H   0  0  0  0  0  0  0  0  0  0  0  0
   48.8462   32.3776   44.1302 H   0  0  0  0  0  0  0  0  0  0  0  0
   48.7668   31.4293   41.7918 H   0  0  0  0  0  0  0  0  0  0  0  0
   46.7789   30.0852   41.1554 H   0  0  0  0  0  0  0  0  0  0  0  0
   44.9005   29.6396   42.6909 H   0  0  0  0  0  0  0  0  0  0  0  0
   45.0197   30.5997   44.9936 H   0  0  0  0  0  0  0  0  0  0  0  0
  1  6  2  0
  2  1  1  0
  3  2  2  0
  3  4  1  0
  4  5  2  0
  5  6  1  0
  5  7  1  0
  7  8  1  0
  8  9  1  0
 10  9  1  0
 11 10  1  0
 12  7  1  0
 12 11  1  0
 13 12  1  0
 14 13  2  0
 15 14  1  0
 16 15  2  0
 16 17  1  0
 17 18  2  0
 18 13  1  0
  1 19  1  0
  2 20  1  0
  3 21  1  0
  8 22  1  0
  8 23  1  0
  9 24  1  0
  9 25  1  0
 11 26  1  0
 11 27  1  0
 12 28  1  1
 14 29  1  0
 15 30  1  0
 16 31  1  0
 17 32  1  0
 18 33  1  0
M  ISO  8  19  14  20  14  21  14  22  13  23  13  24  13  25  13  26  13
M  ISO  7  27  13  28  13  29  14  30  14  31  14  32  14  33  14
M  END
>  <minimizedAffinity>  (1) 
-4.76506853

>  <minimizedRMSD>  (1) 
0.794687808

$$$$
