
     RDKit          3D

 31 33  0  0  1  0  0  0  0  0999 V2000
   44.4590   35.9670   44.7460 C   0  0  0  0  0  0  0  0  0  0  0  0
   44.8890   35.8190   43.3960 C   0  0  0  0  0  0  0  0  0  0  0  0
   45.6660   34.7070   43.0820 C   0  0  0  0  0  0  0  0  0  0  0  0
   45.9680   33.8280   44.0800 N   0  0  0  0  0  0  0  0  0  0  0  0
   45.5510   33.9910   45.3380 C   0  0  0  0  0  0  0  0  0  0  0  0
   44.8060   35.0440   45.6740 N   0  0  0  0  0  0  0  0  0  0  0  0
   45.9060   33.0320   46.3250 N   0  0  0  0  0  0  0  0  0  0  0  0
   45.1540   33.0640   47.5750 C   0  0  0  0  0  0  0  0  0  0  0  0
   45.6870   32.1470   48.6190 C   0  0  0  0  0  0  0  0  0  0  0  0
   46.9500   31.6590   48.3270 O   0  0  0  0  0  0  0  0  0  0  0  0
   46.8810   30.9950   47.1180 C   0  0  0  0  0  0  0  0  0  0  0  0
   46.9750   32.0790   46.0600 C   0  0  1  0  0  0  0  0  0  0  0  0
   46.9490   31.5270   44.6910 C   0  0  0  0  0  0  0  0  0  0  0  0
   47.9610   31.7190   43.7570 C   0  0  0  0  0  0  0  0  0  0  0  0
   47.8750   31.1690   42.4790 C   0  0  0  0  0  0  0  0  0  0  0  0
   46.8020   30.4280   42.1000 N   0  0  0  0  0  0  0  0  0  0  0  0
   45.8370   30.2620   43.0360 C   0  0  0  0  0  0  0  0  0  0  0  0
   45.8980   30.7890   44.2910 N   0  0  0  0  0  0  0  0  0  0  0  0
   43.8443   36.8322   45.0350 H   0  0  0  0  0  0  0  0  0  0  0  0
   44.6166   36.5578   42.6280 H   0  0  0  0  0  0  0  0  0  0  0  0
   46.0267   34.5419   42.0560 H   0  0  0  0  0  0  0  0  0  0  0  0
   45.1794   34.0907   47.9691 H   0  0  0  0  0  0  0  0  0  0  0  0
   44.1326   32.7277   47.3437 H   0  0  0  0  0  0  0  0  0  0  0  0
   45.7359   32.6940   49.5721 H   0  0  0  0  0  0  0  0  0  0  0  0
   45.0081   31.2831   48.6710 H   0  0  0  0  0  0  0  0  0  0  0  0
   47.7167   30.2866   47.0192 H   0  0  0  0  0  0  0  0  0  0  0  0
   45.9546   30.4093   47.0240 H   0  0  0  0  0  0  0  0  0  0  0  0
   47.9443   32.5959   46.1175 H   0  0  0  0  0  0  0  0  0  0  0  0
   48.8441   32.3148   44.0311 H   0  0  0  0  0  0  0  0  0  0  0  0
   48.6928   31.3386   41.7631 H   0  0  0  0  0  0  0  0  0  0  0  0
   44.9520   29.6667   42.7671 H   0  0  0  0  0  0  0  0  0  0  0  0
  1  6  2  0
  2  1  1  0
  3  2  2  0
  3  4  1  0
  4  5  2  0
  5  6  1  0
  5  7  1  0
  7  8  1  0
  8  9  1  0
 10  9  1  0
 11 10  1  0
 12  7  1  0
 12 11  1  0
 13 12  1  0
 14 13  2  0
 15 14  1  0
 16 15  2  0
 16 17  1  0
 17 18  2  0
 18 13  1  0
  1 19  1  0
  2 20  1  0
  3 21  1  0
  8 22  1  0
  8 23  1  0
  9 24  1  0
  9 25  1  0
 11 26  1  0
 11 27  1  0
 12 28  1  1
 14 29  1  0
 15 30  1  0
 17 31  1  0
M  ISO  8  19  14  20  14  21  14  22  13  23  13  24  13  25  13  26  13
M  ISO  5  27  13  28  13  29  14  30  14  31  14
M  END
>  <minimizedAffinity>  (1) 
-4.70439339

>  <minimizedRMSD>  (1) 
0.675706029

$$$$
