
     RDKit          3D

 43 46  0  0  0  0  0  0  0  0999 V2000
   47.3160   34.1640   40.1560 C   0  0  0  0  0  0  0  0  0  0  0  0
   46.6480   34.4480   41.3450 C   0  0  0  0  0  0  0  0  0  0  0  0
   47.0670   34.0210   42.6060 C   0  0  0  0  0  0  0  0  0  0  0  0
   48.1830   33.3170   42.4800 N   0  0  0  0  0  0  0  0  0  0  0  0
   48.8660   33.0090   41.4040 C   0  0  0  0  0  0  0  0  0  0  0  0
   48.4260   33.4390   40.2210 N   0  0  0  0  0  0  0  0  0  0  0  0
   46.1890   34.4610   43.6730 C   0  0  0  0  0  0  0  0  0  0  0  0
   45.4030   35.5480   43.5910 N   0  0  0  0  0  0  0  0  0  0  0  0
   44.5950   35.9600   44.5700 C   0  0  0  0  0  0  0  0  0  0  0  0
   44.5220   35.2770   45.7420 N   0  0  0  0  0  0  0  0  0  0  0  0
   45.2720   34.1740   45.9200 C   0  0  0  0  0  0  0  0  0  0  0  0
   45.1890   33.4970   47.1000 C   0  0  0  0  0  0  0  0  0  0  0  0
   45.9480   32.3620   47.3050 C   0  0  0  0  0  0  0  0  0  0  0  0
   46.7880   31.9350   46.2800 C   0  0  0  0  0  0  0  0  0  0  0  0
   46.8120   32.6760   45.1210 C   0  0  0  0  0  0  0  0  0  0  0  0
   46.0870   33.8000   44.8690 C   0  0  0  0  0  0  0  0  0  0  0  0
   50.0840   32.1950   41.6490 C   0  0  0  0  0  0  0  0  0  0  0  0
   50.6550   31.7690   40.2990 C   0  0  0  0  0  0  0  0  0  0  0  0
   51.1500   33.0990   42.2520 C   0  0  0  0  0  0  0  0  0  0  0  0
   49.8490   31.0060   42.5330 C   0  0  0  0  0  0  0  0  0  0  0  0
   49.2220   29.9100   41.8230 N   0  0  0  0  0  0  0  0  0  0  0  0
   49.6800   28.8410   41.1520 C   0  0  0  0  0  0  0  0  0  0  0  0
   48.6320   28.0940   40.6560 C   0  0  0  0  0  0  0  0  0  0  0  0
   47.5130   28.7200   41.0320 N   0  0  0  0  0  0  0  0  0  0  0  0
   47.8660   29.8150   41.7360 C   0  0  0  0  0  0  0  0  0  0  0  0
   46.9347   34.5299   39.1913 H   0  0  0  0  0  0  0  0  0  0  0  0
   45.7286   35.0491   41.2861 H   0  0  0  0  0  0  0  0  0  0  0  0
   43.9818   36.8619   44.4264 H   0  0  0  0  0  0  0  0  0  0  0  0
   44.5150   33.8561   47.8917 H   0  0  0  0  0  0  0  0  0  0  0  0
   45.8905   31.8090   48.2542 H   0  0  0  0  0  0  0  0  0  0  0  0
   47.4113   31.0357   46.3930 H   0  0  0  0  0  0  0  0  0  0  0  0
   47.4814   32.3265   44.3212 H   0  0  0  0  0  0  0  0  0  0  0  0
   51.5273   31.1182   40.4587 H   0  0  0  0  0  0  0  0  0  0  0  0
   49.8875   31.2210   39.7327 H   0  0  0  0  0  0  0  0  0  0  0  0
   50.9617   32.6608   39.7327 H   0  0  0  0  0  0  0  0  0  0  0  0
   51.0934   33.0510   43.3495 H   0  0  0  0  0  0  0  0  0  0  0  0
   52.1443   32.7646   41.9211 H   0  0  0  0  0  0  0  0  0  0  0  0
   50.9825   34.1346   41.9211 H   0  0  0  0  0  0  0  0  0  0  0  0
   50.8160   30.6635   42.9301 H   0  0  0  0  0  0  0  0  0  0  0  0
   49.1706   31.3159   43.3415 H   0  0  0  0  0  0  0  0  0  0  0  0
   50.7436   28.5951   41.0166 H   0  0  0  0  0  0  0  0  0  0  0  0
   48.7032   27.1672   40.0678 H   0  0  0  0  0  0  0  0  0  0  0  0
   47.1578   30.5312   42.1781 H   0  0  0  0  0  0  0  0  0  0  0  0
  1  6  2  0
  1  2  1  0
  2  3  2  0
  3  7  1  0
  4  3  1  0
  5 17  1  0
  5  4  2  0
  6  5  1  0
  7 16  1  0
  8  7  2  0
  8  9  1  0
  9 10  2  0
 10 11  1  0
 11 12  2  0
 12 13  1  0
 14 13  2  0
 15 14  1  0
 16 15  2  0
 16 11  1  0
 17 19  1  0
 17 20  1  0
 18 17  1  0
 21 20  1  0
 22 21  1  0
 23 24  1  0
 23 22  2  0
 24 25  2  0
 25 21  1  0
  1 26  1  0
  2 27  1  0
  9 28  1  0
 12 29  1  0
 13 30  1  0
 14 31  1  0
 15 32  1  0
 18 33  1  0
 18 34  1  0
 18 35  1  0
 19 36  1  0
 19 37  1  0
 19 38  1  0
 20 39  1  0
 20 40  1  0
 22 41  1  0
 23 42  1  0
 25 43  1  0
M  ISO  8  26  14  27  14  28  14  29  14  30  14  31  14  32  14  33   8
M  ISO  8  34   8  35   8  36   8  37   8  38   8  39   8  40   8  41  14
M  ISO  2  42  14  43  14
M  END
>  <minimizedAffinity>  (1) 
-5.21247149

>  <minimizedRMSD>  (1) 
0.432022899

$$$$
