
     RDKit          3D

 26 27  0  0  1  0  0  0  0  0999 V2000
   44.5300   35.7100   44.8550 C   0  0  0  0  0  0  0  0  0  0  0  0
   45.1420   35.6120   43.5780 C   0  0  0  0  0  0  0  0  0  0  0  0
   46.0450   34.5760   43.3810 C   0  0  0  0  0  0  0  0  0  0  0  0
   46.2850   33.7200   44.4220 N   0  0  0  0  0  0  0  0  0  0  0  0
   45.6920   33.8420   45.6090 C   0  0  0  0  0  0  0  0  0  0  0  0
   44.8210   34.8200   45.8410 N   0  0  0  0  0  0  0  0  0  0  0  0
   45.9990   32.9090   46.6390 N   0  0  0  0  0  0  0  0  0  0  0  0
   45.1220   32.9170   47.8080 C   0  0  0  0  0  0  0  0  0  0  0  0
   45.5960   32.0440   48.9250 C   0  0  0  0  0  0  0  0  0  0  0  0
   46.9150   31.6460   48.7750 O   0  0  0  0  0  0  0  0  0  0  0  0
   47.0180   30.9610   47.5890 C   0  0  0  0  0  0  0  0  0  0  0  0
   47.1300   32.0180   46.5010 C   0  0  1  0  0  0  0  0  0  0  0  0
   47.2380   31.3880   45.1640 C   0  0  0  0  0  0  0  0  0  0  0  0
   46.6050   30.3650   44.7840 O   0  0  0  0  0  0  0  0  0  0  0  0
   47.7570   31.3180   43.8880 O   0  0  0  0  0  0  0  0  0  0  0  0
   43.8095   36.5180   45.0499 H   0  0  0  0  0  0  0  0  0  0  0  0
   44.9100   36.3285   42.7762 H   0  0  0  0  0  0  0  0  0  0  0  0
   46.5539   34.4465   42.4144 H   0  0  0  0  0  0  0  0  0  0  0  0
   45.0511   33.9494   48.1811 H   0  0  0  0  0  0  0  0  0  0  0  0
   44.1499   32.5191   47.4814 H   0  0  0  0  0  0  0  0  0  0  0  0
   45.5023   32.6002   49.8694 H   0  0  0  0  0  0  0  0  0  0  0  0
   44.9745   31.1364   48.9216 H   0  0  0  0  0  0  0  0  0  0  0  0
   47.9130   30.3215   47.5938 H   0  0  0  0  0  0  0  0  0  0  0  0
   46.1493   30.3062   47.4259 H   0  0  0  0  0  0  0  0  0  0  0  0
   48.0504   32.6107   46.6086 H   0  0  0  0  0  0  0  0  0  0  0  0
   47.4678   30.5965   43.2749 H   0  0  0  0  0  0  0  0  0  0  0  0
  1  6  2  0
  2  1  1  0
  3  2  2  0
  3  4  1  0
  4  5  2  0
  5  6  1  0
  5  7  1  0
  7  8  1  0
  8  9  1  0
 10  9  1  0
 11 10  1  0
 12  7  1  0
 12 11  1  0
 13 12  1  0
 14 13  2  0
 15 13  1  0
  1 16  1  0
  2 17  1  0
  3 18  1  0
  8 19  1  0
  8 20  1  0
  9 21  1  0
  9 22  1  0
 11 23  1  0
 11 24  1  0
 12 25  1  1
 15 26  1  0
M  ISO  8  16  14  17  14  18  14  19  13  20  13  21  13  22  13  23  13
M  ISO  3  24  13  25  13  26   3
M  END
>  <minimizedAffinity>  (1) 
-4.55750418

>  <minimizedRMSD>  (1) 
0.109221883

$$$$
