
     RDKit          3D

 28 30  0  0  1  0  0  0  0  0999 V2000
   44.4580   35.9190   44.7520 C   0  0  0  0  0  0  0  0  0  0  0  0
   44.8880   35.7400   43.4190 C   0  0  0  0  0  0  0  0  0  0  0  0
   45.6730   34.6170   43.1300 C   0  0  0  0  0  0  0  0  0  0  0  0
   45.9640   33.7790   44.1640 N   0  0  0  0  0  0  0  0  0  0  0  0
   45.5450   33.9710   45.4160 C   0  0  0  0  0  0  0  0  0  0  0  0
   44.7970   35.0270   45.7250 N   0  0  0  0  0  0  0  0  0  0  0  0
   45.9070   33.0320   46.4190 N   0  0  0  0  0  0  0  0  0  0  0  0
   45.1230   33.0670   47.6490 C   0  0  0  0  0  0  0  0  0  0  0  0
   45.6480   32.1710   48.7280 C   0  0  0  0  0  0  0  0  0  0  0  0
   46.9430   31.7380   48.4830 O   0  0  0  0  0  0  0  0  0  0  0  0
   46.9200   31.0390   47.2720 C   0  0  0  0  0  0  0  0  0  0  0  0
   46.9990   32.1070   46.2010 C   0  0  1  0  0  0  0  0  0  0  0  0
   47.0470   31.5440   44.8400 C   0  0  0  0  0  0  0  0  0  0  0  0
   46.1080   30.7280   44.3190 N   0  0  0  0  0  0  0  0  0  0  0  0
   46.3970   30.3790   43.1030 O   0  0  0  0  0  0  0  0  0  0  0  0
   47.5350   30.9780   42.8330 C   0  0  0  0  0  0  0  0  0  0  0  0
   47.9630   31.7120   43.9010 N   0  0  0  0  0  0  0  0  0  0  0  0
   43.8399   36.7918   45.0090 H   0  0  0  0  0  0  0  0  0  0  0  0
   44.6151   36.4595   42.6330 H   0  0  0  0  0  0  0  0  0  0  0  0
   46.0391   34.4199   42.1116 H   0  0  0  0  0  0  0  0  0  0  0  0
   45.1186   34.0997   48.0278 H   0  0  0  0  0  0  0  0  0  0  0  0
   44.1152   32.7061   47.3960 H   0  0  0  0  0  0  0  0  0  0  0  0
   45.6357   32.7222   49.6798 H   0  0  0  0  0  0  0  0  0  0  0  0
   45.0020   31.2814   48.7639 H   0  0  0  0  0  0  0  0  0  0  0  0
   47.7807   30.3575   47.2026 H   0  0  0  0  0  0  0  0  0  0  0  0
   46.0176   30.4182   47.1705 H   0  0  0  0  0  0  0  0  0  0  0  0
   47.9483   32.6568   46.2818 H   0  0  0  0  0  0  0  0  0  0  0  0
   48.0704   30.8985   41.8754 H   0  0  0  0  0  0  0  0  0  0  0  0
  1  6  2  0
  2  1  1  0
  3  2  2  0
  3  4  1  0
  4  5  2  0
  5  6  1  0
  5  7  1  0
  7  8  1  0
  8  9  1  0
 10  9  1  0
 11 10  1  0
 12  7  1  0
 12 11  1  0
 13 12  1  0
 14 13  2  0
 15 14  1  0
 16 15  1  0
 16 17  2  0
 17 13  1  0
  1 18  1  0
  2 19  1  0
  3 20  1  0
  8 21  1  0
  8 22  1  0
  9 23  1  0
  9 24  1  0
 11 25  1  0
 11 26  1  0
 12 27  1  1
 16 28  1  0
M  ISO  8  18  14  19  14  20  14  21  13  22  13  23  13  24  13  25  13
M  ISO  3  26  13  27  13  28  14
M  END
>  <minimizedAffinity>  (1) 
-4.62296009

>  <minimizedRMSD>  (1) 
0.684916675

$$$$
