
     RDKit          3D

 52 54  0  0  1  0  0  0  0  0999 V2000
   44.5590   36.0270   44.9080 C   0  0  0  0  0  0  0  0  0  0  0  0
   44.7960   36.3180   43.5220 C   0  0  0  0  0  0  0  0  0  0  0  0
   45.1840   35.1920   42.7310 C   0  0  0  0  0  0  0  0  0  0  0  0
   45.9900   34.3380   43.4280 N   0  0  0  0  0  0  0  0  0  0  0  0
   45.7230   34.0140   44.6890 C   0  0  1  0  0  0  0  0  0  0  0  0
   45.0050   34.8910   45.4290 N   0  0  0  0  0  0  0  0  0  0  0  0
   46.2460   32.8550   45.2550 N   0  0  0  0  0  0  0  0  0  0  0  0
   45.9020   32.6160   46.6390 C   0  0  0  0  0  0  0  0  0  0  0  0
   46.5990   31.4470   47.2610 C   0  0  0  0  0  0  0  0  0  0  0  0
   47.6280   30.9570   46.4980 O   0  0  0  0  0  0  0  0  0  0  0  0
   47.1150   30.6330   45.2460 C   0  0  0  0  0  0  0  0  0  0  0  0
   47.0790   31.9590   44.5040 C   0  0  1  0  0  0  0  0  0  0  0  0
   46.5040   31.8900   43.2240 N   0  0  0  0  0  0  0  0  0  0  0  0
   45.1970   31.9730   43.0440 C   0  0  0  0  0  0  0  0  0  0  0  0
   45.0310   31.9410   41.5280 C   0  0  0  0  0  0  0  0  0  0  0  0
   46.2880   32.5110   40.9990 C   0  0  0  0  0  0  0  0  0  0  0  0
   47.0900   32.7890   42.2760 C   0  0  0  0  0  0  0  0  0  0  0  0
   48.5150   32.5400   41.9340 N   0  0  0  0  0  0  0  0  0  0  0  0
   48.9970   31.5040   41.2410 C   0  0  0  0  0  0  0  0  0  0  0  0
   50.3280   31.2330   40.8920 C   0  0  0  0  0  0  0  0  0  0  0  0
   51.2240   32.1600   41.3280 C   0  0  0  0  0  0  0  0  0  0  0  0
   52.5850   31.9190   40.9930 N   0  0  0  0  0  0  0  0  0  0  0  0
   50.8060   33.2470   42.0440 N   0  0  0  0  0  0  0  0  0  0  0  0
   49.4720   33.3940   42.3190 C   0  0  0  0  0  0  0  0  0  0  0  0
   49.3110   34.4380   42.9740 O   0  0  0  0  0  0  0  0  0  0  0  0
   44.0094   36.7436   45.5360 H   0  0  0  0  0  0  0  0  0  0  0  0
   43.8704   36.7327   43.0962 H   0  0  0  0  0  0  0  0  0  0  0  0
   45.6404   37.0224   43.4934 H   0  0  0  0  0  0  0  0  0  0  0  0
   45.7268   35.5499   41.8437 H   0  0  0  0  0  0  0  0  0  0  0  0
   44.2737   34.6457   42.4430 H   0  0  0  0  0  0  0  0  0  0  0  0
   46.0082   33.4554   42.8974 H   0  0  0  0  0  0  0  0  0  0  0  0
   46.6086   34.5757   45.0208 H   0  0  0  0  0  0  0  0  0  0  0  0
   46.1591   33.5160   47.2168 H   0  0  0  0  0  0  0  0  0  0  0  0
   44.8269   32.3840   46.6575 H   0  0  0  0  0  0  0  0  0  0  0  0
   47.0051   31.7606   48.2340 H   0  0  0  0  0  0  0  0  0  0  0  0
   45.8564   30.6416   47.3603 H   0  0  0  0  0  0  0  0  0  0  0  0
   47.7693   29.9148   44.7301 H   0  0  0  0  0  0  0  0  0  0  0  0
   46.1253   30.1566   45.3063 H   0  0  0  0  0  0  0  0  0  0  0  0
   48.1252   32.2811   44.3954 H   0  0  0  0  0  0  0  0  0  0  0  0
   46.9209   32.6571   42.6775 H   0  0  0  0  0  0  0  0  0  0  0  0
   44.6829   31.1204   43.5118 H   0  0  0  0  0  0  0  0  0  0  0  0
   44.7633   32.8759   43.4986 H   0  0  0  0  0  0  0  0  0  0  0  0
   44.8949   30.9082   41.1747 H   0  0  0  0  0  0  0  0  0  0  0  0
   44.1468   32.5043   41.1949 H   0  0  0  0  0  0  0  0  0  0  0  0
   46.8093   31.7909   40.3511 H   0  0  0  0  0  0  0  0  0  0  0  0
   46.1358   33.4033   40.3739 H   0  0  0  0  0  0  0  0  0  0  0  0
   46.9510   33.8329   42.5938 H   0  0  0  0  0  0  0  0  0  0  0  0
   46.7588   32.1462   43.1049 H   0  0  0  0  0  0  0  0  0  0  0  0
   48.2534   30.7685   40.9002 H   0  0  0  0  0  0  0  0  0  0  0  0
   50.6233   30.3450   40.3139 H   0  0  0  0  0  0  0  0  0  0  0  0
   53.3142   32.5819   41.2925 H   0  0  0  0  0  0  0  0  0  0  0  0
   52.8414   31.0816   40.4509 H   0  0  0  0  0  0  0  0  0  0  0  0
  1  6  2  0
  2  1  1  0
  3  4  1  0
  3  2  1  0
  4  5  1  0
  5  7  1  0
  5  6  1  0
  7  8  1  0
  8  9  1  0
 10  9  1  0
 11 10  1  0
 12 11  1  0
 12  7  1  0
 13 12  1  0
 14 13  1  0
 15 14  1  0
 16 15  1  0
 16 17  1  0
 18 17  1  0
 18 24  1  0
 19 18  1  0
 20 19  2  0
 20 21  1  0
 21 23  2  0
 22 21  1  0
 23 24  1  0
 24 25  2  0
  1 26  1  0
  2 27  1  0
  2 28  1  0
  3 29  1  0
  3 30  1  0
  4 31  1  0
  5 32  1  6
  8 33  1  0
  8 34  1  0
  9 35  1  0
  9 36  1  0
 11 37  1  0
 11 38  1  0
 12 39  1  6
 13 40  1  0
 14 41  1  0
 14 42  1  0
 15 43  1  0
 15 44  1  0
 16 45  1  0
 16 46  1  0
 17 47  1  0
 17 48  1  0
 19 49  1  0
 20 50  1  0
 22 51  1  0
 22 52  1  0
M  ISO  8  26  13  27  13  28  13  29  13  30  13  31   5  32  13  33  13
M  ISO  8  34  13  35  13  36  13  37  13  38  13  39  13  40   5  41   8
M  ISO  8  42   8  43   8  44   8  45   8  46   8  47   8  48   8  49  14
M  ISO  1  50  14
M  END
>  <minimizedAffinity>  (1) 
-5.98158932

>  <minimizedRMSD>  (1) 
2.0731411

$$$$
