
     RDKit          3D

 52 54  0  0  1  0  0  0  0  0999 V2000
   44.8870   35.2980   45.4170 C   0  0  0  0  0  0  0  0  0  0  0  0
   44.1270   35.8270   44.3690 C   0  0  0  0  0  0  0  0  0  0  0  0
   44.3050   35.1740   43.1330 C   0  0  0  0  0  0  0  0  0  0  0  0
   44.5390   33.8350   43.2570 N   0  0  0  0  0  0  0  0  0  0  0  0
   45.3000   33.3720   44.2390 C   0  0  0  0  0  0  0  0  0  0  0  0
   45.4790   34.1090   45.3570 N   0  0  0  0  0  0  0  0  0  0  0  0
   45.8790   32.1250   44.1300 N   0  0  0  0  0  0  0  0  0  0  0  0
   46.1120   31.4130   45.4130 C   0  0  0  0  0  0  0  0  0  0  0  0
   47.0080   30.2080   45.2540 C   0  0  0  0  0  0  0  0  0  0  0  0
   47.5460   30.0570   44.0010 O   0  0  0  0  0  0  0  0  0  0  0  0
   46.5120   30.0710   43.0810 C   0  0  0  0  0  0  0  0  0  0  0  0
   46.2720   31.5690   42.8810 C   0  0  1  0  0  0  0  0  0  0  0  0
   44.0480   34.1990   42.6350 H   0  0  0  0  0  0  0  0  0  0  0  0
   45.2910   31.9910   42.0230 N   0  0  0  0  0  0  0  0  0  0  0  0
   44.0030   31.9610   42.4970 C   0  0  0  0  0  0  0  0  0  0  0  0
   43.1080   32.4090   41.3670 C   0  0  0  0  0  0  0  0  0  0  0  0
   44.1010   33.0630   40.3780 C   0  0  0  0  0  0  0  0  0  0  0  0
   45.4060   32.9450   41.1070 C   0  0  2  0  0  0  0  0  0  0  0  0
   46.5170   33.6050   40.4880 N   0  0  0  0  0  0  0  0  0  0  0  0
   47.3250   34.4440   41.1470 C   0  0  0  0  0  0  0  0  0  0  0  0
   48.2830   34.9410   40.3370 N   0  0  0  0  0  0  0  0  0  0  0  0
   48.0860   34.4060   39.1180 C   0  0  0  0  0  0  0  0  0  0  0  0
   48.6680   34.4710   37.8680 C   0  0  0  0  0  0  0  0  0  0  0  0
   48.2220   33.7870   36.7990 N   0  0  0  0  0  0  0  0  0  0  0  0
   47.1610   33.0000   36.9430 C   0  0  0  0  0  0  0  0  0  0  0  0
   46.5460   32.8980   38.1550 N   0  0  0  0  0  0  0  0  0  0  0  0
   46.9900   33.5810   39.2270 C   0  0  0  0  0  0  0  0  0  0  0  0
   45.0004   35.8939   46.3346 H   0  0  0  0  0  0  0  0  0  0  0  0
   43.2899   36.4097   44.7809 H   0  0  0  0  0  0  0  0  0  0  0  0
   44.7598   36.4809   43.7509 H   0  0  0  0  0  0  0  0  0  0  0  0
   43.7336   35.0065   43.7509 H   0  0  0  0  0  0  0  0  0  0  0  0
   44.3050   35.1740   44.2330 H   0  0  0  0  0  0  0  0  0  0  0  0
   44.3050   36.2111   42.7663 H   0  0  0  0  0  0  0  0  0  0  0  0
   45.2031   34.6555   42.7663 H   0  0  0  0  0  0  0  0  0  0  0  0
   43.4069   34.6555   42.7663 H   0  0  0  0  0  0  0  0  0  0  0  0
   46.5817   32.1101   46.1225 H   0  0  0  0  0  0  0  0  0  0  0  0
   45.1373   31.0575   45.7785 H   0  0  0  0  0  0  0  0  0  0  0  0
   47.8349   30.2981   45.9737 H   0  0  0  0  0  0  0  0  0  0  0  0
   46.3764   29.3248   45.4303 H   0  0  0  0  0  0  0  0  0  0  0  0
   46.8101   29.5864   42.1396 H   0  0  0  0  0  0  0  0  0  0  0  0
   45.6186   29.5230   43.4149 H   0  0  0  0  0  0  0  0  0  0  0  0
   47.2288   31.8897   42.4431 H   0  0  0  0  0  0  0  0  0  0  0  0
   43.7379   30.9394   42.8069 H   0  0  0  0  0  0  0  0  0  0  0  0
   43.8906   32.6182   43.3719 H   0  0  0  0  0  0  0  0  0  0  0  0
   42.5954   31.5525   40.9048 H   0  0  0  0  0  0  0  0  0  0  0  0
   42.3065   33.0891   41.6912 H   0  0  0  0  0  0  0  0  0  0  0  0
   43.8426   34.1160   40.1925 H   0  0  0  0  0  0  0  0  0  0  0  0
   44.1079   32.5901   39.3849 H   0  0  0  0  0  0  0  0  0  0  0  0
   45.9894   33.5212   41.8402 H   0  0  0  0  0  0  0  0  0  0  0  0
   47.2214   34.6962   42.2127 H   0  0  0  0  0  0  0  0  0  0  0  0
   49.5471   35.1194   37.7386 H   0  0  0  0  0  0  0  0  0  0  0  0
   46.7787   32.4303   36.0832 H   0  0  0  0  0  0  0  0  0  0  0  0
  2  1  1  0
  4  5  2  0
  5  6  1  0
  6  1  2  0
  7  5  1  0
  7  8  1  0
  9  8  1  0
 10  9  1  0
 11 10  1  0
 12 11  1  0
 12  7  1  0
 13  4  1  0
 14 15  1  0
 14 12  1  0
 16 15  1  0
 17 18  1  0
 17 16  1  0
 18 14  1  0
 19 18  1  0
 19 20  1  0
 21 20  2  0
 22 27  2  0
 22 21  1  0
 23 22  1  0
 24 25  1  0
 24 23  2  0
 25 26  2  0
 26 27  1  0
 27 19  1  0
  1 28  1  0
  2 29  1  0
  2 30  1  0
  2 31  1  0
  3 32  1  0
  3 33  1  0
  3 34  1  0
  3 35  1  0
  8 36  1  0
  8 37  1  0
  9 38  1  0
  9 39  1  0
 11 40  1  0
 11 41  1  0
 12 42  1  6
 15 43  1  0
 15 44  1  0
 16 45  1  0
 16 46  1  0
 17 47  1  0
 17 48  1  0
 18 49  1  6
 20 50  1  0
 23 51  1  0
 25 52  1  0
M  ISO  8  29   8  30   8  31   8  32   8  33   8  34   8  35   8  36  13
M  ISO  8  37  13  38  13  39  13  40  13  41  13  42  13  43  13  44  13
M  ISO  8  45  13  46  13  47  13  48  13  49  13  50  14  51  14  52  14
M  END
>  <minimizedAffinity>  (1) 
-5.42929602

>  <minimizedRMSD>  (1) 
3.84236431

$$$$
