
     RDKit          3D

 53 54  0  0  1  0  0  0  0  0999 V2000
   44.5500   35.3290   45.7860 C   0  0  0  0  0  0  0  0  0  0  0  0
   44.2550   35.7270   44.4760 C   0  0  0  0  0  0  0  0  0  0  0  0
   45.0170   35.0600   43.4980 C   0  0  0  0  0  0  0  0  0  0  0  0
   45.2800   33.7580   43.8090 N   0  0  0  0  0  0  0  0  0  0  0  0
   45.6000   33.4240   45.0510 C   0  0  0  0  0  0  0  0  0  0  0  0
   45.2220   34.2190   46.0800 N   0  0  0  0  0  0  0  0  0  0  0  0
   46.2860   32.2520   45.2940 N   0  0  0  0  0  0  0  0  0  0  0  0
   46.0280   31.6260   46.6170 C   0  0  0  0  0  0  0  0  0  0  0  0
   46.9880   30.5100   46.9380 C   0  0  0  0  0  0  0  0  0  0  0  0
   48.0170   30.3780   46.0420 O   0  0  0  0  0  0  0  0  0  0  0  0
   47.5010   30.2610   44.7740 C   0  0  0  0  0  0  0  0  0  0  0  0
   47.2180   31.7030   44.3710 C   0  0  1  0  0  0  0  0  0  0  0  0
   45.0620   34.0400   43.0070 H   0  0  0  0  0  0  0  0  0  0  0  0
   46.6450   31.9550   43.1420 N   0  0  0  0  0  0  0  0  0  0  0  0
   45.3310   31.6390   43.0010 C   0  0  0  0  0  0  0  0  0  0  0  0
   44.9530   31.9730   41.5780 C   0  0  0  0  0  0  0  0  0  0  0  0
   46.1150   32.8640   41.1160 C   0  0  0  0  0  0  0  0  0  0  0  0
   46.9620   33.0140   42.3660 C   0  0  2  0  0  0  0  0  0  0  0  0
   47.9940   33.9580   42.2640 N   0  0  0  0  0  0  0  0  0  0  0  0
   49.3130   33.6450   42.3420 C   0  0  0  0  0  0  0  0  0  0  0  0
   49.9070   35.0610   42.5160 C   0  0  0  0  0  0  0  0  0  0  0  0
   49.1500   35.7750   41.4000 C   0  0  0  0  0  0  0  0  0  0  0  0
   47.7590   35.1500   41.5370 C   0  0  0  0  0  0  0  0  0  0  0  0
   44.2085   35.9670   46.6145 H   0  0  0  0  0  0  0  0  0  0  0  0
   43.6001   36.6105   44.4999 H   0  0  0  0  0  0  0  0  0  0  0  0
   45.1881   35.9764   43.9496 H   0  0  0  0  0  0  0  0  0  0  0  0
   43.7450   34.9067   43.9496 H   0  0  0  0  0  0  0  0  0  0  0  0
   45.0170   35.0600   44.5980 H   0  0  0  0  0  0  0  0  0  0  0  0
   45.0170   36.0971   43.1313 H   0  0  0  0  0  0  0  0  0  0  0  0
   45.9151   34.5415   43.1313 H   0  0  0  0  0  0  0  0  0  0  0  0
   44.1189   34.5415   43.1313 H   0  0  0  0  0  0  0  0  0  0  0  0
   46.1173   32.3994   47.3941 H   0  0  0  0  0  0  0  0  0  0  0  0
   45.0180   31.1916   46.5839 H   0  0  0  0  0  0  0  0  0  0  0  0
   47.4187   30.7008   47.9320 H   0  0  0  0  0  0  0  0  0  0  0  0
   46.4105   29.5747   46.8957 H   0  0  0  0  0  0  0  0  0  0  0  0
   48.2311   29.7986   44.0935 H   0  0  0  0  0  0  0  0  0  0  0  0
   46.6072   29.6211   44.7324 H   0  0  0  0  0  0  0  0  0  0  0  0
   48.2295   32.1344   44.3453 H   0  0  0  0  0  0  0  0  0  0  0  0
   45.1766   30.5668   43.1923 H   0  0  0  0  0  0  0  0  0  0  0  0
   44.7110   32.1994   43.7163 H   0  0  0  0  0  0  0  0  0  0  0  0
   44.8826   31.0636   40.9631 H   0  0  0  0  0  0  0  0  0  0  0  0
   43.9705   32.4601   41.4919 H   0  0  0  0  0  0  0  0  0  0  0  0
   46.6856   32.3800   40.3097 H   0  0  0  0  0  0  0  0  0  0  0  0
   45.7800   33.8282   40.7061 H   0  0  0  0  0  0  0  0  0  0  0  0
   47.1234   33.6080   43.2777 H   0  0  0  0  0  0  0  0  0  0  0  0
   49.5305   33.0006   43.2066 H   0  0  0  0  0  0  0  0  0  0  0  0
   49.7082   33.0754   41.4880 H   0  0  0  0  0  0  0  0  0  0  0  0
   49.6801   35.4849   43.5053 H   0  0  0  0  0  0  0  0  0  0  0  0
   51.0037   35.1245   42.4601 H   0  0  0  0  0  0  0  0  0  0  0  0
   49.5913   35.5643   40.4147 H   0  0  0  0  0  0  0  0  0  0  0  0
   49.1615   36.8722   41.4770 H   0  0  0  0  0  0  0  0  0  0  0  0
   47.0818   35.8184   42.0889 H   0  0  0  0  0  0  0  0  0  0  0  0
   47.2773   34.9673   40.5651 H   0  0  0  0  0  0  0  0  0  0  0  0
  1  6  2  0
  2  1  1  0
  4  5  2  0
  5  7  1  0
  5  6  1  0
  7  8  1  0
  8  9  1  0
 10  9  1  0
 11 10  1  0
 12 11  1  0
 12  7  1  0
 13  4  1  0
 14 15  1  0
 14 12  1  0
 16 15  1  0
 17 16  1  0
 17 18  1  0
 18 14  1  0
 19 20  1  0
 19 18  1  0
 20 21  1  0
 22 23  1  0
 22 21  1  0
 23 19  1  0
  1 24  1  0
  2 25  1  0
  2 26  1  0
  2 27  1  0
  3 28  1  0
  3 29  1  0
  3 30  1  0
  3 31  1  0
  8 32  1  0
  8 33  1  0
  9 34  1  0
  9 35  1  0
 11 36  1  0
 11 37  1  0
 12 38  1  6
 15 39  1  0
 15 40  1  0
 16 41  1  0
 16 42  1  0
 17 43  1  0
 17 44  1  0
 18 45  1  6
 20 46  1  0
 20 47  1  0
 21 48  1  0
 21 49  1  0
 22 50  1  0
 22 51  1  0
 23 52  1  0
 23 53  1  0
M  ISO  8  25   8  26   8  27   8  28   8  29   8  30   8  31   8  32  13
M  ISO  8  33  13  34  13  35  13  36  13  37  13  38  13  39  13  40  13
M  ISO  8  41  13  42  13  43  13  44  13  45  13  46  13  47  13  48  13
M  ISO  5  49  13  50  13  51  13  52  13  53  13
M  END
>  <minimizedAffinity>  (1) 
-5.47460699

>  <minimizedRMSD>  (1) 
1.85627282

$$$$
