
     RDKit          3D

 47 48  0  0  1  0  0  0  0  0999 V2000
   44.4440   35.9420   44.7790 C   0  0  0  0  0  0  0  0  0  0  0  0
   44.3680   35.8930   43.3810 C   0  0  0  0  0  0  0  0  0  0  0  0
   45.2280   34.9430   42.7970 C   0  0  0  0  0  0  0  0  0  0  0  0
   45.4010   33.8180   43.5520 N   0  0  0  0  0  0  0  0  0  0  0  0
   45.5090   33.9140   44.8690 C   0  0  0  0  0  0  0  0  0  0  0  0
   45.0140   34.9920   45.5170 N   0  0  0  0  0  0  0  0  0  0  0  0
   46.1060   32.8920   45.5830 N   0  0  0  0  0  0  0  0  0  0  0  0
   45.6230   32.7170   46.9780 C   0  0  0  0  0  0  0  0  0  0  0  0
   46.5060   31.8080   47.7950 C   0  0  0  0  0  0  0  0  0  0  0  0
   47.6690   31.4410   47.1670 O   0  0  0  0  0  0  0  0  0  0  0  0
   47.3640   30.9030   45.9440 C   0  0  0  0  0  0  0  0  0  0  0  0
   47.1620   32.1120   45.0420 C   0  0  1  0  0  0  0  0  0  0  0  0
   45.3200   33.8270   42.6750 H   0  0  0  0  0  0  0  0  0  0  0  0
   46.8030   31.9110   43.7150 N   0  0  0  0  0  0  0  0  0  0  0  0
   45.5690   31.3650   43.4990 C   0  0  0  0  0  0  0  0  0  0  0  0
   45.4110   31.2580   42.0030 C   0  0  0  0  0  0  0  0  0  0  0  0
   46.5170   32.1930   41.4840 C   0  0  0  0  0  0  0  0  0  0  0  0
   47.1040   32.7920   42.7470 C   0  0  2  0  0  0  0  0  0  0  0  0
   48.5210   32.3440   42.6410 N   0  0  0  0  0  0  0  0  0  0  0  0
   49.5510   33.2300   42.5030 C   0  0  0  0  0  0  0  0  0  0  0  0
   50.7460   32.5730   42.4390 N   0  0  0  0  0  0  0  0  0  0  0  0
   50.4670   31.2820   42.5380 C   0  0  0  0  0  0  0  0  0  0  0  0
   49.1390   31.1890   42.6550 N   0  0  0  0  0  0  0  0  0  0  0  0
   44.0097   36.8115   45.2941 H   0  0  0  0  0  0  0  0  0  0  0  0
   43.4783   35.3194   43.0820 H   0  0  0  0  0  0  0  0  0  0  0  0
   44.2963   36.9154   42.9816 H   0  0  0  0  0  0  0  0  0  0  0  0
   45.2697   35.4057   42.9816 H   0  0  0  0  0  0  0  0  0  0  0  0
   45.2280   34.9430   43.8970 H   0  0  0  0  0  0  0  0  0  0  0  0
   45.2280   35.9801   42.4303 H   0  0  0  0  0  0  0  0  0  0  0  0
   46.1261   34.4245   42.4303 H   0  0  0  0  0  0  0  0  0  0  0  0
   44.3299   34.4245   42.4303 H   0  0  0  0  0  0  0  0  0  0  0  0
   45.5892   33.7032   47.4640 H   0  0  0  0  0  0  0  0  0  0  0  0
   44.6276   32.2516   46.9267 H   0  0  0  0  0  0  0  0  0  0  0  0
   46.7672   32.3283   48.7283 H   0  0  0  0  0  0  0  0  0  0  0  0
   45.9348   30.8840   47.9679 H   0  0  0  0  0  0  0  0  0  0  0  0
   48.1902   30.2764   45.5768 H   0  0  0  0  0  0  0  0  0  0  0  0
   46.4778   30.2524   45.9800 H   0  0  0  0  0  0  0  0  0  0  0  0
   48.1655   32.5619   45.0206 H   0  0  0  0  0  0  0  0  0  0  0  0
   45.5069   30.3687   43.9610 H   0  0  0  0  0  0  0  0  0  0  0  0
   44.7745   31.9832   43.9423 H   0  0  0  0  0  0  0  0  0  0  0  0
   45.5698   30.2252   41.6593 H   0  0  0  0  0  0  0  0  0  0  0  0
   44.4057   31.5282   41.6477 H   0  0  0  0  0  0  0  0  0  0  0  0
   47.2789   31.6279   40.9272 H   0  0  0  0  0  0  0  0  0  0  0  0
   46.1383   32.9552   40.7871 H   0  0  0  0  0  0  0  0  0  0  0  0
   46.8381   33.8497   42.8906 H   0  0  0  0  0  0  0  0  0  0  0  0
   49.4339   34.3225   42.4506 H   0  0  0  0  0  0  0  0  0  0  0  0
   51.1867   30.4502   42.5262 H   0  0  0  0  0  0  0  0  0  0  0  0
  1  6  2  0
  2  1  1  0
  4  5  2  0
  5  6  1  0
  5  7  1  0
  7  8  1  0
  8  9  1  0
 10  9  1  0
 11 10  1  0
 12  7  1  0
 12 11  1  0
 13  4  1  0
 14 15  1  0
 14 12  1  0
 16 15  1  0
 17 16  1  0
 17 18  1  0
 18 14  1  0
 19 23  1  0
 19 18  1  0
 20 19  1  0
 21 20  2  0
 21 22  1  0
 22 23  2  0
  1 24  1  0
  2 25  1  0
  2 26  1  0
  2 27  1  0
  3 28  1  0
  3 29  1  0
  3 30  1  0
  3 31  1  0
  8 32  1  0
  8 33  1  0
  9 34  1  0
  9 35  1  0
 11 36  1  0
 11 37  1  0
 12 38  1  6
 15 39  1  0
 15 40  1  0
 16 41  1  0
 16 42  1  0
 17 43  1  0
 17 44  1  0
 18 45  1  1
 20 46  1  0
 22 47  1  0
M  ISO  8  25   8  26   8  27   8  28   8  29   8  30   8  31   8  32  13
M  ISO  8  33  13  34  13  35  13  36  13  37  13  38  13  39  13  40  13
M  ISO  7  41  13  42  13  43  13  44  13  45  13  46  14  47  14
M  END
>  <minimizedAffinity>  (1) 
-4.77154684

>  <minimizedRMSD>  (1) 
1.40357053

$$$$
