
     RDKit          3D

 53 53  0  0  1  0  0  0  0  0999 V2000
   44.6430   35.3710   45.5340 C   0  0  0  0  0  0  0  0  0  0  0  0
   44.4450   35.8890   44.2470 C   0  0  0  0  0  0  0  0  0  0  0  0
   45.2540   35.2850   43.2760 C   0  0  0  0  0  0  0  0  0  0  0  0
   45.4970   33.9660   43.4630 N   0  0  0  0  0  0  0  0  0  0  0  0
   45.7100   33.5190   44.6930 C   0  0  0  0  0  0  0  0  0  0  0  0
   45.2770   34.2210   45.7640 N   0  0  0  0  0  0  0  0  0  0  0  0
   46.3380   32.2990   44.8710 N   0  0  0  0  0  0  0  0  0  0  0  0
   46.0070   31.5810   46.1290 C   0  0  0  0  0  0  0  0  0  0  0  0
   46.9390   30.4280   46.4000 C   0  0  0  0  0  0  0  0  0  0  0  0
   48.0080   30.3390   45.5400 O   0  0  0  0  0  0  0  0  0  0  0  0
   47.5370   30.3310   44.2440 C   0  0  0  0  0  0  0  0  0  0  0  0
   47.2910   31.8010   43.9430 C   0  0  1  0  0  0  0  0  0  0  0  0
   45.3420   34.3480   42.6920 H   0  0  0  0  0  0  0  0  0  0  0  0
   46.7480   32.1840   42.7400 N   0  0  0  0  0  0  0  0  0  0  0  0
   45.4390   31.9480   42.5340 C   0  0  0  0  0  0  0  0  0  0  0  0
   45.1190   32.3830   41.1280 C   0  0  0  0  0  0  0  0  0  0  0  0
   46.3100   33.1960   40.7270 C   0  0  0  0  0  0  0  0  0  0  0  0
   47.1990   33.2030   41.9890 C   0  0  2  0  0  0  0  0  0  0  0  0
   48.4390   33.8700   41.6250 C   0  0  0  0  0  0  0  0  0  0  0  0
   48.3990   34.9140   40.4970 C   0  0  0  0  0  0  0  0  0  0  0  0
   49.5630   32.9580   41.1390 C   0  0  0  0  0  0  0  0  0  0  0  0
   49.0810   34.7210   42.6920 C   0  0  0  0  0  0  0  0  0  0  0  0
   44.2578   35.9391   46.3936 H   0  0  0  0  0  0  0  0  0  0  0  0
   44.0531   36.9142   44.3207 H   0  0  0  0  0  0  0  0  0  0  0  0
   45.4022   35.9004   43.7051 H   0  0  0  0  0  0  0  0  0  0  0  0
   43.7243   35.2590   43.7051 H   0  0  0  0  0  0  0  0  0  0  0  0
   45.2540   35.2850   44.3760 H   0  0  0  0  0  0  0  0  0  0  0  0
   45.2540   36.3221   42.9093 H   0  0  0  0  0  0  0  0  0  0  0  0
   46.1521   34.7665   42.9093 H   0  0  0  0  0  0  0  0  0  0  0  0
   44.3559   34.7665   42.9093 H   0  0  0  0  0  0  0  0  0  0  0  0
   46.0712   32.2906   46.9671 H   0  0  0  0  0  0  0  0  0  0  0  0
   44.9919   31.1711   46.0217 H   0  0  0  0  0  0  0  0  0  0  0  0
   47.3299   30.5364   47.4225 H   0  0  0  0  0  0  0  0  0  0  0  0
   46.3484   29.5110   46.2574 H   0  0  0  0  0  0  0  0  0  0  0  0
   48.2854   29.9095   43.5569 H   0  0  0  0  0  0  0  0  0  0  0  0
   46.6352   29.7132   44.1211 H   0  0  0  0  0  0  0  0  0  0  0  0
   48.3213   32.1855   43.9704 H   0  0  0  0  0  0  0  0  0  0  0  0
   45.2270   30.8752   42.6531 H   0  0  0  0  0  0  0  0  0  0  0  0
   44.8255   32.5007   43.2608 H   0  0  0  0  0  0  0  0  0  0  0  0
   44.9977   31.5126   40.4664 H   0  0  0  0  0  0  0  0  0  0  0  0
   44.1767   32.9464   41.0607 H   0  0  0  0  0  0  0  0  0  0  0  0
   46.8355   32.7289   39.8811 H   0  0  0  0  0  0  0  0  0  0  0  0
   46.0388   34.2088   40.3943 H   0  0  0  0  0  0  0  0  0  0  0  0
   47.3077   33.7646   42.9286 H   0  0  0  0  0  0  0  0  0  0  0  0
   48.3603   35.9233   40.9327 H   0  0  0  0  0  0  0  0  0  0  0  0
   49.3015   34.8172   39.8756 H   0  0  0  0  0  0  0  0  0  0  0  0
   47.5065   34.7484   39.8756 H   0  0  0  0  0  0  0  0  0  0  0  0
   50.0893   32.5310   42.0054 H   0  0  0  0  0  0  0  0  0  0  0  0
   49.1389   32.1455   40.5307 H   0  0  0  0  0  0  0  0  0  0  0  0
   50.2706   33.5404   40.5307 H   0  0  0  0  0  0  0  0  0  0  0  0
   48.7952   34.3422   43.6844 H   0  0  0  0  0  0  0  0  0  0  0  0
   50.1750   34.6798   42.5849 H   0  0  0  0  0  0  0  0  0  0  0  0
   48.7410   35.7616   42.5849 H   0  0  0  0  0  0  0  0  0  0  0  0
  1  6  2  0
  2  1  1  0
  4  5  2  0
  5  7  1  0
  5  6  1  0
  7  8  1  0
  8  9  1  0
 10  9  1  0
 11 10  1  0
 12 11  1  0
 12  7  1  0
 13  4  1  0
 14 15  1  0
 14 12  1  0
 16 15  1  0
 17 16  1  0
 17 18  1  0
 18 14  1  0
 19 18  1  0
 19 22  1  0
 20 19  1  0
 21 19  1  0
  1 23  1  0
  2 24  1  0
  2 25  1  0
  2 26  1  0
  3 27  1  0
  3 28  1  0
  3 29  1  0
  3 30  1  0
  8 31  1  0
  8 32  1  0
  9 33  1  0
  9 34  1  0
 11 35  1  0
 11 36  1  0
 12 37  1  1
 15 38  1  0
 15 39  1  0
 16 40  1  0
 16 41  1  0
 17 42  1  0
 17 43  1  0
 18 44  1  6
 20 45  1  0
 20 46  1  0
 20 47  1  0
 21 48  1  0
 21 49  1  0
 21 50  1  0
 22 51  1  0
 22 52  1  0
 22 53  1  0
M  ISO  8  24   8  25   8  26   8  27   8  28   8  29   8  30   8  31  13
M  ISO  8  32  13  33  13  34  13  35  13  36  13  37  13  38  13  39  13
M  ISO  8  40  13  41  13  42  13  43  13  44  13  45   8  46   8  47   8
M  ISO  6  48   8  49   8  50   8  51   8  52   8  53   8
M  END
>  <minimizedAffinity>  (1) 
-5.1175456

>  <minimizedRMSD>  (1) 
2.17474461

$$$$
