
     RDKit          3D

 48 49  0  0  1  0  0  0  0  0999 V2000
   44.4220   35.9690   44.7620 C   0  0  0  0  0  0  0  0  0  0  0  0
   44.3190   35.9210   43.3660 C   0  0  0  0  0  0  0  0  0  0  0  0
   45.1650   34.9730   42.7640 C   0  0  0  0  0  0  0  0  0  0  0  0
   45.3580   33.8430   43.5110 N   0  0  0  0  0  0  0  0  0  0  0  0
   45.4910   33.9400   44.8250 C   0  0  0  0  0  0  0  0  0  0  0  0
   45.0090   35.0150   45.4850 N   0  0  0  0  0  0  0  0  0  0  0  0
   46.1030   32.9180   45.5230 N   0  0  0  0  0  0  0  0  0  0  0  0
   45.6470   32.7340   46.9260 C   0  0  0  0  0  0  0  0  0  0  0  0
   46.5570   31.8270   47.7200 C   0  0  0  0  0  0  0  0  0  0  0  0
   47.6980   31.4500   47.0650 O   0  0  0  0  0  0  0  0  0  0  0  0
   47.3900   30.9270   45.8340 C   0  0  0  0  0  0  0  0  0  0  0  0
   47.1460   32.1350   44.9540 C   0  0  1  0  0  0  0  0  0  0  0  0
   45.2600   33.8570   42.6390 H   0  0  0  0  0  0  0  0  0  0  0  0
   46.7370   31.9530   43.6390 N   0  0  0  0  0  0  0  0  0  0  0  0
   45.5510   31.3340   43.4450 C   0  0  0  0  0  0  0  0  0  0  0  0
   45.3590   31.2490   41.9490 C   0  0  0  0  0  0  0  0  0  0  0  0
   46.4010   32.2410   41.4100 C   0  0  0  0  0  0  0  0  0  0  0  0
   46.9910   32.8520   42.6740 C   0  0  2  0  0  0  0  0  0  0  0  0
   48.4050   32.3910   42.5860 N   0  0  0  0  0  0  0  0  0  0  0  0
   49.4870   33.2310   42.5280 C   0  0  0  0  0  0  0  0  0  0  0  0
   50.6760   32.5430   42.4430 C   0  0  0  0  0  0  0  0  0  0  0  0
   50.3430   31.2570   42.4470 N   0  0  0  0  0  0  0  0  0  0  0  0
   49.0090   31.1600   42.5310 C   0  0  0  0  0  0  0  0  0  0  0  0
   43.9975   36.8369   45.2879 H   0  0  0  0  0  0  0  0  0  0  0  0
   43.3551   35.4718   43.0847 H   0  0  0  0  0  0  0  0  0  0  0  0
   44.3811   36.9408   42.9585 H   0  0  0  0  0  0  0  0  0  0  0  0
   45.1399   35.3127   42.9585 H   0  0  0  0  0  0  0  0  0  0  0  0
   45.1650   34.9730   43.8640 H   0  0  0  0  0  0  0  0  0  0  0  0
   45.1650   36.0101   42.3973 H   0  0  0  0  0  0  0  0  0  0  0  0
   46.0631   34.4545   42.3973 H   0  0  0  0  0  0  0  0  0  0  0  0
   44.2669   34.4545   42.3973 H   0  0  0  0  0  0  0  0  0  0  0  0
   45.6144   33.7176   47.4174 H   0  0  0  0  0  0  0  0  0  0  0  0
   44.6537   32.2626   46.8936 H   0  0  0  0  0  0  0  0  0  0  0  0
   46.8480   32.3537   48.6408 H   0  0  0  0  0  0  0  0  0  0  0  0
   45.9884   30.9051   47.9117 H   0  0  0  0  0  0  0  0  0  0  0  0
   48.2270   30.3275   45.4467 H   0  0  0  0  0  0  0  0  0  0  0  0
   46.5185   30.2569   45.8724 H   0  0  0  0  0  0  0  0  0  0  0  0
   48.1533   32.5751   44.9141 H   0  0  0  0  0  0  0  0  0  0  0  0
   45.5707   30.3259   43.8847 H   0  0  0  0  0  0  0  0  0  0  0  0
   44.7283   31.8853   43.9238 H   0  0  0  0  0  0  0  0  0  0  0  0
   45.5558   30.2307   41.5824 H   0  0  0  0  0  0  0  0  0  0  0  0
   44.3325   31.4823   41.6297 H   0  0  0  0  0  0  0  0  0  0  0  0
   47.1745   31.7211   40.8257 H   0  0  0  0  0  0  0  0  0  0  0  0
   45.9698   32.9909   40.7306 H   0  0  0  0  0  0  0  0  0  0  0  0
   46.7063   33.9065   42.8044 H   0  0  0  0  0  0  0  0  0  0  0  0
   49.4133   34.3284   42.5472 H   0  0  0  0  0  0  0  0  0  0  0  0
   51.6887   32.9684   42.3841 H   0  0  0  0  0  0  0  0  0  0  0  0
   48.4624   30.2057   42.5532 H   0  0  0  0  0  0  0  0  0  0  0  0
  1  6  2  0
  2  1  1  0
  4  5  2  0
  5  6  1  0
  5  7  1  0
  7  8  1  0
  8  9  1  0
 10  9  1  0
 11 10  1  0
 12  7  1  0
 12 11  1  0
 13  4  1  0
 14 15  1  0
 14 12  1  0
 16 15  1  0
 17 16  1  0
 17 18  1  0
 18 14  1  0
 19 18  1  0
 20 19  1  0
 21 22  1  0
 21 20  2  0
 22 23  2  0
 23 19  1  0
  1 24  1  0
  2 25  1  0
  2 26  1  0
  2 27  1  0
  3 28  1  0
  3 29  1  0
  3 30  1  0
  3 31  1  0
  8 32  1  0
  8 33  1  0
  9 34  1  0
  9 35  1  0
 11 36  1  0
 11 37  1  0
 12 38  1  6
 15 39  1  0
 15 40  1  0
 16 41  1  0
 16 42  1  0
 17 43  1  0
 17 44  1  0
 18 45  1  1
 20 46  1  0
 21 47  1  0
 23 48  1  0
M  ISO  8  25   8  26   8  27   8  28   8  29   8  30   8  31   8  32  13
M  ISO  8  33  13  34  13  35  13  36  13  37  13  38  13  39  13  40  13
M  ISO  8  41  13  42  13  43  13  44  13  45  13  46  14  47  14  48  14
M  END
>  <minimizedAffinity>  (1) 
-4.66496038

>  <minimizedRMSD>  (1) 
1.55774343

$$$$
