
     RDKit          3D

 48 49  0  0  1  0  0  0  0  0999 V2000
   44.4440   35.9420   44.7170 C   0  0  0  0  0  0  0  0  0  0  0  0
   44.2810   35.8550   43.3290 C   0  0  0  0  0  0  0  0  0  0  0  0
   45.0870   34.8740   42.7230 C   0  0  0  0  0  0  0  0  0  0  0  0
   45.2810   33.7660   43.4960 N   0  0  0  0  0  0  0  0  0  0  0  0
   45.4730   33.8950   44.8010 C   0  0  0  0  0  0  0  0  0  0  0  0
   45.0400   35.0010   45.4470 N   0  0  0  0  0  0  0  0  0  0  0  0
   46.0870   32.8800   45.5060 N   0  0  0  0  0  0  0  0  0  0  0  0
   45.6750   32.7500   46.9280 C   0  0  0  0  0  0  0  0  0  0  0  0
   46.5610   31.8220   47.7160 C   0  0  0  0  0  0  0  0  0  0  0  0
   47.6900   31.4220   47.0470 O   0  0  0  0  0  0  0  0  0  0  0  0
   47.3340   30.8720   45.8410 C   0  0  0  0  0  0  0  0  0  0  0  0
   47.0880   32.0540   44.9320 C   0  0  1  0  0  0  0  0  0  0  0  0
   45.1480   33.7450   42.6280 H   0  0  0  0  0  0  0  0  0  0  0  0
   46.6320   31.8260   43.6270 N   0  0  0  0  0  0  0  0  0  0  0  0
   45.3640   31.3930   43.4940 C   0  0  0  0  0  0  0  0  0  0  0  0
   45.1230   31.2400   42.0130 C   0  0  0  0  0  0  0  0  0  0  0  0
   46.3050   32.0360   41.4070 C   0  0  0  0  0  0  0  0  0  0  0  0
   47.0080   32.6390   42.6050 C   0  0  2  0  0  0  0  0  0  0  0  0
   48.4360   32.0760   42.4050 C   0  0  0  0  0  0  0  0  0  0  0  0
   49.7010   32.8040   42.6290 C   0  0  0  0  0  0  0  0  0  0  0  0
   49.2010   32.8610   41.2730 C   0  0  0  0  0  0  0  0  0  0  0  0
   44.0594   36.8349   45.2317 H   0  0  0  0  0  0  0  0  0  0  0  0
   43.3314   35.3482   43.1024 H   0  0  0  0  0  0  0  0  0  0  0  0
   44.2689   36.8666   42.8971 H   0  0  0  0  0  0  0  0  0  0  0  0
   45.1147   35.2819   42.8971 H   0  0  0  0  0  0  0  0  0  0  0  0
   45.0870   34.8740   43.8230 H   0  0  0  0  0  0  0  0  0  0  0  0
   45.0870   35.9111   42.3563 H   0  0  0  0  0  0  0  0  0  0  0  0
   45.9851   34.3555   42.3563 H   0  0  0  0  0  0  0  0  0  0  0  0
   44.1889   34.3555   42.3563 H   0  0  0  0  0  0  0  0  0  0  0  0
   45.7076   33.7456   47.3946 H   0  0  0  0  0  0  0  0  0  0  0  0
   44.6610   32.3238   46.9386 H   0  0  0  0  0  0  0  0  0  0  0  0
   46.8700   32.3385   48.6367 H   0  0  0  0  0  0  0  0  0  0  0  0
   45.9721   30.9144   47.9148 H   0  0  0  0  0  0  0  0  0  0  0  0
   48.1465   30.2435   45.4474 H   0  0  0  0  0  0  0  0  0  0  0  0
   46.4492   30.2241   45.9264 H   0  0  0  0  0  0  0  0  0  0  0  0
   48.0998   32.4768   44.8451 H   0  0  0  0  0  0  0  0  0  0  0  0
   45.2362   30.4261   44.0027 H   0  0  0  0  0  0  0  0  0  0  0  0
   44.6508   32.0988   43.9447 H   0  0  0  0  0  0  0  0  0  0  0  0
   45.1567   30.1830   41.7103 H   0  0  0  0  0  0  0  0  0  0  0  0
   44.1354   31.5977   41.6864 H   0  0  0  0  0  0  0  0  0  0  0  0
   46.9817   31.3675   40.8546 H   0  0  0  0  0  0  0  0  0  0  0  0
   45.9713   32.7996   40.6890 H   0  0  0  0  0  0  0  0  0  0  0  0
   46.8635   33.7212   42.7389 H   0  0  0  0  0  0  0  0  0  0  0  0
   48.1250   31.0719   42.7292 H   0  0  0  0  0  0  0  0  0  0  0  0
   49.6912   33.7176   43.2416 H   0  0  0  0  0  0  0  0  0  0  0  0
   50.6695   32.5026   43.0546 H   0  0  0  0  0  0  0  0  0  0  0  0
   49.7149   32.3139   40.4689 H   0  0  0  0  0  0  0  0  0  0  0  0
   48.9485   33.6593   40.5596 H   0  0  0  0  0  0  0  0  0  0  0  0
  1  6  2  0
  2  1  1  0
  4  5  2  0
  5  6  1  0
  5  7  1  0
  7  8  1  0
  8  9  1  0
 10  9  1  0
 11 10  1  0
 12  7  1  0
 12 11  1  0
 13  4  1  0
 14 15  1  0
 14 12  1  0
 16 15  1  0
 17 16  1  0
 17 18  1  0
 18 14  1  0
 19 18  1  0
 19 20  1  0
 21 19  1  0
 21 20  1  0
  1 22  1  0
  2 23  1  0
  2 24  1  0
  2 25  1  0
  3 26  1  0
  3 27  1  0
  3 28  1  0
  3 29  1  0
  8 30  1  0
  8 31  1  0
  9 32  1  0
  9 33  1  0
 11 34  1  0
 11 35  1  0
 12 36  1  6
 15 37  1  0
 15 38  1  0
 16 39  1  0
 16 40  1  0
 17 41  1  0
 17 42  1  0
 18 43  1  1
 19 44  1  0
 20 45  1  0
 20 46  1  0
 21 47  1  0
 21 48  1  0
M  ISO  8  23   8  24   8  25   8  26   8  27   8  28   8  29   8  30  13
M  ISO  8  31  13  32  13  33  13  34  13  35  13  36  13  37  13  38  13
M  ISO  8  39  13  40  13  41  13  42  13  43  13  44  13  45  13  46  13
M  ISO  2  47  13  48  13
M  END
>  <minimizedAffinity>  (1) 
-4.41531754

>  <minimizedRMSD>  (1) 
1.31881011

$$$$
