
     RDKit          3D

 30 31  0  0  0  0  0  0  0  0999 V2000
   46.3030   33.7520   44.7290 C   0  0  0  0  0  0  0  0  0  0  0  0
   45.2580   34.5610   44.4400 C   0  0  0  0  0  0  0  0  0  0  0  0
   45.7170   35.2670   42.8300 S   0  0  0  0  0  0  0  0  0  0  0  0
   47.3440   34.2830   42.8310 C   0  0  0  0  0  0  0  0  0  0  0  0
   47.2410   33.7280   43.8390 N   0  0  0  0  0  0  0  0  0  0  0  0
   45.5000   32.4340   48.2100 C   0  0  0  0  0  0  0  0  0  0  0  0
   45.4390   33.1930   47.0520 C   0  0  0  0  0  0  0  0  0  0  0  0
   46.3260   32.9680   45.9900 C   0  0  0  0  0  0  0  0  0  0  0  0
   47.1980   31.9760   46.2200 N   0  0  0  0  0  0  0  0  0  0  0  0
   47.2780   31.2310   47.3250 C   0  0  0  0  0  0  0  0  0  0  0  0
   46.4170   31.4790   48.3070 N   0  0  0  0  0  0  0  0  0  0  0  0
   48.3760   34.3220   41.7450 C   0  0  0  0  0  0  0  0  0  0  0  0
   47.6450   34.5090   40.4490 C   0  0  0  0  0  0  0  0  0  0  0  0
   49.1130   33.0130   41.7970 C   0  0  0  0  0  0  0  0  0  0  0  0
   49.3270   35.4820   41.9730 C   0  0  0  0  0  0  0  0  0  0  0  0
   50.1820   35.1330   43.0910 N   0  0  0  0  0  0  0  0  0  0  0  0
   44.3514   34.7462   45.0348 H   0  0  0  0  0  0  0  0  0  0  0  0
   44.7987   32.6202   49.0368 H   0  0  0  0  0  0  0  0  0  0  0  0
   44.6814   33.9857   46.9647 H   0  0  0  0  0  0  0  0  0  0  0  0
   48.0329   30.4366   47.4199 H   0  0  0  0  0  0  0  0  0  0  0  0
   46.5980   34.7768   40.6539 H   0  0  0  0  0  0  0  0  0  0  0  0
   48.1230   35.3138   39.8712 H   0  0  0  0  0  0  0  0  0  0  0  0
   47.6778   33.5735   39.8712 H   0  0  0  0  0  0  0  0  0  0  0  0
   49.2752   32.7250   42.8462 H   0  0  0  0  0  0  0  0  0  0  0  0
   48.5190   32.2374   41.2914 H   0  0  0  0  0  0  0  0  0  0  0  0
   50.0842   33.1187   41.2914 H   0  0  0  0  0  0  0  0  0  0  0  0
   49.9363   35.6504   41.0728 H   0  0  0  0  0  0  0  0  0  0  0  0
   48.7676   36.4046   42.1870 H   0  0  0  0  0  0  0  0  0  0  0  0
   49.6913   35.3333   43.9741 H   0  0  0  0  0  0  0  0  0  0  0  0
   50.4132   34.1303   43.0465 H   0  0  0  0  0  0  0  0  0  0  0  0
  1  8  1  0
  2  1  2  0
  3  4  1  0
  3  2  1  0
  4  5  2  0
  5  1  1  0
  6 11  2  0
  7  6  1  0
  8  9  1  0
  8  7  2  0
  9 10  2  0
 10 11  1  0
 12 14  1  0
 12 15  1  0
 12  4  1  0
 13 12  1  0
 15 16  1  0
  2 17  1  0
  6 18  1  0
  7 19  1  0
 10 20  1  0
 13 21  1  0
 13 22  1  0
 13 23  1  0
 14 24  1  0
 14 25  1  0
 14 26  1  0
 15 27  1  0
 15 28  1  0
 16 29  1  0
 16 30  1  0
M  ISO  8  17  14  18  14  19  14  20  14  21   8  22   8  23   8  24   8
M  ISO  6  25   8  26   8  27   8  28   8  29   5  30   5
M  END
>  <minimizedAffinity>  (1) 
-5.19022417

>  <minimizedRMSD>  (1) 
0.550953507

$$$$
