
     RDKit          3D

 33 34  0  0  0  0  0  0  0  0999 V2000
   46.5070   34.1290   42.2630 C   0  0  0  0  0  0  0  0  0  0  0  0
   45.6710   33.7500   45.8220 C   0  0  0  0  0  0  0  0  0  0  0  0
   44.7740   34.7650   45.9600 C   0  0  0  0  0  0  0  0  0  0  0  0
   44.7160   35.4810   44.2900 S   0  0  0  0  0  0  0  0  0  0  0  0
   45.9820   34.2140   43.6650 C   0  0  0  0  0  0  0  0  0  0  0  0
   46.1600   33.6230   44.6410 N   0  0  0  0  0  0  0  0  0  0  0  0
   45.4130   31.6760   49.0070 C   0  0  0  0  0  0  0  0  0  0  0  0
   45.0650   32.4750   47.9390 C   0  0  0  0  0  0  0  0  0  0  0  0
   46.0100   32.8940   46.9800 C   0  0  0  0  0  0  0  0  0  0  0  0
   47.2520   32.4400   47.2160 N   0  0  0  0  0  0  0  0  0  0  0  0
   47.6110   31.6630   48.2470 C   0  0  0  0  0  0  0  0  0  0  0  0
   46.6710   31.2970   49.1250 N   0  0  0  0  0  0  0  0  0  0  0  0
   45.4030   34.5900   41.3570 C   0  0  0  0  0  0  0  0  0  0  0  0
   46.8680   32.6800   42.0190 C   0  0  0  0  0  0  0  0  0  0  0  0
   47.7230   35.0210   42.1200 C   0  0  0  0  0  0  0  0  0  0  0  0
   48.7160   34.5390   43.0530 N   0  0  0  0  0  0  0  0  0  0  0  0
   50.0600   34.5980   42.5300 C   0  0  0  0  0  0  0  0  0  0  0  0
   44.2214   35.0750   46.8592 H   0  0  0  0  0  0  0  0  0  0  0  0
   44.6591   31.3617   49.7438 H   0  0  0  0  0  0  0  0  0  0  0  0
   44.0182   32.7955   47.8316 H   0  0  0  0  0  0  0  0  0  0  0  0
   48.6537   31.3342   48.3682 H   0  0  0  0  0  0  0  0  0  0  0  0
   44.5555   34.9439   41.9624 H   0  0  0  0  0  0  0  0  0  0  0  0
   45.7682   35.4108   40.7223 H   0  0  0  0  0  0  0  0  0  0  0  0
   45.0761   33.7532   40.7223 H   0  0  0  0  0  0  0  0  0  0  0  0
   46.9959   32.1666   42.9834 H   0  0  0  0  0  0  0  0  0  0  0  0
   46.0638   32.1929   41.4481 H   0  0  0  0  0  0  0  0  0  0  0  0
   47.8068   32.6271   41.4481 H   0  0  0  0  0  0  0  0  0  0  0  0
   48.1125   34.9661   41.0927 H   0  0  0  0  0  0  0  0  0  0  0  0
   47.4658   36.0698   42.3292 H   0  0  0  0  0  0  0  0  0  0  0  0
   48.6707   35.1142   43.9062 H   0  0  0  0  0  0  0  0  0  0  0  0
   50.7768   34.6295   43.3638 H   0  0  0  0  0  0  0  0  0  0  0  0
   50.2531   33.7075   41.9138 H   0  0  0  0  0  0  0  0  0  0  0  0
   50.1743   35.5020   41.9138 H   0  0  0  0  0  0  0  0  0  0  0  0
  1  5  1  0
  2  3  2  0
  2  9  1  0
  4  3  1  0
  5  4  1  0
  5  6  2  0
  6  2  1  0
  7 12  2  0
  8  7  1  0
  9 10  1  0
  9  8  2  0
 10 11  2  0
 11 12  1  0
 13  1  1  0
 14  1  1  0
 15  1  1  0
 15 16  1  0
 17 16  1  0
  3 18  1  0
  7 19  1  0
  8 20  1  0
 11 21  1  0
 13 22  1  0
 13 23  1  0
 13 24  1  0
 14 25  1  0
 14 26  1  0
 14 27  1  0
 15 28  1  0
 15 29  1  0
 16 30  1  0
 17 31  1  0
 17 32  1  0
 17 33  1  0
M  ISO  8  18  14  19  14  20  14  21  14  22   8  23   8  24   8  25   8
M  ISO  8  26   8  27   8  28   8  29   8  30   5  31   8  32   8  33   8
M  END
>  <minimizedAffinity>  (1) 
-4.9437933

>  <minimizedRMSD>  (1) 
1.59284723

$$$$
