
     RDKit          3D

 35 36  0  0  0  0  0  0  0  0999 V2000
   45.2970   33.4890   41.9820 C   0  0  0  0  0  0  0  0  0  0  0  0
   45.6680   33.2420   45.6300 C   0  0  0  0  0  0  0  0  0  0  0  0
   45.1540   34.4400   46.0000 C   0  0  0  0  0  0  0  0  0  0  0  0
   44.7010   35.1940   44.4260 S   0  0  0  0  0  0  0  0  0  0  0  0
   45.3240   33.6650   43.4740 C   0  0  0  0  0  0  0  0  0  0  0  0
   45.6760   33.0230   44.3630 N   0  0  0  0  0  0  0  0  0  0  0  0
   47.6310   31.6770   48.5010 C   0  0  0  0  0  0  0  0  0  0  0  0
   47.1950   32.6000   47.5600 C   0  0  0  0  0  0  0  0  0  0  0  0
   46.1700   32.2920   46.6500 C   0  0  0  0  0  0  0  0  0  0  0  0
   45.6890   31.0530   46.7970 N   0  0  0  0  0  0  0  0  0  0  0  0
   46.0740   30.1400   47.6800 C   0  0  0  0  0  0  0  0  0  0  0  0
   47.0450   30.4740   48.5210 N   0  0  0  0  0  0  0  0  0  0  0  0
   43.8460   33.4880   41.5800 C   0  0  0  0  0  0  0  0  0  0  0  0
   45.9640   32.2070   41.6640 C   0  0  0  0  0  0  0  0  0  0  0  0
   45.9980   34.6710   41.3290 C   0  0  0  0  0  0  0  0  0  0  0  0
   47.3910   34.6630   41.6790 N   0  0  0  0  0  0  0  0  0  0  0  0
   48.5370   34.8320   42.4760 C   0  0  0  0  0  0  0  0  0  0  0  0
   49.7230   35.0590   42.7770 O   0  0  0  0  0  0  0  0  0  0  0  0
   48.3080   34.6540   40.5170 C   0  0  0  0  0  0  0  0  0  0  0  0
   47.4710   34.4330   39.3960 F   0  0  0  0  0  0  0  0  0  0  0  0
   49.1930   33.6480   40.6210 F   0  0  0  0  0  0  0  0  0  0  0  0
   48.8880   35.9010   40.3410 F   0  0  0  0  0  0  0  0  0  0  0  0
   45.0407   34.8521   47.0136 H   0  0  0  0  0  0  0  0  0  0  0  0
   48.4345   31.9272   49.2093 H   0  0  0  0  0  0  0  0  0  0  0  0
   47.6627   33.5950   47.5262 H   0  0  0  0  0  0  0  0  0  0  0  0
   45.6064   29.1449   47.7136 H   0  0  0  0  0  0  0  0  0  0  0  0
   43.2158   33.4876   42.4815 H   0  0  0  0  0  0  0  0  0  0  0  0
   43.6305   34.3860   40.9824 H   0  0  0  0  0  0  0  0  0  0  0  0
   43.6317   32.5897   40.9824 H   0  0  0  0  0  0  0  0  0  0  0  0
   46.2321   31.6916   42.5981 H   0  0  0  0  0  0  0  0  0  0  0  0
   45.2811   31.5736   41.0788 H   0  0  0  0  0  0  0  0  0  0  0  0
   46.8746   32.4027   41.0788 H   0  0  0  0  0  0  0  0  0  0  0  0
   45.5386   35.6072   41.6791 H   0  0  0  0  0  0  0  0  0  0  0  0
   45.8971   34.5953   40.2363 H   0  0  0  0  0  0  0  0  0  0  0  0
   48.1136   34.6411   43.4731 H   0  0  0  0  0  0  0  0  0  0  0  0
  1  5  1  0
  2  3  2  0
  2  9  1  0
  4  3  1  0
  5  6  2  0
  5  4  1  0
  6  2  1  0
  7 12  2  0
  8  7  1  0
  9 10  1  0
  9  8  2  0
 10 11  2  0
 11 12  1  0
 13  1  1  0
 14  1  1  0
 15 16  1  0
 15  1  1  0
 16 17  1  0
 17 18  2  0
 19 21  1  0
 19 16  1  0
 20 19  1  0
 22 19  1  0
  3 23  1  0
  7 24  1  0
  8 25  1  0
 11 26  1  0
 13 27  1  0
 13 28  1  0
 13 29  1  0
 14 30  1  0
 14 31  1  0
 14 32  1  0
 15 33  1  0
 15 34  1  0
 17 35  1  0
M  ISO  8  23  14  24  14  25  14  26  14  27   8  28   8  29   8  30   8
M  ISO  5  31   8  32   8  33   8  34   8  35   6
M  END
>  <minimizedAffinity>  (1) 
-5.23645353

>  <minimizedRMSD>  (1) 
1.2306143

$$$$
