
     RDKit          3D

 29 31  0  0  0  0  0  0  0  0999 V2000
   45.6870   34.3310   41.0290 C   0  0  0  0  0  0  0  0  0  0  0  0
   47.0120   34.5540   41.4240 C   0  0  0  0  0  0  0  0  0  0  0  0
   48.0380   34.1590   40.5410 C   0  0  0  0  0  0  0  0  0  0  0  0
   47.6780   33.5820   39.3510 N   0  0  0  0  0  0  0  0  0  0  0  0
   46.3730   33.3910   39.0210 C   0  0  0  0  0  0  0  0  0  0  0  0
   45.4250   33.7680   39.8630 N   0  0  0  0  0  0  0  0  0  0  0  0
   46.0130   32.7900   37.7790 N   0  0  0  0  0  0  0  0  0  0  0  0
   44.8020   32.2270   37.5050 C   0  0  0  0  0  0  0  0  0  0  0  0
   44.8040   31.7510   36.2310 N   0  0  0  0  0  0  0  0  0  0  0  0
   46.0150   32.0190   35.7160 C   0  0  0  0  0  0  0  0  0  0  0  0
   46.6370   31.8030   34.5030 C   0  0  0  0  0  0  0  0  0  0  0  0
   47.9190   32.1960   34.2520 N   0  0  0  0  0  0  0  0  0  0  0  0
   48.6060   32.8310   35.2470 C   0  0  0  0  0  0  0  0  0  0  0  0
   48.0580   33.0730   36.4540 N   0  0  0  0  0  0  0  0  0  0  0  0
   46.8010   32.6750   36.6700 C   0  0  0  0  0  0  0  0  0  0  0  0
   45.8680   31.1410   33.5160 N   0  0  0  0  0  0  0  0  0  0  0  0
   44.6330   34.7390   41.9410 C   0  0  0  0  0  0  0  0  0  0  0  0
   43.7500   35.5560   41.5270 O   0  0  0  0  0  0  0  0  0  0  0  0
   44.6230   34.2200   43.2370 O   0  0  0  0  0  0  0  0  0  0  0  0
   45.1680   35.0080   44.2750 C   0  0  0  0  0  0  0  0  0  0  0  0
   44.2850   35.1600   45.3380 F   0  0  0  0  0  0  0  0  0  0  0  0
   46.3100   34.4240   44.7550 F   0  0  0  0  0  0  0  0  0  0  0  0
   45.4270   36.2500   43.7390 F   0  0  0  0  0  0  0  0  0  0  0  0
   47.2448   35.0222   42.3918 H   0  0  0  0  0  0  0  0  0  0  0  0
   49.0965   34.3096   40.7997 H   0  0  0  0  0  0  0  0  0  0  0  0
   43.9555   32.1671   38.2050 H   0  0  0  0  0  0  0  0  0  0  0  0
   49.6398   33.1553   35.0570 H   0  0  0  0  0  0  0  0  0  0  0  0
   46.2744   30.9497   32.5891 H   0  0  0  0  0  0  0  0  0  0  0  0
   44.9021   30.8506   33.7247 H   0  0  0  0  0  0  0  0  0  0  0  0
  1  2  2  0
  1 17  1  0
  3  2  1  0
  4  3  2  0
  5  4  1  0
  5  6  2  0
  6  1  1  0
  7  5  1  0
  8  7  1  0
  9  8  2  0
 10  9  1  0
 10 15  2  0
 11 10  1  0
 12 11  2  0
 12 13  1  0
 13 14  2  0
 14 15  1  0
 15  7  1  0
 16 11  1  0
 17 19  1  0
 18 17  2  0
 19 20  1  0
 20 22  1  0
 20 21  1  0
 23 20  1  0
  2 24  1  0
  3 25  1  0
  8 26  1  0
 13 27  1  0
 16 28  1  0
 16 29  1  0
M  ISO  4  24  14  25  14  26  14  27  14
M  END
>  <minimizedAffinity>  (1) 
-5.3579483

>  <minimizedRMSD>  (1) 
0.93583566

$$$$
