
     RDKit          3D

 26 27  0  0  0  0  0  0  0  0999 V2000
   46.3580   34.6040   41.7640 C   0  0  0  0  0  0  0  0  0  0  0  0
   47.5590   35.2310   42.0850 C   0  0  0  0  0  0  0  0  0  0  0  0
   48.5930   35.2300   41.1270 C   0  0  0  0  0  0  0  0  0  0  0  0
   48.3490   34.6080   39.9330 N   0  0  0  0  0  0  0  0  0  0  0  0
   47.1710   34.0180   39.6730 C   0  0  0  0  0  0  0  0  0  0  0  0
   46.1980   34.0200   40.5780 N   0  0  0  0  0  0  0  0  0  0  0  0
   47.0680   33.4120   38.3860 N   0  0  0  0  0  0  0  0  0  0  0  0
   46.2250   32.3840   38.1790 C   0  0  0  0  0  0  0  0  0  0  0  0
   46.1350   31.8030   36.9140 C   0  0  0  0  0  0  0  0  0  0  0  0
   46.9630   32.3810   35.9800 C   0  0  0  0  0  0  0  0  0  0  0  0
   46.9230   31.8890   34.8040 O   0  0  0  0  0  0  0  0  0  0  0  0
   47.8110   33.4010   36.1510 N   0  0  0  0  0  0  0  0  0  0  0  0
   47.8510   33.9240   37.4100 C   0  0  0  0  0  0  0  0  0  0  0  0
   48.6360   34.8840   37.6070 O   0  0  0  0  0  0  0  0  0  0  0  0
   45.2930   34.6080   42.7560 C   0  0  0  0  0  0  0  0  0  0  0  0
   44.5150   35.6100   42.8250 O   0  0  0  0  0  0  0  0  0  0  0  0
   45.1640   33.5070   43.5990 O   0  0  0  0  0  0  0  0  0  0  0  0
   45.7430   33.5750   44.8910 C   0  0  0  0  0  0  0  0  0  0  0  0
   45.4450   32.4600   45.6660 F   0  0  0  0  0  0  0  0  0  0  0  0
   47.1240   33.6640   44.7910 F   0  0  0  0  0  0  0  0  0  0  0  0
   45.2200   34.6940   45.5020 F   0  0  0  0  0  0  0  0  0  0  0  0
   47.6976   35.7155   43.0628 H   0  0  0  0  0  0  0  0  0  0  0  0
   49.5605   35.7116   41.3318 H   0  0  0  0  0  0  0  0  0  0  0  0
   45.6079   32.0024   39.0058 H   0  0  0  0  0  0  0  0  0  0  0  0
   45.4647   30.9615   36.6849 H   0  0  0  0  0  0  0  0  0  0  0  0
   48.3939   33.7665   35.3845 H   0  0  0  0  0  0  0  0  0  0  0  0
  1  2  2  0
  1 15  1  0
  3  2  1  0
  4  3  2  0
  5  4  1  0
  5  6  2  0
  6  1  1  0
  7  5  1  0
  8  7  1  0
  9  8  2  0
 10 12  1  0
 10  9  1  0
 11 10  2  0
 12 13  1  0
 13 14  2  0
 13  7  1  0
 15 16  2  0
 15 17  1  0
 17 18  1  0
 18 21  1  0
 18 19  1  0
 20 18  1  0
  2 22  1  0
  3 23  1  0
  8 24  1  0
  9 25  1  0
 12 26  1  0
M  ISO  5  22  14  23  14  24  14  25  14  26   9
M  END
>  <minimizedAffinity>  (1) 
-5.31313515

>  <minimizedRMSD>  (1) 
1.84387159

$$$$
