
     RDKit          3D

 44 46  0  0  1  0  0  0  0  0999 V2000
   45.8840   32.0930   42.2250 C   0  0  0  0  0  0  0  0  0  0  0  0
   46.6520   32.2680   45.8140 C   0  0  0  0  0  0  0  0  0  0  0  0
   45.9610   33.4080   46.1370 C   0  0  0  0  0  0  0  0  0  0  0  0
   45.2470   33.8890   44.5690 S   0  0  0  0  0  0  0  0  0  0  0  0
   46.0400   32.3950   43.6820 C   0  0  0  0  0  0  0  0  0  0  0  0
   46.5670   31.9440   44.5820 N   0  0  0  0  0  0  0  0  0  0  0  0
   48.3590   31.2990   49.0610 C   0  0  0  0  0  0  0  0  0  0  0  0
   47.6440   32.0370   48.1230 C   0  0  0  0  0  0  0  0  0  0  0  0
   47.4010   31.5310   46.8450 C   0  0  0  0  0  0  0  0  0  0  0  0
   47.9140   30.3070   46.6390 N   0  0  0  0  0  0  0  0  0  0  0  0
   48.5980   29.5730   47.5030 C   0  0  0  0  0  0  0  0  0  0  0  0
   48.8110   30.0810   48.7060 N   0  0  0  0  0  0  0  0  0  0  0  0
   44.4790   31.6070   42.0120 C   0  0  0  0  0  0  0  0  0  0  0  0
   46.8810   31.0290   41.8990 C   0  0  0  0  0  0  0  0  0  0  0  0
   46.1520   33.3040   41.4230 C   0  0  1  0  0  0  0  0  0  0  0  0
   45.1430   34.4000   41.6040 C   0  0  0  0  0  0  0  0  0  0  0  0
   43.8190   34.5160   41.1670 C   0  0  0  0  0  0  0  0  0  0  0  0
   43.2510   35.7010   41.5530 C   0  0  0  0  0  0  0  0  0  0  0  0
   44.2270   36.3170   42.2320 N   0  0  0  0  0  0  0  0  0  0  0  0
   45.3110   35.5720   42.2610 N   0  0  0  0  0  0  0  0  0  0  0  0
   47.4700   33.7790   41.4990 N   0  0  0  0  0  0  0  0  0  0  0  0
   48.6440   34.2500   42.1110 C   0  0  0  0  0  0  0  0  0  0  0  0
   49.8040   34.7140   42.1580 O   0  0  0  0  0  0  0  0  0  0  0  0
   48.5300   34.2110   43.5500 N   0  0  0  0  0  0  0  0  0  0  0  0
   48.1900   34.0160   40.2180 C   0  0  0  0  0  0  0  0  0  0  0  0
   47.1860   33.8330   39.2430 F   0  0  0  0  0  0  0  0  0  0  0  0
   49.1880   33.2190   40.0140 F   0  0  0  0  0  0  0  0  0  0  0  0
   48.4800   35.3930   40.1600 F   0  0  0  0  0  0  0  0  0  0  0  0
   45.8690   33.9026   47.1152 H   0  0  0  0  0  0  0  0  0  0  0  0
   48.5503   31.7002   50.0672 H   0  0  0  0  0  0  0  0  0  0  0  0
   47.2647   33.0338   48.3924 H   0  0  0  0  0  0  0  0  0  0  0  0
   48.9757   28.5765   47.2304 H   0  0  0  0  0  0  0  0  0  0  0  0
   43.9970   31.4403   42.9866 H   0  0  0  0  0  0  0  0  0  0  0  0
   43.9119   32.3612   41.4467 H   0  0  0  0  0  0  0  0  0  0  0  0
   44.4991   30.6636   41.4467 H   0  0  0  0  0  0  0  0  0  0  0  0
   47.2804   30.6028   42.8311 H   0  0  0  0  0  0  0  0  0  0  0  0
   46.3929   30.2363   41.3129 H   0  0  0  0  0  0  0  0  0  0  0  0
   47.7037   31.4646   41.3129 H   0  0  0  0  0  0  0  0  0  0  0  0
   46.0289   32.9458   40.3903 H   0  0  0  0  0  0  0  0  0  0  0  0
   43.2955   33.7456   40.5819 H   0  0  0  0  0  0  0  0  0  0  0  0
   42.2316   36.0622   41.3522 H   0  0  0  0  0  0  0  0  0  0  0  0
   44.1410   37.2450   42.6706 H   0  0  0  0  0  0  0  0  0  0  0  0
   49.3149   34.5267   44.1375 H   0  0  0  0  0  0  0  0  0  0  0  0
   47.6638   33.8675   43.9889 H   0  0  0  0  0  0  0  0  0  0  0  0
  1  5  1  0
  2  3  2  0
  2  9  1  0
  4  3  1  0
  5  4  1  0
  5  6  2  0
  6  2  1  0
  8  7  2  0
  9  8  1  0
 10  9  2  0
 10 11  1  0
 11 12  2  0
 12  7  1  0
 13  1  1  0
 14  1  1  0
 15 21  1  0
 15 16  1  0
 15  1  1  0
 16 20  2  0
 17 18  2  0
 17 16  1  0
 18 19  1  0
 19 20  1  0
 21 22  1  0
 22 23  2  0
 22 24  1  0
 25 21  1  0
 26 25  1  0
 27 25  1  0
 28 25  1  0
  3 29  1  0
  7 30  1  0
  8 31  1  0
 11 32  1  0
 13 33  1  0
 13 34  1  0
 13 35  1  0
 14 36  1  0
 14 37  1  0
 14 38  1  0
 15 39  1  6
 17 40  1  0
 18 41  1  0
 19 42  1  0
 24 43  1  0
 24 44  1  0
M  ISO  8  29  14  30  14  31  14  32  14  33   8  34   8  35   8  36   8
M  ISO  6  37   8  38   8  39   8  40  14  41  14  42   9
M  END
>  <minimizedAffinity>  (1) 
-5.63412905

>  <minimizedRMSD>  (1) 
1.46204531

$$$$
