
     RDKit          3D

 46 48  0  0  1  0  0  0  0  0999 V2000
   45.6680   31.4150   42.8180 C   0  0  0  0  0  0  0  0  0  0  0  0
   46.9340   31.8900   46.2320 C   0  0  0  0  0  0  0  0  0  0  0  0
   46.3750   33.0990   46.5190 C   0  0  0  0  0  0  0  0  0  0  0  0
   45.4770   33.4790   45.0130 S   0  0  0  0  0  0  0  0  0  0  0  0
   46.0390   31.8510   44.2000 C   0  0  0  0  0  0  0  0  0  0  0  0
   46.6580   31.4490   45.0660 N   0  0  0  0  0  0  0  0  0  0  0  0
   48.8320   31.0280   49.4060 C   0  0  0  0  0  0  0  0  0  0  0  0
   48.0310   31.7230   48.5000 C   0  0  0  0  0  0  0  0  0  0  0  0
   47.7730   31.2020   47.2290 C   0  0  0  0  0  0  0  0  0  0  0  0
   48.3620   30.0160   47.0050 N   0  0  0  0  0  0  0  0  0  0  0  0
   49.1260   29.3280   47.8330 C   0  0  0  0  0  0  0  0  0  0  0  0
   49.3490   29.8550   49.0340 N   0  0  0  0  0  0  0  0  0  0  0  0
   44.1630   31.3490   42.7570 C   0  0  0  0  0  0  0  0  0  0  0  0
   46.2790   30.0660   42.6120 C   0  0  0  0  0  0  0  0  0  0  0  0
   46.1800   32.3630   41.8150 C   0  0  1  0  0  0  0  0  0  0  0  0
   45.2970   33.5500   41.6700 C   0  0  0  0  0  0  0  0  0  0  0  0
   45.3740   34.7740   42.3450 C   0  0  0  0  0  0  0  0  0  0  0  0
   44.5040   35.8210   42.1320 C   0  0  0  0  0  0  0  0  0  0  0  0
   43.4880   35.6920   41.2110 C   0  0  0  0  0  0  0  0  0  0  0  0
   43.4130   34.4990   40.5550 C   0  0  0  0  0  0  0  0  0  0  0  0
   44.2610   33.5120   40.7790 N   0  0  0  0  0  0  0  0  0  0  0  0
   47.5510   32.6740   41.9570 N   0  0  0  0  0  0  0  0  0  0  0  0
   48.6900   33.2830   42.5030 C   0  0  0  0  0  0  0  0  0  0  0  0
   49.9060   33.5810   42.5810 O   0  0  0  0  0  0  0  0  0  0  0  0
   48.3650   34.0380   43.6810 N   0  0  0  0  0  0  0  0  0  0  0  0
   48.4870   32.1020   40.9460 C   0  0  0  0  0  0  0  0  0  0  0  0
   47.6200   31.5010   40.0090 F   0  0  0  0  0  0  0  0  0  0  0  0
   49.3210   31.2420   41.4260 F   0  0  0  0  0  0  0  0  0  0  0  0
   49.0550   33.1880   40.2520 F   0  0  0  0  0  0  0  0  0  0  0  0
   46.4543   33.6926   47.4417 H   0  0  0  0  0  0  0  0  0  0  0  0
   49.0335   31.4382   50.4066 H   0  0  0  0  0  0  0  0  0  0  0  0
   47.5976   32.6918   48.7890 H   0  0  0  0  0  0  0  0  0  0  0  0
   49.5599   28.3599   47.5422 H   0  0  0  0  0  0  0  0  0  0  0  0
   43.7551   31.3311   43.7784 H   0  0  0  0  0  0  0  0  0  0  0  0
   43.7786   32.2312   42.2240 H   0  0  0  0  0  0  0  0  0  0  0  0
   43.8573   30.4366   42.2240 H   0  0  0  0  0  0  0  0  0  0  0  0
   46.4878   29.6050   43.5887 H   0  0  0  0  0  0  0  0  0  0  0  0
   45.5812   29.4297   42.0479 H   0  0  0  0  0  0  0  0  0  0  0  0
   47.2175   30.1708   42.0479 H   0  0  0  0  0  0  0  0  0  0  0  0
   46.1399   31.8352   40.8508 H   0  0  0  0  0  0  0  0  0  0  0  0
   46.1745   34.9075   43.0876 H   0  0  0  0  0  0  0  0  0  0  0  0
   44.6206   36.7580   42.6963 H   0  0  0  0  0  0  0  0  0  0  0  0
   42.7758   36.5071   41.0153 H   0  0  0  0  0  0  0  0  0  0  0  0
   42.6159   34.3533   39.8111 H   0  0  0  0  0  0  0  0  0  0  0  0
   49.1052   34.5415   44.1905 H   0  0  0  0  0  0  0  0  0  0  0  0
   47.3918   34.0759   44.0162 H   0  0  0  0  0  0  0  0  0  0  0  0
  1  5  1  0
  2  3  2  0
  2  9  1  0
  4  3  1  0
  5  4  1  0
  5  6  2  0
  6  2  1  0
  8  7  2  0
  9  8  1  0
 10  9  2  0
 10 11  1  0
 11 12  2  0
 12  7  1  0
 13  1  1  0
 14  1  1  0
 15 22  1  0
 15  1  1  0
 16 15  1  0
 16 17  2  0
 18 17  1  0
 19 18  2  0
 20 21  2  0
 20 19  1  0
 21 16  1  0
 22 23  1  0
 23 24  2  0
 23 25  1  0
 26 28  1  0
 26 22  1  0
 27 26  1  0
 29 26  1  0
  3 30  1  0
  7 31  1  0
  8 32  1  0
 11 33  1  0
 13 34  1  0
 13 35  1  0
 13 36  1  0
 14 37  1  0
 14 38  1  0
 14 39  1  0
 15 40  1  6
 17 41  1  0
 18 42  1  0
 19 43  1  0
 20 44  1  0
 25 45  1  0
 25 46  1  0
M  ISO  8  30  14  31  14  32  14  33  14  34   8  35   8  36   8  37   8
M  ISO  7  38   8  39   8  40   8  41  14  42  14  43  14  44  14
M  END
>  <minimizedAffinity>  (1) 
-4.95623016

>  <minimizedRMSD>  (1) 
2.26386833

$$$$
