
     RDKit          3D

 18 19  0  0  0  0  0  0  0  0999 V2000
   44.9380   35.0130   44.5470 C   0  0  0  0  0  0  0  0  0  0  0  0
   45.8220   34.9080   43.4700 C   0  0  0  0  0  0  0  0  0  0  0  0
   46.8840   34.0180   43.5730 C   0  0  0  0  0  0  0  0  0  0  0  0
   47.0150   33.2810   44.7330 N   0  0  0  0  0  0  0  0  0  0  0  0
   46.1430   33.4190   45.7360 C   0  0  0  0  0  0  0  0  0  0  0  0
   45.0950   34.2780   45.6670 N   0  0  0  0  0  0  0  0  0  0  0  0
   43.8640   35.9360   44.4020 N   0  0  0  0  0  0  0  0  0  0  0  0
   46.2770   32.6460   46.9590 C   0  0  0  0  0  0  0  0  0  0  0  0
   47.4080   31.8230   47.1130 C   0  0  0  0  0  0  0  0  0  0  0  0
   47.1060   31.0650   48.8160 S   0  0  0  0  0  0  0  0  0  0  0  0
   45.4880   32.0310   48.9670 C   0  0  0  0  0  0  0  0  0  0  0  0
   45.4720   32.5830   48.0030 N   0  0  0  0  0  0  0  0  0  0  0  0
   45.6807   35.5147   42.5634 H   0  0  0  0  0  0  0  0  0  0  0  0
   47.6039   33.9033   42.7492 H   0  0  0  0  0  0  0  0  0  0  0  0
   43.7693   36.4839   43.5350 H   0  0  0  0  0  0  0  0  0  0  0  0
   43.1816   36.0559   45.1641 H   0  0  0  0  0  0  0  0  0  0  0  0
   48.2486   31.6630   46.4218 H   0  0  0  0  0  0  0  0  0  0  0  0
   44.7576   32.0433   49.7895 H   0  0  0  0  0  0  0  0  0  0  0  0
  1  6  2  0
  2  3  2  0
  2  1  1  0
  3  4  1  0
  4  5  2  0
  5  8  1  0
  6  5  1  0
  7  1  1  0
  8  9  2  0
  8 12  1  0
  9 10  1  0
 10 11  1  0
 12 11  2  0
  2 13  1  0
  3 14  1  0
  7 15  1  0
  7 16  1  0
  9 17  1  0
 11 18  1  0
M  ISO  4  13  14  14  14  17  14  18  14
M  END
>  <minimizedAffinity>  (1) 
-4.56865311

>  <minimizedRMSD>  (1) 
0.926969886

$$$$
