
     RDKit          3D

 39 42  0  0  1  0  0  0  0  0999 V2000
   44.5050   35.4350   43.1820 C   0  0  1  0  0  0  0  0  0  0  0  0
   45.5140   34.4870   43.6900 C   0  0  0  0  0  0  0  0  0  0  0  0
   46.7360   34.3570   42.9680 C   0  0  0  0  0  0  0  0  0  0  0  0
   47.7180   33.4550   43.4340 C   0  0  0  0  0  0  0  0  0  0  0  0
   47.4250   32.7550   44.5650 N   0  0  0  0  0  0  0  0  0  0  0  0
   46.2750   32.9010   45.2140 C   0  0  0  0  0  0  0  0  0  0  0  0
   45.3140   33.7580   44.7910 N   0  0  0  0  0  0  0  0  0  0  0  0
   45.9650   32.1350   46.4450 C   0  0  0  0  0  0  0  0  0  0  0  0
   45.9130   30.7380   46.3340 C   0  0  0  0  0  0  0  0  0  0  0  0
   45.4990   30.2520   48.1050 S   0  0  0  0  0  0  0  0  0  0  0  0
   45.4890   32.0780   48.6130 C   0  0  0  0  0  0  0  0  0  0  0  0
   45.7260   32.5960   47.6580 N   0  0  0  0  0  0  0  0  0  0  0  0
   44.9800   36.8570   43.3880 C   0  0  0  0  0  0  0  0  0  0  0  0
   44.1810   35.1970   41.7230 C   0  0  0  0  0  0  0  0  0  0  0  0
   43.1850   34.0980   41.6130 C   0  0  0  0  0  0  0  0  0  0  0  0
   43.4280   32.7930   41.8820 N   0  0  0  0  0  0  0  0  0  0  0  0
   42.4760   31.8550   41.7590 C   0  0  0  0  0  0  0  0  0  0  0  0
   41.2240   32.2120   41.3550 N   0  0  0  0  0  0  0  0  0  0  0  0
   40.9440   33.5030   41.0790 C   0  0  0  0  0  0  0  0  0  0  0  0
   39.6620   33.8400   40.6690 C   0  0  0  0  0  0  0  0  0  0  0  0
   39.3690   35.1760   40.3820 C   0  0  0  0  0  0  0  0  0  0  0  0
   40.3360   36.1680   40.5000 C   0  0  0  0  0  0  0  0  0  0  0  0
   41.6020   35.7940   40.9110 C   0  0  0  0  0  0  0  0  0  0  0  0
   41.9220   34.4660   41.2040 C   0  0  0  0  0  0  0  0  0  0  0  0
   43.5793   35.2702   43.7529 H   0  0  0  0  0  0  0  0  0  0  0  0
   46.9121   34.9516   42.0594 H   0  0  0  0  0  0  0  0  0  0  0  0
   48.6751   33.3240   42.9078 H   0  0  0  0  0  0  0  0  0  0  0  0
   46.0711   30.0998   45.4521 H   0  0  0  0  0  0  0  0  0  0  0  0
   45.2970   32.5155   49.6038 H   0  0  0  0  0  0  0  0  0  0  0  0
   45.0504   37.0676   44.4653 H   0  0  0  0  0  0  0  0  0  0  0  0
   45.9693   36.9839   42.9242 H   0  0  0  0  0  0  0  0  0  0  0  0
   44.2656   37.5530   42.9242 H   0  0  0  0  0  0  0  0  0  0  0  0
   43.7642   36.1158   41.2847 H   0  0  0  0  0  0  0  0  0  0  0  0
   45.0979   34.9184   41.1829 H   0  0  0  0  0  0  0  0  0  0  0  0
   42.7050   30.8027   41.9832 H   0  0  0  0  0  0  0  0  0  0  0  0
   38.8866   33.0659   40.5712 H   0  0  0  0  0  0  0  0  0  0  0  0
   38.3540   35.4479   40.0566 H   0  0  0  0  0  0  0  0  0  0  0  0
   40.1010   37.2184   40.2733 H   0  0  0  0  0  0  0  0  0  0  0  0
   42.3804   36.5649   41.0102 H   0  0  0  0  0  0  0  0  0  0  0  0
  1 13  1  0
  1  2  1  0
  2  7  2  0
  3  4  2  0
  3  2  1  0
  4  5  1  0
  5  6  2  0
  6  8  1  0
  7  6  1  0
  8 12  1  0
  9  8  2  0
  9 10  1  0
 10 11  1  0
 12 11  2  0
 14  1  1  0
 15 14  1  0
 15 16  2  0
 17 16  1  0
 18 17  2  0
 19 24  2  0
 19 18  1  0
 20 19  1  0
 21 22  1  0
 21 20  2  0
 22 23  2  0
 23 24  1  0
 24 15  1  0
  1 25  1  1
  3 26  1  0
  4 27  1  0
  9 28  1  0
 11 29  1  0
 13 30  1  0
 13 31  1  0
 13 32  1  0
 14 33  1  0
 14 34  1  0
 17 35  1  0
 20 36  1  0
 21 37  1  0
 22 38  1  0
 23 39  1  0
M  ISO  8  25   8  26  14  27  14  28  14  29  14  30   8  31   8  32   8
M  ISO  7  33   8  34   8  35  14  36  14  37  14  38  14  39  14
M  END
>  <minimizedAffinity>  (1) 
-6.31596947

>  <minimizedRMSD>  (1) 
2.53962803

$$$$
