
     RDKit          3D

 40 42  0  0  1  0  0  0  0  0999 V2000
   44.6010   35.3260   42.8510 C   0  0  1  0  0  0  0  0  0  0  0  0
   45.6560   34.4030   43.3620 C   0  0  0  0  0  0  0  0  0  0  0  0
   46.7560   34.1160   42.5450 C   0  0  0  0  0  0  0  0  0  0  0  0
   47.7540   33.2430   43.0180 C   0  0  0  0  0  0  0  0  0  0  0  0
   47.5810   32.7260   44.2620 N   0  0  0  0  0  0  0  0  0  0  0  0
   46.5210   33.0160   45.0240 C   0  0  0  0  0  0  0  0  0  0  0  0
   45.5580   33.8480   44.5860 N   0  0  0  0  0  0  0  0  0  0  0  0
   46.3690   32.4610   46.3780 C   0  0  0  0  0  0  0  0  0  0  0  0
   47.2520   31.4470   46.7770 C   0  0  0  0  0  0  0  0  0  0  0  0
   46.6490   31.1130   48.5250 S   0  0  0  0  0  0  0  0  0  0  0  0
   45.3020   32.4390   48.3430 C   0  0  0  0  0  0  0  0  0  0  0  0
   45.4710   32.8130   47.3050 N   0  0  0  0  0  0  0  0  0  0  0  0
   45.0300   36.7560   43.0900 C   0  0  0  0  0  0  0  0  0  0  0  0
   44.2850   35.0710   41.4120 C   0  0  0  0  0  0  0  0  0  0  0  0
   43.0640   35.5040   40.8680 N   0  0  0  0  0  0  0  0  0  0  0  0
   42.0560   35.2420   41.9310 C   0  0  0  0  0  0  0  0  0  0  0  0
   40.7250   34.8640   41.4060 C   0  0  0  0  0  0  0  0  0  0  0  0
   40.3250   35.7840   40.2770 C   0  0  0  0  0  0  0  0  0  0  0  0
   41.3440   35.6350   39.2030 C   0  0  0  0  0  0  0  0  0  0  0  0
   42.5690   34.8430   39.7010 C   0  0  0  0  0  0  0  0  0  0  0  0
   43.6685   35.1386   43.4035 H   0  0  0  0  0  0  0  0  0  0  0  0
   46.8395   34.5673   41.5453 H   0  0  0  0  0  0  0  0  0  0  0  0
   48.6339   32.9910   42.4078 H   0  0  0  0  0  0  0  0  0  0  0  0
   48.0740   30.9755   46.2185 H   0  0  0  0  0  0  0  0  0  0  0  0
   44.5460   32.7580   49.0756 H   0  0  0  0  0  0  0  0  0  0  0  0
   45.0869   36.9458   44.1720 H   0  0  0  0  0  0  0  0  0  0  0  0
   46.0179   36.9232   42.6359 H   0  0  0  0  0  0  0  0  0  0  0  0
   44.2973   37.4394   42.6359 H   0  0  0  0  0  0  0  0  0  0  0  0
   45.0812   35.5503   40.8235 H   0  0  0  0  0  0  0  0  0  0  0  0
   44.2057   33.9749   41.3637 H   0  0  0  0  0  0  0  0  0  0  0  0
   42.4249   34.4227   42.5656 H   0  0  0  0  0  0  0  0  0  0  0  0
   41.9271   36.1799   42.4911 H   0  0  0  0  0  0  0  0  0  0  0  0
   40.7621   33.8292   41.0348 H   0  0  0  0  0  0  0  0  0  0  0  0
   39.9846   34.9484   42.2151 H   0  0  0  0  0  0  0  0  0  0  0  0
   39.3323   35.5026   39.8958 H   0  0  0  0  0  0  0  0  0  0  0  0
   40.2740   36.8267   40.6236 H   0  0  0  0  0  0  0  0  0  0  0  0
   41.6708   36.6337   38.8777 H   0  0  0  0  0  0  0  0  0  0  0  0
   40.8897   35.0833   38.3668 H   0  0  0  0  0  0  0  0  0  0  0  0
   42.2742   33.8128   39.9497 H   0  0  0  0  0  0  0  0  0  0  0  0
   43.3447   34.8001   38.9223 H   0  0  0  0  0  0  0  0  0  0  0  0
  1 13  1  0
  1  2  1  0
  2  7  2  0
  3  4  2  0
  3  2  1  0
  4  5  1  0
  5  6  2  0
  6  8  1  0
  7  6  1  0
  8  9  2  0
  8 12  1  0
  9 10  1  0
 11 10  1  0
 12 11  2  0
 14  1  1  0
 15 14  1  0
 15 16  1  0
 17 16  1  0
 18 17  1  0
 19 20  1  0
 19 18  1  0
 20 15  1  0
  1 21  1  1
  3 22  1  0
  4 23  1  0
  9 24  1  0
 11 25  1  0
 13 26  1  0
 13 27  1  0
 13 28  1  0
 14 29  1  0
 14 30  1  0
 16 31  1  0
 16 32  1  0
 17 33  1  0
 17 34  1  0
 18 35  1  0
 18 36  1  0
 19 37  1  0
 19 38  1  0
 20 39  1  0
 20 40  1  0
M  ISO  8  21   8  22  14  23  14  24  14  25  14  26   8  27   8  28   8
M  ISO  8  29   8  30   8  31  13  32  13  33  13  34  13  35  13  36  13
M  ISO  4  37  13  38  13  39  13  40  13
M  END
>  <minimizedAffinity>  (1) 
-5.22246933

>  <minimizedRMSD>  (1) 
0.906031907

$$$$
