
     RDKit          3D

 32 34  0  0  1  0  0  0  0  0999 V2000
   45.5630   34.4240   43.8140 C   0  0  0  0  0  0  0  0  0  0  0  0
   46.6270   34.1270   42.9360 C   0  0  0  0  0  0  0  0  0  0  0  0
   47.6160   33.2050   43.3320 C   0  0  0  0  0  0  0  0  0  0  0  0
   47.4810   32.6440   44.5690 N   0  0  0  0  0  0  0  0  0  0  0  0
   46.4670   32.9500   45.3660 C   0  0  0  0  0  0  0  0  0  0  0  0
   45.4920   33.8310   45.0230 N   0  0  0  0  0  0  0  0  0  0  0  0
   46.3440   32.3540   46.7170 C   0  0  0  0  0  0  0  0  0  0  0  0
   47.3620   31.5000   47.1580 C   0  0  0  0  0  0  0  0  0  0  0  0
   46.7520   31.0790   48.8750 S   0  0  0  0  0  0  0  0  0  0  0  0
   45.2310   32.1570   48.6280 C   0  0  0  0  0  0  0  0  0  0  0  0
   45.3920   32.5370   47.6060 N   0  0  0  0  0  0  0  0  0  0  0  0
   44.5370   35.3880   43.3880 C   0  0  1  0  0  0  0  0  0  0  0  0
   44.8330   36.7670   43.9590 C   0  0  0  0  0  0  0  0  0  0  0  0
   44.4360   35.4990   41.8980 C   0  0  0  0  0  0  0  0  0  0  0  0
   43.0710   35.3820   41.3860 C   0  0  0  0  0  0  0  0  0  0  0  0
   42.6590   35.1570   40.0840 C   0  0  0  0  0  0  0  0  0  0  0  0
   41.2720   35.1170   40.0400 C   0  0  0  0  0  0  0  0  0  0  0  0
   40.8980   35.3260   41.3640 C   0  0  0  0  0  0  0  0  0  0  0  0
   41.9610   35.4730   42.0930 O   0  0  0  0  0  0  0  0  0  0  0  0
   46.6838   34.6115   41.9501 H   0  0  0  0  0  0  0  0  0  0  0  0
   48.4592   32.9487   42.6737 H   0  0  0  0  0  0  0  0  0  0  0  0
   48.2719   31.1675   46.6370 H   0  0  0  0  0  0  0  0  0  0  0  0
   44.4000   32.3558   49.3207 H   0  0  0  0  0  0  0  0  0  0  0  0
   43.5780   35.0100   43.7719 H   0  0  0  0  0  0  0  0  0  0  0  0
   44.8227   36.7188   45.0579 H   0  0  0  0  0  0  0  0  0  0  0  0
   45.8233   37.1011   43.6159 H   0  0  0  0  0  0  0  0  0  0  0  0
   44.0670   37.4781   43.6159 H   0  0  0  0  0  0  0  0  0  0  0  0
   44.8365   36.4779   41.5957 H   0  0  0  0  0  0  0  0  0  0  0  0
   45.0083   34.6598   41.4759 H   0  0  0  0  0  0  0  0  0  0  0  0
   43.3265   35.0297   39.2190 H   0  0  0  0  0  0  0  0  0  0  0  0
   40.6229   34.9579   39.1663 H   0  0  0  0  0  0  0  0  0  0  0  0
   39.8629   35.3611   41.7345 H   0  0  0  0  0  0  0  0  0  0  0  0
  1  6  2  0
  2  3  2  0
  2  1  1  0
  3  4  1  0
  4  5  2  0
  5  7  1  0
  6  5  1  0
  7  8  2  0
  7 11  1  0
  8  9  1  0
 10  9  1  0
 11 10  2  0
 12  1  1  0
 12 13  1  0
 14 12  1  0
 15 14  1  0
 15 19  1  0
 16 15  2  0
 17 16  1  0
 17 18  2  0
 18 19  1  0
  2 20  1  0
  3 21  1  0
  8 22  1  0
 10 23  1  0
 12 24  1  1
 13 25  1  0
 13 26  1  0
 13 27  1  0
 14 28  1  0
 14 29  1  0
 16 30  1  0
 17 31  1  0
 18 32  1  0
M  ISO  8  20  14  21  14  22  14  23  14  24   8  25   8  26   8  27   8
M  ISO  5  28   8  29   8  30  14  31  14  32  14
M  END
>  <minimizedAffinity>  (1) 
-5.01267147

>  <minimizedRMSD>  (1) 
1.49179363

$$$$
