
     RDKit          3D

 32 34  0  0  1  0  0  0  0  0999 V2000
   44.4420   35.5850   43.3750 C   0  0  1  0  0  0  0  0  0  0  0  0
   45.4700   34.6020   43.7640 C   0  0  0  0  0  0  0  0  0  0  0  0
   46.4990   34.2940   42.8510 C   0  0  0  0  0  0  0  0  0  0  0  0
   47.4940   33.3550   43.2060 C   0  0  0  0  0  0  0  0  0  0  0  0
   47.3880   32.7930   44.4420 N   0  0  0  0  0  0  0  0  0  0  0  0
   46.4100   33.1000   45.2810 C   0  0  0  0  0  0  0  0  0  0  0  0
   45.4500   33.9980   44.9570 N   0  0  0  0  0  0  0  0  0  0  0  0
   46.3110   32.4860   46.6170 C   0  0  0  0  0  0  0  0  0  0  0  0
   47.3130   31.5850   47.0030 C   0  0  0  0  0  0  0  0  0  0  0  0
   46.7410   31.1130   48.7240 S   0  0  0  0  0  0  0  0  0  0  0  0
   45.2470   32.2450   48.5640 C   0  0  0  0  0  0  0  0  0  0  0  0
   45.3920   32.6630   47.5400 N   0  0  0  0  0  0  0  0  0  0  0  0
   44.8860   36.9870   43.7620 C   0  0  0  0  0  0  0  0  0  0  0  0
   44.1410   35.5400   41.9030 C   0  0  0  0  0  0  0  0  0  0  0  0
   42.8740   34.8630   41.6540 N   0  0  0  0  0  0  0  0  0  0  0  0
   42.6380   33.5950   41.3640 N   0  0  0  0  0  0  0  0  0  0  0  0
   41.3270   33.3610   41.2060 C   0  0  0  0  0  0  0  0  0  0  0  0
   40.6540   34.5510   41.4050 C   0  0  0  0  0  0  0  0  0  0  0  0
   41.6620   35.4430   41.6780 C   0  0  0  0  0  0  0  0  0  0  0  0
   43.5199   35.3216   43.9138 H   0  0  0  0  0  0  0  0  0  0  0  0
   46.5275   34.7827   41.8659 H   0  0  0  0  0  0  0  0  0  0  0  0
   48.3119   33.0917   42.5193 H   0  0  0  0  0  0  0  0  0  0  0  0
   48.1982   31.2458   46.4450 H   0  0  0  0  0  0  0  0  0  0  0  0
   44.4432   32.4425   49.2885 H   0  0  0  0  0  0  0  0  0  0  0  0
   44.9134   37.0734   44.8583 H   0  0  0  0  0  0  0  0  0  0  0  0
   45.8891   37.1797   43.3538 H   0  0  0  0  0  0  0  0  0  0  0  0
   44.1767   37.7220   43.3538 H   0  0  0  0  0  0  0  0  0  0  0  0
   44.0830   36.5677   41.5152 H   0  0  0  0  0  0  0  0  0  0  0  0
   44.9434   34.9841   41.3959 H   0  0  0  0  0  0  0  0  0  0  0  0
   40.8681   32.3918   40.9610 H   0  0  0  0  0  0  0  0  0  0  0  0
   39.5713   34.7389   41.3565 H   0  0  0  0  0  0  0  0  0  0  0  0
   41.4964   36.5093   41.8917 H   0  0  0  0  0  0  0  0  0  0  0  0
  1 13  1  0
  1  2  1  0
  2  7  2  0
  3  4  2  0
  3  2  1  0
  4  5  1  0
  5  6  2  0
  6  8  1  0
  7  6  1  0
  8  9  2  0
  8 12  1  0
  9 10  1  0
 11 10  1  0
 12 11  2  0
 14  1  1  0
 15 19  1  0
 15 14  1  0
 16 15  1  0
 17 16  2  0
 17 18  1  0
 18 19  2  0
  1 20  1  1
  3 21  1  0
  4 22  1  0
  9 23  1  0
 11 24  1  0
 13 25  1  0
 13 26  1  0
 13 27  1  0
 14 28  1  0
 14 29  1  0
 17 30  1  0
 18 31  1  0
 19 32  1  0
M  ISO  8  20   8  21  14  22  14  23  14  24  14  25   8  26   8  27   8
M  ISO  5  28   8  29   8  30  14  31  14  32  14
M  END
>  <minimizedAffinity>  (1) 
-4.84823322

>  <minimizedRMSD>  (1) 
1.66580379

$$$$
