
     RDKit          3D

 38 40  0  0  1  0  0  0  0  0999 V2000
   45.4390   34.1930   43.5480 C   0  0  0  0  0  0  0  0  0  0  0  0
   46.5170   33.9130   42.6890 C   0  0  0  0  0  0  0  0  0  0  0  0
   47.5760   33.1080   43.1550 C   0  0  0  0  0  0  0  0  0  0  0  0
   47.4830   32.6450   44.4320 N   0  0  0  0  0  0  0  0  0  0  0  0
   46.4510   32.9290   45.2140 C   0  0  0  0  0  0  0  0  0  0  0  0
   45.4230   33.6970   44.7970 N   0  0  0  0  0  0  0  0  0  0  0  0
   46.3610   32.4090   46.5990 C   0  0  0  0  0  0  0  0  0  0  0  0
   47.3240   31.4710   47.0050 C   0  0  0  0  0  0  0  0  0  0  0  0
   46.7740   31.1280   48.7650 S   0  0  0  0  0  0  0  0  0  0  0  0
   45.3400   32.3450   48.5680 C   0  0  0  0  0  0  0  0  0  0  0  0
   45.4710   32.7020   47.5260 N   0  0  0  0  0  0  0  0  0  0  0  0
   44.3230   35.0400   43.0560 C   0  0  1  0  0  0  0  0  0  0  0  0
   44.8260   36.4170   42.7270 C   0  0  0  0  0  0  0  0  0  0  0  0
   43.6570   34.4390   41.8380 C   0  0  0  0  0  0  0  0  0  0  0  0
   42.7350   35.4820   41.2060 C   0  0  0  0  0  0  0  0  0  0  0  0
   42.5670   35.0880   39.7600 C   0  0  0  0  0  0  0  0  0  0  0  0
   41.1720   35.5930   39.4530 C   0  0  0  0  0  0  0  0  0  0  0  0
   40.4130   35.0760   40.6800 C   0  0  0  0  0  0  0  0  0  0  0  0
   41.3610   35.3870   41.8210 C   0  0  0  0  0  0  0  0  0  0  0  0
   46.5334   34.3173   41.6661 H   0  0  0  0  0  0  0  0  0  0  0  0
   48.4380   32.8650   42.5163 H   0  0  0  0  0  0  0  0  0  0  0  0
   48.1713   31.0512   46.4431 H   0  0  0  0  0  0  0  0  0  0  0  0
   44.5704   32.6275   49.3014 H   0  0  0  0  0  0  0  0  0  0  0  0
   43.5739   35.0994   43.8593 H   0  0  0  0  0  0  0  0  0  0  0  0
   45.0267   36.9664   43.6586 H   0  0  0  0  0  0  0  0  0  0  0  0
   45.7534   36.3382   42.1407 H   0  0  0  0  0  0  0  0  0  0  0  0
   44.0662   36.9546   42.1407 H   0  0  0  0  0  0  0  0  0  0  0  0
   44.4244   34.1365   41.1102 H   0  0  0  0  0  0  0  0  0  0  0  0
   43.0705   33.5567   42.1339 H   0  0  0  0  0  0  0  0  0  0  0  0
   43.1547   36.4894   41.3438 H   0  0  0  0  0  0  0  0  0  0  0  0
   43.3181   35.5779   39.1229 H   0  0  0  0  0  0  0  0  0  0  0  0
   42.6980   34.0113   39.5767 H   0  0  0  0  0  0  0  0  0  0  0  0
   41.1421   36.6908   39.3895 H   0  0  0  0  0  0  0  0  0  0  0  0
   40.7651   35.2587   38.4872 H   0  0  0  0  0  0  0  0  0  0  0  0
   39.4564   35.6045   40.8051 H   0  0  0  0  0  0  0  0  0  0  0  0
   40.1513   34.0098   40.6112 H   0  0  0  0  0  0  0  0  0  0  0  0
   41.3328   34.5830   42.5712 H   0  0  0  0  0  0  0  0  0  0  0  0
   41.0832   36.3204   42.3325 H   0  0  0  0  0  0  0  0  0  0  0  0
  1  6  2  0
  2  3  2  0
  2  1  1  0
  3  4  1  0
  4  5  2  0
  5  7  1  0
  6  5  1  0
  7  8  2  0
  7 11  1  0
  8  9  1  0
 10  9  1  0
 11 10  2  0
 12  1  1  0
 13 12  1  0
 14 12  1  0
 15 19  1  0
 15 14  1  0
 16 15  1  0
 17 16  1  0
 17 18  1  0
 18 19  1  0
  2 20  1  0
  3 21  1  0
  8 22  1  0
 10 23  1  0
 12 24  1  1
 13 25  1  0
 13 26  1  0
 13 27  1  0
 14 28  1  0
 14 29  1  0
 15 30  1  0
 16 31  1  0
 16 32  1  0
 17 33  1  0
 17 34  1  0
 18 35  1  0
 18 36  1  0
 19 37  1  0
 19 38  1  0
M  ISO  8  20  14  21  14  22  14  23  14  24   8  25   8  26   8  27   8
M  ISO  8  28   8  29   8  30  13  31  13  32  13  33  13  34  13  35  13
M  ISO  3  36  13  37  13  38  13
M  END
>  <minimizedAffinity>  (1) 
-4.9366188

>  <minimizedRMSD>  (1) 
0.827337861

$$$$
