
     RDKit          3D

 29 30  0  0  0  0  0  0  0  0999 V2000
   46.0190   34.6900   41.4640 C   0  0  0  0  0  0  0  0  0  0  0  0
   47.1890   35.2170   42.0220 C   0  0  0  0  0  0  0  0  0  0  0  0
   48.4190   34.8910   41.4130 C   0  0  0  0  0  0  0  0  0  0  0  0
   48.3920   34.0760   40.3110 N   0  0  0  0  0  0  0  0  0  0  0  0
   47.2230   33.5930   39.8140 C   0  0  0  0  0  0  0  0  0  0  0  0
   46.0710   33.9100   40.4000 N   0  0  0  0  0  0  0  0  0  0  0  0
   47.3540   32.7180   38.6080 C   0  0  0  0  0  0  0  0  0  0  0  0
   48.7410   32.2130   38.3830 C   0  0  0  0  0  0  0  0  0  0  0  0
   49.1510   32.6760   36.9860 C   0  0  0  0  0  0  0  0  0  0  0  0
   48.3510   33.9610   36.8660 C   0  0  0  0  0  0  0  0  0  0  0  0
   46.9890   33.5040   37.3460 C   0  0  0  0  0  0  0  0  0  0  0  0
   44.7610   35.0330   42.1010 C   0  0  0  0  0  0  0  0  0  0  0  0
   43.9370   35.7680   41.4670 O   0  0  0  0  0  0  0  0  0  0  0  0
   44.5020   34.5420   43.3950 O   0  0  0  0  0  0  0  0  0  0  0  0
   44.9490   35.2960   44.4900 C   0  0  0  0  0  0  0  0  0  0  0  0
   44.0130   35.3380   45.5170 F   0  0  0  0  0  0  0  0  0  0  0  0
   46.1250   34.7750   44.9830 F   0  0  0  0  0  0  0  0  0  0  0  0
   45.1500   36.5890   44.0400 F   0  0  0  0  0  0  0  0  0  0  0  0
   47.1508   35.8662   42.9092 H   0  0  0  0  0  0  0  0  0  0  0  0
   49.3691   35.2783   41.8096 H   0  0  0  0  0  0  0  0  0  0  0  0
   46.6806   31.8689   38.7965 H   0  0  0  0  0  0  0  0  0  0  0  0
   49.4242   32.6304   39.1373 H   0  0  0  0  0  0  0  0  0  0  0  0
   48.7833   31.1170   38.4668 H   0  0  0  0  0  0  0  0  0  0  0  0
   50.2328   32.8653   36.9235 H   0  0  0  0  0  0  0  0  0  0  0  0
   48.9582   31.9433   36.1885 H   0  0  0  0  0  0  0  0  0  0  0  0
   48.7608   34.7529   37.5101 H   0  0  0  0  0  0  0  0  0  0  0  0
   48.3507   34.4007   35.8577 H   0  0  0  0  0  0  0  0  0  0  0  0
   46.3383   34.3594   37.5802 H   0  0  0  0  0  0  0  0  0  0  0  0
   46.4258   32.9203   36.6030 H   0  0  0  0  0  0  0  0  0  0  0  0
  1  2  2  0
  1 12  1  0
  3  2  1  0
  4  3  2  0
  5  4  1  0
  5  6  2  0
  6  1  1  0
  7  5  1  0
  8  7  1  0
  9  8  1  0
 10  9  1  0
 10 11  1  0
 11  7  1  0
 12 14  1  0
 13 12  2  0
 14 15  1  0
 15 17  1  0
 15 16  1  0
 18 15  1  0
  2 19  1  0
  3 20  1  0
  7 21  1  0
  8 22  1  0
  8 23  1  0
  9 24  1  0
  9 25  1  0
 10 26  1  0
 10 27  1  0
 11 28  1  0
 11 29  1  0
M  ISO  8  19  14  20  14  21  13  22  13  23  13  24  13  25  13  26  13
M  ISO  3  27  13  28  13  29  13
M  END
>  <minimizedAffinity>  (1) 
-4.27881145

>  <minimizedRMSD>  (1) 
1.26053274

$$$$
