
     RDKit          3D

 40 42  0  0  1  0  0  0  0  0999 V2000
   44.3900   35.6810   43.5980 C   0  0  1  0  0  0  0  0  0  0  0  0
   45.4150   34.6780   43.9470 C   0  0  0  0  0  0  0  0  0  0  0  0
   46.4230   34.3770   43.0040 C   0  0  0  0  0  0  0  0  0  0  0  0
   47.4140   33.4280   43.3050 C   0  0  0  0  0  0  0  0  0  0  0  0
   47.3320   32.8440   44.5280 N   0  0  0  0  0  0  0  0  0  0  0  0
   46.3870   33.1360   45.3930 C   0  0  0  0  0  0  0  0  0  0  0  0
   45.4100   34.0540   45.1300 N   0  0  0  0  0  0  0  0  0  0  0  0
   46.2970   32.4940   46.7240 C   0  0  0  0  0  0  0  0  0  0  0  0
   47.3430   31.6090   47.0880 C   0  0  0  0  0  0  0  0  0  0  0  0
   46.7580   31.0790   48.7750 S   0  0  0  0  0  0  0  0  0  0  0  0
   45.2300   32.1550   48.6490 C   0  0  0  0  0  0  0  0  0  0  0  0
   45.3700   32.6060   47.6440 N   0  0  0  0  0  0  0  0  0  0  0  0
   45.0630   37.0270   43.3490 C   0  0  0  0  0  0  0  0  0  0  0  0
   43.6080   35.3040   42.3860 C   0  0  0  0  0  0  0  0  0  0  0  0
   42.1880   35.4260   42.5720 N   0  0  0  0  0  0  0  0  0  0  0  0
   41.3040   35.5020   41.1010 S   0  0  0  0  0  0  0  0  0  0  0  0
   42.3220   35.3530   39.9810 O   0  0  0  0  0  0  0  0  0  0  0  0
   40.5440   36.7620   40.9430 O   0  0  0  0  0  0  0  0  0  0  0  0
   40.2050   34.1510   40.9550 C   0  0  0  0  0  0  0  0  0  0  0  0
   39.1610   34.2790   40.0490 C   0  0  0  0  0  0  0  0  0  0  0  0
   38.2570   33.2700   39.8730 C   0  0  0  0  0  0  0  0  0  0  0  0
   38.4010   32.1250   40.6110 C   0  0  0  0  0  0  0  0  0  0  0  0
   39.4310   31.9730   41.5190 C   0  0  0  0  0  0  0  0  0  0  0  0
   40.3660   32.9950   41.7120 C   0  0  0  0  0  0  0  0  0  0  0  0
   43.6903   35.7383   44.4449 H   0  0  0  0  0  0  0  0  0  0  0  0
   46.4319   34.8879   42.0299 H   0  0  0  0  0  0  0  0  0  0  0  0
   48.2107   33.1727   42.5909 H   0  0  0  0  0  0  0  0  0  0  0  0
   48.2457   31.3175   46.5311 H   0  0  0  0  0  0  0  0  0  0  0  0
   44.4153   32.3006   49.3737 H   0  0  0  0  0  0  0  0  0  0  0  0
   45.3005   37.5020   44.3123 H   0  0  0  0  0  0  0  0  0  0  0  0
   45.9902   36.8732   42.7776 H   0  0  0  0  0  0  0  0  0  0  0  0
   44.3836   37.6765   42.7776 H   0  0  0  0  0  0  0  0  0  0  0  0
   43.8394   34.2593   42.1308 H   0  0  0  0  0  0  0  0  0  0  0  0
   43.8946   35.9971   41.5814 H   0  0  0  0  0  0  0  0  0  0  0  0
   41.8588   34.6102   43.1077 H   0  0  0  0  0  0  0  0  0  0  0  0
   39.0603   35.2056   39.4648 H   0  0  0  0  0  0  0  0  0  0  0  0
   37.4311   33.3748   39.1540 H   0  0  0  0  0  0  0  0  0  0  0  0
   37.6786   31.3063   40.4773 H   0  0  0  0  0  0  0  0  0  0  0  0
   39.5165   31.0399   42.0953 H   0  0  0  0  0  0  0  0  0  0  0  0
   41.1921   32.8894   42.4306 H   0  0  0  0  0  0  0  0  0  0  0  0
  1  2  1  0
  2  7  2  0
  3  4  2  0
  3  2  1  0
  4  5  1  0
  5  6  2  0
  6  8  1  0
  7  6  1  0
  8  9  2  0
  8 12  1  0
  9 10  1  0
 11 10  1  0
 12 11  2  0
 13  1  1  0
 14 15  1  0
 14  1  1  0
 16 15  1  0
 17 16  2  0
 18 16  2  0
 19 16  1  0
 19 24  1  0
 20 19  2  0
 21 20  1  0
 21 22  2  0
 22 23  1  0
 23 24  2  0
  1 25  1  1
  3 26  1  0
  4 27  1  0
  9 28  1  0
 11 29  1  0
 13 30  1  0
 13 31  1  0
 13 32  1  0
 14 33  1  0
 14 34  1  0
 15 35  1  0
 20 36  1  0
 21 37  1  0
 22 38  1  0
 23 39  1  0
 24 40  1  0
M  ISO  8  25   8  26  14  27  14  28  14  29  14  30   8  31   8  32   8
M  ISO  8  33   8  34   8  35   5  36  14  37  14  38  14  39  14  40  14
M  END
>  <minimizedAffinity>  (1) 
-6.4464016

>  <minimizedRMSD>  (1) 
1.73814678

$$$$
