
     RDKit          3D

 22 23  0  0  0  0  0  0  0  0999 V2000
   45.8130   34.4350   41.1040 C   0  0  0  0  0  0  0  0  0  0  0  0
   47.0890   34.8060   41.5480 C   0  0  0  0  0  0  0  0  0  0  0  0
   48.2090   34.4080   40.7880 C   0  0  0  0  0  0  0  0  0  0  0  0
   47.9780   33.6820   39.6610 N   0  0  0  0  0  0  0  0  0  0  0  0
   46.7220   33.3440   39.2680 C   0  0  0  0  0  0  0  0  0  0  0  0
   45.6840   33.7260   39.9930 N   0  0  0  0  0  0  0  0  0  0  0  0
   46.4780   32.5840   38.0880 N   0  0  0  0  0  0  0  0  0  0  0  0
   46.6950   31.3420   37.6080 C   0  0  0  0  0  0  0  0  0  0  0  0
   46.1880   31.2750   36.3630 N   0  0  0  0  0  0  0  0  0  0  0  0
   45.6530   32.4730   36.0620 C   0  0  0  0  0  0  0  0  0  0  0  0
   45.8370   33.2740   37.1330 N   0  0  0  0  0  0  0  0  0  0  0  0
   44.6730   34.8530   41.8990 C   0  0  0  0  0  0  0  0  0  0  0  0
   43.8190   35.6400   41.3750 O   0  0  0  0  0  0  0  0  0  0  0  0
   44.5630   34.3680   43.2140 O   0  0  0  0  0  0  0  0  0  0  0  0
   45.0600   35.1650   44.2610 C   0  0  0  0  0  0  0  0  0  0  0  0
   44.1290   35.3210   45.2850 F   0  0  0  0  0  0  0  0  0  0  0  0
   46.1960   34.6060   44.7920 F   0  0  0  0  0  0  0  0  0  0  0  0
   45.3190   36.4160   43.7200 F   0  0  0  0  0  0  0  0  0  0  0  0
   47.2148   35.3946   42.4688 H   0  0  0  0  0  0  0  0  0  0  0  0
   49.2310   34.6748   41.0953 H   0  0  0  0  0  0  0  0  0  0  0  0
   47.1999   30.5240   38.1427 H   0  0  0  0  0  0  0  0  0  0  0  0
   45.1580   32.7481   35.1189 H   0  0  0  0  0  0  0  0  0  0  0  0
  1  2  2  0
  1 12  1  0
  3  2  1  0
  4  3  2  0
  5  4  1  0
  5  6  2  0
  6  1  1  0
  7  5  1  0
  8  7  1  0
  9  8  2  0
 10  9  1  0
 10 11  2  0
 11  7  1  0
 12 14  1  0
 13 12  2  0
 14 15  1  0
 15 17  1  0
 15 16  1  0
 18 15  1  0
  2 19  1  0
  3 20  1  0
  8 21  1  0
 10 22  1  0
M  ISO  4  19  14  20  14  21  14  22  14
M  END
>  <minimizedAffinity>  (1) 
-4.26775694

>  <minimizedRMSD>  (1) 
0.516820371

$$$$
