
     RDKit          3D

 23 24  0  0  0  0  0  0  0  0999 V2000
   45.8300   34.4590   41.1740 C   0  0  0  0  0  0  0  0  0  0  0  0
   47.1070   34.8180   41.6100 C   0  0  0  0  0  0  0  0  0  0  0  0
   48.1980   34.4450   40.8020 C   0  0  0  0  0  0  0  0  0  0  0  0
   47.9540   33.7570   39.6450 N   0  0  0  0  0  0  0  0  0  0  0  0
   46.7030   33.4410   39.2800 C   0  0  0  0  0  0  0  0  0  0  0  0
   45.6590   33.7860   40.0320 N   0  0  0  0  0  0  0  0  0  0  0  0
   46.3730   32.7290   38.0940 N   0  0  0  0  0  0  0  0  0  0  0  0
   45.9390   33.2210   36.9460 N   0  0  0  0  0  0  0  0  0  0  0  0
   45.7370   32.2160   36.0500 C   0  0  0  0  0  0  0  0  0  0  0  0
   46.0760   31.0560   36.7190 C   0  0  0  0  0  0  0  0  0  0  0  0
   46.4790   31.3860   38.0170 C   0  0  0  0  0  0  0  0  0  0  0  0
   44.6950   34.8400   41.9980 C   0  0  0  0  0  0  0  0  0  0  0  0
   43.8310   35.6430   41.5220 O   0  0  0  0  0  0  0  0  0  0  0  0
   44.5950   34.3080   43.2840 O   0  0  0  0  0  0  0  0  0  0  0  0
   45.1210   35.0400   44.3620 C   0  0  0  0  0  0  0  0  0  0  0  0
   44.2380   35.1150   45.4330 F   0  0  0  0  0  0  0  0  0  0  0  0
   46.2880   34.4740   44.8020 F   0  0  0  0  0  0  0  0  0  0  0  0
   45.3450   36.3320   43.8830 F   0  0  0  0  0  0  0  0  0  0  0  0
   47.2550   35.3713   42.5491 H   0  0  0  0  0  0  0  0  0  0  0  0
   49.2266   34.7018   41.0953 H   0  0  0  0  0  0  0  0  0  0  0  0
   45.3798   32.3082   35.0137 H   0  0  0  0  0  0  0  0  0  0  0  0
   46.0356   30.0398   36.2998 H   0  0  0  0  0  0  0  0  0  0  0  0
   46.8117   30.6970   38.8073 H   0  0  0  0  0  0  0  0  0  0  0  0
  1  2  2  0
  1 12  1  0
  3  2  1  0
  4  3  2  0
  5  4  1  0
  5  6  2  0
  6  1  1  0
  7  5  1  0
  8  7  1  0
  9 10  1  0
  9  8  2  0
 10 11  2  0
 11  7  1  0
 12 14  1  0
 13 12  2  0
 14 15  1  0
 15 17  1  0
 15 16  1  0
 18 15  1  0
  2 19  1  0
  3 20  1  0
  9 21  1  0
 10 22  1  0
 11 23  1  0
M  ISO  5  19  14  20  14  21  14  22  14  23  14
M  END
>  <minimizedAffinity>  (1) 
-4.20194244

>  <minimizedRMSD>  (1) 
0.59631753

$$$$
