
     RDKit          3D

 26 27  0  0  0  0  0  0  0  0999 V2000
   43.7370   33.7710   41.4580 C   0  0  0  0  0  0  0  0  0  0  0  0
   44.6110   32.9840   40.7810 C   0  0  0  0  0  0  0  0  0  0  0  0
   45.7970   32.5150   42.0760 S   0  0  0  0  0  0  0  0  0  0  0  0
   44.8460   33.5210   43.3630 C   0  0  0  0  0  0  0  0  0  0  0  0
   43.9730   33.9490   42.7160 N   0  0  0  0  0  0  0  0  0  0  0  0
   45.3730   33.5230   44.7120 N   0  0  0  0  0  0  0  0  0  0  0  0
   46.7220   33.3520   45.0130 C   0  0  0  0  0  0  0  0  0  0  0  0
   47.5560   33.6680   44.0830 N   0  0  0  0  0  0  0  0  0  0  0  0
   47.0110   32.8470   46.3190 N   0  0  0  0  0  0  0  0  0  0  0  0
   48.5730   33.5640   44.3150 H   0  0  0  0  0  0  0  0  0  0  0  0
   40.2450   35.0210   40.5910 C   0  0  0  0  0  0  0  0  0  0  0  0
   41.3020   34.4300   41.3120 C   0  0  0  0  0  0  0  0  0  0  0  0
   42.5830   34.3770   40.7560 C   0  0  0  0  0  0  0  0  0  0  0  0
   42.6810   34.9250   39.5240 N   0  0  0  0  0  0  0  0  0  0  0  0
   41.6910   35.4860   38.8300 C   0  0  0  0  0  0  0  0  0  0  0  0
   40.4820   35.5280   39.3720 N   0  0  0  0  0  0  0  0  0  0  0  0
   41.9160   36.0450   37.5050 C   0  0  0  0  0  0  0  0  0  0  0  0
   41.0170   36.6290   36.8700 O   0  0  0  0  0  0  0  0  0  0  0  0
   43.1540   35.9540   36.8800 O   0  0  0  0  0  0  0  0  0  0  0  0
   44.6036   32.7015   39.7179 H   0  0  0  0  0  0  0  0  0  0  0  0
   44.7138   33.6583   45.4918 H   0  0  0  0  0  0  0  0  0  0  0  0
   47.9880   32.6963   46.6083 H   0  0  0  0  0  0  0  0  0  0  0  0
   46.2422   32.6339   46.9705 H   0  0  0  0  0  0  0  0  0  0  0  0
   39.2348   35.0661   41.0240 H   0  0  0  0  0  0  0  0  0  0  0  0
   41.1187   34.0105   42.3122 H   0  0  0  0  0  0  0  0  0  0  0  0
   43.2830   36.3419   35.9784 H   0  0  0  0  0  0  0  0  0  0  0  0
  1  5  1  0
  2  1  2  0
  2  3  1  0
  3  4  1  0
  4  6  1  0
  5  4  2  0
  6  7  1  0
  7  9  1  0
  8 10  1  0
  8  7  2  0
 11 12  2  0
 13 12  1  0
 13  1  1  0
 14 13  2  0
 15 16  2  0
 15 14  1  0
 16 11  1  0
 17 15  1  0
 18 17  2  0
 19 17  1  0
  2 20  1  0
  6 21  1  0
  9 22  1  0
  9 23  1  0
 11 24  1  0
 12 25  1  0
 19 26  1  0
M  ISO  4  20  14  24  14  25  14  26   3
M  END
>  <minimizedAffinity>  (1) 
-5.28568029

>  <minimizedRMSD>  (1) 
0.696237266

$$$$
