
     RDKit          3D

 39 41  0  0  1  0  0  0  0  0999 V2000
   43.4210   33.6350   41.3030 C   0  0  1  0  0  0  0  0  0  0  0  0
   41.9590   33.6560   41.1610 C   0  0  0  0  0  0  0  0  0  0  0  0
   41.3230   34.8880   40.7890 C   0  0  0  0  0  0  0  0  0  0  0  0
   39.9280   34.9420   40.6420 C   0  0  0  0  0  0  0  0  0  0  0  0
   39.2470   33.7970   40.8680 N   0  0  0  0  0  0  0  0  0  0  0  0
   39.8530   32.6680   41.2120 C   0  0  0  0  0  0  0  0  0  0  0  0
   41.2030   32.5720   41.3650 N   0  0  0  0  0  0  0  0  0  0  0  0
   39.0790   31.4350   41.4470 C   0  0  0  0  0  0  0  0  0  0  0  0
   39.7460   30.3450   42.0350 C   0  0  0  0  0  0  0  0  0  0  0  0
   38.3470   29.0940   42.1020 S   0  0  0  0  0  0  0  0  0  0  0  0
   37.1500   30.3120   41.3190 C   0  0  0  0  0  0  0  0  0  0  0  0
   37.8220   31.1940   41.1830 N   0  0  0  0  0  0  0  0  0  0  0  0
   44.0670   33.7390   39.9400 C   0  0  0  0  0  0  0  0  0  0  0  0
   43.9190   34.7110   42.1920 C   0  0  0  0  0  0  0  0  0  0  0  0
   45.0830   34.4170   42.9350 N   0  0  0  0  0  0  0  0  0  0  0  0
   45.3900   33.5630   44.0380 C   0  0  0  0  0  0  0  0  0  0  0  0
   45.7950   32.2720   43.8000 C   0  0  0  0  0  0  0  0  0  0  0  0
   46.1020   31.4030   44.8270 C   0  0  0  0  0  0  0  0  0  0  0  0
   45.9860   31.8790   46.0660 N   0  0  0  0  0  0  0  0  0  0  0  0
   45.5840   33.1590   46.3010 C   0  0  0  0  0  0  0  0  0  0  0  0
   45.2840   34.0110   45.3090 N   0  0  0  0  0  0  0  0  0  0  0  0
   45.5250   33.4680   47.6480 O   0  0  0  0  0  0  0  0  0  0  0  0
   46.2930   35.0570   42.6150 C   0  0  0  0  0  0  0  0  0  0  0  0
   47.2870   34.7130   43.4830 F   0  0  0  0  0  0  0  0  0  0  0  0
   46.0250   36.4380   42.8730 F   0  0  0  0  0  0  0  0  0  0  0  0
   46.6990   34.9260   41.3150 F   0  0  0  0  0  0  0  0  0  0  0  0
   43.6949   32.6792   41.7735 H   0  0  0  0  0  0  0  0  0  0  0  0
   41.9290   35.7901   40.6191 H   0  0  0  0  0  0  0  0  0  0  0  0
   39.4140   35.8717   40.3566 H   0  0  0  0  0  0  0  0  0  0  0  0
   40.7918   30.2517   42.3630 H   0  0  0  0  0  0  0  0  0  0  0  0
   36.0865   30.1908   41.0657 H   0  0  0  0  0  0  0  0  0  0  0  0
   45.1467   33.9128   40.0583 H   0  0  0  0  0  0  0  0  0  0  0  0
   43.9049   32.8032   39.3850 H   0  0  0  0  0  0  0  0  0  0  0  0
   43.6194   34.5766   39.3850 H   0  0  0  0  0  0  0  0  0  0  0  0
   44.1330   35.5905   41.5670 H   0  0  0  0  0  0  0  0  0  0  0  0
   43.1256   34.8676   42.9376 H   0  0  0  0  0  0  0  0  0  0  0  0
   45.8769   31.9209   42.7608 H   0  0  0  0  0  0  0  0  0  0  0  0
   46.4260   30.3699   44.6327 H   0  0  0  0  0  0  0  0  0  0  0  0
   45.2445   34.3725   47.9365 H   0  0  0  0  0  0  0  0  0  0  0  0
  1 14  1  0
  2  1  1  0
  2  7  1  0
  3  2  2  0
  4  3  1  0
  4  5  2  0
  5  6  1  0
  6  7  2  0
  6  8  1  0
  8  9  2  0
  9 10  1  0
 11 10  1  0
 12 11  2  0
 12  8  1  0
 13  1  1  0
 14 15  1  0
 15 16  1  0
 16 21  1  0
 17 16  2  0
 17 18  1  0
 18 19  2  0
 19 20  1  0
 20 22  1  0
 21 20  2  0
 23 25  1  0
 23 15  1  0
 23 24  1  0
 26 23  1  0
  1 27  1  1
  3 28  1  0
  4 29  1  0
  9 30  1  0
 11 31  1  0
 13 32  1  0
 13 33  1  0
 13 34  1  0
 14 35  1  0
 14 36  1  0
 17 37  1  0
 18 38  1  0
 22 39  1  0
M  ISO  8  27   8  28  14  29  14  30  14  31  14  32   8  33   8  34   8
M  ISO  5  35   8  36   8  37  14  38  14  39   3
M  END
>  <minimizedAffinity>  (1) 
-5.90078068

>  <minimizedRMSD>  (1) 
0.107946299

$$$$
