
     RDKit          3D

 44 46  0  0  1  0  0  0  0  0999 V2000
   43.4620   33.5650   41.2850 C   0  0  1  0  0  0  0  0  0  0  0  0
   42.0010   33.6120   41.1740 C   0  0  0  0  0  0  0  0  0  0  0  0
   41.3760   34.8590   40.8420 C   0  0  0  0  0  0  0  0  0  0  0  0
   39.9810   34.9410   40.7250 C   0  0  0  0  0  0  0  0  0  0  0  0
   39.2890   33.8010   40.9380 N   0  0  0  0  0  0  0  0  0  0  0  0
   39.8820   32.6400   41.2470 C   0  0  0  0  0  0  0  0  0  0  0  0
   41.2310   32.5360   41.3670 N   0  0  0  0  0  0  0  0  0  0  0  0
   39.0990   31.4200   41.4680 C   0  0  0  0  0  0  0  0  0  0  0  0
   39.7470   30.3290   42.0480 C   0  0  0  0  0  0  0  0  0  0  0  0
   38.3330   29.0950   42.0930 S   0  0  0  0  0  0  0  0  0  0  0  0
   37.1510   30.3370   41.3050 C   0  0  0  0  0  0  0  0  0  0  0  0
   37.8450   31.1810   41.1970 N   0  0  0  0  0  0  0  0  0  0  0  0
   44.0870   33.7580   39.9200 C   0  0  0  0  0  0  0  0  0  0  0  0
   43.9960   34.5710   42.2330 C   0  0  0  0  0  0  0  0  0  0  0  0
   45.1880   34.2270   42.9070 N   0  0  0  0  0  0  0  0  0  0  0  0
   45.5530   33.2530   43.8850 C   0  0  0  0  0  0  0  0  0  0  0  0
   46.0150   32.0280   43.4760 C   0  0  0  0  0  0  0  0  0  0  0  0
   46.3860   31.0380   44.3570 C   0  0  0  0  0  0  0  0  0  0  0  0
   46.2690   31.3380   45.6550 N   0  0  0  0  0  0  0  0  0  0  0  0
   45.8120   32.5520   46.0640 C   0  0  0  0  0  0  0  0  0  0  0  0
   45.4490   33.5250   45.2050 N   0  0  0  0  0  0  0  0  0  0  0  0
   45.7090   32.8190   47.5220 C   0  0  0  0  0  0  0  0  0  0  0  0
   45.0200   31.6240   48.1880 C   0  0  0  0  0  0  0  0  0  0  0  0
   46.3670   34.9480   42.6420 C   0  0  0  0  0  0  0  0  0  0  0  0
   47.3580   34.6510   43.5330 F   0  0  0  0  0  0  0  0  0  0  0  0
   46.0050   36.3040   42.9090 F   0  0  0  0  0  0  0  0  0  0  0  0
   46.8230   34.8620   41.3560 F   0  0  0  0  0  0  0  0  0  0  0  0
   43.7259   32.5745   41.6840 H   0  0  0  0  0  0  0  0  0  0  0  0
   41.9931   35.7548   40.6785 H   0  0  0  0  0  0  0  0  0  0  0  0
   39.4763   35.8853   40.4727 H   0  0  0  0  0  0  0  0  0  0  0  0
   40.7892   30.2223   42.3833 H   0  0  0  0  0  0  0  0  0  0  0  0
   36.0886   30.2437   41.0355 H   0  0  0  0  0  0  0  0  0  0  0  0
   45.1320   34.0807   40.0375 H   0  0  0  0  0  0  0  0  0  0  0  0
   44.0566   32.8086   39.3652 H   0  0  0  0  0  0  0  0  0  0  0  0
   43.5266   34.5249   39.3652 H   0  0  0  0  0  0  0  0  0  0  0  0
   44.1857   35.4957   41.6682 H   0  0  0  0  0  0  0  0  0  0  0  0
   43.2325   34.6663   43.0192 H   0  0  0  0  0  0  0  0  0  0  0  0
   46.0923   31.8282   42.3971 H   0  0  0  0  0  0  0  0  0  0  0  0
   46.7559   30.0603   44.0147 H   0  0  0  0  0  0  0  0  0  0  0  0
   46.7150   32.9513   47.9469 H   0  0  0  0  0  0  0  0  0  0  0  0
   45.1261   33.7353   47.6969 H   0  0  0  0  0  0  0  0  0  0  0  0
   45.0803   31.7286   49.2814 H   0  0  0  0  0  0  0  0  0  0  0  0
   43.9644   31.5912   47.8805 H   0  0  0  0  0  0  0  0  0  0  0  0
   45.5205   30.6940   47.8805 H   0  0  0  0  0  0  0  0  0  0  0  0
  1 14  1  0
  2  1  1  0
  2  7  1  0
  3  2  2  0
  4  3  1  0
  4  5  2  0
  5  6  1  0
  6  7  2  0
  6  8  1  0
  8  9  2  0
  9 10  1  0
 11 10  1  0
 12 11  2  0
 12  8  1  0
 13  1  1  0
 14 15  1  0
 15 16  1  0
 16 21  1  0
 17 16  2  0
 17 18  1  0
 18 19  2  0
 19 20  1  0
 20 22  1  0
 21 20  2  0
 22 23  1  0
 24 15  1  0
 24 26  1  0
 24 25  1  0
 27 24  1  0
  1 28  1  1
  3 29  1  0
  4 30  1  0
  9 31  1  0
 11 32  1  0
 13 33  1  0
 13 34  1  0
 13 35  1  0
 14 36  1  0
 14 37  1  0
 17 38  1  0
 18 39  1  0
 22 40  1  0
 22 41  1  0
 23 42  1  0
 23 43  1  0
 23 44  1  0
M  ISO  8  28   8  29  14  30  14  31  14  32  14  33   8  34   8  35   8
M  ISO  8  36   8  37   8  38  14  39  14  40   8  41   8  42   8  43   8
M  ISO  1  44   8
M  END
>  <minimizedAffinity>  (1) 
-5.5927434

>  <minimizedRMSD>  (1) 
0.52498138

$$$$
