
     RDKit          3D

 41 43  0  0  1  0  0  0  0  0999 V2000
   43.4860   33.5500   41.2740 C   0  0  1  0  0  0  0  0  0  0  0  0
   42.0210   33.6030   41.1710 C   0  0  0  0  0  0  0  0  0  0  0  0
   41.4010   34.8600   40.8500 C   0  0  0  0  0  0  0  0  0  0  0  0
   40.0050   34.9440   40.7410 C   0  0  0  0  0  0  0  0  0  0  0  0
   39.3080   33.8070   40.9520 N   0  0  0  0  0  0  0  0  0  0  0  0
   39.9000   32.6550   41.2490 C   0  0  0  0  0  0  0  0  0  0  0  0
   41.2480   32.5290   41.3640 N   0  0  0  0  0  0  0  0  0  0  0  0
   39.1180   31.4190   41.4740 C   0  0  0  0  0  0  0  0  0  0  0  0
   39.7540   30.3270   42.0530 C   0  0  0  0  0  0  0  0  0  0  0  0
   38.3460   29.0920   42.0980 S   0  0  0  0  0  0  0  0  0  0  0  0
   37.1680   30.3330   41.3100 C   0  0  0  0  0  0  0  0  0  0  0  0
   37.8490   31.2130   41.1850 N   0  0  0  0  0  0  0  0  0  0  0  0
   44.0980   33.7070   39.9050 C   0  0  0  0  0  0  0  0  0  0  0  0
   44.0290   34.5700   42.2000 C   0  0  0  0  0  0  0  0  0  0  0  0
   45.2400   34.2430   42.8500 N   0  0  0  0  0  0  0  0  0  0  0  0
   45.6410   33.2660   43.8120 C   0  0  0  0  0  0  0  0  0  0  0  0
   46.1950   32.0860   43.3780 C   0  0  0  0  0  0  0  0  0  0  0  0
   46.6010   31.1010   44.2560 C   0  0  0  0  0  0  0  0  0  0  0  0
   46.4250   31.3580   45.5540 N   0  0  0  0  0  0  0  0  0  0  0  0
   45.8790   32.5200   45.9800 C   0  0  0  0  0  0  0  0  0  0  0  0
   45.4780   33.4930   45.1350 N   0  0  0  0  0  0  0  0  0  0  0  0
   45.7310   32.6990   47.4640 C   0  0  0  0  0  0  0  0  0  0  0  0
   46.3970   34.9880   42.5720 C   0  0  0  0  0  0  0  0  0  0  0  0
   47.3980   34.7100   43.4590 F   0  0  0  0  0  0  0  0  0  0  0  0
   46.0100   36.3370   42.8420 F   0  0  0  0  0  0  0  0  0  0  0  0
   46.8480   34.9110   41.2830 F   0  0  0  0  0  0  0  0  0  0  0  0
   43.7517   32.5678   41.6919 H   0  0  0  0  0  0  0  0  0  0  0  0
   42.0206   35.7547   40.6901 H   0  0  0  0  0  0  0  0  0  0  0  0
   39.5021   35.8910   40.4953 H   0  0  0  0  0  0  0  0  0  0  0  0
   40.7951   30.2182   42.3910 H   0  0  0  0  0  0  0  0  0  0  0  0
   36.1058   30.2235   41.0459 H   0  0  0  0  0  0  0  0  0  0  0  0
   45.1589   33.9792   40.0067 H   0  0  0  0  0  0  0  0  0  0  0  0
   44.0140   32.7582   39.3548 H   0  0  0  0  0  0  0  0  0  0  0  0
   43.5676   34.4982   39.3548 H   0  0  0  0  0  0  0  0  0  0  0  0
   44.1964   35.4915   41.6230 H   0  0  0  0  0  0  0  0  0  0  0  0
   43.2820   34.6660   43.0018 H   0  0  0  0  0  0  0  0  0  0  0  0
   46.3189   31.9210   42.2975 H   0  0  0  0  0  0  0  0  0  0  0  0
   47.0446   30.1574   43.9056 H   0  0  0  0  0  0  0  0  0  0  0  0
   46.3478   31.9530   47.9866 H   0  0  0  0  0  0  0  0  0  0  0  0
   46.0606   33.7098   47.7461 H   0  0  0  0  0  0  0  0  0  0  0  0
   44.6762   32.5652   47.7461 H   0  0  0  0  0  0  0  0  0  0  0  0
  1 14  1  0
  2  1  1  0
  2  7  1  0
  3  2  2  0
  4  3  1  0
  4  5  2  0
  5  6  1  0
  6  7  2  0
  6  8  1  0
  8  9  2  0
  9 10  1  0
 11 10  1  0
 12 11  2  0
 12  8  1  0
 13  1  1  0
 14 15  1  0
 15 16  1  0
 16 21  1  0
 17 16  2  0
 17 18  1  0
 18 19  2  0
 19 20  1  0
 20 22  1  0
 21 20  2  0
 23 25  1  0
 23 15  1  0
 23 24  1  0
 26 23  1  0
  1 27  1  1
  3 28  1  0
  4 29  1  0
  9 30  1  0
 11 31  1  0
 13 32  1  0
 13 33  1  0
 13 34  1  0
 14 35  1  0
 14 36  1  0
 17 37  1  0
 18 38  1  0
 22 39  1  0
 22 40  1  0
 22 41  1  0
M  ISO  8  27   8  28  14  29  14  30  14  31  14  32   8  33   8  34   8
M  ISO  7  35   8  36   8  37  14  38  14  39   8  40   8  41   8
M  END
>  <minimizedAffinity>  (1) 
-5.48863602

>  <minimizedRMSD>  (1) 
0.484742045

$$$$
