
     RDKit          3D

 24 25  0  0  0  0  0  0  0  0999 V2000
   46.0000   34.4960   41.2180 C   0  0  0  0  0  0  0  0  0  0  0  0
   47.2400   34.8420   41.7700 C   0  0  0  0  0  0  0  0  0  0  0  0
   48.4050   34.5430   41.0370 C   0  0  0  0  0  0  0  0  0  0  0  0
   48.2420   33.9240   39.8160 N   0  0  0  0  0  0  0  0  0  0  0  0
   47.0300   33.6150   39.3370 C   0  0  0  0  0  0  0  0  0  0  0  0
   45.9410   33.9020   40.0360 N   0  0  0  0  0  0  0  0  0  0  0  0
   46.9370   32.9590   38.0340 C   0  0  0  0  0  0  0  0  0  0  0  0
   45.8150   33.1090   37.2400 C   0  0  0  0  0  0  0  0  0  0  0  0
   45.7910   32.4600   36.0160 C   0  0  0  0  0  0  0  0  0  0  0  0
   46.8270   31.7050   35.6080 N   0  0  0  0  0  0  0  0  0  0  0  0
   47.9220   31.5730   36.4070 C   0  0  0  0  0  0  0  0  0  0  0  0
   47.9820   32.1920   37.6100 N   0  0  0  0  0  0  0  0  0  0  0  0
   44.8090   34.8110   41.9860 C   0  0  0  0  0  0  0  0  0  0  0  0
   43.9170   35.5490   41.4600 O   0  0  0  0  0  0  0  0  0  0  0  0
   44.6910   34.2850   43.2840 O   0  0  0  0  0  0  0  0  0  0  0  0
   45.1180   35.0860   44.3600 C   0  0  0  0  0  0  0  0  0  0  0  0
   44.1630   35.1450   45.3730 F   0  0  0  0  0  0  0  0  0  0  0  0
   46.2740   34.5520   44.8960 F   0  0  0  0  0  0  0  0  0  0  0  0
   45.3370   36.3530   43.8680 F   0  0  0  0  0  0  0  0  0  0  0  0
   47.3024   35.3349   42.7514 H   0  0  0  0  0  0  0  0  0  0  0  0
   49.4042   34.7932   41.4231 H   0  0  0  0  0  0  0  0  0  0  0  0
   44.9661   33.7256   37.5704 H   0  0  0  0  0  0  0  0  0  0  0  0
   44.9093   32.5640   35.3665 H   0  0  0  0  0  0  0  0  0  0  0  0
   48.7683   30.9559   36.0710 H   0  0  0  0  0  0  0  0  0  0  0  0
  1  2  2  0
  1 13  1  0
  3  2  1  0
  4  3  2  0
  5  4  1  0
  5  6  2  0
  6  1  1  0
  7  5  1  0
  8  7  2  0
  9  8  1  0
 10  9  2  0
 10 11  1  0
 11 12  2  0
 12  7  1  0
 13 15  1  0
 14 13  2  0
 15 16  1  0
 16 18  1  0
 16 17  1  0
 19 16  1  0
  2 20  1  0
  3 21  1  0
  8 22  1  0
  9 23  1  0
 11 24  1  0
M  ISO  5  20  14  21  14  22  14  23  14  24  14
M  END
>  <minimizedAffinity>  (1) 
-4.18203449

>  <minimizedRMSD>  (1) 
1.000386

$$$$
