
     RDKit          3D

 40 42  0  0  1  0  0  0  0  0999 V2000
   43.4210   33.6200   41.2840 C   0  0  1  0  0  0  0  0  0  0  0  0
   41.9610   33.6460   41.1540 C   0  0  0  0  0  0  0  0  0  0  0  0
   41.3290   34.8800   40.7860 C   0  0  0  0  0  0  0  0  0  0  0  0
   39.9340   34.9480   40.6460 C   0  0  0  0  0  0  0  0  0  0  0  0
   39.2520   33.8030   40.8760 N   0  0  0  0  0  0  0  0  0  0  0  0
   39.8460   32.6740   41.2130 C   0  0  0  0  0  0  0  0  0  0  0  0
   41.1980   32.5730   41.3570 N   0  0  0  0  0  0  0  0  0  0  0  0
   39.0770   31.4270   41.4540 C   0  0  0  0  0  0  0  0  0  0  0  0
   39.7480   30.3380   42.0420 C   0  0  0  0  0  0  0  0  0  0  0  0
   38.3420   29.0950   42.1000 S   0  0  0  0  0  0  0  0  0  0  0  0
   37.1470   30.3160   41.3150 C   0  0  0  0  0  0  0  0  0  0  0  0
   37.8240   31.1850   41.1880 N   0  0  0  0  0  0  0  0  0  0  0  0
   44.0620   33.7520   39.9190 C   0  0  0  0  0  0  0  0  0  0  0  0
   43.9320   34.6740   42.1910 C   0  0  0  0  0  0  0  0  0  0  0  0
   45.1080   34.3690   42.9090 N   0  0  0  0  0  0  0  0  0  0  0  0
   45.4410   33.4760   43.9690 C   0  0  0  0  0  0  0  0  0  0  0  0
   45.8800   32.2110   43.6680 C   0  0  0  0  0  0  0  0  0  0  0  0
   46.2150   31.3030   44.6640 C   0  0  0  0  0  0  0  0  0  0  0  0
   46.0900   31.7210   45.9190 N   0  0  0  0  0  0  0  0  0  0  0  0
   45.6520   32.9820   46.2160 C   0  0  0  0  0  0  0  0  0  0  0  0
   45.3270   33.8630   45.2610 N   0  0  0  0  0  0  0  0  0  0  0  0
   45.5400   33.3660   47.5820 N   0  0  0  0  0  0  0  0  0  0  0  0
   46.3040   35.0450   42.6030 C   0  0  0  0  0  0  0  0  0  0  0  0
   47.3030   34.7200   43.4780 F   0  0  0  0  0  0  0  0  0  0  0  0
   45.9980   36.4150   42.8650 F   0  0  0  0  0  0  0  0  0  0  0  0
   46.7210   34.9330   41.3050 F   0  0  0  0  0  0  0  0  0  0  0  0
   43.6907   32.6523   41.7322 H   0  0  0  0  0  0  0  0  0  0  0  0
   41.9407   35.7776   40.6126 H   0  0  0  0  0  0  0  0  0  0  0  0
   39.4237   35.8810   40.3648 H   0  0  0  0  0  0  0  0  0  0  0  0
   40.7931   30.2429   42.3718 H   0  0  0  0  0  0  0  0  0  0  0  0
   36.0840   30.2015   41.0565 H   0  0  0  0  0  0  0  0  0  0  0  0
   45.1332   33.9726   40.0367 H   0  0  0  0  0  0  0  0  0  0  0  0
   43.9404   32.8100   39.3642 H   0  0  0  0  0  0  0  0  0  0  0  0
   43.5781   34.5694   39.3642 H   0  0  0  0  0  0  0  0  0  0  0  0
   44.1333   35.5689   41.5839 H   0  0  0  0  0  0  0  0  0  0  0  0
   43.1506   34.8067   42.9537 H   0  0  0  0  0  0  0  0  0  0  0  0
   45.9685   31.9094   42.6139 H   0  0  0  0  0  0  0  0  0  0  0  0
   46.5664   30.2882   44.4257 H   0  0  0  0  0  0  0  0  0  0  0  0
   45.2120   34.3114   47.8260 H   0  0  0  0  0  0  0  0  0  0  0  0
   45.7870   32.6985   48.3265 H   0  0  0  0  0  0  0  0  0  0  0  0
  1 14  1  0
  2  1  1  0
  2  7  1  0
  3  2  2  0
  4  3  1  0
  4  5  2  0
  5  6  1  0
  6  7  2  0
  6  8  1  0
  8  9  2  0
  9 10  1  0
 11 10  1  0
 12 11  2  0
 12  8  1  0
 13  1  1  0
 14 15  1  0
 15 16  1  0
 16 21  1  0
 17 16  2  0
 17 18  1  0
 18 19  2  0
 19 20  1  0
 20 22  1  0
 21 20  2  0
 23 25  1  0
 23 15  1  0
 23 24  1  0
 26 23  1  0
  1 27  1  1
  3 28  1  0
  4 29  1  0
  9 30  1  0
 11 31  1  0
 13 32  1  0
 13 33  1  0
 13 34  1  0
 14 35  1  0
 14 36  1  0
 17 37  1  0
 18 38  1  0
 22 39  1  0
 22 40  1  0
M  ISO  8  27   8  28  14  29  14  30  14  31  14  32   8  33   8  34   8
M  ISO  4  35   8  36   8  37  14  38  14
M  END
>  <minimizedAffinity>  (1) 
-5.82052612

>  <minimizedRMSD>  (1) 
0.206926271

$$$$
