
     RDKit          3D

 24 25  0  0  0  0  0  0  0  0999 V2000
   45.8350   34.4430   41.1590 C   0  0  0  0  0  0  0  0  0  0  0  0
   47.1090   34.8380   41.5820 C   0  0  0  0  0  0  0  0  0  0  0  0
   48.2140   34.4630   40.7930 C   0  0  0  0  0  0  0  0  0  0  0  0
   47.9830   33.7370   39.6640 N   0  0  0  0  0  0  0  0  0  0  0  0
   46.7310   33.3840   39.3040 C   0  0  0  0  0  0  0  0  0  0  0  0
   45.6810   33.7400   40.0520 N   0  0  0  0  0  0  0  0  0  0  0  0
   46.4850   32.6070   38.0930 C   0  0  0  0  0  0  0  0  0  0  0  0
   45.8140   33.1520   37.0060 C   0  0  0  0  0  0  0  0  0  0  0  0
   45.5530   32.4600   35.8340 C   0  0  0  0  0  0  0  0  0  0  0  0
   45.9730   31.1880   35.7410 N   0  0  0  0  0  0  0  0  0  0  0  0
   46.6240   30.6450   36.7860 C   0  0  0  0  0  0  0  0  0  0  0  0
   46.8850   31.3200   37.9450 N   0  0  0  0  0  0  0  0  0  0  0  0
   44.7040   34.8350   41.9790 C   0  0  0  0  0  0  0  0  0  0  0  0
   43.8520   35.6500   41.4960 O   0  0  0  0  0  0  0  0  0  0  0  0
   44.5860   34.3030   43.2780 O   0  0  0  0  0  0  0  0  0  0  0  0
   45.1250   35.0420   44.3430 C   0  0  0  0  0  0  0  0  0  0  0  0
   44.2510   35.1080   45.4280 F   0  0  0  0  0  0  0  0  0  0  0  0
   46.3060   34.4620   44.7760 F   0  0  0  0  0  0  0  0  0  0  0  0
   45.3520   36.3210   43.8790 F   0  0  0  0  0  0  0  0  0  0  0  0
   47.2436   35.4239   42.5032 H   0  0  0  0  0  0  0  0  0  0  0  0
   49.2364   34.7489   41.0810 H   0  0  0  0  0  0  0  0  0  0  0  0
   45.4695   34.1941   37.0796 H   0  0  0  0  0  0  0  0  0  0  0  0
   45.0162   32.9398   35.0023 H   0  0  0  0  0  0  0  0  0  0  0  0
   46.9642   29.6022   36.7028 H   0  0  0  0  0  0  0  0  0  0  0  0
  1  2  2  0
  1 13  1  0
  3  2  1  0
  4  3  2  0
  5  4  1  0
  5  6  2  0
  6  1  1  0
  7  5  1  0
  8  7  2  0
  9  8  1  0
 10  9  2  0
 10 11  1  0
 11 12  2  0
 12  7  1  0
 13 15  1  0
 14 13  2  0
 15 16  1  0
 16 18  1  0
 16 17  1  0
 19 16  1  0
  2 20  1  0
  3 21  1  0
  8 22  1  0
  9 23  1  0
 11 24  1  0
M  ISO  5  20  14  21  14  22  14  23  14  24  14
M  END
>  <minimizedAffinity>  (1) 
-4.17722082

>  <minimizedRMSD>  (1) 
0.586600959

$$$$
