
     RDKit          3D

 25 26  0  0  1  0  0  0  0  0999 V2000
   44.4790   35.9020   44.5300 C   0  0  0  0  0  0  0  0  0  0  0  0
   45.1060   35.8620   43.2840 C   0  0  0  0  0  0  0  0  0  0  0  0
   46.0870   34.8750   43.0760 C   0  0  0  0  0  0  0  0  0  0  0  0
   46.3710   34.0040   44.1120 N   0  0  0  0  0  0  0  0  0  0  0  0
   45.7170   34.1060   45.2970 C   0  0  0  0  0  0  0  0  0  0  0  0
   44.7910   35.0320   45.5060 N   0  0  0  0  0  0  0  0  0  0  0  0
   46.0200   33.1870   46.3820 C   0  0  0  0  0  0  0  0  0  0  0  0
   47.0050   32.3960   46.3730 O   0  0  0  0  0  0  0  0  0  0  0  0
   45.2360   33.1140   47.5250 O   0  0  0  0  0  0  0  0  0  0  0  0
   44.8150   30.8060   47.1670 N   0  0  0  0  0  0  0  0  0  0  0  0
   45.1880   29.6500   47.9610 C   0  0  0  0  0  0  0  0  0  0  0  0
   46.1460   30.2790   48.9760 C   0  0  0  0  0  0  0  0  0  0  0  0
   45.3850   31.5360   49.3680 C   0  0  0  0  0  0  0  0  0  0  0  0
   44.7280   31.9180   48.0690 C   0  0  1  0  0  0  0  0  0  0  0  0
   43.7096   36.6652   44.7184 H   0  0  0  0  0  0  0  0  0  0  0  0
   44.8423   36.5777   42.4914 H   0  0  0  0  0  0  0  0  0  0  0  0
   46.6146   34.7981   42.1139 H   0  0  0  0  0  0  0  0  0  0  0  0
   45.5297   30.9878   46.4479 H   0  0  0  0  0  0  0  0  0  0  0  0
   44.3136   29.2027   48.4563 H   0  0  0  0  0  0  0  0  0  0  0  0
   45.6264   28.8262   47.3786 H   0  0  0  0  0  0  0  0  0  0  0  0
   46.3055   29.6189   49.8414 H   0  0  0  0  0  0  0  0  0  0  0  0
   47.1559   30.4688   48.5834 H   0  0  0  0  0  0  0  0  0  0  0  0
   44.6380   31.3249   50.1474 H   0  0  0  0  0  0  0  0  0  0  0  0
   46.0207   32.3261   49.7941 H   0  0  0  0  0  0  0  0  0  0  0  0
   43.6672   32.1406   48.2568 H   0  0  0  0  0  0  0  0  0  0  0  0
  1  6  2  0
  2  1  1  0
  3  2  2  0
  3  4  1  0
  4  5  2  0
  5  6  1  0
  5  7  1  0
  7  9  1  0
  8  7  2  0
 10 11  1  0
 10 14  1  0
 11 12  1  0
 12 13  1  0
 14  9  1  0
 14 13  1  0
  1 15  1  0
  2 16  1  0
  3 17  1  0
 10 18  1  0
 11 19  1  0
 11 20  1  0
 12 21  1  0
 12 22  1  0
 13 23  1  0
 13 24  1  0
 14 25  1  1
M  ISO  8  15  14  16  14  17  14  18   5  19  13  20  13  21  13  22  13
M  ISO  3  23  13  24  13  25  13
M  END
>  <minimizedAffinity>  (1) 
-4.65467024

>  <minimizedRMSD>  (1) 
0.943016291

$$$$
