
     RDKit          3D

 33 35  0  0  1  0  0  0  0  0999 V2000
   45.3990   31.1700   47.1680 N   0  0  0  0  0  0  0  0  0  0  0  0
   44.6940   29.8870   47.1180 C   0  0  0  0  0  0  0  0  0  0  0  0
   45.3400   29.2210   45.9210 C   0  0  0  0  0  0  0  0  0  0  0  0
   46.8170   29.5490   46.0990 C   0  0  0  0  0  0  0  0  0  0  0  0
   46.7240   30.9310   46.7810 C   0  0  2  0  0  0  0  0  0  0  0  0
   47.7650   30.7380   47.8670 C   0  0  0  0  0  0  0  0  0  0  0  0
   48.0110   31.1260   49.1510 C   0  0  0  0  0  0  0  0  0  0  0  0
   49.1560   30.7210   49.7860 C   0  0  0  0  0  0  0  0  0  0  0  0
   50.0780   29.9430   49.2040 N   0  0  0  0  0  0  0  0  0  0  0  0
   49.8350   29.5540   47.9220 C   0  0  0  0  0  0  0  0  0  0  0  0
   48.7060   29.9430   47.2720 N   0  0  0  0  0  0  0  0  0  0  0  0
   47.2380   31.9900   46.0590 O   0  0  0  0  0  0  0  0  0  0  0  0
   46.7700   32.3980   44.7760 C   0  0  0  0  0  0  0  0  0  0  0  0
   47.0050   31.6720   43.8010 O   0  0  0  0  0  0  0  0  0  0  0  0
   44.6210   35.2060   45.6710 C   0  0  0  0  0  0  0  0  0  0  0  0
   44.5860   35.9830   44.5240 C   0  0  0  0  0  0  0  0  0  0  0  0
   45.3250   35.5510   43.4230 C   0  0  0  0  0  0  0  0  0  0  0  0
   46.0330   34.3820   43.5590 N   0  0  0  0  0  0  0  0  0  0  0  0
   46.0270   33.6600   44.7150 C   0  0  0  0  0  0  0  0  0  0  0  0
   45.3310   34.0670   45.7540 N   0  0  0  0  0  0  0  0  0  0  0  0
   44.9582   31.8401   46.5218 H   0  0  0  0  0  0  0  0  0  0  0  0
   44.8580   29.3045   48.0366 H   0  0  0  0  0  0  0  0  0  0  0  0
   43.6013   29.9836   47.0365 H   0  0  0  0  0  0  0  0  0  0  0  0
   44.9532   29.6391   44.9799 H   0  0  0  0  0  0  0  0  0  0  0  0
   45.1403   28.1406   45.8670 H   0  0  0  0  0  0  0  0  0  0  0  0
   47.3209   28.8127   46.7424 H   0  0  0  0  0  0  0  0  0  0  0  0
   47.4022   29.5383   45.1677 H   0  0  0  0  0  0  0  0  0  0  0  0
   47.2883   31.7659   49.6786 H   0  0  0  0  0  0  0  0  0  0  0  0
   49.3257   31.0502   50.8218 H   0  0  0  0  0  0  0  0  0  0  0  0
   50.5643   28.9143   47.4035 H   0  0  0  0  0  0  0  0  0  0  0  0
   44.0449   35.5341   46.5487 H   0  0  0  0  0  0  0  0  0  0  0  0
   43.9949   36.9098   44.4833 H   0  0  0  0  0  0  0  0  0  0  0  0
   45.3402   36.1233   42.4837 H   0  0  0  0  0  0  0  0  0  0  0  0
  2  1  1  0
  3  4  1  0
  3  2  1  0
  4  5  1  0
  5 12  1  6
  5  1  1  0
  5  6  1  0
  6  7  2  0
  7  8  1  0
  9  8  2  0
 10  9  1  0
 11  6  1  0
 11 10  2  0
 13 12  1  0
 14 13  2  0
 15 20  2  0
 16 15  1  0
 17 18  1  0
 17 16  2  0
 18 19  2  0
 19 13  1  0
 19 20  1  0
  1 21  1  0
  2 22  1  0
  2 23  1  0
  3 24  1  0
  3 25  1  0
  4 26  1  0
  4 27  1  0
  7 28  1  0
  8 29  1  0
 10 30  1  0
 15 31  1  0
 16 32  1  0
 17 33  1  0
M  ISO  8  21   5  22  13  23  13  24  13  25  13  26  13  27  13  28  14
M  ISO  5  29  14  30  14  31  14  32  14  33  14
M  END
>  <minimizedAffinity>  (1) 
-4.75479507

>  <minimizedRMSD>  (1) 
4.38715553

$$$$
