
     RDKit          3D

 28 29  0  0  1  0  0  0  0  0999 V2000
   45.0590   31.0460   46.9280 N   0  0  0  0  0  0  0  0  0  0  0  0
   45.0130   29.6250   47.2380 C   0  0  0  0  0  0  0  0  0  0  0  0
   46.4810   29.3030   47.4280 C   0  0  0  0  0  0  0  0  0  0  0  0
   47.0420   30.4890   48.1460 C   0  0  0  0  0  0  0  0  0  0  0  0
   46.1250   31.6160   47.5990 C   0  0  2  0  0  0  0  0  0  0  0  0
   45.7880   32.3090   48.9460 C   0  0  0  0  0  0  0  0  0  0  0  0
   46.7470   32.6100   46.8860 O   0  0  0  0  0  0  0  0  0  0  0  0
   46.7210   32.6770   45.4530 C   0  0  0  0  0  0  0  0  0  0  0  0
   47.2130   31.7450   44.7900 O   0  0  0  0  0  0  0  0  0  0  0  0
   44.5500   35.5640   44.9560 C   0  0  0  0  0  0  0  0  0  0  0  0
   44.8830   36.0230   43.6820 C   0  0  0  0  0  0  0  0  0  0  0  0
   45.8810   35.3380   42.9880 C   0  0  0  0  0  0  0  0  0  0  0  0
   46.4650   34.2610   43.6050 N   0  0  0  0  0  0  0  0  0  0  0  0
   46.0910   33.8610   44.8590 C   0  0  0  0  0  0  0  0  0  0  0  0
   45.1530   34.5020   45.5210 N   0  0  0  0  0  0  0  0  0  0  0  0
   45.1803   31.1749   45.9133 H   0  0  0  0  0  0  0  0  0  0  0  0
   44.4386   29.4336   48.1564 H   0  0  0  0  0  0  0  0  0  0  0  0
   44.5190   29.0160   46.4666 H   0  0  0  0  0  0  0  0  0  0  0  0
   46.6029   28.3913   48.0313 H   0  0  0  0  0  0  0  0  0  0  0  0
   46.9923   29.1159   46.4722 H   0  0  0  0  0  0  0  0  0  0  0  0
   46.9485   30.3840   49.2370 H   0  0  0  0  0  0  0  0  0  0  0  0
   48.1171   30.6553   47.9829 H   0  0  0  0  0  0  0  0  0  0  0  0
   46.1021   31.6632   49.7792 H   0  0  0  0  0  0  0  0  0  0  0  0
   46.3192   33.2703   49.0068 H   0  0  0  0  0  0  0  0  0  0  0  0
   44.7038   32.4847   49.0068 H   0  0  0  0  0  0  0  0  0  0  0  0
   43.7653   36.0896   45.5200 H   0  0  0  0  0  0  0  0  0  0  0  0
   44.3770   36.8940   43.2400 H   0  0  0  0  0  0  0  0  0  0  0  0
   46.1892   35.6512   41.9796 H   0  0  0  0  0  0  0  0  0  0  0  0
  1  2  1  0
  1  5  1  0
  2  3  1  0
  3  4  1  0
  5  4  1  0
  5  6  1  0
  5  7  1  6
  8  7  1  0
  9  8  2  0
 10 15  2  0
 11 10  1  0
 12 13  1  0
 12 11  2  0
 13 14  2  0
 14  8  1  0
 14 15  1  0
  1 16  1  0
  2 17  1  0
  2 18  1  0
  3 19  1  0
  3 20  1  0
  4 21  1  0
  4 22  1  0
  6 23  1  0
  6 24  1  0
  6 25  1  0
 10 26  1  0
 11 27  1  0
 12 28  1  0
M  ISO  8  16   5  17  13  18  13  19  13  20  13  21  13  22  13  23   8
M  ISO  5  24   8  25   8  26  14  27  14  28  14
M  END
>  <minimizedAffinity>  (1) 
-4.59177685

>  <minimizedRMSD>  (1) 
1.35414636

$$$$
