
     RDKit          3D

 31 32  0  0  1  0  0  0  0  0999 V2000
   45.2790   30.7200   46.0680 N   0  0  0  0  0  0  0  0  0  0  0  0
   45.3350   29.2970   46.4000 C   0  0  0  0  0  0  0  0  0  0  0  0
   46.6750   29.1910   47.0860 C   0  0  0  0  0  0  0  0  0  0  0  0
   46.8090   30.4310   47.8980 C   0  0  0  0  0  0  0  0  0  0  0  0
   45.9540   31.4280   47.0660 C   0  0  1  0  0  0  0  0  0  0  0  0
   46.6520   32.5060   46.5520 O   0  0  0  0  0  0  0  0  0  0  0  0
   46.8080   32.7630   45.1530 C   0  0  0  0  0  0  0  0  0  0  0  0
   47.4820   31.9730   44.4720 O   0  0  0  0  0  0  0  0  0  0  0  0
   44.5620   35.6130   44.8110 C   0  0  0  0  0  0  0  0  0  0  0  0
   44.8700   36.1430   43.5590 C   0  0  0  0  0  0  0  0  0  0  0  0
   45.8760   35.5140   42.8240 C   0  0  0  0  0  0  0  0  0  0  0  0
   46.5010   34.4120   43.3850 N   0  0  0  0  0  0  0  0  0  0  0  0
   46.1400   33.9520   44.6220 C   0  0  0  0  0  0  0  0  0  0  0  0
   45.1850   34.5470   45.3240 N   0  0  0  0  0  0  0  0  0  0  0  0
   45.1470   32.0610   48.2130 C   0  0  0  0  0  0  0  0  0  0  0  0
   45.3150   31.4050   49.5260 C   0  0  0  0  0  0  0  0  0  0  0  0
   45.7317   30.8837   45.1574 H   0  0  0  0  0  0  0  0  0  0  0  0
   44.5156   29.0111   47.0759 H   0  0  0  0  0  0  0  0  0  0  0  0
   45.2268   28.6326   45.5300 H   0  0  0  0  0  0  0  0  0  0  0  0
   46.7052   28.3027   47.7341 H   0  0  0  0  0  0  0  0  0  0  0  0
   47.4960   29.0888   46.3611 H   0  0  0  0  0  0  0  0  0  0  0  0
   46.4005   30.2964   48.9104 H   0  0  0  0  0  0  0  0  0  0  0  0
   47.8476   30.7538   48.0627 H   0  0  0  0  0  0  0  0  0  0  0  0
   43.7701   36.0938   45.4041 H   0  0  0  0  0  0  0  0  0  0  0  0
   44.3405   37.0232   43.1655 H   0  0  0  0  0  0  0  0  0  0  0  0
   46.1643   35.8824   41.8284 H   0  0  0  0  0  0  0  0  0  0  0  0
   45.4601   33.1108   48.3127 H   0  0  0  0  0  0  0  0  0  0  0  0
   44.0864   31.9473   47.9442 H   0  0  0  0  0  0  0  0  0  0  0  0
   45.1280   32.1351   50.3272 H   0  0  0  0  0  0  0  0  0  0  0  0
   44.6010   30.5729   49.6142 H   0  0  0  0  0  0  0  0  0  0  0  0
   46.3411   31.0186   49.6142 H   0  0  0  0  0  0  0  0  0  0  0  0
  1  2  1  0
  1  5  1  0
  2  3  1  0
  3  4  1  0
  5  4  1  0
  5 15  1  0
  5  6  1  6
  7  6  1  0
  8  7  2  0
  9 14  2  0
 10  9  1  0
 11 12  1  0
 11 10  2  0
 12 13  2  0
 13  7  1  0
 13 14  1  0
 15 16  1  0
  1 17  1  0
  2 18  1  0
  2 19  1  0
  3 20  1  0
  3 21  1  0
  4 22  1  0
  4 23  1  0
  9 24  1  0
 10 25  1  0
 11 26  1  0
 15 27  1  0
 15 28  1  0
 16 29  1  0
 16 30  1  0
 16 31  1  0
M  ISO  8  17   5  18  13  19  13  20  13  21  13  22  13  23  13  24  14
M  ISO  7  25  14  26  14  27   8  28   8  29   8  30   8  31   8
M  END
>  <minimizedAffinity>  (1) 
-4.71010017

>  <minimizedRMSD>  (1) 
1.5525614

$$$$
