
     RDKit          3D

 31 33  0  0  1  0  0  0  0  0999 V2000
   45.9920   30.3950   45.1410 N   0  0  0  0  0  0  0  0  0  0  0  0
   46.2270   28.9500   45.1300 C   0  0  0  0  0  0  0  0  0  0  0  0
   47.7090   28.8850   45.4410 C   0  0  0  0  0  0  0  0  0  0  0  0
   47.9130   29.9110   46.5100 C   0  0  0  0  0  0  0  0  0  0  0  0
   46.8210   30.9430   46.1230 C   0  0  2  0  0  0  0  0  0  0  0  0
   46.1850   31.1150   47.4500 N   0  0  0  0  0  0  0  0  0  0  0  0
   45.2390   30.3460   48.0160 C   0  0  0  0  0  0  0  0  0  0  0  0
   44.9160   30.8220   49.2280 N   0  0  0  0  0  0  0  0  0  0  0  0
   45.6750   31.9100   49.4220 C   0  0  0  0  0  0  0  0  0  0  0  0
   46.4510   32.0830   48.3270 N   0  0  0  0  0  0  0  0  0  0  0  0
   47.2630   32.2000   45.7860 O   0  0  0  0  0  0  0  0  0  0  0  0
   47.0910   32.7690   44.4780 C   0  0  0  0  0  0  0  0  0  0  0  0
   47.6500   32.2340   43.5020 O   0  0  0  0  0  0  0  0  0  0  0  0
   44.6270   35.3310   45.2800 C   0  0  0  0  0  0  0  0  0  0  0  0
   44.5940   36.1420   44.1310 C   0  0  0  0  0  0  0  0  0  0  0  0
   45.4480   35.8030   43.0810 C   0  0  0  0  0  0  0  0  0  0  0  0
   46.2580   34.7030   43.2400 N   0  0  0  0  0  0  0  0  0  0  0  0
   46.2370   33.9580   44.3870 C   0  0  0  0  0  0  0  0  0  0  0  0
   45.4340   34.2710   45.3880 N   0  0  0  0  0  0  0  0  0  0  0  0
   45.0054   30.5900   45.3635 H   0  0  0  0  0  0  0  0  0  0  0  0
   45.6314   28.4397   45.9013 H   0  0  0  0  0  0  0  0  0  0  0  0
   45.9431   28.4556   44.1893 H   0  0  0  0  0  0  0  0  0  0  0  0
   47.9865   27.8845   45.8044 H   0  0  0  0  0  0  0  0  0  0  0  0
   48.3311   29.0758   44.5541 H   0  0  0  0  0  0  0  0  0  0  0  0
   47.7397   29.4929   47.5126 H   0  0  0  0  0  0  0  0  0  0  0  0
   48.9325   30.3206   46.5639 H   0  0  0  0  0  0  0  0  0  0  0  0
   44.7933   29.4539   47.5518 H   0  0  0  0  0  0  0  0  0  0  0  0
   45.6681   32.5508   50.3161 H   0  0  0  0  0  0  0  0  0  0  0  0
   43.9634   35.5786   46.1216 H   0  0  0  0  0  0  0  0  0  0  0  0
   43.9212   37.0096   44.0630 H   0  0  0  0  0  0  0  0  0  0  0  0
   45.4726   36.3968   42.1553 H   0  0  0  0  0  0  0  0  0  0  0  0
  1  5  1  0
  2  1  1  0
  2  3  1  0
  3  4  1  0
  5 11  1  6
  5  4  1  0
  5  6  1  0
  6  7  1  0
  6 10  1  0
  7  8  2  0
  8  9  1  0
 10  9  2  0
 12 11  1  0
 13 12  2  0
 14 19  2  0
 15 14  1  0
 16 17  1  0
 16 15  2  0
 17 18  2  0
 18 12  1  0
 18 19  1  0
  1 20  1  0
  2 21  1  0
  2 22  1  0
  3 23  1  0
  3 24  1  0
  4 25  1  0
  4 26  1  0
  7 27  1  0
  9 28  1  0
 14 29  1  0
 15 30  1  0
 16 31  1  0
M  ISO  8  20   5  21  13  22  13  23  13  24  13  25  13  26  13  27  14
M  ISO  4  28  14  29  14  30  14  31  14
M  END
>  <minimizedAffinity>  (1) 
-4.52566671

>  <minimizedRMSD>  (1) 
2.8780241

$$$$
