
     RDKit          3D

 32 34  0  0  1  0  0  0  0  0999 V2000
   45.3990   30.4920   45.9200 N   0  0  0  0  0  0  0  0  0  0  0  0
   45.4370   29.0420   45.8230 C   0  0  0  0  0  0  0  0  0  0  0  0
   46.9260   28.7890   45.7320 C   0  0  0  0  0  0  0  0  0  0  0  0
   47.5340   29.7200   46.7260 C   0  0  0  0  0  0  0  0  0  0  0  0
   46.4950   30.8900   46.6990 C   0  0  2  0  0  0  0  0  0  0  0  0
   46.2310   31.0760   48.1730 C   0  0  0  0  0  0  0  0  0  0  0  0
   44.7840   31.4360   48.5670 C   0  0  0  0  0  0  0  0  0  0  0  0
   45.9400   32.3300   48.8790 C   0  0  0  0  0  0  0  0  0  0  0  0
   47.0290   32.0980   46.2710 O   0  0  0  0  0  0  0  0  0  0  0  0
   46.9320   32.5790   44.9250 C   0  0  0  0  0  0  0  0  0  0  0  0
   47.4940   31.9410   44.0230 O   0  0  0  0  0  0  0  0  0  0  0  0
   44.6050   35.3400   45.4480 C   0  0  0  0  0  0  0  0  0  0  0  0
   44.6480   36.0470   44.2440 C   0  0  0  0  0  0  0  0  0  0  0  0
   45.5000   35.5770   43.2440 C   0  0  0  0  0  0  0  0  0  0  0  0
   46.2430   34.4460   43.5120 N   0  0  0  0  0  0  0  0  0  0  0  0
   46.1490   33.8040   44.7160 C   0  0  0  0  0  0  0  0  0  0  0  0
   45.3470   34.2430   45.6620 N   0  0  0  0  0  0  0  0  0  0  0  0
   44.5214   30.7918   46.3681 H   0  0  0  0  0  0  0  0  0  0  0  0
   45.0018   28.5674   46.7148 H   0  0  0  0  0  0  0  0  0  0  0  0
   44.8585   28.6318   44.9821 H   0  0  0  0  0  0  0  0  0  0  0  0
   47.1576   27.7445   45.9877 H   0  0  0  0  0  0  0  0  0  0  0  0
   47.3135   28.9565   44.7162 H   0  0  0  0  0  0  0  0  0  0  0  0
   47.6017   29.2607   47.7232 H   0  0  0  0  0  0  0  0  0  0  0  0
   48.5672   30.0209   46.4980 H   0  0  0  0  0  0  0  0  0  0  0  0
   46.9958   30.3089   48.3643 H   0  0  0  0  0  0  0  0  0  0  0  0
   44.0526   31.7213   47.7965 H   0  0  0  0  0  0  0  0  0  0  0  0
   43.9785   30.9557   49.1418 H   0  0  0  0  0  0  0  0  0  0  0  0
   46.2645   32.4525   49.9229 H   0  0  0  0  0  0  0  0  0  0  0  0
   46.1612   33.3879   48.6744 H   0  0  0  0  0  0  0  0  0  0  0  0
   43.9395   35.6952   46.2486 H   0  0  0  0  0  0  0  0  0  0  0  0
   44.0308   36.9443   44.0894 H   0  0  0  0  0  0  0  0  0  0  0  0
   45.5767   36.0910   42.2745 H   0  0  0  0  0  0  0  0  0  0  0  0
  1  5  1  0
  2  1  1  0
  3  2  1  0
  3  4  1  0
  5  9  1  6
  5  4  1  0
  5  6  1  0
  6  7  1  0
  6  8  1  0
  7  8  1  0
 10  9  1  0
 11 10  2  0
 12 17  2  0
 13 12  1  0
 14 15  1  0
 14 13  2  0
 15 16  2  0
 16 10  1  0
 16 17  1  0
  1 18  1  0
  2 19  1  0
  2 20  1  0
  3 21  1  0
  3 22  1  0
  4 23  1  0
  4 24  1  0
  6 25  1  0
  7 26  1  0
  7 27  1  0
  8 28  1  0
  8 29  1  0
 12 30  1  0
 13 31  1  0
 14 32  1  0
M  ISO  8  18   5  19  13  20  13  21  13  22  13  23  13  24  13  25  13
M  ISO  7  26  13  27  13  28  13  29  13  30  14  31  14  32  14
M  END
>  <minimizedAffinity>  (1) 
-4.54658222

>  <minimizedRMSD>  (1) 
2.33190274

$$$$
