
     RDKit          3D

 37 39  0  0  1  0  0  0  0  0999 V2000
   47.2800   31.9080   47.1150 N   0  0  0  0  0  0  0  0  0  0  0  0
   47.3670   31.9770   48.5660 C   0  0  0  0  0  0  0  0  0  0  0  0
   45.9440   32.3410   48.9390 C   0  0  0  0  0  0  0  0  0  0  0  0
   45.0890   31.5520   48.0090 C   0  0  0  0  0  0  0  0  0  0  0  0
   46.0160   31.4630   46.7660 C   0  0  2  0  0  0  0  0  0  0  0  0
   45.9370   30.0450   46.4410 N   0  0  0  0  0  0  0  0  0  0  0  0
   44.8280   29.3240   46.9020 C   0  0  0  0  0  0  0  0  0  0  0  0
   45.1800   27.9260   46.3460 C   0  0  0  0  0  0  0  0  0  0  0  0
   46.0840   28.1990   45.1410 C   0  0  0  0  0  0  0  0  0  0  0  0
   46.0080   29.7320   45.0570 C   0  0  0  0  0  0  0  0  0  0  0  0
   45.5380   32.0600   45.6250 O   0  0  0  0  0  0  0  0  0  0  0  0
   45.7570   33.4420   45.3010 C   0  0  0  0  0  0  0  0  0  0  0  0
   45.2330   34.3180   46.0110 O   0  0  0  0  0  0  0  0  0  0  0  0
   48.4880   33.2680   42.8930 C   0  0  0  0  0  0  0  0  0  0  0  0
   48.2300   34.3160   42.0070 C   0  0  0  0  0  0  0  0  0  0  0  0
   47.0870   35.0820   42.2350 C   0  0  0  0  0  0  0  0  0  0  0  0
   46.2850   34.7560   43.3230 N   0  0  0  0  0  0  0  0  0  0  0  0
   46.6090   33.7180   44.1400 C   0  0  0  0  0  0  0  0  0  0  0  0
   47.6910   32.9910   43.9230 N   0  0  0  0  0  0  0  0  0  0  0  0
   47.4414   32.8426   46.7134 H   0  0  0  0  0  0  0  0  0  0  0  0
   47.6598   31.0083   48.9972 H   0  0  0  0  0  0  0  0  0  0  0  0
   48.1222   32.6861   48.9360 H   0  0  0  0  0  0  0  0  0  0  0  0
   45.7355   32.0660   49.9835 H   0  0  0  0  0  0  0  0  0  0  0  0
   45.7581   33.4219   48.8553 H   0  0  0  0  0  0  0  0  0  0  0  0
   44.8606   30.5558   48.4158 H   0  0  0  0  0  0  0  0  0  0  0  0
   44.1023   31.9957   47.8104 H   0  0  0  0  0  0  0  0  0  0  0  0
   44.7663   29.3247   48.0003 H   0  0  0  0  0  0  0  0  0  0  0  0
   43.8506   29.7191   46.5880 H   0  0  0  0  0  0  0  0  0  0  0  0
   45.7125   27.3311   47.1027 H   0  0  0  0  0  0  0  0  0  0  0  0
   44.2833   27.3517   46.0700 H   0  0  0  0  0  0  0  0  0  0  0  0
   47.1130   27.8551   45.3221 H   0  0  0  0  0  0  0  0  0  0  0  0
   45.7806   27.6793   44.2202 H   0  0  0  0  0  0  0  0  0  0  0  0
   46.9045   30.1611   44.5857 H   0  0  0  0  0  0  0  0  0  0  0  0
   45.1809   30.1248   44.4474 H   0  0  0  0  0  0  0  0  0  0  0  0
   49.3828   32.6483   42.7341 H   0  0  0  0  0  0  0  0  0  0  0  0
   48.9018   34.5290   41.1624 H   0  0  0  0  0  0  0  0  0  0  0  0
   46.8272   35.9208   41.5725 H   0  0  0  0  0  0  0  0  0  0  0  0
  1  2  1  0
  2  3  1  0
  4  3  1  0
  5 11  1  6
  5  1  1  0
  5  4  1  0
  6  5  1  0
  6  7  1  0
  8  7  1  0
  9  8  1  0
 10  9  1  0
 10  6  1  0
 12 11  1  0
 12 13  2  0
 14 19  2  0
 15 16  2  0
 15 14  1  0
 16 17  1  0
 17 18  2  0
 18 12  1  0
 19 18  1  0
  1 20  1  0
  2 21  1  0
  2 22  1  0
  3 23  1  0
  3 24  1  0
  4 25  1  0
  4 26  1  0
  7 27  1  0
  7 28  1  0
  8 29  1  0
  8 30  1  0
  9 31  1  0
  9 32  1  0
 10 33  1  0
 10 34  1  0
 14 35  1  0
 15 36  1  0
 16 37  1  0
M  ISO  8  20   5  21  13  22  13  23  13  24  13  25  13  26  13  27  13
M  ISO  8  28  13  29  13  30  13  31  13  32  13  33  13  34  13  35  14
M  ISO  2  36  14  37  14
M  END
>  <minimizedAffinity>  (1) 
-4.32695103

>  <minimizedRMSD>  (1) 
3.77499437

$$$$
