
     RDKit          3D

 35 37  0  0  1  0  0  0  0  0999 V2000
   47.0360   30.7230   47.5620 N   0  0  0  0  0  0  0  0  0  0  0  0
   47.0620   31.1010   48.9770 C   0  0  0  0  0  0  0  0  0  0  0  0
   45.9050   32.0550   49.0520 C   0  0  0  0  0  0  0  0  0  0  0  0
   44.8380   31.3910   48.2320 C   0  0  0  0  0  0  0  0  0  0  0  0
   45.7090   30.6600   47.1840 C   0  0  2  0  0  0  0  0  0  0  0  0
   45.1370   29.2570   47.1770 C   0  0  0  0  0  0  0  0  0  0  0  0
   45.2010   28.0920   47.9120 C   0  0  0  0  0  0  0  0  0  0  0  0
   44.3920   27.1690   47.3150 C   0  0  0  0  0  0  0  0  0  0  0  0
   43.8380   27.7410   46.2400 N   0  0  0  0  0  0  0  0  0  0  0  0
   44.2870   29.0020   46.1550 N   0  0  0  0  0  0  0  0  0  0  0  0
   45.5120   31.0760   45.8880 O   0  0  0  0  0  0  0  0  0  0  0  0
   46.3290   32.0550   45.2180 C   0  0  0  0  0  0  0  0  0  0  0  0
   47.4930   31.7760   44.9320 O   0  0  0  0  0  0  0  0  0  0  0  0
   44.6780   35.2840   45.6430 C   0  0  0  0  0  0  0  0  0  0  0  0
   44.3880   35.6780   44.3220 C   0  0  0  0  0  0  0  0  0  0  0  0
   44.7640   34.8310   43.2920 C   0  0  0  0  0  0  0  0  0  0  0  0
   45.4000   33.6550   43.6230 N   0  0  0  0  0  0  0  0  0  0  0  0
   45.6500   33.3370   44.9390 C   0  0  0  0  0  0  0  0  0  0  0  0
   45.2930   34.1420   45.9220 N   0  0  0  0  0  0  0  0  0  0  0  0
   44.5010   35.1620   41.8970 C   0  0  0  0  0  0  0  0  0  0  0  0
   45.2320   34.6050   41.0380 O   0  0  0  0  0  0  0  0  0  0  0  0
   43.4810   36.0550   41.6040 O   0  0  0  0  0  0  0  0  0  0  0  0
   47.5310   31.4288   46.9984 H   0  0  0  0  0  0  0  0  0  0  0  0
   46.9068   30.2288   49.6290 H   0  0  0  0  0  0  0  0  0  0  0  0
   48.0191   31.5290   49.3099 H   0  0  0  0  0  0  0  0  0  0  0  0
   45.5736   32.1877   50.0925 H   0  0  0  0  0  0  0  0  0  0  0  0
   46.1589   33.0604   48.6850 H   0  0  0  0  0  0  0  0  0  0  0  0
   44.2444   30.6851   48.8314 H   0  0  0  0  0  0  0  0  0  0  0  0
   44.0885   32.0766   47.8099 H   0  0  0  0  0  0  0  0  0  0  0  0
   45.7998   27.9341   48.8211 H   0  0  0  0  0  0  0  0  0  0  0  0
   44.2250   26.1370   47.6573 H   0  0  0  0  0  0  0  0  0  0  0  0
   43.1793   27.2902   45.5890 H   0  0  0  0  0  0  0  0  0  0  0  0
   44.3846   35.9456   46.4713 H   0  0  0  0  0  0  0  0  0  0  0  0
   43.8780   36.6302   44.1143 H   0  0  0  0  0  0  0  0  0  0  0  0
   43.2865   36.2929   40.6629 H   0  0  0  0  0  0  0  0  0  0  0  0
  1  2  1  0
  2  3  1  0
  4  3  1  0
  5 11  1  6
  5  1  1  0
  5  4  1  0
  6  5  1  0
  6  7  1  0
  8  7  2  0
  9  8  1  0
 10  9  1  0
 10  6  2  0
 12 11  1  0
 13 12  2  0
 14 19  2  0
 15 14  1  0
 16 17  1  0
 16 15  2  0
 17 18  2  0
 18 12  1  0
 18 19  1  0
 20 16  1  0
 21 20  2  0
 22 20  1  0
  1 23  1  0
  2 24  1  0
  2 25  1  0
  3 26  1  0
  3 27  1  0
  4 28  1  0
  4 29  1  0
  7 30  1  0
  8 31  1  0
  9 32  1  0
 14 33  1  0
 15 34  1  0
 22 35  1  0
M  ISO  8  23   5  24  13  25  13  26  13  27  13  28  13  29  13  30  14
M  ISO  5  31  14  32   9  33  14  34  14  35   3
M  END
>  <minimizedAffinity>  (1) 
-5.31379414

>  <minimizedRMSD>  (1) 
0.781268597

$$$$
