
     RDKit          3D

 44 46  0  0  1  0  0  0  0  0999 V2000
   47.0010   30.6420   47.7320 N   0  0  0  0  0  0  0  0  0  0  0  0
   46.9540   31.0400   49.1430 C   0  0  0  0  0  0  0  0  0  0  0  0
   45.8030   32.0080   49.1490 C   0  0  0  0  0  0  0  0  0  0  0  0
   44.7750   31.3440   48.2770 C   0  0  0  0  0  0  0  0  0  0  0  0
   45.6940   30.5920   47.2860 C   0  0  2  0  0  0  0  0  0  0  0  0
   45.1070   29.1940   47.2660 C   0  0  0  0  0  0  0  0  0  0  0  0
   45.1330   28.0350   48.0170 C   0  0  0  0  0  0  0  0  0  0  0  0
   44.3340   27.1160   47.3870 C   0  0  0  0  0  0  0  0  0  0  0  0
   43.8300   27.6870   46.2830 N   0  0  0  0  0  0  0  0  0  0  0  0
   44.3000   28.9430   46.2120 N   0  0  0  0  0  0  0  0  0  0  0  0
   45.5730   30.9970   45.9770 O   0  0  0  0  0  0  0  0  0  0  0  0
   46.4110   31.9940   45.3590 C   0  0  0  0  0  0  0  0  0  0  0  0
   47.6120   31.7630   45.2100 O   0  0  0  0  0  0  0  0  0  0  0  0
   44.7350   35.2400   45.4540 C   0  0  0  0  0  0  0  0  0  0  0  0
   44.3570   35.4430   44.1190 C   0  0  0  0  0  0  0  0  0  0  0  0
   44.6910   34.4700   43.1890 C   0  0  0  0  0  0  0  0  0  0  0  0
   45.3710   33.3590   43.6270 N   0  0  0  0  0  0  0  0  0  0  0  0
   45.7050   33.2310   44.9570 C   0  0  0  0  0  0  0  0  0  0  0  0
   45.3940   34.1500   45.8450 N   0  0  0  0  0  0  0  0  0  0  0  0
   44.3900   34.4950   41.7560 C   0  0  0  0  0  0  0  0  0  0  0  0
   43.6710   35.7430   41.3520 C   0  0  0  0  0  0  0  0  0  0  0  0
   43.5050   33.3110   41.3410 C   0  0  0  0  0  0  0  0  0  0  0  0
   45.6450   34.3670   40.9170 C   0  0  0  0  0  0  0  0  0  0  0  0
   47.5353   31.3332   47.1865 H   0  0  0  0  0  0  0  0  0  0  0  0
   46.7559   30.1776   49.7964 H   0  0  0  0  0  0  0  0  0  0  0  0
   47.8966   31.4649   49.5186 H   0  0  0  0  0  0  0  0  0  0  0  0
   45.4176   32.1529   50.1690 H   0  0  0  0  0  0  0  0  0  0  0  0
   46.0853   33.0084   48.7892 H   0  0  0  0  0  0  0  0  0  0  0  0
   44.1419   30.6509   48.8504 H   0  0  0  0  0  0  0  0  0  0  0  0
   44.0576   32.0325   47.8065 H   0  0  0  0  0  0  0  0  0  0  0  0
   45.6929   27.8779   48.9507 H   0  0  0  0  0  0  0  0  0  0  0  0
   44.1399   26.0883   47.7280 H   0  0  0  0  0  0  0  0  0  0  0  0
   43.1936   27.2402   45.6076 H   0  0  0  0  0  0  0  0  0  0  0  0
   44.4794   36.0048   46.2021 H   0  0  0  0  0  0  0  0  0  0  0  0
   43.8107   36.3490   43.8178 H   0  0  0  0  0  0  0  0  0  0  0  0
   43.3549   36.2916   42.2515 H   0  0  0  0  0  0  0  0  0  0  0  0
   44.3429   36.3759   40.7537 H   0  0  0  0  0  0  0  0  0  0  0  0
   42.7864   35.4792   40.7537 H   0  0  0  0  0  0  0  0  0  0  0  0
   43.1258   32.8037   42.2404 H   0  0  0  0  0  0  0  0  0  0  0  0
   42.6582   33.6782   40.7426 H   0  0  0  0  0  0  0  0  0  0  0  0
   44.0970   32.6028   40.7426 H   0  0  0  0  0  0  0  0  0  0  0  0
   46.5201   34.2777   41.5775 H   0  0  0  0  0  0  0  0  0  0  0  0
   45.5719   33.4716   40.2822 H   0  0  0  0  0  0  0  0  0  0  0  0
   45.7542   35.2587   40.2822 H   0  0  0  0  0  0  0  0  0  0  0  0
  1  2  1  0
  2  3  1  0
  4  3  1  0
  5 11  1  6
  5  1  1  0
  5  4  1  0
  6  5  1  0
  6  7  1  0
  8  7  2  0
  9  8  1  0
 10  9  1  0
 10  6  2  0
 12 11  1  0
 13 12  2  0
 14 19  2  0
 15 14  1  0
 16 17  1  0
 16 15  2  0
 17 18  2  0
 18 12  1  0
 18 19  1  0
 20 16  1  0
 21 20  1  0
 22 20  1  0
 23 20  1  0
  1 24  1  0
  2 25  1  0
  2 26  1  0
  3 27  1  0
  3 28  1  0
  4 29  1  0
  4 30  1  0
  7 31  1  0
  8 32  1  0
  9 33  1  0
 14 34  1  0
 15 35  1  0
 21 36  1  0
 21 37  1  0
 21 38  1  0
 22 39  1  0
 22 40  1  0
 22 41  1  0
 23 42  1  0
 23 43  1  0
 23 44  1  0
M  ISO  8  24   5  25  13  26  13  27  13  28  13  29  13  30  13  31  14
M  ISO  8  32  14  33   9  34  14  35  14  36   8  37   8  38   8  39   8
M  ISO  5  40   8  41   8  42   8  43   8  44   8
M  END
>  <minimizedAffinity>  (1) 
-5.3063941

>  <minimizedRMSD>  (1) 
1.09689558

$$$$
