
     RDKit          3D

 34 36  0  0  1  0  0  0  0  0999 V2000
   47.2510   31.1620   47.4240 N   0  0  0  0  0  0  0  0  0  0  0  0
   47.2390   31.5270   48.8450 C   0  0  0  0  0  0  0  0  0  0  0  0
   45.9270   32.2520   48.9660 C   0  0  0  0  0  0  0  0  0  0  0  0
   44.9790   31.4070   48.1700 C   0  0  0  0  0  0  0  0  0  0  0  0
   45.9270   30.8450   47.0780 C   0  0  2  0  0  0  0  0  0  0  0  0
   45.6310   29.3720   47.0830 C   0  0  0  0  0  0  0  0  0  0  0  0
   46.2340   28.1750   47.4230 C   0  0  0  0  0  0  0  0  0  0  0  0
   45.3450   27.1630   47.1580 C   0  0  0  0  0  0  0  0  0  0  0  0
   44.2180   27.7300   46.6650 N   0  0  0  0  0  0  0  0  0  0  0  0
   44.3980   29.0550   46.6230 N   0  0  0  0  0  0  0  0  0  0  0  0
   45.6310   31.2370   45.8030 O   0  0  0  0  0  0  0  0  0  0  0  0
   46.3820   32.2040   45.0440 C   0  0  0  0  0  0  0  0  0  0  0  0
   47.5190   31.9250   44.6650 O   0  0  0  0  0  0  0  0  0  0  0  0
   44.6290   35.3680   45.5330 C   0  0  0  0  0  0  0  0  0  0  0  0
   44.3400   35.7900   44.2210 C   0  0  0  0  0  0  0  0  0  0  0  0
   44.7630   34.9780   43.1790 C   0  0  0  0  0  0  0  0  0  0  0  0
   45.4300   33.8200   43.4800 N   0  0  0  0  0  0  0  0  0  0  0  0
   45.6730   33.4750   44.7910 C   0  0  0  0  0  0  0  0  0  0  0  0
   45.2800   34.2370   45.7940 N   0  0  0  0  0  0  0  0  0  0  0  0
   44.5590   35.2430   41.8020 N   0  0  0  0  0  0  0  0  0  0  0  0
   47.5864   31.9537   46.8569 H   0  0  0  0  0  0  0  0  0  0  0  0
   47.2642   30.6347   49.4878 H   0  0  0  0  0  0  0  0  0  0  0  0
   48.1081   32.1239   49.1587 H   0  0  0  0  0  0  0  0  0  0  0  0
   45.6089   32.3144   50.0171 H   0  0  0  0  0  0  0  0  0  0  0  0
   45.9787   33.2898   48.6051 H   0  0  0  0  0  0  0  0  0  0  0  0
   44.5450   30.6020   48.7812 H   0  0  0  0  0  0  0  0  0  0  0  0
   44.1076   31.9513   47.7770 H   0  0  0  0  0  0  0  0  0  0  0  0
   47.2474   28.0548   47.8335 H   0  0  0  0  0  0  0  0  0  0  0  0
   45.5166   26.0882   47.3170 H   0  0  0  0  0  0  0  0  0  0  0  0
   43.3680   27.2272   46.3725 H   0  0  0  0  0  0  0  0  0  0  0  0
   44.3041   35.9975   46.3746 H   0  0  0  0  0  0  0  0  0  0  0  0
   43.7990   36.7285   44.0296 H   0  0  0  0  0  0  0  0  0  0  0  0
   44.0640   36.0977   41.5099 H   0  0  0  0  0  0  0  0  0  0  0  0
   44.9058   34.5809   41.0932 H   0  0  0  0  0  0  0  0  0  0  0  0
  1  2  1  0
  2  3  1  0
  4  3  1  0
  5 11  1  6
  5  6  1  0
  5  1  1  0
  5  4  1  0
  6  7  1  0
  8  7  2  0
  9  8  1  0
 10  9  1  0
 10  6  2  0
 12 11  1  0
 13 12  2  0
 14 19  2  0
 15 14  1  0
 16 17  1  0
 16 15  2  0
 17 18  2  0
 18 12  1  0
 18 19  1  0
 20 16  1  0
  1 21  1  0
  2 22  1  0
  2 23  1  0
  3 24  1  0
  3 25  1  0
  4 26  1  0
  4 27  1  0
  7 28  1  0
  8 29  1  0
  9 30  1  0
 14 31  1  0
 15 32  1  0
 20 33  1  0
 20 34  1  0
M  ISO  8  21   5  22  13  23  13  24  13  25  13  26  13  27  13  28  14
M  ISO  4  29  14  30   9  31  14  32  14
M  END
>  <minimizedAffinity>  (1) 
-4.85905981

>  <minimizedRMSD>  (1) 
0.424842536

$$$$
