
     RDKit          3D

 21 22  0  0  0  0  0  0  0  0999 V2000
   45.8440   34.4360   41.1390 C   0  0  0  0  0  0  0  0  0  0  0  0
   47.1230   34.8010   41.5750 C   0  0  0  0  0  0  0  0  0  0  0  0
   48.2240   34.4510   40.7670 C   0  0  0  0  0  0  0  0  0  0  0  0
   47.9740   33.7730   39.6030 N   0  0  0  0  0  0  0  0  0  0  0  0
   46.7180   33.4470   39.2320 C   0  0  0  0  0  0  0  0  0  0  0  0
   45.6800   33.7820   40.0030 N   0  0  0  0  0  0  0  0  0  0  0  0
   46.4400   32.7240   37.9910 C   0  0  0  0  0  0  0  0  0  0  0  0
   46.7750   31.4700   37.5650 N   0  0  0  0  0  0  0  0  0  0  0  0
   46.2870   31.2890   36.3690 O   0  0  0  0  0  0  0  0  0  0  0  0
   45.6370   32.3630   35.9660 C   0  0  0  0  0  0  0  0  0  0  0  0
   45.7210   33.2820   36.9730 N   0  0  0  0  0  0  0  0  0  0  0  0
   44.7190   34.8030   41.9810 C   0  0  0  0  0  0  0  0  0  0  0  0
   43.8430   35.6030   41.5170 O   0  0  0  0  0  0  0  0  0  0  0  0
   44.6390   34.2610   43.2770 O   0  0  0  0  0  0  0  0  0  0  0  0
   45.1570   35.0120   44.3410 C   0  0  0  0  0  0  0  0  0  0  0  0
   44.2710   35.0660   45.4180 F   0  0  0  0  0  0  0  0  0  0  0  0
   46.3420   34.4560   44.7770 F   0  0  0  0  0  0  0  0  0  0  0  0
   45.3680   36.2970   43.8730 F   0  0  0  0  0  0  0  0  0  0  0  0
   47.2649   35.3450   42.5205 H   0  0  0  0  0  0  0  0  0  0  0  0
   49.2507   34.7138   41.0616 H   0  0  0  0  0  0  0  0  0  0  0  0
   45.1243   32.4941   35.0017 H   0  0  0  0  0  0  0  0  0  0  0  0
  1  2  2  0
  1 12  1  0
  3  2  1  0
  4  3  2  0
  5  4  1  0
  5  6  2  0
  6  1  1  0
  7  5  1  0
  8  7  2  0
  9  8  1  0
 10  9  1  0
 10 11  2  0
 11  7  1  0
 12 14  1  0
 13 12  2  0
 14 15  1  0
 15 17  1  0
 15 16  1  0
 18 15  1  0
  2 19  1  0
  3 20  1  0
 10 21  1  0
M  ISO  3  19  14  20  14  21  14
M  END
>  <minimizedAffinity>  (1) 
-4.04294872

>  <minimizedRMSD>  (1) 
0.635991633

$$$$
