
     RDKit          3D

 29 30  0  0  0  0  0  0  0  0999 V2000
   43.7240   34.2620   41.3910 C   0  0  0  0  0  0  0  0  0  0  0  0
   44.6640   33.7670   40.5470 C   0  0  0  0  0  0  0  0  0  0  0  0
   45.9050   33.0910   41.6980 S   0  0  0  0  0  0  0  0  0  0  0  0
   44.8710   33.6310   43.1890 C   0  0  0  0  0  0  0  0  0  0  0  0
   43.9580   34.1240   42.6560 N   0  0  0  0  0  0  0  0  0  0  0  0
   45.4170   33.3260   44.4800 N   0  0  0  0  0  0  0  0  0  0  0  0
   46.8000   33.2630   44.7430 C   0  0  0  0  0  0  0  0  0  0  0  0
   47.5870   33.9040   43.9310 N   0  0  0  0  0  0  0  0  0  0  0  0
   47.1420   32.4740   45.9090 N   0  0  0  0  0  0  0  0  0  0  0  0
   48.6050   33.8240   44.1460 H   0  0  0  0  0  0  0  0  0  0  0  0
   40.4460   36.1830   41.0930 C   0  0  0  0  0  0  0  0  0  0  0  0
   41.5850   35.5780   41.6620 C   0  0  0  0  0  0  0  0  0  0  0  0
   42.5040   34.9200   40.8520 C   0  0  0  0  0  0  0  0  0  0  0  0
   42.2070   34.9220   39.5420 N   0  0  0  0  0  0  0  0  0  0  0  0
   41.1350   35.4890   38.9810 C   0  0  0  0  0  0  0  0  0  0  0  0
   40.2610   36.1170   39.7740 N   0  0  0  0  0  0  0  0  0  0  0  0
   40.9130   35.4250   37.5060 C   0  0  0  0  0  0  0  0  0  0  0  0
   41.3140   36.7710   36.9020 C   0  0  0  0  0  0  0  0  0  0  0  0
   44.6744   33.7723   39.4471 H   0  0  0  0  0  0  0  0  0  0  0  0
   44.7640   33.1435   45.2553 H   0  0  0  0  0  0  0  0  0  0  0  0
   48.1280   32.3658   46.1865 H   0  0  0  0  0  0  0  0  0  0  0  0
   46.3991   32.0212   46.4604 H   0  0  0  0  0  0  0  0  0  0  0  0
   39.7170   36.7044   41.7307 H   0  0  0  0  0  0  0  0  0  0  0  0
   41.7471   35.6265   42.7489 H   0  0  0  0  0  0  0  0  0  0  0  0
   41.5290   34.6239   37.0715 H   0  0  0  0  0  0  0  0  0  0  0  0
   39.8554   35.2126   37.2905 H   0  0  0  0  0  0  0  0  0  0  0  0
   41.5272   37.4865   37.7099 H   0  0  0  0  0  0  0  0  0  0  0  0
   42.2124   36.6410   36.2808 H   0  0  0  0  0  0  0  0  0  0  0  0
   40.4909   37.1539   36.2808 H   0  0  0  0  0  0  0  0  0  0  0  0
  1  5  1  0
  2  1  2  0
  2  3  1  0
  3  4  1  0
  4  6  1  0
  5  4  2  0
  6  7  1  0
  7  9  1  0
  8 10  1  0
  8  7  2  0
 11 12  2  0
 13  1  1  0
 13 12  1  0
 14 13  2  0
 15 14  1  0
 15 16  2  0
 16 11  1  0
 17 15  1  0
 18 17  1  0
  2 19  1  0
  6 20  1  0
  9 21  1  0
  9 22  1  0
 11 23  1  0
 12 24  1  0
 17 25  1  0
 17 26  1  0
 18 27  1  0
 18 28  1  0
 18 29  1  0
M  ISO  8  19  14  23  14  24  14  25   8  26   8  27   8  28   8  29   8
M  END
>  <minimizedAffinity>  (1) 
-5.00330687

>  <minimizedRMSD>  (1) 
0.293178916

$$$$
