
     RDKit          3D

 41 44  0  0  1  0  0  0  0  0999 V2000
   47.0330   30.6900   47.6380 N   0  0  0  0  0  0  0  0  0  0  0  0
   47.0380   31.0220   49.0650 C   0  0  0  0  0  0  0  0  0  0  0  0
   45.8740   31.9510   49.1660 C   0  0  0  0  0  0  0  0  0  0  0  0
   44.8290   31.3170   48.2990 C   0  0  0  0  0  0  0  0  0  0  0  0
   45.6920   30.6180   47.2310 C   0  0  2  0  0  0  0  0  0  0  0  0
   45.1540   29.2300   47.1760 C   0  0  0  0  0  0  0  0  0  0  0  0
   45.2810   28.0220   47.8430 C   0  0  0  0  0  0  0  0  0  0  0  0
   44.4560   27.1210   47.2400 C   0  0  0  0  0  0  0  0  0  0  0  0
   43.8330   27.7530   46.2230 N   0  0  0  0  0  0  0  0  0  0  0  0
   44.2550   29.0220   46.1860 N   0  0  0  0  0  0  0  0  0  0  0  0
   45.5330   31.0950   45.9670 O   0  0  0  0  0  0  0  0  0  0  0  0
   46.3780   32.0690   45.3260 C   0  0  0  0  0  0  0  0  0  0  0  0
   47.5330   31.7670   45.0310 O   0  0  0  0  0  0  0  0  0  0  0  0
   44.6080   35.2330   45.8380 C   0  0  0  0  0  0  0  0  0  0  0  0
   44.5650   35.7760   44.5360 C   0  0  0  0  0  0  0  0  0  0  0  0
   45.1370   35.0580   43.5040 C   0  0  0  0  0  0  0  0  0  0  0  0
   45.7140   33.8610   43.8030 N   0  0  0  0  0  0  0  0  0  0  0  0
   45.7270   33.3840   45.0850 C   0  0  0  0  0  0  0  0  0  0  0  0
   45.1850   34.0570   46.0830 N   0  0  0  0  0  0  0  0  0  0  0  0
   45.1310   35.5230   42.2180 O   0  0  0  0  0  0  0  0  0  0  0  0
   44.3290   34.9370   41.2560 C   0  0  0  0  0  0  0  0  0  0  0  0
   43.0640   35.5250   41.2630 C   0  0  0  0  0  0  0  0  0  0  0  0
   42.0690   35.1020   40.3770 C   0  0  0  0  0  0  0  0  0  0  0  0
   42.3670   34.1110   39.5170 N   0  0  0  0  0  0  0  0  0  0  0  0
   43.6120   33.5550   39.5340 C   0  0  0  0  0  0  0  0  0  0  0  0
   44.5800   33.9490   40.3780 N   0  0  0  0  0  0  0  0  0  0  0  0
   47.5246   31.4211   47.1043 H   0  0  0  0  0  0  0  0  0  0  0  0
   46.8902   30.1257   49.6853 H   0  0  0  0  0  0  0  0  0  0  0  0
   47.9855   31.4547   49.4185 H   0  0  0  0  0  0  0  0  0  0  0  0
   45.5247   32.0288   50.2062 H   0  0  0  0  0  0  0  0  0  0  0  0
   46.1211   32.9756   48.8513 H   0  0  0  0  0  0  0  0  0  0  0  0
   44.2250   30.5919   48.8641 H   0  0  0  0  0  0  0  0  0  0  0  0
   44.0982   32.0286   47.8872 H   0  0  0  0  0  0  0  0  0  0  0  0
   45.9329   27.8253   48.7069 H   0  0  0  0  0  0  0  0  0  0  0  0
   44.3218   26.0683   47.5297 H   0  0  0  0  0  0  0  0  0  0  0  0
   43.1471   27.3290   45.5822 H   0  0  0  0  0  0  0  0  0  0  0  0
   44.1550   35.7931   46.6693 H   0  0  0  0  0  0  0  0  0  0  0  0
   44.0870   36.7486   44.3475 H   0  0  0  0  0  0  0  0  0  0  0  0
   42.8463   36.3335   41.9763 H   0  0  0  0  0  0  0  0  0  0  0  0
   41.0715   35.5657   40.3827 H   0  0  0  0  0  0  0  0  0  0  0  0
   43.8342   32.7456   38.8230 H   0  0  0  0  0  0  0  0  0  0  0  0
  1  2  1  0
  2  3  1  0
  4  3  1  0
  5 11  1  6
  5  1  1  0
  5  4  1  0
  6  5  1  0
  6  7  1  0
  8  7  2  0
  9  8  1  0
 10  9  1  0
 10  6  2  0
 12 11  1  0
 13 12  2  0
 14 19  2  0
 15 14  1  0
 16 17  1  0
 16 15  2  0
 17 18  2  0
 18 12  1  0
 18 19  1  0
 20 16  1  0
 21 22  2  0
 21 20  1  0
 23 22  1  0
 24 25  1  0
 24 23  2  0
 25 26  2  0
 26 21  1  0
  1 27  1  0
  2 28  1  0
  2 29  1  0
  3 30  1  0
  3 31  1  0
  4 32  1  0
  4 33  1  0
  7 34  1  0
  8 35  1  0
  9 36  1  0
 14 37  1  0
 15 38  1  0
 22 39  1  0
 23 40  1  0
 25 41  1  0
M  ISO  8  27   5  28  13  29  13  30  13  31  13  32  13  33  13  34  14
M  ISO  7  35  14  36   9  37  14  38  14  39  14  40  14  41  14
M  END
>  <minimizedAffinity>  (1) 
-5.70805883

>  <minimizedRMSD>  (1) 
1.5612725

$$$$
