
     RDKit          3D

 49 52  0  0  1  0  0  0  0  0999 V2000
   46.9170   30.4690   47.8240 N   0  0  0  0  0  0  0  0  0  0  0  0
   46.8580   30.8330   49.2470 C   0  0  0  0  0  0  0  0  0  0  0  0
   45.7140   31.7890   49.2570 C   0  0  0  0  0  0  0  0  0  0  0  0
   44.6960   31.1340   48.3780 C   0  0  0  0  0  0  0  0  0  0  0  0
   45.6100   30.3990   47.3760 C   0  0  2  0  0  0  0  0  0  0  0  0
   45.0420   29.0180   47.3230 C   0  0  0  0  0  0  0  0  0  0  0  0
   45.0930   27.8410   48.0490 C   0  0  0  0  0  0  0  0  0  0  0  0
   44.3070   26.9190   47.4290 C   0  0  0  0  0  0  0  0  0  0  0  0
   43.7760   27.5120   46.3350 N   0  0  0  0  0  0  0  0  0  0  0  0
   44.2180   28.7720   46.2710 N   0  0  0  0  0  0  0  0  0  0  0  0
   45.4940   30.8480   46.0830 O   0  0  0  0  0  0  0  0  0  0  0  0
   46.3790   31.7720   45.4340 C   0  0  0  0  0  0  0  0  0  0  0  0
   47.5380   31.4370   45.2040 O   0  0  0  0  0  0  0  0  0  0  0  0
   44.7830   35.0490   45.7100 C   0  0  0  0  0  0  0  0  0  0  0  0
   44.6410   35.4540   44.3740 C   0  0  0  0  0  0  0  0  0  0  0  0
   45.0980   34.5930   43.3890 C   0  0  0  0  0  0  0  0  0  0  0  0
   45.6550   33.4070   43.7810 N   0  0  0  0  0  0  0  0  0  0  0  0
   45.7600   33.0800   45.1030 C   0  0  0  0  0  0  0  0  0  0  0  0
   45.3330   33.8840   46.0470 N   0  0  0  0  0  0  0  0  0  0  0  0
   45.0080   34.8890   42.0390 O   0  0  0  0  0  0  0  0  0  0  0  0
   46.1370   34.8570   41.2270 C   0  0  0  0  0  0  0  0  0  0  0  0
   47.4400   34.8710   41.9970 C   0  0  0  0  0  0  0  0  0  0  0  0
   48.4950   35.4170   41.0580 C   0  0  0  0  0  0  0  0  0  0  0  0
   48.4040   34.6730   39.7590 C   0  0  0  0  0  0  0  0  0  0  0  0
   47.6190   33.3870   39.8550 C   0  0  0  0  0  0  0  0  0  0  0  0
   46.2010   33.6340   40.3370 C   0  0  0  0  0  0  0  0  0  0  0  0
   47.4352   31.1854   47.2957 H   0  0  0  0  0  0  0  0  0  0  0  0
   46.6552   29.9558   49.8789 H   0  0  0  0  0  0  0  0  0  0  0  0
   47.7956   31.2484   49.6449 H   0  0  0  0  0  0  0  0  0  0  0  0
   45.3237   31.9228   50.2767 H   0  0  0  0  0  0  0  0  0  0  0  0
   45.9952   32.7935   48.9079 H   0  0  0  0  0  0  0  0  0  0  0  0
   44.0660   30.4308   48.9425 H   0  0  0  0  0  0  0  0  0  0  0  0
   43.9788   31.8283   47.9159 H   0  0  0  0  0  0  0  0  0  0  0  0
   45.6708   27.6782   48.9708 H   0  0  0  0  0  0  0  0  0  0  0  0
   44.1352   25.8831   47.7568 H   0  0  0  0  0  0  0  0  0  0  0  0
   43.1364   27.0660   45.6621 H   0  0  0  0  0  0  0  0  0  0  0  0
   44.4272   35.7179   46.5075 H   0  0  0  0  0  0  0  0  0  0  0  0
   44.1831   36.4208   44.1176 H   0  0  0  0  0  0  0  0  0  0  0  0
   46.0287   35.7746   40.6301 H   0  0  0  0  0  0  0  0  0  0  0  0
   47.3499   35.5171   42.8827 H   0  0  0  0  0  0  0  0  0  0  0  0
   47.7046   33.8616   42.3451 H   0  0  0  0  0  0  0  0  0  0  0  0
   48.3194   36.4890   40.8851 H   0  0  0  0  0  0  0  0  0  0  0  0
   49.4951   35.2884   41.4977 H   0  0  0  0  0  0  0  0  0  0  0  0
   49.4236   34.4342   39.4224 H   0  0  0  0  0  0  0  0  0  0  0  0
   47.8723   35.3243   39.0498 H   0  0  0  0  0  0  0  0  0  0  0  0
   47.5817   32.9163   38.8615 H   0  0  0  0  0  0  0  0  0  0  0  0
   48.1204   32.7306   40.5814 H   0  0  0  0  0  0  0  0  0  0  0  0
   45.5466   33.7878   39.4663 H   0  0  0  0  0  0  0  0  0  0  0  0
   45.8703   32.7600   40.9173 H   0  0  0  0  0  0  0  0  0  0  0  0
  1  2  1  0
  2  3  1  0
  4  3  1  0
  5 11  1  6
  5  1  1  0
  5  4  1  0
  6  5  1  0
  6  7  1  0
  8  7  2  0
  9  8  1  0
 10  9  1  0
 10  6  2  0
 12 11  1  0
 13 12  2  0
 14 19  2  0
 15 14  1  0
 16 17  1  0
 16 15  2  0
 17 18  2  0
 18 12  1  0
 18 19  1  0
 20 16  1  0
 21 22  1  0
 21 20  1  0
 23 22  1  0
 24 25  1  0
 24 23  1  0
 25 26  1  0
 26 21  1  0
  1 27  1  0
  2 28  1  0
  2 29  1  0
  3 30  1  0
  3 31  1  0
  4 32  1  0
  4 33  1  0
  7 34  1  0
  8 35  1  0
  9 36  1  0
 14 37  1  0
 15 38  1  0
 21 39  1  0
 22 40  1  0
 22 41  1  0
 23 42  1  0
 23 43  1  0
 24 44  1  0
 24 45  1  0
 25 46  1  0
 25 47  1  0
 26 48  1  0
 26 49  1  0
M  ISO  8  27   5  28  13  29  13  30  13  31  13  32  13  33  13  34  14
M  ISO  8  35  14  36   9  37  14  38  14  39  13  40  13  41  13  42  13
M  ISO  7  43  13  44  13  45  13  46  13  47  13  48  13  49  13
M  END
>  <minimizedAffinity>  (1) 
-5.87559223

>  <minimizedRMSD>  (1) 
1.03326142

$$$$
