
     RDKit          3D

 41 44  0  0  1  0  0  0  0  0999 V2000
   47.0280   30.7020   47.6660 N   0  0  0  0  0  0  0  0  0  0  0  0
   47.0130   31.0180   49.1030 C   0  0  0  0  0  0  0  0  0  0  0  0
   45.8710   31.9750   49.1760 C   0  0  0  0  0  0  0  0  0  0  0  0
   44.8240   31.3470   48.3080 C   0  0  0  0  0  0  0  0  0  0  0  0
   45.6990   30.6360   47.2450 C   0  0  2  0  0  0  0  0  0  0  0  0
   45.1360   29.2620   47.1800 C   0  0  0  0  0  0  0  0  0  0  0  0
   45.2100   28.0680   47.8820 C   0  0  0  0  0  0  0  0  0  0  0  0
   44.4010   27.1650   47.2550 C   0  0  0  0  0  0  0  0  0  0  0  0
   43.8410   27.7820   46.1900 N   0  0  0  0  0  0  0  0  0  0  0  0
   44.2870   29.0420   46.1510 N   0  0  0  0  0  0  0  0  0  0  0  0
   45.5530   31.1260   45.9820 O   0  0  0  0  0  0  0  0  0  0  0  0
   46.3860   32.1010   45.3480 C   0  0  0  0  0  0  0  0  0  0  0  0
   47.5370   31.8060   45.0600 O   0  0  0  0  0  0  0  0  0  0  0  0
   44.5910   35.2460   45.8260 C   0  0  0  0  0  0  0  0  0  0  0  0
   44.5670   35.8060   44.5370 C   0  0  0  0  0  0  0  0  0  0  0  0
   45.1720   35.0910   43.5080 C   0  0  0  0  0  0  0  0  0  0  0  0
   45.7520   33.8900   43.8170 N   0  0  0  0  0  0  0  0  0  0  0  0
   45.7320   33.4140   45.1030 C   0  0  0  0  0  0  0  0  0  0  0  0
   45.1670   34.0760   46.0770 N   0  0  0  0  0  0  0  0  0  0  0  0
   45.1970   35.5590   42.2190 O   0  0  0  0  0  0  0  0  0  0  0  0
   44.4310   34.9030   41.2640 C   0  0  0  0  0  0  0  0  0  0  0  0
   43.1590   35.4810   41.1790 C   0  0  0  0  0  0  0  0  0  0  0  0
   42.2040   35.0080   40.2990 C   0  0  0  0  0  0  0  0  0  0  0  0
   42.5010   33.9580   39.4950 N   0  0  0  0  0  0  0  0  0  0  0  0
   43.7470   33.4380   39.6200 C   0  0  0  0  0  0  0  0  0  0  0  0
   44.6970   33.8590   40.4520 N   0  0  0  0  0  0  0  0  0  0  0  0
   47.5264   31.4394   47.1475 H   0  0  0  0  0  0  0  0  0  0  0  0
   46.8268   30.1207   49.7114 H   0  0  0  0  0  0  0  0  0  0  0  0
   47.9629   31.4176   49.4878 H   0  0  0  0  0  0  0  0  0  0  0  0
   45.5120   32.0788   50.2106 H   0  0  0  0  0  0  0  0  0  0  0  0
   46.1436   32.9891   48.8484 H   0  0  0  0  0  0  0  0  0  0  0  0
   44.2114   30.6281   48.8718 H   0  0  0  0  0  0  0  0  0  0  0  0
   44.0974   32.0597   47.8906 H   0  0  0  0  0  0  0  0  0  0  0  0
   45.8129   27.8821   48.7830 H   0  0  0  0  0  0  0  0  0  0  0  0
   44.2343   26.1217   47.5613 H   0  0  0  0  0  0  0  0  0  0  0  0
   43.1832   27.3544   45.5227 H   0  0  0  0  0  0  0  0  0  0  0  0
   44.1174   35.7945   46.6535 H   0  0  0  0  0  0  0  0  0  0  0  0
   44.0860   36.7770   44.3480 H   0  0  0  0  0  0  0  0  0  0  0  0
   42.9132   36.3335   41.8292 H   0  0  0  0  0  0  0  0  0  0  0  0
   41.2114   35.4796   40.2515 H   0  0  0  0  0  0  0  0  0  0  0  0
   43.9970   32.5857   38.9710 H   0  0  0  0  0  0  0  0  0  0  0  0
  1  2  1  0
  2  3  1  0
  4  3  1  0
  5 11  1  6
  5  1  1  0
  5  4  1  0
  6  5  1  0
  6  7  1  0
  8  7  2  0
  9  8  1  0
 10  9  1  0
 10  6  2  0
 12 11  1  0
 13 12  2  0
 14 19  2  0
 15 14  1  0
 16 17  1  0
 16 15  2  0
 17 18  2  0
 18 12  1  0
 18 19  1  0
 20 16  1  0
 21 20  1  0
 22 21  2  0
 23 22  1  0
 24 25  1  0
 24 23  2  0
 25 26  2  0
 26 21  1  0
  1 27  1  0
  2 28  1  0
  2 29  1  0
  3 30  1  0
  3 31  1  0
  4 32  1  0
  4 33  1  0
  7 34  1  0
  8 35  1  0
  9 36  1  0
 14 37  1  0
 15 38  1  0
 22 39  1  0
 23 40  1  0
 25 41  1  0
M  ISO  8  27   5  28  13  29  13  30  13  31  13  32  13  33  13  34  14
M  ISO  7  35  14  36   9  37  14  38  14  39  14  40  14  41  14
M  END
>  <minimizedAffinity>  (1) 
-5.70039082

>  <minimizedRMSD>  (1) 
1.32528365

$$$$
