
     RDKit          3D

 36 38  0  0  1  0  0  0  0  0999 V2000
   47.0230   30.7490   47.6430 N   0  0  0  0  0  0  0  0  0  0  0  0
   47.0140   31.0900   49.0710 C   0  0  0  0  0  0  0  0  0  0  0  0
   45.8640   32.0410   49.1400 C   0  0  0  0  0  0  0  0  0  0  0  0
   44.8170   31.4080   48.2680 C   0  0  0  0  0  0  0  0  0  0  0  0
   45.6880   30.6810   47.2260 C   0  0  2  0  0  0  0  0  0  0  0  0
   45.1260   29.3060   47.1760 C   0  0  0  0  0  0  0  0  0  0  0  0
   45.1830   28.1230   47.9060 C   0  0  0  0  0  0  0  0  0  0  0  0
   44.3910   27.2100   47.2750 C   0  0  0  0  0  0  0  0  0  0  0  0
   43.8590   27.8060   46.1860 N   0  0  0  0  0  0  0  0  0  0  0  0
   44.3080   29.0690   46.1320 N   0  0  0  0  0  0  0  0  0  0  0  0
   45.5450   31.1420   45.9400 O   0  0  0  0  0  0  0  0  0  0  0  0
   46.3820   32.1270   45.3130 C   0  0  0  0  0  0  0  0  0  0  0  0
   47.5610   31.8480   45.0730 O   0  0  0  0  0  0  0  0  0  0  0  0
   44.6200   35.3060   45.6920 C   0  0  0  0  0  0  0  0  0  0  0  0
   44.5200   35.7690   44.3640 C   0  0  0  0  0  0  0  0  0  0  0  0
   45.0590   34.9890   43.3500 C   0  0  0  0  0  0  0  0  0  0  0  0
   45.6590   33.8050   43.6950 N   0  0  0  0  0  0  0  0  0  0  0  0
   45.7190   33.4160   45.0110 C   0  0  0  0  0  0  0  0  0  0  0  0
   45.2100   34.1520   45.9820 N   0  0  0  0  0  0  0  0  0  0  0  0
   45.0080   35.3600   42.0290 O   0  0  0  0  0  0  0  0  0  0  0  0
   44.0950   34.8090   41.1210 C   0  0  0  0  0  0  0  0  0  0  0  0
   44.8420   34.0720   40.1950 F   0  0  0  0  0  0  0  0  0  0  0  0
   43.4110   35.7950   40.4300 F   0  0  0  0  0  0  0  0  0  0  0  0
   43.1720   34.0100   41.7620 F   0  0  0  0  0  0  0  0  0  0  0  0
   47.5229   31.4748   47.1099 H   0  0  0  0  0  0  0  0  0  0  0  0
   46.8394   30.2016   49.6957 H   0  0  0  0  0  0  0  0  0  0  0  0
   47.9634   31.5051   49.4401 H   0  0  0  0  0  0  0  0  0  0  0  0
   45.5024   32.1432   50.1738 H   0  0  0  0  0  0  0  0  0  0  0  0
   46.1329   33.0555   48.8107 H   0  0  0  0  0  0  0  0  0  0  0  0
   44.1944   30.7008   48.8357 H   0  0  0  0  0  0  0  0  0  0  0  0
   44.1003   32.1218   47.8357 H   0  0  0  0  0  0  0  0  0  0  0  0
   45.7623   27.9547   48.8259 H   0  0  0  0  0  0  0  0  0  0  0  0
   44.2164   26.1724   47.5958 H   0  0  0  0  0  0  0  0  0  0  0  0
   43.2173   27.3655   45.5114 H   0  0  0  0  0  0  0  0  0  0  0  0
   44.1998   35.9144   46.5064 H   0  0  0  0  0  0  0  0  0  0  0  0
   44.0266   36.7255   44.1368 H   0  0  0  0  0  0  0  0  0  0  0  0
  1  2  1  0
  2  3  1  0
  4  3  1  0
  5 11  1  6
  5  1  1  0
  5  4  1  0
  6  5  1  0
  6  7  1  0
  8  7  2  0
  9  8  1  0
 10  9  1  0
 10  6  2  0
 12 11  1  0
 13 12  2  0
 14 19  2  0
 15 14  1  0
 16 17  1  0
 16 15  2  0
 17 18  2  0
 18 12  1  0
 18 19  1  0
 20 16  1  0
 21 24  1  0
 21 20  1  0
 22 21  1  0
 23 21  1  0
  1 25  1  0
  2 26  1  0
  2 27  1  0
  3 28  1  0
  3 29  1  0
  4 30  1  0
  4 31  1  0
  7 32  1  0
  8 33  1  0
  9 34  1  0
 14 35  1  0
 15 36  1  0
M  ISO  8  25   5  26  13  27  13  28  13  29  13  30  13  31  13  32  14
M  ISO  4  33  14  34   9  35  14  36  14
M  END
>  <minimizedAffinity>  (1) 
-5.38692331

>  <minimizedRMSD>  (1) 
0.420289755

$$$$
