
     RDKit          3D

 19 19  0  0  0  0  0  0  0  0999 V2000
   45.8610   34.4350   41.1500 C   0  0  0  0  0  0  0  0  0  0  0  0
   47.1340   34.7990   41.5940 C   0  0  0  0  0  0  0  0  0  0  0  0
   48.2360   34.4890   40.7720 C   0  0  0  0  0  0  0  0  0  0  0  0
   47.9920   33.8480   39.5850 N   0  0  0  0  0  0  0  0  0  0  0  0
   46.7480   33.5230   39.2100 C   0  0  0  0  0  0  0  0  0  0  0  0
   45.7070   33.8100   39.9760 N   0  0  0  0  0  0  0  0  0  0  0  0
   44.7240   34.7540   41.9970 C   0  0  0  0  0  0  0  0  0  0  0  0
   43.8130   35.5150   41.5380 O   0  0  0  0  0  0  0  0  0  0  0  0
   44.6780   34.2150   43.2810 O   0  0  0  0  0  0  0  0  0  0  0  0
   45.1830   34.9900   44.3530 C   0  0  0  0  0  0  0  0  0  0  0  0
   44.2910   35.0250   45.4230 F   0  0  0  0  0  0  0  0  0  0  0  0
   46.3580   34.4520   44.8010 F   0  0  0  0  0  0  0  0  0  0  0  0
   45.3550   36.2710   43.8650 F   0  0  0  0  0  0  0  0  0  0  0  0
   46.6180   32.8440   37.9260 C   0  0  0  0  0  0  0  0  0  0  0  0
   46.5700   31.5940   37.8760 O   0  0  0  0  0  0  0  0  0  0  0  0
   46.5400   33.4910   36.6990 O   0  0  0  0  0  0  0  0  0  0  0  0
   47.2725   35.3125   42.5569 H   0  0  0  0  0  0  0  0  0  0  0  0
   49.2603   34.7532   41.0736 H   0  0  0  0  0  0  0  0  0  0  0  0
   46.4525   32.9634   35.8659 H   0  0  0  0  0  0  0  0  0  0  0  0
  1  2  2  0
  1  7  1  0
  3  2  1  0
  4  3  2  0
  5  4  1  0
  5  6  2  0
  6  1  1  0
  7  9  1  0
  8  7  2  0
  9 10  1  0
 10 12  1  0
 10 11  1  0
 13 10  1  0
 14  5  1  0
 15 14  2  0
 16 14  1  0
  2 17  1  0
  3 18  1  0
 16 19  1  0
M  ISO  3  17  14  18  14  19   3
M  END
>  <minimizedAffinity>  (1) 
-3.85556173

>  <minimizedRMSD>  (1) 
0.59723115

$$$$
