
     RDKit          3D

 39 41  0  0  1  0  0  0  0  0999 V2000
   47.0080   30.6930   47.7450 N   0  0  0  0  0  0  0  0  0  0  0  0
   46.9460   31.0730   49.1630 C   0  0  0  0  0  0  0  0  0  0  0  0
   45.8070   32.0370   49.1580 C   0  0  0  0  0  0  0  0  0  0  0  0
   44.7890   31.3800   48.2750 C   0  0  0  0  0  0  0  0  0  0  0  0
   45.7060   30.6260   47.2900 C   0  0  2  0  0  0  0  0  0  0  0  0
   45.1250   29.2490   47.2490 C   0  0  0  0  0  0  0  0  0  0  0  0
   45.1600   28.0820   48.0000 C   0  0  0  0  0  0  0  0  0  0  0  0
   44.3740   27.1590   47.3810 C   0  0  0  0  0  0  0  0  0  0  0  0
   43.8620   27.7360   46.2740 N   0  0  0  0  0  0  0  0  0  0  0  0
   44.3130   28.9900   46.1950 N   0  0  0  0  0  0  0  0  0  0  0  0
   45.5950   31.0530   45.9920 O   0  0  0  0  0  0  0  0  0  0  0  0
   46.5830   31.8180   45.2760 C   0  0  0  0  0  0  0  0  0  0  0  0
   47.7000   31.3480   45.1150 O   0  0  0  0  0  0  0  0  0  0  0  0
   44.9080   35.0590   45.0620 C   0  0  0  0  0  0  0  0  0  0  0  0
   45.3060   35.5600   43.8250 C   0  0  0  0  0  0  0  0  0  0  0  0
   46.1600   34.7680   43.0580 C   0  0  0  0  0  0  0  0  0  0  0  0
   46.5550   33.5560   43.5640 N   0  0  0  0  0  0  0  0  0  0  0  0
   46.1120   33.1420   44.7960 C   0  0  0  0  0  0  0  0  0  0  0  0
   45.3100   33.8780   45.5240 N   0  0  0  0  0  0  0  0  0  0  0  0
   46.6210   35.1590   41.8170 O   0  0  0  0  0  0  0  0  0  0  0  0
   47.8220   34.7600   41.2320 C   0  0  0  0  0  0  0  0  0  0  0  0
   48.9430   35.7610   41.4940 C   0  0  0  0  0  0  0  0  0  0  0  0
   47.5336   31.4001   47.2115 H   0  0  0  0  0  0  0  0  0  0  0  0
   46.7353   30.2041   49.8039 H   0  0  0  0  0  0  0  0  0  0  0  0
   47.8847   31.4870   49.5598 H   0  0  0  0  0  0  0  0  0  0  0  0
   45.4105   32.1810   50.1739 H   0  0  0  0  0  0  0  0  0  0  0  0
   46.0967   33.0372   48.8035 H   0  0  0  0  0  0  0  0  0  0  0  0
   44.1475   30.6887   48.8413 H   0  0  0  0  0  0  0  0  0  0  0  0
   44.0821   32.0753   47.7986 H   0  0  0  0  0  0  0  0  0  0  0  0
   45.7241   27.9298   48.9320 H   0  0  0  0  0  0  0  0  0  0  0  0
   44.1897   26.1294   47.7215 H   0  0  0  0  0  0  0  0  0  0  0  0
   43.2275   27.2834   45.6006 H   0  0  0  0  0  0  0  0  0  0  0  0
   44.2326   35.6655   45.6833 H   0  0  0  0  0  0  0  0  0  0  0  0
   44.9606   36.5412   43.4673 H   0  0  0  0  0  0  0  0  0  0  0  0
   47.6749   34.6672   40.1458 H   0  0  0  0  0  0  0  0  0  0  0  0
   48.1142   33.7972   41.6765 H   0  0  0  0  0  0  0  0  0  0  0  0
   49.0796   35.8830   42.5787 H   0  0  0  0  0  0  0  0  0  0  0  0
   49.8771   35.3910   41.0461 H   0  0  0  0  0  0  0  0  0  0  0  0
   48.6806   36.7308   41.0461 H   0  0  0  0  0  0  0  0  0  0  0  0
  1  2  1  0
  3  2  1  0
  4  3  1  0
  5 11  1  6
  5  1  1  0
  5  4  1  0
  6  5  1  0
  6  7  1  0
  8  7  2  0
  9  8  1  0
 10  9  1  0
 10  6  2  0
 12 11  1  0
 13 12  2  0
 14 19  2  0
 15 14  1  0
 16 17  1  0
 16 15  2  0
 17 18  2  0
 18 12  1  0
 18 19  1  0
 20 16  1  0
 21 22  1  0
 21 20  1  0
  1 23  1  0
  2 24  1  0
  2 25  1  0
  3 26  1  0
  3 27  1  0
  4 28  1  0
  4 29  1  0
  7 30  1  0
  8 31  1  0
  9 32  1  0
 14 33  1  0
 15 34  1  0
 21 35  1  0
 21 36  1  0
 22 37  1  0
 22 38  1  0
 22 39  1  0
M  ISO  8  23   5  24  13  25  13  26  13  27  13  28  13  29  13  30  14
M  ISO  8  31  14  32   9  33  14  34  14  35   8  36   8  37   8  38   8
M  ISO  1  39   8
M  END
>  <minimizedAffinity>  (1) 
-5.11670446

>  <minimizedRMSD>  (1) 
1.14308023

$$$$
