
     RDKit          3D

 36 38  0  0  1  0  0  0  0  0999 V2000
   47.0340   30.7610   47.5940 N   0  0  0  0  0  0  0  0  0  0  0  0
   47.0300   31.1130   49.0240 C   0  0  0  0  0  0  0  0  0  0  0  0
   45.8800   32.0620   49.1090 C   0  0  0  0  0  0  0  0  0  0  0  0
   44.8270   31.4270   48.2480 C   0  0  0  0  0  0  0  0  0  0  0  0
   45.6900   30.7020   47.1950 C   0  0  2  0  0  0  0  0  0  0  0  0
   45.1280   29.3270   47.1500 C   0  0  0  0  0  0  0  0  0  0  0  0
   45.1680   28.1530   47.8840 C   0  0  0  0  0  0  0  0  0  0  0  0
   44.3910   27.2320   47.2580 C   0  0  0  0  0  0  0  0  0  0  0  0
   43.8710   27.8230   46.1460 N   0  0  0  0  0  0  0  0  0  0  0  0
   44.3190   29.0830   46.0880 N   0  0  0  0  0  0  0  0  0  0  0  0
   45.5380   31.1700   45.9180 O   0  0  0  0  0  0  0  0  0  0  0  0
   46.3700   32.1490   45.2780 C   0  0  0  0  0  0  0  0  0  0  0  0
   47.5470   31.8640   45.0270 O   0  0  0  0  0  0  0  0  0  0  0  0
   44.6240   35.3240   45.6500 C   0  0  0  0  0  0  0  0  0  0  0  0
   44.5220   35.8000   44.3370 C   0  0  0  0  0  0  0  0  0  0  0  0
   45.0650   35.0120   43.3210 C   0  0  0  0  0  0  0  0  0  0  0  0
   45.6570   33.8320   43.6610 N   0  0  0  0  0  0  0  0  0  0  0  0
   45.7190   33.4290   44.9750 C   0  0  0  0  0  0  0  0  0  0  0  0
   45.2080   34.1700   45.9480 N   0  0  0  0  0  0  0  0  0  0  0  0
   45.0120   35.3980   42.0010 O   0  0  0  0  0  0  0  0  0  0  0  0
   44.2410   34.6990   41.0320 C   0  0  0  0  0  0  0  0  0  0  0  0
   47.5350   31.4794   47.0520 H   0  0  0  0  0  0  0  0  0  0  0  0
   46.8633   30.2262   49.6531 H   0  0  0  0  0  0  0  0  0  0  0  0
   47.9811   31.5371   49.3782 H   0  0  0  0  0  0  0  0  0  0  0  0
   45.5299   32.1614   50.1470 H   0  0  0  0  0  0  0  0  0  0  0  0
   46.1422   33.0784   48.7802 H   0  0  0  0  0  0  0  0  0  0  0  0
   44.2123   30.7177   48.8217 H   0  0  0  0  0  0  0  0  0  0  0  0
   44.1041   32.1392   47.8234 H   0  0  0  0  0  0  0  0  0  0  0  0
   45.7325   27.9940   48.8146 H   0  0  0  0  0  0  0  0  0  0  0  0
   44.2138   26.1978   47.5883 H   0  0  0  0  0  0  0  0  0  0  0  0
   43.2402   27.3761   45.4654 H   0  0  0  0  0  0  0  0  0  0  0  0
   44.2038   35.9301   46.4661 H   0  0  0  0  0  0  0  0  0  0  0  0
   44.0321   36.7594   44.1146 H   0  0  0  0  0  0  0  0  0  0  0  0
   43.5186   34.0441   41.5412 H   0  0  0  0  0  0  0  0  0  0  0  0
   43.7007   35.4215   40.4026 H   0  0  0  0  0  0  0  0  0  0  0  0
   44.9072   34.0907   40.4026 H   0  0  0  0  0  0  0  0  0  0  0  0
  1  2  1  0
  2  3  1  0
  4  3  1  0
  5 11  1  6
  5  1  1  0
  5  4  1  0
  6  5  1  0
  6  7  1  0
  8  7  2  0
  9  8  1  0
 10  9  1  0
 10  6  2  0
 12 11  1  0
 13 12  2  0
 14 19  2  0
 15 14  1  0
 16 17  1  0
 16 15  2  0
 17 18  2  0
 18 12  1  0
 18 19  1  0
 20 16  1  0
 21 20  1  0
  1 22  1  0
  2 23  1  0
  2 24  1  0
  3 25  1  0
  3 26  1  0
  4 27  1  0
  4 28  1  0
  7 29  1  0
  8 30  1  0
  9 31  1  0
 14 32  1  0
 15 33  1  0
 21 34  1  0
 21 35  1  0
 21 36  1  0
M  ISO  8  22   5  23  13  24  13  25  13  26  13  27  13  28  13  29  14
M  ISO  7  30  14  31   9  32  14  33  14  34   8  35   8  36   8
M  END
>  <minimizedAffinity>  (1) 
-4.94549704

>  <minimizedRMSD>  (1) 
0.425450981

$$$$
