
     RDKit          3D

 27 28  0  0  0  0  0  0  0  0999 V2000
   47.5380   34.8290   41.4850 C   0  0  0  0  0  0  0  0  0  0  0  0
   48.7370   33.9780   41.4800 N   0  0  0  0  0  0  0  0  0  0  0  0
   49.6010   34.2260   42.4800 C   0  0  0  0  0  0  0  0  0  0  0  0
   50.7410   33.4230   42.4810 C   0  0  0  0  0  0  0  0  0  0  0  0
   50.9250   32.4590   41.5100 C   0  0  0  0  0  0  0  0  0  0  0  0
   52.0900   31.6760   41.5550 N   0  0  0  0  0  0  0  0  0  0  0  0
   49.9950   32.2810   40.5380 N   0  0  0  0  0  0  0  0  0  0  0  0
   48.8930   33.0460   40.5230 C   0  0  0  0  0  0  0  0  0  0  0  0
   48.0000   32.9100   39.6290 O   0  0  0  0  0  0  0  0  0  0  0  0
   46.3350   33.9480   41.8460 C   0  0  0  0  0  0  0  0  0  0  0  0
   45.1490   35.6600   43.1500 C   0  0  0  0  0  0  0  0  0  0  0  0
   45.7820   34.4090   43.0980 C   0  0  0  0  0  0  0  0  0  0  0  0
   45.8390   33.6750   44.2860 C   0  0  0  0  0  0  0  0  0  0  0  0
   45.2910   34.1930   45.4080 N   0  0  0  0  0  0  0  0  0  0  0  0
   44.6880   35.4060   45.4140 C   0  0  0  0  0  0  0  0  0  0  0  0
   44.6180   36.1330   44.2910 N   0  0  0  0  0  0  0  0  0  0  0  0
   47.3907   35.2728   40.4893 H   0  0  0  0  0  0  0  0  0  0  0  0
   47.6494   35.6432   42.2162 H   0  0  0  0  0  0  0  0  0  0  0  0
   49.4223   35.0023   43.2386 H   0  0  0  0  0  0  0  0  0  0  0  0
   51.5018   33.5591   43.2638 H   0  0  0  0  0  0  0  0  0  0  0  0
   52.2506   30.9502   40.8420 H   0  0  0  0  0  0  0  0  0  0  0  0
   52.7839   31.8275   42.3010 H   0  0  0  0  0  0  0  0  0  0  0  0
   45.5730   34.0203   41.0559 H   0  0  0  0  0  0  0  0  0  0  0  0
   46.6536   32.8994   41.9407 H   0  0  0  0  0  0  0  0  0  0  0  0
   45.0857   36.2682   42.2356 H   0  0  0  0  0  0  0  0  0  0  0  0
   46.3238   32.6879   44.3078 H   0  0  0  0  0  0  0  0  0  0  0  0
   44.2534   35.7962   46.3461 H   0  0  0  0  0  0  0  0  0  0  0  0
  1 10  1  0
  2  1  1  0
  2  3  1  0
  3  4  2  0
  5  6  1  0
  5  4  1  0
  7  5  2  0
  8  7  1  0
  8  2  1  0
  9  8  2  0
 10 12  1  0
 11 16  2  0
 12 11  1  0
 12 13  2  0
 13 14  1  0
 14 15  2  0
 16 15  1  0
  1 17  1  0
  1 18  1  0
  3 19  1  0
  4 20  1  0
  6 21  1  0
  6 22  1  0
 10 23  1  0
 10 24  1  0
 11 25  1  0
 13 26  1  0
 15 27  1  0
M  ISO  8  17   8  18   8  19  14  20  14  23   8  24   8  25  14  26  14
M  ISO  1  27  14
M  END
>  <minimizedAffinity>  (1) 
-4.59187889

>  <minimizedRMSD>  (1) 
3.57086825

$$$$
