
     RDKit          3D

 43 45  0  0  1  0  0  0  0  0999 V2000
   46.6930   34.3140   40.5940 C   0  0  1  0  0  0  0  0  0  0  0  0
   47.8590   33.8990   39.6730 C   0  0  0  0  0  0  0  0  0  0  0  0
   47.2490   33.4800   38.3610 C   0  0  0  0  0  0  0  0  0  0  0  0
   46.4240   32.2330   38.5530 C   0  0  0  0  0  0  0  0  0  0  0  0
   46.2490   31.9060   40.0060 C   0  0  0  0  0  0  0  0  0  0  0  0
   45.8500   33.1410   40.8360 C   0  0  2  0  0  0  0  0  0  0  0  0
   44.4360   33.2080   40.7160 N   0  0  0  0  0  0  0  0  0  0  0  0
   43.8700   33.8850   39.6640 C   0  0  0  0  0  0  0  0  0  0  0  0
   42.5160   34.0000   39.4780 C   0  0  0  0  0  0  0  0  0  0  0  0
   41.6310   33.4260   40.3650 C   0  0  0  0  0  0  0  0  0  0  0  0
   40.2290   33.5120   40.2260 N   0  0  0  0  0  0  0  0  0  0  0  0
   42.2050   32.7690   41.3870 N   0  0  0  0  0  0  0  0  0  0  0  0
   43.5400   32.6800   41.5320 C   0  0  0  0  0  0  0  0  0  0  0  0
   43.8950   32.0410   42.5260 O   0  0  0  0  0  0  0  0  0  0  0  0
   47.3720   34.8230   41.8920 C   0  0  0  0  0  0  0  0  0  0  0  0
   47.0680   33.7760   42.9340 C   0  0  0  0  0  0  0  0  0  0  0  0
   46.0810   33.6390   45.1590 C   0  0  0  0  0  0  0  0  0  0  0  0
   46.1810   34.3040   43.9210 C   0  0  0  0  0  0  0  0  0  0  0  0
   45.4210   35.4250   43.6950 C   0  0  0  0  0  0  0  0  0  0  0  0
   44.5900   35.8490   44.6980 N   0  0  0  0  0  0  0  0  0  0  0  0
   44.4960   35.2070   45.8900 C   0  0  0  0  0  0  0  0  0  0  0  0
   45.2450   34.1010   46.1170 N   0  0  0  0  0  0  0  0  0  0  0  0
   46.0437   35.0932   40.1683 H   0  0  0  0  0  0  0  0  0  0  0  0
   48.5411   34.7482   39.5195 H   0  0  0  0  0  0  0  0  0  0  0  0
   48.4407   33.0782   40.1179 H   0  0  0  0  0  0  0  0  0  0  0  0
   48.0499   33.2790   37.6342 H   0  0  0  0  0  0  0  0  0  0  0  0
   46.6023   34.2879   37.9882 H   0  0  0  0  0  0  0  0  0  0  0  0
   45.4336   32.3868   38.0998 H   0  0  0  0  0  0  0  0  0  0  0  0
   46.9498   31.3949   38.0723 H   0  0  0  0  0  0  0  0  0  0  0  0
   45.4627   31.1432   40.1053 H   0  0  0  0  0  0  0  0  0  0  0  0
   47.2130   31.5391   40.3882 H   0  0  0  0  0  0  0  0  0  0  0  0
   46.0694   33.0777   41.9120 H   0  0  0  0  0  0  0  0  0  0  0  0
   44.5383   34.3606   38.9311 H   0  0  0  0  0  0  0  0  0  0  0  0
   42.1319   34.5569   38.6107 H   0  0  0  0  0  0  0  0  0  0  0  0
   39.6142   33.0632   40.9199 H   0  0  0  0  0  0  0  0  0  0  0  0
   39.8207   34.0236   39.4307 H   0  0  0  0  0  0  0  0  0  0  0  0
   48.4582   34.9190   41.7470 H   0  0  0  0  0  0  0  0  0  0  0  0
   47.0024   35.8162   42.1871 H   0  0  0  0  0  0  0  0  0  0  0  0
   46.5971   32.9078   42.4498 H   0  0  0  0  0  0  0  0  0  0  0  0
   48.0062   33.4720   43.4211 H   0  0  0  0  0  0  0  0  0  0  0  0
   46.6857   32.7397   45.3476 H   0  0  0  0  0  0  0  0  0  0  0  0
   45.4777   35.9655   42.7386 H   0  0  0  0  0  0  0  0  0  0  0  0
   43.8151   35.5827   46.6680 H   0  0  0  0  0  0  0  0  0  0  0  0
  1  6  1  0
  1 15  1  0
  2  1  1  0
  3  4  1  0
  3  2  1  0
  4  5  1  0
  5  6  1  0
  7  6  1  0
  7 13  1  0
  8  7  1  0
  9  8  2  0
  9 10  1  0
 10 12  2  0
 11 10  1  0
 12 13  1  0
 13 14  2  0
 15 16  1  0
 16 18  1  0
 17 22  2  0
 18 17  1  0
 19 18  2  0
 19 20  1  0
 20 21  2  0
 21 22  1  0
  1 23  1  6
  2 24  1  0
  2 25  1  0
  3 26  1  0
  3 27  1  0
  4 28  1  0
  4 29  1  0
  5 30  1  0
  5 31  1  0
  6 32  1  1
  8 33  1  0
  9 34  1  0
 11 35  1  0
 11 36  1  0
 15 37  1  0
 15 38  1  0
 16 39  1  0
 16 40  1  0
 17 41  1  0
 19 42  1  0
 21 43  1  0
M  ISO  8  23  13  24  13  25  13  26  13  27  13  28  13  29  13  30  13
M  ISO  8  31  13  32  13  33  14  34  14  37   8  38   8  39   8  40   8
M  ISO  3  41  14  42  14  43  14
M  END
>  <minimizedAffinity>  (1) 
-4.91108131

>  <minimizedRMSD>  (1) 
3.05171824

$$$$
