
     RDKit          3D

 46 49  0  0  1  0  0  0  0  0999 V2000
   46.9340   34.2860   40.5810 C   0  0  1  0  0  0  0  0  0  0  0  0
   48.1460   34.4290   39.6420 C   0  0  0  0  0  0  0  0  0  0  0  0
   47.6960   33.9400   38.2870 C   0  0  0  0  0  0  0  0  0  0  0  0
   47.4650   32.4650   38.3400 C   0  0  0  0  0  0  0  0  0  0  0  0
   47.4600   31.9440   39.7670 C   0  0  0  0  0  0  0  0  0  0  0  0
   46.6100   32.8320   40.6800 C   0  0  2  0  0  0  0  0  0  0  0  0
   45.2360   32.5350   40.2640 C   0  0  0  0  0  0  0  0  0  0  0  0
   45.0570   31.2770   39.8120 N   0  0  0  0  0  0  0  0  0  0  0  0
   43.8940   30.7930   39.3500 C   0  0  0  0  0  0  0  0  0  0  0  0
   42.7840   31.5890   39.3170 N   0  0  0  0  0  0  0  0  0  0  0  0
   42.8690   32.8550   39.7490 C   0  0  0  0  0  0  0  0  0  0  0  0
   41.8310   33.7520   39.7820 C   0  0  0  0  0  0  0  0  0  0  0  0
   42.0030   35.0550   40.2620 C   0  0  0  0  0  0  0  0  0  0  0  0
   43.2520   35.4840   40.7280 C   0  0  0  0  0  0  0  0  0  0  0  0
   44.2830   34.5920   40.6950 C   0  0  0  0  0  0  0  0  0  0  0  0
   44.0750   33.3170   40.2150 C   0  0  0  0  0  0  0  0  0  0  0  0
   47.3270   34.8710   41.9550 C   0  0  0  0  0  0  0  0  0  0  0  0
   47.0690   33.7530   42.9390 C   0  0  0  0  0  0  0  0  0  0  0  0
   46.1880   33.4750   45.1940 C   0  0  0  0  0  0  0  0  0  0  0  0
   46.2070   34.2110   43.9950 C   0  0  0  0  0  0  0  0  0  0  0  0
   45.3990   35.3100   43.8530 C   0  0  0  0  0  0  0  0  0  0  0  0
   44.6010   35.6370   44.9110 N   0  0  0  0  0  0  0  0  0  0  0  0
   44.5780   34.9300   46.0700 C   0  0  0  0  0  0  0  0  0  0  0  0
   45.3810   33.8430   46.2030 N   0  0  0  0  0  0  0  0  0  0  0  0
   46.0497   34.8246   40.2096 H   0  0  0  0  0  0  0  0  0  0  0  0
   48.4584   35.4820   39.5819 H   0  0  0  0  0  0  0  0  0  0  0  0
   49.0055   33.8493   40.0096 H   0  0  0  0  0  0  0  0  0  0  0  0
   48.4727   34.1627   37.5406 H   0  0  0  0  0  0  0  0  0  0  0  0
   46.7610   34.4472   38.0067 H   0  0  0  0  0  0  0  0  0  0  0  0
   46.4934   32.2402   37.8758 H   0  0  0  0  0  0  0  0  0  0  0  0
   48.2861   31.9714   37.7994 H   0  0  0  0  0  0  0  0  0  0  0  0
   47.0483   30.9240   39.7747 H   0  0  0  0  0  0  0  0  0  0  0  0
   48.4940   31.9489   40.1422 H   0  0  0  0  0  0  0  0  0  0  0  0
   46.7954   32.6171   41.7427 H   0  0  0  0  0  0  0  0  0  0  0  0
   43.8340   29.7529   38.9970 H   0  0  0  0  0  0  0  0  0  0  0  0
   40.8397   33.4391   39.4224 H   0  0  0  0  0  0  0  0  0  0  0  0
   41.1494   35.7487   40.2734 H   0  0  0  0  0  0  0  0  0  0  0  0
   43.3966   36.5061   41.1079 H   0  0  0  0  0  0  0  0  0  0  0  0
   45.2801   34.8900   41.0513 H   0  0  0  0  0  0  0  0  0  0  0  0
   48.3888   35.1582   41.9645 H   0  0  0  0  0  0  0  0  0  0  0  0
   46.7553   35.7786   42.1986 H   0  0  0  0  0  0  0  0  0  0  0  0
   46.5888   32.9125   42.4165 H   0  0  0  0  0  0  0  0  0  0  0  0
   48.0263   33.4277   43.3723 H   0  0  0  0  0  0  0  0  0  0  0  0
   46.8371   32.5940   45.3057 H   0  0  0  0  0  0  0  0  0  0  0  0
   45.3942   35.9025   42.9262 H   0  0  0  0  0  0  0  0  0  0  0  0
   43.9153   35.2348   46.8933 H   0  0  0  0  0  0  0  0  0  0  0  0
  1  6  1  0
  1 17  1  0
  2  1  1  0
  3  4  1  0
  3  2  1  0
  4  5  1  0
  5  6  1  0
  7  6  1  0
  8  7  2  0
  9  8  1  0
 10  9  2  0
 10 11  1  0
 11 12  1  0
 11 16  2  0
 12 13  2  0
 13 14  1  0
 15 14  2  0
 16  7  1  0
 16 15  1  0
 17 18  1  0
 18 20  1  0
 19 24  2  0
 20 19  1  0
 21 20  2  0
 21 22  1  0
 22 23  2  0
 23 24  1  0
  1 25  1  6
  2 26  1  0
  2 27  1  0
  3 28  1  0
  3 29  1  0
  4 30  1  0
  4 31  1  0
  5 32  1  0
  5 33  1  0
  6 34  1  1
  9 35  1  0
 12 36  1  0
 13 37  1  0
 14 38  1  0
 15 39  1  0
 17 40  1  0
 17 41  1  0
 18 42  1  0
 18 43  1  0
 19 44  1  0
 21 45  1  0
 23 46  1  0
M  ISO  8  25  13  26  13  27  13  28  13  29  13  30  13  31  13  32  13
M  ISO  8  33  13  34  13  35  14  36  14  37  14  38  14  39  14  40   8
M  ISO  6  41   8  42   8  43   8  44  14  45  14  46  14
M  END
>  <minimizedAffinity>  (1) 
-5.31833553

>  <minimizedRMSD>  (1) 
1.6998657

$$$$
