
     RDKit          3D

 45 47  0  0  1  0  0  0  0  0999 V2000
   46.5830   34.2150   40.5400 C   0  0  1  0  0  0  0  0  0  0  0  0
   47.5690   33.6650   39.5180 C   0  0  0  0  0  0  0  0  0  0  0  0
   46.7510   33.2840   38.2950 C   0  0  0  0  0  0  0  0  0  0  0  0
   45.8830   32.0860   38.6340 C   0  0  0  0  0  0  0  0  0  0  0  0
   45.8500   31.8410   40.1160 C   0  0  0  0  0  0  0  0  0  0  0  0
   45.6310   33.1260   40.9150 C   0  0  2  0  0  0  0  0  0  0  0  0
   44.2420   33.4050   40.7890 N   0  0  0  0  0  0  0  0  0  0  0  0
   43.6460   34.1760   39.8910 C   0  0  0  0  0  0  0  0  0  0  0  0
   42.2900   34.4140   39.8120 C   0  0  0  0  0  0  0  0  0  0  0  0
   41.7150   35.3040   38.7580 C   0  0  0  0  0  0  0  0  0  0  0  0
   41.4660   33.7980   40.7470 C   0  0  0  0  0  0  0  0  0  0  0  0
   40.2310   33.9920   40.7030 O   0  0  0  0  0  0  0  0  0  0  0  0
   42.0730   33.0160   41.6550 N   0  0  0  0  0  0  0  0  0  0  0  0
   43.4080   32.8110   41.6970 C   0  0  0  0  0  0  0  0  0  0  0  0
   43.8600   32.0450   42.6120 O   0  0  0  0  0  0  0  0  0  0  0  0
   47.3480   34.7070   41.7860 C   0  0  0  0  0  0  0  0  0  0  0  0
   47.0450   33.7090   42.8690 C   0  0  0  0  0  0  0  0  0  0  0  0
   46.0450   33.6310   45.1010 C   0  0  0  0  0  0  0  0  0  0  0  0
   46.1810   34.2700   43.8630 C   0  0  0  0  0  0  0  0  0  0  0  0
   45.4640   35.4190   43.6360 C   0  0  0  0  0  0  0  0  0  0  0  0
   44.6510   35.8910   44.6220 N   0  0  0  0  0  0  0  0  0  0  0  0
   44.5300   35.2610   45.8170 C   0  0  0  0  0  0  0  0  0  0  0  0
   45.2330   34.1260   46.0510 N   0  0  0  0  0  0  0  0  0  0  0  0
   46.0264   35.0627   40.1139 H   0  0  0  0  0  0  0  0  0  0  0  0
   48.3120   34.4323   39.2549 H   0  0  0  0  0  0  0  0  0  0  0  0
   48.1161   32.7985   39.9177 H   0  0  0  0  0  0  0  0  0  0  0  0
   47.4260   33.0272   37.4653 H   0  0  0  0  0  0  0  0  0  0  0  0
   46.1154   34.1302   37.9950 H   0  0  0  0  0  0  0  0  0  0  0  0
   44.8590   32.2727   38.2783 H   0  0  0  0  0  0  0  0  0  0  0  0
   46.3081   31.1979   38.1435 H   0  0  0  0  0  0  0  0  0  0  0  0
   45.0309   31.1418   40.3402 H   0  0  0  0  0  0  0  0  0  0  0  0
   46.8258   31.4264   40.4090 H   0  0  0  0  0  0  0  0  0  0  0  0
   45.8740   33.0214   41.9827 H   0  0  0  0  0  0  0  0  0  0  0  0
   44.2875   34.6680   39.1451 H   0  0  0  0  0  0  0  0  0  0  0  0
   41.1770   36.1367   39.2347 H   0  0  0  0  0  0  0  0  0  0  0  0
   42.5268   35.7026   38.1318 H   0  0  0  0  0  0  0  0  0  0  0  0
   41.0180   34.7278   38.1318 H   0  0  0  0  0  0  0  0  0  0  0  0
   41.4872   32.5456   42.3597 H   0  0  0  0  0  0  0  0  0  0  0  0
   48.4290   34.7385   41.5849 H   0  0  0  0  0  0  0  0  0  0  0  0
   47.0438   35.7241   42.0741 H   0  0  0  0  0  0  0  0  0  0  0  0
   46.5550   32.8317   42.4216 H   0  0  0  0  0  0  0  0  0  0  0  0
   47.9905   33.4211   43.3518 H   0  0  0  0  0  0  0  0  0  0  0  0
   46.6115   32.7093   45.2996 H   0  0  0  0  0  0  0  0  0  0  0  0
   45.5447   35.9487   42.6753 H   0  0  0  0  0  0  0  0  0  0  0  0
   43.8648   35.6690   46.5922 H   0  0  0  0  0  0  0  0  0  0  0  0
  1  6  1  0
  1 16  1  0
  2  1  1  0
  3  4  1  0
  3  2  1  0
  4  5  1  0
  5  6  1  0
  7  6  1  0
  7 14  1  0
  8  7  1  0
  9  8  2  0
  9 11  1  0
 10  9  1  0
 11 13  1  0
 12 11  2  0
 13 14  1  0
 14 15  2  0
 16 17  1  0
 17 19  1  0
 18 23  2  0
 19 18  1  0
 20 19  2  0
 20 21  1  0
 21 22  2  0
 22 23  1  0
  1 24  1  6
  2 25  1  0
  2 26  1  0
  3 27  1  0
  3 28  1  0
  4 29  1  0
  4 30  1  0
  5 31  1  0
  5 32  1  0
  6 33  1  1
  8 34  1  0
 10 35  1  0
 10 36  1  0
 10 37  1  0
 13 38  1  0
 16 39  1  0
 16 40  1  0
 17 41  1  0
 17 42  1  0
 18 43  1  0
 20 44  1  0
 22 45  1  0
M  ISO  8  24  13  25  13  26  13  27  13  28  13  29  13  30  13  31  13
M  ISO  8  32  13  33  13  34  14  35   8  36   8  37   8  38   9  39   8
M  ISO  6  40   8  41   8  42   8  43  14  44  14  45  14
M  END
>  <minimizedAffinity>  (1) 
-5.46120596

>  <minimizedRMSD>  (1) 
3.52485561

$$$$
