
     RDKit          3D

 39 41  0  0  1  0  0  0  0  0999 V2000
   47.4780   34.2780   41.0180 C   0  0  1  0  0  0  0  0  0  0  0  0
   48.3510   34.9800   39.9730 C   0  0  0  0  0  0  0  0  0  0  0  0
   48.1730   34.1870   38.6890 C   0  0  0  0  0  0  0  0  0  0  0  0
   48.6950   32.8000   38.8430 C   0  0  0  0  0  0  0  0  0  0  0  0
   48.9660   32.4630   40.2680 C   0  0  0  0  0  0  0  0  0  0  0  0
   48.1510   33.0240   41.3560 C   0  0  1  0  0  0  0  0  0  0  0  0
   47.2300   35.1680   42.2120 C   0  0  0  0  0  0  0  0  0  0  0  0
   45.7570   35.1560   42.4490 C   0  0  0  0  0  0  0  0  0  0  0  0
   46.0070   33.7390   44.4230 C   0  0  0  0  0  0  0  0  0  0  0  0
   45.4500   34.8910   43.8410 C   0  0  0  0  0  0  0  0  0  0  0  0
   44.6610   35.6950   44.6000 C   0  0  0  0  0  0  0  0  0  0  0  0
   44.4510   35.3400   45.8980 N   0  0  0  0  0  0  0  0  0  0  0  0
   44.9780   34.2470   46.4570 C   0  0  0  0  0  0  0  0  0  0  0  0
   45.7550   33.4460   45.7270 N   0  0  0  0  0  0  0  0  0  0  0  0
   49.1560   33.0350   42.5070 C   0  0  0  0  0  0  0  0  0  0  0  0
   50.3440   34.0370   42.3140 C   0  0  0  0  0  0  0  0  0  0  0  0
   50.5630   32.6180   42.3830 C   0  0  0  0  0  0  0  0  0  0  0  0
   46.4749   34.0573   40.6242 H   0  0  0  0  0  0  0  0  0  0  0  0
   48.0189   36.0190   39.8313 H   0  0  0  0  0  0  0  0  0  0  0  0
   49.4054   35.0178   40.2840 H   0  0  0  0  0  0  0  0  0  0  0  0
   48.7194   34.6892   37.8771 H   0  0  0  0  0  0  0  0  0  0  0  0
   47.0995   34.1341   38.4550 H   0  0  0  0  0  0  0  0  0  0  0  0
   47.9508   32.0939   38.4461 H   0  0  0  0  0  0  0  0  0  0  0  0
   49.6433   32.7296   38.2901 H   0  0  0  0  0  0  0  0  0  0  0  0
   48.8834   31.3692   40.3499 H   0  0  0  0  0  0  0  0  0  0  0  0
   49.9467   32.9304   40.4404 H   0  0  0  0  0  0  0  0  0  0  0  0
   47.2518   32.4463   41.6163 H   0  0  0  0  0  0  0  0  0  0  0  0
   47.7601   34.7782   43.0935 H   0  0  0  0  0  0  0  0  0  0  0  0
   47.5959   36.1893   42.0304 H   0  0  0  0  0  0  0  0  0  0  0  0
   45.3412   36.1355   42.1705 H   0  0  0  0  0  0  0  0  0  0  0  0
   45.3132   34.3568   41.8371 H   0  0  0  0  0  0  0  0  0  0  0  0
   46.6467   33.0745   43.8237 H   0  0  0  0  0  0  0  0  0  0  0  0
   44.2061   36.6040   44.1796 H   0  0  0  0  0  0  0  0  0  0  0  0
   44.7726   34.0096   47.5113 H   0  0  0  0  0  0  0  0  0  0  0  0
   48.3656   32.7735   43.2259 H   0  0  0  0  0  0  0  0  0  0  0  0
   50.6604   34.6874   43.1428 H   0  0  0  0  0  0  0  0  0  0  0  0
   50.5900   34.8368   41.6000 H   0  0  0  0  0  0  0  0  0  0  0  0
   50.8845   32.0813   41.4782 H   0  0  0  0  0  0  0  0  0  0  0  0
   51.2145   31.9928   43.0113 H   0  0  0  0  0  0  0  0  0  0  0  0
  1  6  1  0
  1  7  1  0
  2  1  1  0
  3  4  1  0
  3  2  1  0
  4  5  1  0
  5  6  1  0
  6 15  1  0
  7  8  1  0
  8 10  1  0
  9 14  2  0
 10  9  1  0
 10 11  2  0
 11 12  1  0
 12 13  2  0
 14 13  1  0
 16 17  1  0
 16 15  1  0
 17 15  1  0
  1 18  1  6
  2 19  1  0
  2 20  1  0
  3 21  1  0
  3 22  1  0
  4 23  1  0
  4 24  1  0
  5 25  1  0
  5 26  1  0
  6 27  1  1
  7 28  1  0
  7 29  1  0
  8 30  1  0
  8 31  1  0
  9 32  1  0
 11 33  1  0
 13 34  1  0
 15 35  1  0
 16 36  1  0
 16 37  1  0
 17 38  1  0
 17 39  1  0
M  ISO  8  18  13  19  13  20  13  21  13  22  13  23  13  24  13  25  13
M  ISO  8  26  13  27  13  28   8  29   8  30   8  31   8  32  14  33  14
M  ISO  6  34  14  35  13  36  13  37  13  38  13  39  13
M  END
>  <minimizedAffinity>  (1) 
-4.90932083

>  <minimizedRMSD>  (1) 
1.32725239

$$$$
