
     RDKit          3D

 42 44  0  0  1  0  0  0  0  0999 V2000
   46.9920   34.4100   40.6460 C   0  0  1  0  0  0  0  0  0  0  0  0
   48.1810   34.1220   39.7100 C   0  0  0  0  0  0  0  0  0  0  0  0
   47.5990   33.9420   38.3240 C   0  0  0  0  0  0  0  0  0  0  0  0
   46.7610   32.6920   38.3030 C   0  0  0  0  0  0  0  0  0  0  0  0
   46.5410   32.1470   39.6810 C   0  0  0  0  0  0  0  0  0  0  0  0
   46.0900   33.2440   40.6540 C   0  0  2  0  0  0  0  0  0  0  0  0
   44.6790   33.4540   40.3300 C   0  0  0  0  0  0  0  0  0  0  0  0
   43.7890   32.4670   39.9630 C   0  0  0  0  0  0  0  0  0  0  0  0
   42.4540   32.6650   39.6700 C   0  0  0  0  0  0  0  0  0  0  0  0
   41.9290   33.9300   39.7350 C   0  0  0  0  0  0  0  0  0  0  0  0
   42.7470   34.9580   40.0910 C   0  0  0  0  0  0  0  0  0  0  0  0
   44.0670   34.7160   40.3740 C   0  0  0  0  0  0  0  0  0  0  0  0
   47.5480   34.6890   42.0590 C   0  0  0  0  0  0  0  0  0  0  0  0
   46.9670   33.6370   42.9490 C   0  0  0  0  0  0  0  0  0  0  0  0
   46.0220   33.5840   45.2000 C   0  0  0  0  0  0  0  0  0  0  0  0
   46.1190   34.2010   43.9530 C   0  0  0  0  0  0  0  0  0  0  0  0
   45.3780   35.3370   43.7340 C   0  0  0  0  0  0  0  0  0  0  0  0
   44.5860   35.8190   44.7240 N   0  0  0  0  0  0  0  0  0  0  0  0
   44.5020   35.2090   45.9320 C   0  0  0  0  0  0  0  0  0  0  0  0
   45.2260   34.0870   46.1640 N   0  0  0  0  0  0  0  0  0  0  0  0
   46.4210   35.2851   40.3024 H   0  0  0  0  0  0  0  0  0  0  0  0
   48.8863   34.9661   39.7199 H   0  0  0  0  0  0  0  0  0  0  0  0
   48.7333   33.2263   40.0304 H   0  0  0  0  0  0  0  0  0  0  0  0
   46.9726   34.8102   38.0714 H   0  0  0  0  0  0  0  0  0  0  0  0
   48.4118   33.8569   37.5878 H   0  0  0  0  0  0  0  0  0  0  0  0
   45.7851   32.9250   37.8522 H   0  0  0  0  0  0  0  0  0  0  0  0
   47.2961   31.9313   37.7156 H   0  0  0  0  0  0  0  0  0  0  0  0
   45.7664   31.3672   39.6375 H   0  0  0  0  0  0  0  0  0  0  0  0
   47.4931   31.7332   40.0446 H   0  0  0  0  0  0  0  0  0  0  0  0
   46.1625   32.9730   41.7176 H   0  0  0  0  0  0  0  0  0  0  0  0
   44.1735   31.4384   39.8983 H   0  0  0  0  0  0  0  0  0  0  0  0
   41.8167   31.8144   39.3866 H   0  0  0  0  0  0  0  0  0  0  0  0
   40.8687   34.1103   39.5042 H   0  0  0  0  0  0  0  0  0  0  0  0
   42.3497   35.9820   40.1517 H   0  0  0  0  0  0  0  0  0  0  0  0
   44.6927   35.5754   40.6566 H   0  0  0  0  0  0  0  0  0  0  0  0
   48.6460   34.6234   42.0569 H   0  0  0  0  0  0  0  0  0  0  0  0
   47.2810   35.6989   42.4035 H   0  0  0  0  0  0  0  0  0  0  0  0
   46.3782   32.9380   42.3369 H   0  0  0  0  0  0  0  0  0  0  0  0
   47.7962   33.1187   43.4529 H   0  0  0  0  0  0  0  0  0  0  0  0
   46.6044   32.6725   45.3998 H   0  0  0  0  0  0  0  0  0  0  0  0
   45.4267   35.8518   42.7631 H   0  0  0  0  0  0  0  0  0  0  0  0
   43.8515   35.6214   46.7174 H   0  0  0  0  0  0  0  0  0  0  0  0
  1  6  1  0
  1 13  1  0
  2  1  1  0
  3  2  1  0
  4  3  1  0
  4  5  1  0
  5  6  1  0
  7 12  1  0
  7  6  1  0
  8  7  2  0
  9 10  2  0
  9  8  1  0
 10 11  1  0
 11 12  2  0
 13 14  1  0
 14 16  1  0
 15 20  2  0
 16 15  1  0
 17 16  2  0
 17 18  1  0
 18 19  2  0
 19 20  1  0
  1 21  1  6
  2 22  1  0
  2 23  1  0
  3 24  1  0
  3 25  1  0
  4 26  1  0
  4 27  1  0
  5 28  1  0
  5 29  1  0
  6 30  1  1
  8 31  1  0
  9 32  1  0
 10 33  1  0
 11 34  1  0
 12 35  1  0
 13 36  1  0
 13 37  1  0
 14 38  1  0
 14 39  1  0
 15 40  1  0
 17 41  1  0
 19 42  1  0
M  ISO  8  21  13  22  13  23  13  24  13  25  13  26  13  27  13  28  13
M  ISO  8  29  13  30  13  31  14  32  14  33  14  34  14  35  14  36   8
M  ISO  6  37   8  38   8  39   8  40  14  41  14  42  14
M  END
>  <minimizedAffinity>  (1) 
-4.72546959

>  <minimizedRMSD>  (1) 
2.49662757

$$$$
