
     RDKit          3D

 42 44  0  0  1  0  0  0  0  0999 V2000
   47.6350   34.2800   40.1920 C   0  0  1  0  0  0  0  0  0  0  0  0
   48.5630   34.9140   39.1580 C   0  0  0  0  0  0  0  0  0  0  0  0
   48.2220   34.2790   37.8250 C   0  0  0  0  0  0  0  0  0  0  0  0
   48.6390   32.8220   37.8470 C   0  0  0  0  0  0  0  0  0  0  0  0
   48.9860   32.3790   39.2430 C   0  0  0  0  0  0  0  0  0  0  0  0
   47.9450   32.8240   40.2680 C   0  0  2  0  0  0  0  0  0  0  0  0
   46.8610   31.9100   40.1110 N   0  0  0  0  0  0  0  0  0  0  0  0
   46.8940   30.5810   40.1940 C   0  0  0  0  0  0  0  0  0  0  0  0
   45.8200   29.7430   40.0360 C   0  0  0  0  0  0  0  0  0  0  0  0
   44.5850   30.3200   39.7660 C   0  0  0  0  0  0  0  0  0  0  0  0
   43.5630   29.6270   39.6100 O   0  0  0  0  0  0  0  0  0  0  0  0
   44.5480   31.6570   39.6830 N   0  0  0  0  0  0  0  0  0  0  0  0
   45.6280   32.4400   39.8460 C   0  0  0  0  0  0  0  0  0  0  0  0
   45.4310   33.6890   39.7370 O   0  0  0  0  0  0  0  0  0  0  0  0
   47.8660   34.9530   41.5610 C   0  0  0  0  0  0  0  0  0  0  0  0
   47.4320   33.9410   42.5810 C   0  0  0  0  0  0  0  0  0  0  0  0
   46.2110   33.8570   44.6980 C   0  0  0  0  0  0  0  0  0  0  0  0
   46.4390   34.4810   43.4630 C   0  0  0  0  0  0  0  0  0  0  0  0
   45.6930   35.5850   43.1290 C   0  0  0  0  0  0  0  0  0  0  0  0
   44.7610   36.0290   44.0170 N   0  0  0  0  0  0  0  0  0  0  0  0
   44.5470   35.4260   45.2020 C   0  0  0  0  0  0  0  0  0  0  0  0
   45.2740   34.3350   45.5450 N   0  0  0  0  0  0  0  0  0  0  0  0
   46.5814   34.4169   39.9069 H   0  0  0  0  0  0  0  0  0  0  0  0
   48.3972   36.0006   39.1145 H   0  0  0  0  0  0  0  0  0  0  0  0
   49.6190   34.7490   39.4180 H   0  0  0  0  0  0  0  0  0  0  0  0
   48.7578   34.8031   37.0198 H   0  0  0  0  0  0  0  0  0  0  0  0
   47.1389   34.3512   37.6471 H   0  0  0  0  0  0  0  0  0  0  0  0
   47.8099   32.2052   37.4700 H   0  0  0  0  0  0  0  0  0  0  0  0
   49.5289   32.7035   37.2114 H   0  0  0  0  0  0  0  0  0  0  0  0
   49.0519   31.2811   39.2596 H   0  0  0  0  0  0  0  0  0  0  0  0
   49.9455   32.8433   39.5146 H   0  0  0  0  0  0  0  0  0  0  0  0
   48.3023   32.7682   41.3069 H   0  0  0  0  0  0  0  0  0  0  0  0
   47.8673   30.1152   40.4079 H   0  0  0  0  0  0  0  0  0  0  0  0
   45.9322   28.6520   40.1201 H   0  0  0  0  0  0  0  0  0  0  0  0
   43.6439   32.1084   39.4837 H   0  0  0  0  0  0  0  0  0  0  0  0
   48.9295   35.2011   41.6933 H   0  0  0  0  0  0  0  0  0  0  0  0
   47.3045   35.8943   41.6540 H   0  0  0  0  0  0  0  0  0  0  0  0
   47.0124   33.0667   42.0619 H   0  0  0  0  0  0  0  0  0  0  0  0
   48.3090   33.6549   43.1802 H   0  0  0  0  0  0  0  0  0  0  0  0
   46.7999   32.9714   44.9790 H   0  0  0  0  0  0  0  0  0  0  0  0
   45.8448   36.0978   42.1678 H   0  0  0  0  0  0  0  0  0  0  0  0
   43.7837   35.8182   45.8901 H   0  0  0  0  0  0  0  0  0  0  0  0
  1  6  1  0
  1 15  1  0
  2  1  1  0
  3  4  1  0
  3  2  1  0
  4  5  1  0
  5  6  1  0
  7  8  1  0
  7  6  1  0
  9  8  2  0
 10  9  1  0
 11 10  2  0
 12 10  1  0
 12 13  1  0
 13  7  1  0
 14 13  2  0
 15 16  1  0
 16 18  1  0
 17 22  2  0
 18 17  1  0
 19 18  2  0
 19 20  1  0
 20 21  2  0
 21 22  1  0
  1 23  1  6
  2 24  1  0
  2 25  1  0
  3 26  1  0
  3 27  1  0
  4 28  1  0
  4 29  1  0
  5 30  1  0
  5 31  1  0
  6 32  1  1
  8 33  1  0
  9 34  1  0
 12 35  1  0
 15 36  1  0
 15 37  1  0
 16 38  1  0
 16 39  1  0
 17 40  1  0
 19 41  1  0
 21 42  1  0
M  ISO  8  23  13  24  13  25  13  26  13  27  13  28  13  29  13  30  13
M  ISO  8  31  13  32  13  33  14  34  14  35   9  36   8  37   8  38   8
M  ISO  4  39   8  40  14  41  14  42  14
M  END
>  <minimizedAffinity>  (1) 
-4.49727869

>  <minimizedRMSD>  (1) 
0.180091336

$$$$
