
     RDKit          3D

 45 47  0  0  1  0  0  0  0  0999 V2000
   47.4770   34.2480   40.0900 C   0  0  1  0  0  0  0  0  0  0  0  0
   48.5160   34.8420   39.1330 C   0  0  0  0  0  0  0  0  0  0  0  0
   48.2360   34.2280   37.7720 C   0  0  0  0  0  0  0  0  0  0  0  0
   48.7440   32.8210   37.8430 C   0  0  0  0  0  0  0  0  0  0  0  0
   48.7220   32.2840   39.2330 C   0  0  0  0  0  0  0  0  0  0  0  0
   47.5420   32.7770   40.0720 C   0  0  2  0  0  0  0  0  0  0  0  0
   46.3740   32.1900   39.5850 N   0  0  0  0  0  0  0  0  0  0  0  0
   45.2160   32.9470   39.3350 C   0  0  0  0  0  0  0  0  0  0  0  0
   45.0670   33.0680   37.8280 C   0  0  0  0  0  0  0  0  0  0  0  0
   45.1190   31.8090   37.2620 O   0  0  0  0  0  0  0  0  0  0  0  0
   45.0800   30.7660   38.1510 C   0  0  0  0  0  0  0  0  0  0  0  0
   46.2660   30.9030   39.0850 C   0  0  0  0  0  0  0  0  0  0  0  0
   47.7130   34.8260   41.4920 C   0  0  0  0  0  0  0  0  0  0  0  0
   47.2640   33.8400   42.4910 C   0  0  0  0  0  0  0  0  0  0  0  0
   46.1470   33.8210   44.6520 C   0  0  0  0  0  0  0  0  0  0  0  0
   46.3230   34.4680   43.4110 C   0  0  0  0  0  0  0  0  0  0  0  0
   45.6160   35.6030   43.1020 C   0  0  0  0  0  0  0  0  0  0  0  0
   44.7530   36.0510   44.0550 N   0  0  0  0  0  0  0  0  0  0  0  0
   44.5730   35.4400   45.2510 C   0  0  0  0  0  0  0  0  0  0  0  0
   45.2760   34.3180   45.5450 N   0  0  0  0  0  0  0  0  0  0  0  0
   46.4608   34.5203   39.7689 H   0  0  0  0  0  0  0  0  0  0  0  0
   48.4110   35.9360   39.0870 H   0  0  0  0  0  0  0  0  0  0  0  0
   49.5410   34.6250   39.4682 H   0  0  0  0  0  0  0  0  0  0  0  0
   48.7641   34.7860   36.9847 H   0  0  0  0  0  0  0  0  0  0  0  0
   47.1636   34.2580   37.5288 H   0  0  0  0  0  0  0  0  0  0  0  0
   48.1121   32.1837   37.2070 H   0  0  0  0  0  0  0  0  0  0  0  0
   49.7884   32.8212   37.4976 H   0  0  0  0  0  0  0  0  0  0  0  0
   48.6733   31.1864   39.1790 H   0  0  0  0  0  0  0  0  0  0  0  0
   49.6363   32.6437   39.7276 H   0  0  0  0  0  0  0  0  0  0  0  0
   47.6723   32.4738   41.1213 H   0  0  0  0  0  0  0  0  0  0  0  0
   44.3369   32.4404   39.7600 H   0  0  0  0  0  0  0  0  0  0  0  0
   45.2956   33.9417   39.7979 H   0  0  0  0  0  0  0  0  0  0  0  0
   44.1012   33.5380   37.5907 H   0  0  0  0  0  0  0  0  0  0  0  0
   45.8822   33.6872   37.4254 H   0  0  0  0  0  0  0  0  0  0  0  0
   44.1442   30.8019   38.7280 H   0  0  0  0  0  0  0  0  0  0  0  0
   45.1233   29.8058   37.6161 H   0  0  0  0  0  0  0  0  0  0  0  0
   46.1423   30.2029   39.9244 H   0  0  0  0  0  0  0  0  0  0  0  0
   47.1801   30.6764   38.5166 H   0  0  0  0  0  0  0  0  0  0  0  0
   48.7843   35.0329   41.6316 H   0  0  0  0  0  0  0  0  0  0  0  0
   47.1496   35.7633   41.6108 H   0  0  0  0  0  0  0  0  0  0  0  0
   46.7708   33.0000   41.9800 H   0  0  0  0  0  0  0  0  0  0  0  0
   48.1332   33.4698   43.0545 H   0  0  0  0  0  0  0  0  0  0  0  0
   46.7211   32.9127   44.8874 H   0  0  0  0  0  0  0  0  0  0  0  0
   45.7395   36.1211   42.1395 H   0  0  0  0  0  0  0  0  0  0  0  0
   43.8599   35.8521   45.9802 H   0  0  0  0  0  0  0  0  0  0  0  0
  1 13  1  0
  2  1  1  0
  3  4  1  0
  3  2  1  0
  4  5  1  0
  5  6  1  0
  6  1  1  0
  7  6  1  0
  8  7  1  0
  9  8  1  0
 10  9  1  0
 10 11  1  0
 11 12  1  0
 12  7  1  0
 13 14  1  0
 14 16  1  0
 15 20  2  0
 16 15  1  0
 17 16  2  0
 17 18  1  0
 18 19  2  0
 19 20  1  0
  1 21  1  6
  2 22  1  0
  2 23  1  0
  3 24  1  0
  3 25  1  0
  4 26  1  0
  4 27  1  0
  5 28  1  0
  5 29  1  0
  6 30  1  1
  8 31  1  0
  8 32  1  0
  9 33  1  0
  9 34  1  0
 11 35  1  0
 11 36  1  0
 12 37  1  0
 12 38  1  0
 13 39  1  0
 13 40  1  0
 14 41  1  0
 14 42  1  0
 15 43  1  0
 17 44  1  0
 19 45  1  0
M  ISO  8  21  13  22  13  23  13  24  13  25  13  26  13  27  13  28  13
M  ISO  8  29  13  30  13  31  13  32  13  33  13  34  13  35  13  36  13
M  ISO  8  37  13  38  13  39   8  40   8  41   8  42   8  43  14  44  14
M  ISO  1  45  14
M  END
>  <minimizedAffinity>  (1) 
-4.56870747

>  <minimizedRMSD>  (1) 
0.764392316

$$$$
