
     RDKit          3D

 39 41  0  0  1  0  0  0  0  0999 V2000
   47.1780   34.2930   40.3120 C   0  0  1  0  0  0  0  0  0  0  0  0
   48.2790   34.3010   39.2610 C   0  0  0  0  0  0  0  0  0  0  0  0
   47.6150   33.8720   37.9560 C   0  0  0  0  0  0  0  0  0  0  0  0
   47.2960   32.3950   38.0560 C   0  0  0  0  0  0  0  0  0  0  0  0
   47.3200   31.9200   39.4810 C   0  0  0  0  0  0  0  0  0  0  0  0
   46.6780   32.8880   40.4590 C   0  0  2  0  0  0  0  0  0  0  0  0
   45.2480   32.7560   40.2380 N   0  0  0  0  0  0  0  0  0  0  0  0
   44.4650   31.6620   40.1440 C   0  0  0  0  0  0  0  0  0  0  0  0
   43.1830   32.1260   39.9290 C   0  0  0  0  0  0  0  0  0  0  0  0
   43.2000   33.4480   39.8970 N   0  0  0  0  0  0  0  0  0  0  0  0
   44.4720   33.8440   40.0860 C   0  0  0  0  0  0  0  0  0  0  0  0
   47.6980   34.8180   41.6590 C   0  0  0  0  0  0  0  0  0  0  0  0
   47.2730   33.8090   42.6880 C   0  0  0  0  0  0  0  0  0  0  0  0
   46.1520   33.7600   44.8600 C   0  0  0  0  0  0  0  0  0  0  0  0
   46.3370   34.3920   43.6120 C   0  0  0  0  0  0  0  0  0  0  0  0
   45.6120   35.5200   43.3130 C   0  0  0  0  0  0  0  0  0  0  0  0
   44.7370   35.9820   44.2480 N   0  0  0  0  0  0  0  0  0  0  0  0
   44.5610   35.3720   45.4450 C   0  0  0  0  0  0  0  0  0  0  0  0
   45.2710   34.2590   45.7510 N   0  0  0  0  0  0  0  0  0  0  0  0
   46.3605   34.9561   39.9927 H   0  0  0  0  0  0  0  0  0  0  0  0
   48.7042   35.3105   39.1601 H   0  0  0  0  0  0  0  0  0  0  0  0
   49.1037   33.6266   39.5351 H   0  0  0  0  0  0  0  0  0  0  0  0
   48.2991   34.0498   37.1132 H   0  0  0  0  0  0  0  0  0  0  0  0
   46.6949   34.4508   37.7874 H   0  0  0  0  0  0  0  0  0  0  0  0
   46.2947   32.2168   37.6370 H   0  0  0  0  0  0  0  0  0  0  0  0
   48.0611   31.8387   37.4946 H   0  0  0  0  0  0  0  0  0  0  0  0
   46.7818   30.9623   39.5367 H   0  0  0  0  0  0  0  0  0  0  0  0
   48.3771   31.8254   39.7701 H   0  0  0  0  0  0  0  0  0  0  0  0
   46.9427   32.6448   41.4986 H   0  0  0  0  0  0  0  0  0  0  0  0
   44.7836   30.6121   40.2228 H   0  0  0  0  0  0  0  0  0  0  0  0
   42.2896   31.4965   39.8042 H   0  0  0  0  0  0  0  0  0  0  0  0
   44.8203   34.8871   40.1120 H   0  0  0  0  0  0  0  0  0  0  0  0
   48.7944   34.9043   41.6382 H   0  0  0  0  0  0  0  0  0  0  0  0
   47.2968   35.8171   41.8843 H   0  0  0  0  0  0  0  0  0  0  0  0
   46.7980   32.9552   42.1826 H   0  0  0  0  0  0  0  0  0  0  0  0
   48.1607   33.4753   43.2454 H   0  0  0  0  0  0  0  0  0  0  0  0
   46.7288   32.8565   45.1072 H   0  0  0  0  0  0  0  0  0  0  0  0
   45.7347   36.0339   42.3482 H   0  0  0  0  0  0  0  0  0  0  0  0
   43.8410   35.7807   46.1692 H   0  0  0  0  0  0  0  0  0  0  0  0
  1  6  1  0
  1 12  1  0
  2  1  1  0
  3  4  1  0
  3  2  1  0
  4  5  1  0
  5  6  1  0
  7  6  1  0
  8  7  1  0
  9  8  2  0
 10  9  1  0
 10 11  2  0
 11  7  1  0
 12 13  1  0
 13 15  1  0
 14 19  2  0
 15 14  1  0
 16 15  2  0
 16 17  1  0
 17 18  2  0
 18 19  1  0
  1 20  1  6
  2 21  1  0
  2 22  1  0
  3 23  1  0
  3 24  1  0
  4 25  1  0
  4 26  1  0
  5 27  1  0
  5 28  1  0
  6 29  1  1
  8 30  1  0
  9 31  1  0
 11 32  1  0
 12 33  1  0
 12 34  1  0
 13 35  1  0
 13 36  1  0
 14 37  1  0
 16 38  1  0
 18 39  1  0
M  ISO  8  20  13  21  13  22  13  23  13  24  13  25  13  26  13  27  13
M  ISO  8  28  13  29  13  30  14  31  14  32  14  33   8  34   8  35   8
M  ISO  4  36   8  37  14  38  14  39  14
M  END
>  <minimizedAffinity>  (1) 
-4.36822987

>  <minimizedRMSD>  (1) 
1.4531008

$$$$
