
     RDKit          3D

 19 19  0  0  0  0  0  0  0  0999 V2000
   45.6030   34.3760   41.0430 C   0  0  0  0  0  0  0  0  0  0  0  0
   46.9060   34.7860   41.3460 C   0  0  0  0  0  0  0  0  0  0  0  0
   47.9650   34.2660   40.5820 C   0  0  0  0  0  0  0  0  0  0  0  0
   47.6560   33.3800   39.5750 N   0  0  0  0  0  0  0  0  0  0  0  0
   46.3740   33.0210   39.3270 C   0  0  0  0  0  0  0  0  0  0  0  0
   45.3870   33.5230   40.0600 N   0  0  0  0  0  0  0  0  0  0  0  0
   44.5250   34.9260   41.8450 C   0  0  0  0  0  0  0  0  0  0  0  0
   43.7330   35.7730   41.3180 O   0  0  0  0  0  0  0  0  0  0  0  0
   44.3960   34.4990   43.1810 O   0  0  0  0  0  0  0  0  0  0  0  0
   45.0000   35.2610   44.1910 C   0  0  0  0  0  0  0  0  0  0  0  0
   44.1720   35.4430   45.2900 F   0  0  0  0  0  0  0  0  0  0  0  0
   46.1680   34.6580   44.6040 F   0  0  0  0  0  0  0  0  0  0  0  0
   45.2650   36.5150   43.6410 F   0  0  0  0  0  0  0  0  0  0  0  0
   46.0310   32.0660   38.2420 C   0  0  0  0  0  0  0  0  0  0  0  0
   47.0970   35.4981   42.1624 H   0  0  0  0  0  0  0  0  0  0  0  0
   49.0066   34.5576   40.7823 H   0  0  0  0  0  0  0  0  0  0  0  0
   45.6903   31.1174   38.6826 H   0  0  0  0  0  0  0  0  0  0  0  0
   45.2291   32.4903   37.6200 H   0  0  0  0  0  0  0  0  0  0  0  0
   46.9196   31.8831   37.6200 H   0  0  0  0  0  0  0  0  0  0  0  0
  1  2  2  0
  1  7  1  0
  3  2  1  0
  4  3  2  0
  5  4  1  0
  5  6  2  0
  6  1  1  0
  7  9  1  0
  8  7  2  0
  9 10  1  0
 10 12  1  0
 10 11  1  0
 13 10  1  0
 14  5  1  0
  2 15  1  0
  3 16  1  0
 14 17  1  0
 14 18  1  0
 14 19  1  0
M  ISO  5  15  14  16  14  17   8  18   8  19   8
M  END
>  <minimizedAffinity>  (1) 
-3.60931706

>  <minimizedRMSD>  (1) 
0.0145880952

$$$$
