
     RDKit          3D

 39 41  0  0  1  0  0  0  0  0999 V2000
   47.2560   34.3360   40.2060 C   0  0  1  0  0  0  0  0  0  0  0  0
   48.3830   34.3710   39.1830 C   0  0  0  0  0  0  0  0  0  0  0  0
   47.7650   33.9900   37.8490 C   0  0  0  0  0  0  0  0  0  0  0  0
   47.2960   32.5500   37.8930 C   0  0  0  0  0  0  0  0  0  0  0  0
   47.4400   31.9890   39.2770 C   0  0  0  0  0  0  0  0  0  0  0  0
   46.7960   32.9090   40.3100 C   0  0  2  0  0  0  0  0  0  0  0  0
   45.3840   32.7090   40.1260 N   0  0  0  0  0  0  0  0  0  0  0  0
   44.7480   31.5510   40.0580 N   0  0  0  0  0  0  0  0  0  0  0  0
   43.4230   31.7690   39.8800 C   0  0  0  0  0  0  0  0  0  0  0  0
   43.2320   33.1420   39.8360 C   0  0  0  0  0  0  0  0  0  0  0  0
   44.4920   33.6960   39.9940 C   0  0  0  0  0  0  0  0  0  0  0  0
   47.7830   34.8070   41.5740 C   0  0  0  0  0  0  0  0  0  0  0  0
   47.2870   33.8120   42.5840 C   0  0  0  0  0  0  0  0  0  0  0  0
   46.1310   33.8180   44.7330 C   0  0  0  0  0  0  0  0  0  0  0  0
   46.3520   34.4070   43.4890 C   0  0  0  0  0  0  0  0  0  0  0  0
   45.6480   35.5430   43.1740 C   0  0  0  0  0  0  0  0  0  0  0  0
   44.7680   36.0490   44.0740 N   0  0  0  0  0  0  0  0  0  0  0  0
   44.5620   35.4650   45.2830 C   0  0  0  0  0  0  0  0  0  0  0  0
   45.2530   34.3420   45.6040 N   0  0  0  0  0  0  0  0  0  0  0  0
   46.4302   34.9961   39.9021 H   0  0  0  0  0  0  0  0  0  0  0  0
   48.8147   35.3812   39.1273 H   0  0  0  0  0  0  0  0  0  0  0  0
   49.1928   33.6794   39.4588 H   0  0  0  0  0  0  0  0  0  0  0  0
   48.5151   34.1055   37.0528 H   0  0  0  0  0  0  0  0  0  0  0  0
   46.9054   34.6458   37.6465 H   0  0  0  0  0  0  0  0  0  0  0  0
   46.2386   32.5050   37.5930 H   0  0  0  0  0  0  0  0  0  0  0  0
   47.9132   31.9552   37.2036 H   0  0  0  0  0  0  0  0  0  0  0  0
   46.9518   31.0042   39.3185 H   0  0  0  0  0  0  0  0  0  0  0  0
   48.5115   31.8982   39.5085 H   0  0  0  0  0  0  0  0  0  0  0  0
   47.0951   32.6646   41.3400 H   0  0  0  0  0  0  0  0  0  0  0  0
   42.6426   30.9993   39.7874 H   0  0  0  0  0  0  0  0  0  0  0  0
   42.2807   33.6781   39.7036 H   0  0  0  0  0  0  0  0  0  0  0  0
   44.7210   34.7718   40.0085 H   0  0  0  0  0  0  0  0  0  0  0  0
   48.8828   34.8301   41.5708 H   0  0  0  0  0  0  0  0  0  0  0  0
   47.4321   35.8227   41.8087 H   0  0  0  0  0  0  0  0  0  0  0  0
   46.7951   32.9816   42.0563 H   0  0  0  0  0  0  0  0  0  0  0  0
   48.1483   33.4505   43.1650 H   0  0  0  0  0  0  0  0  0  0  0  0
   46.6854   32.9081   45.0061 H   0  0  0  0  0  0  0  0  0  0  0  0
   45.7959   36.0374   42.2025 H   0  0  0  0  0  0  0  0  0  0  0  0
   43.8429   35.8976   45.9941 H   0  0  0  0  0  0  0  0  0  0  0  0
  1  6  1  0
  1 12  1  0
  2  1  1  0
  3  4  1  0
  3  2  1  0
  4  5  1  0
  5  6  1  0
  7  6  1  0
  8  7  1  0
  9  8  2  0
 10  9  1  0
 10 11  2  0
 11  7  1  0
 12 13  1  0
 13 15  1  0
 14 19  2  0
 15 14  1  0
 16 15  2  0
 16 17  1  0
 17 18  2  0
 18 19  1  0
  1 20  1  6
  2 21  1  0
  2 22  1  0
  3 23  1  0
  3 24  1  0
  4 25  1  0
  4 26  1  0
  5 27  1  0
  5 28  1  0
  6 29  1  1
  9 30  1  0
 10 31  1  0
 11 32  1  0
 12 33  1  0
 12 34  1  0
 13 35  1  0
 13 36  1  0
 14 37  1  0
 16 38  1  0
 18 39  1  0
M  ISO  8  20  13  21  13  22  13  23  13  24  13  25  13  26  13  27  13
M  ISO  8  28  13  29  13  30  14  31  14  32  14  33   8  34   8  35   8
M  ISO  4  36   8  37  14  38  14  39  14
M  END
>  <minimizedAffinity>  (1) 
-4.34884644

>  <minimizedRMSD>  (1) 
1.42397332

$$$$
