
     RDKit          3D

 35 36  0  0  1  0  0  0  0  0999 V2000
   47.6210   34.3000   40.1570 C   0  0  1  0  0  0  0  0  0  0  0  0
   48.5760   34.9210   39.1490 C   0  0  0  0  0  0  0  0  0  0  0  0
   48.2370   34.2930   37.8000 C   0  0  0  0  0  0  0  0  0  0  0  0
   48.6830   32.8410   37.8340 C   0  0  0  0  0  0  0  0  0  0  0  0
   48.9730   32.3760   39.2310 C   0  0  0  0  0  0  0  0  0  0  0  0
   47.8990   32.8210   40.2200 C   0  0  2  0  0  0  0  0  0  0  0  0
   47.8240   34.9260   41.5480 C   0  0  0  0  0  0  0  0  0  0  0  0
   47.3270   33.8920   42.5270 C   0  0  0  0  0  0  0  0  0  0  0  0
   46.1640   33.8310   44.6800 C   0  0  0  0  0  0  0  0  0  0  0  0
   46.3780   34.4540   43.4370 C   0  0  0  0  0  0  0  0  0  0  0  0
   45.6610   35.5830   43.1230 C   0  0  0  0  0  0  0  0  0  0  0  0
   44.7630   36.0540   44.0430 N   0  0  0  0  0  0  0  0  0  0  0  0
   44.5630   35.4470   45.2400 C   0  0  0  0  0  0  0  0  0  0  0  0
   45.2690   34.3320   45.5530 N   0  0  0  0  0  0  0  0  0  0  0  0
   46.6850   31.9740   39.8620 C   0  0  0  0  0  0  0  0  0  0  0  0
   46.5821   34.4836   39.8456 H   0  0  0  0  0  0  0  0  0  0  0  0
   48.4329   36.0109   39.1092 H   0  0  0  0  0  0  0  0  0  0  0  0
   49.6251   34.7379   39.4246 H   0  0  0  0  0  0  0  0  0  0  0  0
   48.7648   34.8271   36.9962 H   0  0  0  0  0  0  0  0  0  0  0  0
   47.1555   34.3567   37.6093 H   0  0  0  0  0  0  0  0  0  0  0  0
   47.8852   32.2141   37.4092 H   0  0  0  0  0  0  0  0  0  0  0  0
   49.6098   32.7558   37.2476 H   0  0  0  0  0  0  0  0  0  0  0  0
   49.0254   31.2773   39.2352 H   0  0  0  0  0  0  0  0  0  0  0  0
   49.9279   32.8229   39.5449 H   0  0  0  0  0  0  0  0  0  0  0  0
   48.2127   32.6696   41.2634 H   0  0  0  0  0  0  0  0  0  0  0  0
   48.8887   35.1408   41.7220 H   0  0  0  0  0  0  0  0  0  0  0  0
   47.2856   35.8797   41.6507 H   0  0  0  0  0  0  0  0  0  0  0  0
   46.8486   33.0723   41.9709 H   0  0  0  0  0  0  0  0  0  0  0  0
   48.1854   33.5198   43.1055 H   0  0  0  0  0  0  0  0  0  0  0  0
   46.7328   32.9265   44.9414 H   0  0  0  0  0  0  0  0  0  0  0  0
   45.8043   36.0942   42.1596 H   0  0  0  0  0  0  0  0  0  0  0  0
   43.8322   35.8570   45.9527 H   0  0  0  0  0  0  0  0  0  0  0  0
   46.1928   31.6306   40.7838 H   0  0  0  0  0  0  0  0  0  0  0  0
   45.9788   32.5764   39.2718 H   0  0  0  0  0  0  0  0  0  0  0  0
   47.0066   31.1032   39.2718 H   0  0  0  0  0  0  0  0  0  0  0  0
  1  6  1  0
  1  7  1  0
  2  1  1  0
  3  4  1  0
  3  2  1  0
  4  5  1  0
  5  6  1  0
  7  8  1  0
  8 10  1  0
  9 14  2  0
 10  9  1  0
 11 10  2  0
 11 12  1  0
 12 13  2  0
 13 14  1  0
 15  6  1  0
  1 16  1  6
  2 17  1  0
  2 18  1  0
  3 19  1  0
  3 20  1  0
  4 21  1  0
  4 22  1  0
  5 23  1  0
  5 24  1  0
  6 25  1  1
  7 26  1  0
  7 27  1  0
  8 28  1  0
  8 29  1  0
  9 30  1  0
 11 31  1  0
 13 32  1  0
 15 33  1  0
 15 34  1  0
 15 35  1  0
M  ISO  8  16  13  17  13  18  13  19  13  20  13  21  13  22  13  23  13
M  ISO  8  24  13  25  13  26   8  27   8  28   8  29   8  30  14  31  14
M  ISO  4  32  14  33   8  34   8  35   8
M  END
>  <minimizedAffinity>  (1) 
-4.26646709

>  <minimizedRMSD>  (1) 
0.0831846148

$$$$
