
     RDKit          3D

 41 42  0  0  1  0  0  0  0  0999 V2000
   47.5170   34.2770   40.1410 C   0  0  1  0  0  0  0  0  0  0  0  0
   48.5480   34.8800   39.1680 C   0  0  0  0  0  0  0  0  0  0  0  0
   48.2210   34.2980   37.8070 C   0  0  0  0  0  0  0  0  0  0  0  0
   48.6660   32.8500   37.8450 C   0  0  0  0  0  0  0  0  0  0  0  0
   48.8090   32.3390   39.2460 C   0  0  0  0  0  0  0  0  0  0  0  0
   47.6130   32.8040   40.1380 C   0  0  2  0  0  0  0  0  0  0  0  0
   47.7930   34.8770   41.5380 C   0  0  0  0  0  0  0  0  0  0  0  0
   47.3300   33.8690   42.5410 C   0  0  0  0  0  0  0  0  0  0  0  0
   46.1590   33.8360   44.6830 C   0  0  0  0  0  0  0  0  0  0  0  0
   46.3640   34.4690   43.4370 C   0  0  0  0  0  0  0  0  0  0  0  0
   45.6470   35.5950   43.1240 C   0  0  0  0  0  0  0  0  0  0  0  0
   44.7610   36.0510   44.0510 N   0  0  0  0  0  0  0  0  0  0  0  0
   44.5640   35.4440   45.2460 C   0  0  0  0  0  0  0  0  0  0  0  0
   45.2690   34.3300   45.5590 N   0  0  0  0  0  0  0  0  0  0  0  0
   46.4540   32.0780   39.4510 C   0  0  0  0  0  0  0  0  0  0  0  0
   45.3670   33.0530   39.0490 C   0  0  0  0  0  0  0  0  0  0  0  0
   46.8230   31.1150   38.3900 C   0  0  0  0  0  0  0  0  0  0  0  0
   46.4890   34.5227   39.8364 H   0  0  0  0  0  0  0  0  0  0  0  0
   48.4595   35.9762   39.1471 H   0  0  0  0  0  0  0  0  0  0  0  0
   49.5783   34.6439   39.4724 H   0  0  0  0  0  0  0  0  0  0  0  0
   48.7631   34.8424   37.0198 H   0  0  0  0  0  0  0  0  0  0  0  0
   47.1468   34.3802   37.5849 H   0  0  0  0  0  0  0  0  0  0  0  0
   47.9204   32.2362   37.3183 H   0  0  0  0  0  0  0  0  0  0  0  0
   49.6512   32.7864   37.3599 H   0  0  0  0  0  0  0  0  0  0  0  0
   48.8367   31.2395   39.2265 H   0  0  0  0  0  0  0  0  0  0  0  0
   49.7401   32.7412   39.6718 H   0  0  0  0  0  0  0  0  0  0  0  0
   47.6731   32.5659   41.2102 H   0  0  0  0  0  0  0  0  0  0  0  0
   48.8692   35.0679   41.6622 H   0  0  0  0  0  0  0  0  0  0  0  0
   47.2655   35.8335   41.6677 H   0  0  0  0  0  0  0  0  0  0  0  0
   46.8636   33.0216   42.0171 H   0  0  0  0  0  0  0  0  0  0  0  0
   48.1937   33.5175   43.1245 H   0  0  0  0  0  0  0  0  0  0  0  0
   46.7322   32.9323   44.9375 H   0  0  0  0  0  0  0  0  0  0  0  0
   45.7826   36.1097   42.1613 H   0  0  0  0  0  0  0  0  0  0  0  0
   43.8343   35.8541   45.9597 H   0  0  0  0  0  0  0  0  0  0  0  0
   46.0390   31.4069   40.2174 H   0  0  0  0  0  0  0  0  0  0  0  0
   44.8989   33.4728   39.9516 H   0  0  0  0  0  0  0  0  0  0  0  0
   45.8060   33.8657   38.4517 H   0  0  0  0  0  0  0  0  0  0  0  0
   44.6066   32.5286   38.4517 H   0  0  0  0  0  0  0  0  0  0  0  0
   47.1805   30.1819   38.8499 H   0  0  0  0  0  0  0  0  0  0  0  0
   45.9427   30.9022   37.7656 H   0  0  0  0  0  0  0  0  0  0  0  0
   47.6201   31.5449   37.7656 H   0  0  0  0  0  0  0  0  0  0  0  0
  1  7  1  0
  2  1  1  0
  3  4  1  0
  3  2  1  0
  4  5  1  0
  5  6  1  0
  6  1  1  0
  7  8  1  0
  8 10  1  0
  9 14  2  0
 10  9  1  0
 11 10  2  0
 11 12  1  0
 12 13  2  0
 13 14  1  0
 15  6  1  0
 16 15  1  0
 17 15  1  0
  1 18  1  6
  2 19  1  0
  2 20  1  0
  3 21  1  0
  3 22  1  0
  4 23  1  0
  4 24  1  0
  5 25  1  0
  5 26  1  0
  6 27  1  1
  7 28  1  0
  7 29  1  0
  8 30  1  0
  8 31  1  0
  9 32  1  0
 11 33  1  0
 13 34  1  0
 15 35  1  0
 16 36  1  0
 16 37  1  0
 16 38  1  0
 17 39  1  0
 17 40  1  0
 17 41  1  0
M  ISO  8  18  13  19  13  20  13  21  13  22  13  23  13  24  13  25  13
M  ISO  8  26  13  27  13  28   8  29   8  30   8  31   8  32  14  33  14
M  ISO  8  34  14  35   8  36   8  37   8  38   8  39   8  40   8  41   8
M  END
>  <minimizedAffinity>  (1) 
-4.29089212

>  <minimizedRMSD>  (1) 
0.249940887

$$$$
