
     RDKit          3D

 44 45  0  0  1  0  0  0  0  0999 V2000
   47.4420   34.2970   40.2220 C   0  0  1  0  0  0  0  0  0  0  0  0
   48.4550   34.8590   39.2320 C   0  0  0  0  0  0  0  0  0  0  0  0
   48.2620   34.2850   37.8830 C   0  0  0  0  0  0  0  0  0  0  0  0
   48.8180   32.8760   38.0040 C   0  0  0  0  0  0  0  0  0  0  0  0
   48.4550   32.2770   39.3200 C   0  0  0  0  0  0  0  0  0  0  0  0
   47.1750   32.9340   39.9780 C   0  0  1  0  0  0  0  0  0  0  0  0
   46.2900   31.8530   40.3350 C   0  0  0  0  0  0  0  0  0  0  0  0
   44.8570   32.3190   40.7140 C   0  0  0  0  0  0  0  0  0  0  0  0
   46.7420   30.6800   41.1460 C   0  0  0  0  0  0  0  0  0  0  0  0
   45.9420   31.1120   38.9930 C   0  0  0  0  0  0  0  0  0  0  0  0
   47.9080   34.7530   41.6230 C   0  0  0  0  0  0  0  0  0  0  0  0
   47.2760   33.7920   42.5340 C   0  0  0  0  0  0  0  0  0  0  0  0
   46.1380   33.8330   44.6760 C   0  0  0  0  0  0  0  0  0  0  0  0
   46.3400   34.4590   43.4440 C   0  0  0  0  0  0  0  0  0  0  0  0
   45.6690   35.5920   43.0730 C   0  0  0  0  0  0  0  0  0  0  0  0
   44.7920   36.0580   43.9970 N   0  0  0  0  0  0  0  0  0  0  0  0
   44.5750   35.4710   45.1980 C   0  0  0  0  0  0  0  0  0  0  0  0
   45.2520   34.3500   45.5430 N   0  0  0  0  0  0  0  0  0  0  0  0
   46.4222   34.6942   40.1118 H   0  0  0  0  0  0  0  0  0  0  0  0
   48.3351   35.9511   39.1774 H   0  0  0  0  0  0  0  0  0  0  0  0
   49.4646   34.5957   39.5806 H   0  0  0  0  0  0  0  0  0  0  0  0
   48.8175   34.8618   37.1288 H   0  0  0  0  0  0  0  0  0  0  0  0
   47.2102   34.3005   37.5613 H   0  0  0  0  0  0  0  0  0  0  0  0
   48.4032   32.2537   37.1974 H   0  0  0  0  0  0  0  0  0  0  0  0
   49.9143   32.9208   37.9264 H   0  0  0  0  0  0  0  0  0  0  0  0
   48.2598   31.2045   39.1729 H   0  0  0  0  0  0  0  0  0  0  0  0
   49.2990   32.4564   40.0022 H   0  0  0  0  0  0  0  0  0  0  0  0
   46.1974   33.4382   39.9660 H   0  0  0  0  0  0  0  0  0  0  0  0
   44.7594   32.3507   41.8092 H   0  0  0  0  0  0  0  0  0  0  0  0
   44.6763   33.3222   40.3006 H   0  0  0  0  0  0  0  0  0  0  0  0
   44.1208   31.6140   40.3006 H   0  0  0  0  0  0  0  0  0  0  0  0
   46.6506   30.9171   42.2162 H   0  0  0  0  0  0  0  0  0  0  0  0
   46.1158   29.8072   40.9090 H   0  0  0  0  0  0  0  0  0  0  0  0
   47.7919   30.4531   40.9090 H   0  0  0  0  0  0  0  0  0  0  0  0
   45.4845   30.1378   39.2201 H   0  0  0  0  0  0  0  0  0  0  0  0
   45.2361   31.7216   38.4099 H   0  0  0  0  0  0  0  0  0  0  0  0
   46.8620   30.9581   38.4099 H   0  0  0  0  0  0  0  0  0  0  0  0
   49.0040   34.7078   41.7050 H   0  0  0  0  0  0  0  0  0  0  0  0
   47.6306   35.7941   41.8448 H   0  0  0  0  0  0  0  0  0  0  0  0
   46.7288   33.0434   41.9422 H   0  0  0  0  0  0  0  0  0  0  0  0
   48.0631   33.3127   43.1346 H   0  0  0  0  0  0  0  0  0  0  0  0
   46.7002   32.9235   44.9343 H   0  0  0  0  0  0  0  0  0  0  0  0
   45.8279   36.0857   42.1029 H   0  0  0  0  0  0  0  0  0  0  0  0
   43.8455   35.9068   45.8965 H   0  0  0  0  0  0  0  0  0  0  0  0
  1 11  1  0
  2  1  1  0
  3  4  1  0
  3  2  1  0
  4  5  1  0
  5  6  1  0
  6  1  1  0
  6  7  1  0
  7  8  1  0
  7  9  1  0
 10  7  1  0
 11 12  1  0
 12 14  1  0
 13 18  2  0
 14 13  1  0
 15 14  2  0
 15 16  1  0
 16 17  2  0
 17 18  1  0
  1 19  1  6
  2 20  1  0
  2 21  1  0
  3 22  1  0
  3 23  1  0
  4 24  1  0
  4 25  1  0
  5 26  1  0
  5 27  1  0
  6 28  1  6
  8 29  1  0
  8 30  1  0
  8 31  1  0
  9 32  1  0
  9 33  1  0
  9 34  1  0
 10 35  1  0
 10 36  1  0
 10 37  1  0
 11 38  1  0
 11 39  1  0
 12 40  1  0
 12 41  1  0
 13 42  1  0
 15 43  1  0
 17 44  1  0
M  ISO  8  19  13  20  13  21  13  22  13  23  13  24  13  25  13  26  13
M  ISO  8  27  13  28  13  29   8  30   8  31   8  32   8  33   8  34   8
M  ISO  8  35   8  36   8  37   8  38   8  39   8  40   8  41   8  42  14
M  ISO  2  43  14  44  14
M  END
>  <minimizedAffinity>  (1) 
-4.22421932

>  <minimizedRMSD>  (1) 
0.569880366

$$$$
