
     RDKit          3D

 33 34  0  0  1  0  0  0  0  0999 V2000
   47.6270   34.3190   40.1720 C   0  0  1  0  0  0  0  0  0  0  0  0
   48.5920   34.9310   39.1700 C   0  0  0  0  0  0  0  0  0  0  0  0
   48.2500   34.3040   37.8190 C   0  0  0  0  0  0  0  0  0  0  0  0
   48.6490   32.8380   37.8430 C   0  0  0  0  0  0  0  0  0  0  0  0
   48.9680   32.3840   39.2480 C   0  0  0  0  0  0  0  0  0  0  0  0
   47.9220   32.8430   40.2530 C   0  0  2  0  0  0  0  0  0  0  0  0
   47.8160   34.9390   41.5650 C   0  0  0  0  0  0  0  0  0  0  0  0
   47.3120   33.9050   42.5350 C   0  0  0  0  0  0  0  0  0  0  0  0
   46.1600   33.8280   44.6920 C   0  0  0  0  0  0  0  0  0  0  0  0
   46.3690   34.4500   43.4530 C   0  0  0  0  0  0  0  0  0  0  0  0
   45.6460   35.5800   43.1510 C   0  0  0  0  0  0  0  0  0  0  0  0
   44.7500   36.0580   44.0670 N   0  0  0  0  0  0  0  0  0  0  0  0
   44.5620   35.4450   45.2620 C   0  0  0  0  0  0  0  0  0  0  0  0
   45.2650   34.3310   45.5760 N   0  0  0  0  0  0  0  0  0  0  0  0
   46.4430   31.8390   39.8380 S   0  0  0  0  0  0  0  0  0  0  0  0
   46.5934   34.5065   39.8457 H   0  0  0  0  0  0  0  0  0  0  0  0
   48.4597   36.0223   39.1294 H   0  0  0  0  0  0  0  0  0  0  0  0
   49.6385   34.7396   39.4497 H   0  0  0  0  0  0  0  0  0  0  0  0
   48.8001   34.8236   37.0207 H   0  0  0  0  0  0  0  0  0  0  0  0
   47.1704   34.3939   37.6285 H   0  0  0  0  0  0  0  0  0  0  0  0
   47.8185   32.2332   37.4499 H   0  0  0  0  0  0  0  0  0  0  0  0
   49.5480   32.7104   37.2221 H   0  0  0  0  0  0  0  0  0  0  0  0
   49.0150   31.2851   39.2629 H   0  0  0  0  0  0  0  0  0  0  0  0
   49.9312   32.8305   39.5361 H   0  0  0  0  0  0  0  0  0  0  0  0
   48.2675   32.6996   41.2874 H   0  0  0  0  0  0  0  0  0  0  0  0
   48.8789   35.1539   41.7495 H   0  0  0  0  0  0  0  0  0  0  0  0
   47.2752   35.8916   41.6653 H   0  0  0  0  0  0  0  0  0  0  0  0
   46.8298   33.0934   41.9704 H   0  0  0  0  0  0  0  0  0  0  0  0
   48.1714   33.5322   43.1116 H   0  0  0  0  0  0  0  0  0  0  0  0
   46.7286   32.9221   44.9490 H   0  0  0  0  0  0  0  0  0  0  0  0
   45.7862   36.0917   42.1874 H   0  0  0  0  0  0  0  0  0  0  0  0
   43.8354   35.8544   45.9792 H   0  0  0  0  0  0  0  0  0  0  0  0
   45.8333   31.4251   40.9929 H   0  0  0  0  0  0  0  0  0  0  0  0
  1  6  1  0
  1  7  1  0
  2  1  1  0
  3  4  1  0
  3  2  1  0
  4  5  1  0
  5  6  1  0
  7  8  1  0
  8 10  1  0
  9 14  2  0
 10  9  1  0
 11 10  2  0
 11 12  1  0
 12 13  2  0
 13 14  1  0
 15  6  1  0
  1 16  1  6
  2 17  1  0
  2 18  1  0
  3 19  1  0
  3 20  1  0
  4 21  1  0
  4 22  1  0
  5 23  1  0
  5 24  1  0
  6 25  1  1
  7 26  1  0
  7 27  1  0
  8 28  1  0
  8 29  1  0
  9 30  1  0
 11 31  1  0
 13 32  1  0
 15 33  1  0
M  ISO  8  16  13  17  13  18  13  19  13  20  13  21  13  22  13  23  13
M  ISO  8  24  13  25  13  26   8  27   8  28   8  29   8  30  14  31  14
M  ISO  2  32  14  33  11
M  END
>  <minimizedAffinity>  (1) 
-4.26167679

>  <minimizedRMSD>  (1) 
0.0924827233

$$$$
