
     RDKit          3D

 38 39  0  0  1  0  0  0  0  0999 V2000
   47.5440   34.3710   40.2320 C   0  0  1  0  0  0  0  0  0  0  0  0
   48.6010   34.8720   39.2440 C   0  0  0  0  0  0  0  0  0  0  0  0
   48.2150   34.2900   37.8970 C   0  0  0  0  0  0  0  0  0  0  0  0
   48.4450   32.8000   37.9260 C   0  0  0  0  0  0  0  0  0  0  0  0
   48.6340   32.3020   39.3410 C   0  0  0  0  0  0  0  0  0  0  0  0
   47.5600   32.8910   40.2810 C   0  0  2  0  0  0  0  0  0  0  0  0
   47.8290   34.9850   41.6170 C   0  0  0  0  0  0  0  0  0  0  0  0
   47.3750   33.9430   42.6100 C   0  0  0  0  0  0  0  0  0  0  0  0
   46.1870   33.8470   44.7420 C   0  0  0  0  0  0  0  0  0  0  0  0
   46.3980   34.4750   43.5040 C   0  0  0  0  0  0  0  0  0  0  0  0
   45.6540   35.5850   43.1880 C   0  0  0  0  0  0  0  0  0  0  0  0
   44.7400   36.0380   44.0830 N   0  0  0  0  0  0  0  0  0  0  0  0
   44.5390   35.4280   45.2770 C   0  0  0  0  0  0  0  0  0  0  0  0
   45.2640   34.3320   45.6060 N   0  0  0  0  0  0  0  0  0  0  0  0
   46.2700   32.3110   39.7180 C   0  0  0  0  0  0  0  0  0  0  0  0
   45.1480   33.3490   39.8060 C   0  0  0  0  0  0  0  0  0  0  0  0
   46.5398   34.6814   39.9076 H   0  0  0  0  0  0  0  0  0  0  0  0
   48.5960   35.9712   39.2022 H   0  0  0  0  0  0  0  0  0  0  0  0
   49.6138   34.5642   39.5433 H   0  0  0  0  0  0  0  0  0  0  0  0
   48.8324   34.7438   37.1078 H   0  0  0  0  0  0  0  0  0  0  0  0
   47.1554   34.5001   37.6895 H   0  0  0  0  0  0  0  0  0  0  0  0
   47.5754   32.2942   37.4810 H   0  0  0  0  0  0  0  0  0  0  0  0
   49.3582   32.5779   37.3543 H   0  0  0  0  0  0  0  0  0  0  0  0
   48.5575   31.2047   39.3497 H   0  0  0  0  0  0  0  0  0  0  0  0
   49.6249   32.6212   39.6963 H   0  0  0  0  0  0  0  0  0  0  0  0
   47.7301   32.6432   41.3391 H   0  0  0  0  0  0  0  0  0  0  0  0
   48.9034   35.1890   41.7353 H   0  0  0  0  0  0  0  0  0  0  0  0
   47.3079   35.9434   41.7581 H   0  0  0  0  0  0  0  0  0  0  0  0
   46.9379   33.0936   42.0646 H   0  0  0  0  0  0  0  0  0  0  0  0
   48.2461   33.6185   43.1981 H   0  0  0  0  0  0  0  0  0  0  0  0
   46.7743   32.9568   45.0113 H   0  0  0  0  0  0  0  0  0  0  0  0
   45.7965   36.0984   42.2256 H   0  0  0  0  0  0  0  0  0  0  0  0
   43.7883   35.8225   45.9776 H   0  0  0  0  0  0  0  0  0  0  0  0
   45.9879   31.4195   40.2973 H   0  0  0  0  0  0  0  0  0  0  0  0
   46.4267   32.0366   38.6644 H   0  0  0  0  0  0  0  0  0  0  0  0
   44.9231   33.5571   40.8625 H   0  0  0  0  0  0  0  0  0  0  0  0
   45.4673   34.2771   39.3094 H   0  0  0  0  0  0  0  0  0  0  0  0
   44.2475   32.9585   39.3094 H   0  0  0  0  0  0  0  0  0  0  0  0
  1  6  1  0
  1  7  1  0
  2  1  1  0
  3  4  1  0
  3  2  1  0
  4  5  1  0
  5  6  1  0
  7  8  1  0
  8 10  1  0
  9 14  2  0
 10  9  1  0
 11 10  2  0
 11 12  1  0
 12 13  2  0
 13 14  1  0
 15 16  1  0
 15  6  1  0
  1 17  1  6
  2 18  1  0
  2 19  1  0
  3 20  1  0
  3 21  1  0
  4 22  1  0
  4 23  1  0
  5 24  1  0
  5 25  1  0
  6 26  1  1
  7 27  1  0
  7 28  1  0
  8 29  1  0
  8 30  1  0
  9 31  1  0
 11 32  1  0
 13 33  1  0
 15 34  1  0
 15 35  1  0
 16 36  1  0
 16 37  1  0
 16 38  1  0
M  ISO  8  17  13  18  13  19  13  20  13  21  13  22  13  23  13  24  13
M  ISO  8  25  13  26  13  27   8  28   8  29   8  30   8  31  14  32  14
M  ISO  6  33  14  34   8  35   8  36   8  37   8  38   8
M  END
>  <minimizedAffinity>  (1) 
-4.19687796

>  <minimizedRMSD>  (1) 
0.319993734

$$$$
