
     RDKit          3D

 54 57  0  0  1  0  0  0  0  0999 V2000
   46.7290   34.3030   40.2700 C   0  0  1  0  0  0  0  0  0  0  0  0
   47.9630   33.8860   39.4500 C   0  0  0  0  0  0  0  0  0  0  0  0
   47.4230   33.5240   38.0720 C   0  0  0  0  0  0  0  0  0  0  0  0
   46.6210   32.2640   38.1790 C   0  0  0  0  0  0  0  0  0  0  0  0
   46.3130   31.9520   39.6110 C   0  0  0  0  0  0  0  0  0  0  0  0
   45.7940   33.2020   40.3660 C   0  0  2  0  0  0  0  0  0  0  0  0
   47.1910   34.7360   41.6790 C   0  0  0  0  0  0  0  0  0  0  0  0
   46.6510   33.7480   42.6140 C   0  0  0  0  0  0  0  0  0  0  0  0
   45.8790   33.6760   44.8950 C   0  0  0  0  0  0  0  0  0  0  0  0
   45.9220   34.3760   43.6890 C   0  0  0  0  0  0  0  0  0  0  0  0
   45.2790   35.5530   43.5220 C   0  0  0  0  0  0  0  0  0  0  0  0
   44.5800   36.0420   44.5790 N   0  0  0  0  0  0  0  0  0  0  0  0
   44.5180   35.3870   45.7660 C   0  0  0  0  0  0  0  0  0  0  0  0
   45.1680   34.2040   45.9240 N   0  0  0  0  0  0  0  0  0  0  0  0
   44.4910   33.5110   39.6750 C   0  0  0  0  0  0  0  0  0  0  0  0
   43.6160   34.4530   40.4960 C   0  0  0  0  0  0  0  0  0  0  0  0
   42.4300   34.7460   39.5970 C   0  0  0  0  0  0  0  0  0  0  0  0
   42.4170   35.4650   38.4250 C   0  0  0  0  0  0  0  0  0  0  0  0
   41.2780   35.6690   37.6820 C   0  0  0  0  0  0  0  0  0  0  0  0
   40.0890   35.1340   38.1210 C   0  0  0  0  0  0  0  0  0  0  0  0
   40.0370   34.3940   39.3070 C   0  0  0  0  0  0  0  0  0  0  0  0
   38.8070   33.8930   39.6770 C   0  0  0  0  0  0  0  0  0  0  0  0
   38.7590   33.1530   40.8590 C   0  0  0  0  0  0  0  0  0  0  0  0
   39.9050   32.9390   41.6190 C   0  0  0  0  0  0  0  0  0  0  0  0
   41.0950   33.4840   41.1630 C   0  0  0  0  0  0  0  0  0  0  0  0
   41.2180   34.2260   40.0040 C   0  0  0  0  0  0  0  0  0  0  0  0
   46.2209   35.1420   39.7722 H   0  0  0  0  0  0  0  0  0  0  0  0
   48.6776   34.7191   39.3776 H   0  0  0  0  0  0  0  0  0  0  0  0
   48.5008   33.0464   39.9145 H   0  0  0  0  0  0  0  0  0  0  0  0
   48.2609   33.3700   37.3762 H   0  0  0  0  0  0  0  0  0  0  0  0
   46.7870   34.3389   37.6959 H   0  0  0  0  0  0  0  0  0  0  0  0
   45.6784   32.3880   37.6257 H   0  0  0  0  0  0  0  0  0  0  0  0
   47.2067   31.4351   37.7547 H   0  0  0  0  0  0  0  0  0  0  0  0
   45.5434   31.1669   39.6482 H   0  0  0  0  0  0  0  0  0  0  0  0
   47.2401   31.6151   40.0978 H   0  0  0  0  0  0  0  0  0  0  0  0
   45.6702   33.0323   41.4458 H   0  0  0  0  0  0  0  0  0  0  0  0
   48.2897   34.7486   41.7317 H   0  0  0  0  0  0  0  0  0  0  0  0
   46.8361   35.7487   41.9208 H   0  0  0  0  0  0  0  0  0  0  0  0
   45.9734   33.0742   42.0692 H   0  0  0  0  0  0  0  0  0  0  0  0
   47.4934   33.1906   43.0496 H   0  0  0  0  0  0  0  0  0  0  0  0
   46.4087   32.7188   45.0095 H   0  0  0  0  0  0  0  0  0  0  0  0
   45.3202   36.0948   42.5656 H   0  0  0  0  0  0  0  0  0  0  0  0
   43.9417   35.8136   46.6002 H   0  0  0  0  0  0  0  0  0  0  0  0
   44.7069   33.9825   38.7049 H   0  0  0  0  0  0  0  0  0  0  0  0
   43.9433   32.5658   39.5459 H   0  0  0  0  0  0  0  0  0  0  0  0
   43.2881   33.9674   41.4270 H   0  0  0  0  0  0  0  0  0  0  0  0
   44.1502   35.3665   40.7962 H   0  0  0  0  0  0  0  0  0  0  0  0
   43.3622   35.8973   38.0648 H   0  0  0  0  0  0  0  0  0  0  0  0
   41.3170   36.2517   36.7498 H   0  0  0  0  0  0  0  0  0  0  0  0
   39.1715   35.2894   37.5345 H   0  0  0  0  0  0  0  0  0  0  0  0
   37.9068   34.0682   39.0696 H   0  0  0  0  0  0  0  0  0  0  0  0
   37.8000   32.7321   41.1954 H   0  0  0  0  0  0  0  0  0  0  0  0
   39.8676   32.3563   42.5512 H   0  0  0  0  0  0  0  0  0  0  0  0
   42.0011   33.3147   41.7633 H   0  0  0  0  0  0  0  0  0  0  0  0
  1  6  1  0
  1  7  1  0
  2  1  1  0
  3  4  1  0
  3  2  1  0
  4  5  1  0
  5  6  1  0
  7  8  1  0
  8 10  1  0
  9 14  2  0
 10  9  1  0
 11 10  2  0
 11 12  1  0
 12 13  2  0
 13 14  1  0
 15  6  1  0
 15 16  1  0
 17 26  1  0
 17 16  1  0
 18 17  2  0
 19 20  2  0
 19 18  1  0
 20 21  1  0
 21 22  1  0
 21 26  2  0
 22 23  2  0
 23 24  1  0
 25 24  2  0
 26 25  1  0
  1 27  1  6
  2 28  1  0
  2 29  1  0
  3 30  1  0
  3 31  1  0
  4 32  1  0
  4 33  1  0
  5 34  1  0
  5 35  1  0
  6 36  1  1
  7 37  1  0
  7 38  1  0
  8 39  1  0
  8 40  1  0
  9 41  1  0
 11 42  1  0
 13 43  1  0
 15 44  1  0
 15 45  1  0
 16 46  1  0
 16 47  1  0
 18 48  1  0
 19 49  1  0
 20 50  1  0
 22 51  1  0
 23 52  1  0
 24 53  1  0
 25 54  1  0
M  ISO  8  27  13  28  13  29  13  30  13  31  13  32  13  33  13  34  13
M  ISO  8  35  13  36  13  37   8  38   8  39   8  40   8  41  14  42  14
M  ISO  8  43  14  44   8  45   8  46   8  47   8  48  14  49  14  50  14
M  ISO  4  51  14  52  14  53  14  54  14
M  END
>  <minimizedAffinity>  (1) 
-6.54971075

>  <minimizedRMSD>  (1) 
2.88231087

$$$$
