
     RDKit          3D

 49 52  0  0  1  0  0  0  0  0999 V2000
   46.8180   34.3150   40.2960 C   0  0  1  0  0  0  0  0  0  0  0  0
   48.0560   33.9510   39.4580 C   0  0  0  0  0  0  0  0  0  0  0  0
   47.5060   33.5970   38.0790 C   0  0  0  0  0  0  0  0  0  0  0  0
   46.7400   32.3110   38.1730 C   0  0  0  0  0  0  0  0  0  0  0  0
   46.4690   31.9660   39.6000 C   0  0  0  0  0  0  0  0  0  0  0  0
   45.9210   33.1830   40.3870 C   0  0  2  0  0  0  0  0  0  0  0  0
   47.2840   34.7440   41.7070 C   0  0  0  0  0  0  0  0  0  0  0  0
   46.7560   33.7530   42.6440 C   0  0  0  0  0  0  0  0  0  0  0  0
   45.9430   33.6720   44.9130 C   0  0  0  0  0  0  0  0  0  0  0  0
   45.9990   34.3700   43.7050 C   0  0  0  0  0  0  0  0  0  0  0  0
   45.3380   35.5340   43.5260 C   0  0  0  0  0  0  0  0  0  0  0  0
   44.6070   36.0140   44.5650 N   0  0  0  0  0  0  0  0  0  0  0  0
   44.5310   35.3600   45.7500 C   0  0  0  0  0  0  0  0  0  0  0  0
   45.1970   34.1940   45.9230 N   0  0  0  0  0  0  0  0  0  0  0  0
   44.6020   33.4340   39.7350 C   0  0  0  0  0  0  0  0  0  0  0  0
   43.7960   34.4870   40.4910 C   0  0  0  0  0  0  0  0  0  0  0  0
   42.4840   34.6340   39.8180 N   0  0  0  0  0  0  0  0  0  0  0  0
   42.3000   35.2640   38.6190 C   0  0  0  0  0  0  0  0  0  0  0  0
   41.0240   35.2460   38.2560 N   0  0  0  0  0  0  0  0  0  0  0  0
   40.3570   34.6040   39.2140 C   0  0  0  0  0  0  0  0  0  0  0  0
   39.0220   34.2860   39.3780 C   0  0  0  0  0  0  0  0  0  0  0  0
   38.6720   33.6130   40.4880 N   0  0  0  0  0  0  0  0  0  0  0  0
   39.6050   33.2580   41.4200 C   0  0  0  0  0  0  0  0  0  0  0  0
   40.9080   33.5640   41.2700 N   0  0  0  0  0  0  0  0  0  0  0  0
   41.2740   34.2310   40.1740 C   0  0  0  0  0  0  0  0  0  0  0  0
   46.2755   35.1425   39.8155 H   0  0  0  0  0  0  0  0  0  0  0  0
   48.7442   34.8066   39.3923 H   0  0  0  0  0  0  0  0  0  0  0  0
   48.6273   33.1222   39.9014 H   0  0  0  0  0  0  0  0  0  0  0  0
   48.3382   33.4793   37.3693 H   0  0  0  0  0  0  0  0  0  0  0  0
   46.8416   34.3999   37.7271 H   0  0  0  0  0  0  0  0  0  0  0  0
   45.7844   32.4192   37.6391 H   0  0  0  0  0  0  0  0  0  0  0  0
   47.3387   31.5068   37.7205 H   0  0  0  0  0  0  0  0  0  0  0  0
   45.7276   31.1542   39.6364 H   0  0  0  0  0  0  0  0  0  0  0  0
   47.4162   31.6542   40.0644 H   0  0  0  0  0  0  0  0  0  0  0  0
   45.8246   33.0060   41.4684 H   0  0  0  0  0  0  0  0  0  0  0  0
   48.3828   34.7622   41.7540 H   0  0  0  0  0  0  0  0  0  0  0  0
   46.9220   35.7531   41.9532 H   0  0  0  0  0  0  0  0  0  0  0  0
   46.1015   33.0587   42.0967 H   0  0  0  0  0  0  0  0  0  0  0  0
   47.6068   33.2213   43.0951 H   0  0  0  0  0  0  0  0  0  0  0  0
   46.4877   32.7254   45.0441 H   0  0  0  0  0  0  0  0  0  0  0  0
   45.3900   36.0755   42.5700 H   0  0  0  0  0  0  0  0  0  0  0  0
   43.9285   35.7765   46.5707 H   0  0  0  0  0  0  0  0  0  0  0  0
   44.7726   33.7848   38.7065 H   0  0  0  0  0  0  0  0  0  0  0  0
   44.0308   32.4939   39.7383 H   0  0  0  0  0  0  0  0  0  0  0  0
   43.6468   34.1655   41.5323 H   0  0  0  0  0  0  0  0  0  0  0  0
   44.3323   35.4474   40.4940 H   0  0  0  0  0  0  0  0  0  0  0  0
   43.1062   35.7265   38.0307 H   0  0  0  0  0  0  0  0  0  0  0  0
   38.2720   34.5735   38.6265 H   0  0  0  0  0  0  0  0  0  0  0  0
   39.2839   32.7077   42.3167 H   0  0  0  0  0  0  0  0  0  0  0  0
  1  6  1  0
  1  7  1  0
  2  1  1  0
  3  4  1  0
  3  2  1  0
  4  5  1  0
  5  6  1  0
  7  8  1  0
  8 10  1  0
  9 14  2  0
 10  9  1  0
 11 10  2  0
 11 12  1  0
 12 13  2  0
 13 14  1  0
 15  6  1  0
 15 16  1  0
 17 25  1  0
 17 16  1  0
 18 17  1  0
 19 18  2  0
 19 20  1  0
 20 21  2  0
 20 25  1  0
 21 22  1  0
 22 23  2  0
 24 23  1  0
 25 24  2  0
  1 26  1  6
  2 27  1  0
  2 28  1  0
  3 29  1  0
  3 30  1  0
  4 31  1  0
  4 32  1  0
  5 33  1  0
  5 34  1  0
  6 35  1  1
  7 36  1  0
  7 37  1  0
  8 38  1  0
  8 39  1  0
  9 40  1  0
 11 41  1  0
 13 42  1  0
 15 43  1  0
 15 44  1  0
 16 45  1  0
 16 46  1  0
 18 47  1  0
 21 48  1  0
 23 49  1  0
M  ISO  8  26  13  27  13  28  13  29  13  30  13  31  13  32  13  33  13
M  ISO  8  34  13  35  13  36   8  37   8  38   8  39   8  40  14  41  14
M  ISO  8  42  14  43   8  44   8  45   8  46   8  47  14  48  14  49  14
M  END
>  <minimizedAffinity>  (1) 
-5.80243158

>  <minimizedRMSD>  (1) 
2.21140075

$$$$
