
     RDKit          3D

 51 53  0  0  1  0  0  0  0  0999 V2000
   46.8480   34.3680   40.4990 C   0  0  1  0  0  0  0  0  0  0  0  0
   48.0620   34.1070   39.5800 C   0  0  0  0  0  0  0  0  0  0  0  0
   47.4820   33.7460   38.2280 C   0  0  0  0  0  0  0  0  0  0  0  0
   46.7920   32.4120   38.3200 C   0  0  0  0  0  0  0  0  0  0  0  0
   46.5850   32.0190   39.7400 C   0  0  0  0  0  0  0  0  0  0  0  0
   46.0150   33.1880   40.5850 C   0  0  2  0  0  0  0  0  0  0  0  0
   47.3580   34.7670   41.8990 C   0  0  0  0  0  0  0  0  0  0  0  0
   46.8670   33.7460   42.8260 C   0  0  0  0  0  0  0  0  0  0  0  0
   46.0220   33.6210   45.0800 C   0  0  0  0  0  0  0  0  0  0  0  0
   46.0600   34.3240   43.8740 C   0  0  0  0  0  0  0  0  0  0  0  0
   45.3400   35.4520   43.6860 C   0  0  0  0  0  0  0  0  0  0  0  0
   44.5710   35.8760   44.7250 N   0  0  0  0  0  0  0  0  0  0  0  0
   44.5090   35.2210   45.9050 C   0  0  0  0  0  0  0  0  0  0  0  0
   45.2420   34.0810   46.0860 N   0  0  0  0  0  0  0  0  0  0  0  0
   44.6600   33.4250   39.9790 C   0  0  0  0  0  0  0  0  0  0  0  0
   44.0100   34.6790   40.4960 C   0  0  0  0  0  0  0  0  0  0  0  0
   42.5600   34.3370   40.5190 N   0  0  0  0  0  0  0  0  0  0  0  0
   41.8970   35.1590   41.5290 C   0  0  0  0  0  0  0  0  0  0  0  0
   40.4590   34.7000   41.5160 C   0  0  0  0  0  0  0  0  0  0  0  0
   39.8710   35.2710   40.3960 O   0  0  0  0  0  0  0  0  0  0  0  0
   40.7640   35.6410   39.4270 C   0  0  0  0  0  0  0  0  0  0  0  0
   41.9420   34.7070   39.2510 C   0  0  0  0  0  0  0  0  0  0  0  0
   46.2401   35.1838   40.0807 H   0  0  0  0  0  0  0  0  0  0  0  0
   48.6848   35.0103   39.5014 H   0  0  0  0  0  0  0  0  0  0  0  0
   48.7044   33.3055   39.9735 H   0  0  0  0  0  0  0  0  0  0  0  0
   48.2910   33.6902   37.4847 H   0  0  0  0  0  0  0  0  0  0  0  0
   46.7567   34.5144   37.9224 H   0  0  0  0  0  0  0  0  0  0  0  0
   45.8154   32.4761   37.8179 H   0  0  0  0  0  0  0  0  0  0  0  0
   47.4245   31.6545   37.8340 H   0  0  0  0  0  0  0  0  0  0  0  0
   45.8791   31.1761   39.7767 H   0  0  0  0  0  0  0  0  0  0  0  0
   47.5609   31.7368   40.1619 H   0  0  0  0  0  0  0  0  0  0  0  0
   45.9705   32.9541   41.6589 H   0  0  0  0  0  0  0  0  0  0  0  0
   48.4576   34.7930   41.9098 H   0  0  0  0  0  0  0  0  0  0  0  0
   47.0000   35.7676   42.1828 H   0  0  0  0  0  0  0  0  0  0  0  0
   46.2593   33.0191   42.2672 H   0  0  0  0  0  0  0  0  0  0  0  0
   47.7357   33.2568   43.2908 H   0  0  0  0  0  0  0  0  0  0  0  0
   46.6180   32.7057   45.2107 H   0  0  0  0  0  0  0  0  0  0  0  0
   45.3742   36.0031   42.7346 H   0  0  0  0  0  0  0  0  0  0  0  0
   43.8719   35.6030   46.7163 H   0  0  0  0  0  0  0  0  0  0  0  0
   44.0124   32.5681   40.2165 H   0  0  0  0  0  0  0  0  0  0  0  0
   44.7946   33.5410   38.8935 H   0  0  0  0  0  0  0  0  0  0  0  0
   44.3725   34.9218   41.5058 H   0  0  0  0  0  0  0  0  0  0  0  0
   44.2316   35.5617   39.8782 H   0  0  0  0  0  0  0  0  0  0  0  0
   42.3473   34.9947   42.5191 H   0  0  0  0  0  0  0  0  0  0  0  0
   41.9917   36.2342   41.3171 H   0  0  0  0  0  0  0  0  0  0  0  0
   40.4113   33.6029   41.4521 H   0  0  0  0  0  0  0  0  0  0  0  0
   39.9374   35.0028   42.4359 H   0  0  0  0  0  0  0  0  0  0  0  0
   40.2253   35.6947   38.4694 H   0  0  0  0  0  0  0  0  0  0  0  0
   41.1828   36.6062   39.7479 H   0  0  0  0  0  0  0  0  0  0  0  0
   41.5941   33.7923   38.7487 H   0  0  0  0  0  0  0  0  0  0  0  0
   42.6993   35.2356   38.6535 H   0  0  0  0  0  0  0  0  0  0  0  0
  1  6  1  0
  1  7  1  0
  2  1  1  0
  3  4  1  0
  3  2  1  0
  4  5  1  0
  5  6  1  0
  7  8  1  0
  8 10  1  0
  9 14  2  0
 10  9  1  0
 11 10  2  0
 11 12  1  0
 12 13  2  0
 13 14  1  0
 15 16  1  0
 15  6  1  0
 16 17  1  0
 17 18  1  0
 19 18  1  0
 20 19  1  0
 21 20  1  0
 22 21  1  0
 22 17  1  0
  1 23  1  6
  2 24  1  0
  2 25  1  0
  3 26  1  0
  3 27  1  0
  4 28  1  0
  4 29  1  0
  5 30  1  0
  5 31  1  0
  6 32  1  1
  7 33  1  0
  7 34  1  0
  8 35  1  0
  8 36  1  0
  9 37  1  0
 11 38  1  0
 13 39  1  0
 15 40  1  0
 15 41  1  0
 16 42  1  0
 16 43  1  0
 18 44  1  0
 18 45  1  0
 19 46  1  0
 19 47  1  0
 21 48  1  0
 21 49  1  0
 22 50  1  0
 22 51  1  0
M  ISO  8  23  13  24  13  25  13  26  13  27  13  28  13  29  13  30  13
M  ISO  8  31  13  32  13  33   8  34   8  35   8  36   8  37  14  38  14
M  ISO  8  39  14  40   8  41   8  42   8  43   8  44  13  45  13  46  13
M  ISO  5  47  13  48  13  49  13  50  13  51  13
M  END
>  <minimizedAffinity>  (1) 
-5.10340166

>  <minimizedRMSD>  (1) 
1.8946811

$$$$
