
     RDKit          3D

 30 32  0  0  0  0  0  0  0  0999 V2000
   46.5120   34.4540   41.8820 N   0  0  0  0  0  0  0  0  0  0  0  0
   47.6790   35.1580   41.7760 C   0  0  0  0  0  0  0  0  0  0  0  0
   48.4440   35.1060   40.6340 C   0  0  0  0  0  0  0  0  0  0  0  0
   47.9850   34.3040   39.5830 C   0  0  0  0  0  0  0  0  0  0  0  0
   48.6570   34.2320   38.5270 O   0  0  0  0  0  0  0  0  0  0  0  0
   46.8380   33.6440   39.7510 N   0  0  0  0  0  0  0  0  0  0  0  0
   46.1030   33.7050   40.8740 C   0  0  0  0  0  0  0  0  0  0  0  0
   45.0370   33.1180   41.0860 O   0  0  0  0  0  0  0  0  0  0  0  0
   44.5520   36.0410   44.5910 C   0  0  0  0  0  0  0  0  0  0  0  0
   45.1490   35.8240   43.3220 C   0  0  0  0  0  0  0  0  0  0  0  0
   45.9070   34.6770   43.1600 C   0  0  0  0  0  0  0  0  0  0  0  0
   46.0560   33.8040   44.2070 N   0  0  0  0  0  0  0  0  0  0  0  0
   45.4640   34.0540   45.4040 C   0  0  0  0  0  0  0  0  0  0  0  0
   44.7240   35.1510   45.6020 N   0  0  0  0  0  0  0  0  0  0  0  0
   46.3200   32.8110   38.7160 C   0  0  0  0  0  0  0  0  0  0  0  0
   45.4340   33.2600   37.7360 C   0  0  0  0  0  0  0  0  0  0  0  0
   44.9820   32.3850   36.7690 C   0  0  0  0  0  0  0  0  0  0  0  0
   45.3990   31.0510   36.7550 C   0  0  0  0  0  0  0  0  0  0  0  0
   46.2780   30.6370   37.7400 C   0  0  0  0  0  0  0  0  0  0  0  0
   46.7640   31.4860   38.7420 C   0  0  0  0  0  0  0  0  0  0  0  0
   48.0129   35.7784   42.6207 H   0  0  0  0  0  0  0  0  0  0  0  0
   49.3822   35.6740   40.5499 H   0  0  0  0  0  0  0  0  0  0  0  0
   43.9424   36.9413   44.7577 H   0  0  0  0  0  0  0  0  0  0  0  0
   45.0145   36.5403   42.4981 H   0  0  0  0  0  0  0  0  0  0  0  0
   45.5960   33.3384   46.2289 H   0  0  0  0  0  0  0  0  0  0  0  0
   45.0971   34.3071   37.7341 H   0  0  0  0  0  0  0  0  0  0  0  0
   44.2835   32.7427   35.9982 H   0  0  0  0  0  0  0  0  0  0  0  0
   45.0397   30.3523   35.9851 H   0  0  0  0  0  0  0  0  0  0  0  0
   46.6117   29.5888   37.7358 H   0  0  0  0  0  0  0  0  0  0  0  0
   47.4619   31.1272   39.5128 H   0  0  0  0  0  0  0  0  0  0  0  0
  1 11  1  0
  2  1  1  0
  3  2  2  0
  4  6  1  0
  4  3  1  0
  5  4  2  0
  6  7  1  0
  7  8  2  0
  7  1  1  0
  9 14  2  0
 10  9  1  0
 11 10  2  0
 11 12  1  0
 12 13  2  0
 13 14  1  0
 15 20  1  0
 15  6  1  0
 16 15  2  0
 17 16  1  0
 18 17  2  0
 18 19  1  0
 19 20  2  0
  2 21  1  0
  3 22  1  0
  9 23  1  0
 10 24  1  0
 13 25  1  0
 16 26  1  0
 17 27  1  0
 18 28  1  0
 19 29  1  0
 20 30  1  0
M  ISO  8  21  14  22  14  23  14  24  14  25  14  26  14  27  14  28  14
M  ISO  2  29  14  30  14
M  END
>  <minimizedAffinity>  (1) 
-5.1009779

>  <minimizedRMSD>  (1) 
0.929790616

$$$$
