
     RDKit          3D

 37 39  0  0  0  0  0  0  0  0999 V2000
   46.3930   34.1850   41.8570 N   0  0  0  0  0  0  0  0  0  0  0  0
   47.4850   34.9860   41.6080 C   0  0  0  0  0  0  0  0  0  0  0  0
   48.2000   34.8720   40.4390 C   0  0  0  0  0  0  0  0  0  0  0  0
   47.7790   33.9140   39.5060 C   0  0  0  0  0  0  0  0  0  0  0  0
   48.4060   33.7860   38.4350 O   0  0  0  0  0  0  0  0  0  0  0  0
   46.7050   33.1700   39.8180 N   0  0  0  0  0  0  0  0  0  0  0  0
   46.0270   33.2940   40.9570 C   0  0  0  0  0  0  0  0  0  0  0  0
   45.0440   32.6440   41.2910 O   0  0  0  0  0  0  0  0  0  0  0  0
   46.2370   32.1810   38.9120 C   0  0  0  0  0  0  0  0  0  0  0  0
   46.7890   30.9170   38.7910 C   0  0  0  0  0  0  0  0  0  0  0  0
   46.3040   29.9930   37.9060 C   0  0  0  0  0  0  0  0  0  0  0  0
   45.2200   30.3260   37.0950 C   0  0  0  0  0  0  0  0  0  0  0  0
   44.6850   31.5840   37.2280 C   0  0  0  0  0  0  0  0  0  0  0  0
   45.1440   32.5650   38.1160 C   0  0  0  0  0  0  0  0  0  0  0  0
   44.5430   33.8480   38.2130 N   0  0  0  0  0  0  0  0  0  0  0  0
   43.2190   34.1090   38.6560 C   0  0  0  0  0  0  0  0  0  0  0  0
   42.3370   33.2900   38.1460 N   0  0  0  0  0  0  0  0  0  0  0  0
   43.0340   35.2040   39.5770 N   0  0  0  0  0  0  0  0  0  0  0  0
   41.3370   33.4080   38.4160 H   0  0  0  0  0  0  0  0  0  0  0  0
   44.5040   35.9430   44.5010 C   0  0  0  0  0  0  0  0  0  0  0  0
   45.0600   35.6390   43.2320 C   0  0  0  0  0  0  0  0  0  0  0  0
   45.8290   34.4970   43.1310 C   0  0  0  0  0  0  0  0  0  0  0  0
   46.0230   33.7170   44.2300 N   0  0  0  0  0  0  0  0  0  0  0  0
   45.4750   34.0420   45.4250 C   0  0  0  0  0  0  0  0  0  0  0  0
   44.7170   35.1490   45.5670 N   0  0  0  0  0  0  0  0  0  0  0  0
   47.7909   35.7305   42.3578 H   0  0  0  0  0  0  0  0  0  0  0  0
   49.0733   35.5113   40.2424 H   0  0  0  0  0  0  0  0  0  0  0  0
   47.6450   30.6469   39.4268 H   0  0  0  0  0  0  0  0  0  0  0  0
   46.7650   28.9968   37.8351 H   0  0  0  0  0  0  0  0  0  0  0  0
   44.8073   29.6058   36.3732 H   0  0  0  0  0  0  0  0  0  0  0  0
   43.8290   31.8412   36.5869 H   0  0  0  0  0  0  0  0  0  0  0  0
   45.1162   34.6586   37.9386 H   0  0  0  0  0  0  0  0  0  0  0  0
   42.0915   35.4304   39.9253 H   0  0  0  0  0  0  0  0  0  0  0  0
   43.8445   35.7594   39.8862 H   0  0  0  0  0  0  0  0  0  0  0  0
   43.8863   36.8458   44.6164 H   0  0  0  0  0  0  0  0  0  0  0  0
   44.8851   36.2884   42.3616 H   0  0  0  0  0  0  0  0  0  0  0  0
   45.6509   33.3922   46.2949 H   0  0  0  0  0  0  0  0  0  0  0  0
  1 22  1  0
  2  1  1  0
  3  2  2  0
  4  6  1  0
  4  3  1  0
  5  4  2  0
  6  7  1  0
  7  8  2  0
  7  1  1  0
  9  6  1  0
 10  9  2  0
 11 10  1  0
 12 13  1  0
 12 11  2  0
 13 14  2  0
 14 15  1  0
 14  9  1  0
 15 16  1  0
 16 18  1  0
 17 19  1  0
 17 16  2  0
 20 25  2  0
 21 20  1  0
 22 21  2  0
 22 23  1  0
 23 24  2  0
 24 25  1  0
  2 26  1  0
  3 27  1  0
 10 28  1  0
 11 29  1  0
 12 30  1  0
 13 31  1  0
 15 32  1  0
 18 33  1  0
 18 34  1  0
 20 35  1  0
 21 36  1  0
 24 37  1  0
M  ISO  8  26  14  27  14  28  14  29  14  30  14  31  14  35  14  36  14
M  ISO  1  37  14
M  END
>  <minimizedAffinity>  (1) 
-5.72256136

>  <minimizedRMSD>  (1) 
2.68043208

$$$$
