
     RDKit          3D

 44 47  0  0  0  0  0  0  0  0999 V2000
   46.5560   34.4490   42.0470 N   0  0  0  0  0  0  0  0  0  0  0  0
   47.6500   35.2730   41.9310 C   0  0  0  0  0  0  0  0  0  0  0  0
   48.3940   35.3010   40.7760 C   0  0  0  0  0  0  0  0  0  0  0  0
   47.9960   34.4570   39.7210 C   0  0  0  0  0  0  0  0  0  0  0  0
   48.6500   34.4570   38.6550 O   0  0  0  0  0  0  0  0  0  0  0  0
   46.9270   33.6900   39.9100 N   0  0  0  0  0  0  0  0  0  0  0  0
   46.2110   33.6750   41.0450 C   0  0  0  0  0  0  0  0  0  0  0  0
   45.2200   32.9910   41.2760 O   0  0  0  0  0  0  0  0  0  0  0  0
   46.4720   32.8150   38.8810 C   0  0  0  0  0  0  0  0  0  0  0  0
   45.4650   33.1280   37.9820 C   0  0  0  0  0  0  0  0  0  0  0  0
   45.0850   32.2220   37.0150 C   0  0  0  0  0  0  0  0  0  0  0  0
   45.7130   30.9670   36.9260 C   0  0  0  0  0  0  0  0  0  0  0  0
   46.7090   30.6840   37.8300 C   0  0  0  0  0  0  0  0  0  0  0  0
   47.1080   31.5880   38.8180 C   0  0  0  0  0  0  0  0  0  0  0  0
   48.1510   31.1200   39.6620 N   0  0  0  0  0  0  0  0  0  0  0  0
   48.0140   30.5800   40.9980 C   0  0  0  0  0  0  0  0  0  0  0  0
   49.1320   29.5510   41.2120 C   0  0  0  0  0  0  0  0  0  0  0  0
   50.4160   30.1760   41.1470 N   0  0  0  0  0  0  0  0  0  0  0  0
   50.5740   31.1850   40.1510 C   0  0  0  0  0  0  0  0  0  0  0  0
   49.4950   31.1970   39.1190 C   0  0  0  0  0  0  0  0  0  0  0  0
   44.5140   35.8400   44.8020 C   0  0  0  0  0  0  0  0  0  0  0  0
   45.1080   35.6860   43.5290 C   0  0  0  0  0  0  0  0  0  0  0  0
   45.9510   34.6040   43.3460 C   0  0  0  0  0  0  0  0  0  0  0  0
   46.1840   33.7320   44.3730 N   0  0  0  0  0  0  0  0  0  0  0  0
   45.5850   33.9300   45.5790 C   0  0  0  0  0  0  0  0  0  0  0  0
   44.7600   34.9670   45.7980 N   0  0  0  0  0  0  0  0  0  0  0  0
   47.9340   35.9192   42.7747 H   0  0  0  0  0  0  0  0  0  0  0  0
   49.2697   35.9595   40.6788 H   0  0  0  0  0  0  0  0  0  0  0  0
   44.9654   34.1062   38.0404 H   0  0  0  0  0  0  0  0  0  0  0  0
   44.2842   32.4829   36.3074 H   0  0  0  0  0  0  0  0  0  0  0  0
   45.4172   30.2364   36.1588 H   0  0  0  0  0  0  0  0  0  0  0  0
   47.2118   29.7073   37.7735 H   0  0  0  0  0  0  0  0  0  0  0  0
   48.1045   31.3886   41.7383 H   0  0  0  0  0  0  0  0  0  0  0  0
   47.0295   30.1043   41.1182 H   0  0  0  0  0  0  0  0  0  0  0  0
   49.0079   29.0838   42.2001 H   0  0  0  0  0  0  0  0  0  0  0  0
   49.0689   28.7915   40.4188 H   0  0  0  0  0  0  0  0  0  0  0  0
   50.6028   30.6069   42.0637 H   0  0  0  0  0  0  0  0  0  0  0  0
   50.5851   32.1649   40.6507 H   0  0  0  0  0  0  0  0  0  0  0  0
   51.5145   30.9662   39.6241 H   0  0  0  0  0  0  0  0  0  0  0  0
   49.6470   30.3363   38.4511 H   0  0  0  0  0  0  0  0  0  0  0  0
   49.5694   32.1615   38.5953 H   0  0  0  0  0  0  0  0  0  0  0  0
   43.8380   36.6887   44.9830 H   0  0  0  0  0  0  0  0  0  0  0  0
   44.9080   36.3986   42.7152 H   0  0  0  0  0  0  0  0  0  0  0  0
   45.7820   33.2212   46.3968 H   0  0  0  0  0  0  0  0  0  0  0  0
  1 23  1  0
  2  1  1  0
  3  2  2  0
  4  6  1  0
  4  3  1  0
  5  4  2  0
  6  7  1  0
  7  8  2  0
  7  1  1  0
  9  6  1  0
 10  9  2  0
 11 10  1  0
 12 11  2  0
 12 13  1  0
 13 14  2  0
 14  9  1  0
 14 15  1  0
 15 16  1  0
 16 17  1  0
 18 17  1  0
 19 18  1  0
 20 15  1  0
 20 19  1  0
 21 26  2  0
 22 21  1  0
 23 22  2  0
 23 24  1  0
 24 25  2  0
 25 26  1  0
  2 27  1  0
  3 28  1  0
 10 29  1  0
 11 30  1  0
 12 31  1  0
 13 32  1  0
 16 33  1  0
 16 34  1  0
 17 35  1  0
 17 36  1  0
 18 37  1  0
 19 38  1  0
 19 39  1  0
 20 40  1  0
 20 41  1  0
 21 42  1  0
 22 43  1  0
 25 44  1  0
M  ISO  8  27  14  28  14  29  14  30  14  31  14  32  14  33  13  34  13
M  ISO  8  35  13  36  13  37   5  38  13  39  13  40  13  41  13  42  14
M  ISO  2  43  14  44  14
M  END
>  <minimizedAffinity>  (1) 
-5.34553337

>  <minimizedRMSD>  (1) 
0.46012944

$$$$
