
     RDKit          3D

 42 45  0  0  0  0  0  0  0  0999 V2000
   46.6030   34.4500   42.0710 N   0  0  0  0  0  0  0  0  0  0  0  0
   47.6810   35.2960   41.9630 C   0  0  0  0  0  0  0  0  0  0  0  0
   48.4200   35.3600   40.8100 C   0  0  0  0  0  0  0  0  0  0  0  0
   48.0370   34.5340   39.7420 C   0  0  0  0  0  0  0  0  0  0  0  0
   48.6870   34.5660   38.6760 O   0  0  0  0  0  0  0  0  0  0  0  0
   46.9750   33.7360   39.9210 N   0  0  0  0  0  0  0  0  0  0  0  0
   46.2690   33.6870   41.0530 C   0  0  0  0  0  0  0  0  0  0  0  0
   45.2930   32.9800   41.2730 O   0  0  0  0  0  0  0  0  0  0  0  0
   46.5390   32.8740   38.8740 C   0  0  0  0  0  0  0  0  0  0  0  0
   45.5090   33.1730   37.9950 C   0  0  0  0  0  0  0  0  0  0  0  0
   45.1510   32.2800   37.0090 C   0  0  0  0  0  0  0  0  0  0  0  0
   45.8220   31.0620   36.8790 C   0  0  0  0  0  0  0  0  0  0  0  0
   46.8400   30.7860   37.7610 C   0  0  0  0  0  0  0  0  0  0  0  0
   47.2260   31.6700   38.7720 C   0  0  0  0  0  0  0  0  0  0  0  0
   48.2840   31.2590   39.6020 N   0  0  0  0  0  0  0  0  0  0  0  0
   49.7410   31.2980   39.4860 C   0  0  0  0  0  0  0  0  0  0  0  0
   50.2440   31.7310   40.8430 C   0  0  0  0  0  0  0  0  0  0  0  0
   49.1370   31.3490   41.8170 C   0  0  0  0  0  0  0  0  0  0  0  0
   48.1810   30.6230   40.9240 C   0  0  0  0  0  0  0  0  0  0  0  0
   44.5290   35.7450   44.8550 C   0  0  0  0  0  0  0  0  0  0  0  0
   45.1230   35.6360   43.5660 C   0  0  0  0  0  0  0  0  0  0  0  0
   45.9980   34.5670   43.3740 C   0  0  0  0  0  0  0  0  0  0  0  0
   46.2470   33.6940   44.3870 N   0  0  0  0  0  0  0  0  0  0  0  0
   45.6540   33.8450   45.5950 C   0  0  0  0  0  0  0  0  0  0  0  0
   44.8030   34.8580   45.8330 N   0  0  0  0  0  0  0  0  0  0  0  0
   47.9556   35.9329   42.8168 H   0  0  0  0  0  0  0  0  0  0  0  0
   49.2838   36.0358   40.7249 H   0  0  0  0  0  0  0  0  0  0  0  0
   44.9741   34.1299   38.0857 H   0  0  0  0  0  0  0  0  0  0  0  0
   44.3308   32.5280   36.3192 H   0  0  0  0  0  0  0  0  0  0  0  0
   45.5440   30.3440   36.0934 H   0  0  0  0  0  0  0  0  0  0  0  0
   47.3733   29.8285   37.6668 H   0  0  0  0  0  0  0  0  0  0  0  0
   50.1329   30.3023   39.2308 H   0  0  0  0  0  0  0  0  0  0  0  0
   50.0683   31.9852   38.6918 H   0  0  0  0  0  0  0  0  0  0  0  0
   51.1775   31.2062   41.0943 H   0  0  0  0  0  0  0  0  0  0  0  0
   50.4680   32.8075   40.8753 H   0  0  0  0  0  0  0  0  0  0  0  0
   49.5148   30.6941   42.6160 H   0  0  0  0  0  0  0  0  0  0  0  0
   48.6916   32.2059   42.3436 H   0  0  0  0  0  0  0  0  0  0  0  0
   47.1553   30.7135   41.3109 H   0  0  0  0  0  0  0  0  0  0  0  0
   48.4206   29.5507   40.8707 H   0  0  0  0  0  0  0  0  0  0  0  0
   43.8312   36.5708   45.0577 H   0  0  0  0  0  0  0  0  0  0  0  0
   44.9036   36.3564   42.7642 H   0  0  0  0  0  0  0  0  0  0  0  0
   45.8729   33.1248   46.3971 H   0  0  0  0  0  0  0  0  0  0  0  0
  1 22  1  0
  2  1  1  0
  3  2  2  0
  4  6  1  0
  4  3  1  0
  5  4  2  0
  6  7  1  0
  7  8  2  0
  7  1  1  0
  9  6  1  0
 10  9  2  0
 11 10  1  0
 12 11  2  0
 12 13  1  0
 13 14  2  0
 14  9  1  0
 14 15  1  0
 15 19  1  0
 16 15  1  0
 16 17  1  0
 17 18  1  0
 19 18  1  0
 20 25  2  0
 21 20  1  0
 22 21  2  0
 22 23  1  0
 23 24  2  0
 24 25  1  0
  2 26  1  0
  3 27  1  0
 10 28  1  0
 11 29  1  0
 12 30  1  0
 13 31  1  0
 16 32  1  0
 16 33  1  0
 17 34  1  0
 17 35  1  0
 18 36  1  0
 18 37  1  0
 19 38  1  0
 19 39  1  0
 20 40  1  0
 21 41  1  0
 24 42  1  0
M  ISO  8  26  14  27  14  28  14  29  14  30  14  31  14  32  13  33  13
M  ISO  8  34  13  35  13  36  13  37  13  38  13  39  13  40  14  41  14
M  ISO  1  42  14
M  END
>  <minimizedAffinity>  (1) 
-5.38193846

>  <minimizedRMSD>  (1) 
0.688492298

$$$$
