
     RDKit          3D

 37 40  0  0  0  0  0  0  0  0999 V2000
   46.5080   34.4660   41.8800 N   0  0  0  0  0  0  0  0  0  0  0  0
   47.6640   35.2050   41.7830 C   0  0  0  0  0  0  0  0  0  0  0  0
   48.4280   35.1910   40.6410 C   0  0  0  0  0  0  0  0  0  0  0  0
   47.9890   34.4000   39.5810 C   0  0  0  0  0  0  0  0  0  0  0  0
   48.6600   34.3630   38.5230 O   0  0  0  0  0  0  0  0  0  0  0  0
   46.8580   33.7070   39.7390 N   0  0  0  0  0  0  0  0  0  0  0  0
   46.1240   33.7320   40.8610 C   0  0  0  0  0  0  0  0  0  0  0  0
   45.0810   33.1190   41.0640 O   0  0  0  0  0  0  0  0  0  0  0  0
   46.3570   32.8790   38.6900 C   0  0  0  0  0  0  0  0  0  0  0  0
   45.4360   33.2990   37.7410 C   0  0  0  0  0  0  0  0  0  0  0  0
   45.0030   32.4360   36.7590 C   0  0  0  0  0  0  0  0  0  0  0  0
   45.4780   31.1300   36.6980 C   0  0  0  0  0  0  0  0  0  0  0  0
   46.3940   30.7340   37.6530 C   0  0  0  0  0  0  0  0  0  0  0  0
   46.8560   31.5850   38.6660 C   0  0  0  0  0  0  0  0  0  0  0  0
   47.8020   31.0550   39.5910 N   0  0  0  0  0  0  0  0  0  0  0  0
   48.5090   29.9070   39.7460 C   0  0  0  0  0  0  0  0  0  0  0  0
   49.2680   30.0550   40.8970 C   0  0  0  0  0  0  0  0  0  0  0  0
   49.0300   31.2660   41.4340 N   0  0  0  0  0  0  0  0  0  0  0  0
   48.1390   31.8680   40.6340 C   0  0  0  0  0  0  0  0  0  0  0  0
   44.5210   35.9520   44.6240 C   0  0  0  0  0  0  0  0  0  0  0  0
   45.1190   35.7800   43.3400 C   0  0  0  0  0  0  0  0  0  0  0  0
   45.8980   34.6540   43.1730 C   0  0  0  0  0  0  0  0  0  0  0  0
   46.0770   33.7650   44.1910 N   0  0  0  0  0  0  0  0  0  0  0  0
   45.4840   33.9780   45.3980 C   0  0  0  0  0  0  0  0  0  0  0  0
   44.7170   35.0530   45.6140 N   0  0  0  0  0  0  0  0  0  0  0  0
   47.9835   35.8199   42.6373 H   0  0  0  0  0  0  0  0  0  0  0  0
   49.3524   35.7826   40.5662 H   0  0  0  0  0  0  0  0  0  0  0  0
   45.0491   34.3282   37.7732 H   0  0  0  0  0  0  0  0  0  0  0  0
   44.2725   32.7837   36.0137 H   0  0  0  0  0  0  0  0  0  0  0  0
   45.1358   30.4363   35.9159 H   0  0  0  0  0  0  0  0  0  0  0  0
   46.7783   29.7039   37.6167 H   0  0  0  0  0  0  0  0  0  0  0  0
   48.4846   29.0278   39.0854 H   0  0  0  0  0  0  0  0  0  0  0  0
   49.9564   29.3012   41.3068 H   0  0  0  0  0  0  0  0  0  0  0  0
   47.7350   32.8782   40.7958 H   0  0  0  0  0  0  0  0  0  0  0  0
   43.8888   36.8324   44.8116 H   0  0  0  0  0  0  0  0  0  0  0  0
   44.9671   36.5058   42.5275 H   0  0  0  0  0  0  0  0  0  0  0  0
   45.6383   33.2529   46.2107 H   0  0  0  0  0  0  0  0  0  0  0  0
  1 22  1  0
  2  1  1  0
  3  2  2  0
  4  6  1  0
  4  3  1  0
  5  4  2  0
  6  7  1  0
  7  8  2  0
  7  1  1  0
  9  6  1  0
 10  9  2  0
 11 10  1  0
 12 11  2  0
 12 13  1  0
 13 14  2  0
 14  9  1  0
 14 15  1  0
 15 16  1  0
 15 19  1  0
 16 17  2  0
 17 18  1  0
 19 18  2  0
 20 25  2  0
 21 20  1  0
 22 21  2  0
 22 23  1  0
 23 24  2  0
 24 25  1  0
  2 26  1  0
  3 27  1  0
 10 28  1  0
 11 29  1  0
 12 30  1  0
 13 31  1  0
 16 32  1  0
 17 33  1  0
 19 34  1  0
 20 35  1  0
 21 36  1  0
 24 37  1  0
M  ISO  8  26  14  27  14  28  14  29  14  30  14  31  14  32  14  33  14
M  ISO  4  34  14  35  14  36  14  37  14
M  END
>  <minimizedAffinity>  (1) 
-5.28182077

>  <minimizedRMSD>  (1) 
0.135966226

$$$$
