
     RDKit          3D

 31 33  0  0  0  0  0  0  0  0999 V2000
   46.5090   34.4500   41.8840 N   0  0  0  0  0  0  0  0  0  0  0  0
   47.6850   35.1580   41.7730 C   0  0  0  0  0  0  0  0  0  0  0  0
   48.4440   35.1100   40.6360 C   0  0  0  0  0  0  0  0  0  0  0  0
   47.9860   34.3150   39.5850 C   0  0  0  0  0  0  0  0  0  0  0  0
   48.6560   34.2460   38.5270 O   0  0  0  0  0  0  0  0  0  0  0  0
   46.8400   33.6530   39.7550 N   0  0  0  0  0  0  0  0  0  0  0  0
   46.1070   33.7080   40.8710 C   0  0  0  0  0  0  0  0  0  0  0  0
   45.0490   33.1260   41.0860 O   0  0  0  0  0  0  0  0  0  0  0  0
   46.3200   32.8220   38.7170 C   0  0  0  0  0  0  0  0  0  0  0  0
   45.4320   33.2670   37.7450 C   0  0  0  0  0  0  0  0  0  0  0  0
   44.9810   32.3860   36.7750 C   0  0  0  0  0  0  0  0  0  0  0  0
   45.4040   31.0540   36.7570 C   0  0  0  0  0  0  0  0  0  0  0  0
   46.2830   30.6480   37.7330 C   0  0  0  0  0  0  0  0  0  0  0  0
   46.7690   31.4970   38.7340 C   0  0  0  0  0  0  0  0  0  0  0  0
   47.6580   31.0540   39.7080 O   0  0  0  0  0  0  0  0  0  0  0  0
   44.5570   36.0370   44.5890 C   0  0  0  0  0  0  0  0  0  0  0  0
   45.1540   35.8100   43.3300 C   0  0  0  0  0  0  0  0  0  0  0  0
   45.9040   34.6700   43.1730 C   0  0  0  0  0  0  0  0  0  0  0  0
   46.0580   33.7960   44.2060 N   0  0  0  0  0  0  0  0  0  0  0  0
   45.4680   34.0470   45.4090 C   0  0  0  0  0  0  0  0  0  0  0  0
   44.7290   35.1460   45.6020 N   0  0  0  0  0  0  0  0  0  0  0  0
   48.0217   35.7764   42.6181 H   0  0  0  0  0  0  0  0  0  0  0  0
   49.3823   35.6781   40.5533 H   0  0  0  0  0  0  0  0  0  0  0  0
   45.0892   34.3122   37.7456 H   0  0  0  0  0  0  0  0  0  0  0  0
   44.2785   32.7409   36.0065 H   0  0  0  0  0  0  0  0  0  0  0  0
   45.0457   30.3541   35.9878 H   0  0  0  0  0  0  0  0  0  0  0  0
   46.6220   29.6015   37.7269 H   0  0  0  0  0  0  0  0  0  0  0  0
   47.9660   30.1131   39.7059 H   0  0  0  0  0  0  0  0  0  0  0  0
   43.9494   36.9394   44.7515 H   0  0  0  0  0  0  0  0  0  0  0  0
   45.0229   36.5224   42.5022 H   0  0  0  0  0  0  0  0  0  0  0  0
   45.6017   33.3337   46.2356 H   0  0  0  0  0  0  0  0  0  0  0  0
  1 18  1  0
  2  1  1  0
  3  2  2  0
  4  6  1  0
  4  3  1  0
  5  4  2  0
  6  7  1  0
  7  8  2  0
  7  1  1  0
  9 14  1  0
  9  6  1  0
 10  9  2  0
 11 10  1  0
 12 11  2  0
 12 13  1  0
 13 14  2  0
 14 15  1  0
 16 21  2  0
 17 16  1  0
 18 17  2  0
 18 19  1  0
 19 20  2  0
 20 21  1  0
  2 22  1  0
  3 23  1  0
 10 24  1  0
 11 25  1  0
 12 26  1  0
 13 27  1  0
 15 28  1  0
 16 29  1  0
 17 30  1  0
 20 31  1  0
M  ISO  8  22  14  23  14  24  14  25  14  26  14  27  14  28   3  29  14
M  ISO  2  30  14  31  14
M  END
>  <minimizedAffinity>  (1) 
-5.1753788

>  <minimizedRMSD>  (1) 
0.00890733395

$$$$
