
     RDKit          3D

 31 33  0  0  0  0  0  0  0  0999 V2000
   46.5100   34.4600   41.9020 N   0  0  0  0  0  0  0  0  0  0  0  0
   47.6790   35.1820   41.7980 C   0  0  0  0  0  0  0  0  0  0  0  0
   48.4430   35.1380   40.6520 C   0  0  0  0  0  0  0  0  0  0  0  0
   47.9890   34.3360   39.6040 C   0  0  0  0  0  0  0  0  0  0  0  0
   48.6540   34.2690   38.5450 O   0  0  0  0  0  0  0  0  0  0  0  0
   46.8480   33.6630   39.7760 N   0  0  0  0  0  0  0  0  0  0  0  0
   46.1160   33.7150   40.8910 C   0  0  0  0  0  0  0  0  0  0  0  0
   45.0620   33.1230   41.1110 O   0  0  0  0  0  0  0  0  0  0  0  0
   46.3340   32.8270   38.7380 C   0  0  0  0  0  0  0  0  0  0  0  0
   45.4520   33.2570   37.7600 C   0  0  0  0  0  0  0  0  0  0  0  0
   45.0130   32.3660   36.7960 C   0  0  0  0  0  0  0  0  0  0  0  0
   45.4400   31.0420   36.7860 C   0  0  0  0  0  0  0  0  0  0  0  0
   46.3180   30.6440   37.7720 C   0  0  0  0  0  0  0  0  0  0  0  0
   46.7890   31.5060   38.7660 C   0  0  0  0  0  0  0  0  0  0  0  0
   47.9220   30.9230   40.0080 S   0  0  0  0  0  0  0  0  0  0  0  0
   44.5430   36.0430   44.6120 C   0  0  0  0  0  0  0  0  0  0  0  0
   45.1390   35.8330   43.3380 C   0  0  0  0  0  0  0  0  0  0  0  0
   45.9030   34.6770   43.1900 C   0  0  0  0  0  0  0  0  0  0  0  0
   46.0620   33.8040   44.2230 N   0  0  0  0  0  0  0  0  0  0  0  0
   45.4690   34.0530   45.4230 C   0  0  0  0  0  0  0  0  0  0  0  0
   44.7240   35.1480   45.6210 N   0  0  0  0  0  0  0  0  0  0  0  0
   48.0078   35.8038   42.6437 H   0  0  0  0  0  0  0  0  0  0  0  0
   49.3763   35.7138   40.5664 H   0  0  0  0  0  0  0  0  0  0  0  0
   45.1027   34.3000   37.7496 H   0  0  0  0  0  0  0  0  0  0  0  0
   44.3121   32.7119   36.0219 H   0  0  0  0  0  0  0  0  0  0  0  0
   45.0893   30.3369   36.0180 H   0  0  0  0  0  0  0  0  0  0  0  0
   46.6636   29.5997   37.7763 H   0  0  0  0  0  0  0  0  0  0  0  0
   47.4111   31.1859   41.2517 H   0  0  0  0  0  0  0  0  0  0  0  0
   43.9287   36.9391   44.7838 H   0  0  0  0  0  0  0  0  0  0  0  0
   45.0039   36.5465   42.5118 H   0  0  0  0  0  0  0  0  0  0  0  0
   45.6049   33.3387   46.2484 H   0  0  0  0  0  0  0  0  0  0  0  0
  1 18  1  0
  2  1  1  0
  3  2  2  0
  4  6  1  0
  4  3  1  0
  5  4  2  0
  6  7  1  0
  7  8  2  0
  7  1  1  0
  9 14  1  0
  9  6  1  0
 10  9  2  0
 11 10  1  0
 12 11  2  0
 12 13  1  0
 13 14  2  0
 14 15  1  0
 16 21  2  0
 17 16  1  0
 18 17  2  0
 18 19  1  0
 19 20  2  0
 20 21  1  0
  2 22  1  0
  3 23  1  0
 10 24  1  0
 11 25  1  0
 12 26  1  0
 13 27  1  0
 15 28  1  0
 16 29  1  0
 17 30  1  0
 20 31  1  0
M  ISO  8  22  14  23  14  24  14  25  14  26  14  27  14  28  11  29  14
M  ISO  2  30  14  31  14
M  END
>  <minimizedAffinity>  (1) 
-5.18844414

>  <minimizedRMSD>  (1) 
0.0336534157

$$$$
