
     RDKit          3D

 41 43  0  0  0  0  0  0  0  0999 V2000
   46.2040   32.3020   38.0740 C   0  0  0  0  0  0  0  0  0  0  0  0
   45.6820   34.4020   41.0250 C   0  0  0  0  0  0  0  0  0  0  0  0
   46.9630   34.7770   41.3970 C   0  0  0  0  0  0  0  0  0  0  0  0
   48.0600   34.3140   40.6340 C   0  0  0  0  0  0  0  0  0  0  0  0
   47.7830   33.5160   39.5670 N   0  0  0  0  0  0  0  0  0  0  0  0
   46.5030   33.1670   39.2320 C   0  0  0  0  0  0  0  0  0  0  0  0
   45.4850   33.6150   39.9650 N   0  0  0  0  0  0  0  0  0  0  0  0
   44.5800   34.8860   41.8160 C   0  0  0  0  0  0  0  0  0  0  0  0
   43.7400   35.6900   41.3020 O   0  0  0  0  0  0  0  0  0  0  0  0
   44.4620   34.4540   43.1450 O   0  0  0  0  0  0  0  0  0  0  0  0
   45.0100   35.2260   44.1710 C   0  0  0  0  0  0  0  0  0  0  0  0
   44.1520   35.4270   45.2360 F   0  0  0  0  0  0  0  0  0  0  0  0
   46.1610   34.6470   44.6410 F   0  0  0  0  0  0  0  0  0  0  0  0
   45.2650   36.4830   43.6140 F   0  0  0  0  0  0  0  0  0  0  0  0
   45.2540   31.1940   38.4080 C   0  0  0  0  0  0  0  0  0  0  0  0
   45.6470   33.1580   36.9730 C   0  0  0  0  0  0  0  0  0  0  0  0
   47.5190   31.7420   37.6010 C   0  0  0  0  0  0  0  0  0  0  0  0
   47.8380   31.9640   36.2360 N   0  0  0  0  0  0  0  0  0  0  0  0
   48.5950   32.9510   35.7320 C   0  0  0  0  0  0  0  0  0  0  0  0
   48.6880   32.8570   34.4010 N   0  0  0  0  0  0  0  0  0  0  0  0
   47.9830   31.7940   34.0160 C   0  0  0  0  0  0  0  0  0  0  0  0
   47.7120   31.2050   32.7970 C   0  0  0  0  0  0  0  0  0  0  0  0
   46.9350   30.0980   32.7510 N   0  0  0  0  0  0  0  0  0  0  0  0
   46.4150   29.5510   33.8690 C   0  0  0  0  0  0  0  0  0  0  0  0
   46.6770   30.1220   35.0580 N   0  0  0  0  0  0  0  0  0  0  0  0
   47.4490   31.2320   35.1580 C   0  0  0  0  0  0  0  0  0  0  0  0
   48.2660   31.7930   31.6260 N   0  0  0  0  0  0  0  0  0  0  0  0
   47.1241   35.4244   42.2716 H   0  0  0  0  0  0  0  0  0  0  0  0
   49.0937   34.5874   40.8921 H   0  0  0  0  0  0  0  0  0  0  0  0
   45.1719   31.0983   39.5008 H   0  0  0  0  0  0  0  0  0  0  0  0
   44.2642   31.4194   37.9843 H   0  0  0  0  0  0  0  0  0  0  0  0
   45.6279   30.2502   37.9843 H   0  0  0  0  0  0  0  0  0  0  0  0
   45.0963   34.0043   37.4095 H   0  0  0  0  0  0  0  0  0  0  0  0
   46.4712   33.5382   36.3515 H   0  0  0  0  0  0  0  0  0  0  0  0
   44.9655   32.5585   36.3515 H   0  0  0  0  0  0  0  0  0  0  0  0
   48.3154   32.1945   38.2100 H   0  0  0  0  0  0  0  0  0  0  0  0
   47.4315   30.6509   37.7100 H   0  0  0  0  0  0  0  0  0  0  0  0
   49.0763   33.7351   36.3350 H   0  0  0  0  0  0  0  0  0  0  0  0
   45.7857   28.6508   33.8090 H   0  0  0  0  0  0  0  0  0  0  0  0
   48.0807   31.3753   30.7029 H   0  0  0  0  0  0  0  0  0  0  0  0
   48.8524   32.6365   31.7013 H   0  0  0  0  0  0  0  0  0  0  0  0
  1 15  1  0
  1  6  1  0
  2  3  2  0
  2  8  1  0
  4  3  1  0
  5  4  2  0
  6  5  1  0
  6  7  2  0
  7  2  1  0
  8 10  1  0
  9  8  2  0
 10 11  1  0
 11 13  1  0
 11 12  1  0
 14 11  1  0
 16  1  1  0
 17  1  1  0
 18 17  1  0
 19 18  1  0
 20 19  2  0
 21 20  1  0
 21 26  2  0
 22 21  1  0
 23 22  2  0
 23 24  1  0
 24 25  2  0
 25 26  1  0
 26 18  1  0
 27 22  1  0
  3 28  1  0
  4 29  1  0
 15 30  1  0
 15 31  1  0
 15 32  1  0
 16 33  1  0
 16 34  1  0
 16 35  1  0
 17 36  1  0
 17 37  1  0
 19 38  1  0
 24 39  1  0
 27 40  1  0
 27 41  1  0
M  ISO  8  28  14  29  14  30   8  31   8  32   8  33   8  34   8  35   8
M  ISO  4  36   8  37   8  38  14  39  14
M  END
>  <minimizedAffinity>  (1) 
-5.3965373

>  <minimizedRMSD>  (1) 
1.24142253

$$$$
