
     RDKit          3D

 53 57  0  0  0  0  0  0  0  0999 V2000
   46.5010   34.4940   41.8880 N   0  0  0  0  0  0  0  0  0  0  0  0
   47.6790   35.2160   41.7750 C   0  0  0  0  0  0  0  0  0  0  0  0
   48.4430   35.1530   40.6380 C   0  0  0  0  0  0  0  0  0  0  0  0
   47.9960   34.3360   39.5970 C   0  0  0  0  0  0  0  0  0  0  0  0
   48.6690   34.2670   38.5600 O   0  0  0  0  0  0  0  0  0  0  0  0
   46.8480   33.6600   39.7690 N   0  0  0  0  0  0  0  0  0  0  0  0
   46.1170   33.7400   40.8890 C   0  0  0  0  0  0  0  0  0  0  0  0
   45.0740   33.1620   41.1020 O   0  0  0  0  0  0  0  0  0  0  0  0
   46.3560   32.8120   38.7530 C   0  0  0  0  0  0  0  0  0  0  0  0
   45.4900   33.2160   37.7620 C   0  0  0  0  0  0  0  0  0  0  0  0
   45.0510   32.3430   36.8040 C   0  0  0  0  0  0  0  0  0  0  0  0
   45.4700   31.0280   36.8100 C   0  0  0  0  0  0  0  0  0  0  0  0
   46.3250   30.6490   37.7950 C   0  0  0  0  0  0  0  0  0  0  0  0
   46.8090   31.4990   38.8050 C   0  0  0  0  0  0  0  0  0  0  0  0
   47.7510   30.9800   39.8320 C   0  0  0  0  0  0  0  0  0  0  0  0
   49.0980   31.6150   39.8410 C   0  0  0  0  0  0  0  0  0  0  0  0
   47.2170   31.0580   41.2280 C   0  0  0  0  0  0  0  0  0  0  0  0
   44.5450   36.1160   44.5650 C   0  0  0  0  0  0  0  0  0  0  0  0
   45.1440   35.8890   43.3020 C   0  0  0  0  0  0  0  0  0  0  0  0
   45.8910   34.7260   43.1620 C   0  0  0  0  0  0  0  0  0  0  0  0
   46.0240   33.8630   44.2070 N   0  0  0  0  0  0  0  0  0  0  0  0
   45.4260   34.1310   45.4000 C   0  0  0  0  0  0  0  0  0  0  0  0
   44.7000   35.2310   45.5860 N   0  0  0  0  0  0  0  0  0  0  0  0
   45.5870   33.1870   46.5010 C   0  0  0  0  0  0  0  0  0  0  0  0
   45.0140   33.2600   47.7520 C   0  0  0  0  0  0  0  0  0  0  0  0
   45.3840   32.2170   48.5100 N   0  0  0  0  0  0  0  0  0  0  0  0
   46.2070   31.4230   47.7950 C   0  0  0  0  0  0  0  0  0  0  0  0
   46.8650   30.2350   48.0920 C   0  0  0  0  0  0  0  0  0  0  0  0
   47.6620   29.6280   47.1420 C   0  0  0  0  0  0  0  0  0  0  0  0
   47.7850   30.2240   45.9140 C   0  0  0  0  0  0  0  0  0  0  0  0
   47.1320   31.4060   45.6140 C   0  0  0  0  0  0  0  0  0  0  0  0
   46.3350   32.0270   46.5390 C   0  0  0  0  0  0  0  0  0  0  0  0
   48.0065   35.8504   42.6118 H   0  0  0  0  0  0  0  0  0  0  0  0
   49.3771   35.7270   40.5487 H   0  0  0  0  0  0  0  0  0  0  0  0
   45.1445   34.2601   37.7398 H   0  0  0  0  0  0  0  0  0  0  0  0
   44.3590   32.6919   36.0233 H   0  0  0  0  0  0  0  0  0  0  0  0
   45.1250   30.3148   36.0469 H   0  0  0  0  0  0  0  0  0  0  0  0
   46.6629   29.6022   37.8031 H   0  0  0  0  0  0  0  0  0  0  0  0
   47.8596   29.9315   39.5176 H   0  0  0  0  0  0  0  0  0  0  0  0
   49.4240   31.7687   40.8803 H   0  0  0  0  0  0  0  0  0  0  0  0
   49.8155   30.9603   39.3247 H   0  0  0  0  0  0  0  0  0  0  0  0
   49.0495   32.5851   39.3247 H   0  0  0  0  0  0  0  0  0  0  0  0
   48.0433   30.9373   41.9439 H   0  0  0  0  0  0  0  0  0  0  0  0
   46.7374   32.0357   41.3830 H   0  0  0  0  0  0  0  0  0  0  0  0
   46.4778   30.2583   41.3830 H   0  0  0  0  0  0  0  0  0  0  0  0
   43.9440   37.0237   44.7230 H   0  0  0  0  0  0  0  0  0  0  0  0
   45.0235   36.5998   42.4712 H   0  0  0  0  0  0  0  0  0  0  0  0
   44.3430   34.0657   48.0846 H   0  0  0  0  0  0  0  0  0  0  0  0
   45.0872   32.0494   49.4820 H   0  0  0  0  0  0  0  0  0  0  0  0
   46.7504   29.7777   49.0858 H   0  0  0  0  0  0  0  0  0  0  0  0
   48.1864   28.6873   47.3657 H   0  0  0  0  0  0  0  0  0  0  0  0
   48.4181   29.7512   45.1487 H   0  0  0  0  0  0  0  0  0  0  0  0
   47.2547   31.8543   44.6170 H   0  0  0  0  0  0  0  0  0  0  0  0
  1 20  1  0
  2  1  1  0
  3  2  2  0
  4  6  1  0
  4  3  1  0
  5  4  2  0
  6  7  1  0
  7  8  2  0
  7  1  1  0
  9 14  1  0
  9  6  1  0
 10  9  2  0
 11 12  2  0
 11 10  1  0
 12 13  1  0
 13 14  2  0
 14 15  1  0
 15 16  1  0
 15 17  1  0
 18 23  2  0
 19 18  1  0
 20 19  2  0
 20 21  1  0
 21 22  2  0
 22 23  1  0
 22 24  1  0
 24 32  1  0
 24 25  2  0
 25 26  1  0
 27 28  2  0
 27 26  1  0
 29 28  1  0
 30 29  2  0
 31 30  1  0
 31 32  2  0
 32 27  1  0
  2 33  1  0
  3 34  1  0
 10 35  1  0
 11 36  1  0
 12 37  1  0
 13 38  1  0
 15 39  1  0
 16 40  1  0
 16 41  1  0
 16 42  1  0
 17 43  1  0
 17 44  1  0
 17 45  1  0
 18 46  1  0
 19 47  1  0
 25 48  1  0
 26 49  1  0
 28 50  1  0
 29 51  1  0
 30 52  1  0
 31 53  1  0
M  ISO  8  33  14  34  14  35  14  36  14  37  14  38  14  39   8  40   8
M  ISO  8  41   8  42   8  43   8  44   8  45   8  46  14  47  14  48  14
M  ISO  5  49   9  50  14  51  14  52  14  53  14
M  END
>  <minimizedAffinity>  (1) 
-6.86023521

>  <minimizedRMSD>  (1) 
0.592945457

$$$$
