
     RDKit          3D

 38 39  0  0  0  0  0  0  0  0999 V2000
   45.9220   32.2660   37.8820 C   0  0  0  0  0  0  0  0  0  0  0  0
   45.5540   34.3230   40.9000 C   0  0  0  0  0  0  0  0  0  0  0  0
   46.8550   34.5530   41.2960 C   0  0  0  0  0  0  0  0  0  0  0  0
   47.9070   34.0020   40.5290 C   0  0  0  0  0  0  0  0  0  0  0  0
   47.5670   33.2670   39.4330 N   0  0  0  0  0  0  0  0  0  0  0  0
   46.2680   33.0610   39.0710 C   0  0  0  0  0  0  0  0  0  0  0  0
   45.2930   33.5860   39.8020 N   0  0  0  0  0  0  0  0  0  0  0  0
   44.4850   34.8850   41.6840 C   0  0  0  0  0  0  0  0  0  0  0  0
   43.6660   35.6930   41.1400 O   0  0  0  0  0  0  0  0  0  0  0  0
   44.3820   34.5200   43.0290 O   0  0  0  0  0  0  0  0  0  0  0  0
   44.9600   35.3410   44.0060 C   0  0  0  0  0  0  0  0  0  0  0  0
   44.0870   35.6580   45.0390 F   0  0  0  0  0  0  0  0  0  0  0  0
   46.0670   34.7230   44.5460 F   0  0  0  0  0  0  0  0  0  0  0  0
   45.2960   36.5280   43.3690 F   0  0  0  0  0  0  0  0  0  0  0  0
   44.8740   31.2430   38.1360 C   0  0  0  0  0  0  0  0  0  0  0  0
   45.4550   33.2020   36.8080 C   0  0  0  0  0  0  0  0  0  0  0  0
   47.2030   31.6280   37.3910 C   0  0  0  0  0  0  0  0  0  0  0  0
   47.5540   31.9390   36.0450 N   0  0  0  0  0  0  0  0  0  0  0  0
   46.9710   31.2430   35.0310 C   0  0  0  0  0  0  0  0  0  0  0  0
   47.2770   31.5060   33.6960 C   0  0  0  0  0  0  0  0  0  0  0  0
   48.1880   32.4890   33.3710 C   0  0  0  0  0  0  0  0  0  0  0  0
   48.5330   32.8040   32.2000 O   0  0  0  0  0  0  0  0  0  0  0  0
   48.7620   33.1770   34.3920 N   0  0  0  0  0  0  0  0  0  0  0  0
   48.4320   32.8830   35.6580 C   0  0  0  0  0  0  0  0  0  0  0  0
   48.9990   33.5560   36.5520 O   0  0  0  0  0  0  0  0  0  0  0  0
   47.0700   35.1539   42.1919 H   0  0  0  0  0  0  0  0  0  0  0  0
   48.9596   34.1605   40.8063 H   0  0  0  0  0  0  0  0  0  0  0  0
   44.7423   31.1144   39.2205 H   0  0  0  0  0  0  0  0  0  0  0  0
   43.9247   31.5714   37.6877 H   0  0  0  0  0  0  0  0  0  0  0  0
   45.1794   30.2860   37.6877 H   0  0  0  0  0  0  0  0  0  0  0  0
   45.0091   34.0957   37.2689 H   0  0  0  0  0  0  0  0  0  0  0  0
   46.3103   33.4995   36.1835 H   0  0  0  0  0  0  0  0  0  0  0  0
   44.7030   32.6975   36.1835 H   0  0  0  0  0  0  0  0  0  0  0  0
   48.0228   31.9630   38.0434 H   0  0  0  0  0  0  0  0  0  0  0  0
   47.0363   30.5411   37.4217 H   0  0  0  0  0  0  0  0  0  0  0  0
   46.2417   30.4549   35.2699 H   0  0  0  0  0  0  0  0  0  0  0  0
   46.7893   30.9265   32.8983 H   0  0  0  0  0  0  0  0  0  0  0  0
   49.4470   33.9205   34.1948 H   0  0  0  0  0  0  0  0  0  0  0  0
  1 15  1  0
  1  6  1  0
  2  3  2  0
  2  8  1  0
  4  3  1  0
  5  4  2  0
  6  5  1  0
  6  7  2  0
  7  2  1  0
  8 10  1  0
  9  8  2  0
 10 11  1  0
 11 13  1  0
 11 12  1  0
 14 11  1  0
 16  1  1  0
 17  1  1  0
 18 17  1  0
 19 18  1  0
 20 19  2  0
 21 20  1  0
 21 23  1  0
 22 21  2  0
 23 24  1  0
 24 18  1  0
 24 25  2  0
  3 26  1  0
  4 27  1  0
 15 28  1  0
 15 29  1  0
 15 30  1  0
 16 31  1  0
 16 32  1  0
 16 33  1  0
 17 34  1  0
 17 35  1  0
 19 36  1  0
 20 37  1  0
 23 38  1  0
M  ISO  8  26  14  27  14  28   8  29   8  30   8  31   8  32   8  33   8
M  ISO  5  34   8  35   8  36  14  37  14  38   9
M  END
>  <minimizedAffinity>  (1) 
-5.31321669

>  <minimizedRMSD>  (1) 
1.5986594

$$$$
