
     RDKit          3D

 49 52  0  0  0  0  0  0  0  0999 V2000
   46.5660   34.3860   42.0750 N   0  0  0  0  0  0  0  0  0  0  0  0
   47.6700   35.2040   41.9530 C   0  0  0  0  0  0  0  0  0  0  0  0
   48.3990   35.2550   40.7950 C   0  0  0  0  0  0  0  0  0  0  0  0
   47.9840   34.4420   39.7360 C   0  0  0  0  0  0  0  0  0  0  0  0
   48.6260   34.4700   38.6700 O   0  0  0  0  0  0  0  0  0  0  0  0
   46.9010   33.6630   39.9160 N   0  0  0  0  0  0  0  0  0  0  0  0
   46.2080   33.6400   41.0620 C   0  0  0  0  0  0  0  0  0  0  0  0
   45.2260   32.9690   41.2840 O   0  0  0  0  0  0  0  0  0  0  0  0
   46.4480   32.8170   38.8840 C   0  0  0  0  0  0  0  0  0  0  0  0
   45.4960   33.1710   37.9560 C   0  0  0  0  0  0  0  0  0  0  0  0
   45.0980   32.2970   36.9750 C   0  0  0  0  0  0  0  0  0  0  0  0
   45.6480   31.0350   36.9000 C   0  0  0  0  0  0  0  0  0  0  0  0
   46.5870   30.7030   37.8240 C   0  0  0  0  0  0  0  0  0  0  0  0
   47.0350   31.5490   38.8480 C   0  0  0  0  0  0  0  0  0  0  0  0
   48.0730   31.0920   39.8100 C   0  0  0  0  0  0  0  0  0  0  0  0
   49.3590   31.8400   39.7650 C   0  0  0  0  0  0  0  0  0  0  0  0
   47.6110   31.0810   41.2330 C   0  0  0  0  0  0  0  0  0  0  0  0
   44.5260   35.7060   44.8680 C   0  0  0  0  0  0  0  0  0  0  0  0
   45.1030   35.5720   43.5770 C   0  0  0  0  0  0  0  0  0  0  0  0
   45.9850   34.5180   43.3780 C   0  0  0  0  0  0  0  0  0  0  0  0
   46.2650   33.6590   44.4050 N   0  0  0  0  0  0  0  0  0  0  0  0
   45.6920   33.8250   45.6180 C   0  0  0  0  0  0  0  0  0  0  0  0
   44.8420   34.8210   45.8520 N   0  0  0  0  0  0  0  0  0  0  0  0
   46.0250   32.8780   46.6850 C   0  0  0  0  0  0  0  0  0  0  0  0
   45.2260   32.7650   47.8050 C   0  0  0  0  0  0  0  0  0  0  0  0
   45.4910   31.8870   48.8450 C   0  0  0  0  0  0  0  0  0  0  0  0
   46.6200   31.1040   48.7180 C   0  0  0  0  0  0  0  0  0  0  0  0
   47.4590   31.1770   47.6140 C   0  0  0  0  0  0  0  0  0  0  0  0
   47.1430   32.0730   46.6040 C   0  0  0  0  0  0  0  0  0  0  0  0
   47.9718   35.8299   42.8058 H   0  0  0  0  0  0  0  0  0  0  0  0
   49.2774   35.9105   40.7015 H   0  0  0  0  0  0  0  0  0  0  0  0
   45.0452   34.1734   38.0009 H   0  0  0  0  0  0  0  0  0  0  0  0
   44.3357   32.6054   36.2444 H   0  0  0  0  0  0  0  0  0  0  0  0
   45.3380   30.3232   36.1208 H   0  0  0  0  0  0  0  0  0  0  0  0
   47.0279   29.6970   37.7642 H   0  0  0  0  0  0  0  0  0  0  0  0
   48.2556   30.0655   39.4595 H   0  0  0  0  0  0  0  0  0  0  0  0
   49.7029   32.0400   40.7905 H   0  0  0  0  0  0  0  0  0  0  0  0
   50.1138   31.2400   39.2356 H   0  0  0  0  0  0  0  0  0  0  0  0
   49.2107   32.7928   39.2356 H   0  0  0  0  0  0  0  0  0  0  0  0
   48.4839   31.1018   41.9021 H   0  0  0  0  0  0  0  0  0  0  0  0
   46.9833   31.9645   41.4216 H   0  0  0  0  0  0  0  0  0  0  0  0
   47.0261   30.1687   41.4216 H   0  0  0  0  0  0  0  0  0  0  0  0
   43.8226   36.5266   45.0726 H   0  0  0  0  0  0  0  0  0  0  0  0
   44.8607   36.2754   42.7668 H   0  0  0  0  0  0  0  0  0  0  0  0
   44.3335   33.4041   47.8761 H   0  0  0  0  0  0  0  0  0  0  0  0
   44.8353   31.8183   49.7255 H   0  0  0  0  0  0  0  0  0  0  0  0
   46.8648   30.3947   49.5223 H   0  0  0  0  0  0  0  0  0  0  0  0
   48.3526   30.5395   47.5424 H   0  0  0  0  0  0  0  0  0  0  0  0
   47.7958   32.1435   45.7215 H   0  0  0  0  0  0  0  0  0  0  0  0
  1 20  1  0
  2  1  1  0
  3  2  2  0
  4  6  1  0
  4  3  1  0
  5  4  2  0
  6  7  1  0
  7  8  2  0
  7  1  1  0
  9  6  1  0
 10  9  2  0
 11 10  1  0
 12 11  2  0
 12 13  1  0
 13 14  2  0
 14  9  1  0
 14 15  1  0
 15 17  1  0
 16 15  1  0
 18 23  2  0
 19 18  1  0
 20 19  2  0
 20 21  1  0
 21 22  2  0
 22 23  1  0
 22 24  1  0
 24 25  2  0
 25 26  1  0
 27 26  2  0
 28 27  1  0
 29 24  1  0
 29 28  2  0
  2 30  1  0
  3 31  1  0
 10 32  1  0
 11 33  1  0
 12 34  1  0
 13 35  1  0
 15 36  1  0
 16 37  1  0
 16 38  1  0
 16 39  1  0
 17 40  1  0
 17 41  1  0
 17 42  1  0
 18 43  1  0
 19 44  1  0
 25 45  1  0
 26 46  1  0
 27 47  1  0
 28 48  1  0
 29 49  1  0
M  ISO  8  30  14  31  14  32  14  33  14  34  14  35  14  36   8  37   8
M  ISO  8  38   8  39   8  40   8  41   8  42   8  43  14  44  14  45  14
M  ISO  4  46  14  47  14  48  14  49  14
M  END
>  <minimizedAffinity>  (1) 
-6.76155186

>  <minimizedRMSD>  (1) 
0.426180363

$$$$
