
     RDKit          3D

 51 54  0  0  0  0  0  0  0  0999 V2000
   46.5160   34.4300   41.9790 N   0  0  0  0  0  0  0  0  0  0  0  0
   47.6650   35.1970   41.8710 C   0  0  0  0  0  0  0  0  0  0  0  0
   48.4150   35.2100   40.7150 C   0  0  0  0  0  0  0  0  0  0  0  0
   47.9700   34.4160   39.6540 C   0  0  0  0  0  0  0  0  0  0  0  0
   48.6290   34.4170   38.6040 O   0  0  0  0  0  0  0  0  0  0  0  0
   46.8480   33.6930   39.8250 N   0  0  0  0  0  0  0  0  0  0  0  0
   46.1390   33.7040   40.9610 C   0  0  0  0  0  0  0  0  0  0  0  0
   45.1210   33.0820   41.1730 O   0  0  0  0  0  0  0  0  0  0  0  0
   44.5230   35.8550   44.7440 C   0  0  0  0  0  0  0  0  0  0  0  0
   45.0980   35.6930   43.4570 C   0  0  0  0  0  0  0  0  0  0  0  0
   45.9330   34.5970   43.2760 C   0  0  0  0  0  0  0  0  0  0  0  0
   46.1690   33.7380   44.3020 N   0  0  0  0  0  0  0  0  0  0  0  0
   45.5900   33.9420   45.5170 C   0  0  0  0  0  0  0  0  0  0  0  0
   44.7880   34.9690   45.7430 N   0  0  0  0  0  0  0  0  0  0  0  0
   45.8780   33.0080   46.5490 N   0  0  0  0  0  0  0  0  0  0  0  0
   45.2270   32.7700   47.8220 C   0  0  0  0  0  0  0  0  0  0  0  0
   45.1970   31.2740   48.0160 C   0  0  0  0  0  0  0  0  0  0  0  0
   46.0750   30.7770   46.8920 C   0  0  0  0  0  0  0  0  0  0  0  0
   46.9230   32.0040   46.6250 C   0  0  0  0  0  0  0  0  0  0  0  0
   46.3670   32.8690   38.7840 C   0  0  0  0  0  0  0  0  0  0  0  0
   45.4510   33.2750   37.8410 C   0  0  0  0  0  0  0  0  0  0  0  0
   45.0220   32.4210   36.8560 C   0  0  0  0  0  0  0  0  0  0  0  0
   45.5060   31.1310   36.7890 C   0  0  0  0  0  0  0  0  0  0  0  0
   46.4090   30.7530   37.7290 C   0  0  0  0  0  0  0  0  0  0  0  0
   46.8900   31.5750   38.7650 C   0  0  0  0  0  0  0  0  0  0  0  0
   47.8810   31.0620   39.7400 C   0  0  0  0  0  0  0  0  0  0  0  0
   49.1990   31.7490   39.7300 C   0  0  0  0  0  0  0  0  0  0  0  0
   47.3770   31.0610   41.1530 C   0  0  0  0  0  0  0  0  0  0  0  0
   47.9855   35.8090   42.7270 H   0  0  0  0  0  0  0  0  0  0  0  0
   49.3264   35.8201   40.6306 H   0  0  0  0  0  0  0  0  0  0  0  0
   43.8547   36.7072   44.9369 H   0  0  0  0  0  0  0  0  0  0  0  0
   44.8925   36.4015   42.6410 H   0  0  0  0  0  0  0  0  0  0  0  0
   45.7952   33.2470   48.6342 H   0  0  0  0  0  0  0  0  0  0  0  0
   44.2115   33.1927   47.8341 H   0  0  0  0  0  0  0  0  0  0  0  0
   45.6096   30.9926   48.9961 H   0  0  0  0  0  0  0  0  0  0  0  0
   44.1817   30.8512   47.9971 H   0  0  0  0  0  0  0  0  0  0  0  0
   46.6901   29.9215   47.2077 H   0  0  0  0  0  0  0  0  0  0  0  0
   45.5237   30.4067   46.0151 H   0  0  0  0  0  0  0  0  0  0  0  0
   47.4801   31.9197   45.6802 H   0  0  0  0  0  0  0  0  0  0  0  0
   47.7074   32.2013   47.3705 H   0  0  0  0  0  0  0  0  0  0  0  0
   45.0560   34.3010   37.8772 H   0  0  0  0  0  0  0  0  0  0  0  0
   44.2870   32.7677   36.1147 H   0  0  0  0  0  0  0  0  0  0  0  0
   45.1730   30.4358   36.0043 H   0  0  0  0  0  0  0  0  0  0  0  0
   46.7949   29.7242   37.6770 H   0  0  0  0  0  0  0  0  0  0  0  0
   48.0315   30.0313   39.3863 H   0  0  0  0  0  0  0  0  0  0  0  0
   49.5303   31.9217   40.7646 H   0  0  0  0  0  0  0  0  0  0  0  0
   49.9362   31.1204   39.2090 H   0  0  0  0  0  0  0  0  0  0  0  0
   49.1059   32.7133   39.2090 H   0  0  0  0  0  0  0  0  0  0  0  0
   48.2306   31.0627   41.8468 H   0  0  0  0  0  0  0  0  0  0  0  0
   46.7636   31.9579   41.3241 H   0  0  0  0  0  0  0  0  0  0  0  0
   46.7672   30.1616   41.3241 H   0  0  0  0  0  0  0  0  0  0  0  0
  1 11  1  0
  2  1  1  0
  3  2  2  0
  4  6  1  0
  4  3  1  0
  5  4  2  0
  6  7  1  0
  7  8  2  0
  7  1  1  0
  9 14  2  0
 10  9  1  0
 11 10  2  0
 11 12  1  0
 12 13  2  0
 13 14  1  0
 13 15  1  0
 15 19  1  0
 15 16  1  0
 16 17  1  0
 18 17  1  0
 19 18  1  0
 20  6  1  0
 21 20  2  0
 22 21  1  0
 23 22  2  0
 23 24  1  0
 24 25  2  0
 25 20  1  0
 25 26  1  0
 26 28  1  0
 27 26  1  0
  2 29  1  0
  3 30  1  0
  9 31  1  0
 10 32  1  0
 16 33  1  0
 16 34  1  0
 17 35  1  0
 17 36  1  0
 18 37  1  0
 18 38  1  0
 19 39  1  0
 19 40  1  0
 21 41  1  0
 22 42  1  0
 23 43  1  0
 24 44  1  0
 26 45  1  0
 27 46  1  0
 27 47  1  0
 27 48  1  0
 28 49  1  0
 28 50  1  0
 28 51  1  0
M  ISO  8  29  14  30  14  31  14  32  14  33  13  34  13  35  13  36  13
M  ISO  8  37  13  38  13  39  13  40  13  41  14  42  14  43  14  44  14
M  ISO  7  45   8  46   8  47   8  48   8  49   8  50   8  51   8
M  END
>  <minimizedAffinity>  (1) 
-6.59252357

>  <minimizedRMSD>  (1) 
0.0662939399

$$$$
