
     RDKit          3D

 53 56  0  0  0  0  0  0  0  0999 V2000
   46.5600   34.3860   42.0230 N   0  0  0  0  0  0  0  0  0  0  0  0
   47.6760   35.1710   41.9060 C   0  0  0  0  0  0  0  0  0  0  0  0
   48.3930   35.2160   40.7410 C   0  0  0  0  0  0  0  0  0  0  0  0
   47.9450   34.4300   39.6760 C   0  0  0  0  0  0  0  0  0  0  0  0
   48.5810   34.4590   38.6050 O   0  0  0  0  0  0  0  0  0  0  0  0
   46.8440   33.6800   39.8550 N   0  0  0  0  0  0  0  0  0  0  0  0
   46.1610   33.6590   41.0080 C   0  0  0  0  0  0  0  0  0  0  0  0
   45.1630   33.0120   41.2300 O   0  0  0  0  0  0  0  0  0  0  0  0
   44.5610   35.7010   44.8580 C   0  0  0  0  0  0  0  0  0  0  0  0
   45.1260   35.5840   43.5580 C   0  0  0  0  0  0  0  0  0  0  0  0
   45.9900   34.5110   43.3370 C   0  0  0  0  0  0  0  0  0  0  0  0
   46.2590   33.6350   44.3480 N   0  0  0  0  0  0  0  0  0  0  0  0
   45.6890   33.7980   45.5760 C   0  0  0  0  0  0  0  0  0  0  0  0
   44.8640   34.8050   45.8190 N   0  0  0  0  0  0  0  0  0  0  0  0
   45.9950   32.8610   46.6050 N   0  0  0  0  0  0  0  0  0  0  0  0
   47.1260   31.9600   46.4620 C   0  0  0  0  0  0  0  0  0  0  0  0
   46.5060   30.5620   46.5930 C   0  0  0  0  0  0  0  0  0  0  0  0
   46.0640   30.4740   47.9920 N   0  0  0  0  0  0  0  0  0  0  0  0
   44.9250   31.3330   48.1960 C   0  0  0  0  0  0  0  0  0  0  0  0
   45.2050   32.7690   47.8190 C   0  0  0  0  0  0  0  0  0  0  0  0
   46.3550   32.8620   38.8160 C   0  0  0  0  0  0  0  0  0  0  0  0
   45.3880   33.2630   37.9130 C   0  0  0  0  0  0  0  0  0  0  0  0
   44.9620   32.4080   36.9240 C   0  0  0  0  0  0  0  0  0  0  0  0
   45.4890   31.1360   36.8110 C   0  0  0  0  0  0  0  0  0  0  0  0
   46.4380   30.7690   37.7100 C   0  0  0  0  0  0  0  0  0  0  0  0
   46.9160   31.5900   38.7420 C   0  0  0  0  0  0  0  0  0  0  0  0
   47.9610   31.0880   39.6790 C   0  0  0  0  0  0  0  0  0  0  0  0
   49.2610   31.8070   39.6260 C   0  0  0  0  0  0  0  0  0  0  0  0
   47.5310   31.0670   41.1110 C   0  0  0  0  0  0  0  0  0  0  0  0
   48.0023   35.7767   42.7643 H   0  0  0  0  0  0  0  0  0  0  0  0
   49.2887   35.8475   40.6466 H   0  0  0  0  0  0  0  0  0  0  0  0
   43.8717   36.5287   45.0811 H   0  0  0  0  0  0  0  0  0  0  0  0
   44.8923   36.3070   42.7626 H   0  0  0  0  0  0  0  0  0  0  0  0
   47.8678   32.1347   47.2553 H   0  0  0  0  0  0  0  0  0  0  0  0
   47.6601   32.0988   45.5104 H   0  0  0  0  0  0  0  0  0  0  0  0
   45.6512   30.4521   45.9094 H   0  0  0  0  0  0  0  0  0  0  0  0
   47.2199   29.7664   46.3334 H   0  0  0  0  0  0  0  0  0  0  0  0
   45.8025   29.5014   48.2080 H   0  0  0  0  0  0  0  0  0  0  0  0
   44.0908   30.9637   47.5815 H   0  0  0  0  0  0  0  0  0  0  0  0
   44.6797   31.3119   49.2681 H   0  0  0  0  0  0  0  0  0  0  0  0
   45.7552   33.2523   48.6398 H   0  0  0  0  0  0  0  0  0  0  0  0
   44.2424   33.2706   47.6406 H   0  0  0  0  0  0  0  0  0  0  0  0
   44.9567   34.2723   37.9862 H   0  0  0  0  0  0  0  0  0  0  0  0
   44.1913   32.7413   36.2133 H   0  0  0  0  0  0  0  0  0  0  0  0
   45.1525   30.4466   36.0226 H   0  0  0  0  0  0  0  0  0  0  0  0
   46.8614   29.7575   37.6230 H   0  0  0  0  0  0  0  0  0  0  0  0
   48.1060   30.0633   39.3062 H   0  0  0  0  0  0  0  0  0  0  0  0
   49.6140   32.0022   40.6494 H   0  0  0  0  0  0  0  0  0  0  0  0
   50.0002   31.1895   39.0947 H   0  0  0  0  0  0  0  0  0  0  0  0
   49.1308   32.7613   39.0947 H   0  0  0  0  0  0  0  0  0  0  0  0
   48.4176   31.1103   41.7607 H   0  0  0  0  0  0  0  0  0  0  0  0
   46.8857   31.9347   41.3128 H   0  0  0  0  0  0  0  0  0  0  0  0
   46.9734   30.1406   41.3128 H   0  0  0  0  0  0  0  0  0  0  0  0
  1 11  1  0
  2  1  1  0
  3  2  2  0
  4  6  1  0
  4  3  1  0
  5  4  2  0
  6  7  1  0
  7  8  2  0
  7  1  1  0
  9 14  2  0
 10  9  1  0
 11 10  2  0
 11 12  1  0
 12 13  2  0
 13 14  1  0
 13 15  1  0
 15 20  1  0
 16 17  1  0
 16 15  1  0
 17 18  1  0
 18 19  1  0
 20 19  1  0
 21  6  1  0
 22 21  2  0
 23 22  1  0
 24 23  2  0
 24 25  1  0
 25 26  2  0
 26 21  1  0
 26 27  1  0
 27 29  1  0
 28 27  1  0
  2 30  1  0
  3 31  1  0
  9 32  1  0
 10 33  1  0
 16 34  1  0
 16 35  1  0
 17 36  1  0
 17 37  1  0
 18 38  1  0
 19 39  1  0
 19 40  1  0
 20 41  1  0
 20 42  1  0
 22 43  1  0
 23 44  1  0
 24 45  1  0
 25 46  1  0
 27 47  1  0
 28 48  1  0
 28 49  1  0
 28 50  1  0
 29 51  1  0
 29 52  1  0
 29 53  1  0
M  ISO  8  30  14  31  14  32  14  33  14  34  13  35  13  36  13  37  13
M  ISO  8  38   5  39  13  40  13  41  13  42  13  43  14  44  14  45  14
M  ISO  8  46  14  47   8  48   8  49   8  50   8  51   8  52   8  53   8
M  END
>  <minimizedAffinity>  (1) 
-6.65014553

>  <minimizedRMSD>  (1) 
0.159455419

$$$$
