
     RDKit          3D

 48 52  0  0  1  0  0  0  0  0999 V2000
   45.9700   33.7390   41.5430 N   0  0  0  0  0  0  0  0  0  0  0  0
   47.2770   33.7880   40.8960 C   0  0  0  0  0  0  0  0  0  0  0  0
   46.8480   33.8780   39.4430 C   0  0  0  0  0  0  0  0  0  0  0  0
   45.8510   32.7390   39.3920 C   0  0  0  0  0  0  0  0  0  0  0  0
   45.1330   32.8780   40.6950 C   0  0  2  0  0  0  0  0  0  0  0  0
   44.5490   36.1760   43.9550 C   0  0  0  0  0  0  0  0  0  0  0  0
   44.9520   35.6210   42.7400 C   0  0  0  0  0  0  0  0  0  0  0  0
   45.5420   34.3580   42.7200 C   0  0  0  0  0  0  0  0  0  0  0  0
   45.6890   33.7330   43.9200 N   0  0  0  0  0  0  0  0  0  0  0  0
   45.2970   34.2740   45.0970 C   0  0  0  0  0  0  0  0  0  0  0  0
   44.7260   35.5010   45.0950 N   0  0  0  0  0  0  0  0  0  0  0  0
   45.4690   33.5870   46.3290 N   0  0  0  0  0  0  0  0  0  0  0  0
   44.9940   33.8400   47.5620 C   0  0  0  0  0  0  0  0  0  0  0  0
   45.4350   32.8920   48.4320 N   0  0  0  0  0  0  0  0  0  0  0  0
   46.2040   32.0090   47.7690 C   0  0  0  0  0  0  0  0  0  0  0  0
   46.9230   30.8640   48.0520 C   0  0  0  0  0  0  0  0  0  0  0  0
   47.6070   30.2090   47.0990 N   0  0  0  0  0  0  0  0  0  0  0  0
   47.6190   30.6400   45.8280 C   0  0  0  0  0  0  0  0  0  0  0  0
   46.9180   31.7570   45.5510 N   0  0  0  0  0  0  0  0  0  0  0  0
   46.2150   32.4550   46.4670 C   0  0  0  0  0  0  0  0  0  0  0  0
   46.9120   30.4030   49.3980 N   0  0  0  0  0  0  0  0  0  0  0  0
   43.7700   33.2570   40.6390 N   0  0  0  0  0  0  0  0  0  0  0  0
   43.2190   34.1650   39.8330 C   0  0  0  0  0  0  0  0  0  0  0  0
   41.8660   34.4700   39.8510 C   0  0  0  0  0  0  0  0  0  0  0  0
   41.0340   33.8100   40.7410 C   0  0  0  0  0  0  0  0  0  0  0  0
   39.7790   34.0440   40.8090 O   0  0  0  0  0  0  0  0  0  0  0  0
   41.5940   32.9000   41.5480 N   0  0  0  0  0  0  0  0  0  0  0  0
   42.9010   32.6460   41.4870 C   0  0  0  0  0  0  0  0  0  0  0  0
   43.3330   31.7640   42.2970 O   0  0  0  0  0  0  0  0  0  0  0  0
   41.2730   35.4760   38.9540 C   0  0  0  0  0  0  0  0  0  0  0  0
   47.8537   34.6716   41.2070 H   0  0  0  0  0  0  0  0  0  0  0  0
   47.9426   32.9445   41.1314 H   0  0  0  0  0  0  0  0  0  0  0  0
   46.3751   34.8449   39.2161 H   0  0  0  0  0  0  0  0  0  0  0  0
   47.6678   33.8091   38.7128 H   0  0  0  0  0  0  0  0  0  0  0  0
   45.1603   32.8532   38.5435 H   0  0  0  0  0  0  0  0  0  0  0  0
   46.3187   31.7532   39.2524 H   0  0  0  0  0  0  0  0  0  0  0  0
   45.0182   31.8767   41.1358 H   0  0  0  0  0  0  0  0  0  0  0  0
   44.0839   37.1727   43.9748 H   0  0  0  0  0  0  0  0  0  0  0  0
   44.8049   36.1772   41.8025 H   0  0  0  0  0  0  0  0  0  0  0  0
   44.3452   34.6878   47.8272 H   0  0  0  0  0  0  0  0  0  0  0  0
   48.1771   30.1044   45.0460 H   0  0  0  0  0  0  0  0  0  0  0  0
   47.4340   29.5533   49.6556 H   0  0  0  0  0  0  0  0  0  0  0  0
   46.3820   30.9190   50.1148 H   0  0  0  0  0  0  0  0  0  0  0  0
   43.8673   34.6967   39.1210 H   0  0  0  0  0  0  0  0  0  0  0  0
   41.0076   32.3901   42.2241 H   0  0  0  0  0  0  0  0  0  0  0  0
   40.8045   36.2707   39.5531 H   0  0  0  0  0  0  0  0  0  0  0  0
   42.0595   35.9105   38.3194 H   0  0  0  0  0  0  0  0  0  0  0  0
   40.5120   34.9983   38.3194 H   0  0  0  0  0  0  0  0  0  0  0  0
  1  8  1  0
  2  1  1  0
  3  2  1  0
  4  3  1  0
  4  5  1  0
  5  1  1  0
  6 11  2  0
  7  6  1  0
  8  7  2  0
  8  9  1  0
  9 10  2  0
 10 12  1  0
 11 10  1  0
 12 20  1  0
 12 13  1  0
 13 14  2  0
 15 16  2  0
 15 14  1  0
 16 21  1  0
 17 16  1  0
 18 17  2  0
 19 18  1  0
 19 20  2  0
 20 15  1  0
 22  5  1  0
 22 28  1  0
 23 24  2  0
 23 22  1  0
 24 25  1  0
 25 26  2  0
 25 27  1  0
 28 27  1  0
 28 29  2  0
 30 24  1  0
  2 31  1  0
  2 32  1  0
  3 33  1  0
  3 34  1  0
  4 35  1  0
  4 36  1  0
  5 37  1  1
  6 38  1  0
  7 39  1  0
 13 40  1  0
 18 41  1  0
 21 42  1  0
 21 43  1  0
 23 44  1  0
 27 45  1  0
 30 46  1  0
 30 47  1  0
 30 48  1  0
M  ISO  8  31  13  32  13  33  13  34  13  35  13  36  13  37  13  38  14
M  ISO  8  39  14  40  14  41  14  44  14  45   9  46   8  47   8  48   8
M  END
>  <minimizedAffinity>  (1) 
-7.19043303

>  <minimizedRMSD>  (1) 
0.774818242

$$$$
