
     RDKit          3D

 49 53  0  0  1  0  0  0  0  0999 V2000
   46.2180   33.8290   41.9160 N   0  0  0  0  0  0  0  0  0  0  0  0
   47.5320   34.0030   41.3110 C   0  0  0  0  0  0  0  0  0  0  0  0
   47.1320   34.1710   39.8670 C   0  0  0  0  0  0  0  0  0  0  0  0
   46.2130   32.9790   39.7000 C   0  0  0  0  0  0  0  0  0  0  0  0
   45.4590   32.9750   40.9880 C   0  0  2  0  0  0  0  0  0  0  0  0
   44.0770   33.2760   40.9180 N   0  0  0  0  0  0  0  0  0  0  0  0
   43.4800   34.2070   40.1790 C   0  0  0  0  0  0  0  0  0  0  0  0
   42.1110   34.4220   40.1830 C   0  0  0  0  0  0  0  0  0  0  0  0
   41.3050   33.6380   40.9930 C   0  0  0  0  0  0  0  0  0  0  0  0
   40.0370   33.7870   41.0410 O   0  0  0  0  0  0  0  0  0  0  0  0
   41.9110   32.7030   41.7360 N   0  0  0  0  0  0  0  0  0  0  0  0
   43.2270   32.5390   41.6930 C   0  0  0  0  0  0  0  0  0  0  0  0
   43.6960   31.6210   42.4390 O   0  0  0  0  0  0  0  0  0  0  0  0
   41.4800   35.4590   39.3530 C   0  0  0  0  0  0  0  0  0  0  0  0
   44.6410   36.0230   44.4570 C   0  0  0  0  0  0  0  0  0  0  0  0
   45.1070   35.5850   43.2170 C   0  0  0  0  0  0  0  0  0  0  0  0
   45.7250   34.3410   43.1180 C   0  0  0  0  0  0  0  0  0  0  0  0
   45.8350   33.6160   44.2650 N   0  0  0  0  0  0  0  0  0  0  0  0
   45.3820   34.0410   45.4670 C   0  0  0  0  0  0  0  0  0  0  0  0
   44.7900   35.2400   45.5470 N   0  0  0  0  0  0  0  0  0  0  0  0
   45.5630   33.1640   46.6210 C   0  0  0  0  0  0  0  0  0  0  0  0
   44.9350   33.3740   47.8310 C   0  0  0  0  0  0  0  0  0  0  0  0
   45.3250   32.3860   48.6610 N   0  0  0  0  0  0  0  0  0  0  0  0
   46.1710   31.5810   47.9930 C   0  0  0  0  0  0  0  0  0  0  0  0
   46.8400   30.4410   48.3930 C   0  0  0  0  0  0  0  0  0  0  0  0
   47.6630   29.8000   47.4810 C   0  0  0  0  0  0  0  0  0  0  0  0
   47.8530   30.2410   46.1880 C   0  0  0  0  0  0  0  0  0  0  0  0
   47.1810   31.3870   45.7860 C   0  0  0  0  0  0  0  0  0  0  0  0
   46.3580   32.0350   46.6820 C   0  0  0  0  0  0  0  0  0  0  0  0
   48.0458   34.8948   41.6992 H   0  0  0  0  0  0  0  0  0  0  0  0
   48.2438   33.1868   41.5038 H   0  0  0  0  0  0  0  0  0  0  0  0
   46.6019   35.1202   39.6994 H   0  0  0  0  0  0  0  0  0  0  0  0
   47.9721   34.2074   39.1579 H   0  0  0  0  0  0  0  0  0  0  0  0
   45.5368   33.1145   38.8431 H   0  0  0  0  0  0  0  0  0  0  0  0
   46.7452   32.0376   39.4985 H   0  0  0  0  0  0  0  0  0  0  0  0
   45.4005   31.9397   41.3550 H   0  0  0  0  0  0  0  0  0  0  0  0
   44.1053   34.8389   39.5312 H   0  0  0  0  0  0  0  0  0  0  0  0
   41.3458   32.1008   42.3514 H   0  0  0  0  0  0  0  0  0  0  0  0
   41.0184   36.2176   40.0021 H   0  0  0  0  0  0  0  0  0  0  0  0
   42.2421   35.9344   38.7180 H   0  0  0  0  0  0  0  0  0  0  0  0
   40.7075   35.0007   38.7180 H   0  0  0  0  0  0  0  0  0  0  0  0
   44.1529   37.0047   44.5466 H   0  0  0  0  0  0  0  0  0  0  0  0
   44.9872   36.2172   42.3248 H   0  0  0  0  0  0  0  0  0  0  0  0
   44.2443   34.1951   48.0736 H   0  0  0  0  0  0  0  0  0  0  0  0
   45.0263   32.2676   49.6396 H   0  0  0  0  0  0  0  0  0  0  0  0
   46.7220   30.0500   49.4144 H   0  0  0  0  0  0  0  0  0  0  0  0
   48.1925   28.8919   47.8051 H   0  0  0  0  0  0  0  0  0  0  0  0
   48.5167   29.7011   45.4966 H   0  0  0  0  0  0  0  0  0  0  0  0
   47.3038   31.7739   44.7636 H   0  0  0  0  0  0  0  0  0  0  0  0
  1 17  1  0
  2  1  1  0
  3  2  1  0
  4  3  1  0
  4  5  1  0
  5  1  1  0
  6  5  1  0
  6 12  1  0
  7  8  2  0
  7  6  1  0
  8  9  1  0
  9 10  2  0
  9 11  1  0
 12 11  1  0
 12 13  2  0
 14  8  1  0
 15 20  2  0
 16 15  1  0
 17 16  2  0
 17 18  1  0
 18 19  2  0
 19 20  1  0
 19 21  1  0
 21 29  1  0
 21 22  2  0
 22 23  1  0
 24 25  2  0
 24 23  1  0
 26 25  1  0
 27 26  2  0
 28 27  1  0
 28 29  2  0
 29 24  1  0
  2 30  1  0
  2 31  1  0
  3 32  1  0
  3 33  1  0
  4 34  1  0
  4 35  1  0
  5 36  1  1
  7 37  1  0
 11 38  1  0
 14 39  1  0
 14 40  1  0
 14 41  1  0
 15 42  1  0
 16 43  1  0
 22 44  1  0
 23 45  1  0
 25 46  1  0
 26 47  1  0
 27 48  1  0
 28 49  1  0
M  ISO  8  30  13  31  13  32  13  33  13  34  13  35  13  36  13  37  14
M  ISO  8  38   9  39   8  40   8  41   8  42  14  43  14  44  14  45   9
M  ISO  4  46  14  47  14  48  14  49  14
M  END
>  <minimizedAffinity>  (1) 
-7.09147644

>  <minimizedRMSD>  (1) 
0.620544851

$$$$
