
     RDKit          3D

 42 45  0  0  1  0  0  0  0  0999 V2000
   46.4250   33.8720   42.3080 N   0  0  0  0  0  0  0  0  0  0  0  0
   47.7490   34.1650   41.7670 C   0  0  0  0  0  0  0  0  0  0  0  0
   47.3940   34.4100   40.3190 C   0  0  0  0  0  0  0  0  0  0  0  0
   46.5550   33.1860   40.0390 C   0  0  0  0  0  0  0  0  0  0  0  0
   45.7570   33.0440   41.2940 C   0  0  2  0  0  0  0  0  0  0  0  0
   44.5060   35.7180   44.8960 C   0  0  0  0  0  0  0  0  0  0  0  0
   45.0420   35.3880   43.6470 C   0  0  0  0  0  0  0  0  0  0  0  0
   45.8560   34.2640   43.5220 C   0  0  0  0  0  0  0  0  0  0  0  0
   46.0810   33.5430   44.6570 N   0  0  0  0  0  0  0  0  0  0  0  0
   45.5620   33.8670   45.8560 C   0  0  0  0  0  0  0  0  0  0  0  0
   44.7810   34.9470   45.9710 N   0  0  0  0  0  0  0  0  0  0  0  0
   45.8850   33.0190   46.9550 N   0  0  0  0  0  0  0  0  0  0  0  0
   47.0220   32.3290   47.1670 C   0  0  0  0  0  0  0  0  0  0  0  0
   46.7690   31.6980   48.3680 C   0  0  0  0  0  0  0  0  0  0  0  0
   45.5510   31.9800   48.8710 N   0  0  0  0  0  0  0  0  0  0  0  0
   45.0040   32.8240   47.9560 C   0  0  0  0  0  0  0  0  0  0  0  0
   44.3620   33.2680   41.1860 N   0  0  0  0  0  0  0  0  0  0  0  0
   43.7390   34.2000   40.4650 C   0  0  0  0  0  0  0  0  0  0  0  0
   42.3580   34.3340   40.4300 C   0  0  0  0  0  0  0  0  0  0  0  0
   41.5750   33.4750   41.1670 C   0  0  0  0  0  0  0  0  0  0  0  0
   40.3010   33.5490   41.1750 O   0  0  0  0  0  0  0  0  0  0  0  0
   42.2000   32.5380   41.8920 N   0  0  0  0  0  0  0  0  0  0  0  0
   43.5290   32.4510   41.8920 C   0  0  0  0  0  0  0  0  0  0  0  0
   44.0250   31.5270   42.6140 O   0  0  0  0  0  0  0  0  0  0  0  0
   41.6980   35.3770   39.6200 C   0  0  0  0  0  0  0  0  0  0  0  0
   48.1928   35.0562   42.2347 H   0  0  0  0  0  0  0  0  0  0  0  0
   48.5008   33.3793   41.9326 H   0  0  0  0  0  0  0  0  0  0  0  0
   46.8164   35.3376   40.1924 H   0  0  0  0  0  0  0  0  0  0  0  0
   48.2560   34.5419   39.6485 H   0  0  0  0  0  0  0  0  0  0  0  0
   45.9013   33.3433   39.1684 H   0  0  0  0  0  0  0  0  0  0  0  0
   47.1504   32.2936   39.7958 H   0  0  0  0  0  0  0  0  0  0  0  0
   45.7516   31.9840   41.5878 H   0  0  0  0  0  0  0  0  0  0  0  0
   43.8620   36.6033   45.0029 H   0  0  0  0  0  0  0  0  0  0  0  0
   44.8222   36.0122   42.7684 H   0  0  0  0  0  0  0  0  0  0  0  0
   47.9249   32.2806   46.5406 H   0  0  0  0  0  0  0  0  0  0  0  0
   47.4894   31.0316   48.8649 H   0  0  0  0  0  0  0  0  0  0  0  0
   44.0030   33.2752   48.0222 H   0  0  0  0  0  0  0  0  0  0  0  0
   44.3482   34.8959   39.8695 H   0  0  0  0  0  0  0  0  0  0  0  0
   41.6465   31.8773   42.4559 H   0  0  0  0  0  0  0  0  0  0  0  0
   41.2298   36.1169   40.2859 H   0  0  0  0  0  0  0  0  0  0  0  0
   42.4452   35.8759   38.9853 H   0  0  0  0  0  0  0  0  0  0  0  0
   40.9273   34.9154   38.9853 H   0  0  0  0  0  0  0  0  0  0  0  0
  1  8  1  0
  2  1  1  0
  3  2  1  0
  4  3  1  0
  4  5  1  0
  5  1  1  0
  6 11  2  0
  7  6  1  0
  8  7  2  0
  8  9  1  0
  9 10  2  0
 10 11  1  0
 10 12  1  0
 12 13  1  0
 12 16  1  0
 13 14  2  0
 14 15  1  0
 16 15  2  0
 17  5  1  0
 17 23  1  0
 18 17  1  0
 19 18  2  0
 19 20  1  0
 20 21  2  0
 20 22  1  0
 23 22  1  0
 23 24  2  0
 25 19  1  0
  2 26  1  0
  2 27  1  0
  3 28  1  0
  3 29  1  0
  4 30  1  0
  4 31  1  0
  5 32  1  1
  6 33  1  0
  7 34  1  0
 13 35  1  0
 14 36  1  0
 16 37  1  0
 18 38  1  0
 22 39  1  0
 25 40  1  0
 25 41  1  0
 25 42  1  0
M  ISO  8  26  13  27  13  28  13  29  13  30  13  31  13  32  13  33  14
M  ISO  8  34  14  35  14  36  14  37  14  38  14  39   9  40   8  41   8
M  ISO  1  42   8
M  END
>  <minimizedAffinity>  (1) 
-6.79331446

>  <minimizedRMSD>  (1) 
0.418799788

$$$$
