
     RDKit          3D

 47 49  0  0  1  0  0  0  0  0999 V2000
   46.7780   33.9460   42.6650 N   0  0  0  0  0  0  0  0  0  0  0  0
   48.0840   34.4280   42.2230 C   0  0  0  0  0  0  0  0  0  0  0  0
   47.7450   34.8410   40.8050 C   0  0  0  0  0  0  0  0  0  0  0  0
   47.0220   33.6080   40.3270 C   0  0  0  0  0  0  0  0  0  0  0  0
   46.2150   33.2180   41.5210 C   0  0  2  0  0  0  0  0  0  0  0  0
   44.8060   33.3400   41.3940 N   0  0  0  0  0  0  0  0  0  0  0  0
   44.1200   34.3020   40.7740 C   0  0  0  0  0  0  0  0  0  0  0  0
   42.7440   34.3190   40.7110 C   0  0  0  0  0  0  0  0  0  0  0  0
   42.0180   33.3130   41.3040 C   0  0  0  0  0  0  0  0  0  0  0  0
   40.7310   33.2690   41.2830 O   0  0  0  0  0  0  0  0  0  0  0  0
   42.7050   32.3390   41.9300 N   0  0  0  0  0  0  0  0  0  0  0  0
   44.0290   32.3720   41.9610 C   0  0  0  0  0  0  0  0  0  0  0  0
   44.5860   31.4080   42.5760 O   0  0  0  0  0  0  0  0  0  0  0  0
   41.9990   35.4000   40.0170 C   0  0  0  0  0  0  0  0  0  0  0  0
   44.6820   35.2610   45.4290 C   0  0  0  0  0  0  0  0  0  0  0  0
   45.2750   35.1700   44.1600 C   0  0  0  0  0  0  0  0  0  0  0  0
   46.1470   34.1100   43.8980 C   0  0  0  0  0  0  0  0  0  0  0  0
   46.3670   33.2220   44.9120 N   0  0  0  0  0  0  0  0  0  0  0  0
   45.7910   33.3190   46.1310 C   0  0  0  0  0  0  0  0  0  0  0  0
   44.9540   34.3400   46.3710 N   0  0  0  0  0  0  0  0  0  0  0  0
   46.0710   32.3200   47.1920 C   0  0  0  0  0  0  0  0  0  0  0  0
   45.0090   32.4170   48.2750 C   0  0  0  0  0  0  0  0  0  0  0  0
   45.9310   30.9030   46.6240 C   0  0  0  0  0  0  0  0  0  0  0  0
   47.4140   32.4660   47.8300 C   0  0  0  0  0  0  0  0  0  0  0  0
   48.4297   35.2811   42.8252 H   0  0  0  0  0  0  0  0  0  0  0  0
   48.9017   33.6974   42.3102 H   0  0  0  0  0  0  0  0  0  0  0  0
   47.0940   35.7274   40.7846 H   0  0  0  0  0  0  0  0  0  0  0  0
   48.6109   35.1319   40.1922 H   0  0  0  0  0  0  0  0  0  0  0  0
   46.3743   33.8359   39.4676 H   0  0  0  0  0  0  0  0  0  0  0  0
   47.6977   32.8132   39.9779 H   0  0  0  0  0  0  0  0  0  0  0  0
   46.3031   32.1308   41.6629 H   0  0  0  0  0  0  0  0  0  0  0  0
   44.6782   35.1179   40.2916 H   0  0  0  0  0  0  0  0  0  0  0  0
   42.1998   31.5660   42.3861 H   0  0  0  0  0  0  0  0  0  0  0  0
   41.5400   36.0660   40.7625 H   0  0  0  0  0  0  0  0  0  0  0  0
   42.6921   35.9770   39.3872 H   0  0  0  0  0  0  0  0  0  0  0  0
   41.2130   34.9577   39.3872 H   0  0  0  0  0  0  0  0  0  0  0  0
   43.9926   36.0881   45.6539 H   0  0  0  0  0  0  0  0  0  0  0  0
   45.0571   35.9200   43.3854 H   0  0  0  0  0  0  0  0  0  0  0  0
   45.4887   32.3732   49.2639 H   0  0  0  0  0  0  0  0  0  0  0  0
   44.4665   33.3684   48.1724 H   0  0  0  0  0  0  0  0  0  0  0  0
   44.3032   31.5796   48.1724 H   0  0  0  0  0  0  0  0  0  0  0  0
   45.8597   30.1817   47.4514 H   0  0  0  0  0  0  0  0  0  0  0  0
   45.0226   30.8436   46.0065 H   0  0  0  0  0  0  0  0  0  0  0  0
   46.8102   30.6670   46.0065 H   0  0  0  0  0  0  0  0  0  0  0  0
   47.3033   32.4540   48.9244 H   0  0  0  0  0  0  0  0  0  0  0  0
   48.0608   31.6329   47.5177 H   0  0  0  0  0  0  0  0  0  0  0  0
   47.8667   33.4186   47.5177 H   0  0  0  0  0  0  0  0  0  0  0  0
  1 17  1  0
  2  1  1  0
  3  2  1  0
  4  3  1  0
  4  5  1  0
  5  1  1  0
  6  5  1  0
  6 12  1  0
  7  6  1  0
  8  7  2  0
  8  9  1  0
  9 11  1  0
 10  9  2  0
 11 12  1  0
 12 13  2  0
 14  8  1  0
 15 20  2  0
 16 15  1  0
 17 16  2  0
 17 18  1  0
 18 19  2  0
 19 20  1  0
 19 21  1  0
 21 24  1  0
 21 22  1  0
 23 21  1  0
  2 25  1  0
  2 26  1  0
  3 27  1  0
  3 28  1  0
  4 29  1  0
  4 30  1  0
  5 31  1  1
  7 32  1  0
 11 33  1  0
 14 34  1  0
 14 35  1  0
 14 36  1  0
 15 37  1  0
 16 38  1  0
 22 39  1  0
 22 40  1  0
 22 41  1  0
 23 42  1  0
 23 43  1  0
 23 44  1  0
 24 45  1  0
 24 46  1  0
 24 47  1  0
M  ISO  8  25  13  26  13  27  13  28  13  29  13  30  13  31  13  32  14
M  ISO  8  33   9  34   8  35   8  36   8  37  14  38  14  39   8  40   8
M  ISO  7  41   8  42   8  43   8  44   8  45   8  46   8  47   8
M  END
>  <minimizedAffinity>  (1) 
-6.04607344

>  <minimizedRMSD>  (1) 
0.883341014

$$$$
