
     RDKit          3D

 44 46  0  0  1  0  0  0  0  0999 V2000
   46.7380   33.9740   42.7190 N   0  0  0  0  0  0  0  0  0  0  0  0
   48.0530   34.4370   42.2930 C   0  0  0  0  0  0  0  0  0  0  0  0
   47.7450   34.8210   40.8640 C   0  0  0  0  0  0  0  0  0  0  0  0
   47.0280   33.5730   40.3960 C   0  0  0  0  0  0  0  0  0  0  0  0
   46.1860   33.2180   41.5840 C   0  0  2  0  0  0  0  0  0  0  0  0
   44.7830   33.3380   41.4260 N   0  0  0  0  0  0  0  0  0  0  0  0
   44.1200   34.2930   40.7660 C   0  0  0  0  0  0  0  0  0  0  0  0
   42.7360   34.3130   40.6750 C   0  0  0  0  0  0  0  0  0  0  0  0
   41.9980   33.3100   41.2860 C   0  0  0  0  0  0  0  0  0  0  0  0
   40.7160   33.2870   41.2280 O   0  0  0  0  0  0  0  0  0  0  0  0
   42.6720   32.3600   41.9420 N   0  0  0  0  0  0  0  0  0  0  0  0
   43.9970   32.3900   41.9980 C   0  0  0  0  0  0  0  0  0  0  0  0
   44.5380   31.4390   42.6470 O   0  0  0  0  0  0  0  0  0  0  0  0
   42.0230   35.3780   39.9420 C   0  0  0  0  0  0  0  0  0  0  0  0
   44.5970   35.3890   45.4080 C   0  0  0  0  0  0  0  0  0  0  0  0
   45.2230   35.2540   44.1600 C   0  0  0  0  0  0  0  0  0  0  0  0
   46.0810   34.1710   43.9360 C   0  0  0  0  0  0  0  0  0  0  0  0
   46.2530   33.3020   44.9680 N   0  0  0  0  0  0  0  0  0  0  0  0
   45.6490   33.4330   46.1690 C   0  0  0  0  0  0  0  0  0  0  0  0
   44.8220   34.4830   46.3750 N   0  0  0  0  0  0  0  0  0  0  0  0
   45.8710   32.4570   47.2610 C   0  0  0  0  0  0  0  0  0  0  0  0
   47.3080   32.5470   47.7800 C   0  0  0  0  0  0  0  0  0  0  0  0
   45.6720   31.0340   46.7830 C   0  0  0  0  0  0  0  0  0  0  0  0
   48.3930   35.3004   42.8836 H   0  0  0  0  0  0  0  0  0  0  0  0
   48.8637   33.7030   42.4113 H   0  0  0  0  0  0  0  0  0  0  0  0
   47.0953   35.7071   40.8119 H   0  0  0  0  0  0  0  0  0  0  0  0
   48.6232   35.0997   40.2631 H   0  0  0  0  0  0  0  0  0  0  0  0
   46.4040   33.7801   39.5141 H   0  0  0  0  0  0  0  0  0  0  0  0
   47.7086   32.7670   40.0843 H   0  0  0  0  0  0  0  0  0  0  0  0
   46.2550   32.1338   41.7562 H   0  0  0  0  0  0  0  0  0  0  0  0
   44.6939   35.0935   40.2764 H   0  0  0  0  0  0  0  0  0  0  0  0
   42.1582   31.5984   42.4078 H   0  0  0  0  0  0  0  0  0  0  0  0
   41.5595   36.0703   40.6602 H   0  0  0  0  0  0  0  0  0  0  0  0
   42.7355   35.9282   39.3098 H   0  0  0  0  0  0  0  0  0  0  0  0
   41.2428   34.9289   39.3098 H   0  0  0  0  0  0  0  0  0  0  0  0
   43.9216   36.2368   45.5954 H   0  0  0  0  0  0  0  0  0  0  0  0
   45.0414   35.9922   43.3650 H   0  0  0  0  0  0  0  0  0  0  0  0
   45.1444   32.7023   48.0496 H   0  0  0  0  0  0  0  0  0  0  0  0
   47.3013   32.5466   48.8800 H   0  0  0  0  0  0  0  0  0  0  0  0
   47.8839   31.6832   47.4165 H   0  0  0  0  0  0  0  0  0  0  0  0
   47.7716   33.4759   47.4165 H   0  0  0  0  0  0  0  0  0  0  0  0
   45.5785   30.3652   47.6513 H   0  0  0  0  0  0  0  0  0  0  0  0
   44.7570   30.9759   46.1752 H   0  0  0  0  0  0  0  0  0  0  0  0
   46.5360   30.7271   46.1752 H   0  0  0  0  0  0  0  0  0  0  0  0
  1 17  1  0
  2  1  1  0
  3  2  1  0
  4  3  1  0
  4  5  1  0
  5  1  1  0
  6  5  1  0
  6 12  1  0
  7  6  1  0
  8  7  2  0
  8  9  1  0
  9 11  1  0
 10  9  2  0
 11 12  1  0
 12 13  2  0
 14  8  1  0
 15 20  2  0
 16 15  1  0
 17 16  2  0
 17 18  1  0
 18 19  2  0
 19 20  1  0
 19 21  1  0
 21 22  1  0
 23 21  1  0
  2 24  1  0
  2 25  1  0
  3 26  1  0
  3 27  1  0
  4 28  1  0
  4 29  1  0
  5 30  1  1
  7 31  1  0
 11 32  1  0
 14 33  1  0
 14 34  1  0
 14 35  1  0
 15 36  1  0
 16 37  1  0
 21 38  1  0
 22 39  1  0
 22 40  1  0
 22 41  1  0
 23 42  1  0
 23 43  1  0
 23 44  1  0
M  ISO  8  24  13  25  13  26  13  27  13  28  13  29  13  30  13  31  14
M  ISO  8  32   9  33   8  34   8  35   8  36  14  37  14  38   8  39   8
M  ISO  5  40   8  41   8  42   8  43   8  44   8
M  END
>  <minimizedAffinity>  (1) 
-5.77691126

>  <minimizedRMSD>  (1) 
0.759054542

$$$$
