
     RDKit          3D

 47 50  0  0  1  0  0  0  0  0999 V2000
   45.8200   33.7180   42.1160 N   0  0  0  0  0  0  0  0  0  0  0  0
   46.9350   34.0340   41.2480 C   0  0  0  0  0  0  0  0  0  0  0  0
   46.2950   33.8480   39.9010 C   0  0  0  0  0  0  0  0  0  0  0  0
   45.6390   32.5140   40.0650 C   0  0  0  0  0  0  0  0  0  0  0  0
   45.1350   32.5830   41.4800 C   0  0  2  0  0  0  0  0  0  0  0  0
   44.5120   36.1400   44.6120 C   0  0  0  0  0  0  0  0  0  0  0  0
   44.8890   35.6050   43.3780 C   0  0  0  0  0  0  0  0  0  0  0  0
   45.4230   34.3140   43.3070 C   0  0  0  0  0  0  0  0  0  0  0  0
   45.5400   33.6480   44.4950 N   0  0  0  0  0  0  0  0  0  0  0  0
   45.1760   34.1650   45.6830 C   0  0  0  0  0  0  0  0  0  0  0  0
   44.6620   35.4120   45.7310 N   0  0  0  0  0  0  0  0  0  0  0  0
   45.3780   33.3110   46.8010 N   0  0  0  0  0  0  0  0  0  0  0  0
   43.7220   32.5840   41.6440 N   0  0  0  0  0  0  0  0  0  0  0  0
   42.8560   33.5230   41.2360 C   0  0  0  0  0  0  0  0  0  0  0  0
   41.4950   33.4330   41.4430 C   0  0  0  0  0  0  0  0  0  0  0  0
   40.9810   32.3310   42.0980 C   0  0  0  0  0  0  0  0  0  0  0  0
   39.7370   32.1990   42.3150 O   0  0  0  0  0  0  0  0  0  0  0  0
   41.8420   31.4000   42.5020 N   0  0  0  0  0  0  0  0  0  0  0  0
   43.1430   31.5290   42.2820 C   0  0  0  0  0  0  0  0  0  0  0  0
   43.8860   30.5880   42.7050 O   0  0  0  0  0  0  0  0  0  0  0  0
   40.5900   34.4950   40.9730 C   0  0  0  0  0  0  0  0  0  0  0  0
   39.9020   34.2050   39.7640 N   0  0  0  0  0  0  0  0  0  0  0  0
   38.7120   33.5510   39.9050 C   0  0  0  0  0  0  0  0  0  0  0  0
   37.9470   33.2140   38.8100 C   0  0  0  0  0  0  0  0  0  0  0  0
   38.4240   33.5620   37.5480 C   0  0  0  0  0  0  0  0  0  0  0  0
   37.7290   33.2560   36.5520 O   0  0  0  0  0  0  0  0  0  0  0  0
   39.6090   34.2090   37.4650 N   0  0  0  0  0  0  0  0  0  0  0  0
   40.3670   34.5450   38.5230 C   0  0  0  0  0  0  0  0  0  0  0  0
   41.4610   35.1440   38.4320 O   0  0  0  0  0  0  0  0  0  0  0  0
   47.2825   35.0675   41.3932 H   0  0  0  0  0  0  0  0  0  0  0  0
   47.8343   33.4234   41.4164 H   0  0  0  0  0  0  0  0  0  0  0  0
   47.0465   33.8303   39.0979 H   0  0  0  0  0  0  0  0  0  0  0  0
   45.6045   34.6557   39.6169 H   0  0  0  0  0  0  0  0  0  0  0  0
   44.8112   32.3857   39.3521 H   0  0  0  0  0  0  0  0  0  0  0  0
   46.3109   31.6639   39.8753 H   0  0  0  0  0  0  0  0  0  0  0  0
   45.3843   31.6407   41.9898 H   0  0  0  0  0  0  0  0  0  0  0  0
   44.0930   37.1556   44.6674 H   0  0  0  0  0  0  0  0  0  0  0  0
   44.7658   36.1997   42.4608 H   0  0  0  0  0  0  0  0  0  0  0  0
   45.1251   33.6319   47.7465 H   0  0  0  0  0  0  0  0  0  0  0  0
   45.7773   32.3712   46.6657 H   0  0  0  0  0  0  0  0  0  0  0  0
   43.2492   34.4064   40.7117 H   0  0  0  0  0  0  0  0  0  0  0  0
   41.4918   30.5655   42.9937 H   0  0  0  0  0  0  0  0  0  0  0  0
   39.8404   34.6766   41.7573 H   0  0  0  0  0  0  0  0  0  0  0  0
   41.2238   35.3695   40.7644 H   0  0  0  0  0  0  0  0  0  0  0  0
   38.3571   33.2880   40.9124 H   0  0  0  0  0  0  0  0  0  0  0  0
   36.9891   32.6864   38.9284 H   0  0  0  0  0  0  0  0  0  0  0  0
   39.9538   34.4612   36.5278 H   0  0  0  0  0  0  0  0  0  0  0  0
  1  8  1  0
  2  1  1  0
  3  4  1  0
  3  2  1  0
  4  5  1  0
  5 13  1  0
  5  1  1  0
  6 11  2  0
  7  6  1  0
  8  7  2  0
  8  9  1  0
  9 10  2  0
 10 11  1  0
 10 12  1  0
 13 19  1  0
 14 15  2  0
 14 13  1  0
 15 16  1  0
 16 17  2  0
 16 18  1  0
 19 18  1  0
 19 20  2  0
 21 15  1  0
 22 23  1  0
 22 21  1  0
 24 23  2  0
 25 24  1  0
 26 25  2  0
 27 25  1  0
 27 28  1  0
 28 22  1  0
 29 28  2  0
  2 30  1  0
  2 31  1  0
  3 32  1  0
  3 33  1  0
  4 34  1  0
  4 35  1  0
  5 36  1  1
  6 37  1  0
  7 38  1  0
 12 39  1  0
 12 40  1  0
 14 41  1  0
 18 42  1  0
 21 43  1  0
 21 44  1  0
 23 45  1  0
 24 46  1  0
 27 47  1  0
M  ISO  8  30  13  31  13  32  13  33  13  34  13  35  13  36  13  37  14
M  ISO  8  38  14  41  14  42   9  43   8  44   8  45  14  46  14  47   9
M  END
>  <minimizedAffinity>  (1) 
-6.81997156

>  <minimizedRMSD>  (1) 
1.59002984

$$$$
