
     RDKit          3D

 51 55  0  0  1  0  0  0  0  0999 V2000
   47.3190   33.3510   43.5410 N   0  0  0  0  0  0  0  0  0  0  0  0
   48.5580   33.7710   42.8870 C   0  0  0  0  0  0  0  0  0  0  0  0
   48.6020   32.7670   41.7500 C   0  0  0  0  0  0  0  0  0  0  0  0
   48.3810   31.4880   42.5090 C   0  0  0  0  0  0  0  0  0  0  0  0
   47.3460   31.8870   43.5080 C   0  0  2  0  0  0  0  0  0  0  0  0
   44.6450   35.8760   44.0220 C   0  0  0  0  0  0  0  0  0  0  0  0
   45.6570   35.1550   43.3990 C   0  0  0  0  0  0  0  0  0  0  0  0
   46.2940   34.1230   44.0950 C   0  0  0  0  0  0  0  0  0  0  0  0
   45.8640   33.8940   45.3660 N   0  0  0  0  0  0  0  0  0  0  0  0
   44.8860   34.5960   45.9560 C   0  0  0  0  0  0  0  0  0  0  0  0
   44.2780   35.5890   45.2790 N   0  0  0  0  0  0  0  0  0  0  0  0
   44.5760   34.2130   47.2860 N   0  0  0  0  0  0  0  0  0  0  0  0
   46.0770   31.2820   43.3730 N   0  0  0  0  0  0  0  0  0  0  0  0
   45.2650   31.3540   42.3210 C   0  0  0  0  0  0  0  0  0  0  0  0
   44.0330   30.7240   42.2780 C   0  0  0  0  0  0  0  0  0  0  0  0
   43.5890   29.9750   43.3590 C   0  0  0  0  0  0  0  0  0  0  0  0
   42.4690   29.3830   43.3600 O   0  0  0  0  0  0  0  0  0  0  0  0
   44.4130   29.9120   44.4080 N   0  0  0  0  0  0  0  0  0  0  0  0
   45.5780   30.5300   44.4020 C   0  0  0  0  0  0  0  0  0  0  0  0
   46.2970   30.4100   45.4550 O   0  0  0  0  0  0  0  0  0  0  0  0
   43.1420   30.8180   41.0860 C   0  0  0  0  0  0  0  0  0  0  0  0
   42.0330   31.7700   41.2890 C   0  0  0  0  0  0  0  0  0  0  0  0
   40.7430   31.4110   41.6460 C   0  0  0  0  0  0  0  0  0  0  0  0
   40.0340   32.5690   41.7280 N   0  0  0  0  0  0  0  0  0  0  0  0
   40.8420   33.5820   41.4380 C   0  0  0  0  0  0  0  0  0  0  0  0
   40.5060   34.9200   41.4120 C   0  0  0  0  0  0  0  0  0  0  0  0
   41.4810   35.8380   41.0880 C   0  0  0  0  0  0  0  0  0  0  0  0
   42.7530   35.3910   40.8040 C   0  0  0  0  0  0  0  0  0  0  0  0
   43.1260   34.0450   40.8210 C   0  0  0  0  0  0  0  0  0  0  0  0
   42.1370   33.1390   41.1470 C   0  0  0  0  0  0  0  0  0  0  0  0
   48.4955   34.8052   42.5175 H   0  0  0  0  0  0  0  0  0  0  0  0
   49.4468   33.7797   43.5351 H   0  0  0  0  0  0  0  0  0  0  0  0
   49.5762   32.7736   41.2393 H   0  0  0  0  0  0  0  0  0  0  0  0
   47.8775   32.9539   40.9437 H   0  0  0  0  0  0  0  0  0  0  0  0
   48.0102   30.6911   41.8476 H   0  0  0  0  0  0  0  0  0  0  0  0
   49.2968   31.0802   42.9618 H   0  0  0  0  0  0  0  0  0  0  0  0
   47.6414   31.4855   44.4886 H   0  0  0  0  0  0  0  0  0  0  0  0
   44.1410   36.6890   43.4789 H   0  0  0  0  0  0  0  0  0  0  0  0
   45.9542   35.3942   42.3673 H   0  0  0  0  0  0  0  0  0  0  0  0
   43.8355   34.7064   47.8047 H   0  0  0  0  0  0  0  0  0  0  0  0
   45.0914   33.4414   47.7332 H   0  0  0  0  0  0  0  0  0  0  0  0
   45.5869   31.9398   41.4474 H   0  0  0  0  0  0  0  0  0  0  0  0
   44.1332   29.3701   45.2380 H   0  0  0  0  0  0  0  0  0  0  0  0
   42.7207   29.8230   40.8800 H   0  0  0  0  0  0  0  0  0  0  0  0
   43.7467   31.1811   40.2419 H   0  0  0  0  0  0  0  0  0  0  0  0
   40.3674   30.3931   41.8269 H   0  0  0  0  0  0  0  0  0  0  0  0
   39.0369   32.6470   41.9740 H   0  0  0  0  0  0  0  0  0  0  0  0
   39.4818   35.2467   41.6449 H   0  0  0  0  0  0  0  0  0  0  0  0
   41.2473   36.9124   41.0565 H   0  0  0  0  0  0  0  0  0  0  0  0
   43.5195   36.1377   40.5490 H   0  0  0  0  0  0  0  0  0  0  0  0
   44.1520   33.7245   40.5873 H   0  0  0  0  0  0  0  0  0  0  0  0
  1  8  1  0
  2  1  1  0
  3  4  1  0
  3  2  1  0
  4  5  1  0
  5  1  1  0
  6 11  2  0
  7  6  1  0
  7  8  2  0
  8  9  1  0
  9 10  2  0
 10 12  1  0
 11 10  1  0
 13  5  1  0
 13 19  1  0
 14 13  1  0
 15 14  2  0
 15 16  1  0
 16 17  2  0
 16 18  1  0
 19 18  1  0
 19 20  2  0
 21 22  1  0
 21 15  1  0
 22 23  2  0
 23 24  1  0
 25 24  1  0
 26 25  2  0
 27 26  1  0
 28 29  1  0
 28 27  2  0
 29 30  2  0
 30 22  1  0
 30 25  1  0
  2 31  1  0
  2 32  1  0
  3 33  1  0
  3 34  1  0
  4 35  1  0
  4 36  1  0
  5 37  1  1
  6 38  1  0
  7 39  1  0
 12 40  1  0
 12 41  1  0
 14 42  1  0
 18 43  1  0
 21 44  1  0
 21 45  1  0
 23 46  1  0
 24 47  1  0
 26 48  1  0
 27 49  1  0
 28 50  1  0
 29 51  1  0
M  ISO  8  31  13  32  13  33  13  34  13  35  13  36  13  37  13  38  14
M  ISO  8  39  14  42  14  43   9  44   8  45   8  46  14  47   9  48  14
M  ISO  3  49  14  50  14  51  14
M  END
>  <minimizedAffinity>  (1) 
-6.58050108

>  <minimizedRMSD>  (1) 
3.58263493

$$$$
