
     RDKit          3D

 46 49  0  0  1  0  0  0  0  0999 V2000
   46.7000   34.0360   42.4060 N   0  0  0  0  0  0  0  0  0  0  0  0
   47.7880   34.6500   41.6420 C   0  0  0  0  0  0  0  0  0  0  0  0
   47.4350   34.1800   40.2520 C   0  0  0  0  0  0  0  0  0  0  0  0
   47.2340   32.7100   40.5090 C   0  0  0  0  0  0  0  0  0  0  0  0
   46.5320   32.6960   41.8230 C   0  0  2  0  0  0  0  0  0  0  0  0
   44.4770   36.1850   44.4630 C   0  0  0  0  0  0  0  0  0  0  0  0
   45.2010   35.7290   43.3650 C   0  0  0  0  0  0  0  0  0  0  0  0
   45.9480   34.5550   43.4640 C   0  0  0  0  0  0  0  0  0  0  0  0
   45.9130   33.9180   44.6680 N   0  0  0  0  0  0  0  0  0  0  0  0
   45.2190   34.3530   45.7240 C   0  0  0  0  0  0  0  0  0  0  0  0
   44.5000   35.4890   45.6170 N   0  0  0  0  0  0  0  0  0  0  0  0
   45.3060   33.5520   46.8940 N   0  0  0  0  0  0  0  0  0  0  0  0
   45.1910   32.2350   41.8240 N   0  0  0  0  0  0  0  0  0  0  0  0
   44.2400   32.5480   40.9460 C   0  0  0  0  0  0  0  0  0  0  0  0
   42.9560   32.0520   41.0190 C   0  0  0  0  0  0  0  0  0  0  0  0
   42.6060   31.1830   42.0440 C   0  0  0  0  0  0  0  0  0  0  0  0
   41.4360   30.6930   42.1620 O   0  0  0  0  0  0  0  0  0  0  0  0
   43.5700   30.8730   42.9220 N   0  0  0  0  0  0  0  0  0  0  0  0
   44.7800   31.3800   42.7980 C   0  0  0  0  0  0  0  0  0  0  0  0
   45.6390   31.0290   43.6830 O   0  0  0  0  0  0  0  0  0  0  0  0
   41.9020   32.4070   40.0310 C   0  0  0  0  0  0  0  0  0  0  0  0
   41.3330   33.7440   40.2610 C   0  0  0  0  0  0  0  0  0  0  0  0
   40.3750   34.3600   39.4840 C   0  0  0  0  0  0  0  0  0  0  0  0
   39.9790   35.6210   39.8780 C   0  0  0  0  0  0  0  0  0  0  0  0
   40.4570   36.2920   40.9590 C   0  0  0  0  0  0  0  0  0  0  0  0
   41.4210   35.6120   41.6990 C   0  0  0  0  0  0  0  0  0  0  0  0
   41.8290   34.3810   41.3420 N   0  0  0  0  0  0  0  0  0  0  0  0
   47.7707   35.7472   41.7179 H   0  0  0  0  0  0  0  0  0  0  0  0
   48.7994   34.3782   41.9785 H   0  0  0  0  0  0  0  0  0  0  0  0
   48.2545   34.3607   39.5408 H   0  0  0  0  0  0  0  0  0  0  0  0
   46.5729   34.6905   39.7980 H   0  0  0  0  0  0  0  0  0  0  0  0
   46.6143   32.2519   39.7241 H   0  0  0  0  0  0  0  0  0  0  0  0
   48.1727   32.1366   40.5113 H   0  0  0  0  0  0  0  0  0  0  0  0
   46.9993   31.9239   42.4520 H   0  0  0  0  0  0  0  0  0  0  0  0
   43.8877   37.1109   44.3891 H   0  0  0  0  0  0  0  0  0  0  0  0
   45.1841   36.2934   42.4210 H   0  0  0  0  0  0  0  0  0  0  0  0
   44.7965   33.8274   47.7458 H   0  0  0  0  0  0  0  0  0  0  0  0
   45.8785   32.6958   46.8906 H   0  0  0  0  0  0  0  0  0  0  0  0
   44.4908   33.2345   40.1240 H   0  0  0  0  0  0  0  0  0  0  0  0
   43.3630   30.2322   43.7014 H   0  0  0  0  0  0  0  0  0  0  0  0
   41.0932   31.6645   40.0977 H   0  0  0  0  0  0  0  0  0  0  0  0
   42.3694   32.4125   39.0352 H   0  0  0  0  0  0  0  0  0  0  0  0
   39.9486   33.8710   38.5957 H   0  0  0  0  0  0  0  0  0  0  0  0
   39.2145   36.1244   39.2680 H   0  0  0  0  0  0  0  0  0  0  0  0
   40.1077   37.2993   41.2298 H   0  0  0  0  0  0  0  0  0  0  0  0
   41.8557   36.0892   42.5897 H   0  0  0  0  0  0  0  0  0  0  0  0
  1  8  1  0
  2  1  1  0
  3  4  1  0
  3  2  1  0
  4  5  1  0
  5 13  1  0
  5  1  1  0
  6 11  2  0
  7  8  2  0
  7  6  1  0
  8  9  1  0
  9 10  2  0
 10 12  1  0
 11 10  1  0
 13 19  1  0
 14 15  2  0
 14 13  1  0
 15 16  1  0
 16 17  2  0
 16 18  1  0
 19 18  1  0
 19 20  2  0
 21 22  1  0
 21 15  1  0
 22 27  2  0
 23 24  2  0
 23 22  1  0
 24 25  1  0
 25 26  2  0
 27 26  1  0
  2 28  1  0
  2 29  1  0
  3 30  1  0
  3 31  1  0
  4 32  1  0
  4 33  1  0
  5 34  1  1
  6 35  1  0
  7 36  1  0
 12 37  1  0
 12 38  1  0
 14 39  1  0
 18 40  1  0
 21 41  1  0
 21 42  1  0
 23 43  1  0
 24 44  1  0
 25 45  1  0
 26 46  1  0
M  ISO  8  28  13  29  13  30  13  31  13  32  13  33  13  34  13  35  14
M  ISO  8  36  14  39  14  40   9  41   8  42   8  43  14  44  14  45  14
M  ISO  1  46  14
M  END
>  <minimizedAffinity>  (1) 
-6.72095394

>  <minimizedRMSD>  (1) 
1.89934158

$$$$
