
     RDKit          3D

 33 35  0  0  0  0  0  0  0  0999 V2000
   45.2220   33.8990   41.5810 N   0  0  0  0  0  0  0  0  0  0  0  0
   46.2870   33.8230   40.8090 C   0  0  0  0  0  0  0  0  0  0  0  0
   45.8820   33.4210   39.5370 C   0  0  0  0  0  0  0  0  0  0  0  0
   44.5520   33.2570   39.5550 N   0  0  0  0  0  0  0  0  0  0  0  0
   44.1320   33.5510   40.8200 C   0  0  0  0  0  0  0  0  0  0  0  0
   44.5900   35.5680   43.1850 C   0  0  0  0  0  0  0  0  0  0  0  0
   45.1070   34.2550   42.9160 C   0  0  0  0  0  0  0  0  0  0  0  0
   45.4310   33.4820   44.0080 C   0  0  0  0  0  0  0  0  0  0  0  0
   45.2590   33.9690   45.2610 N   0  0  0  0  0  0  0  0  0  0  0  0
   44.7670   35.2230   45.4760 C   0  0  0  0  0  0  0  0  0  0  0  0
   44.4300   36.0250   44.4280 N   0  0  0  0  0  0  0  0  0  0  0  0
   47.7190   34.0740   41.0760 C   0  0  0  0  0  0  0  0  0  0  0  0
   47.9170   35.3790   41.8420 C   0  0  0  0  0  0  0  0  0  0  0  0
   49.3900   35.6470   42.0070 C   0  0  0  0  0  0  0  0  0  0  0  0
   50.1940   34.4840   42.4720 C   0  0  0  0  0  0  0  0  0  0  0  0
   49.7910   33.1540   41.9300 C   0  0  0  0  0  0  0  0  0  0  0  0
   48.3060   33.0000   41.9930 C   0  0  0  0  0  0  0  0  0  0  0  0
   46.5399   33.2654   38.6692 H   0  0  0  0  0  0  0  0  0  0  0  0
   43.0907   33.5152   41.1728 H   0  0  0  0  0  0  0  0  0  0  0  0
   44.3175   36.2169   42.3396 H   0  0  0  0  0  0  0  0  0  0  0  0
   45.8302   32.4673   43.8634 H   0  0  0  0  0  0  0  0  0  0  0  0
   44.6413   35.5899   46.5054 H   0  0  0  0  0  0  0  0  0  0  0  0
   48.2064   34.0921   40.0900 H   0  0  0  0  0  0  0  0  0  0  0  0
   47.4544   36.2058   41.2831 H   0  0  0  0  0  0  0  0  0  0  0  0
   47.4464   35.2971   42.8329 H   0  0  0  0  0  0  0  0  0  0  0  0
   49.7889   35.9701   41.0341 H   0  0  0  0  0  0  0  0  0  0  0  0
   49.4765   36.4132   42.7916 H   0  0  0  0  0  0  0  0  0  0  0  0
   51.2408   34.6617   42.1847 H   0  0  0  0  0  0  0  0  0  0  0  0
   50.0302   34.4245   43.5581 H   0  0  0  0  0  0  0  0  0  0  0  0
   50.2643   32.3600   42.5262 H   0  0  0  0  0  0  0  0  0  0  0  0
   50.1155   33.0802   40.8816 H   0  0  0  0  0  0  0  0  0  0  0  0
   47.9522   33.1460   43.0243 H   0  0  0  0  0  0  0  0  0  0  0  0
   47.9966   31.9933   41.6756 H   0  0  0  0  0  0  0  0  0  0  0  0
  1  7  1  0
  2 12  1  0
  2  1  1  0
  3  4  1  0
  3  2  2  0
  4  5  2  0
  5  1  1  0
  6 11  2  0
  7  6  1  0
  7  8  2  0
  8  9  1  0
  9 10  2  0
 11 10  1  0
 12 13  1  0
 12 17  1  0
 13 14  1  0
 14 15  1  0
 16 17  1  0
 16 15  1  0
  3 18  1  0
  5 19  1  0
  6 20  1  0
  8 21  1  0
 10 22  1  0
 12 23  1  0
 13 24  1  0
 13 25  1  0
 14 26  1  0
 14 27  1  0
 15 28  1  0
 15 29  1  0
 16 30  1  0
 16 31  1  0
 17 32  1  0
 17 33  1  0
M  ISO  8  18  14  19  14  20  14  21  14  22  14  23  13  24  13  25  13
M  ISO  8  26  13  27  13  28  13  29  13  30  13  31  13  32  13  33  13
M  END
>  <minimizedAffinity>  (1) 
-5.14212275

>  <minimizedRMSD>  (1) 
2.67425823

$$$$
