
     RDKit          3D

 39 41  0  0  1  0  0  0  0  0999 V2000
   46.2820   33.9600   42.2940 N   0  0  0  0  0  0  0  0  0  0  0  0
   47.6100   34.2130   41.7260 C   0  0  0  0  0  0  0  0  0  0  0  0
   47.2370   34.2900   40.2540 C   0  0  0  0  0  0  0  0  0  0  0  0
   46.4220   33.0370   40.1040 C   0  0  0  0  0  0  0  0  0  0  0  0
   45.6320   33.0130   41.3730 C   0  0  2  0  0  0  0  0  0  0  0  0
   44.5230   36.1650   44.7010 C   0  0  0  0  0  0  0  0  0  0  0  0
   45.0730   35.7280   43.4970 C   0  0  0  0  0  0  0  0  0  0  0  0
   45.7010   34.4780   43.4530 C   0  0  0  0  0  0  0  0  0  0  0  0
   45.7240   33.7740   44.6120 N   0  0  0  0  0  0  0  0  0  0  0  0
   45.1960   34.1970   45.7620 C   0  0  0  0  0  0  0  0  0  0  0  0
   44.5940   35.4010   45.7930 N   0  0  0  0  0  0  0  0  0  0  0  0
   45.3190   33.3230   46.8740 N   0  0  0  0  0  0  0  0  0  0  0  0
   44.2340   33.1930   41.2510 N   0  0  0  0  0  0  0  0  0  0  0  0
   43.5960   34.1090   40.5170 C   0  0  0  0  0  0  0  0  0  0  0  0
   42.2170   34.2090   40.4610 C   0  0  0  0  0  0  0  0  0  0  0  0
   41.4380   33.3320   41.1860 C   0  0  0  0  0  0  0  0  0  0  0  0
   40.1690   33.3900   41.1610 O   0  0  0  0  0  0  0  0  0  0  0  0
   42.0810   32.4170   41.9160 N   0  0  0  0  0  0  0  0  0  0  0  0
   43.4020   32.3610   41.9400 C   0  0  0  0  0  0  0  0  0  0  0  0
   43.9190   31.4480   42.6700 O   0  0  0  0  0  0  0  0  0  0  0  0
   41.5420   35.2470   39.6410 C   0  0  0  0  0  0  0  0  0  0  0  0
   40.7260   36.0890   40.5200 N   0  0  0  0  0  0  0  0  0  0  0  0
   48.0403   35.1572   42.0911 H   0  0  0  0  0  0  0  0  0  0  0  0
   48.3788   33.4677   41.9778 H   0  0  0  0  0  0  0  0  0  0  0  0
   46.6421   35.1886   40.0336 H   0  0  0  0  0  0  0  0  0  0  0  0
   48.0955   34.3594   39.5698 H   0  0  0  0  0  0  0  0  0  0  0  0
   45.7622   33.0944   39.2257 H   0  0  0  0  0  0  0  0  0  0  0  0
   47.0300   32.1337   39.9481 H   0  0  0  0  0  0  0  0  0  0  0  0
   45.6557   31.9896   41.7757 H   0  0  0  0  0  0  0  0  0  0  0  0
   44.0273   37.1457   44.7514 H   0  0  0  0  0  0  0  0  0  0  0  0
   45.0144   36.3557   42.5956 H   0  0  0  0  0  0  0  0  0  0  0  0
   44.9308   33.5952   47.7884 H   0  0  0  0  0  0  0  0  0  0  0  0
   45.7964   32.4167   46.7664 H   0  0  0  0  0  0  0  0  0  0  0  0
   44.1963   34.8184   39.9284 H   0  0  0  0  0  0  0  0  0  0  0  0
   41.5371   31.7414   42.4715 H   0  0  0  0  0  0  0  0  0  0  0  0
   42.2969   35.8655   39.1336 H   0  0  0  0  0  0  0  0  0  0  0  0
   40.9027   34.7676   38.8850 H   0  0  0  0  0  0  0  0  0  0  0  0
   40.9402   35.8680   41.5029 H   0  0  0  0  0  0  0  0  0  0  0  0
   40.9361   37.0807   40.3374 H   0  0  0  0  0  0  0  0  0  0  0  0
  1  8  1  0
  2  1  1  0
  3  2  1  0
  4  3  1  0
  4  5  1  0
  5  1  1  0
  6 11  2  0
  7  6  1  0
  8  7  2  0
  8  9  1  0
  9 10  2  0
 10 11  1  0
 10 12  1  0
 13  5  1  0
 13 19  1  0
 14 13  1  0
 15 14  2  0
 15 16  1  0
 16 18  1  0
 17 16  2  0
 18 19  1  0
 19 20  2  0
 21 15  1  0
 21 22  1  0
  2 23  1  0
  2 24  1  0
  3 25  1  0
  3 26  1  0
  4 27  1  0
  4 28  1  0
  5 29  1  1
  6 30  1  0
  7 31  1  0
 12 32  1  0
 12 33  1  0
 14 34  1  0
 18 35  1  0
 21 36  1  0
 21 37  1  0
 22 38  1  0
 22 39  1  0
M  ISO  8  23  13  24  13  25  13  26  13  27  13  28  13  29  13  30  14
M  ISO  7  31  14  34  14  35   9  36   8  37   8  38   5  39   5
M  END
>  <minimizedAffinity>  (1) 
-5.91380644

>  <minimizedRMSD>  (1) 
0.237248972

$$$$
