
     RDKit          3D

 28 31  0  0  0  0  0  0  0  0999 V2000
   45.4170   34.0750   41.7630 N   0  0  0  0  0  0  0  0  0  0  0  0
   46.5280   34.0580   41.0590 C   0  0  0  0  0  0  0  0  0  0  0  0
   46.2480   33.6880   39.7470 C   0  0  0  0  0  0  0  0  0  0  0  0
   44.9330   33.4830   39.6820 N   0  0  0  0  0  0  0  0  0  0  0  0
   44.4120   33.7170   40.9090 C   0  0  0  0  0  0  0  0  0  0  0  0
   47.8560   34.3540   41.4700 N   0  0  0  0  0  0  0  0  0  0  0  0
   48.5120   35.5270   41.7070 C   0  0  0  0  0  0  0  0  0  0  0  0
   49.7850   35.2490   42.0850 N   0  0  0  0  0  0  0  0  0  0  0  0
   49.9670   33.9170   42.0990 C   0  0  0  0  0  0  0  0  0  0  0  0
   51.0640   33.1140   42.4080 C   0  0  0  0  0  0  0  0  0  0  0  0
   50.9550   31.7670   42.3320 N   0  0  0  0  0  0  0  0  0  0  0  0
   49.7850   31.2480   41.9600 C   0  0  0  0  0  0  0  0  0  0  0  0
   48.7120   32.0000   41.6560 N   0  0  0  0  0  0  0  0  0  0  0  0
   48.7650   33.3620   41.7160 C   0  0  0  0  0  0  0  0  0  0  0  0
   44.6460   35.6720   43.3650 C   0  0  0  0  0  0  0  0  0  0  0  0
   45.2140   34.3830   43.1060 C   0  0  0  0  0  0  0  0  0  0  0  0
   45.5030   33.5760   44.1990 C   0  0  0  0  0  0  0  0  0  0  0  0
   45.2310   34.0510   45.4460 N   0  0  0  0  0  0  0  0  0  0  0  0
   44.6900   35.2820   45.6490 C   0  0  0  0  0  0  0  0  0  0  0  0
   44.3970   36.0980   44.5970 N   0  0  0  0  0  0  0  0  0  0  0  0
   46.9710   33.5849   38.9244 H   0  0  0  0  0  0  0  0  0  0  0  0
   43.3484   33.6324   41.1764 H   0  0  0  0  0  0  0  0  0  0  0  0
   48.0793   36.5335   41.6078 H   0  0  0  0  0  0  0  0  0  0  0  0
   52.0156   33.5739   42.7128 H   0  0  0  0  0  0  0  0  0  0  0  0
   49.6926   30.1536   41.8988 H   0  0  0  0  0  0  0  0  0  0  0  0
   44.4086   36.3298   42.5159 H   0  0  0  0  0  0  0  0  0  0  0  0
   45.9413   32.5766   44.0606 H   0  0  0  0  0  0  0  0  0  0  0  0
   44.4863   35.6235   46.6746 H   0  0  0  0  0  0  0  0  0  0  0  0
  1 16  1  0
  2  6  1  0
  2  1  1  0
  3  2  2  0
  4  3  1  0
  4  5  2  0
  5  1  1  0
  6  7  1  0
  6 14  1  0
  7  8  2  0
  8  9  1  0
  9 10  2  0
 11 10  1  0
 12 11  2  0
 13 14  2  0
 13 12  1  0
 14  9  1  0
 15 20  2  0
 16 15  1  0
 16 17  2  0
 17 18  1  0
 18 19  2  0
 20 19  1  0
  3 21  1  0
  5 22  1  0
  7 23  1  0
 10 24  1  0
 12 25  1  0
 15 26  1  0
 17 27  1  0
 19 28  1  0
M  ISO  8  21  14  22  14  23  14  24  14  25  14  26  14  27  14  28  14
M  END
>  <minimizedAffinity>  (1) 
-4.95574331

>  <minimizedRMSD>  (1) 
2.95018911

$$$$
