
     RDKit          3D

 26 28  0  0  0  0  0  0  0  0999 V2000
   45.6360   34.0310   41.5210 N   0  0  0  0  0  0  0  0  0  0  0  0
   46.8250   33.7250   40.9910 C   0  0  0  0  0  0  0  0  0  0  0  0
   46.5530   33.3630   39.6420 C   0  0  0  0  0  0  0  0  0  0  0  0
   45.2470   33.4660   39.4100 N   0  0  0  0  0  0  0  0  0  0  0  0
   44.6520   33.8810   40.5630 C   0  0  0  0  0  0  0  0  0  0  0  0
   44.8970   35.7870   42.9690 C   0  0  0  0  0  0  0  0  0  0  0  0
   45.3450   34.4210   42.8310 C   0  0  0  0  0  0  0  0  0  0  0  0
   45.4480   33.6190   43.9790 C   0  0  0  0  0  0  0  0  0  0  0  0
   45.1230   34.1640   45.1860 N   0  0  0  0  0  0  0  0  0  0  0  0
   44.7020   35.4670   45.2810 C   0  0  0  0  0  0  0  0  0  0  0  0
   44.5860   36.2790   44.1830 N   0  0  0  0  0  0  0  0  0  0  0  0
   48.1800   33.7540   41.4790 C   0  0  0  0  0  0  0  0  0  0  0  0
   49.0040   32.6690   41.2970 C   0  0  0  0  0  0  0  0  0  0  0  0
   50.3080   32.5930   41.7210 C   0  0  0  0  0  0  0  0  0  0  0  0
   50.8680   33.6580   42.3780 C   0  0  0  0  0  0  0  0  0  0  0  0
   50.0570   34.7510   42.5680 C   0  0  0  0  0  0  0  0  0  0  0  0
   48.8290   34.7110   42.1200 N   0  0  0  0  0  0  0  0  0  0  0  0
   47.3060   33.0469   38.9050 H   0  0  0  0  0  0  0  0  0  0  0  0
   43.5769   34.0645   40.7061 H   0  0  0  0  0  0  0  0  0  0  0  0
   44.8096   36.4277   42.0791 H   0  0  0  0  0  0  0  0  0  0  0  0
   45.7835   32.5739   43.9063 H   0  0  0  0  0  0  0  0  0  0  0  0
   44.4493   35.8731   46.2716 H   0  0  0  0  0  0  0  0  0  0  0  0
   48.5878   31.7963   40.7725 H   0  0  0  0  0  0  0  0  0  0  0  0
   50.8989   31.6841   41.5348 H   0  0  0  0  0  0  0  0  0  0  0  0
   51.9088   33.6387   42.7334 H   0  0  0  0  0  0  0  0  0  0  0  0
   50.4342   35.6440   43.0879 H   0  0  0  0  0  0  0  0  0  0  0  0
  1  7  1  0
  2 12  1  0
  2  1  1  0
  3  2  2  0
  4  3  1  0
  4  5  2  0
  5  1  1  0
  6 11  2  0
  7  6  1  0
  7  8  2  0
  8  9  1  0
  9 10  2  0
 11 10  1  0
 12 17  1  0
 13 12  2  0
 13 14  1  0
 14 15  2  0
 15 16  1  0
 17 16  2  0
  3 18  1  0
  5 19  1  0
  6 20  1  0
  8 21  1  0
 10 22  1  0
 13 23  1  0
 14 24  1  0
 15 25  1  0
 16 26  1  0
M  ISO  8  18  14  19  14  20  14  21  14  22  14  23  14  24  14  25  14
M  ISO  1  26  14
M  END
>  <minimizedAffinity>  (1) 
-4.65428782

>  <minimizedRMSD>  (1) 
3.04430604

$$$$
