
     RDKit          3D

 23 25  0  0  0  0  0  0  0  0999 V2000
   44.1020   33.8950   41.5430 N   0  0  0  0  0  0  0  0  0  0  0  0
   44.8720   33.8410   40.4570 C   0  0  0  0  0  0  0  0  0  0  0  0
   44.0320   33.5760   39.3680 C   0  0  0  0  0  0  0  0  0  0  0  0
   42.7840   33.4750   39.8080 N   0  0  0  0  0  0  0  0  0  0  0  0
   42.8110   33.6710   41.1590 C   0  0  0  0  0  0  0  0  0  0  0  0
   44.1680   35.4330   43.3770 C   0  0  0  0  0  0  0  0  0  0  0  0
   44.4740   34.1310   42.8630 C   0  0  0  0  0  0  0  0  0  0  0  0
   45.1110   33.2320   43.7300 C   0  0  0  0  0  0  0  0  0  0  0  0
   45.4010   33.6380   44.9980 N   0  0  0  0  0  0  0  0  0  0  0  0
   45.0870   34.8900   45.4340 C   0  0  0  0  0  0  0  0  0  0  0  0
   44.4680   35.7890   44.6200 N   0  0  0  0  0  0  0  0  0  0  0  0
   46.2780   34.0100   40.3310 N   0  0  0  0  0  0  0  0  0  0  0  0
   46.9170   33.4160   39.2790 C   0  0  0  0  0  0  0  0  0  0  0  0
   48.2570   33.6780   39.3050 N   0  0  0  0  0  0  0  0  0  0  0  0
   48.4130   34.4520   40.4070 C   0  0  0  0  0  0  0  0  0  0  0  0
   47.2430   34.6490   41.0160 N   0  0  0  0  0  0  0  0  0  0  0  0
   44.3534   33.4693   38.3214 H   0  0  0  0  0  0  0  0  0  0  0  0
   41.9375   33.6516   41.8273 H   0  0  0  0  0  0  0  0  0  0  0  0
   43.6685   36.1607   42.7205 H   0  0  0  0  0  0  0  0  0  0  0  0
   45.3718   32.2179   43.3929 H   0  0  0  0  0  0  0  0  0  0  0  0
   45.3387   35.1805   46.4647 H   0  0  0  0  0  0  0  0  0  0  0  0
   46.4173   32.8065   38.5117 H   0  0  0  0  0  0  0  0  0  0  0  0
   49.3738   34.8618   40.7519 H   0  0  0  0  0  0  0  0  0  0  0  0
  1  7  1  0
  2  1  1  0
  3  4  1  0
  3  2  2  0
  4  5  2  0
  5  1  1  0
  6 11  2  0
  7  6  1  0
  7  8  2  0
  8  9  1  0
  9 10  2  0
 11 10  1  0
 12  2  1  0
 12 16  1  0
 13 14  2  0
 13 12  1  0
 14 15  1  0
 15 16  2  0
  3 17  1  0
  5 18  1  0
  6 19  1  0
  8 20  1  0
 10 21  1  0
 13 22  1  0
 15 23  1  0
M  ISO  7  17  14  18  14  19  14  20  14  21  14  22  14  23  14
M  END
>  <minimizedAffinity>  (1) 
-3.89790726

>  <minimizedRMSD>  (1) 
1.91869187

$$$$
