
     RDKit          3D

 26 28  0  0  1  0  0  0  0  0999 V2000
   45.7820   34.0040   42.2700 N   0  0  0  0  0  0  0  0  0  0  0  0
   46.7870   34.4860   41.5790 C   0  0  0  0  0  0  0  0  0  0  0  0
   46.6820   34.0370   40.2560 C   0  0  0  0  0  0  0  0  0  0  0  0
   45.5930   33.2800   40.1890 N   0  0  0  0  0  0  0  0  0  0  0  0
   45.0280   33.2480   41.4180 C   0  0  0  0  0  0  0  0  0  0  0  0
   44.7500   35.4000   43.9000 C   0  0  0  0  0  0  0  0  0  0  0  0
   45.4770   34.1870   43.6110 C   0  0  0  0  0  0  0  0  0  0  0  0
   45.7640   33.3910   44.6860 C   0  0  0  0  0  0  0  0  0  0  0  0
   45.3610   33.7740   45.9250 N   0  0  0  0  0  0  0  0  0  0  0  0
   44.6890   34.9050   46.1530 C   0  0  0  0  0  0  0  0  0  0  0  0
   44.3730   35.7380   45.1340 N   0  0  0  0  0  0  0  0  0  0  0  0
   47.9360   35.3660   41.9200 C   0  0  2  0  0  0  0  0  0  0  0  0
   48.9910   35.6030   40.8830 C   0  0  0  0  0  0  0  0  0  0  0  0
   49.3120   34.7180   42.0240 C   0  0  1  0  0  0  0  0  0  0  0  0
   50.2250   35.1340   43.0440 N   0  0  0  0  0  0  0  0  0  0  0  0
   47.3707   34.2677   39.4299 H   0  0  0  0  0  0  0  0  0  0  0  0
   44.1115   32.7025   41.6870 H   0  0  0  0  0  0  0  0  0  0  0  0
   44.4964   36.0736   43.0681 H   0  0  0  0  0  0  0  0  0  0  0  0
   46.3160   32.4496   44.5481 H   0  0  0  0  0  0  0  0  0  0  0  0
   44.3891   35.1625   47.1795 H   0  0  0  0  0  0  0  0  0  0  0  0
   47.3119   36.0085   42.5585 H   0  0  0  0  0  0  0  0  0  0  0  0
   48.8728   35.1746   39.8767 H   0  0  0  0  0  0  0  0  0  0  0  0
   49.4573   36.5016   40.4527 H   0  0  0  0  0  0  0  0  0  0  0  0
   49.6889   33.6893   42.1231 H   0  0  0  0  0  0  0  0  0  0  0  0
   49.8141   34.9468   43.9697 H   0  0  0  0  0  0  0  0  0  0  0  0
   51.1078   34.6121   42.9483 H   0  0  0  0  0  0  0  0  0  0  0  0
  1  7  1  0
  2 12  1  0
  2  1  1  0
  3  2  2  0
  4  3  1  0
  4  5  2  0
  5  1  1  0
  6 11  2  0
  7  6  1  0
  7  8  2  0
  8  9  1  0
  9 10  2  0
 11 10  1  0
 12 14  1  0
 13 12  1  0
 13 14  1  0
 14 15  1  0
  3 16  1  0
  5 17  1  0
  6 18  1  0
  8 19  1  0
 10 20  1  0
 12 21  1  1
 13 22  1  0
 13 23  1  0
 14 24  1  6
 15 25  1  0
 15 26  1  0
M  ISO  8  16  14  17  14  18  14  19  14  20  14  21  13  22  13  23  13
M  ISO  3  24  13  25   5  26   5
M  END
>  <minimizedAffinity>  (1) 
-5.15935755

>  <minimizedRMSD>  (1) 
0.394484013

$$$$
