
     RDKit          3D

 36 38  0  0  1  0  0  0  0  0999 V2000
   45.5540   34.5660   41.8130 N   0  0  0  0  0  0  0  0  0  0  0  0
   44.4060   35.1570   42.0010 C   0  0  0  0  0  0  0  0  0  0  0  0
   44.2830   35.4790   43.3690 C   0  0  0  0  0  0  0  0  0  0  0  0
   45.3880   35.0600   43.9710 N   0  0  0  0  0  0  0  0  0  0  0  0
   46.1870   34.4940   43.0340 C   0  0  0  0  0  0  0  0  0  0  0  0
   47.4720   34.4440   40.4120 C   0  0  0  0  0  0  0  0  0  0  0  0
   46.1040   34.0750   40.6370 C   0  0  0  0  0  0  0  0  0  0  0  0
   45.5210   33.2960   39.6770 C   0  0  0  0  0  0  0  0  0  0  0  0
   46.2330   32.9170   38.5930 N   0  0  0  0  0  0  0  0  0  0  0  0
   47.5230   33.2800   38.4080 C   0  0  0  0  0  0  0  0  0  0  0  0
   48.1440   34.0500   39.3280 N   0  0  0  0  0  0  0  0  0  0  0  0
   43.2850   35.5320   41.1060 C   0  0  2  0  0  0  0  0  0  0  0  0
   41.8880   35.5270   41.6610 C   0  0  0  0  0  0  0  0  0  0  0  0
   42.2980   34.4570   40.7170 C   0  0  1  0  0  0  0  0  0  0  0  0
   41.6640   34.4220   39.3770 C   0  0  0  0  0  0  0  0  0  0  0  0
   41.8190   33.0530   38.7030 C   0  0  0  0  0  0  0  0  0  0  0  0
   42.1590   35.4270   38.3840 C   0  0  0  0  0  0  0  0  0  0  0  0
   40.1730   34.6280   39.5580 C   0  0  0  0  0  0  0  0  0  0  0  0
   43.4302   35.9832   43.8469 H   0  0  0  0  0  0  0  0  0  0  0  0
   47.1767   34.0507   43.2181 H   0  0  0  0  0  0  0  0  0  0  0  0
   47.9835   35.0717   41.1566 H   0  0  0  0  0  0  0  0  0  0  0  0
   44.4737   32.9781   39.7868 H   0  0  0  0  0  0  0  0  0  0  0  0
   48.0653   32.9488   37.5101 H   0  0  0  0  0  0  0  0  0  0  0  0
   43.9078   36.2612   40.5672 H   0  0  0  0  0  0  0  0  0  0  0  0
   41.7205   35.2876   42.7215 H   0  0  0  0  0  0  0  0  0  0  0  0
   41.0658   36.2570   41.6930 H   0  0  0  0  0  0  0  0  0  0  0  0
   42.3372   33.3577   40.7250 H   0  0  0  0  0  0  0  0  0  0  0  0
   41.9073   32.2729   39.4735 H   0  0  0  0  0  0  0  0  0  0  0  0
   40.9380   32.8511   38.0761 H   0  0  0  0  0  0  0  0  0  0  0  0
   42.7229   33.0532   38.0761 H   0  0  0  0  0  0  0  0  0  0  0  0
   42.5842   36.2903   38.9169 H   0  0  0  0  0  0  0  0  0  0  0  0
   42.9340   34.9677   37.7527 H   0  0  0  0  0  0  0  0  0  0  0  0
   41.3225   35.7614   37.7527 H   0  0  0  0  0  0  0  0  0  0  0  0
   39.9350   34.6609   40.6314 H   0  0  0  0  0  0  0  0  0  0  0  0
   39.8740   35.5760   39.0869 H   0  0  0  0  0  0  0  0  0  0  0  0
   39.6281   33.7966   39.0869 H   0  0  0  0  0  0  0  0  0  0  0  0
  1  2  1  0
  1  5  1  0
  2  3  2  0
  3  4  1  0
  5  4  2  0
  6  7  2  0
  7  1  1  0
  8  7  1  0
  9  8  2  0
 10  9  1  0
 10 11  2  0
 11  6  1  0
 12 13  1  0
 12  2  1  0
 14 12  1  0
 14 13  1  0
 15 18  1  0
 15 14  1  0
 16 15  1  0
 17 15  1  0
  3 19  1  0
  5 20  1  0
  6 21  1  0
  8 22  1  0
 10 23  1  0
 12 24  1  6
 13 25  1  0
 13 26  1  0
 14 27  1  1
 16 28  1  0
 16 29  1  0
 16 30  1  0
 17 31  1  0
 17 32  1  0
 17 33  1  0
 18 34  1  0
 18 35  1  0
 18 36  1  0
M  ISO  8  19  14  20  14  21  14  22  14  23  14  24  13  25  13  26  13
M  ISO  8  27  13  28   8  29   8  30   8  31   8  32   8  33   8  34   8
M  ISO  2  35   8  36   8
M  END
>  <minimizedAffinity>  (1) 
-4.66552639

>  <minimizedRMSD>  (1) 
6.99673843

$$$$
