
     RDKit          3D

 27 29  0  0  1  0  0  0  0  0999 V2000
   44.9510   33.7370   41.7470 N   0  0  0  0  0  0  0  0  0  0  0  0
   45.8740   33.9480   40.8480 C   0  0  0  0  0  0  0  0  0  0  0  0
   45.4670   33.3380   39.6420 C   0  0  0  0  0  0  0  0  0  0  0  0
   44.2900   32.7730   39.8710 N   0  0  0  0  0  0  0  0  0  0  0  0
   43.9550   33.0070   41.1640 C   0  0  0  0  0  0  0  0  0  0  0  0
   44.3670   35.4390   43.3070 C   0  0  0  0  0  0  0  0  0  0  0  0
   44.9230   34.1500   43.0760 C   0  0  0  0  0  0  0  0  0  0  0  0
   45.3710   33.4580   44.1930 C   0  0  0  0  0  0  0  0  0  0  0  0
   45.2530   34.0390   45.4090 N   0  0  0  0  0  0  0  0  0  0  0  0
   44.7270   35.2480   45.5980 C   0  0  0  0  0  0  0  0  0  0  0  0
   44.2870   35.9420   44.5490 N   0  0  0  0  0  0  0  0  0  0  0  0
   47.1720   34.6590   40.8410 C   0  0  2  0  0  0  0  0  0  0  0  0
   48.2580   34.1840   39.9210 C   0  0  0  0  0  0  0  0  0  0  0  0
   48.3860   33.9330   41.3920 C   0  0  1  0  0  0  0  0  0  0  0  0
   49.4690   34.6880   42.0760 C   0  0  0  0  0  0  0  0  0  0  0  0
   49.0780   34.8010   43.4170 F   0  0  0  0  0  0  0  0  0  0  0  0
   49.5970   35.9850   41.6260 F   0  0  0  0  0  0  0  0  0  0  0  0
   50.6770   34.0590   42.0540 F   0  0  0  0  0  0  0  0  0  0  0  0
   46.0215   33.3325   38.6920 H   0  0  0  0  0  0  0  0  0  0  0  0
   43.0346   32.6658   41.6604 H   0  0  0  0  0  0  0  0  0  0  0  0
   43.9978   36.0312   42.4567 H   0  0  0  0  0  0  0  0  0  0  0  0
   45.8136   32.4561   44.0912 H   0  0  0  0  0  0  0  0  0  0  0  0
   44.6564   35.6700   46.6114 H   0  0  0  0  0  0  0  0  0  0  0  0
   46.6818   35.6260   41.0271 H   0  0  0  0  0  0  0  0  0  0  0  0
   48.0676   33.3441   39.2366 H   0  0  0  0  0  0  0  0  0  0  0  0
   48.8918   34.6640   39.1608 H   0  0  0  0  0  0  0  0  0  0  0  0
   48.5039   33.0653   42.0577 H   0  0  0  0  0  0  0  0  0  0  0  0
  1  7  1  0
  2  1  1  0
  3  4  1  0
  3  2  2  0
  4  5  2  0
  5  1  1  0
  6 11  2  0
  7  6  1  0
  7  8  2  0
  8  9  1  0
  9 10  2  0
 11 10  1  0
 12  2  1  0
 12 14  1  0
 13 12  1  0
 13 14  1  0
 14 15  1  0
 15 16  1  0
 17 15  1  0
 18 15  1  0
  3 19  1  0
  5 20  1  0
  6 21  1  0
  8 22  1  0
 10 23  1  0
 12 24  1  1
 13 25  1  0
 13 26  1  0
 14 27  1  6
M  ISO  8  19  14  20  14  21  14  22  14  23  14  24  13  25  13  26  13
M  ISO  1  27  13
M  END
>  <minimizedAffinity>  (1) 
-4.92294502

>  <minimizedRMSD>  (1) 
1.74669337

$$$$
