
     RDKit          3D

 35 36  0  0  0  0  0  0  0  0999 V2000
   46.7680   33.1220   38.8220 C   0  0  0  0  0  0  0  0  0  0  0  0
   46.5430   34.8710   42.0200 C   0  0  0  0  0  0  0  0  0  0  0  0
   47.7700   35.5060   42.1410 C   0  0  0  0  0  0  0  0  0  0  0  0
   48.7120   35.3350   41.1090 C   0  0  0  0  0  0  0  0  0  0  0  0
   48.3630   34.5610   40.0640 N   0  0  0  0  0  0  0  0  0  0  0  0
   47.1670   33.9510   39.9640 C   0  0  0  0  0  0  0  0  0  0  0  0
   46.2780   34.1170   40.9440 N   0  0  0  0  0  0  0  0  0  0  0  0
   45.5640   35.0430   43.0810 C   0  0  0  0  0  0  0  0  0  0  0  0
   45.1420   36.2110   43.3550 O   0  0  0  0  0  0  0  0  0  0  0  0
   45.1220   33.9030   43.7590 O   0  0  0  0  0  0  0  0  0  0  0  0
   45.7140   33.5790   44.9880 C   0  0  0  0  0  0  0  0  0  0  0  0
   45.4410   32.2860   45.4000 F   0  0  0  0  0  0  0  0  0  0  0  0
   47.0790   33.7190   44.9000 F   0  0  0  0  0  0  0  0  0  0  0  0
   45.1640   34.4380   45.9250 F   0  0  0  0  0  0  0  0  0  0  0  0
   47.2690   31.7050   38.9320 C   0  0  0  0  0  0  0  0  0  0  0  0
   45.2840   33.1110   38.6880 C   0  0  0  0  0  0  0  0  0  0  0  0
   47.3430   33.7480   37.5810 C   0  0  0  0  0  0  0  0  0  0  0  0
   47.3130   32.8880   36.3820 C   0  0  0  0  0  0  0  0  0  0  0  0
   48.5500   32.8120   35.7310 C   0  0  0  0  0  0  0  0  0  0  0  0
   48.4160   31.9920   34.6350 C   0  0  0  0  0  0  0  0  0  0  0  0
   47.1020   31.5900   34.6470 C   0  0  0  0  0  0  0  0  0  0  0  0
   46.5210   32.1350   35.6710 O   0  0  0  0  0  0  0  0  0  0  0  0
   48.0008   36.1264   43.0195 H   0  0  0  0  0  0  0  0  0  0  0  0
   49.6996   35.8173   41.1548 H   0  0  0  0  0  0  0  0  0  0  0  0
   47.3657   31.4316   39.9931 H   0  0  0  0  0  0  0  0  0  0  0  0
   46.5567   31.0251   38.4416 H   0  0  0  0  0  0  0  0  0  0  0  0
   48.2503   31.6239   38.4416 H   0  0  0  0  0  0  0  0  0  0  0  0
   44.8256   33.1076   39.6879 H   0  0  0  0  0  0  0  0  0  0  0  0
   44.9588   34.0068   38.1386 H   0  0  0  0  0  0  0  0  0  0  0  0
   44.9721   32.2105   38.1386 H   0  0  0  0  0  0  0  0  0  0  0  0
   46.7700   34.6609   37.3615 H   0  0  0  0  0  0  0  0  0  0  0  0
   48.4042   33.9421   37.7958 H   0  0  0  0  0  0  0  0  0  0  0  0
   49.4732   33.3220   36.0433 H   0  0  0  0  0  0  0  0  0  0  0  0
   49.1928   31.7173   33.9063 H   0  0  0  0  0  0  0  0  0  0  0  0
   46.6252   30.9216   33.9149 H   0  0  0  0  0  0  0  0  0  0  0  0
  1 15  1  0
  1  6  1  0
  2  3  2  0
  2  8  1  0
  4  3  1  0
  5  4  2  0
  6  5  1  0
  6  7  2  0
  7  2  1  0
  8  9  2  0
  8 10  1  0
 10 11  1  0
 11 12  1  0
 11 14  1  0
 13 11  1  0
 16  1  1  0
 17  1  1  0
 18 17  1  0
 19 18  2  0
 20 21  2  0
 20 19  1  0
 21 22  1  0
 22 18  1  0
  3 23  1  0
  4 24  1  0
 15 25  1  0
 15 26  1  0
 15 27  1  0
 16 28  1  0
 16 29  1  0
 16 30  1  0
 17 31  1  0
 17 32  1  0
 19 33  1  0
 20 34  1  0
 21 35  1  0
M  ISO  8  23  14  24  14  25   8  26   8  27   8  28   8  29   8  30   8
M  ISO  5  31   8  32   8  33  14  34  14  35  14
M  END
>  <minimizedAffinity>  (1) 
-4.54909229

>  <minimizedRMSD>  (1) 
2.09190392

$$$$
