
     RDKit          3D

 26 28  0  0  1  0  0  0  0  0999 V2000
   45.4200   34.0990   42.2490 N   0  0  0  0  0  0  0  0  0  0  0  0
   46.4480   34.3790   41.5000 C   0  0  0  0  0  0  0  0  0  0  0  0
   46.1740   34.0440   40.1700 C   0  0  0  0  0  0  0  0  0  0  0  0
   44.9280   33.5490   40.1560 N   0  0  0  0  0  0  0  0  0  0  0  0
   44.4520   33.5760   41.4200 C   0  0  0  0  0  0  0  0  0  0  0  0
   44.6160   35.4550   44.0290 C   0  0  0  0  0  0  0  0  0  0  0  0
   45.2470   34.2510   43.6130 C   0  0  0  0  0  0  0  0  0  0  0  0
   45.6170   33.3630   44.6170 C   0  0  0  0  0  0  0  0  0  0  0  0
   45.3610   33.6850   45.9060 N   0  0  0  0  0  0  0  0  0  0  0  0
   44.7620   34.8330   46.2570 C   0  0  0  0  0  0  0  0  0  0  0  0
   44.3930   35.7100   45.3260 N   0  0  0  0  0  0  0  0  0  0  0  0
   47.7630   34.9800   41.7730 C   0  0  2  0  0  0  0  0  0  0  0  0
   48.6870   35.2870   40.6170 C   0  0  0  0  0  0  0  0  0  0  0  0
   49.0180   34.1530   41.5360 C   0  0  1  0  0  0  0  0  0  0  0  0
   50.1580   34.4210   42.4560 C   0  0  0  0  0  0  0  0  0  0  0  0
   51.1340   33.6580   42.4700 O   0  0  0  0  0  0  0  0  0  0  0  0
   46.8465   34.1629   39.3076 H   0  0  0  0  0  0  0  0  0  0  0  0
   43.4546   33.2360   41.7356 H   0  0  0  0  0  0  0  0  0  0  0  0
   44.3050   36.1908   43.2728 H   0  0  0  0  0  0  0  0  0  0  0  0
   46.1107   32.4124   44.3669 H   0  0  0  0  0  0  0  0  0  0  0  0
   44.5749   35.0506   47.3189 H   0  0  0  0  0  0  0  0  0  0  0  0
   47.3491   35.5514   42.6170 H   0  0  0  0  0  0  0  0  0  0  0  0
   49.2987   36.2011   40.6324 H   0  0  0  0  0  0  0  0  0  0  0  0
   48.5575   35.3883   39.5294 H   0  0  0  0  0  0  0  0  0  0  0  0
   49.2215   33.0782   41.4203 H   0  0  0  0  0  0  0  0  0  0  0  0
   50.1335   35.2957   43.1226 H   0  0  0  0  0  0  0  0  0  0  0  0
  1  7  1  0
  2 12  1  0
  2  1  1  0
  3  2  2  0
  4  3  1  0
  4  5  2  0
  5  1  1  0
  6 11  2  0
  7  6  1  0
  7  8  2  0
  8  9  1  0
  9 10  2  0
 11 10  1  0
 13 14  1  0
 13 12  1  0
 14 12  1  0
 14 15  1  0
 15 16  2  0
  3 17  1  0
  5 18  1  0
  6 19  1  0
  8 20  1  0
 10 21  1  0
 12 22  1  1
 13 23  1  0
 13 24  1  0
 14 25  1  6
 15 26  1  0
M  ISO  8  17  14  18  14  19  14  20  14  21  14  22  13  23  13  24  13
M  ISO  2  25  13  26   6
M  END
>  <minimizedAffinity>  (1) 
-4.46916628

>  <minimizedRMSD>  (1) 
0.915205479

$$$$
