
     RDKit          3D

 27 29  0  0  1  0  0  0  0  0999 V2000
   46.0480   34.0250   42.3150 N   0  0  0  0  0  0  0  0  0  0  0  0
   47.0120   34.6020   41.6580 C   0  0  0  0  0  0  0  0  0  0  0  0
   47.0400   34.1070   40.3450 C   0  0  0  0  0  0  0  0  0  0  0  0
   46.0490   33.2110   40.2570 N   0  0  0  0  0  0  0  0  0  0  0  0
   45.4370   33.1530   41.4510 C   0  0  0  0  0  0  0  0  0  0  0  0
   44.8590   35.3500   43.8990 C   0  0  0  0  0  0  0  0  0  0  0  0
   45.6550   34.2010   43.6380 C   0  0  0  0  0  0  0  0  0  0  0  0
   45.9500   33.3820   44.7220 C   0  0  0  0  0  0  0  0  0  0  0  0
   45.4700   33.7250   45.9430 N   0  0  0  0  0  0  0  0  0  0  0  0
   44.7250   34.8160   46.1460 C   0  0  0  0  0  0  0  0  0  0  0  0
   44.4170   35.6280   45.1350 N   0  0  0  0  0  0  0  0  0  0  0  0
   48.0180   35.6430   42.0160 C   0  0  2  0  0  0  0  0  0  0  0  0
   49.1970   35.8380   41.0910 C   0  0  0  0  0  0  0  0  0  0  0  0
   49.4140   35.1830   42.4110 C   0  0  2  0  0  0  0  0  0  0  0  0
   49.5810   33.6990   42.5200 C   0  0  0  0  0  0  0  0  0  0  0  0
   47.7381   34.3977   39.5462 H   0  0  0  0  0  0  0  0  0  0  0  0
   44.5807   32.5078   41.6970 H   0  0  0  0  0  0  0  0  0  0  0  0
   44.6001   36.0252   43.0701 H   0  0  0  0  0  0  0  0  0  0  0  0
   46.5595   32.4755   44.5921 H   0  0  0  0  0  0  0  0  0  0  0  0
   44.3621   35.0462   47.1586 H   0  0  0  0  0  0  0  0  0  0  0  0
   47.2518   36.2956   42.4599 H   0  0  0  0  0  0  0  0  0  0  0  0
   49.2717   35.2456   40.1672 H   0  0  0  0  0  0  0  0  0  0  0  0
   49.6398   36.7035   40.5764 H   0  0  0  0  0  0  0  0  0  0  0  0
   50.1330   35.3713   43.2219 H   0  0  0  0  0  0  0  0  0  0  0  0
   49.6135   33.4106   43.5810 H   0  0  0  0  0  0  0  0  0  0  0  0
   48.7336   33.1976   42.0295 H   0  0  0  0  0  0  0  0  0  0  0  0
   50.5186   33.3985   42.0295 H   0  0  0  0  0  0  0  0  0  0  0  0
  1  7  1  0
  2 12  1  0
  2  1  1  0
  3  2  2  0
  4  3  1  0
  4  5  2  0
  5  1  1  0
  6 11  2  0
  7  6  1  0
  7  8  2  0
  8  9  1  0
  9 10  2  0
 11 10  1  0
 12 14  1  0
 13 12  1  0
 13 14  1  0
 14 15  1  0
  3 16  1  0
  5 17  1  0
  6 18  1  0
  8 19  1  0
 10 20  1  0
 12 21  1  1
 13 22  1  0
 13 23  1  0
 14 24  1  1
 15 25  1  0
 15 26  1  0
 15 27  1  0
M  ISO  8  16  14  17  14  18  14  19  14  20  14  21  13  22  13  23  13
M  ISO  4  24  13  25   8  26   8  27   8
M  END
>  <minimizedAffinity>  (1) 
-4.54981995

>  <minimizedRMSD>  (1) 
0.316353023

$$$$
