
     RDKit          3D

 31 34  0  0  1  0  0  0  0  0999 V2000
   45.7040   34.0190   42.2470 N   0  0  0  0  0  0  0  0  0  0  0  0
   46.6870   34.5050   41.5390 C   0  0  0  0  0  0  0  0  0  0  0  0
   46.5420   34.0600   40.2080 C   0  0  0  0  0  0  0  0  0  0  0  0
   45.4490   33.3040   40.1670 N   0  0  0  0  0  0  0  0  0  0  0  0
   44.9180   33.2660   41.4110 C   0  0  0  0  0  0  0  0  0  0  0  0
   44.7280   35.3980   43.9350 C   0  0  0  0  0  0  0  0  0  0  0  0
   45.4340   34.1880   43.5950 C   0  0  0  0  0  0  0  0  0  0  0  0
   45.7430   33.3670   44.6450 C   0  0  0  0  0  0  0  0  0  0  0  0
   45.3870   33.7120   45.9010 N   0  0  0  0  0  0  0  0  0  0  0  0
   44.7350   34.8370   46.1900 C   0  0  0  0  0  0  0  0  0  0  0  0
   44.4000   35.6930   45.1970 N   0  0  0  0  0  0  0  0  0  0  0  0
   47.8400   35.3810   41.8390 C   0  0  2  0  0  0  0  0  0  0  0  0
   48.9250   35.5340   40.8110 C   0  0  0  0  0  0  0  0  0  0  0  0
   49.2010   34.7190   42.0330 C   0  0  2  0  0  0  0  0  0  0  0  0
   49.2970   33.2860   41.9470 N   0  0  0  0  0  0  0  0  0  0  0  0
   48.9140   32.6210   43.0470 N   0  0  0  0  0  0  0  0  0  0  0  0
   49.0530   31.2920   42.8350 C   0  0  0  0  0  0  0  0  0  0  0  0
   49.5380   31.0900   41.5680 C   0  0  0  0  0  0  0  0  0  0  0  0
   49.6700   32.3680   41.0630 C   0  0  0  0  0  0  0  0  0  0  0  0
   47.2073   34.2942   39.3639 H   0  0  0  0  0  0  0  0  0  0  0  0
   44.0078   32.7221   41.7036 H   0  0  0  0  0  0  0  0  0  0  0  0
   44.4513   36.0985   43.1333 H   0  0  0  0  0  0  0  0  0  0  0  0
   46.2820   32.4250   44.4658 H   0  0  0  0  0  0  0  0  0  0  0  0
   44.4699   35.0693   47.2320 H   0  0  0  0  0  0  0  0  0  0  0  0
   47.2108   36.0780   42.4120 H   0  0  0  0  0  0  0  0  0  0  0  0
   48.8263   35.0382   39.8341 H   0  0  0  0  0  0  0  0  0  0  0  0
   49.4159   36.3933   40.3307 H   0  0  0  0  0  0  0  0  0  0  0  0
   49.9808   34.7320   42.8087 H   0  0  0  0  0  0  0  0  0  0  0  0
   48.8154   30.5010   43.5616 H   0  0  0  0  0  0  0  0  0  0  0  0
   49.7675   30.1355   41.0717 H   0  0  0  0  0  0  0  0  0  0  0  0
   50.0389   32.5977   40.0525 H   0  0  0  0  0  0  0  0  0  0  0  0
  1  7  1  0
  2 12  1  0
  2  1  1  0
  3  2  2  0
  4  3  1  0
  4  5  2  0
  5  1  1  0
  6 11  2  0
  7  6  1  0
  7  8  2  0
  8  9  1  0
  9 10  2  0
 11 10  1  0
 12 14  1  0
 13 12  1  0
 13 14  1  0
 15 14  1  0
 15 16  1  0
 17 16  2  0
 18 17  1  0
 19 18  2  0
 19 15  1  0
  3 20  1  0
  5 21  1  0
  6 22  1  0
  8 23  1  0
 10 24  1  0
 12 25  1  1
 13 26  1  0
 13 27  1  0
 14 28  1  1
 17 29  1  0
 18 30  1  0
 19 31  1  0
M  ISO  8  20  14  21  14  22  14  23  14  24  14  25  13  26  13  27  13
M  ISO  4  28  13  29  14  30  14  31  14
M  END
>  <minimizedAffinity>  (1) 
-4.58935404

>  <minimizedRMSD>  (1) 
0.65496403

$$$$
