
     RDKit          3D

 36 37  0  0  0  0  0  0  0  0999 V2000
   45.2050   32.2540   37.8970 C   0  0  0  0  0  0  0  0  0  0  0  0
   45.3690   34.3030   40.9190 C   0  0  0  0  0  0  0  0  0  0  0  0
   46.7230   34.5440   41.0840 C   0  0  0  0  0  0  0  0  0  0  0  0
   47.6350   34.0020   40.1530 C   0  0  0  0  0  0  0  0  0  0  0  0
   47.1200   33.2660   39.1310 N   0  0  0  0  0  0  0  0  0  0  0  0
   45.7770   33.0510   39.0010 C   0  0  0  0  0  0  0  0  0  0  0  0
   44.9470   33.5700   39.8890 N   0  0  0  0  0  0  0  0  0  0  0  0
   44.4570   34.8650   41.8820 C   0  0  0  0  0  0  0  0  0  0  0  0
   43.6630   35.7940   41.5300 O   0  0  0  0  0  0  0  0  0  0  0  0
   44.4880   34.3490   43.2020 O   0  0  0  0  0  0  0  0  0  0  0  0
   45.0650   35.1240   44.2080 C   0  0  0  0  0  0  0  0  0  0  0  0
   44.1760   35.4540   45.2210 F   0  0  0  0  0  0  0  0  0  0  0  0
   46.1250   34.4370   44.7810 F   0  0  0  0  0  0  0  0  0  0  0  0
   45.4910   36.3000   43.6150 F   0  0  0  0  0  0  0  0  0  0  0  0
   45.7910   30.8970   37.7760 C   0  0  0  0  0  0  0  0  0  0  0  0
   43.7210   32.1710   38.0710 C   0  0  0  0  0  0  0  0  0  0  0  0
   45.4810   33.0410   36.6190 C   0  0  0  0  0  0  0  0  0  0  0  0
   45.8370   32.1790   35.4820 C   0  0  0  0  0  0  0  0  0  0  0  0
   47.1280   31.9770   35.0370 C   0  0  0  0  0  0  0  0  0  0  0  0
   47.4900   31.1740   33.9740 C   0  0  0  0  0  0  0  0  0  0  0  0
   46.4470   30.5560   33.3550 N   0  0  0  0  0  0  0  0  0  0  0  0
   45.1730   30.7220   33.7550 C   0  0  0  0  0  0  0  0  0  0  0  0
   44.8490   31.5220   34.8080 N   0  0  0  0  0  0  0  0  0  0  0  0
   47.0826   35.1495   41.9290 H   0  0  0  0  0  0  0  0  0  0  0  0
   48.7181   34.1679   40.2497 H   0  0  0  0  0  0  0  0  0  0  0  0
   45.9694   30.4838   38.7797 H   0  0  0  0  0  0  0  0  0  0  0  0
   45.0946   30.2443   37.2293 H   0  0  0  0  0  0  0  0  0  0  0  0
   46.7437   30.9564   37.2293 H   0  0  0  0  0  0  0  0  0  0  0  0
   43.4778   32.1574   39.1437 H   0  0  0  0  0  0  0  0  0  0  0  0
   43.2470   33.0440   37.5986 H   0  0  0  0  0  0  0  0  0  0  0  0
   43.3473   31.2506   37.5986 H   0  0  0  0  0  0  0  0  0  0  0  0
   44.5785   33.6127   36.3570 H   0  0  0  0  0  0  0  0  0  0  0  0
   46.3399   33.6995   36.8157 H   0  0  0  0  0  0  0  0  0  0  0  0
   47.9344   32.4986   35.5733 H   0  0  0  0  0  0  0  0  0  0  0  0
   48.5344   31.0444   33.6539 H   0  0  0  0  0  0  0  0  0  0  0  0
   44.3708   30.1966   33.2161 H   0  0  0  0  0  0  0  0  0  0  0  0
  1 16  1  0
  1  6  1  0
  2  3  2  0
  2  8  1  0
  4  3  1  0
  5  4  2  0
  6  5  1  0
  6  7  2  0
  7  2  1  0
  8 10  1  0
  9  8  2  0
 10 11  1  0
 11 13  1  0
 11 12  1  0
 14 11  1  0
 15  1  1  0
 17  1  1  0
 18 17  1  0
 19 18  2  0
 20 19  1  0
 21 22  1  0
 21 20  2  0
 22 23  2  0
 23 18  1  0
  3 24  1  0
  4 25  1  0
 15 26  1  0
 15 27  1  0
 15 28  1  0
 16 29  1  0
 16 30  1  0
 16 31  1  0
 17 32  1  0
 17 33  1  0
 19 34  1  0
 20 35  1  0
 22 36  1  0
M  ISO  8  24  14  25  14  26   8  27   8  28   8  29   8  30   8  31   8
M  ISO  5  32   8  33   8  34  14  35  14  36  14
M  END
>  <minimizedAffinity>  (1) 
-4.46084499

>  <minimizedRMSD>  (1) 
3.07432151

$$$$
