
     RDKit          3D

 27 28  0  0  0  0  0  0  0  0999 V2000
   48.0200   34.7600   42.2390 C   0  0  0  0  0  0  0  0  0  0  0  0
   47.3660   34.5780   41.0120 C   0  0  0  0  0  0  0  0  0  0  0  0
   46.1600   33.8730   41.0220 C   0  0  0  0  0  0  0  0  0  0  0  0
   45.6930   33.4050   42.2240 N   0  0  0  0  0  0  0  0  0  0  0  0
   46.3640   33.6100   43.3710 C   0  0  0  0  0  0  0  0  0  0  0  0
   47.5150   34.2810   43.3860 N   0  0  0  0  0  0  0  0  0  0  0  0
   49.2860   35.4970   42.2360 C   0  0  0  0  0  0  0  0  0  0  0  0
   49.4370   36.4610   41.4420 O   0  0  0  0  0  0  0  0  0  0  0  0
   50.2860   35.1100   43.1150 O   0  0  0  0  0  0  0  0  0  0  0  0
   45.7610   33.0110   44.9250 S   0  0  0  0  0  0  0  0  0  0  0  0
   47.0290   32.1710   45.8850 C   0  0  0  0  0  0  0  0  0  0  0  0
   46.7210   30.7020   46.0920 C   0  0  0  0  0  0  0  0  0  0  0  0
   47.3430   30.3350   47.4210 C   0  0  0  0  0  0  0  0  0  0  0  0
   47.6600   31.6020   48.1520 C   0  0  0  0  0  0  0  0  0  0  0  0
   46.9840   32.6660   47.3180 C   0  0  0  0  0  0  0  0  0  0  0  0
   47.7868   34.9755   40.0766 H   0  0  0  0  0  0  0  0  0  0  0  0
   45.6001   33.6979   40.0915 H   0  0  0  0  0  0  0  0  0  0  0  0
   51.1487   35.5955   43.1281 H   0  0  0  0  0  0  0  0  0  0  0  0
   47.9667   32.3471   45.3375 H   0  0  0  0  0  0  0  0  0  0  0  0
   45.6336   30.5386   46.1197 H   0  0  0  0  0  0  0  0  0  0  0  0
   47.1201   30.0849   45.2735 H   0  0  0  0  0  0  0  0  0  0  0  0
   46.6360   29.7319   48.0096 H   0  0  0  0  0  0  0  0  0  0  0  0
   48.2590   29.7467   47.2634 H   0  0  0  0  0  0  0  0  0  0  0  0
   47.2490   31.5813   49.1721 H   0  0  0  0  0  0  0  0  0  0  0  0
   48.7405   31.7709   48.2700 H   0  0  0  0  0  0  0  0  0  0  0  0
   47.5222   33.6210   47.4088 H   0  0  0  0  0  0  0  0  0  0  0  0
   45.9498   32.8395   47.6503 H   0  0  0  0  0  0  0  0  0  0  0  0
  1  6  2  0
  2  3  2  0
  2  1  1  0
  3  4  1  0
  4  5  2  0
  5  6  1  0
  5 10  1  0
  7  1  1  0
  7  9  1  0
  8  7  2  0
 10 11  1  0
 11 12  1  0
 11 15  1  0
 12 13  1  0
 13 14  1  0
 15 14  1  0
  2 16  1  0
  3 17  1  0
  9 18  1  0
 11 19  1  0
 12 20  1  0
 12 21  1  0
 13 22  1  0
 13 23  1  0
 14 24  1  0
 14 25  1  0
 15 26  1  0
 15 27  1  0
M  ISO  8  16  14  17  14  18   3  19  13  20  13  21  13  22  13  23  13
M  ISO  4  24  13  25  13  26  13  27  13
M  END
>  <minimizedAffinity>  (1) 
-4.63728857

>  <minimizedRMSD>  (1) 
1.89179265

$$$$
