
     RDKit          3D

 17 17  0  0  0  0  0  0  0  0999 V2000
   48.0680   34.7760   42.1720 C   0  0  0  0  0  0  0  0  0  0  0  0
   47.4590   34.5920   40.9340 C   0  0  0  0  0  0  0  0  0  0  0  0
   46.2650   33.8570   40.9060 C   0  0  0  0  0  0  0  0  0  0  0  0
   45.7820   33.3750   42.0990 N   0  0  0  0  0  0  0  0  0  0  0  0
   46.4170   33.5870   43.2610 C   0  0  0  0  0  0  0  0  0  0  0  0
   47.5480   34.2820   43.2930 N   0  0  0  0  0  0  0  0  0  0  0  0
   49.3180   35.5420   42.2010 C   0  0  0  0  0  0  0  0  0  0  0  0
   49.4670   36.5250   41.4400 O   0  0  0  0  0  0  0  0  0  0  0  0
   50.3260   35.1690   43.0700 O   0  0  0  0  0  0  0  0  0  0  0  0
   45.8040   32.9760   44.8050 S   0  0  0  0  0  0  0  0  0  0  0  0
   45.1270   34.3900   45.7140 C   0  0  0  0  0  0  0  0  0  0  0  0
   47.8969   35.0067   40.0141 H   0  0  0  0  0  0  0  0  0  0  0  0
   45.7330   33.6725   39.9611 H   0  0  0  0  0  0  0  0  0  0  0  0
   51.1727   35.6814   43.0951 H   0  0  0  0  0  0  0  0  0  0  0  0
   45.2147   34.2069   46.7951 H   0  0  0  0  0  0  0  0  0  0  0  0
   45.6878   35.2986   45.4493 H   0  0  0  0  0  0  0  0  0  0  0  0
   44.0676   34.5229   45.4493 H   0  0  0  0  0  0  0  0  0  0  0  0
  1  7  1  0
  1  6  2  0
  2  1  1  0
  3  2  2  0
  3  4  1  0
  4  5  2  0
  5  6  1  0
  5 10  1  0
  7  9  1  0
  8  7  2  0
 10 11  1  0
  2 12  1  0
  3 13  1  0
  9 14  1  0
 11 15  1  0
 11 16  1  0
 11 17  1  0
M  ISO  6  12  14  13  14  14   3  15   8  16   8  17   8
M  END
>  <minimizedAffinity>  (1) 
-3.84668827

>  <minimizedRMSD>  (1) 
0.186070442

$$$$
