
     RDKit          3D

 39 42  0  0  0  0  0  0  0  0999 V2000
   46.1880   30.4010   49.1470 N   0  0  0  0  0  0  0  0  0  0  0  0
   45.3290   31.4040   49.4470 C   0  0  0  0  0  0  0  0  0  0  0  0
   45.2510   32.2290   48.3750 N   0  0  0  0  0  0  0  0  0  0  0  0
   46.0690   31.7000   47.4500 C   0  0  0  0  0  0  0  0  0  0  0  0
   46.3120   32.2030   46.1840 C   0  0  0  0  0  0  0  0  0  0  0  0
   47.1910   31.5010   45.3930 N   0  0  0  0  0  0  0  0  0  0  0  0
   47.7840   30.3790   45.8250 C   0  0  0  0  0  0  0  0  0  0  0  0
   47.5200   29.9260   47.0610 N   0  0  0  0  0  0  0  0  0  0  0  0
   46.6800   30.5450   47.8980 C   0  0  0  0  0  0  0  0  0  0  0  0
   48.6930   29.6530   45.0060 N   0  0  0  0  0  0  0  0  0  0  0  0
   49.5610   28.6560   45.5490 C   0  0  0  0  0  0  0  0  0  0  0  0
   50.9990   28.8570   45.1320 C   0  0  0  0  0  0  0  0  0  0  0  0
   51.1620   29.2560   43.7760 N   0  0  0  0  0  0  0  0  0  0  0  0
   50.2250   30.2040   43.2720 C   0  0  0  0  0  0  0  0  0  0  0  0
   48.7800   29.8920   43.5790 C   0  0  0  0  0  0  0  0  0  0  0  0
   45.6380   33.6470   45.4350 S   0  0  0  0  0  0  0  0  0  0  0  0
   47.7930   34.6990   42.3450 C   0  0  0  0  0  0  0  0  0  0  0  0
   47.0790   34.3070   41.2100 C   0  0  0  0  0  0  0  0  0  0  0  0
   45.8610   33.6810   41.4270 C   0  0  0  0  0  0  0  0  0  0  0  0
   45.4320   33.4840   42.7070 N   0  0  0  0  0  0  0  0  0  0  0  0
   46.1810   33.8940   43.7710 C   0  0  0  0  0  0  0  0  0  0  0  0
   47.3450   34.4930   43.5850 N   0  0  0  0  0  0  0  0  0  0  0  0
   49.1010   35.3730   42.1430 C   0  0  0  0  0  0  0  0  0  0  0  0
   49.2410   36.1440   41.1630 O   0  0  0  0  0  0  0  0  0  0  0  0
   50.1160   35.1390   43.0230 O   0  0  0  0  0  0  0  0  0  0  0  0
   46.4332   29.6314   49.7861 H   0  0  0  0  0  0  0  0  0  0  0  0
   44.7881   31.5276   50.3968 H   0  0  0  0  0  0  0  0  0  0  0  0
   49.5024   28.6961   46.6467 H   0  0  0  0  0  0  0  0  0  0  0  0
   49.2330   27.6792   45.1639 H   0  0  0  0  0  0  0  0  0  0  0  0
   51.4397   29.6328   45.7754 H   0  0  0  0  0  0  0  0  0  0  0  0
   51.4982   27.8824   45.2373 H   0  0  0  0  0  0  0  0  0  0  0  0
   52.1023   29.6658   43.6819 H   0  0  0  0  0  0  0  0  0  0  0  0
   50.3401   30.2508   42.1790 H   0  0  0  0  0  0  0  0  0  0  0  0
   50.4490   31.1570   43.7737 H   0  0  0  0  0  0  0  0  0  0  0  0
   48.1418   30.7430   43.2987 H   0  0  0  0  0  0  0  0  0  0  0  0
   48.4386   29.0135   43.0119 H   0  0  0  0  0  0  0  0  0  0  0  0
   47.4638   34.4860   40.1952 H   0  0  0  0  0  0  0  0  0  0  0  0
   45.2478   33.3471   40.5770 H   0  0  0  0  0  0  0  0  0  0  0  0
   50.9919   35.5830   42.8978 H   0  0  0  0  0  0  0  0  0  0  0  0
  1  2  1  0
  3  2  2  0
  4  9  2  0
  4  3  1  0
  5  4  1  0
  6  7  1  0
  6  5  2  0
  7  8  2  0
  8  9  1  0
  9  1  1  0
 10 11  1  0
 10  7  1  0
 12 11  1  0
 13 12  1  0
 14 15  1  0
 14 13  1  0
 15 10  1  0
 16  5  1  0
 17 22  2  0
 18 19  2  0
 18 17  1  0
 19 20  1  0
 20 21  2  0
 21 16  1  0
 22 21  1  0
 23 17  1  0
 23 25  1  0
 24 23  2  0
  1 26  1  0
  2 27  1  0
 11 28  1  0
 11 29  1  0
 12 30  1  0
 12 31  1  0
 13 32  1  0
 14 33  1  0
 14 34  1  0
 15 35  1  0
 15 36  1  0
 18 37  1  0
 19 38  1  0
 25 39  1  0
M  ISO  8  26   9  27  14  28  13  29  13  30  13  31  13  32   5  33  13
M  ISO  6  34  13  35  13  36  13  37  14  38  14  39   3
M  END
>  <minimizedAffinity>  (1) 
-6.12896347

>  <minimizedRMSD>  (1) 
0.134207889

$$$$
