
     RDKit          3D

 34 37  0  0  0  0  0  0  0  0999 V2000
   46.1900   30.3610   49.0880 N   0  0  0  0  0  0  0  0  0  0  0  0
   45.3280   31.3790   49.4000 C   0  0  0  0  0  0  0  0  0  0  0  0
   45.2530   32.2130   48.3330 N   0  0  0  0  0  0  0  0  0  0  0  0
   46.0740   31.6810   47.3930 C   0  0  0  0  0  0  0  0  0  0  0  0
   46.3060   32.2040   46.1430 C   0  0  0  0  0  0  0  0  0  0  0  0
   47.1640   31.5200   45.3490 N   0  0  0  0  0  0  0  0  0  0  0  0
   47.7720   30.3750   45.7560 C   0  0  0  0  0  0  0  0  0  0  0  0
   47.5050   29.9170   46.9870 N   0  0  0  0  0  0  0  0  0  0  0  0
   46.6760   30.5250   47.8310 C   0  0  0  0  0  0  0  0  0  0  0  0
   48.6970   29.6540   44.8820 C   0  0  0  0  0  0  0  0  0  0  0  0
   49.0270   30.2390   43.6570 C   0  0  0  0  0  0  0  0  0  0  0  0
   49.9000   29.5350   42.8540 C   0  0  0  0  0  0  0  0  0  0  0  0
   50.3980   28.3360   43.2590 C   0  0  0  0  0  0  0  0  0  0  0  0
   50.0400   27.8000   44.4820 C   0  0  0  0  0  0  0  0  0  0  0  0
   49.1920   28.4670   45.2780 N   0  0  0  0  0  0  0  0  0  0  0  0
   45.6360   33.6560   45.4140 S   0  0  0  0  0  0  0  0  0  0  0  0
   47.7830   34.7350   42.3330 C   0  0  0  0  0  0  0  0  0  0  0  0
   47.0750   34.3770   41.1950 C   0  0  0  0  0  0  0  0  0  0  0  0
   45.8480   33.7600   41.4030 C   0  0  0  0  0  0  0  0  0  0  0  0
   45.4170   33.5440   42.6820 N   0  0  0  0  0  0  0  0  0  0  0  0
   46.1610   33.9190   43.7390 C   0  0  0  0  0  0  0  0  0  0  0  0
   47.3360   34.5110   43.5590 N   0  0  0  0  0  0  0  0  0  0  0  0
   49.0920   35.3940   42.1350 C   0  0  0  0  0  0  0  0  0  0  0  0
   49.2610   36.1720   41.1660 O   0  0  0  0  0  0  0  0  0  0  0  0
   50.1150   35.1430   43.0220 O   0  0  0  0  0  0  0  0  0  0  0  0
   46.4344   29.5828   49.7169 H   0  0  0  0  0  0  0  0  0  0  0  0
   44.7896   31.4993   50.3517 H   0  0  0  0  0  0  0  0  0  0  0  0
   48.6123   31.2102   43.3490 H   0  0  0  0  0  0  0  0  0  0  0  0
   50.1959   29.9468   41.8779 H   0  0  0  0  0  0  0  0  0  0  0  0
   51.0929   27.7870   42.6066 H   0  0  0  0  0  0  0  0  0  0  0  0
   50.4493   26.8300   44.8008 H   0  0  0  0  0  0  0  0  0  0  0  0
   47.4636   34.5709   40.1844 H   0  0  0  0  0  0  0  0  0  0  0  0
   45.2300   33.4487   40.5479 H   0  0  0  0  0  0  0  0  0  0  0  0
   50.9952   35.5790   42.8986 H   0  0  0  0  0  0  0  0  0  0  0  0
  1  2  1  0
  3  2  2  0
  4  9  2  0
  4  3  1  0
  5  4  1  0
  6  7  1  0
  6  5  2  0
  7  8  2  0
  8  9  1  0
  9  1  1  0
 10 15  1  0
 10  7  1  0
 11 10  2  0
 12 13  2  0
 12 11  1  0
 13 14  1  0
 14 15  2  0
 16  5  1  0
 17 22  2  0
 18 19  2  0
 18 17  1  0
 19 20  1  0
 20 21  2  0
 21 16  1  0
 22 21  1  0
 23 17  1  0
 23 25  1  0
 24 23  2  0
  1 26  1  0
  2 27  1  0
 11 28  1  0
 12 29  1  0
 13 30  1  0
 14 31  1  0
 18 32  1  0
 19 33  1  0
 25 34  1  0
M  ISO  8  26   9  27  14  28  14  29  14  30  14  31  14  32  14  33  14
M  ISO  1  34   3
M  END
>  <minimizedAffinity>  (1) 
-5.79250336

>  <minimizedRMSD>  (1) 
0.229661122

$$$$
