
     RDKit          3D

 35 38  0  0  0  0  0  0  0  0999 V2000
   46.1680   30.3750   49.1370 N   0  0  0  0  0  0  0  0  0  0  0  0
   45.3010   31.3850   49.4320 C   0  0  0  0  0  0  0  0  0  0  0  0
   45.2310   32.2160   48.3740 N   0  0  0  0  0  0  0  0  0  0  0  0
   46.0590   31.6970   47.4470 C   0  0  0  0  0  0  0  0  0  0  0  0
   46.3130   32.2110   46.1910 C   0  0  0  0  0  0  0  0  0  0  0  0
   47.1920   31.5210   45.4050 N   0  0  0  0  0  0  0  0  0  0  0  0
   47.7860   30.3960   45.8280 C   0  0  0  0  0  0  0  0  0  0  0  0
   47.5070   29.9330   47.0600 N   0  0  0  0  0  0  0  0  0  0  0  0
   46.6610   30.5450   47.8900 C   0  0  0  0  0  0  0  0  0  0  0  0
   48.7220   29.6790   44.9680 C   0  0  0  0  0  0  0  0  0  0  0  0
   49.3490   28.5440   45.4360 C   0  0  0  0  0  0  0  0  0  0  0  0
   50.2130   27.9410   44.5450 C   0  0  0  0  0  0  0  0  0  0  0  0
   50.4880   28.3670   43.2790 C   0  0  0  0  0  0  0  0  0  0  0  0
   49.8400   29.5210   42.8270 C   0  0  0  0  0  0  0  0  0  0  0  0
   48.9740   30.1400   43.6940 C   0  0  0  0  0  0  0  0  0  0  0  0
   45.6360   33.6670   45.4590 S   0  0  0  0  0  0  0  0  0  0  0  0
   47.7610   34.7030   42.3440 C   0  0  0  0  0  0  0  0  0  0  0  0
   47.0570   34.3270   41.2160 C   0  0  0  0  0  0  0  0  0  0  0  0
   45.8320   33.7060   41.4300 C   0  0  0  0  0  0  0  0  0  0  0  0
   45.4080   33.5100   42.7120 N   0  0  0  0  0  0  0  0  0  0  0  0
   46.1460   33.9010   43.7690 C   0  0  0  0  0  0  0  0  0  0  0  0
   47.3210   34.4970   43.5870 N   0  0  0  0  0  0  0  0  0  0  0  0
   49.0710   35.3680   42.1400 C   0  0  0  0  0  0  0  0  0  0  0  0
   49.2350   36.1360   41.1640 O   0  0  0  0  0  0  0  0  0  0  0  0
   50.1000   35.1310   43.0330 O   0  0  0  0  0  0  0  0  0  0  0  0
   46.4108   29.5991   49.7693 H   0  0  0  0  0  0  0  0  0  0  0  0
   44.7502   31.5019   50.3769 H   0  0  0  0  0  0  0  0  0  0  0  0
   49.1732   28.1476   46.4469 H   0  0  0  0  0  0  0  0  0  0  0  0
   50.7282   27.0316   44.8879 H   0  0  0  0  0  0  0  0  0  0  0  0
   51.1947   27.8220   42.6359 H   0  0  0  0  0  0  0  0  0  0  0  0
   50.0173   29.9172   41.8163 H   0  0  0  0  0  0  0  0  0  0  0  0
   48.4556   31.0490   43.3549 H   0  0  0  0  0  0  0  0  0  0  0  0
   47.4452   34.5093   40.2030 H   0  0  0  0  0  0  0  0  0  0  0  0
   45.2150   33.3782   40.5804 H   0  0  0  0  0  0  0  0  0  0  0  0
   50.9778   35.5705   42.9048 H   0  0  0  0  0  0  0  0  0  0  0  0
  1  2  1  0
  3  2  2  0
  4  9  2  0
  4  3  1  0
  5  4  1  0
  6  7  1  0
  6  5  2  0
  7  8  2  0
  8  9  1  0
  9  1  1  0
 10 11  2  0
 10  7  1  0
 12 11  1  0
 13 12  2  0
 14 13  1  0
 14 15  2  0
 15 10  1  0
 16  5  1  0
 17 22  2  0
 18 19  2  0
 18 17  1  0
 19 20  1  0
 20 21  2  0
 21 16  1  0
 22 21  1  0
 23 17  1  0
 23 25  1  0
 24 23  2  0
  1 26  1  0
  2 27  1  0
 11 28  1  0
 12 29  1  0
 13 30  1  0
 14 31  1  0
 15 32  1  0
 18 33  1  0
 19 34  1  0
 25 35  1  0
M  ISO  8  26   9  27  14  28  14  29  14  30  14  31  14  32  14  33  14
M  ISO  2  34  14  35   3
M  END
>  <minimizedAffinity>  (1) 
-5.8485117

>  <minimizedRMSD>  (1) 
0.156745106

$$$$
