
     RDKit          3D

 26 27  0  0  0  0  0  0  0  0999 V2000
   43.6500   34.0810   41.2380 C   0  0  0  0  0  0  0  0  0  0  0  0
   44.6640   33.7170   40.4100 C   0  0  0  0  0  0  0  0  0  0  0  0
   45.9490   33.1800   41.5840 S   0  0  0  0  0  0  0  0  0  0  0  0
   44.8150   33.5710   43.0520 C   0  0  0  0  0  0  0  0  0  0  0  0
   43.8550   33.9600   42.5090 N   0  0  0  0  0  0  0  0  0  0  0  0
   45.3430   33.3220   44.3750 N   0  0  0  0  0  0  0  0  0  0  0  0
   46.7060   33.3760   44.6790 C   0  0  0  0  0  0  0  0  0  0  0  0
   47.4340   34.1180   43.9020 N   0  0  0  0  0  0  0  0  0  0  0  0
   47.1130   32.5970   45.8160 N   0  0  0  0  0  0  0  0  0  0  0  0
   48.4470   34.1720   44.1500 H   0  0  0  0  0  0  0  0  0  0  0  0
   39.9870   34.9960   40.7400 C   0  0  0  0  0  0  0  0  0  0  0  0
   41.1620   34.5070   41.3410 C   0  0  0  0  0  0  0  0  0  0  0  0
   42.3810   34.5850   40.6650 C   0  0  0  0  0  0  0  0  0  0  0  0
   42.2990   35.1530   39.4430 N   0  0  0  0  0  0  0  0  0  0  0  0
   41.1950   35.6230   38.8540 C   0  0  0  0  0  0  0  0  0  0  0  0
   40.0480   35.5370   39.5170 N   0  0  0  0  0  0  0  0  0  0  0  0
   41.3870   36.2040   37.4920 C   0  0  0  0  0  0  0  0  0  0  0  0
   44.6998   33.7406   39.3108 H   0  0  0  0  0  0  0  0  0  0  0  0
   44.6817   33.0935   45.1309 H   0  0  0  0  0  0  0  0  0  0  0  0
   48.1017   32.5845   46.1045 H   0  0  0  0  0  0  0  0  0  0  0  0
   46.4160   32.0511   46.3424 H   0  0  0  0  0  0  0  0  0  0  0  0
   39.0258   34.9341   41.2712 H   0  0  0  0  0  0  0  0  0  0  0  0
   41.1197   34.0621   42.3461 H   0  0  0  0  0  0  0  0  0  0  0  0
   41.7310   37.2449   37.5826 H   0  0  0  0  0  0  0  0  0  0  0  0
   42.1385   35.6157   36.9450 H   0  0  0  0  0  0  0  0  0  0  0  0
   40.4329   36.1794   36.9450 H   0  0  0  0  0  0  0  0  0  0  0  0
  1  5  1  0
  2  1  2  0
  2  3  1  0
  3  4  1  0
  4  6  1  0
  5  4  2  0
  6  7  1  0
  7  9  1  0
  8 10  1  0
  8  7  2  0
 11 12  2  0
 13  1  1  0
 13 12  1  0
 14 13  2  0
 15 14  1  0
 15 16  2  0
 16 11  1  0
 17 15  1  0
  2 18  1  0
  6 19  1  0
  9 20  1  0
  9 21  1  0
 11 22  1  0
 12 23  1  0
 17 24  1  0
 17 25  1  0
 17 26  1  0
M  ISO  6  18  14  22  14  23  14  24   8  25   8  26   8
M  END
>  <minimizedAffinity>  (1) 
-4.83557034

>  <minimizedRMSD>  (1) 
0.555982232

$$$$
