
     RDKit          3D

 31 34  0  0  0  0  0  0  0  0999 V2000
   46.2040   30.3710   49.1100 N   0  0  0  0  0  0  0  0  0  0  0  0
   45.3340   31.3900   49.4180 C   0  0  0  0  0  0  0  0  0  0  0  0
   45.2600   32.2160   48.3480 N   0  0  0  0  0  0  0  0  0  0  0  0
   46.0850   31.6870   47.4070 C   0  0  0  0  0  0  0  0  0  0  0  0
   46.3130   32.2060   46.1490 C   0  0  0  0  0  0  0  0  0  0  0  0
   47.1840   31.5060   45.3550 N   0  0  0  0  0  0  0  0  0  0  0  0
   47.7720   30.3850   45.7880 C   0  0  0  0  0  0  0  0  0  0  0  0
   47.5200   29.9220   47.0130 N   0  0  0  0  0  0  0  0  0  0  0  0
   46.6880   30.5400   47.8470 C   0  0  0  0  0  0  0  0  0  0  0  0
   48.7080   29.5750   45.0170 C   0  0  0  0  0  0  0  0  0  0  0  0
   49.2760   28.2370   45.2930 C   0  0  0  0  0  0  0  0  0  0  0  0
   50.3600   27.9680   43.8140 S   0  0  0  0  0  0  0  0  0  0  0  0
   49.8570   29.6610   43.1240 C   0  0  0  0  0  0  0  0  0  0  0  0
   49.1330   30.0990   43.8830 N   0  0  0  0  0  0  0  0  0  0  0  0
   45.6340   33.6590   45.4200 S   0  0  0  0  0  0  0  0  0  0  0  0
   47.7960   34.7280   42.3310 C   0  0  0  0  0  0  0  0  0  0  0  0
   47.0820   34.3590   41.2030 C   0  0  0  0  0  0  0  0  0  0  0  0
   45.8550   33.7400   41.4110 C   0  0  0  0  0  0  0  0  0  0  0  0
   45.4220   33.5320   42.6910 N   0  0  0  0  0  0  0  0  0  0  0  0
   46.1710   33.9180   43.7450 C   0  0  0  0  0  0  0  0  0  0  0  0
   47.3410   34.5080   43.5620 N   0  0  0  0  0  0  0  0  0  0  0  0
   49.1090   35.3900   42.1330 C   0  0  0  0  0  0  0  0  0  0  0  0
   49.2520   36.1630   41.1540 O   0  0  0  0  0  0  0  0  0  0  0  0
   50.1310   35.1450   43.0180 O   0  0  0  0  0  0  0  0  0  0  0  0
   46.4531   29.5951   49.7400 H   0  0  0  0  0  0  0  0  0  0  0  0
   44.7927   31.5127   50.3677 H   0  0  0  0  0  0  0  0  0  0  0  0
   49.1005   27.5739   46.1529 H   0  0  0  0  0  0  0  0  0  0  0  0
   50.1953   30.1231   42.1848 H   0  0  0  0  0  0  0  0  0  0  0  0
   47.4678   34.5470   40.1902 H   0  0  0  0  0  0  0  0  0  0  0  0
   45.2400   33.4215   40.5564 H   0  0  0  0  0  0  0  0  0  0  0  0
   51.0100   35.5829   42.8926 H   0  0  0  0  0  0  0  0  0  0  0  0
  1  2  1  0
  3  2  2  0
  4  9  2  0
  4  3  1  0
  5  4  1  0
  6  7  1  0
  6  5  2  0
  7  8  2  0
  8  9  1  0
  9  1  1  0
 10 11  2  0
 10  7  1  0
 12 11  1  0
 13 12  1  0
 13 14  2  0
 14 10  1  0
 15  5  1  0
 16 21  2  0
 17 18  2  0
 17 16  1  0
 18 19  1  0
 19 20  2  0
 20 15  1  0
 21 20  1  0
 22 16  1  0
 22 24  1  0
 23 22  2  0
  1 25  1  0
  2 26  1  0
 11 27  1  0
 13 28  1  0
 17 29  1  0
 18 30  1  0
 24 31  1  0
M  ISO  7  25   9  26  14  27  14  28  14  29  14  30  14  31   3
M  END
>  <minimizedAffinity>  (1) 
-5.70593309

>  <minimizedRMSD>  (1) 
0.501886308

$$$$
