
     RDKit          3D

 26 28  0  0  0  0  0  0  0  0999 V2000
   45.6390   33.6590   45.4430 S   0  0  0  0  0  0  0  0  0  0  0  0
   46.1840   30.3710   49.1280 N   0  0  0  0  0  0  0  0  0  0  0  0
   45.3370   31.3960   49.4360 C   0  0  0  0  0  0  0  0  0  0  0  0
   45.2690   32.2210   48.3640 N   0  0  0  0  0  0  0  0  0  0  0  0
   46.0810   31.6750   47.4220 C   0  0  0  0  0  0  0  0  0  0  0  0
   46.3060   32.1980   46.1650 C   0  0  0  0  0  0  0  0  0  0  0  0
   47.1600   31.4900   45.3750 N   0  0  0  0  0  0  0  0  0  0  0  0
   47.7450   30.3570   45.7910 C   0  0  0  0  0  0  0  0  0  0  0  0
   47.4860   29.9030   47.0150 N   0  0  0  0  0  0  0  0  0  0  0  0
   46.6720   30.5190   47.8590 C   0  0  0  0  0  0  0  0  0  0  0  0
   48.8690   29.3970   44.7890 S   0  0  0  0  0  0  0  0  0  0  0  0
   47.7790   34.7120   42.3430 C   0  0  0  0  0  0  0  0  0  0  0  0
   47.0740   34.3380   41.2080 C   0  0  0  0  0  0  0  0  0  0  0  0
   45.8470   33.7160   41.4260 C   0  0  0  0  0  0  0  0  0  0  0  0
   45.4240   33.5150   42.7100 N   0  0  0  0  0  0  0  0  0  0  0  0
   46.1700   33.9090   43.7700 C   0  0  0  0  0  0  0  0  0  0  0  0
   47.3440   34.5060   43.5760 N   0  0  0  0  0  0  0  0  0  0  0  0
   49.0850   35.3750   42.1340 C   0  0  0  0  0  0  0  0  0  0  0  0
   49.2510   36.1490   41.1570 O   0  0  0  0  0  0  0  0  0  0  0  0
   50.1170   35.1410   43.0170 O   0  0  0  0  0  0  0  0  0  0  0  0
   46.4222   29.5951   49.7621 H   0  0  0  0  0  0  0  0  0  0  0  0
   44.8029   31.5288   50.3884 H   0  0  0  0  0  0  0  0  0  0  0  0
   49.7075   28.6808   45.6019 H   0  0  0  0  0  0  0  0  0  0  0  0
   47.4615   34.5220   40.1951 H   0  0  0  0  0  0  0  0  0  0  0  0
   45.2274   33.3913   40.5771 H   0  0  0  0  0  0  0  0  0  0  0  0
   50.9932   35.5818   42.8824 H   0  0  0  0  0  0  0  0  0  0  0  0
  1  6  1  0
  2  3  1  0
  4  3  2  0
  5 10  2  0
  5  4  1  0
  6  5  1  0
  7  8  1  0
  7  6  2  0
  8  9  2  0
  9 10  1  0
 10  2  1  0
 11  8  1  0
 12 17  2  0
 13 14  2  0
 13 12  1  0
 14 15  1  0
 15 16  2  0
 16  1  1  0
 17 16  1  0
 18 12  1  0
 18 20  1  0
 19 18  2  0
  2 21  1  0
  3 22  1  0
 11 23  1  0
 13 24  1  0
 14 25  1  0
 20 26  1  0
M  ISO  6  21   9  22  14  23  11  24  14  25  14  26   3
M  END
>  <minimizedAffinity>  (1) 
-5.70171595

>  <minimizedRMSD>  (1) 
0.0369013064

$$$$
