
     RDKit          3D

 17 18  0  0  0  0  0  0  0  0999 V2000
   44.5630   35.7780   44.7080 C   0  0  0  0  0  0  0  0  0  0  0  0
   45.2750   35.5980   43.4990 C   0  0  0  0  0  0  0  0  0  0  0  0
   46.1750   34.5180   43.4070 C   0  0  0  0  0  0  0  0  0  0  0  0
   46.3120   33.7010   44.4940 N   0  0  0  0  0  0  0  0  0  0  0  0
   45.6070   33.9070   45.6380 C   0  0  0  0  0  0  0  0  0  0  0  0
   44.7500   34.9310   45.7360 N   0  0  0  0  0  0  0  0  0  0  0  0
   45.8400   32.9740   46.7160 C   0  0  0  0  0  0  0  0  0  0  0  0
   45.1080   32.8410   47.8920 C   0  0  0  0  0  0  0  0  0  0  0  0
   45.5070   31.8810   48.7890 C   0  0  0  0  0  0  0  0  0  0  0  0
   46.6350   31.1060   48.4330 C   0  0  0  0  0  0  0  0  0  0  0  0
   47.1090   31.7580   46.8280 S   0  0  0  0  0  0  0  0  0  0  0  0
   43.8542   36.6133   44.8077 H   0  0  0  0  0  0  0  0  0  0  0  0
   45.1296   36.2842   42.6517 H   0  0  0  0  0  0  0  0  0  0  0  0
   46.7506   34.3376   42.4872 H   0  0  0  0  0  0  0  0  0  0  0  0
   44.2388   33.4835   48.0962 H   0  0  0  0  0  0  0  0  0  0  0  0
   44.9749   31.7224   49.7386 H   0  0  0  0  0  0  0  0  0  0  0  0
   47.1101   30.2950   49.0044 H   0  0  0  0  0  0  0  0  0  0  0  0
  1  6  2  0
  2  1  1  0
  3  2  2  0
  3  4  1  0
  4  5  2  0
  5  6  1  0
  5  7  1  0
  7 11  1  0
  7  8  2  0
  8  9  1  0
 10  9  2  0
 11 10  1  0
  1 12  1  0
  2 13  1  0
  3 14  1  0
  8 15  1  0
  9 16  1  0
 10 17  1  0
M  ISO  6  12  14  13  14  14  14  15  14  16  14  17  14
M  END
>  <minimizedAffinity>  (1) 
-4.12359858

>  <minimizedRMSD>  (1) 
0.659191132

$$$$
