
     RDKit          3D

 32 35  0  0  0  0  0  0  0  0999 V2000
   46.1570   30.3720   49.1360 N   0  0  0  0  0  0  0  0  0  0  0  0
   45.3060   31.3860   49.4290 C   0  0  0  0  0  0  0  0  0  0  0  0
   45.2400   32.2220   48.3610 N   0  0  0  0  0  0  0  0  0  0  0  0
   46.0640   31.6880   47.4300 C   0  0  0  0  0  0  0  0  0  0  0  0
   46.3180   32.2060   46.1890 C   0  0  0  0  0  0  0  0  0  0  0  0
   47.1950   31.5220   45.4050 N   0  0  0  0  0  0  0  0  0  0  0  0
   47.7850   30.3920   45.8220 C   0  0  0  0  0  0  0  0  0  0  0  0
   47.4980   29.9260   47.0510 N   0  0  0  0  0  0  0  0  0  0  0  0
   46.6490   30.5380   47.8840 C   0  0  0  0  0  0  0  0  0  0  0  0
   48.7300   29.6240   45.0170 C   0  0  0  0  0  0  0  0  0  0  0  0
   49.5800   28.5580   45.3280 C   0  0  0  0  0  0  0  0  0  0  0  0
   50.2420   28.2480   44.1400 C   0  0  0  0  0  0  0  0  0  0  0  0
   49.8020   29.0980   43.1700 N   0  0  0  0  0  0  0  0  0  0  0  0
   48.9120   29.9030   43.7020 N   0  0  0  0  0  0  0  0  0  0  0  0
   45.6330   33.6730   45.4550 S   0  0  0  0  0  0  0  0  0  0  0  0
   47.7800   34.7140   42.3560 C   0  0  0  0  0  0  0  0  0  0  0  0
   47.0610   34.3270   41.2170 C   0  0  0  0  0  0  0  0  0  0  0  0
   45.8260   33.7000   41.4260 C   0  0  0  0  0  0  0  0  0  0  0  0
   45.4120   33.5110   42.7150 N   0  0  0  0  0  0  0  0  0  0  0  0
   46.1500   33.9050   43.7690 C   0  0  0  0  0  0  0  0  0  0  0  0
   47.3260   34.5030   43.5840 N   0  0  0  0  0  0  0  0  0  0  0  0
   49.0740   35.3710   42.1420 C   0  0  0  0  0  0  0  0  0  0  0  0
   49.2360   36.1340   41.1620 O   0  0  0  0  0  0  0  0  0  0  0  0
   50.0960   35.1340   43.0280 O   0  0  0  0  0  0  0  0  0  0  0  0
   46.3935   29.5942   49.7684 H   0  0  0  0  0  0  0  0  0  0  0  0
   44.7594   31.5108   50.3754 H   0  0  0  0  0  0  0  0  0  0  0  0
   49.7012   28.0669   46.3048 H   0  0  0  0  0  0  0  0  0  0  0  0
   50.9911   27.4533   44.0086 H   0  0  0  0  0  0  0  0  0  0  0  0
   50.1140   29.1072   42.1884 H   0  0  0  0  0  0  0  0  0  0  0  0
   47.4493   34.5076   40.2038 H   0  0  0  0  0  0  0  0  0  0  0  0
   45.2078   33.3696   40.5783 H   0  0  0  0  0  0  0  0  0  0  0  0
   50.9753   35.5698   42.8975 H   0  0  0  0  0  0  0  0  0  0  0  0
  1  2  1  0
  3  2  2  0
  4  9  2  0
  4  3  1  0
  5  4  1  0
  6  7  1  0
  6  5  2  0
  7  8  2  0
  8  9  1  0
  9  1  1  0
 10 11  1  0
 10  7  1  0
 12 11  2  0
 13 14  1  0
 13 12  1  0
 14 10  2  0
 15  5  1  0
 16 21  2  0
 17 18  2  0
 17 16  1  0
 18 19  1  0
 19 20  2  0
 20 15  1  0
 21 20  1  0
 22 16  1  0
 22 24  1  0
 23 22  2  0
  1 25  1  0
  2 26  1  0
 11 27  1  0
 12 28  1  0
 13 29  1  0
 17 30  1  0
 18 31  1  0
 24 32  1  0
M  ISO  8  25   9  26  14  27  14  28  14  29   9  30  14  31  14  32   3
M  END
>  <minimizedAffinity>  (1) 
-5.70336533

>  <minimizedRMSD>  (1) 
0.557570457

$$$$
