
     RDKit          3D

 31 33  0  0  0  0  0  0  0  0999 V2000
   46.1900   30.3730   49.1080 N   0  0  0  0  0  0  0  0  0  0  0  0
   45.3330   31.4000   49.4240 C   0  0  0  0  0  0  0  0  0  0  0  0
   45.2740   32.2190   48.3480 N   0  0  0  0  0  0  0  0  0  0  0  0
   46.0730   31.6950   47.4110 C   0  0  0  0  0  0  0  0  0  0  0  0
   46.3110   32.2030   46.1500 C   0  0  0  0  0  0  0  0  0  0  0  0
   47.1660   31.5010   45.3550 N   0  0  0  0  0  0  0  0  0  0  0  0
   47.7530   30.3660   45.7710 C   0  0  0  0  0  0  0  0  0  0  0  0
   47.4930   29.9100   47.0030 N   0  0  0  0  0  0  0  0  0  0  0  0
   46.6800   30.5260   47.8360 C   0  0  0  0  0  0  0  0  0  0  0  0
   45.6430   33.6650   45.4260 S   0  0  0  0  0  0  0  0  0  0  0  0
   47.7960   34.7340   42.3350 C   0  0  0  0  0  0  0  0  0  0  0  0
   47.0740   34.3650   41.2060 C   0  0  0  0  0  0  0  0  0  0  0  0
   45.8520   33.7500   41.4170 C   0  0  0  0  0  0  0  0  0  0  0  0
   45.4190   33.5390   42.6960 N   0  0  0  0  0  0  0  0  0  0  0  0
   46.1660   33.9200   43.7570 C   0  0  0  0  0  0  0  0  0  0  0  0
   47.3340   34.5070   43.5620 N   0  0  0  0  0  0  0  0  0  0  0  0
   49.0980   35.3890   42.1370 C   0  0  0  0  0  0  0  0  0  0  0  0
   49.2580   36.1630   41.1620 O   0  0  0  0  0  0  0  0  0  0  0  0
   50.1210   35.1430   43.0210 O   0  0  0  0  0  0  0  0  0  0  0  0
   48.6920   29.5670   44.9400 C   0  0  0  0  0  0  0  0  0  0  0  0
   48.8540   30.3020   43.6110 C   0  0  0  0  0  0  0  0  0  0  0  0
   46.4311   29.5957   49.7393 H   0  0  0  0  0  0  0  0  0  0  0  0
   44.7952   31.5318   50.3745 H   0  0  0  0  0  0  0  0  0  0  0  0
   47.4561   34.5530   40.1918 H   0  0  0  0  0  0  0  0  0  0  0  0
   45.2350   33.4339   40.5630 H   0  0  0  0  0  0  0  0  0  0  0  0
   51.0003   35.5800   42.8946 H   0  0  0  0  0  0  0  0  0  0  0  0
   49.6653   29.4831   45.4457 H   0  0  0  0  0  0  0  0  0  0  0  0
   48.3043   28.5501   44.7798 H   0  0  0  0  0  0  0  0  0  0  0  0
   49.0871   31.3597   43.8030 H   0  0  0  0  0  0  0  0  0  0  0  0
   49.6729   29.8445   43.0364 H   0  0  0  0  0  0  0  0  0  0  0  0
   47.9187   30.2311   43.0364 H   0  0  0  0  0  0  0  0  0  0  0  0
  1  2  1  0
  3  2  2  0
  4  9  2  0
  4  3  1  0
  5  4  1  0
  6  7  1  0
  6  5  2  0
  7  8  2  0
  8  9  1  0
  9  1  1  0
 10  5  1  0
 11 16  2  0
 12 13  2  0
 12 11  1  0
 13 14  1  0
 14 15  2  0
 15 10  1  0
 16 15  1  0
 17 11  1  0
 17 19  1  0
 18 17  2  0
 20  7  1  0
 21 20  1  0
  1 22  1  0
  2 23  1  0
 12 24  1  0
 13 25  1  0
 19 26  1  0
 20 27  1  0
 20 28  1  0
 21 29  1  0
 21 30  1  0
 21 31  1  0
M  ISO  8  22   9  23  14  24  14  25  14  26   3  27   8  28   8  29   8
M  ISO  2  30   8  31   8
M  END
>  <minimizedAffinity>  (1) 
-5.62887049

>  <minimizedRMSD>  (1) 
0.126856759

$$$$
