
     RDKit          3D

 33 35  0  0  0  0  0  0  0  0999 V2000
   45.7820   33.2010   46.3850 C   0  0  0  0  0  0  0  0  0  0  0  0
   45.2130   33.0960   47.6370 C   0  0  0  0  0  0  0  0  0  0  0  0
   45.7970   32.2890   48.5670 C   0  0  0  0  0  0  0  0  0  0  0  0
   46.9560   31.6190   48.1570 C   0  0  0  0  0  0  0  0  0  0  0  0
   47.1970   32.1380   46.4720 S   0  0  0  0  0  0  0  0  0  0  0  0
   44.4050   35.9150   44.3360 C   0  0  0  0  0  0  0  0  0  0  0  0
   44.5300   35.3570   43.0520 C   0  0  0  0  0  0  0  0  0  0  0  0
   45.0850   34.0580   42.9040 C   0  0  0  0  0  0  0  0  0  0  0  0
   45.4690   33.4200   44.0380 N   0  0  0  0  0  0  0  0  0  0  0  0
   45.3340   33.9870   45.2620 C   0  0  0  0  0  0  0  0  0  0  0  0
   44.8090   35.2170   45.4020 N   0  0  0  0  0  0  0  0  0  0  0  0
   47.8250   30.6820   48.9020 C   0  0  0  0  0  0  0  0  0  0  0  0
   49.0090   31.4550   49.4050 C   0  0  0  0  0  0  0  0  0  0  0  0
   49.9760   30.6030   50.1810 C   0  0  0  0  0  0  0  0  0  0  0  0
   49.9750   29.1620   49.7000 C   0  0  0  0  0  0  0  0  0  0  0  0
   49.7040   29.1740   48.2230 C   0  0  0  0  0  0  0  0  0  0  0  0
   48.2540   29.5110   48.0250 C   0  0  0  0  0  0  0  0  0  0  0  0
   44.2989   33.6568   47.8819 H   0  0  0  0  0  0  0  0  0  0  0  0
   45.3826   32.1711   49.5791 H   0  0  0  0  0  0  0  0  0  0  0  0
   43.9771   36.9204   44.4629 H   0  0  0  0  0  0  0  0  0  0  0  0
   44.2003   35.9224   42.1679 H   0  0  0  0  0  0  0  0  0  0  0  0
   45.1983   33.5905   41.9148 H   0  0  0  0  0  0  0  0  0  0  0  0
   47.2745   30.2483   49.7499 H   0  0  0  0  0  0  0  0  0  0  0  0
   49.5368   31.8893   48.5431 H   0  0  0  0  0  0  0  0  0  0  0  0
   48.6316   32.2314   50.0867 H   0  0  0  0  0  0  0  0  0  0  0  0
   50.9884   31.0166   50.0626 H   0  0  0  0  0  0  0  0  0  0  0  0
   49.6652   30.6100   51.2362 H   0  0  0  0  0  0  0  0  0  0  0  0
   50.9537   28.7004   49.8976 H   0  0  0  0  0  0  0  0  0  0  0  0
   49.2054   28.5800   50.2282 H   0  0  0  0  0  0  0  0  0  0  0  0
   50.3343   29.9307   47.7331 H   0  0  0  0  0  0  0  0  0  0  0  0
   49.9341   28.1928   47.7822 H   0  0  0  0  0  0  0  0  0  0  0  0
   48.0900   29.7762   46.9701 H   0  0  0  0  0  0  0  0  0  0  0  0
   47.6550   28.6325   48.3070 H   0  0  0  0  0  0  0  0  0  0  0  0
  1  5  1  0
  1  2  2  0
  2  3  1  0
  4  3  2  0
  4 12  1  0
  5  4  1  0
  6 11  2  0
  7  6  1  0
  8  7  2  0
  8  9  1  0
  9 10  2  0
 10 11  1  0
 10  1  1  0
 12 13  1  0
 13 14  1  0
 15 14  1  0
 16 15  1  0
 17 16  1  0
 17 12  1  0
  2 18  1  0
  3 19  1  0
  6 20  1  0
  7 21  1  0
  8 22  1  0
 12 23  1  0
 13 24  1  0
 13 25  1  0
 14 26  1  0
 14 27  1  0
 15 28  1  0
 15 29  1  0
 16 30  1  0
 16 31  1  0
 17 32  1  0
 17 33  1  0
M  ISO  8  18  14  19  14  20  14  21  14  22  14  23  13  24  13  25  13
M  ISO  8  26  13  27  13  28  13  29  13  30  13  31  13  32  13  33  13
M  END
>  <minimizedAffinity>  (1) 
-5.07680416

>  <minimizedRMSD>  (1) 
0.898714781

$$$$
