
     RDKit          3D

 29 29  0  0  0  0  0  0  0  0999 V2000
   46.0840   34.7400   41.5140 C   0  0  0  0  0  0  0  0  0  0  0  0
   47.2420   35.2530   42.0780 C   0  0  0  0  0  0  0  0  0  0  0  0
   48.4700   35.0710   41.4050 C   0  0  0  0  0  0  0  0  0  0  0  0
   48.4390   34.3930   40.2270 N   0  0  0  0  0  0  0  0  0  0  0  0
   47.2800   33.9050   39.7070 C   0  0  0  0  0  0  0  0  0  0  0  0
   46.1420   34.0890   40.3570 N   0  0  0  0  0  0  0  0  0  0  0  0
   44.8440   34.9380   42.2180 C   0  0  0  0  0  0  0  0  0  0  0  0
   43.9250   35.6460   41.6950 O   0  0  0  0  0  0  0  0  0  0  0  0
   44.6940   34.3260   43.4830 O   0  0  0  0  0  0  0  0  0  0  0  0
   45.0910   35.0380   44.6290 C   0  0  0  0  0  0  0  0  0  0  0  0
   44.1690   34.9680   45.6590 F   0  0  0  0  0  0  0  0  0  0  0  0
   46.2990   34.5420   45.0800 F   0  0  0  0  0  0  0  0  0  0  0  0
   45.1890   36.3630   44.2490 F   0  0  0  0  0  0  0  0  0  0  0  0
   47.2340   33.1640   38.4230 C   0  0  0  0  0  0  0  0  0  0  0  0
   47.9870   31.8870   38.4470 C   0  0  0  0  0  0  0  0  0  0  0  0
   45.8050   32.9360   38.0390 C   0  0  0  0  0  0  0  0  0  0  0  0
   47.8410   34.0940   37.3750 C   0  0  0  0  0  0  0  0  0  0  0  0
   49.2110   34.1940   37.4940 O   0  0  0  0  0  0  0  0  0  0  0  0
   47.2047   35.7936   43.0353 H   0  0  0  0  0  0  0  0  0  0  0  0
   49.4123   35.4615   41.8167 H   0  0  0  0  0  0  0  0  0  0  0  0
   48.1647   31.5857   39.4899 H   0  0  0  0  0  0  0  0  0  0  0  0
   47.4038   31.1078   37.9345 H   0  0  0  0  0  0  0  0  0  0  0  0
   48.9511   32.0202   37.9345 H   0  0  0  0  0  0  0  0  0  0  0  0
   45.1924   32.8383   38.9474 H   0  0  0  0  0  0  0  0  0  0  0  0
   45.4449   33.7880   37.4438 H   0  0  0  0  0  0  0  0  0  0  0  0
   45.7279   32.0142   37.4438 H   0  0  0  0  0  0  0  0  0  0  0  0
   47.4017   35.0954   37.4940 H   0  0  0  0  0  0  0  0  0  0  0  0
   47.6195   33.6730   36.3832 H   0  0  0  0  0  0  0  0  0  0  0  0
   49.4585   34.2121   38.4524 H   0  0  0  0  0  0  0  0  0  0  0  0
  1  2  2  0
  1  7  1  0
  3  2  1  0
  4  3  2  0
  5  4  1  0
  5  6  2  0
  6  1  1  0
  7  9  1  0
  8  7  2  0
  9 10  1  0
 10 12  1  0
 10 11  1  0
 13 10  1  0
 14 15  1  0
 14  5  1  0
 16 14  1  0
 17 18  1  0
 17 14  1  0
  2 19  1  0
  3 20  1  0
 15 21  1  0
 15 22  1  0
 15 23  1  0
 16 24  1  0
 16 25  1  0
 16 26  1  0
 17 27  1  0
 17 28  1  0
 18 29  1  0
M  ISO  8  19  14  20  14  21   8  22   8  23   8  24   8  25   8  26   8
M  ISO  3  27   8  28   8  29   3
M  END
>  <minimizedAffinity>  (1) 
-4.22156668

>  <minimizedRMSD>  (1) 
0.748957276

$$$$
