
     RDKit          3D

 27 29  0  0  0  0  0  0  0  0999 V2000
   45.8490   33.1480   46.2570 C   0  0  0  0  0  0  0  0  0  0  0  0
   45.3660   32.9370   47.5310 C   0  0  0  0  0  0  0  0  0  0  0  0
   46.0500   32.1140   48.3730 C   0  0  0  0  0  0  0  0  0  0  0  0
   47.2150   31.5390   47.8550 C   0  0  0  0  0  0  0  0  0  0  0  0
   47.3260   32.1690   46.1890 S   0  0  0  0  0  0  0  0  0  0  0  0
   44.3230   35.9460   44.4440 C   0  0  0  0  0  0  0  0  0  0  0  0
   44.2970   35.4220   43.1190 C   0  0  0  0  0  0  0  0  0  0  0  0
   44.8080   34.1190   42.8840 C   0  0  0  0  0  0  0  0  0  0  0  0
   45.3030   33.4270   43.9600 N   0  0  0  0  0  0  0  0  0  0  0  0
   45.3030   33.9690   45.1980 C   0  0  0  0  0  0  0  0  0  0  0  0
   44.8250   35.2050   45.4480 N   0  0  0  0  0  0  0  0  0  0  0  0
   48.1210   30.6460   48.5020 N   0  0  0  0  0  0  0  0  0  0  0  0
   48.8850   31.2270   49.4570 C   0  0  0  0  0  0  0  0  0  0  0  0
   49.8050   30.4400   50.1510 C   0  0  0  0  0  0  0  0  0  0  0  0
   49.8510   29.1110   49.7890 C   0  0  0  0  0  0  0  0  0  0  0  0
   50.6650   28.3570   50.3840 O   0  0  0  0  0  0  0  0  0  0  0  0
   49.0890   28.5410   48.8390 N   0  0  0  0  0  0  0  0  0  0  0  0
   48.2130   29.3390   48.1940 C   0  0  0  0  0  0  0  0  0  0  0  0
   47.4390   28.9190   47.2780 O   0  0  0  0  0  0  0  0  0  0  0  0
   44.4392   33.4276   47.8633 H   0  0  0  0  0  0  0  0  0  0  0  0
   45.7070   31.9135   49.3987 H   0  0  0  0  0  0  0  0  0  0  0  0
   43.9332   36.9547   44.6453 H   0  0  0  0  0  0  0  0  0  0  0  0
   43.8870   36.0186   42.2908 H   0  0  0  0  0  0  0  0  0  0  0  0
   44.8072   33.6799   41.8755 H   0  0  0  0  0  0  0  0  0  0  0  0
   48.7824   32.2989   49.6815 H   0  0  0  0  0  0  0  0  0  0  0  0
   50.4528   30.8544   50.9376 H   0  0  0  0  0  0  0  0  0  0  0  0
   49.1705   27.5393   48.6136 H   0  0  0  0  0  0  0  0  0  0  0  0
  1  2  2  0
  2  3  1  0
  4  3  2  0
  4 12  1  0
  5  1  1  0
  5  4  1  0
  6 11  2  0
  7  6  1  0
  8  7  2  0
  8  9  1  0
  9 10  2  0
 10 11  1  0
 10  1  1  0
 12 13  1  0
 13 14  2  0
 15 14  1  0
 15 16  2  0
 17 15  1  0
 18 12  1  0
 18 17  1  0
 19 18  2  0
  2 20  1  0
  3 21  1  0
  6 22  1  0
  7 23  1  0
  8 24  1  0
 13 25  1  0
 14 26  1  0
 17 27  1  0
M  ISO  8  20  14  21  14  22  14  23  14  24  14  25  14  26  14  27   9
M  END
>  <minimizedAffinity>  (1) 
-5.02319622

>  <minimizedRMSD>  (1) 
1.28366208

$$$$
