
     RDKit          3D

 30 33  0  0  0  0  0  0  0  0999 V2000
   46.1190   32.9400   45.6920 C   0  0  0  0  0  0  0  0  0  0  0  0
   45.8800   32.7100   47.0330 C   0  0  0  0  0  0  0  0  0  0  0  0
   46.3370   31.5550   47.5950 C   0  0  0  0  0  0  0  0  0  0  0  0
   47.0250   30.6870   46.7400 C   0  0  0  0  0  0  0  0  0  0  0  0
   47.0180   31.5100   45.1560 S   0  0  0  0  0  0  0  0  0  0  0  0
   44.5020   36.0210   44.5340 C   0  0  0  0  0  0  0  0  0  0  0  0
   45.0950   36.1760   43.2630 C   0  0  0  0  0  0  0  0  0  0  0  0
   46.0430   35.2140   42.8280 C   0  0  0  0  0  0  0  0  0  0  0  0
   46.3270   34.1890   43.6730 N   0  0  0  0  0  0  0  0  0  0  0  0
   45.7410   34.0700   44.8820 C   0  0  0  0  0  0  0  0  0  0  0  0
   44.8390   34.9800   45.3030 N   0  0  0  0  0  0  0  0  0  0  0  0
   47.5910   29.4340   47.0870 N   0  0  0  0  0  0  0  0  0  0  0  0
   48.9200   29.2360   47.1360 C   0  0  0  0  0  0  0  0  0  0  0  0
   49.0920   27.9550   47.4930 N   0  0  0  0  0  0  0  0  0  0  0  0
   47.8840   27.3900   47.6580 C   0  0  0  0  0  0  0  0  0  0  0  0
   47.5690   26.0960   48.0220 C   0  0  0  0  0  0  0  0  0  0  0  0
   46.2470   25.7960   48.1140 N   0  0  0  0  0  0  0  0  0  0  0  0
   45.2930   26.7100   47.8640 C   0  0  0  0  0  0  0  0  0  0  0  0
   45.6130   27.9850   47.5050 N   0  0  0  0  0  0  0  0  0  0  0  0
   46.9030   28.3230   47.4030 C   0  0  0  0  0  0  0  0  0  0  0  0
   48.5710   25.0970   48.2950 N   0  0  0  0  0  0  0  0  0  0  0  0
   45.3301   33.4465   47.6373 H   0  0  0  0  0  0  0  0  0  0  0  0
   46.1746   31.3196   48.6572 H   0  0  0  0  0  0  0  0  0  0  0  0
   43.7644   36.7546   44.8914 H   0  0  0  0  0  0  0  0  0  0  0  0
   44.8270   37.0278   42.6206 H   0  0  0  0  0  0  0  0  0  0  0  0
   46.5291   35.2951   41.8446 H   0  0  0  0  0  0  0  0  0  0  0  0
   49.7069   29.9753   46.9258 H   0  0  0  0  0  0  0  0  0  0  0  0
   44.2346   26.4232   47.9509 H   0  0  0  0  0  0  0  0  0  0  0  0
   48.2881   24.1437   48.5635 H   0  0  0  0  0  0  0  0  0  0  0  0
   49.5701   25.3362   48.2216 H   0  0  0  0  0  0  0  0  0  0  0  0
  1  2  2  0
  2  3  1  0
  4 12  1  0
  4  3  2  0
  5  1  1  0
  5  4  1  0
  6 11  2  0
  7  6  1  0
  8  7  2  0
  8  9  1  0
  9 10  2  0
 10 11  1  0
 10  1  1  0
 12 13  1  0
 12 20  1  0
 13 14  2  0
 14 15  1  0
 15 16  2  0
 16 17  1  0
 16 21  1  0
 18 17  2  0
 19 18  1  0
 20 19  2  0
 20 15  1  0
  2 22  1  0
  3 23  1  0
  6 24  1  0
  7 25  1  0
  8 26  1  0
 13 27  1  0
 18 28  1  0
 21 29  1  0
 21 30  1  0
M  ISO  7  22  14  23  14  24  14  25  14  26  14  27  14  28  14
M  END
>  <minimizedAffinity>  (1) 
-4.9677496

>  <minimizedRMSD>  (1) 
1.99654925

$$$$
