
     RDKit          3D

 46 50  0  0  1  0  0  0  0  0999 V2000
   49.2670   28.6720   48.8100 N   0  0  0  0  0  0  0  0  0  0  0  0
   49.1490   27.3200   48.3580 C   0  0  0  0  0  0  0  0  0  0  0  0
   50.4890   26.6910   48.0670 C   0  0  0  0  0  0  0  0  0  0  0  0
   51.5400   27.1460   49.0560 C   0  0  0  0  0  0  0  0  0  0  0  0
   50.9230   27.7460   50.3030 C   0  0  0  0  0  0  0  0  0  0  0  0
   50.2110   28.9910   49.8760 C   0  0  1  0  0  0  0  0  0  0  0  0
   51.1400   30.0610   49.4970 C   0  0  0  0  0  0  0  0  0  0  0  0
   51.8770   30.2780   48.3680 C   0  0  0  0  0  0  0  0  0  0  0  0
   52.5890   31.4290   48.5160 N   0  0  0  0  0  0  0  0  0  0  0  0
   52.3330   31.9630   49.7060 C   0  0  0  0  0  0  0  0  0  0  0  0
   52.8030   33.1150   50.3190 C   0  0  0  0  0  0  0  0  0  0  0  0
   52.3350   33.3990   51.5900 C   0  0  0  0  0  0  0  0  0  0  0  0
   51.4260   32.6030   52.2870 C   0  0  0  0  0  0  0  0  0  0  0  0
   51.0060   31.4810   51.6200 C   0  0  0  0  0  0  0  0  0  0  0  0
   51.4200   31.1230   50.3560 C   0  0  0  0  0  0  0  0  0  0  0  0
   47.3460   31.7730   47.0410 C   0  0  0  0  0  0  0  0  0  0  0  0
   47.4280   31.8690   48.4030 C   0  0  0  0  0  0  0  0  0  0  0  0
   48.0470   30.8930   49.1030 C   0  0  0  0  0  0  0  0  0  0  0  0
   48.5620   29.8450   48.3570 C   0  0  0  0  0  0  0  0  0  0  0  0
   48.1620   30.2590   46.6730 S   0  0  0  0  0  0  0  0  0  0  0  0
   45.1780   34.3180   45.5240 C   0  0  0  0  0  0  0  0  0  0  0  0
   45.6390   34.3260   44.1890 C   0  0  0  0  0  0  0  0  0  0  0  0
   46.6970   33.4450   43.8390 C   0  0  0  0  0  0  0  0  0  0  0  0
   47.2220   32.6300   44.8110 N   0  0  0  0  0  0  0  0  0  0  0  0
   46.7480   32.6620   46.0620 C   0  0  0  0  0  0  0  0  0  0  0  0
   45.7360   33.4930   46.4300 N   0  0  0  0  0  0  0  0  0  0  0  0
   48.6437   26.7301   49.1369 H   0  0  0  0  0  0  0  0  0  0  0  0
   48.5726   27.3291   47.4211 H   0  0  0  0  0  0  0  0  0  0  0  0
   50.3912   25.5970   48.1269 H   0  0  0  0  0  0  0  0  0  0  0  0
   50.8049   27.0006   47.0598 H   0  0  0  0  0  0  0  0  0  0  0  0
   52.1544   26.2805   49.3448 H   0  0  0  0  0  0  0  0  0  0  0  0
   52.1499   27.9224   48.5710 H   0  0  0  0  0  0  0  0  0  0  0  0
   50.2112   27.0376   50.7520 H   0  0  0  0  0  0  0  0  0  0  0  0
   51.6928   27.9698   51.0562 H   0  0  0  0  0  0  0  0  0  0  0  0
   49.6467   29.3831   50.7350 H   0  0  0  0  0  0  0  0  0  0  0  0
   51.8929   29.6273   47.4813 H   0  0  0  0  0  0  0  0  0  0  0  0
   53.2287   31.8256   47.8128 H   0  0  0  0  0  0  0  0  0  0  0  0
   53.5208   33.7780   49.8138 H   0  0  0  0  0  0  0  0  0  0  0  0
   52.7035   34.3111   52.0823 H   0  0  0  0  0  0  0  0  0  0  0  0
   51.0722   32.8567   53.2972 H   0  0  0  0  0  0  0  0  0  0  0  0
   50.2887   30.8210   52.1297 H   0  0  0  0  0  0  0  0  0  0  0  0
   46.9932   32.7344   48.9246 H   0  0  0  0  0  0  0  0  0  0  0  0
   48.1367   30.9283   50.1988 H   0  0  0  0  0  0  0  0  0  0  0  0
   44.3596   34.9886   45.8248 H   0  0  0  0  0  0  0  0  0  0  0  0
   45.1910   34.9962   43.4406 H   0  0  0  0  0  0  0  0  0  0  0  0
   47.0873   33.4165   42.8110 H   0  0  0  0  0  0  0  0  0  0  0  0
  1  6  1  0
  2  1  1  0
  3  2  1  0
  3  4  1  0
  4  5  1  0
  6  5  1  0
  7  6  1  0
  7 15  1  0
  8  9  1  0
  8  7  2  0
  9 10  1  0
 10 11  1  0
 10 15  2  0
 11 12  2  0
 12 13  1  0
 14 13  2  0
 15 14  1  0
 16 17  2  0
 17 18  1  0
 19  1  1  0
 19 18  2  0
 20 16  1  0
 20 19  1  0
 21 26  2  0
 22 21  1  0
 23 22  2  0
 23 24  1  0
 24 25  2  0
 25 26  1  0
 25 16  1  0
  2 27  1  0
  2 28  1  0
  3 29  1  0
  3 30  1  0
  4 31  1  0
  4 32  1  0
  5 33  1  0
  5 34  1  0
  6 35  1  1
  8 36  1  0
  9 37  1  0
 11 38  1  0
 12 39  1  0
 13 40  1  0
 14 41  1  0
 17 42  1  0
 18 43  1  0
 21 44  1  0
 22 45  1  0
 23 46  1  0
M  ISO  8  27  13  28  13  29  13  30  13  31  13  32  13  33  13  34  13
M  ISO  8  35  13  36  14  37   9  38  14  39  14  40  14  41  14  42  14
M  ISO  4  43  14  44  14  45  14  46  14
M  END
>  <minimizedAffinity>  (1) 
-5.30807161

>  <minimizedRMSD>  (1) 
2.58498883

$$$$
