
     RDKit          3D

 35 37  0  0  1  0  0  0  0  0999 V2000
   48.0360   30.1940   48.2700 N   0  0  0  0  0  0  0  0  0  0  0  0
   48.3090   28.8650   47.8180 C   0  0  0  0  0  0  0  0  0  0  0  0
   49.7840   28.5720   47.7400 C   0  0  0  0  0  0  0  0  0  0  0  0
   50.5460   29.2300   48.8620 C   0  0  0  0  0  0  0  0  0  0  0  0
   49.6360   29.6470   49.9990 C   0  0  0  0  0  0  0  0  0  0  0  0
   48.7120   30.6860   49.4660 C   0  0  1  0  0  0  0  0  0  0  0  0
   45.8460   32.9590   46.2680 C   0  0  0  0  0  0  0  0  0  0  0  0
   45.3850   32.6860   47.5280 C   0  0  0  0  0  0  0  0  0  0  0  0
   46.0400   31.7810   48.2810 C   0  0  0  0  0  0  0  0  0  0  0  0
   47.1520   31.1840   47.7110 C   0  0  0  0  0  0  0  0  0  0  0  0
   47.2730   31.9110   46.0910 S   0  0  0  0  0  0  0  0  0  0  0  0
   44.4120   35.9320   44.6660 C   0  0  0  0  0  0  0  0  0  0  0  0
   44.4490   35.5640   43.2990 C   0  0  0  0  0  0  0  0  0  0  0  0
   44.9730   34.2880   42.9600 C   0  0  0  0  0  0  0  0  0  0  0  0
   45.4170   33.4750   43.9700 N   0  0  0  0  0  0  0  0  0  0  0  0
   45.3610   33.8660   45.2480 C   0  0  0  0  0  0  0  0  0  0  0  0
   44.8640   35.0820   45.6040 N   0  0  0  0  0  0  0  0  0  0  0  0
   49.3640   31.9870   49.2410 C   0  0  0  0  0  0  0  0  0  0  0  0
   50.6010   32.1390   49.4270 O   0  0  0  0  0  0  0  0  0  0  0  0
   48.5390   33.0220   48.8180 O   0  0  0  0  0  0  0  0  0  0  0  0
   47.8447   28.1530   48.5162 H   0  0  0  0  0  0  0  0  0  0  0  0
   47.8954   28.7663   46.8035 H   0  0  0  0  0  0  0  0  0  0  0  0
   49.9343   27.4839   47.7978 H   0  0  0  0  0  0  0  0  0  0  0  0
   50.1623   28.9736   46.7884 H   0  0  0  0  0  0  0  0  0  0  0  0
   51.2934   28.5208   49.2473 H   0  0  0  0  0  0  0  0  0  0  0  0
   51.0254   30.1354   48.4615 H   0  0  0  0  0  0  0  0  0  0  0  0
   49.0615   28.7807   50.3588 H   0  0  0  0  0  0  0  0  0  0  0  0
   50.2214   30.0412   50.8428 H   0  0  0  0  0  0  0  0  0  0  0  0
   47.9551   30.8769   50.2410 H   0  0  0  0  0  0  0  0  0  0  0  0
   44.4935   33.1978   47.9195 H   0  0  0  0  0  0  0  0  0  0  0  0
   45.7078   31.5286   49.2988 H   0  0  0  0  0  0  0  0  0  0  0  0
   44.0131   36.9140   44.9603 H   0  0  0  0  0  0  0  0  0  0  0  0
   44.0816   36.2484   42.5201 H   0  0  0  0  0  0  0  0  0  0  0  0
   45.0213   33.9600   41.9111 H   0  0  0  0  0  0  0  0  0  0  0  0
   47.5715   32.8605   48.6837 H   0  0  0  0  0  0  0  0  0  0  0  0
  1  6  1  0
  2  1  1  0
  3  2  1  0
  3  4  1  0
  4  5  1  0
  6  5  1  0
  7  8  2  0
  8  9  1  0
 10  1  1  0
 10  9  2  0
 11  7  1  0
 11 10  1  0
 12 17  2  0
 13 12  1  0
 14 13  2  0
 14 15  1  0
 15 16  2  0
 16 17  1  0
 16  7  1  0
 18 19  2  0
 18  6  1  0
 20 18  1  0
  2 21  1  0
  2 22  1  0
  3 23  1  0
  3 24  1  0
  4 25  1  0
  4 26  1  0
  5 27  1  0
  5 28  1  0
  6 29  1  1
  8 30  1  0
  9 31  1  0
 12 32  1  0
 13 33  1  0
 14 34  1  0
 20 35  1  0
M  ISO  8  21  13  22  13  23  13  24  13  25  13  26  13  27  13  28  13
M  ISO  7  29  13  30  14  31  14  32  14  33  14  34  14  35   3
M  END
>  <minimizedAffinity>  (1) 
-4.45202589

>  <minimizedRMSD>  (1) 
0.444869608

$$$$
