
     RDKit          3D

 33 35  0  0  0  0  0  0  0  0999 V2000
   47.4440   34.0740   42.3170 C   0  0  0  0  0  0  0  0  0  0  0  0
   48.2940   35.2370   41.8750 C   0  0  0  0  0  0  0  0  0  0  0  0
   49.6740   35.2480   42.4100 C   0  0  0  0  0  0  0  0  0  0  0  0
   50.3620   33.9250   42.3900 C   0  0  0  0  0  0  0  0  0  0  0  0
   49.4590   32.7710   42.0240 C   0  0  0  0  0  0  0  0  0  0  0  0
   48.2000   32.9110   42.8470 C   0  0  0  0  0  0  0  0  0  0  0  0
   45.4390   34.2560   45.4340 C   0  0  0  0  0  0  0  0  0  0  0  0
   44.6060   35.3580   45.2110 C   0  0  0  0  0  0  0  0  0  0  0  0
   44.7420   36.0330   44.0040 C   0  0  0  0  0  0  0  0  0  0  0  0
   45.6680   35.5890   43.1130 N   0  0  0  0  0  0  0  0  0  0  0  0
   46.4650   34.5200   43.3470 C   0  0  0  0  0  0  0  0  0  0  0  0
   46.3350   33.8590   44.5270 N   0  0  0  0  0  0  0  0  0  0  0  0
   46.5890   33.6390   41.1530 C   0  0  0  0  0  0  0  0  0  0  0  0
   46.1010   32.3290   41.2730 C   0  0  0  0  0  0  0  0  0  0  0  0
   45.3560   32.0300   40.1980 N   0  0  0  0  0  0  0  0  0  0  0  0
   45.3730   33.1270   39.4140 C   0  0  0  0  0  0  0  0  0  0  0  0
   46.1120   34.0960   39.9820 N   0  0  0  0  0  0  0  0  0  0  0  0
   48.3549   35.2161   40.7769 H   0  0  0  0  0  0  0  0  0  0  0  0
   47.8059   36.1398   42.2708 H   0  0  0  0  0  0  0  0  0  0  0  0
   50.2685   35.9522   41.8094 H   0  0  0  0  0  0  0  0  0  0  0  0
   49.5943   35.5401   43.4675 H   0  0  0  0  0  0  0  0  0  0  0  0
   51.1799   33.9711   41.6559 H   0  0  0  0  0  0  0  0  0  0  0  0
   50.7220   33.7369   43.4123 H   0  0  0  0  0  0  0  0  0  0  0  0
   49.2148   32.8087   40.9521 H   0  0  0  0  0  0  0  0  0  0  0  0
   49.9529   31.8091   42.2262 H   0  0  0  0  0  0  0  0  0  0  0  0
   48.4589   33.0814   43.9024 H   0  0  0  0  0  0  0  0  0  0  0  0
   47.5938   31.9952   42.7844 H   0  0  0  0  0  0  0  0  0  0  0  0
   45.3535   33.7025   46.3808 H   0  0  0  0  0  0  0  0  0  0  0  0
   43.8704   35.6782   45.9636 H   0  0  0  0  0  0  0  0  0  0  0  0
   44.1146   36.9069   43.7746 H   0  0  0  0  0  0  0  0  0  0  0  0
   46.2986   31.6522   42.1173 H   0  0  0  0  0  0  0  0  0  0  0  0
   44.8558   33.2164   38.4473 H   0  0  0  0  0  0  0  0  0  0  0  0
   46.2838   35.0314   39.5865 H   0  0  0  0  0  0  0  0  0  0  0  0
  1  6  1  0
  1 11  1  0
  2  1  1  0
  2  3  1  0
  4  3  1  0
  5  4  1  0
  5  6  1  0
  8  7  2  0
  9  8  1  0
 10 11  1  0
 10  9  2  0
 11 12  2  0
 12  7  1  0
 13 14  2  0
 13  1  1  0
 15 14  1  0
 16 17  1  0
 16 15  2  0
 17 13  1  0
  2 18  1  0
  2 19  1  0
  3 20  1  0
  3 21  1  0
  4 22  1  0
  4 23  1  0
  5 24  1  0
  5 25  1  0
  6 26  1  0
  6 27  1  0
  7 28  1  0
  8 29  1  0
  9 30  1  0
 14 31  1  0
 16 32  1  0
 17 33  1  0
M  ISO  8  18  13  19  13  20  13  21  13  22  13  23  13  24  13  25  13
M  ISO  8  26  13  27  13  28  14  29  14  30  14  31  14  32  14  33   9
M  END
>  <minimizedAffinity>  (1) 
-5.4179225

>  <minimizedRMSD>  (1) 
0.310981661

$$$$
