
     RDKit          3D

 34 36  0  0  0  0  0  0  0  0999 V2000
   47.4010   33.9900   42.3970 C   0  0  0  0  0  0  0  0  0  0  0  0
   48.1310   35.1340   41.7870 C   0  0  0  0  0  0  0  0  0  0  0  0
   49.5330   35.3800   42.2730 C   0  0  0  0  0  0  0  0  0  0  0  0
   50.3360   34.1340   42.4190 C   0  0  0  0  0  0  0  0  0  0  0  0
   49.5380   32.8560   42.2350 C   0  0  0  0  0  0  0  0  0  0  0  0
   48.2990   32.9980   43.0810 C   0  0  0  0  0  0  0  0  0  0  0  0
   45.3690   34.2820   45.5020 C   0  0  0  0  0  0  0  0  0  0  0  0
   44.5790   35.4090   45.2400 C   0  0  0  0  0  0  0  0  0  0  0  0
   44.7490   36.0620   44.0150 C   0  0  0  0  0  0  0  0  0  0  0  0
   45.6720   35.5620   43.1520 N   0  0  0  0  0  0  0  0  0  0  0  0
   46.4150   34.4790   43.4270 C   0  0  0  0  0  0  0  0  0  0  0  0
   46.2560   33.8410   44.6160 N   0  0  0  0  0  0  0  0  0  0  0  0
   46.5250   33.2290   41.4620 C   0  0  0  0  0  0  0  0  0  0  0  0
   45.6850   32.1580   41.6450 C   0  0  0  0  0  0  0  0  0  0  0  0
   44.9830   31.6330   40.5840 C   0  0  0  0  0  0  0  0  0  0  0  0
   45.1110   32.1660   39.3430 N   0  0  0  0  0  0  0  0  0  0  0  0
   45.9430   33.2260   39.1600 C   0  0  0  0  0  0  0  0  0  0  0  0
   46.6280   33.7400   40.1960 N   0  0  0  0  0  0  0  0  0  0  0  0
   47.5461   36.0447   41.9832 H   0  0  0  0  0  0  0  0  0  0  0  0
   48.2363   34.8742   40.7233 H   0  0  0  0  0  0  0  0  0  0  0  0
   50.0406   36.0396   41.5538 H   0  0  0  0  0  0  0  0  0  0  0  0
   49.4553   35.8349   43.2715 H   0  0  0  0  0  0  0  0  0  0  0  0
   51.1391   34.1508   41.6675 H   0  0  0  0  0  0  0  0  0  0  0  0
   50.7186   34.1228   43.4503 H   0  0  0  0  0  0  0  0  0  0  0  0
   49.2632   32.7288   41.1775 H   0  0  0  0  0  0  0  0  0  0  0  0
   50.1245   31.9749   42.5343 H   0  0  0  0  0  0  0  0  0  0  0  0
   48.5676   33.3624   44.0835 H   0  0  0  0  0  0  0  0  0  0  0  0
   47.7923   32.0283   43.1947 H   0  0  0  0  0  0  0  0  0  0  0  0
   45.2529   33.7522   46.4590 H   0  0  0  0  0  0  0  0  0  0  0  0
   43.8461   35.7699   45.9766 H   0  0  0  0  0  0  0  0  0  0  0  0
   44.1549   36.9515   43.7584 H   0  0  0  0  0  0  0  0  0  0  0  0
   45.5725   31.7168   42.6463 H   0  0  0  0  0  0  0  0  0  0  0  0
   44.3133   30.7750   40.7434 H   0  0  0  0  0  0  0  0  0  0  0  0
   46.0561   33.6655   38.1580 H   0  0  0  0  0  0  0  0  0  0  0  0
  1  6  1  0
  1 11  1  0
  2  3  1  0
  2  1  1  0
  3  4  1  0
  5  4  1  0
  5  6  1  0
  8  7  2  0
  9  8  1  0
 10 11  1  0
 10  9  2  0
 11 12  2  0
 12  7  1  0
 13 14  2  0
 13  1  1  0
 15 14  1  0
 16 15  2  0
 17 16  1  0
 17 18  2  0
 18 13  1  0
  2 19  1  0
  2 20  1  0
  3 21  1  0
  3 22  1  0
  4 23  1  0
  4 24  1  0
  5 25  1  0
  5 26  1  0
  6 27  1  0
  6 28  1  0
  7 29  1  0
  8 30  1  0
  9 31  1  0
 14 32  1  0
 15 33  1  0
 17 34  1  0
M  ISO  8  19  13  20  13  21  13  22  13  23  13  24  13  25  13  26  13
M  ISO  8  27  13  28  13  29  14  30  14  31  14  32  14  33  14  34  14
M  END
>  <minimizedAffinity>  (1) 
-5.2870779

>  <minimizedRMSD>  (1) 
0.859126449

$$$$
