
     RDKit          3D

 35 36  0  0  0  0  0  0  0  0999 V2000
   47.4320   34.2180   42.1730 C   0  0  0  0  0  0  0  0  0  0  0  0
   48.2680   35.3490   41.6720 C   0  0  0  0  0  0  0  0  0  0  0  0
   49.6380   35.4460   42.2480 C   0  0  0  0  0  0  0  0  0  0  0  0
   50.3570   34.1600   42.3980 C   0  0  0  0  0  0  0  0  0  0  0  0
   49.5250   32.9580   42.1000 C   0  0  0  0  0  0  0  0  0  0  0  0
   48.2140   33.1020   42.8120 C   0  0  0  0  0  0  0  0  0  0  0  0
   45.1690   34.3740   45.1050 C   0  0  0  0  0  0  0  0  0  0  0  0
   44.5270   35.6050   44.9640 C   0  0  0  0  0  0  0  0  0  0  0  0
   44.8940   36.3780   43.8720 C   0  0  0  0  0  0  0  0  0  0  0  0
   45.8370   35.8880   43.0300 N   0  0  0  0  0  0  0  0  0  0  0  0
   46.4490   34.7020   43.1690 C   0  0  0  0  0  0  0  0  0  0  0  0
   46.0900   33.9690   44.2230 N   0  0  0  0  0  0  0  0  0  0  0  0
   46.4910   33.6610   41.0980 C   0  0  0  0  0  0  0  0  0  0  0  0
   47.1130   33.6800   39.7480 C   0  0  0  0  0  0  0  0  0  0  0  0
   45.1540   34.3120   41.0040 C   0  0  0  0  0  0  0  0  0  0  0  0
   48.3670   35.2387   40.5820 H   0  0  0  0  0  0  0  0  0  0  0  0
   47.7471   36.2666   41.9829 H   0  0  0  0  0  0  0  0  0  0  0  0
   50.2367   36.0949   41.5919 H   0  0  0  0  0  0  0  0  0  0  0  0
   49.5111   35.8426   43.2661 H   0  0  0  0  0  0  0  0  0  0  0  0
   51.2172   34.1632   41.7123 H   0  0  0  0  0  0  0  0  0  0  0  0
   50.6554   34.0850   43.4541 H   0  0  0  0  0  0  0  0  0  0  0  0
   49.3530   32.8846   41.0160 H   0  0  0  0  0  0  0  0  0  0  0  0
   50.0411   32.0476   42.4387 H   0  0  0  0  0  0  0  0  0  0  0  0
   48.3932   33.3364   43.8717 H   0  0  0  0  0  0  0  0  0  0  0  0
   47.6468   32.1621   42.7422 H   0  0  0  0  0  0  0  0  0  0  0  0
   44.9135   33.7255   45.9559 H   0  0  0  0  0  0  0  0  0  0  0  0
   43.7675   35.9456   45.6831 H   0  0  0  0  0  0  0  0  0  0  0  0
   44.4329   37.3608   43.6943 H   0  0  0  0  0  0  0  0  0  0  0  0
   46.3200   32.6298   41.4407 H   0  0  0  0  0  0  0  0  0  0  0  0
   48.2078   33.7134   39.8492 H   0  0  0  0  0  0  0  0  0  0  0  0
   46.8231   32.7726   39.1979 H   0  0  0  0  0  0  0  0  0  0  0  0
   46.7683   34.5680   39.1979 H   0  0  0  0  0  0  0  0  0  0  0  0
   44.7662   34.5008   42.0159 H   0  0  0  0  0  0  0  0  0  0  0  0
   45.2476   35.2654   40.4634 H   0  0  0  0  0  0  0  0  0  0  0  0
   44.4612   33.6504   40.4634 H   0  0  0  0  0  0  0  0  0  0  0  0
  1  6  1  0
  1 11  1  0
  2  1  1  0
  2  3  1  0
  3  4  1  0
  5  4  1  0
  5  6  1  0
  8  7  2  0
  9  8  1  0
 10 11  1  0
 10  9  2  0
 11 12  2  0
 12  7  1  0
 13  1  1  0
 14 13  1  0
 15 13  1  0
  2 16  1  0
  2 17  1  0
  3 18  1  0
  3 19  1  0
  4 20  1  0
  4 21  1  0
  5 22  1  0
  5 23  1  0
  6 24  1  0
  6 25  1  0
  7 26  1  0
  8 27  1  0
  9 28  1  0
 13 29  1  0
 14 30  1  0
 14 31  1  0
 14 32  1  0
 15 33  1  0
 15 34  1  0
 15 35  1  0
M  ISO  8  16  13  17  13  18  13  19  13  20  13  21  13  22  13  23  13
M  ISO  8  24  13  25  13  26  14  27  14  28  14  29   8  30   8  31   8
M  ISO  4  32   8  33   8  34   8  35   8
M  END
>  <minimizedAffinity>  (1) 
-5.22437

>  <minimizedRMSD>  (1) 
0.394400835

$$$$
