
     RDKit          3D

 27 28  0  0  0  0  0  0  0  0999 V2000
   47.4080   34.1560   42.2850 C   0  0  0  0  0  0  0  0  0  0  0  0
   48.2990   35.2910   41.8860 C   0  0  0  0  0  0  0  0  0  0  0  0
   49.6870   35.2350   42.4550 C   0  0  0  0  0  0  0  0  0  0  0  0
   50.3280   33.9010   42.3300 C   0  0  0  0  0  0  0  0  0  0  0  0
   49.3870   32.7870   41.9350 C   0  0  0  0  0  0  0  0  0  0  0  0
   48.1320   32.9380   42.7810 C   0  0  0  0  0  0  0  0  0  0  0  0
   45.3900   34.2540   45.3740 C   0  0  0  0  0  0  0  0  0  0  0  0
   44.5840   35.3970   45.2060 C   0  0  0  0  0  0  0  0  0  0  0  0
   44.7490   36.1180   44.0260 C   0  0  0  0  0  0  0  0  0  0  0  0
   45.6770   35.6760   43.1090 N   0  0  0  0  0  0  0  0  0  0  0  0
   46.4170   34.5850   43.3180 C   0  0  0  0  0  0  0  0  0  0  0  0
   46.2810   33.8590   44.4570 N   0  0  0  0  0  0  0  0  0  0  0  0
   46.3950   33.7420   40.8170 S   0  0  0  0  0  0  0  0  0  0  0  0
   48.3792   35.2931   40.7889 H   0  0  0  0  0  0  0  0  0  0  0  0
   47.8363   36.2033   42.2904 H   0  0  0  0  0  0  0  0  0  0  0  0
   50.3098   35.9710   41.9254 H   0  0  0  0  0  0  0  0  0  0  0  0
   49.6038   35.4532   43.5299 H   0  0  0  0  0  0  0  0  0  0  0  0
   51.1179   33.9697   41.5676 H   0  0  0  0  0  0  0  0  0  0  0  0
   50.7136   33.6450   43.3279 H   0  0  0  0  0  0  0  0  0  0  0  0
   49.1341   32.8679   40.8675 H   0  0  0  0  0  0  0  0  0  0  0  0
   49.8535   31.8046   42.0999 H   0  0  0  0  0  0  0  0  0  0  0  0
   48.4036   33.0656   43.8393 H   0  0  0  0  0  0  0  0  0  0  0  0
   47.4956   32.0445   42.6996 H   0  0  0  0  0  0  0  0  0  0  0  0
   45.2828   33.6628   46.2954 H   0  0  0  0  0  0  0  0  0  0  0  0
   43.8574   35.7060   45.9719 H   0  0  0  0  0  0  0  0  0  0  0  0
   44.1514   37.0206   43.8305 H   0  0  0  0  0  0  0  0  0  0  0  0
   45.1837   33.2470   41.2229 H   0  0  0  0  0  0  0  0  0  0  0  0
  1  6  1  0
  1 11  1  0
  2  1  1  0
  2  3  1  0
  4  3  1  0
  5  4  1  0
  5  6  1  0
  8  7  2  0
  9  8  1  0
 10 11  1  0
 10  9  2  0
 11 12  2  0
 12  7  1  0
 13  1  1  0
  2 14  1  0
  2 15  1  0
  3 16  1  0
  3 17  1  0
  4 18  1  0
  4 19  1  0
  5 20  1  0
  5 21  1  0
  6 22  1  0
  6 23  1  0
  7 24  1  0
  8 25  1  0
  9 26  1  0
 13 27  1  0
M  ISO  8  14  13  15  13  16  13  17  13  18  13  19  13  20  13  21  13
M  ISO  6  22  13  23  13  24  14  25  14  26  14  27  11
M  END
>  <minimizedAffinity>  (1) 
-4.86939669

>  <minimizedRMSD>  (1) 
0.233694956

$$$$
