
     RDKit          3D

 47 51  0  0  0  0  0  0  0  0999 V2000
   47.3440   34.1070   42.3160 C   0  0  0  0  0  0  0  0  0  0  0  0
   48.2150   35.2510   41.8380 C   0  0  0  0  0  0  0  0  0  0  0  0
   49.6010   35.2280   42.3320 C   0  0  0  0  0  0  0  0  0  0  0  0
   50.2620   33.8830   42.3150 C   0  0  0  0  0  0  0  0  0  0  0  0
   49.3200   32.7490   41.9790 C   0  0  0  0  0  0  0  0  0  0  0  0
   48.0790   32.9290   42.8280 C   0  0  0  0  0  0  0  0  0  0  0  0
   45.3720   34.2930   45.4400 C   0  0  0  0  0  0  0  0  0  0  0  0
   44.6150   35.4510   45.2750 C   0  0  0  0  0  0  0  0  0  0  0  0
   44.7850   36.1700   44.0860 C   0  0  0  0  0  0  0  0  0  0  0  0
   45.6730   35.7060   43.1640 N   0  0  0  0  0  0  0  0  0  0  0  0
   46.3900   34.5790   43.3600 C   0  0  0  0  0  0  0  0  0  0  0  0
   46.2280   33.8750   44.5150 N   0  0  0  0  0  0  0  0  0  0  0  0
   46.5400   33.6310   41.1140 C   0  0  0  0  0  0  0  0  0  0  0  0
   46.6590   33.5720   39.7470 C   0  0  0  0  0  0  0  0  0  0  0  0
   45.6520   33.0390   39.0510 C   0  0  0  0  0  0  0  0  0  0  0  0
   44.5410   32.5650   39.6340 C   0  0  0  0  0  0  0  0  0  0  0  0
   44.9180   32.8910   41.3930 S   0  0  0  0  0  0  0  0  0  0  0  0
   43.3750   31.9590   38.9980 C   0  0  0  0  0  0  0  0  0  0  0  0
   43.5340   30.6910   38.6520 N   0  0  0  0  0  0  0  0  0  0  0  0
   42.5640   29.9870   38.0560 C   0  0  0  0  0  0  0  0  0  0  0  0
   41.3510   30.5510   37.7750 N   0  0  0  0  0  0  0  0  0  0  0  0
   41.1560   31.8460   38.1160 C   0  0  0  0  0  0  0  0  0  0  0  0
   39.9810   32.4770   37.8700 C   0  0  0  0  0  0  0  0  0  0  0  0
   39.7260   33.8130   38.2030 C   0  0  0  0  0  0  0  0  0  0  0  0
   40.7980   34.4680   38.8210 C   0  0  0  0  0  0  0  0  0  0  0  0
   41.9580   33.8140   39.0530 C   0  0  0  0  0  0  0  0  0  0  0  0
   42.1920   32.5190   38.7260 C   0  0  0  0  0  0  0  0  0  0  0  0
   48.2443   35.2209   40.7388 H   0  0  0  0  0  0  0  0  0  0  0  0
   47.7618   36.1697   42.2388 H   0  0  0  0  0  0  0  0  0  0  0  0
   50.1969   35.9080   41.7056 H   0  0  0  0  0  0  0  0  0  0  0  0
   49.5538   35.5317   43.3882 H   0  0  0  0  0  0  0  0  0  0  0  0
   51.0665   33.9005   41.5650 H   0  0  0  0  0  0  0  0  0  0  0  0
   50.6406   33.6971   43.3309 H   0  0  0  0  0  0  0  0  0  0  0  0
   49.0546   32.7835   40.9121 H   0  0  0  0  0  0  0  0  0  0  0  0
   49.7929   31.7766   42.1811 H   0  0  0  0  0  0  0  0  0  0  0  0
   48.3648   33.0940   43.8773 H   0  0  0  0  0  0  0  0  0  0  0  0
   47.4462   32.0307   42.7766 H   0  0  0  0  0  0  0  0  0  0  0  0
   45.2571   33.7076   46.3642 H   0  0  0  0  0  0  0  0  0  0  0  0
   43.9104   35.7875   46.0498 H   0  0  0  0  0  0  0  0  0  0  0  0
   44.2129   37.0910   43.9004 H   0  0  0  0  0  0  0  0  0  0  0  0
   47.5580   33.9529   39.2402 H   0  0  0  0  0  0  0  0  0  0  0  0
   45.7369   32.9865   37.9555 H   0  0  0  0  0  0  0  0  0  0  0  0
   42.7463   28.9359   37.7876 H   0  0  0  0  0  0  0  0  0  0  0  0
   39.1799   31.9048   37.3793 H   0  0  0  0  0  0  0  0  0  0  0  0
   38.7647   34.3062   37.9965 H   0  0  0  0  0  0  0  0  0  0  0  0
   40.6956   35.5217   39.1197 H   0  0  0  0  0  0  0  0  0  0  0  0
   42.7701   34.3721   39.5419 H   0  0  0  0  0  0  0  0  0  0  0  0
  1  6  1  0
  1 11  1  0
  2  1  1  0
  2  3  1  0
  4  3  1  0
  5  4  1  0
  5  6  1  0
  8  7  2  0
  9  8  1  0
 10 11  1  0
 10  9  2  0
 11 12  2  0
 12  7  1  0
 13 17  1  0
 13  1  1  0
 14 13  2  0
 15 16  2  0
 15 14  1  0
 16 17  1  0
 18 16  1  0
 19 18  2  0
 20 19  1  0
 21 20  2  0
 21 22  1  0
 22 27  2  0
 23 22  1  0
 23 24  2  0
 24 25  1  0
 25 26  2  0
 27 18  1  0
 27 26  1  0
  2 28  1  0
  2 29  1  0
  3 30  1  0
  3 31  1  0
  4 32  1  0
  4 33  1  0
  5 34  1  0
  5 35  1  0
  6 36  1  0
  6 37  1  0
  7 38  1  0
  8 39  1  0
  9 40  1  0
 14 41  1  0
 15 42  1  0
 20 43  1  0
 23 44  1  0
 24 45  1  0
 25 46  1  0
 26 47  1  0
M  ISO  8  28  13  29  13  30  13  31  13  32  13  33  13  34  13  35  13
M  ISO  8  36  13  37  13  38  14  39  14  40  14  41  14  42  14  43  14
M  ISO  4  44  14  45  14  46  14  47  14
M  END
>  <minimizedAffinity>  (1) 
-6.71308804

>  <minimizedRMSD>  (1) 
4.13003016

$$$$
