
     RDKit          3D

 48 51  0  0  0  0  0  0  0  0999 V2000
   47.6510   34.2150   42.1120 C   0  0  0  0  0  0  0  0  0  0  0  0
   48.5670   35.3550   41.7340 C   0  0  0  0  0  0  0  0  0  0  0  0
   49.8800   35.3540   42.4180 C   0  0  0  0  0  0  0  0  0  0  0  0
   50.5480   34.0270   42.5150 C   0  0  0  0  0  0  0  0  0  0  0  0
   49.6770   32.8820   42.0880 C   0  0  0  0  0  0  0  0  0  0  0  0
   48.3230   33.0630   42.7670 C   0  0  0  0  0  0  0  0  0  0  0  0
   45.2380   34.4580   44.9090 C   0  0  0  0  0  0  0  0  0  0  0  0
   44.5390   35.6270   44.6220 C   0  0  0  0  0  0  0  0  0  0  0  0
   44.8930   36.3430   43.4680 C   0  0  0  0  0  0  0  0  0  0  0  0
   45.9060   35.8370   42.7040 N   0  0  0  0  0  0  0  0  0  0  0  0
   46.5660   34.7010   43.0080 C   0  0  0  0  0  0  0  0  0  0  0  0
   46.2180   34.0160   44.1220 N   0  0  0  0  0  0  0  0  0  0  0  0
   47.0260   33.6870   40.8240 C   0  0  0  0  0  0  0  0  0  0  0  0
   45.8750   33.0480   40.4380 C   0  0  0  0  0  0  0  0  0  0  0  0
   45.7220   32.7610   39.1400 C   0  0  0  0  0  0  0  0  0  0  0  0
   46.6510   33.0810   38.2270 C   0  0  0  0  0  0  0  0  0  0  0  0
   47.9600   33.9040   39.2750 S   0  0  0  0  0  0  0  0  0  0  0  0
   46.7600   32.9250   36.8330 N   0  0  0  0  0  0  0  0  0  0  0  0
   48.1020   33.1590   36.3540 C   0  0  0  0  0  0  0  0  0  0  0  0
   48.4250   32.4000   35.0840 C   0  0  0  0  0  0  0  0  0  0  0  0
   47.2010   32.2420   34.2090 C   0  0  0  0  0  0  0  0  0  0  0  0
   46.0520   31.6110   34.9600 C   0  0  0  0  0  0  0  0  0  0  0  0
   45.6060   32.5800   36.0280 C   0  0  0  0  0  0  0  0  0  0  0  0
   48.7466   35.3037   40.6500 H   0  0  0  0  0  0  0  0  0  0  0  0
   48.0567   36.2774   42.0482 H   0  0  0  0  0  0  0  0  0  0  0  0
   50.5497   36.0318   41.8683 H   0  0  0  0  0  0  0  0  0  0  0  0
   49.6831   35.6708   43.4528 H   0  0  0  0  0  0  0  0  0  0  0  0
   51.4426   34.0406   41.8750 H   0  0  0  0  0  0  0  0  0  0  0  0
   50.7937   33.8668   43.5752 H   0  0  0  0  0  0  0  0  0  0  0  0
   49.5539   32.8902   40.9949 H   0  0  0  0  0  0  0  0  0  0  0  0
   50.1300   31.9211   42.3734 H   0  0  0  0  0  0  0  0  0  0  0  0
   48.4636   33.2686   43.8384 H   0  0  0  0  0  0  0  0  0  0  0  0
   47.7146   32.1515   42.6718 H   0  0  0  0  0  0  0  0  0  0  0  0
   44.9743   33.8839   45.8095 H   0  0  0  0  0  0  0  0  0  0  0  0
   43.7320   35.9797   45.2810 H   0  0  0  0  0  0  0  0  0  0  0  0
   44.3760   37.2733   43.1902 H   0  0  0  0  0  0  0  0  0  0  0  0
   45.1017   32.7798   41.1729 H   0  0  0  0  0  0  0  0  0  0  0  0
   44.8065   32.2470   38.8118 H   0  0  0  0  0  0  0  0  0  0  0  0
   48.2201   34.2348   36.1575 H   0  0  0  0  0  0  0  0  0  0  0  0
   48.7928   32.8018   37.1320 H   0  0  0  0  0  0  0  0  0  0  0  0
   49.1962   32.9499   34.5247 H   0  0  0  0  0  0  0  0  0  0  0  0
   48.7840   31.3979   35.3614 H   0  0  0  0  0  0  0  0  0  0  0  0
   47.4574   31.6048   33.3498 H   0  0  0  0  0  0  0  0  0  0  0  0
   46.8852   33.2427   33.8790 H   0  0  0  0  0  0  0  0  0  0  0  0
   45.2206   31.4082   34.2689 H   0  0  0  0  0  0  0  0  0  0  0  0
   46.3679   30.6601   35.4139 H   0  0  0  0  0  0  0  0  0  0  0  0
   45.1932   33.4861   35.5605 H   0  0  0  0  0  0  0  0  0  0  0  0
   44.8264   32.1233   36.6554 H   0  0  0  0  0  0  0  0  0  0  0  0
  1  6  1  0
  1 11  1  0
  2  1  1  0
  2  3  1  0
  3  4  1  0
  5  4  1  0
  5  6  1  0
  8  7  2  0
  9  8  1  0
 10 11  1  0
 10  9  2  0
 11 12  2  0
 12  7  1  0
 13  1  1  0
 14 13  2  0
 15 14  1  0
 16 15  2  0
 16 17  1  0
 17 13  1  0
 18 16  1  0
 19 18  1  0
 20 19  1  0
 21 22  1  0
 21 20  1  0
 22 23  1  0
 23 18  1  0
  2 24  1  0
  2 25  1  0
  3 26  1  0
  3 27  1  0
  4 28  1  0
  4 29  1  0
  5 30  1  0
  5 31  1  0
  6 32  1  0
  6 33  1  0
  7 34  1  0
  8 35  1  0
  9 36  1  0
 14 37  1  0
 15 38  1  0
 19 39  1  0
 19 40  1  0
 20 41  1  0
 20 42  1  0
 21 43  1  0
 21 44  1  0
 22 45  1  0
 22 46  1  0
 23 47  1  0
 23 48  1  0
M  ISO  8  24  13  25  13  26  13  27  13  28  13  29  13  30  13  31  13
M  ISO  8  32  13  33  13  34  14  35  14  36  14  37  14  38  14  39  13
M  ISO  8  40  13  41  13  42  13  43  13  44  13  45  13  46  13  47  13
M  ISO  1  48  13
M  END
>  <minimizedAffinity>  (1) 
-6.17855787

>  <minimizedRMSD>  (1) 
0.76501739

$$$$
