
     RDKit          3D

 40 43  0  0  0  0  0  0  0  0999 V2000
   47.5290   34.0500   42.3240 C   0  0  0  0  0  0  0  0  0  0  0  0
   48.3410   35.1970   41.7890 C   0  0  0  0  0  0  0  0  0  0  0  0
   49.6950   35.3380   42.3450 C   0  0  0  0  0  0  0  0  0  0  0  0
   50.4560   34.0650   42.4880 C   0  0  0  0  0  0  0  0  0  0  0  0
   49.6290   32.8330   42.2370 C   0  0  0  0  0  0  0  0  0  0  0  0
   48.3310   32.9880   43.0170 C   0  0  0  0  0  0  0  0  0  0  0  0
   45.3190   34.3440   45.2850 C   0  0  0  0  0  0  0  0  0  0  0  0
   44.5660   35.4840   45.0030 C   0  0  0  0  0  0  0  0  0  0  0  0
   44.8210   36.1470   43.8030 C   0  0  0  0  0  0  0  0  0  0  0  0
   45.7780   35.6540   42.9790 N   0  0  0  0  0  0  0  0  0  0  0  0
   46.4930   34.5400   43.2870 C   0  0  0  0  0  0  0  0  0  0  0  0
   46.2510   33.8860   44.4580 N   0  0  0  0  0  0  0  0  0  0  0  0
   46.8390   33.3820   41.1640 C   0  0  0  0  0  0  0  0  0  0  0  0
   45.8150   32.4740   40.9640 C   0  0  0  0  0  0  0  0  0  0  0  0
   45.5200   32.1440   39.6940 C   0  0  0  0  0  0  0  0  0  0  0  0
   46.1770   32.6610   38.6450 C   0  0  0  0  0  0  0  0  0  0  0  0
   47.3980   33.7760   39.4810 S   0  0  0  0  0  0  0  0  0  0  0  0
   46.1400   32.5510   37.2510 C   0  0  0  0  0  0  0  0  0  0  0  0
   46.9670   31.8340   36.4130 C   0  0  0  0  0  0  0  0  0  0  0  0
   46.4740   32.0810   35.1260 C   0  0  0  0  0  0  0  0  0  0  0  0
   45.4020   32.9140   35.2380 N   0  0  0  0  0  0  0  0  0  0  0  0
   45.2040   33.1950   36.5370 N   0  0  0  0  0  0  0  0  0  0  0  0
   48.4352   35.0651   40.7010 H   0  0  0  0  0  0  0  0  0  0  0  0
   47.8007   36.1084   42.0846 H   0  0  0  0  0  0  0  0  0  0  0  0
   50.2674   36.0045   41.6830 H   0  0  0  0  0  0  0  0  0  0  0  0
   49.5680   35.7346   43.3631 H   0  0  0  0  0  0  0  0  0  0  0  0
   51.2890   34.0761   41.7697 H   0  0  0  0  0  0  0  0  0  0  0  0
   50.8011   34.0128   43.5312 H   0  0  0  0  0  0  0  0  0  0  0  0
   49.4128   32.7380   41.1627 H   0  0  0  0  0  0  0  0  0  0  0  0
   50.1696   31.9307   42.5588 H   0  0  0  0  0  0  0  0  0  0  0  0
   48.5459   33.2916   44.0522 H   0  0  0  0  0  0  0  0  0  0  0  0
   47.7778   32.0379   43.0528 H   0  0  0  0  0  0  0  0  0  0  0  0
   45.1339   33.8054   46.2261 H   0  0  0  0  0  0  0  0  0  0  0  0
   43.7984   35.8470   45.7023 H   0  0  0  0  0  0  0  0  0  0  0  0
   44.2572   37.0514   43.5306 H   0  0  0  0  0  0  0  0  0  0  0  0
   45.2635   32.0388   41.8105 H   0  0  0  0  0  0  0  0  0  0  0  0
   44.7099   31.4234   39.5086 H   0  0  0  0  0  0  0  0  0  0  0  0
   47.8254   31.2060   36.6937 H   0  0  0  0  0  0  0  0  0  0  0  0
   46.8810   31.6738   34.1887 H   0  0  0  0  0  0  0  0  0  0  0  0
   44.8357   33.2703   34.4549 H   0  0  0  0  0  0  0  0  0  0  0  0
  1  6  1  0
  1 11  1  0
  2  1  1  0
  2  3  1  0
  3  4  1  0
  5  4  1  0
  5  6  1  0
  8  7  2  0
  9  8  1  0
 10 11  1  0
 10  9  2  0
 11 12  2  0
 12  7  1  0
 13  1  1  0
 14 13  2  0
 15 14  1  0
 16 17  1  0
 16 15  2  0
 17 13  1  0
 18 16  1  0
 19 18  1  0
 20 21  1  0
 20 19  2  0
 21 22  1  0
 22 18  2  0
  2 23  1  0
  2 24  1  0
  3 25  1  0
  3 26  1  0
  4 27  1  0
  4 28  1  0
  5 29  1  0
  5 30  1  0
  6 31  1  0
  6 32  1  0
  7 33  1  0
  8 34  1  0
  9 35  1  0
 14 36  1  0
 15 37  1  0
 19 38  1  0
 20 39  1  0
 21 40  1  0
M  ISO  8  23  13  24  13  25  13  26  13  27  13  28  13  29  13  30  13
M  ISO  8  31  13  32  13  33  14  34  14  35  14  36  14  37  14  38  14
M  ISO  2  39  14  40   9
M  END
>  <minimizedAffinity>  (1) 
-6.17662811

>  <minimizedRMSD>  (1) 
0.464609444

$$$$
