
     RDKit          3D

 40 43  0  0  0  0  0  0  0  0999 V2000
   47.4370   34.2070   42.1370 C   0  0  0  0  0  0  0  0  0  0  0  0
   48.3560   35.3110   41.6990 C   0  0  0  0  0  0  0  0  0  0  0  0
   49.7050   35.3010   42.2880 C   0  0  0  0  0  0  0  0  0  0  0  0
   50.3550   33.9530   42.3570 C   0  0  0  0  0  0  0  0  0  0  0  0
   49.4330   32.8200   42.0040 C   0  0  0  0  0  0  0  0  0  0  0  0
   48.1340   33.0340   42.7660 C   0  0  0  0  0  0  0  0  0  0  0  0
   45.2140   34.4950   45.0860 C   0  0  0  0  0  0  0  0  0  0  0  0
   44.5350   35.6870   44.8460 C   0  0  0  0  0  0  0  0  0  0  0  0
   44.8440   36.3860   43.6830 C   0  0  0  0  0  0  0  0  0  0  0  0
   45.7830   35.8700   42.8530 N   0  0  0  0  0  0  0  0  0  0  0  0
   46.4270   34.7020   43.1140 C   0  0  0  0  0  0  0  0  0  0  0  0
   46.1270   34.0230   44.2450 N   0  0  0  0  0  0  0  0  0  0  0  0
   46.7290   33.6820   40.9100 C   0  0  0  0  0  0  0  0  0  0  0  0
   45.4960   33.1330   40.6050 C   0  0  0  0  0  0  0  0  0  0  0  0
   45.2840   32.7880   39.3200 C   0  0  0  0  0  0  0  0  0  0  0  0
   46.2020   32.9580   38.3650 C   0  0  0  0  0  0  0  0  0  0  0  0
   47.6080   33.7090   39.3250 S   0  0  0  0  0  0  0  0  0  0  0  0
   46.3320   32.7230   36.9500 C   0  0  0  0  0  0  0  0  0  0  0  0
   47.4000   32.2510   36.2640 C   0  0  0  0  0  0  0  0  0  0  0  0
   46.9930   32.2240   34.9750 N   0  0  0  0  0  0  0  0  0  0  0  0
   45.7090   32.6700   34.9020 C   0  0  0  0  0  0  0  0  0  0  0  0
   45.2830   32.9910   36.1610 N   0  0  0  0  0  0  0  0  0  0  0  0
   48.4655   35.2439   40.6065 H   0  0  0  0  0  0  0  0  0  0  0  0
   47.8872   36.2426   42.0487 H   0  0  0  0  0  0  0  0  0  0  0  0
   50.3465   35.9587   41.6831 H   0  0  0  0  0  0  0  0  0  0  0  0
   49.5893   35.6404   43.3279 H   0  0  0  0  0  0  0  0  0  0  0  0
   51.2042   33.9406   41.6580 H   0  0  0  0  0  0  0  0  0  0  0  0
   50.6685   33.7998   43.4002 H   0  0  0  0  0  0  0  0  0  0  0  0
   49.2376   32.8180   40.9215 H   0  0  0  0  0  0  0  0  0  0  0  0
   49.8854   31.8540   42.2726 H   0  0  0  0  0  0  0  0  0  0  0  0
   48.3483   33.2461   43.8239 H   0  0  0  0  0  0  0  0  0  0  0  0
   47.5023   32.1346   42.7205 H   0  0  0  0  0  0  0  0  0  0  0  0
   44.9871   33.9270   46.0003 H   0  0  0  0  0  0  0  0  0  0  0  0
   43.7799   36.0633   45.5519 H   0  0  0  0  0  0  0  0  0  0  0  0
   44.3389   37.3334   43.4434 H   0  0  0  0  0  0  0  0  0  0  0  0
   44.7250   32.9852   41.3756 H   0  0  0  0  0  0  0  0  0  0  0  0
   44.3139   32.3478   39.0459 H   0  0  0  0  0  0  0  0  0  0  0  0
   48.3803   31.9554   36.6660 H   0  0  0  0  0  0  0  0  0  0  0  0
   45.1125   32.7577   33.9819 H   0  0  0  0  0  0  0  0  0  0  0  0
   44.3616   33.3570   36.4403 H   0  0  0  0  0  0  0  0  0  0  0  0
  1  6  1  0
  1 11  1  0
  2  1  1  0
  2  3  1  0
  3  4  1  0
  5  4  1  0
  5  6  1  0
  8  7  2  0
  9  8  1  0
 10 11  1  0
 10  9  2  0
 11 12  2  0
 12  7  1  0
 13  1  1  0
 14 13  2  0
 15 14  1  0
 16 15  2  0
 16 17  1  0
 17 13  1  0
 18 16  1  0
 19 18  2  0
 20 19  1  0
 21 20  2  0
 21 22  1  0
 22 18  1  0
  2 23  1  0
  2 24  1  0
  3 25  1  0
  3 26  1  0
  4 27  1  0
  4 28  1  0
  5 29  1  0
  5 30  1  0
  6 31  1  0
  6 32  1  0
  7 33  1  0
  8 34  1  0
  9 35  1  0
 14 36  1  0
 15 37  1  0
 19 38  1  0
 21 39  1  0
 22 40  1  0
M  ISO  8  23  13  24  13  25  13  26  13  27  13  28  13  29  13  30  13
M  ISO  8  31  13  32  13  33  14  34  14  35  14  36  14  37  14  38  14
M  ISO  2  39  14  40   9
M  END
>  <minimizedAffinity>  (1) 
-6.07400656

>  <minimizedRMSD>  (1) 
0.453619272

$$$$
