
     RDKit          3D

 45 47  0  0  0  0  0  0  0  0999 V2000
   47.6030   34.1060   42.2480 C   0  0  0  0  0  0  0  0  0  0  0  0
   48.4380   35.2390   41.7230 C   0  0  0  0  0  0  0  0  0  0  0  0
   49.7690   35.3960   42.3480 C   0  0  0  0  0  0  0  0  0  0  0  0
   50.5280   34.1230   42.5310 C   0  0  0  0  0  0  0  0  0  0  0  0
   49.7050   32.8750   42.2990 C   0  0  0  0  0  0  0  0  0  0  0  0
   48.3800   33.0680   43.0030 C   0  0  0  0  0  0  0  0  0  0  0  0
   45.2520   34.4450   45.0930 C   0  0  0  0  0  0  0  0  0  0  0  0
   44.5380   35.6050   44.7680 C   0  0  0  0  0  0  0  0  0  0  0  0
   44.8670   36.2530   43.5900 C   0  0  0  0  0  0  0  0  0  0  0  0
   45.8560   35.7370   42.8180 N   0  0  0  0  0  0  0  0  0  0  0  0
   46.5320   34.6090   43.1590 C   0  0  0  0  0  0  0  0  0  0  0  0
   46.2120   33.9710   44.3130 N   0  0  0  0  0  0  0  0  0  0  0  0
   46.9690   33.4130   41.0740 C   0  0  0  0  0  0  0  0  0  0  0  0
   45.9350   32.5280   40.8410 C   0  0  0  0  0  0  0  0  0  0  0  0
   45.7020   32.1490   39.5770 C   0  0  0  0  0  0  0  0  0  0  0  0
   46.4410   32.6030   38.5470 C   0  0  0  0  0  0  0  0  0  0  0  0
   47.6370   33.7160   39.4200 S   0  0  0  0  0  0  0  0  0  0  0  0
   46.4290   32.3830   37.1190 C   0  0  0  0  0  0  0  0  0  0  0  0
   46.4820   30.9280   36.7510 C   0  0  0  0  0  0  0  0  0  0  0  0
   47.7050   33.0010   36.5290 C   0  0  0  0  0  0  0  0  0  0  0  0
   45.2890   33.0850   36.4560 C   0  0  0  0  0  0  0  0  0  0  0  0
   48.5873   35.0780   40.6451 H   0  0  0  0  0  0  0  0  0  0  0  0
   47.8829   36.1578   41.9632 H   0  0  0  0  0  0  0  0  0  0  0  0
   50.3690   36.0640   41.7126 H   0  0  0  0  0  0  0  0  0  0  0  0
   49.5926   35.7995   43.3560 H   0  0  0  0  0  0  0  0  0  0  0  0
   51.3702   34.1180   41.8234 H   0  0  0  0  0  0  0  0  0  0  0  0
   50.8554   34.0967   43.5808 H   0  0  0  0  0  0  0  0  0  0  0  0
   49.5401   32.7286   41.2213 H   0  0  0  0  0  0  0  0  0  0  0  0
   50.2262   31.9885   42.6895 H   0  0  0  0  0  0  0  0  0  0  0  0
   48.5513   33.4070   44.0354 H   0  0  0  0  0  0  0  0  0  0  0  0
   47.8221   32.1205   43.0357 H   0  0  0  0  0  0  0  0  0  0  0  0
   45.0084   33.9116   46.0237 H   0  0  0  0  0  0  0  0  0  0  0  0
   43.7437   35.9877   45.4257 H   0  0  0  0  0  0  0  0  0  0  0  0
   44.3373   37.1678   43.2860 H   0  0  0  0  0  0  0  0  0  0  0  0
   45.3203   32.1452   41.6690 H   0  0  0  0  0  0  0  0  0  0  0  0
   44.8814   31.4450   39.3745 H   0  0  0  0  0  0  0  0  0  0  0  0
   46.5042   30.3188   37.6666 H   0  0  0  0  0  0  0  0  0  0  0  0
   45.5928   30.6670   36.1584 H   0  0  0  0  0  0  0  0  0  0  0  0
   47.3879   30.7324   36.1584 H   0  0  0  0  0  0  0  0  0  0  0  0
   48.3683   33.3222   37.3456 H   0  0  0  0  0  0  0  0  0  0  0  0
   48.2219   32.2534   35.9094 H   0  0  0  0  0  0  0  0  0  0  0  0
   47.4389   33.8700   35.9094 H   0  0  0  0  0  0  0  0  0  0  0  0
   44.6173   33.4986   37.2227 H   0  0  0  0  0  0  0  0  0  0  0  0
   45.6761   33.9014   35.8286 H   0  0  0  0  0  0  0  0  0  0  0  0
   44.7342   32.3719   35.8286 H   0  0  0  0  0  0  0  0  0  0  0  0
  1  6  1  0
  1 11  1  0
  2  1  1  0
  2  3  1  0
  3  4  1  0
  5  4  1  0
  5  6  1  0
  8  7  2  0
  9  8  1  0
 10 11  1  0
 10  9  2  0
 11 12  2  0
 12  7  1  0
 13  1  1  0
 14 13  2  0
 15 14  1  0
 16 17  1  0
 16 15  2  0
 17 13  1  0
 18 16  1  0
 19 18  1  0
 20 18  1  0
 21 18  1  0
  2 22  1  0
  2 23  1  0
  3 24  1  0
  3 25  1  0
  4 26  1  0
  4 27  1  0
  5 28  1  0
  5 29  1  0
  6 30  1  0
  6 31  1  0
  7 32  1  0
  8 33  1  0
  9 34  1  0
 14 35  1  0
 15 36  1  0
 19 37  1  0
 19 38  1  0
 19 39  1  0
 20 40  1  0
 20 41  1  0
 20 42  1  0
 21 43  1  0
 21 44  1  0
 21 45  1  0
M  ISO  8  22  13  23  13  24  13  25  13  26  13  27  13  28  13  29  13
M  ISO  8  30  13  31  13  32  14  33  14  34  14  35  14  36  14  37   8
M  ISO  8  38   8  39   8  40   8  41   8  42   8  43   8  44   8  45   8
M  END
>  <minimizedAffinity>  (1) 
-5.56128216

>  <minimizedRMSD>  (1) 
0.533073902

$$$$
