
     RDKit          3D

 39 41  0  0  0  0  0  0  0  0999 V2000
   47.5800   34.1910   42.1630 C   0  0  0  0  0  0  0  0  0  0  0  0
   48.4990   35.3150   41.7760 C   0  0  0  0  0  0  0  0  0  0  0  0
   49.8290   35.3080   42.4270 C   0  0  0  0  0  0  0  0  0  0  0  0
   50.4910   33.9740   42.4930 C   0  0  0  0  0  0  0  0  0  0  0  0
   49.5940   32.8250   42.0940 C   0  0  0  0  0  0  0  0  0  0  0  0
   48.2690   33.0200   42.8040 C   0  0  0  0  0  0  0  0  0  0  0  0
   45.2770   34.4220   45.0530 C   0  0  0  0  0  0  0  0  0  0  0  0
   44.5570   35.5810   44.7950 C   0  0  0  0  0  0  0  0  0  0  0  0
   44.8670   36.2830   43.6280 C   0  0  0  0  0  0  0  0  0  0  0  0
   45.8440   35.8010   42.8180 N   0  0  0  0  0  0  0  0  0  0  0  0
   46.5250   34.6620   43.1060 C   0  0  0  0  0  0  0  0  0  0  0  0
   46.2270   33.9740   44.2450 N   0  0  0  0  0  0  0  0  0  0  0  0
   46.9260   33.6780   40.9070 C   0  0  0  0  0  0  0  0  0  0  0  0
   45.7870   32.9850   40.5530 C   0  0  0  0  0  0  0  0  0  0  0  0
   45.5850   32.7230   39.2550 C   0  0  0  0  0  0  0  0  0  0  0  0
   46.4480   33.1140   38.3070 C   0  0  0  0  0  0  0  0  0  0  0  0
   47.7430   33.9710   39.3180 S   0  0  0  0  0  0  0  0  0  0  0  0
   46.5960   33.0360   36.8540 C   0  0  0  0  0  0  0  0  0  0  0  0
   48.0620   33.1380   36.4480 C   0  0  0  0  0  0  0  0  0  0  0  0
   48.6546   35.2655   40.6882 H   0  0  0  0  0  0  0  0  0  0  0  0
   48.0041   36.2376   42.1134 H   0  0  0  0  0  0  0  0  0  0  0  0
   50.4870   35.9881   41.8662 H   0  0  0  0  0  0  0  0  0  0  0  0
   49.6632   35.6208   43.4685 H   0  0  0  0  0  0  0  0  0  0  0  0
   51.3603   33.9850   41.8190 H   0  0  0  0  0  0  0  0  0  0  0  0
   50.7731   33.8091   43.5433 H   0  0  0  0  0  0  0  0  0  0  0  0
   49.4413   32.8274   41.0047 H   0  0  0  0  0  0  0  0  0  0  0  0
   50.0472   31.8622   42.3727 H   0  0  0  0  0  0  0  0  0  0  0  0
   48.4414   33.2240   43.8711 H   0  0  0  0  0  0  0  0  0  0  0  0
   47.6495   32.1146   42.7228 H   0  0  0  0  0  0  0  0  0  0  0  0
   45.0493   33.8521   45.9659 H   0  0  0  0  0  0  0  0  0  0  0  0
   43.7735   35.9323   45.4825 H   0  0  0  0  0  0  0  0  0  0  0  0
   44.3302   37.2079   43.3704 H   0  0  0  0  0  0  0  0  0  0  0  0
   45.0650   32.6568   41.3152 H   0  0  0  0  0  0  0  0  0  0  0  0
   44.6822   32.1694   38.9577 H   0  0  0  0  0  0  0  0  0  0  0  0
   46.1913   32.0756   36.5022 H   0  0  0  0  0  0  0  0  0  0  0  0
   46.0475   33.8746   36.4003 H   0  0  0  0  0  0  0  0  0  0  0  0
   48.6901   33.1817   37.3500 H   0  0  0  0  0  0  0  0  0  0  0  0
   48.3392   32.2570   35.8505 H   0  0  0  0  0  0  0  0  0  0  0  0
   48.2145   34.0489   35.8505 H   0  0  0  0  0  0  0  0  0  0  0  0
  1  6  1  0
  1 11  1  0
  2  1  1  0
  2  3  1  0
  3  4  1  0
  5  4  1  0
  5  6  1  0
  8  7  2  0
  9  8  1  0
 10 11  1  0
 10  9  2  0
 11 12  2  0
 12  7  1  0
 13  1  1  0
 14 13  2  0
 15 14  1  0
 16 15  2  0
 16 17  1  0
 17 13  1  0
 18 16  1  0
 19 18  1  0
  2 20  1  0
  2 21  1  0
  3 22  1  0
  3 23  1  0
  4 24  1  0
  4 25  1  0
  5 26  1  0
  5 27  1  0
  6 28  1  0
  6 29  1  0
  7 30  1  0
  8 31  1  0
  9 32  1  0
 14 33  1  0
 15 34  1  0
 18 35  1  0
 18 36  1  0
 19 37  1  0
 19 38  1  0
 19 39  1  0
M  ISO  8  20  13  21  13  22  13  23  13  24  13  25  13  26  13  27  13
M  ISO  8  28  13  29  13  30  14  31  14  32  14  33  14  34  14  35   8
M  ISO  4  36   8  37   8  38   8  39   8
M  END
>  <minimizedAffinity>  (1) 
-5.51527691

>  <minimizedRMSD>  (1) 
0.308639735

$$$$
