
     RDKit          3D

 32 35  0  0  0  0  0  0  0  0999 V2000
   45.3270   33.7840   41.0250 C   0  0  0  0  0  0  0  0  0  0  0  0
   46.0860   34.4300   42.0010 C   0  0  0  0  0  0  0  0  0  0  0  0
   47.2970   34.7270   41.4890 N   0  0  0  0  0  0  0  0  0  0  0  0
   47.3160   34.2870   40.2160 C   0  0  0  0  0  0  0  0  0  0  0  0
   48.3270   34.3550   39.2770 C   0  0  0  0  0  0  0  0  0  0  0  0
   48.0770   33.8150   38.0250 C   0  0  0  0  0  0  0  0  0  0  0  0
   46.8850   33.2060   37.6370 C   0  0  0  0  0  0  0  0  0  0  0  0
   45.9350   33.1840   38.6380 C   0  0  0  0  0  0  0  0  0  0  0  0
   46.0950   33.6880   39.8900 C   0  0  0  0  0  0  0  0  0  0  0  0
   41.6050   33.5930   40.8670 C   0  0  0  0  0  0  0  0  0  0  0  0
   42.9130   34.0860   40.7170 C   0  0  0  0  0  0  0  0  0  0  0  0
   43.9550   33.2910   41.1720 C   0  0  0  0  0  0  0  0  0  0  0  0
   43.6820   32.0750   41.7430 N   0  0  0  0  0  0  0  0  0  0  0  0
   42.3980   31.6420   41.8650 C   0  0  0  0  0  0  0  0  0  0  0  0
   41.3620   32.3860   41.4350 N   0  0  0  0  0  0  0  0  0  0  0  0
   45.5910   34.7050   43.3430 C   0  0  0  0  0  0  0  0  0  0  0  0
   44.8790   35.8380   43.7060 C   0  0  0  0  0  0  0  0  0  0  0  0
   44.4380   36.0320   45.0040 C   0  0  0  0  0  0  0  0  0  0  0  0
   44.7120   35.0840   45.9390 N   0  0  0  0  0  0  0  0  0  0  0  0
   45.4080   33.9830   45.5700 C   0  0  0  0  0  0  0  0  0  0  0  0
   45.8390   33.7930   44.3020 N   0  0  0  0  0  0  0  0  0  0  0  0
   48.0666   35.2030   41.9809 H   0  0  0  0  0  0  0  0  0  0  0  0
   49.2950   34.8206   39.5141 H   0  0  0  0  0  0  0  0  0  0  0  0
   48.8832   33.8717   37.2788 H   0  0  0  0  0  0  0  0  0  0  0  0
   46.7182   32.7854   36.6344 H   0  0  0  0  0  0  0  0  0  0  0  0
   44.9663   32.7191   38.4025 H   0  0  0  0  0  0  0  0  0  0  0  0
   40.7585   34.2010   40.5152 H   0  0  0  0  0  0  0  0  0  0  0  0
   43.1033   35.0663   40.2557 H   0  0  0  0  0  0  0  0  0  0  0  0
   42.2022   30.6623   42.3252 H   0  0  0  0  0  0  0  0  0  0  0  0
   44.6593   36.6009   42.9446 H   0  0  0  0  0  0  0  0  0  0  0  0
   43.8755   36.9379   45.2741 H   0  0  0  0  0  0  0  0  0  0  0  0
   45.6306   33.2168   46.3272 H   0  0  0  0  0  0  0  0  0  0  0  0
  1 12  1  0
  1  2  2  0
  2 16  1  0
  3  2  1  0
  4  3  1  0
  5  4  2  0
  6  5  1  0
  7  6  2  0
  7  8  1  0
  8  9  2  0
  9  4  1  0
  9  1  1  0
 10 15  2  0
 11 10  1  0
 11 12  2  0
 12 13  1  0
 13 14  2  0
 15 14  1  0
 16 17  2  0
 16 21  1  0
 17 18  1  0
 18 19  2  0
 20 19  1  0
 21 20  2  0
  3 22  1  0
  5 23  1  0
  6 24  1  0
  7 25  1  0
  8 26  1  0
 10 27  1  0
 11 28  1  0
 14 29  1  0
 17 30  1  0
 18 31  1  0
 20 32  1  0
M  ISO  8  22   9  23  14  24  14  25  14  26  14  27  14  28  14  29  14
M  ISO  3  30  14  31  14  32  14
M  END
>  <minimizedAffinity>  (1) 
-5.50183535

>  <minimizedRMSD>  (1) 
3.89469242

$$$$
