
     RDKit          3D

 34 36  0  0  0  0  0  0  0  0999 V2000
   47.5380   34.1300   42.2270 C   0  0  0  0  0  0  0  0  0  0  0  0
   48.4200   35.2570   41.7580 C   0  0  0  0  0  0  0  0  0  0  0  0
   49.7630   35.3070   42.3750 C   0  0  0  0  0  0  0  0  0  0  0  0
   50.4520   33.9960   42.4790 C   0  0  0  0  0  0  0  0  0  0  0  0
   49.5680   32.8170   42.1470 C   0  0  0  0  0  0  0  0  0  0  0  0
   48.2570   33.0090   42.8880 C   0  0  0  0  0  0  0  0  0  0  0  0
   45.2660   34.4490   45.1300 C   0  0  0  0  0  0  0  0  0  0  0  0
   44.5530   35.6130   44.8530 C   0  0  0  0  0  0  0  0  0  0  0  0
   44.8510   36.2930   43.6710 C   0  0  0  0  0  0  0  0  0  0  0  0
   45.8150   35.7830   42.8600 N   0  0  0  0  0  0  0  0  0  0  0  0
   46.4910   34.6440   43.1630 C   0  0  0  0  0  0  0  0  0  0  0  0
   46.2050   33.9710   44.3210 N   0  0  0  0  0  0  0  0  0  0  0  0
   46.8520   33.5500   41.0070 C   0  0  0  0  0  0  0  0  0  0  0  0
   45.7560   32.7610   40.7260 C   0  0  0  0  0  0  0  0  0  0  0  0
   45.4950   32.4760   39.4430 C   0  0  0  0  0  0  0  0  0  0  0  0
   46.2660   32.9380   38.4430 C   0  0  0  0  0  0  0  0  0  0  0  0
   47.5620   33.9190   39.3690 S   0  0  0  0  0  0  0  0  0  0  0  0
   46.2060   32.7580   36.6980 S   0  0  0  0  0  0  0  0  0  0  0  0
   48.5493   35.1573   40.6702 H   0  0  0  0  0  0  0  0  0  0  0  0
   47.9125   36.1856   42.0582 H   0  0  0  0  0  0  0  0  0  0  0  0
   50.3922   35.9767   41.7703 H   0  0  0  0  0  0  0  0  0  0  0  0
   49.6160   35.6611   43.4060 H   0  0  0  0  0  0  0  0  0  0  0  0
   51.3055   33.9963   41.7851 H   0  0  0  0  0  0  0  0  0  0  0  0
   50.7633   33.8789   43.5275 H   0  0  0  0  0  0  0  0  0  0  0  0
   49.3849   32.7779   41.0631 H   0  0  0  0  0  0  0  0  0  0  0  0
   50.0491   31.8744   42.4471 H   0  0  0  0  0  0  0  0  0  0  0  0
   48.4525   33.2561   43.9419 H   0  0  0  0  0  0  0  0  0  0  0  0
   47.6548   32.0889   42.8606 H   0  0  0  0  0  0  0  0  0  0  0  0
   45.0421   33.9024   46.0579 H   0  0  0  0  0  0  0  0  0  0  0  0
   43.7807   35.9841   45.5428 H   0  0  0  0  0  0  0  0  0  0  0  0
   44.3193   37.2179   43.4028 H   0  0  0  0  0  0  0  0  0  0  0  0
   45.1143   32.3766   41.5325 H   0  0  0  0  0  0  0  0  0  0  0  0
   44.6259   31.8466   39.2011 H   0  0  0  0  0  0  0  0  0  0  0  0
   45.7843   31.4930   36.3836 H   0  0  0  0  0  0  0  0  0  0  0  0
  1  6  1  0
  1 11  1  0
  2  1  1  0
  2  3  1  0
  3  4  1  0
  5  4  1  0
  5  6  1  0
  8  7  2  0
  9  8  1  0
 10 11  1  0
 10  9  2  0
 11 12  2  0
 12  7  1  0
 13  1  1  0
 14 13  2  0
 15 14  1  0
 16 17  1  0
 16 15  2  0
 17 13  1  0
 18 16  1  0
  2 19  1  0
  2 20  1  0
  3 21  1  0
  3 22  1  0
  4 23  1  0
  4 24  1  0
  5 25  1  0
  5 26  1  0
  6 27  1  0
  6 28  1  0
  7 29  1  0
  8 30  1  0
  9 31  1  0
 14 32  1  0
 15 33  1  0
 18 34  1  0
M  ISO  8  19  13  20  13  21  13  22  13  23  13  24  13  25  13  26  13
M  ISO  8  27  13  28  13  29  14  30  14  31  14  32  14  33  14  34  11
M  END
>  <minimizedAffinity>  (1) 
-5.47265673

>  <minimizedRMSD>  (1) 
0.1160703

$$$$
