
     RDKit          3D

 33 36  0  0  0  0  0  0  0  0999 V2000
   45.1690   33.7000   40.7950 C   0  0  0  0  0  0  0  0  0  0  0  0
   45.9360   34.2750   41.8020 C   0  0  0  0  0  0  0  0  0  0  0  0
   47.1640   34.5410   41.3310 N   0  0  0  0  0  0  0  0  0  0  0  0
   47.1970   34.1470   40.0410 C   0  0  0  0  0  0  0  0  0  0  0  0
   48.2360   34.2110   39.1310 C   0  0  0  0  0  0  0  0  0  0  0  0
   48.0080   33.7340   37.8640 C   0  0  0  0  0  0  0  0  0  0  0  0
   46.7970   33.1890   37.4280 C   0  0  0  0  0  0  0  0  0  0  0  0
   45.8080   33.1590   38.3860 C   0  0  0  0  0  0  0  0  0  0  0  0
   45.9580   33.6120   39.6650 C   0  0  0  0  0  0  0  0  0  0  0  0
   41.4610   33.6170   40.4100 C   0  0  0  0  0  0  0  0  0  0  0  0
   42.7970   34.0570   40.3100 C   0  0  0  0  0  0  0  0  0  0  0  0
   43.7910   33.2640   40.8880 C   0  0  0  0  0  0  0  0  0  0  0  0
   43.4200   32.1000   41.5240 N   0  0  0  0  0  0  0  0  0  0  0  0
   42.1190   31.7240   41.5900 C   0  0  0  0  0  0  0  0  0  0  0  0
   41.1420   32.4640   41.0450 N   0  0  0  0  0  0  0  0  0  0  0  0
   45.5260   34.5660   43.1730 C   0  0  0  0  0  0  0  0  0  0  0  0
   44.8510   35.7370   43.4510 C   0  0  0  0  0  0  0  0  0  0  0  0
   44.4590   36.0110   44.7680 C   0  0  0  0  0  0  0  0  0  0  0  0
   44.7780   35.0690   45.7420 C   0  0  0  0  0  0  0  0  0  0  0  0
   45.4610   33.8950   45.4290 C   0  0  0  0  0  0  0  0  0  0  0  0
   45.8290   33.6560   44.1400 N   0  0  0  0  0  0  0  0  0  0  0  0
   47.9394   34.9678   41.8578 H   0  0  0  0  0  0  0  0  0  0  0  0
   49.2131   34.6303   39.4129 H   0  0  0  0  0  0  0  0  0  0  0  0
   48.8361   33.7842   37.1416 H   0  0  0  0  0  0  0  0  0  0  0  0
   46.6464   32.8150   36.4045 H   0  0  0  0  0  0  0  0  0  0  0  0
   44.8309   32.7417   38.1012 H   0  0  0  0  0  0  0  0  0  0  0  0
   40.6601   34.2237   39.9623 H   0  0  0  0  0  0  0  0  0  0  0  0
   43.0484   34.9949   39.7932 H   0  0  0  0  0  0  0  0  0  0  0  0
   41.8578   30.7873   42.1041 H   0  0  0  0  0  0  0  0  0  0  0  0
   44.6225   36.4498   42.6450 H   0  0  0  0  0  0  0  0  0  0  0  0
   43.9197   36.9353   45.0226 H   0  0  0  0  0  0  0  0  0  0  0  0
   44.4836   35.2559   46.7852 H   0  0  0  0  0  0  0  0  0  0  0  0
   45.7010   33.1667   46.2177 H   0  0  0  0  0  0  0  0  0  0  0  0
  1 12  1  0
  1  2  2  0
  2 16  1  0
  3  2  1  0
  4  3  1  0
  5  4  2  0
  6  5  1  0
  7  6  2  0
  7  8  1  0
  8  9  2  0
  9  4  1  0
  9  1  1  0
 10 15  2  0
 11 10  1  0
 11 12  2  0
 12 13  1  0
 13 14  2  0
 15 14  1  0
 16 17  2  0
 16 21  1  0
 17 18  1  0
 18 19  2  0
 20 19  1  0
 21 20  2  0
  3 22  1  0
  5 23  1  0
  6 24  1  0
  7 25  1  0
  8 26  1  0
 10 27  1  0
 11 28  1  0
 14 29  1  0
 17 30  1  0
 18 31  1  0
 19 32  1  0
 20 33  1  0
M  ISO  8  22   9  23  14  24  14  25  14  26  14  27  14  28  14  29  14
M  ISO  4  30  14  31  14  32  14  33  14
M  END
>  <minimizedAffinity>  (1) 
-5.39370108

>  <minimizedRMSD>  (1) 
4.10570621

$$$$
