
     RDKit          3D

 29 32  0  0  0  0  0  0  0  0999 V2000
   45.1730   33.9260   41.4340 C   0  0  0  0  0  0  0  0  0  0  0  0
   45.8420   34.6110   42.4260 C   0  0  0  0  0  0  0  0  0  0  0  0
   47.0650   34.9440   42.0120 N   0  0  0  0  0  0  0  0  0  0  0  0
   47.1970   34.4790   40.7510 C   0  0  0  0  0  0  0  0  0  0  0  0
   48.2730   34.5670   39.8820 C   0  0  0  0  0  0  0  0  0  0  0  0
   48.1450   34.0020   38.6390 C   0  0  0  0  0  0  0  0  0  0  0  0
   47.0140   33.3450   38.1710 C   0  0  0  0  0  0  0  0  0  0  0  0
   45.9790   33.2970   39.0940 C   0  0  0  0  0  0  0  0  0  0  0  0
   46.0230   33.8290   40.3440 C   0  0  0  0  0  0  0  0  0  0  0  0
   41.4590   33.6830   41.0960 C   0  0  0  0  0  0  0  0  0  0  0  0
   42.7640   34.2120   41.0460 C   0  0  0  0  0  0  0  0  0  0  0  0
   43.8210   33.3900   41.4800 C   0  0  0  0  0  0  0  0  0  0  0  0
   43.5370   32.1240   41.9290 N   0  0  0  0  0  0  0  0  0  0  0  0
   42.2550   31.6750   41.9510 C   0  0  0  0  0  0  0  0  0  0  0  0
   41.2270   32.4340   41.5440 N   0  0  0  0  0  0  0  0  0  0  0  0
   45.3330   34.9460   43.7500 C   0  0  0  0  0  0  0  0  0  0  0  0
   44.8210   36.1360   44.1070 N   0  0  0  0  0  0  0  0  0  0  0  0
   44.4570   36.1180   45.3540 O   0  0  0  0  0  0  0  0  0  0  0  0
   44.7160   34.9300   45.8470 C   0  0  0  0  0  0  0  0  0  0  0  0
   45.2570   34.2000   44.8680 N   0  0  0  0  0  0  0  0  0  0  0  0
   47.7751   35.4588   42.5521 H   0  0  0  0  0  0  0  0  0  0  0  0
   49.2020   35.0749   40.1804 H   0  0  0  0  0  0  0  0  0  0  0  0
   49.0062   34.0748   37.9586 H   0  0  0  0  0  0  0  0  0  0  0  0
   46.9455   32.9050   37.1652 H   0  0  0  0  0  0  0  0  0  0  0  0
   45.0515   32.7893   38.7907 H   0  0  0  0  0  0  0  0  0  0  0  0
   40.6131   34.3021   40.7627 H   0  0  0  0  0  0  0  0  0  0  0  0
   42.9504   35.2325   40.6803 H   0  0  0  0  0  0  0  0  0  0  0  0
   42.0537   30.6564   42.3142 H   0  0  0  0  0  0  0  0  0  0  0  0
   44.5230   34.5965   46.8773 H   0  0  0  0  0  0  0  0  0  0  0  0
  1 12  1  0
  1  2  2  0
  2 16  1  0
  3  2  1  0
  4  3  1  0
  5  4  2  0
  6  5  1  0
  7  6  2  0
  7  8  1  0
  8  9  2  0
  9  4  1  0
  9  1  1  0
 10 15  2  0
 11 10  1  0
 11 12  2  0
 12 13  1  0
 13 14  2  0
 15 14  1  0
 16 17  2  0
 16 20  1  0
 17 18  1  0
 18 19  1  0
 20 19  2  0
  3 21  1  0
  5 22  1  0
  6 23  1  0
  7 24  1  0
  8 25  1  0
 10 26  1  0
 11 27  1  0
 14 28  1  0
 19 29  1  0
M  ISO  8  21   9  22  14  23  14  24  14  25  14  26  14  27  14  28  14
M  ISO  1  29  14
M  END
>  <minimizedAffinity>  (1) 
-5.49700975

>  <minimizedRMSD>  (1) 
3.87365079

$$$$
