
     RDKit          3D

 26 28  0  0  0  0  0  0  0  0999 V2000
   47.0670   34.5590   41.4590 C   0  0  0  0  0  0  0  0  0  0  0  0
   48.3640   34.9890   41.2100 C   0  0  0  0  0  0  0  0  0  0  0  0
   48.6720   34.6910   39.9370 N   0  0  0  0  0  0  0  0  0  0  0  0
   47.5970   34.0820   39.3790 C   0  0  0  0  0  0  0  0  0  0  0  0
   47.4240   33.5910   38.0980 C   0  0  0  0  0  0  0  0  0  0  0  0
   46.2150   33.0140   37.7970 C   0  0  0  0  0  0  0  0  0  0  0  0
   45.1460   32.8810   38.6760 C   0  0  0  0  0  0  0  0  0  0  0  0
   45.3970   33.3950   39.9340 C   0  0  0  0  0  0  0  0  0  0  0  0
   46.5670   33.9840   40.3170 C   0  0  0  0  0  0  0  0  0  0  0  0
   44.7710   35.8860   44.0990 C   0  0  0  0  0  0  0  0  0  0  0  0
   45.4640   35.7660   42.8850 C   0  0  0  0  0  0  0  0  0  0  0  0
   46.3410   34.6900   42.7260 C   0  0  0  0  0  0  0  0  0  0  0  0
   46.4810   33.8090   43.7600 N   0  0  0  0  0  0  0  0  0  0  0  0
   45.7990   33.9540   44.9170 C   0  0  0  0  0  0  0  0  0  0  0  0
   44.9510   34.9780   45.0940 N   0  0  0  0  0  0  0  0  0  0  0  0
   49.2440   35.6590   42.1850 C   0  0  0  0  0  0  0  0  0  0  0  0
   50.0850   34.8810   42.7320 O   0  0  0  0  0  0  0  0  0  0  0  0
   49.5670   34.8901   39.4676 H   0  0  0  0  0  0  0  0  0  0  0  0
   48.2254   33.6601   37.3477 H   0  0  0  0  0  0  0  0  0  0  0  0
   46.0812   32.6251   36.7768 H   0  0  0  0  0  0  0  0  0  0  0  0
   44.1913   32.4113   38.3967 H   0  0  0  0  0  0  0  0  0  0  0  0
   44.5939   33.3241   40.6824 H   0  0  0  0  0  0  0  0  0  0  0  0
   44.0743   36.7243   44.2471 H   0  0  0  0  0  0  0  0  0  0  0  0
   45.3205   36.5004   42.0788 H   0  0  0  0  0  0  0  0  0  0  0  0
   45.9411   33.2218   45.7255 H   0  0  0  0  0  0  0  0  0  0  0  0
   49.1780   36.7323   42.4167 H   0  0  0  0  0  0  0  0  0  0  0  0
  1 12  1  0
  2  1  2  0
  2 16  1  0
  3  2  1  0
  4  3  1  0
  4  9  2  0
  5  4  1  0
  6  5  2  0
  6  7  1  0
  7  8  2  0
  8  9  1  0
  9  1  1  0
 10 15  2  0
 11 10  1  0
 12 11  2  0
 12 13  1  0
 13 14  2  0
 14 15  1  0
 16 17  2  0
  3 18  1  0
  5 19  1  0
  6 20  1  0
  7 21  1  0
  8 22  1  0
 10 23  1  0
 11 24  1  0
 14 25  1  0
 16 26  1  0
M  ISO  8  18   9  19  14  20  14  21  14  22  14  23  14  24  14  25  14
M  ISO  1  26   6
M  END
>  <minimizedAffinity>  (1) 
-5.33241606

>  <minimizedRMSD>  (1) 
0.718927085

$$$$
