
     RDKit          3D

 37 40  0  0  0  0  0  0  0  0999 V2000
   46.9570   34.4950   41.2500 C   0  0  0  0  0  0  0  0  0  0  0  0
   48.2330   34.8840   40.9210 C   0  0  0  0  0  0  0  0  0  0  0  0
   48.5030   34.5320   39.6610 N   0  0  0  0  0  0  0  0  0  0  0  0
   47.4100   33.9160   39.1700 C   0  0  0  0  0  0  0  0  0  0  0  0
   47.1700   33.3650   37.9220 C   0  0  0  0  0  0  0  0  0  0  0  0
   45.9500   32.7920   37.6890 C   0  0  0  0  0  0  0  0  0  0  0  0
   44.9080   32.7150   38.6170 C   0  0  0  0  0  0  0  0  0  0  0  0
   45.2170   33.2850   39.8380 C   0  0  0  0  0  0  0  0  0  0  0  0
   46.4070   33.8720   40.1450 C   0  0  0  0  0  0  0  0  0  0  0  0
   44.8600   35.9760   43.9630 C   0  0  0  0  0  0  0  0  0  0  0  0
   45.5060   35.8160   42.7150 C   0  0  0  0  0  0  0  0  0  0  0  0
   46.2780   34.6900   42.5240 C   0  0  0  0  0  0  0  0  0  0  0  0
   46.3850   33.7750   43.5580 N   0  0  0  0  0  0  0  0  0  0  0  0
   45.7440   33.9780   44.7360 C   0  0  0  0  0  0  0  0  0  0  0  0
   44.9870   35.0660   44.9430 N   0  0  0  0  0  0  0  0  0  0  0  0
   49.1570   35.5850   41.8270 C   0  0  0  0  0  0  0  0  0  0  0  0
   49.7450   34.6480   42.8660 C   0  0  0  0  0  0  0  0  0  0  0  0
   50.2110   33.3830   42.2990 C   0  0  0  0  0  0  0  0  0  0  0  0
   49.5750   32.1580   42.2770 C   0  0  0  0  0  0  0  0  0  0  0  0
   50.4250   31.3140   41.6360 N   0  0  0  0  0  0  0  0  0  0  0  0
   51.5340   31.9980   41.2830 C   0  0  0  0  0  0  0  0  0  0  0  0
   51.4110   33.2820   41.6890 N   0  0  0  0  0  0  0  0  0  0  0  0
   49.3853   34.7007   39.1570 H   0  0  0  0  0  0  0  0  0  0  0  0
   47.9412   33.3877   37.1379 H   0  0  0  0  0  0  0  0  0  0  0  0
   45.7755   32.3579   36.6934 H   0  0  0  0  0  0  0  0  0  0  0  0
   43.9371   32.2468   38.3975 H   0  0  0  0  0  0  0  0  0  0  0  0
   44.4438   33.2628   40.6201 H   0  0  0  0  0  0  0  0  0  0  0  0
   44.2386   36.8671   44.1353 H   0  0  0  0  0  0  0  0  0  0  0  0
   45.3956   36.5681   41.9200 H   0  0  0  0  0  0  0  0  0  0  0  0
   45.8472   33.2339   45.5395 H   0  0  0  0  0  0  0  0  0  0  0  0
   49.9759   36.0191   41.2346 H   0  0  0  0  0  0  0  0  0  0  0  0
   48.5920   36.3685   42.3532 H   0  0  0  0  0  0  0  0  0  0  0  0
   50.5965   35.1502   43.3485 H   0  0  0  0  0  0  0  0  0  0  0  0
   48.9460   34.4112   43.5840 H   0  0  0  0  0  0  0  0  0  0  0  0
   48.5856   31.9156   42.6922 H   0  0  0  0  0  0  0  0  0  0  0  0
   52.3997   31.5779   40.7501 H   0  0  0  0  0  0  0  0  0  0  0  0
   52.0996   34.0368   41.5582 H   0  0  0  0  0  0  0  0  0  0  0  0
  1 12  1  0
  2  1  2  0
  2 16  1  0
  3  2  1  0
  4  3  1  0
  4  9  2  0
  5  4  1  0
  6  5  2  0
  6  7  1  0
  7  8  2  0
  8  9  1  0
  9  1  1  0
 10 15  2  0
 11 10  1  0
 12 11  2  0
 12 13  1  0
 13 14  2  0
 14 15  1  0
 16 17  1  0
 18 17  1  0
 19 18  2  0
 20 19  1  0
 21 20  2  0
 21 22  1  0
 22 18  1  0
  3 23  1  0
  5 24  1  0
  6 25  1  0
  7 26  1  0
  8 27  1  0
 10 28  1  0
 11 29  1  0
 14 30  1  0
 16 31  1  0
 16 32  1  0
 17 33  1  0
 17 34  1  0
 19 35  1  0
 21 36  1  0
 22 37  1  0
M  ISO  8  23   9  24  14  25  14  26  14  27  14  28  14  29  14  30  14
M  ISO  7  31   8  32   8  33   8  34   8  35  14  36  14  37   9
M  END
>  <minimizedAffinity>  (1) 
-6.0366354

>  <minimizedRMSD>  (1) 
0.956765652

$$$$
