
     RDKit          3D

 39 42  0  0  0  0  0  0  0  0999 V2000
   46.8110   34.4720   41.2400 C   0  0  0  0  0  0  0  0  0  0  0  0
   48.1150   34.8020   40.9150 C   0  0  0  0  0  0  0  0  0  0  0  0
   48.3850   34.4130   39.6610 N   0  0  0  0  0  0  0  0  0  0  0  0
   47.2730   33.8360   39.1710 C   0  0  0  0  0  0  0  0  0  0  0  0
   47.0260   33.2750   37.9370 C   0  0  0  0  0  0  0  0  0  0  0  0
   45.7720   32.7440   37.6970 C   0  0  0  0  0  0  0  0  0  0  0  0
   44.7320   32.7340   38.6100 C   0  0  0  0  0  0  0  0  0  0  0  0
   45.0400   33.3090   39.8260 C   0  0  0  0  0  0  0  0  0  0  0  0
   46.2570   33.8550   40.1430 C   0  0  0  0  0  0  0  0  0  0  0  0
   44.8480   36.1870   43.9150 C   0  0  0  0  0  0  0  0  0  0  0  0
   45.5030   35.9350   42.7030 C   0  0  0  0  0  0  0  0  0  0  0  0
   46.1370   34.7220   42.5010 C   0  0  0  0  0  0  0  0  0  0  0  0
   46.1000   33.7980   43.5070 N   0  0  0  0  0  0  0  0  0  0  0  0
   45.4570   34.0700   44.6750 C   0  0  0  0  0  0  0  0  0  0  0  0
   44.8340   35.2580   44.8800 N   0  0  0  0  0  0  0  0  0  0  0  0
   49.0720   35.4850   41.8230 C   0  0  0  0  0  0  0  0  0  0  0  0
   49.4610   34.5740   42.9680 C   0  0  0  0  0  0  0  0  0  0  0  0
   49.9150   33.2410   42.4900 C   0  0  0  0  0  0  0  0  0  0  0  0
   51.0990   33.0120   41.8210 C   0  0  0  0  0  0  0  0  0  0  0  0
   51.3530   31.7210   41.4560 C   0  0  0  0  0  0  0  0  0  0  0  0
   50.4900   30.6690   41.7260 C   0  0  0  0  0  0  0  0  0  0  0  0
   49.3120   30.9430   42.4010 C   0  0  0  0  0  0  0  0  0  0  0  0
   49.0720   32.2180   42.7560 N   0  0  0  0  0  0  0  0  0  0  0  0
   49.2791   34.5337   39.1642 H   0  0  0  0  0  0  0  0  0  0  0  0
   47.8066   33.2502   37.1624 H   0  0  0  0  0  0  0  0  0  0  0  0
   45.5877   32.2972   36.7089 H   0  0  0  0  0  0  0  0  0  0  0  0
   43.7445   32.3045   38.3856 H   0  0  0  0  0  0  0  0  0  0  0  0
   44.2538   33.3308   40.5951 H   0  0  0  0  0  0  0  0  0  0  0  0
   44.3433   37.1512   44.0751 H   0  0  0  0  0  0  0  0  0  0  0  0
   45.5134   36.7003   41.9129 H   0  0  0  0  0  0  0  0  0  0  0  0
   45.4419   33.3103   45.4704 H   0  0  0  0  0  0  0  0  0  0  0  0
   49.9742   35.7601   41.2570 H   0  0  0  0  0  0  0  0  0  0  0  0
   48.5915   36.3855   42.2331 H   0  0  0  0  0  0  0  0  0  0  0  0
   50.2776   35.0450   43.5349 H   0  0  0  0  0  0  0  0  0  0  0  0
   48.5730   34.4240   43.5996 H   0  0  0  0  0  0  0  0  0  0  0  0
   51.8020   33.8268   41.5933 H   0  0  0  0  0  0  0  0  0  0  0  0
   52.2893   31.5042   40.9208 H   0  0  0  0  0  0  0  0  0  0  0  0
   50.7349   29.6436   41.4121 H   0  0  0  0  0  0  0  0  0  0  0  0
   48.5954   30.1432   42.6392 H   0  0  0  0  0  0  0  0  0  0  0  0
  1 12  1  0
  2  1  2  0
  2 16  1  0
  3  2  1  0
  4  3  1  0
  4  9  2  0
  5  4  1  0
  6  5  2  0
  6  7  1  0
  7  8  2  0
  8  9  1  0
  9  1  1  0
 10 15  2  0
 11 10  1  0
 12 11  2  0
 12 13  1  0
 13 14  2  0
 14 15  1  0
 16 17  1  0
 18 23  1  0
 18 17  1  0
 19 18  2  0
 20 21  2  0
 20 19  1  0
 21 22  1  0
 22 23  2  0
  3 24  1  0
  5 25  1  0
  6 26  1  0
  7 27  1  0
  8 28  1  0
 10 29  1  0
 11 30  1  0
 14 31  1  0
 16 32  1  0
 16 33  1  0
 17 34  1  0
 17 35  1  0
 19 36  1  0
 20 37  1  0
 21 38  1  0
 22 39  1  0
M  ISO  8  24   9  25  14  26  14  27  14  28  14  29  14  30  14  31  14
M  ISO  8  32   8  33   8  34   8  35   8  36  14  37  14  38  14  39  14
M  END
>  <minimizedAffinity>  (1) 
-5.67925739

>  <minimizedRMSD>  (1) 
1.42767823

$$$$
