
     RDKit          3D

 32 34  0  0  0  0  0  0  0  0999 V2000
   46.9840   34.5120   41.3100 C   0  0  0  0  0  0  0  0  0  0  0  0
   48.2410   34.9750   40.9890 C   0  0  0  0  0  0  0  0  0  0  0  0
   48.5280   34.6640   39.7170 N   0  0  0  0  0  0  0  0  0  0  0  0
   47.4650   34.0070   39.2190 C   0  0  0  0  0  0  0  0  0  0  0  0
   47.2440   33.4680   37.9570 C   0  0  0  0  0  0  0  0  0  0  0  0
   46.0530   32.8410   37.7140 C   0  0  0  0  0  0  0  0  0  0  0  0
   45.0330   32.6950   38.6360 C   0  0  0  0  0  0  0  0  0  0  0  0
   45.3110   33.2500   39.8730 C   0  0  0  0  0  0  0  0  0  0  0  0
   46.4700   33.8920   40.1970 C   0  0  0  0  0  0  0  0  0  0  0  0
   44.7880   35.8590   44.0150 C   0  0  0  0  0  0  0  0  0  0  0  0
   45.4470   35.7210   42.7850 C   0  0  0  0  0  0  0  0  0  0  0  0
   46.3060   34.6460   42.5880 C   0  0  0  0  0  0  0  0  0  0  0  0
   46.4720   33.7590   43.6150 N   0  0  0  0  0  0  0  0  0  0  0  0
   45.8200   33.9200   44.7940 C   0  0  0  0  0  0  0  0  0  0  0  0
   44.9810   34.9570   45.0060 N   0  0  0  0  0  0  0  0  0  0  0  0
   49.1380   35.7020   41.9060 C   0  0  0  0  0  0  0  0  0  0  0  0
   50.0200   34.7400   42.6880 C   0  0  0  0  0  0  0  0  0  0  0  0
   50.3490   33.6340   41.8100 N   0  0  0  0  0  0  0  0  0  0  0  0
   49.3994   34.8865   39.2149 H   0  0  0  0  0  0  0  0  0  0  0  0
   48.0100   33.5440   37.1712 H   0  0  0  0  0  0  0  0  0  0  0  0
   45.8947   32.4213   36.7096 H   0  0  0  0  0  0  0  0  0  0  0  0
   44.0862   32.1840   38.4071 H   0  0  0  0  0  0  0  0  0  0  0  0
   44.5398   33.1672   40.6530 H   0  0  0  0  0  0  0  0  0  0  0  0
   44.1077   36.7082   44.1763 H   0  0  0  0  0  0  0  0  0  0  0  0
   45.2857   36.4567   41.9833 H   0  0  0  0  0  0  0  0  0  0  0  0
   45.9789   33.1867   45.5983 H   0  0  0  0  0  0  0  0  0  0  0  0
   49.7768   36.3801   41.3210 H   0  0  0  0  0  0  0  0  0  0  0  0
   48.5224   36.2695   42.6194 H   0  0  0  0  0  0  0  0  0  0  0  0
   50.9399   35.2509   43.0085 H   0  0  0  0  0  0  0  0  0  0  0  0
   49.4962   34.3783   43.5851 H   0  0  0  0  0  0  0  0  0  0  0  0
   50.5946   32.8085   42.3749 H   0  0  0  0  0  0  0  0  0  0  0  0
   49.5370   33.4141   41.2157 H   0  0  0  0  0  0  0  0  0  0  0  0
  1 12  1  0
  2  1  2  0
  2 16  1  0
  3  2  1  0
  4  3  1  0
  4  9  2  0
  5  4  1  0
  6  5  2  0
  6  7  1  0
  7  8  2  0
  8  9  1  0
  9  1  1  0
 10 15  2  0
 11 10  1  0
 12 11  2  0
 12 13  1  0
 13 14  2  0
 14 15  1  0
 16 17  1  0
 18 17  1  0
  3 19  1  0
  5 20  1  0
  6 21  1  0
  7 22  1  0
  8 23  1  0
 10 24  1  0
 11 25  1  0
 14 26  1  0
 16 27  1  0
 16 28  1  0
 17 29  1  0
 17 30  1  0
 18 31  1  0
 18 32  1  0
M  ISO  8  19   9  20  14  21  14  22  14  23  14  24  14  25  14  26  14
M  ISO  6  27   8  28   8  29   8  30   8  31   5  32   5
M  END
>  <minimizedAffinity>  (1) 
-5.58396435

>  <minimizedRMSD>  (1) 
0.165855467

$$$$
