
     RDKit          3D

 45 48  0  0  0  0  0  0  0  0999 V2000
   46.7670   34.3870   41.4800 C   0  0  0  0  0  0  0  0  0  0  0  0
   48.1130   34.5410   41.1770 C   0  0  0  0  0  0  0  0  0  0  0  0
   48.3450   34.1920   39.9160 N   0  0  0  0  0  0  0  0  0  0  0  0
   47.1730   33.8060   39.3730 C   0  0  0  0  0  0  0  0  0  0  0  0
   46.8690   33.3550   38.1030 C   0  0  0  0  0  0  0  0  0  0  0  0
   45.5780   33.0240   37.8110 C   0  0  0  0  0  0  0  0  0  0  0  0
   44.5080   33.1080   38.7130 C   0  0  0  0  0  0  0  0  0  0  0  0
   44.8750   33.5690   39.9760 C   0  0  0  0  0  0  0  0  0  0  0  0
   46.1510   33.9140   40.3290 C   0  0  0  0  0  0  0  0  0  0  0  0
   44.7370   36.0870   44.1030 C   0  0  0  0  0  0  0  0  0  0  0  0
   45.3780   35.8360   42.8780 C   0  0  0  0  0  0  0  0  0  0  0  0
   46.1020   34.6580   42.7440 C   0  0  0  0  0  0  0  0  0  0  0  0
   46.1640   33.7900   43.8000 N   0  0  0  0  0  0  0  0  0  0  0  0
   45.5250   34.0780   44.9700 C   0  0  0  0  0  0  0  0  0  0  0  0
   44.8140   35.2230   45.1180 N   0  0  0  0  0  0  0  0  0  0  0  0
   49.1320   35.0280   42.1480 C   0  0  0  0  0  0  0  0  0  0  0  0
   50.0190   33.9070   42.5990 C   0  0  0  0  0  0  0  0  0  0  0  0
   49.7910   32.6470   42.0070 N   0  0  0  0  0  0  0  0  0  0  0  0
   50.8210   32.1210   41.2030 C   0  0  0  0  0  0  0  0  0  0  0  0
   51.6520   31.1390   41.9490 C   0  0  0  0  0  0  0  0  0  0  0  0
   50.8010   30.0910   42.5650 C   0  0  0  0  0  0  0  0  0  0  0  0
   49.5790   30.5530   43.2830 C   0  0  0  0  0  0  0  0  0  0  0  0
   48.9360   31.7720   42.7000 C   0  0  0  0  0  0  0  0  0  0  0  0
   49.2575   34.2127   39.4386 H   0  0  0  0  0  0  0  0  0  0  0  0
   47.6554   33.2642   37.3393 H   0  0  0  0  0  0  0  0  0  0  0  0
   45.3609   32.6652   36.7941 H   0  0  0  0  0  0  0  0  0  0  0  0
   43.4756   32.8356   38.4486 H   0  0  0  0  0  0  0  0  0  0  0  0
   44.0876   33.6615   40.7385 H   0  0  0  0  0  0  0  0  0  0  0  0
   44.1596   37.0149   44.2284 H   0  0  0  0  0  0  0  0  0  0  0  0
   45.3083   36.5534   42.0470 H   0  0  0  0  0  0  0  0  0  0  0  0
   45.5876   33.3688   45.8085 H   0  0  0  0  0  0  0  0  0  0  0  0
   49.7470   35.8027   41.6667 H   0  0  0  0  0  0  0  0  0  0  0  0
   48.6127   35.4404   43.0256 H   0  0  0  0  0  0  0  0  0  0  0  0
   51.0582   34.1951   42.3821 H   0  0  0  0  0  0  0  0  0  0  0  0
   49.7962   33.7713   43.6676 H   0  0  0  0  0  0  0  0  0  0  0  0
   51.4637   32.9459   40.8617 H   0  0  0  0  0  0  0  0  0  0  0  0
   50.3598   31.6026   40.3495 H   0  0  0  0  0  0  0  0  0  0  0  0
   52.3617   30.6656   41.2546 H   0  0  0  0  0  0  0  0  0  0  0  0
   52.1934   31.6684   42.7468 H   0  0  0  0  0  0  0  0  0  0  0  0
   50.4785   29.4105   41.7632 H   0  0  0  0  0  0  0  0  0  0  0  0
   51.4308   29.6269   43.3383 H   0  0  0  0  0  0  0  0  0  0  0  0
   48.8426   29.7361   43.2672 H   0  0  0  0  0  0  0  0  0  0  0  0
   49.8996   30.8261   44.2992 H   0  0  0  0  0  0  0  0  0  0  0  0
   48.4734   32.3354   43.5238 H   0  0  0  0  0  0  0  0  0  0  0  0
   48.2204   31.4011   41.9515 H   0  0  0  0  0  0  0  0  0  0  0  0
  1 12  1  0
  2  1  2  0
  2 16  1  0
  3  2  1  0
  4  3  1  0
  4  9  2  0
  5  4  1  0
  6  5  2  0
  6  7  1  0
  7  8  2  0
  8  9  1  0
  9  1  1  0
 10 15  2  0
 11 10  1  0
 12 11  2  0
 12 13  1  0
 13 14  2  0
 14 15  1  0
 16 17  1  0
 18 17  1  0
 18 23  1  0
 19 20  1  0
 19 18  1  0
 20 21  1  0
 21 22  1  0
 23 22  1  0
  3 24  1  0
  5 25  1  0
  6 26  1  0
  7 27  1  0
  8 28  1  0
 10 29  1  0
 11 30  1  0
 14 31  1  0
 16 32  1  0
 16 33  1  0
 17 34  1  0
 17 35  1  0
 19 36  1  0
 19 37  1  0
 20 38  1  0
 20 39  1  0
 21 40  1  0
 21 41  1  0
 22 42  1  0
 22 43  1  0
 23 44  1  0
 23 45  1  0
M  ISO  8  24   9  25  14  26  14  27  14  28  14  29  14  30  14  31  14
M  ISO  8  32   8  33   8  34   8  35   8  36  13  37  13  38  13  39  13
M  ISO  6  40  13  41  13  42  13  43  13  44  13  45  13
M  END
>  <minimizedAffinity>  (1) 
-5.47655582

>  <minimizedRMSD>  (1) 
1.3999505

$$$$
