
     RDKit          3D

 45 49  0  0  1  0  0  0  0  0999 V2000
   46.9590   34.5460   41.3590 C   0  0  0  0  0  0  0  0  0  0  0  0
   48.2310   34.9780   41.0400 C   0  0  0  0  0  0  0  0  0  0  0  0
   48.5100   34.6740   39.7780 N   0  0  0  0  0  0  0  0  0  0  0  0
   47.4330   34.0490   39.2730 C   0  0  0  0  0  0  0  0  0  0  0  0
   47.1940   33.5240   38.0070 C   0  0  0  0  0  0  0  0  0  0  0  0
   45.9840   32.9260   37.7490 C   0  0  0  0  0  0  0  0  0  0  0  0
   44.9720   32.8050   38.6700 C   0  0  0  0  0  0  0  0  0  0  0  0
   45.2450   33.3360   39.9130 C   0  0  0  0  0  0  0  0  0  0  0  0
   46.4300   33.9490   40.2440 C   0  0  0  0  0  0  0  0  0  0  0  0
   44.7660   35.8880   44.0800 C   0  0  0  0  0  0  0  0  0  0  0  0
   45.4240   35.7740   42.8300 C   0  0  0  0  0  0  0  0  0  0  0  0
   46.2670   34.6850   42.6480 C   0  0  0  0  0  0  0  0  0  0  0  0
   46.4380   33.7660   43.6660 N   0  0  0  0  0  0  0  0  0  0  0  0
   45.7780   33.9350   44.8420 C   0  0  0  0  0  0  0  0  0  0  0  0
   44.9490   34.9820   45.0530 N   0  0  0  0  0  0  0  0  0  0  0  0
   49.1280   35.6720   41.9810 C   0  0  0  0  0  0  0  0  0  0  0  0
   50.0440   34.7130   42.6910 C   0  0  0  0  0  0  0  0  0  0  0  0
   50.3670   33.4710   41.9140 C   0  0  1  0  0  0  0  0  0  0  0  0
   50.9290   32.2760   42.5400 C   0  0  0  0  0  0  0  0  0  0  0  0
   49.4760   32.2560   42.2880 C   0  0  2  0  0  0  0  0  0  0  0  0
   49.0780   31.3610   41.1620 C   0  0  0  0  0  0  0  0  0  0  0  0
   48.0400   30.4550   41.2350 C   0  0  0  0  0  0  0  0  0  0  0  0
   47.7170   29.6440   40.1480 C   0  0  0  0  0  0  0  0  0  0  0  0
   48.4340   29.7530   39.0090 N   0  0  0  0  0  0  0  0  0  0  0  0
   49.4340   30.6290   38.9460 C   0  0  0  0  0  0  0  0  0  0  0  0
   49.7640   31.4260   39.9930 N   0  0  0  0  0  0  0  0  0  0  0  0
   49.3877   34.8789   39.2794 H   0  0  0  0  0  0  0  0  0  0  0  0
   47.9632   33.5867   37.2232 H   0  0  0  0  0  0  0  0  0  0  0  0
   45.8151   32.5185   36.7413 H   0  0  0  0  0  0  0  0  0  0  0  0
   44.0136   32.3198   38.4332 H   0  0  0  0  0  0  0  0  0  0  0  0
   44.4668   33.2647   40.6871 H   0  0  0  0  0  0  0  0  0  0  0  0
   44.0903   36.7379   44.2566 H   0  0  0  0  0  0  0  0  0  0  0  0
   45.2731   36.5189   42.0348 H   0  0  0  0  0  0  0  0  0  0  0  0
   45.9226   33.1982   45.6459 H   0  0  0  0  0  0  0  0  0  0  0  0
   49.7368   36.3983   41.4225 H   0  0  0  0  0  0  0  0  0  0  0  0
   48.5071   36.1746   42.7372 H   0  0  0  0  0  0  0  0  0  0  0  0
   50.9865   35.2363   42.9099 H   0  0  0  0  0  0  0  0  0  0  0  0
   49.5132   34.3861   43.5973 H   0  0  0  0  0  0  0  0  0  0  0  0
   50.6692   34.0478   41.0275 H   0  0  0  0  0  0  0  0  0  0  0  0
   51.5871   31.6186   41.9528 H   0  0  0  0  0  0  0  0  0  0  0  0
   51.5412   32.1121   43.4391 H   0  0  0  0  0  0  0  0  0  0  0  0
   48.5562   32.1161   42.8748 H   0  0  0  0  0  0  0  0  0  0  0  0
   47.4585   30.3713   42.1650 H   0  0  0  0  0  0  0  0  0  0  0  0
   46.8882   28.9241   40.2174 H   0  0  0  0  0  0  0  0  0  0  0  0
   50.0123   30.7094   38.0137 H   0  0  0  0  0  0  0  0  0  0  0  0
  1 12  1  0
  2  1  2  0
  2 16  1  0
  3  2  1  0
  4  3  1  0
  4  9  2  0
  5  4  1  0
  6  5  2  0
  6  7  1  0
  7  8  2  0
  8  9  1  0
  9  1  1  0
 10 15  2  0
 11 10  1  0
 12 11  2  0
 12 13  1  0
 13 14  2  0
 14 15  1  0
 16 17  1  0
 18 20  1  0
 18 19  1  0
 18 17  1  0
 20 19  1  0
 21 22  2  0
 21 20  1  0
 23 22  1  0
 24 23  2  0
 25 24  1  0
 25 26  2  0
 26 21  1  0
  3 27  1  0
  5 28  1  0
  6 29  1  0
  7 30  1  0
  8 31  1  0
 10 32  1  0
 11 33  1  0
 14 34  1  0
 16 35  1  0
 16 36  1  0
 17 37  1  0
 17 38  1  0
 18 39  1  6
 19 40  1  0
 19 41  1  0
 20 42  1  1
 22 43  1  0
 23 44  1  0
 25 45  1  0
M  ISO  8  27   9  28  14  29  14  30  14  31  14  32  14  33  14  34  14
M  ISO  8  35   8  36   8  37   8  38   8  39  13  40  13  41  13  42  13
M  ISO  3  43  14  44  14  45  14
M  END
>  <minimizedAffinity>  (1) 
-5.85727024

>  <minimizedRMSD>  (1) 
0.58329159

$$$$
