
     RDKit          3D

 44 48  0  0  1  0  0  0  0  0999 V2000
   46.9500   34.5230   41.3560 C   0  0  0  0  0  0  0  0  0  0  0  0
   48.2280   34.9560   41.0300 C   0  0  0  0  0  0  0  0  0  0  0  0
   48.5070   34.6540   39.7680 N   0  0  0  0  0  0  0  0  0  0  0  0
   47.4260   34.0300   39.2650 C   0  0  0  0  0  0  0  0  0  0  0  0
   47.1890   33.5080   38.0000 C   0  0  0  0  0  0  0  0  0  0  0  0
   45.9810   32.9100   37.7380 C   0  0  0  0  0  0  0  0  0  0  0  0
   44.9660   32.7870   38.6600 C   0  0  0  0  0  0  0  0  0  0  0  0
   45.2430   33.3190   39.9070 C   0  0  0  0  0  0  0  0  0  0  0  0
   46.4220   33.9270   40.2350 C   0  0  0  0  0  0  0  0  0  0  0  0
   44.7730   35.8820   44.0710 C   0  0  0  0  0  0  0  0  0  0  0  0
   45.4230   35.7640   42.8270 C   0  0  0  0  0  0  0  0  0  0  0  0
   46.2670   34.6620   42.6430 C   0  0  0  0  0  0  0  0  0  0  0  0
   46.4320   33.7460   43.6620 N   0  0  0  0  0  0  0  0  0  0  0  0
   45.7680   33.9320   44.8350 C   0  0  0  0  0  0  0  0  0  0  0  0
   44.9550   34.9680   45.0530 N   0  0  0  0  0  0  0  0  0  0  0  0
   49.1280   35.6510   41.9740 C   0  0  0  0  0  0  0  0  0  0  0  0
   50.0800   34.7020   42.6450 C   0  0  0  0  0  0  0  0  0  0  0  0
   50.3000   33.4300   41.9010 C   0  0  1  0  0  0  0  0  0  0  0  0
   50.9580   32.2630   42.5010 C   0  0  0  0  0  0  0  0  0  0  0  0
   49.4640   32.2300   42.4420 C   0  0  2  0  0  0  0  0  0  0  0  0
   48.9330   31.3030   41.4090 C   0  0  0  0  0  0  0  0  0  0  0  0
   49.3140   30.7860   40.1790 C   0  0  0  0  0  0  0  0  0  0  0  0
   48.4460   29.9150   39.5760 C   0  0  0  0  0  0  0  0  0  0  0  0
   47.2660   29.5470   40.1130 C   0  0  0  0  0  0  0  0  0  0  0  0
   47.2470   30.4920   41.7010 S   0  0  0  0  0  0  0  0  0  0  0  0
   49.3843   34.8584   39.2685 H   0  0  0  0  0  0  0  0  0  0  0  0
   47.9595   33.5728   37.2176 H   0  0  0  0  0  0  0  0  0  0  0  0
   45.8140   32.5042   36.7293 H   0  0  0  0  0  0  0  0  0  0  0  0
   44.0073   32.3024   38.4233 H   0  0  0  0  0  0  0  0  0  0  0  0
   44.4659   33.2481   40.6823 H   0  0  0  0  0  0  0  0  0  0  0  0
   44.1026   36.7358   44.2486 H   0  0  0  0  0  0  0  0  0  0  0  0
   45.2734   36.5085   42.0311 H   0  0  0  0  0  0  0  0  0  0  0  0
   45.9075   33.1954   45.6400 H   0  0  0  0  0  0  0  0  0  0  0  0
   49.7082   36.4051   41.4219 H   0  0  0  0  0  0  0  0  0  0  0  0
   48.5081   36.1185   42.7532 H   0  0  0  0  0  0  0  0  0  0  0  0
   51.0501   35.2083   42.7572 H   0  0  0  0  0  0  0  0  0  0  0  0
   49.6274   34.4297   43.6099 H   0  0  0  0  0  0  0  0  0  0  0  0
   50.4773   33.9650   40.9564 H   0  0  0  0  0  0  0  0  0  0  0  0
   51.5389   31.5823   41.8613 H   0  0  0  0  0  0  0  0  0  0  0  0
   51.6860   32.1409   43.3166 H   0  0  0  0  0  0  0  0  0  0  0  0
   48.6313   32.1113   43.1509 H   0  0  0  0  0  0  0  0  0  0  0  0
   50.2695   31.0630   39.7097 H   0  0  0  0  0  0  0  0  0  0  0  0
   48.7274   29.4927   38.6000 H   0  0  0  0  0  0  0  0  0  0  0  0
   46.5079   28.8598   39.7093 H   0  0  0  0  0  0  0  0  0  0  0  0
  1 12  1  0
  2  1  2  0
  2 16  1  0
  3  2  1  0
  4  3  1  0
  4  9  2  0
  5  4  1  0
  6  5  2  0
  6  7  1  0
  7  8  2  0
  8  9  1  0
  9  1  1  0
 10 15  2  0
 11 10  1  0
 12 11  2  0
 12 13  1  0
 13 14  2  0
 14 15  1  0
 16 17  1  0
 18 20  1  0
 18 19  1  0
 18 17  1  0
 20 19  1  0
 21 25  1  0
 21 20  1  0
 22 21  2  0
 23 24  2  0
 23 22  1  0
 24 25  1  0
  3 26  1  0
  5 27  1  0
  6 28  1  0
  7 29  1  0
  8 30  1  0
 10 31  1  0
 11 32  1  0
 14 33  1  0
 16 34  1  0
 16 35  1  0
 17 36  1  0
 17 37  1  0
 18 38  1  6
 19 39  1  0
 19 40  1  0
 20 41  1  1
 22 42  1  0
 23 43  1  0
 24 44  1  0
M  ISO  8  26   9  27  14  28  14  29  14  30  14  31  14  32  14  33  14
M  ISO  8  34   8  35   8  36   8  37   8  38  13  39  13  40  13  41  13
M  ISO  3  42  14  43  14  44  14
M  END
>  <minimizedAffinity>  (1) 
-5.75293112

>  <minimizedRMSD>  (1) 
0.252608657

$$$$
