
     RDKit          3D

 44 48  0  0  1  0  0  0  0  0999 V2000
   46.9240   34.5120   41.3030 C   0  0  0  0  0  0  0  0  0  0  0  0
   48.1880   34.9490   40.9530 C   0  0  0  0  0  0  0  0  0  0  0  0
   48.4460   34.6460   39.6900 N   0  0  0  0  0  0  0  0  0  0  0  0
   47.3690   34.0160   39.2070 C   0  0  0  0  0  0  0  0  0  0  0  0
   47.1120   33.4880   37.9450 C   0  0  0  0  0  0  0  0  0  0  0  0
   45.9060   32.8810   37.7000 C   0  0  0  0  0  0  0  0  0  0  0  0
   44.9010   32.7530   38.6430 C   0  0  0  0  0  0  0  0  0  0  0  0
   45.2000   33.2920   39.8850 C   0  0  0  0  0  0  0  0  0  0  0  0
   46.3930   33.9120   40.1860 C   0  0  0  0  0  0  0  0  0  0  0  0
   44.7820   35.8580   44.0460 C   0  0  0  0  0  0  0  0  0  0  0  0
   45.4110   35.7470   42.7890 C   0  0  0  0  0  0  0  0  0  0  0  0
   46.2600   34.6500   42.5980 C   0  0  0  0  0  0  0  0  0  0  0  0
   46.4440   33.7450   43.6110 N   0  0  0  0  0  0  0  0  0  0  0  0
   45.8040   33.9210   44.7920 C   0  0  0  0  0  0  0  0  0  0  0  0
   44.9820   34.9550   45.0230 N   0  0  0  0  0  0  0  0  0  0  0  0
   49.1030   35.6540   41.8800 C   0  0  0  0  0  0  0  0  0  0  0  0
   49.9590   34.7040   42.6480 C   0  0  0  0  0  0  0  0  0  0  0  0
   50.2950   33.4400   41.9320 C   0  0  1  0  0  0  0  0  0  0  0  0
   51.0700   32.3560   42.5210 C   0  0  0  0  0  0  0  0  0  0  0  0
   49.5960   32.1850   42.4990 C   0  0  2  0  0  0  0  0  0  0  0  0
   49.1050   31.1920   41.4890 C   0  0  0  0  0  0  0  0  0  0  0  0
   47.8070   30.8490   41.1690 C   0  0  0  0  0  0  0  0  0  0  0  0
   47.8100   29.9100   40.2010 N   0  0  0  0  0  0  0  0  0  0  0  0
   49.1280   29.6840   39.9340 C   0  0  0  0  0  0  0  0  0  0  0  0
   49.9160   30.4560   40.7070 N   0  0  0  0  0  0  0  0  0  0  0  0
   49.3134   34.8560   39.1757 H   0  0  0  0  0  0  0  0  0  0  0  0
   47.8696   33.5568   37.1505 H   0  0  0  0  0  0  0  0  0  0  0  0
   45.7274   32.4719   36.6946 H   0  0  0  0  0  0  0  0  0  0  0  0
   43.9410   32.2625   38.4244 H   0  0  0  0  0  0  0  0  0  0  0  0
   44.4398   33.2204   40.6768 H   0  0  0  0  0  0  0  0  0  0  0  0
   44.1084   36.7073   44.2332 H   0  0  0  0  0  0  0  0  0  0  0  0
   45.2424   36.4886   41.9943 H   0  0  0  0  0  0  0  0  0  0  0  0
   45.9652   33.1857   45.5941 H   0  0  0  0  0  0  0  0  0  0  0  0
   49.7512   36.3253   41.2975 H   0  0  0  0  0  0  0  0  0  0  0  0
   48.4909   36.2182   42.5990 H   0  0  0  0  0  0  0  0  0  0  0  0
   50.9002   35.2165   42.8960 H   0  0  0  0  0  0  0  0  0  0  0  0
   49.3757   34.4106   43.5332 H   0  0  0  0  0  0  0  0  0  0  0  0
   50.4061   33.9794   40.9798 H   0  0  0  0  0  0  0  0  0  0  0  0
   51.6970   31.7258   41.8731 H   0  0  0  0  0  0  0  0  0  0  0  0
   51.8260   32.3118   43.3188 H   0  0  0  0  0  0  0  0  0  0  0  0
   48.7976   31.9955   43.2316 H   0  0  0  0  0  0  0  0  0  0  0  0
   46.9062   31.2768   41.6333 H   0  0  0  0  0  0  0  0  0  0  0  0
   49.4984   28.9667   39.1868 H   0  0  0  0  0  0  0  0  0  0  0  0
   50.9457   30.4787   40.7007 H   0  0  0  0  0  0  0  0  0  0  0  0
  1 12  1  0
  2  1  2  0
  2 16  1  0
  3  2  1  0
  4  3  1  0
  4  9  2  0
  5  4  1  0
  6  5  2  0
  6  7  1  0
  7  8  2  0
  8  9  1  0
  9  1  1  0
 10 15  2  0
 11 10  1  0
 12 11  2  0
 12 13  1  0
 13 14  2  0
 14 15  1  0
 16 17  1  0
 18 20  1  0
 18 19  1  0
 18 17  1  0
 20 19  1  0
 21 20  1  0
 22 21  2  0
 23 22  1  0
 24 23  2  0
 24 25  1  0
 25 21  1  0
  3 26  1  0
  5 27  1  0
  6 28  1  0
  7 29  1  0
  8 30  1  0
 10 31  1  0
 11 32  1  0
 14 33  1  0
 16 34  1  0
 16 35  1  0
 17 36  1  0
 17 37  1  0
 18 38  1  6
 19 39  1  0
 19 40  1  0
 20 41  1  1
 22 42  1  0
 24 43  1  0
 25 44  1  0
M  ISO  8  26   9  27  14  28  14  29  14  30  14  31  14  32  14  33  14
M  ISO  8  34   8  35   8  36   8  37   8  38  13  39  13  40  13  41  13
M  ISO  3  42  14  43  14  44   9
M  END
>  <minimizedAffinity>  (1) 
-5.71495581

>  <minimizedRMSD>  (1) 
0.126509696

$$$$
