
     RDKit          3D

 39 42  0  0  1  0  0  0  0  0999 V2000
   46.9340   34.4960   41.2840 C   0  0  0  0  0  0  0  0  0  0  0  0
   48.1960   34.9260   40.9400 C   0  0  0  0  0  0  0  0  0  0  0  0
   48.4430   34.6170   39.6720 N   0  0  0  0  0  0  0  0  0  0  0  0
   47.3690   33.9930   39.1810 C   0  0  0  0  0  0  0  0  0  0  0  0
   47.1030   33.4680   37.9290 C   0  0  0  0  0  0  0  0  0  0  0  0
   45.8980   32.8730   37.6970 C   0  0  0  0  0  0  0  0  0  0  0  0
   44.8920   32.7490   38.6340 C   0  0  0  0  0  0  0  0  0  0  0  0
   45.1820   33.2780   39.8690 C   0  0  0  0  0  0  0  0  0  0  0  0
   46.3820   33.8930   40.1710 C   0  0  0  0  0  0  0  0  0  0  0  0
   44.7940   35.8510   44.0380 C   0  0  0  0  0  0  0  0  0  0  0  0
   45.4240   35.7320   42.7840 C   0  0  0  0  0  0  0  0  0  0  0  0
   46.2700   34.6360   42.5840 C   0  0  0  0  0  0  0  0  0  0  0  0
   46.4580   33.7240   43.5980 N   0  0  0  0  0  0  0  0  0  0  0  0
   45.8180   33.9000   44.7830 C   0  0  0  0  0  0  0  0  0  0  0  0
   44.9980   34.9390   45.0160 N   0  0  0  0  0  0  0  0  0  0  0  0
   49.1110   35.6230   41.8650 C   0  0  0  0  0  0  0  0  0  0  0  0
   49.9690   34.6580   42.6350 C   0  0  0  0  0  0  0  0  0  0  0  0
   50.2610   33.3750   41.9170 C   0  0  1  0  0  0  0  0  0  0  0  0
   51.0300   32.2750   42.4950 C   0  0  0  0  0  0  0  0  0  0  0  0
   49.5600   32.1410   42.5330 C   0  0  2  0  0  0  0  0  0  0  0  0
   48.8540   31.2600   41.6490 N   0  0  0  0  0  0  0  0  0  0  0  0
   49.3111   34.8227   39.1573 H   0  0  0  0  0  0  0  0  0  0  0  0
   47.8555   33.5298   37.1291 H   0  0  0  0  0  0  0  0  0  0  0  0
   45.7149   32.4632   36.6928 H   0  0  0  0  0  0  0  0  0  0  0  0
   43.9309   32.2635   38.4093 H   0  0  0  0  0  0  0  0  0  0  0  0
   44.4189   33.2081   40.6582 H   0  0  0  0  0  0  0  0  0  0  0  0
   44.1230   36.7022   44.2258 H   0  0  0  0  0  0  0  0  0  0  0  0
   45.2567   36.4746   41.9899 H   0  0  0  0  0  0  0  0  0  0  0  0
   45.9772   33.1629   45.5838 H   0  0  0  0  0  0  0  0  0  0  0  0
   49.7620   36.2930   41.2842 H   0  0  0  0  0  0  0  0  0  0  0  0
   48.5025   36.1893   42.5855 H   0  0  0  0  0  0  0  0  0  0  0  0
   50.9261   35.1521   42.8583 H   0  0  0  0  0  0  0  0  0  0  0  0
   49.4025   34.3885   43.5386 H   0  0  0  0  0  0  0  0  0  0  0  0
   50.3530   33.9000   40.9548 H   0  0  0  0  0  0  0  0  0  0  0  0
   51.6150   31.6191   41.8335 H   0  0  0  0  0  0  0  0  0  0  0  0
   51.8143   32.2229   43.2645 H   0  0  0  0  0  0  0  0  0  0  0  0
   48.8292   31.9317   43.3281 H   0  0  0  0  0  0  0  0  0  0  0  0
   48.3106   30.5819   42.2019 H   0  0  0  0  0  0  0  0  0  0  0  0
   48.2159   31.8085   41.0550 H   0  0  0  0  0  0  0  0  0  0  0  0
  1 12  1  0
  2  1  2  0
  2 16  1  0
  3  2  1  0
  4  3  1  0
  4  9  2  0
  5  4  1  0
  6  5  2  0
  6  7  1  0
  7  8  2  0
  8  9  1  0
  9  1  1  0
 10 15  2  0
 11 10  1  0
 12 11  2  0
 12 13  1  0
 13 14  2  0
 14 15  1  0
 16 17  1  0
 18 19  1  0
 18 20  1  0
 18 17  1  0
 19 20  1  0
 21 20  1  0
  3 22  1  0
  5 23  1  0
  6 24  1  0
  7 25  1  0
  8 26  1  0
 10 27  1  0
 11 28  1  0
 14 29  1  0
 16 30  1  0
 16 31  1  0
 17 32  1  0
 17 33  1  0
 18 34  1  6
 19 35  1  0
 19 36  1  0
 20 37  1  1
 21 38  1  0
 21 39  1  0
M  ISO  8  22   9  23  14  24  14  25  14  26  14  27  14  28  14  29  14
M  ISO  8  30   8  31   8  32   8  33   8  34  13  35  13  36  13  37  13
M  ISO  2  38   5  39   5
M  END
>  <minimizedAffinity>  (1) 
-5.70849466

>  <minimizedRMSD>  (1) 
0.0422691368

$$$$
