
     RDKit          3D

 43 46  0  0  1  0  0  0  0  0999 V2000
   46.9260   34.5030   41.3190 C   0  0  0  0  0  0  0  0  0  0  0  0
   48.1970   34.9330   40.9860 C   0  0  0  0  0  0  0  0  0  0  0  0
   48.4540   34.6240   39.7210 N   0  0  0  0  0  0  0  0  0  0  0  0
   47.3630   33.9980   39.2290 C   0  0  0  0  0  0  0  0  0  0  0  0
   47.1140   33.4750   37.9640 C   0  0  0  0  0  0  0  0  0  0  0  0
   45.9130   32.8850   37.7210 C   0  0  0  0  0  0  0  0  0  0  0  0
   44.9000   32.7630   38.6530 C   0  0  0  0  0  0  0  0  0  0  0  0
   45.1900   33.2960   39.8930 C   0  0  0  0  0  0  0  0  0  0  0  0
   46.3740   33.9010   40.2040 C   0  0  0  0  0  0  0  0  0  0  0  0
   44.7800   35.8770   44.0550 C   0  0  0  0  0  0  0  0  0  0  0  0
   45.4180   35.7460   42.8090 C   0  0  0  0  0  0  0  0  0  0  0  0
   46.2540   34.6480   42.6220 C   0  0  0  0  0  0  0  0  0  0  0  0
   46.4330   33.7360   43.6380 N   0  0  0  0  0  0  0  0  0  0  0  0
   45.7870   33.9270   44.8120 C   0  0  0  0  0  0  0  0  0  0  0  0
   44.9750   34.9640   45.0390 N   0  0  0  0  0  0  0  0  0  0  0  0
   49.1110   35.6270   41.9140 C   0  0  0  0  0  0  0  0  0  0  0  0
   50.0210   34.6620   42.6230 C   0  0  0  0  0  0  0  0  0  0  0  0
   50.2220   33.3570   41.9100 C   0  0  1  0  0  0  0  0  0  0  0  0
   50.9900   32.2460   42.4520 C   0  0  0  0  0  0  0  0  0  0  0  0
   49.5290   32.1660   42.5980 C   0  0  2  0  0  0  0  0  0  0  0  0
   48.6810   31.2670   41.7390 C   0  0  0  0  0  0  0  0  0  0  0  0
   49.3780   30.9710   40.4430 C   0  0  0  0  0  0  0  0  0  0  0  0
   49.3249   34.8246   39.2089 H   0  0  0  0  0  0  0  0  0  0  0  0
   47.8761   33.5377   37.1733 H   0  0  0  0  0  0  0  0  0  0  0  0
   45.7360   32.4774   36.7147 H   0  0  0  0  0  0  0  0  0  0  0  0
   43.9387   32.2795   38.4249 H   0  0  0  0  0  0  0  0  0  0  0  0
   44.4215   33.2294   40.6772 H   0  0  0  0  0  0  0  0  0  0  0  0
   44.1126   36.7328   44.2346 H   0  0  0  0  0  0  0  0  0  0  0  0
   45.2622   36.4852   42.0095 H   0  0  0  0  0  0  0  0  0  0  0  0
   45.9375   33.1936   45.6179 H   0  0  0  0  0  0  0  0  0  0  0  0
   49.7232   36.3413   41.3440 H   0  0  0  0  0  0  0  0  0  0  0  0
   48.5035   36.1450   42.6707 H   0  0  0  0  0  0  0  0  0  0  0  0
   51.0033   35.1420   42.7442 H   0  0  0  0  0  0  0  0  0  0  0  0
   49.5374   34.4232   43.5817 H   0  0  0  0  0  0  0  0  0  0  0  0
   50.2644   33.8606   40.9329 H   0  0  0  0  0  0  0  0  0  0  0  0
   51.5024   31.5573   41.7641 H   0  0  0  0  0  0  0  0  0  0  0  0
   51.8261   32.1803   43.1638 H   0  0  0  0  0  0  0  0  0  0  0  0
   48.8569   31.9901   43.4508 H   0  0  0  0  0  0  0  0  0  0  0  0
   48.4954   30.3241   42.2742 H   0  0  0  0  0  0  0  0  0  0  0  0
   47.7286   31.7737   41.5241 H   0  0  0  0  0  0  0  0  0  0  0  0
   50.3725   30.5487   40.6496 H   0  0  0  0  0  0  0  0  0  0  0  0
   48.7851   30.2470   39.8648 H   0  0  0  0  0  0  0  0  0  0  0  0
   49.4872   31.9004   39.8648 H   0  0  0  0  0  0  0  0  0  0  0  0
  1 12  1  0
  2  1  2  0
  2 16  1  0
  3  2  1  0
  4  3  1  0
  4  9  2  0
  5  4  1  0
  6  5  2  0
  6  7  1  0
  7  8  2  0
  8  9  1  0
  9  1  1  0
 10 15  2  0
 11 10  1  0
 12 11  2  0
 12 13  1  0
 13 14  2  0
 14 15  1  0
 16 17  1  0
 18 19  1  0
 18 20  1  0
 18 17  1  0
 19 20  1  0
 21 20  1  0
 22 21  1  0
  3 23  1  0
  5 24  1  0
  6 25  1  0
  7 26  1  0
  8 27  1  0
 10 28  1  0
 11 29  1  0
 14 30  1  0
 16 31  1  0
 16 32  1  0
 17 33  1  0
 17 34  1  0
 18 35  1  6
 19 36  1  0
 19 37  1  0
 20 38  1  1
 21 39  1  0
 21 40  1  0
 22 41  1  0
 22 42  1  0
 22 43  1  0
M  ISO  8  23   9  24  14  25  14  26  14  27  14  28  14  29  14  30  14
M  ISO  8  31   8  32   8  33   8  34   8  35  13  36  13  37  13  38  13
M  ISO  5  39   8  40   8  41   8  42   8  43   8
M  END
>  <minimizedAffinity>  (1) 
-5.62812471

>  <minimizedRMSD>  (1) 
0.0975189805

$$$$
