
     RDKit          3D

 54 58  0  0  1  0  0  0  0  0999 V2000
   46.7860   34.5290   41.3580 C   0  0  0  0  0  0  0  0  0  0  0  0
   48.0620   34.9170   40.9660 C   0  0  0  0  0  0  0  0  0  0  0  0
   48.3050   34.5560   39.7120 N   0  0  0  0  0  0  0  0  0  0  0  0
   47.1900   33.9300   39.2770 C   0  0  0  0  0  0  0  0  0  0  0  0
   46.9090   33.3520   38.0280 C   0  0  0  0  0  0  0  0  0  0  0  0
   45.6900   32.7740   37.8390 C   0  0  0  0  0  0  0  0  0  0  0  0
   44.6990   32.7060   38.7780 C   0  0  0  0  0  0  0  0  0  0  0  0
   45.0330   33.2880   39.9770 C   0  0  0  0  0  0  0  0  0  0  0  0
   46.2270   33.8910   40.2610 C   0  0  0  0  0  0  0  0  0  0  0  0
   44.7300   36.0510   44.0640 C   0  0  0  0  0  0  0  0  0  0  0  0
   45.3530   35.8750   42.8060 C   0  0  0  0  0  0  0  0  0  0  0  0
   46.1350   34.7320   42.6450 C   0  0  0  0  0  0  0  0  0  0  0  0
   46.2760   33.8370   43.6790 N   0  0  0  0  0  0  0  0  0  0  0  0
   45.6490   34.0710   44.8580 C   0  0  0  0  0  0  0  0  0  0  0  0
   44.8800   35.1650   45.0600 N   0  0  0  0  0  0  0  0  0  0  0  0
   49.0050   35.6370   41.8540 C   0  0  0  0  0  0  0  0  0  0  0  0
   49.8840   34.7000   42.6170 C   0  0  0  0  0  0  0  0  0  0  0  0
   50.1630   33.4070   41.9080 C   0  0  1  0  0  0  0  0  0  0  0  0
   51.1280   32.4030   42.3750 C   0  0  0  0  0  0  0  0  0  0  0  0
   49.6820   32.1670   42.6750 C   0  0  2  0  0  0  0  0  0  0  0  0
   49.0790   31.1440   41.9760 O   0  0  0  0  0  0  0  0  0  0  0  0
   48.4900   30.2270   42.8290 C   0  0  0  0  0  0  0  0  0  0  0  0
   47.9890   31.0130   44.0260 C   0  0  0  0  0  0  0  0  0  0  0  0
   47.2920   30.1530   45.0540 C   0  0  0  0  0  0  0  0  0  0  0  0
   47.9470   28.7950   45.1480 C   0  0  0  0  0  0  0  0  0  0  0  0
   49.4090   29.0070   44.8140 C   0  0  0  0  0  0  0  0  0  0  0  0
   49.5270   29.2690   43.3120 C   0  0  0  0  0  0  0  0  0  0  0  0
   49.1702   34.7203   39.1778 H   0  0  0  0  0  0  0  0  0  0  0  0
   47.6562   33.3658   37.2209 H   0  0  0  0  0  0  0  0  0  0  0  0
   45.4875   32.3274   36.8544 H   0  0  0  0  0  0  0  0  0  0  0  0
   43.7251   32.2298   38.5912 H   0  0  0  0  0  0  0  0  0  0  0  0
   44.2765   33.2671   40.7753 H   0  0  0  0  0  0  0  0  0  0  0  0
   44.1043   36.9403   44.2302 H   0  0  0  0  0  0  0  0  0  0  0  0
   45.2264   36.6054   41.9933 H   0  0  0  0  0  0  0  0  0  0  0  0
   45.7697   33.3471   45.6774 H   0  0  0  0  0  0  0  0  0  0  0  0
   49.6369   36.2962   41.2407 H   0  0  0  0  0  0  0  0  0  0  0  0
   48.4136   36.2141   42.5800 H   0  0  0  0  0  0  0  0  0  0  0  0
   50.8432   35.2037   42.8070 H   0  0  0  0  0  0  0  0  0  0  0  0
   49.3474   34.4447   43.5427 H   0  0  0  0  0  0  0  0  0  0  0  0
   50.0428   33.8866   40.9254 H   0  0  0  0  0  0  0  0  0  0  0  0
   51.6427   31.7626   41.6435 H   0  0  0  0  0  0  0  0  0  0  0  0
   52.0383   32.4474   42.9910 H   0  0  0  0  0  0  0  0  0  0  0  0
   49.0596   32.0022   43.5669 H   0  0  0  0  0  0  0  0  0  0  0  0
   47.6832   29.6772   42.3223 H   0  0  0  0  0  0  0  0  0  0  0  0
   48.8482   31.5043   44.5060 H   0  0  0  0  0  0  0  0  0  0  0  0
   47.2518   31.7398   43.6542 H   0  0  0  0  0  0  0  0  0  0  0  0
   47.3454   30.6481   46.0348 H   0  0  0  0  0  0  0  0  0  0  0  0
   46.2433   30.0191   44.7501 H   0  0  0  0  0  0  0  0  0  0  0  0
   47.8431   28.3911   46.1659 H   0  0  0  0  0  0  0  0  0  0  0  0
   47.4789   28.0757   44.4599 H   0  0  0  0  0  0  0  0  0  0  0  0
   49.7966   29.8711   45.3736 H   0  0  0  0  0  0  0  0  0  0  0  0
   49.9930   28.1166   45.0897 H   0  0  0  0  0  0  0  0  0  0  0  0
   49.4083   28.3164   42.7749 H   0  0  0  0  0  0  0  0  0  0  0  0
   50.5152   29.7128   43.1209 H   0  0  0  0  0  0  0  0  0  0  0  0
  1 12  1  0
  2  1  2  0
  2 16  1  0
  3  2  1  0
  4  3  1  0
  4  9  2  0
  5  4  1  0
  6  5  2  0
  6  7  1  0
  7  8  2  0
  8  9  1  0
  9  1  1  0
 10 15  2  0
 11 10  1  0
 12 11  2  0
 12 13  1  0
 13 14  2  0
 14 15  1  0
 16 17  1  0
 18 19  1  0
 18 17  1  0
 18 20  1  0
 19 20  1  0
 21 20  1  0
 21 22  1  0
 22 27  1  0
 22 23  1  0
 23 24  1  0
 24 25  1  0
 26 25  1  0
 27 26  1  0
  3 28  1  0
  5 29  1  0
  6 30  1  0
  7 31  1  0
  8 32  1  0
 10 33  1  0
 11 34  1  0
 14 35  1  0
 16 36  1  0
 16 37  1  0
 17 38  1  0
 17 39  1  0
 18 40  1  6
 19 41  1  0
 19 42  1  0
 20 43  1  1
 22 44  1  0
 23 45  1  0
 23 46  1  0
 24 47  1  0
 24 48  1  0
 25 49  1  0
 25 50  1  0
 26 51  1  0
 26 52  1  0
 27 53  1  0
 27 54  1  0
M  ISO  8  28   9  29  14  30  14  31  14  32  14  33  14  34  14  35  14
M  ISO  8  36   8  37   8  38   8  39   8  40  13  41  13  42  13  43  13
M  ISO  8  44  13  45  13  46  13  47  13  48  13  49  13  50  13  51  13
M  ISO  3  52  13  53  13  54  13
M  END
>  <minimizedAffinity>  (1) 
-5.70510912

>  <minimizedRMSD>  (1) 
0.680403829

$$$$
