
     RDKit          3D

 47 51  0  0  1  0  0  0  0  0999 V2000
   46.8210   34.5430   41.3640 C   0  0  0  0  0  0  0  0  0  0  0  0
   48.1010   34.9320   40.9870 C   0  0  0  0  0  0  0  0  0  0  0  0
   48.3420   34.5760   39.7290 N   0  0  0  0  0  0  0  0  0  0  0  0
   47.2380   33.9610   39.2820 C   0  0  0  0  0  0  0  0  0  0  0  0
   46.9660   33.3970   38.0260 C   0  0  0  0  0  0  0  0  0  0  0  0
   45.7470   32.8220   37.8200 C   0  0  0  0  0  0  0  0  0  0  0  0
   44.7480   32.7530   38.7640 C   0  0  0  0  0  0  0  0  0  0  0  0
   45.0680   33.3210   39.9710 C   0  0  0  0  0  0  0  0  0  0  0  0
   46.2620   33.9150   40.2590 C   0  0  0  0  0  0  0  0  0  0  0  0
   44.7370   36.0340   44.0690 C   0  0  0  0  0  0  0  0  0  0  0  0
   45.3650   35.8650   42.8140 C   0  0  0  0  0  0  0  0  0  0  0  0
   46.1640   34.7380   42.6490 C   0  0  0  0  0  0  0  0  0  0  0  0
   46.3160   33.8430   43.6890 N   0  0  0  0  0  0  0  0  0  0  0  0
   45.6820   34.0710   44.8650 C   0  0  0  0  0  0  0  0  0  0  0  0
   44.8970   35.1520   45.0660 N   0  0  0  0  0  0  0  0  0  0  0  0
   49.0420   35.6450   41.8930 C   0  0  0  0  0  0  0  0  0  0  0  0
   49.9770   34.7020   42.5740 C   0  0  0  0  0  0  0  0  0  0  0  0
   50.0970   33.3560   41.9180 C   0  0  1  0  0  0  0  0  0  0  0  0
   51.0500   32.3380   42.3390 C   0  0  0  0  0  0  0  0  0  0  0  0
   49.6510   32.1900   42.8200 C   0  0  2  0  0  0  0  0  0  0  0  0
   48.9040   31.1700   42.2690 O   0  0  0  0  0  0  0  0  0  0  0  0
   47.6330   30.8090   42.6830 C   0  0  0  0  0  0  0  0  0  0  0  0
   47.5230   30.5570   44.0500 C   0  0  0  0  0  0  0  0  0  0  0  0
   46.2710   30.1920   44.5150 C   0  0  0  0  0  0  0  0  0  0  0  0
   45.1870   30.0850   43.6620 C   0  0  0  0  0  0  0  0  0  0  0  0
   45.3520   30.3500   42.3000 C   0  0  0  0  0  0  0  0  0  0  0  0
   46.5750   30.7030   41.8660 N   0  0  0  0  0  0  0  0  0  0  0  0
   49.2100   34.7410   39.1997 H   0  0  0  0  0  0  0  0  0  0  0  0
   47.7198   33.4184   37.2252 H   0  0  0  0  0  0  0  0  0  0  0  0
   45.5484   32.3830   36.8311 H   0  0  0  0  0  0  0  0  0  0  0  0
   43.7738   32.2816   38.5671 H   0  0  0  0  0  0  0  0  0  0  0  0
   44.3065   33.2957   40.7644 H   0  0  0  0  0  0  0  0  0  0  0  0
   44.0985   36.9147   44.2324 H   0  0  0  0  0  0  0  0  0  0  0  0
   45.2278   36.5940   42.0018 H   0  0  0  0  0  0  0  0  0  0  0  0
   45.8113   33.3498   45.6855 H   0  0  0  0  0  0  0  0  0  0  0  0
   49.6288   36.3640   41.3026 H   0  0  0  0  0  0  0  0  0  0  0  0
   48.4504   36.1577   42.6657 H   0  0  0  0  0  0  0  0  0  0  0  0
   50.9752   35.1637   42.5944 H   0  0  0  0  0  0  0  0  0  0  0  0
   49.5630   34.5235   43.5774 H   0  0  0  0  0  0  0  0  0  0  0  0
   49.8816   33.7796   40.9259 H   0  0  0  0  0  0  0  0  0  0  0  0
   51.4456   31.6276   41.5982 H   0  0  0  0  0  0  0  0  0  0  0  0
   52.0265   32.3748   42.8440 H   0  0  0  0  0  0  0  0  0  0  0  0
   49.1402   32.1032   43.7903 H   0  0  0  0  0  0  0  0  0  0  0  0
   48.3873   30.6438   44.7249 H   0  0  0  0  0  0  0  0  0  0  0  0
   46.1352   29.9825   45.5863 H   0  0  0  0  0  0  0  0  0  0  0  0
   44.2014   29.7931   44.0536 H   0  0  0  0  0  0  0  0  0  0  0  0
   44.5052   30.2721   41.6022 H   0  0  0  0  0  0  0  0  0  0  0  0
  1 12  1  0
  2  1  2  0
  2 16  1  0
  3  2  1  0
  4  3  1  0
  4  9  2  0
  5  4  1  0
  6  5  2  0
  6  7  1  0
  7  8  2  0
  8  9  1  0
  9  1  1  0
 10 15  2  0
 11 10  1  0
 12 11  2  0
 12 13  1  0
 13 14  2  0
 14 15  1  0
 16 17  1  0
 18 19  1  0
 18 17  1  0
 18 20  1  0
 19 20  1  0
 21 22  1  0
 21 20  1  0
 22 23  2  0
 23 24  1  0
 25 24  2  0
 26 25  1  0
 27 26  2  0
 27 22  1  0
  3 28  1  0
  5 29  1  0
  6 30  1  0
  7 31  1  0
  8 32  1  0
 10 33  1  0
 11 34  1  0
 14 35  1  0
 16 36  1  0
 16 37  1  0
 17 38  1  0
 17 39  1  0
 18 40  1  6
 19 41  1  0
 19 42  1  0
 20 43  1  1
 23 44  1  0
 24 45  1  0
 25 46  1  0
 26 47  1  0
M  ISO  8  28   9  29  14  30  14  31  14  32  14  33  14  34  14  35  14
M  ISO  8  36   8  37   8  38   8  39   8  40  13  41  13  42  13  43  13
M  ISO  4  44  14  45  14  46  14  47  14
M  END
>  <minimizedAffinity>  (1) 
-5.57818699

>  <minimizedRMSD>  (1) 
0.888966084

$$$$
