
     RDKit          3D

 45 49  0  0  1  0  0  0  0  0999 V2000
   46.9030   34.5340   41.3280 C   0  0  0  0  0  0  0  0  0  0  0  0
   48.1760   34.9480   40.9740 C   0  0  0  0  0  0  0  0  0  0  0  0
   48.4350   34.6220   39.7100 N   0  0  0  0  0  0  0  0  0  0  0  0
   47.3360   33.9950   39.2370 C   0  0  0  0  0  0  0  0  0  0  0  0
   47.0780   33.4540   37.9800 C   0  0  0  0  0  0  0  0  0  0  0  0
   45.8670   32.8680   37.7580 C   0  0  0  0  0  0  0  0  0  0  0  0
   44.8560   32.7640   38.6940 C   0  0  0  0  0  0  0  0  0  0  0  0
   45.1660   33.3160   39.9160 C   0  0  0  0  0  0  0  0  0  0  0  0
   46.3540   33.9210   40.2200 C   0  0  0  0  0  0  0  0  0  0  0  0
   44.7670   35.9510   44.0390 C   0  0  0  0  0  0  0  0  0  0  0  0
   45.4050   35.8050   42.7920 C   0  0  0  0  0  0  0  0  0  0  0  0
   46.2360   34.6980   42.6170 C   0  0  0  0  0  0  0  0  0  0  0  0
   46.4030   33.8070   43.6450 N   0  0  0  0  0  0  0  0  0  0  0  0
   45.7590   34.0050   44.8250 C   0  0  0  0  0  0  0  0  0  0  0  0
   44.9480   35.0640   45.0290 N   0  0  0  0  0  0  0  0  0  0  0  0
   49.1010   35.6530   41.8880 C   0  0  0  0  0  0  0  0  0  0  0  0
   50.0110   34.7070   42.6070 C   0  0  0  0  0  0  0  0  0  0  0  0
   50.1900   33.3820   41.9250 C   0  0  1  0  0  0  0  0  0  0  0  0
   51.0500   32.3090   42.4260 C   0  0  0  0  0  0  0  0  0  0  0  0
   49.5850   32.1940   42.6940 C   0  0  2  0  0  0  0  0  0  0  0  0
   48.9060   31.2240   42.0030 O   0  0  0  0  0  0  0  0  0  0  0  0
   45.6040   30.1000   42.4650 N   0  0  0  0  0  0  0  0  0  0  0  0
   46.5960   30.5670   41.6940 N   0  0  0  0  0  0  0  0  0  0  0  0
   47.6960   30.7490   42.4800 C   0  0  0  0  0  0  0  0  0  0  0  0
   47.3770   30.3840   43.7730 C   0  0  0  0  0  0  0  0  0  0  0  0
   46.0450   29.9760   43.7390 C   0  0  0  0  0  0  0  0  0  0  0  0
   49.3052   34.8112   39.1924 H   0  0  0  0  0  0  0  0  0  0  0  0
   47.8350   33.4985   37.1832 H   0  0  0  0  0  0  0  0  0  0  0  0
   45.6810   32.4466   36.7591 H   0  0  0  0  0  0  0  0  0  0  0  0
   43.8898   32.2830   38.4815 H   0  0  0  0  0  0  0  0  0  0  0  0
   44.4021   33.2669   40.7060 H   0  0  0  0  0  0  0  0  0  0  0  0
   44.1043   36.8131   44.2052 H   0  0  0  0  0  0  0  0  0  0  0  0
   45.2536   36.5372   41.9852 H   0  0  0  0  0  0  0  0  0  0  0  0
   45.9032   33.2795   45.6392 H   0  0  0  0  0  0  0  0  0  0  0  0
   49.7113   36.3561   41.3022 H   0  0  0  0  0  0  0  0  0  0  0  0
   48.4970   36.1805   42.6409 H   0  0  0  0  0  0  0  0  0  0  0  0
   50.9985   35.1827   42.6997 H   0  0  0  0  0  0  0  0  0  0  0  0
   49.5429   34.4990   43.5805 H   0  0  0  0  0  0  0  0  0  0  0  0
   50.1325   33.8574   40.9347 H   0  0  0  0  0  0  0  0  0  0  0  0
   51.5269   31.6192   41.7142 H   0  0  0  0  0  0  0  0  0  0  0  0
   51.9451   32.2861   43.0649 H   0  0  0  0  0  0  0  0  0  0  0  0
   48.9322   32.0890   43.5731 H   0  0  0  0  0  0  0  0  0  0  0  0
   44.6541   29.8711   42.1390 H   0  0  0  0  0  0  0  0  0  0  0  0
   48.0393   30.4100   44.6509 H   0  0  0  0  0  0  0  0  0  0  0  0
   45.4560   29.6167   44.5958 H   0  0  0  0  0  0  0  0  0  0  0  0
  1 12  1  0
  2  1  2  0
  2 16  1  0
  3  2  1  0
  4  3  1  0
  4  9  2  0
  5  4  1  0
  6  5  2  0
  6  7  1  0
  7  8  2  0
  8  9  1  0
  9  1  1  0
 10 15  2  0
 11 10  1  0
 12 11  2  0
 12 13  1  0
 13 14  2  0
 14 15  1  0
 16 17  1  0
 18 19  1  0
 18 17  1  0
 18 20  1  0
 19 20  1  0
 21 24  1  0
 21 20  1  0
 22 26  1  0
 23 22  1  0
 23 24  2  0
 24 25  1  0
 26 25  2  0
  3 27  1  0
  5 28  1  0
  6 29  1  0
  7 30  1  0
  8 31  1  0
 10 32  1  0
 11 33  1  0
 14 34  1  0
 16 35  1  0
 16 36  1  0
 17 37  1  0
 17 38  1  0
 18 39  1  6
 19 40  1  0
 19 41  1  0
 20 42  1  1
 22 43  1  0
 25 44  1  0
 26 45  1  0
M  ISO  8  27   9  28  14  29  14  30  14  31  14  32  14  33  14  34  14
M  ISO  8  35   8  36   8  37   8  38   8  39  13  40  13  41  13  42  13
M  ISO  3  43   9  44  14  45  14
M  END
>  <minimizedAffinity>  (1) 
-5.52119589

>  <minimizedRMSD>  (1) 
0.567320466

$$$$
