
     RDKit          3D

 41 44  0  0  1  0  0  0  0  0999 V2000
   46.9280   34.5210   41.3170 C   0  0  0  0  0  0  0  0  0  0  0  0
   48.1900   34.9440   40.9510 C   0  0  0  0  0  0  0  0  0  0  0  0
   48.4450   34.6300   39.6970 N   0  0  0  0  0  0  0  0  0  0  0  0
   47.3510   33.9960   39.2220 C   0  0  0  0  0  0  0  0  0  0  0  0
   47.0980   33.4580   37.9560 C   0  0  0  0  0  0  0  0  0  0  0  0
   45.8910   32.8610   37.7390 C   0  0  0  0  0  0  0  0  0  0  0  0
   44.8880   32.7390   38.6620 C   0  0  0  0  0  0  0  0  0  0  0  0
   45.1900   33.2860   39.8920 C   0  0  0  0  0  0  0  0  0  0  0  0
   46.3780   33.9050   40.1990 C   0  0  0  0  0  0  0  0  0  0  0  0
   44.7740   35.8680   44.0530 C   0  0  0  0  0  0  0  0  0  0  0  0
   45.4110   35.7540   42.7960 C   0  0  0  0  0  0  0  0  0  0  0  0
   46.2590   34.6670   42.6050 C   0  0  0  0  0  0  0  0  0  0  0  0
   46.4350   33.7760   43.6200 N   0  0  0  0  0  0  0  0  0  0  0  0
   45.7940   33.9370   44.8140 C   0  0  0  0  0  0  0  0  0  0  0  0
   44.9680   34.9740   45.0320 N   0  0  0  0  0  0  0  0  0  0  0  0
   49.1090   35.6540   41.8790 C   0  0  0  0  0  0  0  0  0  0  0  0
   49.9990   34.7040   42.6250 C   0  0  0  0  0  0  0  0  0  0  0  0
   50.2140   33.3810   41.9330 C   0  0  1  0  0  0  0  0  0  0  0  0
   51.0380   32.3030   42.4450 C   0  0  0  0  0  0  0  0  0  0  0  0
   49.5540   32.1840   42.6440 C   0  0  2  0  0  0  0  0  0  0  0  0
   48.9420   31.2310   41.9000 O   0  0  0  0  0  0  0  0  0  0  0  0
   47.8450   30.6000   42.3830 C   0  0  0  0  0  0  0  0  0  0  0  0
   47.7590   30.8640   43.7630 F   0  0  0  0  0  0  0  0  0  0  0  0
   47.9830   29.2390   42.2990 F   0  0  0  0  0  0  0  0  0  0  0  0
   46.6570   31.0200   41.8170 F   0  0  0  0  0  0  0  0  0  0  0  0
   49.3122   34.8297   39.1784 H   0  0  0  0  0  0  0  0  0  0  0  0
   47.8520   33.5148   37.1570 H   0  0  0  0  0  0  0  0  0  0  0  0
   45.7085   32.4425   36.7382 H   0  0  0  0  0  0  0  0  0  0  0  0
   43.9278   32.2491   38.4430 H   0  0  0  0  0  0  0  0  0  0  0  0
   44.4270   33.2223   40.6818 H   0  0  0  0  0  0  0  0  0  0  0  0
   44.0981   36.7170   44.2329 H   0  0  0  0  0  0  0  0  0  0  0  0
   45.2431   36.4950   42.0005 H   0  0  0  0  0  0  0  0  0  0  0  0
   45.9572   33.2016   45.6156 H   0  0  0  0  0  0  0  0  0  0  0  0
   49.7362   36.3458   41.2975 H   0  0  0  0  0  0  0  0  0  0  0  0
   48.4968   36.1952   42.6154 H   0  0  0  0  0  0  0  0  0  0  0  0
   50.9790   35.1848   42.7609 H   0  0  0  0  0  0  0  0  0  0  0  0
   49.4952   34.4829   43.5775 H   0  0  0  0  0  0  0  0  0  0  0  0
   50.2161   33.8770   40.9512 H   0  0  0  0  0  0  0  0  0  0  0  0
   51.5461   31.6279   41.7406 H   0  0  0  0  0  0  0  0  0  0  0  0
   51.9020   32.2632   43.1247 H   0  0  0  0  0  0  0  0  0  0  0  0
   48.8482   32.0722   43.4802 H   0  0  0  0  0  0  0  0  0  0  0  0
  1 12  1  0
  2  1  2  0
  2 16  1  0
  3  2  1  0
  4  3  1  0
  4  9  2  0
  5  4  1  0
  6  5  2  0
  6  7  1  0
  7  8  2  0
  8  9  1  0
  9  1  1  0
 10 15  2  0
 11 10  1  0
 12 11  2  0
 12 13  1  0
 13 14  2  0
 14 15  1  0
 16 17  1  0
 18 19  1  0
 18 17  1  0
 18 20  1  0
 19 20  1  0
 21 22  1  0
 21 20  1  0
 22 23  1  0
 24 22  1  0
 25 22  1  0
  3 26  1  0
  5 27  1  0
  6 28  1  0
  7 29  1  0
  8 30  1  0
 10 31  1  0
 11 32  1  0
 14 33  1  0
 16 34  1  0
 16 35  1  0
 17 36  1  0
 17 37  1  0
 18 38  1  6
 19 39  1  0
 19 40  1  0
 20 41  1  1
M  ISO  8  26   9  27  14  28  14  29  14  30  14  31  14  32  14  33  14
M  ISO  8  34   8  35   8  36   8  37   8  38  13  39  13  40  13  41  13
M  END
>  <minimizedAffinity>  (1) 
-5.49155378

>  <minimizedRMSD>  (1) 
0.346557796

$$$$
