
     RDKit          3D

 44 47  0  0  1  0  0  0  0  0999 V2000
   46.9210   34.5030   41.2920 C   0  0  0  0  0  0  0  0  0  0  0  0
   48.1900   34.9320   40.9270 C   0  0  0  0  0  0  0  0  0  0  0  0
   48.4420   34.6270   39.6600 N   0  0  0  0  0  0  0  0  0  0  0  0
   47.3470   33.9980   39.1850 C   0  0  0  0  0  0  0  0  0  0  0  0
   47.0960   33.4750   37.9170 C   0  0  0  0  0  0  0  0  0  0  0  0
   45.8850   32.8780   37.6900 C   0  0  0  0  0  0  0  0  0  0  0  0
   44.8780   32.7490   38.6300 C   0  0  0  0  0  0  0  0  0  0  0  0
   45.1900   33.2860   39.8600 C   0  0  0  0  0  0  0  0  0  0  0  0
   46.3700   33.8970   40.1670 C   0  0  0  0  0  0  0  0  0  0  0  0
   44.7910   35.8470   44.0340 C   0  0  0  0  0  0  0  0  0  0  0  0
   45.4150   35.7360   42.7820 C   0  0  0  0  0  0  0  0  0  0  0  0
   46.2570   34.6410   42.5920 C   0  0  0  0  0  0  0  0  0  0  0  0
   46.4460   33.7340   43.5980 N   0  0  0  0  0  0  0  0  0  0  0  0
   45.8080   33.9090   44.7820 C   0  0  0  0  0  0  0  0  0  0  0  0
   44.9840   34.9580   45.0060 N   0  0  0  0  0  0  0  0  0  0  0  0
   49.1130   35.6340   41.8530 C   0  0  0  0  0  0  0  0  0  0  0  0
   49.9740   34.6690   42.6120 C   0  0  0  0  0  0  0  0  0  0  0  0
   50.2140   33.3610   41.9170 C   0  0  1  0  0  0  0  0  0  0  0  0
   51.0470   32.2920   42.4520 C   0  0  0  0  0  0  0  0  0  0  0  0
   49.5690   32.1550   42.6220 C   0  0  2  0  0  0  0  0  0  0  0  0
   48.9470   31.1980   41.8630 O   0  0  0  0  0  0  0  0  0  0  0  0
   48.5080   30.1440   42.6480 C   0  0  0  0  0  0  0  0  0  0  0  0
   48.1430   30.5890   44.0490 C   0  0  0  0  0  0  0  0  0  0  0  0
   49.3071   34.8312   39.1396 H   0  0  0  0  0  0  0  0  0  0  0  0
   47.8512   33.5404   37.1199 H   0  0  0  0  0  0  0  0  0  0  0  0
   45.6987   32.4705   36.6854 H   0  0  0  0  0  0  0  0  0  0  0  0
   43.9155   32.2619   38.4149 H   0  0  0  0  0  0  0  0  0  0  0  0
   44.4310   33.2167   40.6532 H   0  0  0  0  0  0  0  0  0  0  0  0
   44.1191   36.6981   44.2187 H   0  0  0  0  0  0  0  0  0  0  0  0
   45.2477   36.4782   41.9876 H   0  0  0  0  0  0  0  0  0  0  0  0
   45.9657   33.1746   45.5856 H   0  0  0  0  0  0  0  0  0  0  0  0
   49.7593   36.3070   41.2705 H   0  0  0  0  0  0  0  0  0  0  0  0
   48.5087   36.1991   42.5779 H   0  0  0  0  0  0  0  0  0  0  0  0
   50.9490   35.1464   42.7896 H   0  0  0  0  0  0  0  0  0  0  0  0
   49.4320   34.4327   43.5395 H   0  0  0  0  0  0  0  0  0  0  0  0
   50.2197   33.8538   40.9336 H   0  0  0  0  0  0  0  0  0  0  0  0
   51.5776   31.6208   41.7607 H   0  0  0  0  0  0  0  0  0  0  0  0
   51.8984   32.2669   43.1481 H   0  0  0  0  0  0  0  0  0  0  0  0
   48.8626   32.0238   43.4549 H   0  0  0  0  0  0  0  0  0  0  0  0
   47.6212   29.6959   42.1761 H   0  0  0  0  0  0  0  0  0  0  0  0
   49.3292   29.4164   42.7274 H   0  0  0  0  0  0  0  0  0  0  0  0
   48.6630   29.9550   44.7822 H   0  0  0  0  0  0  0  0  0  0  0  0
   48.4449   31.6372   44.1911 H   0  0  0  0  0  0  0  0  0  0  0  0
   47.0560   30.4980   44.1911 H   0  0  0  0  0  0  0  0  0  0  0  0
  1 12  1  0
  2  1  2  0
  2 16  1  0
  3  2  1  0
  4  3  1  0
  4  9  2  0
  5  4  1  0
  6  5  2  0
  6  7  1  0
  7  8  2  0
  8  9  1  0
  9  1  1  0
 10 15  2  0
 11 10  1  0
 12 11  2  0
 12 13  1  0
 13 14  2  0
 14 15  1  0
 16 17  1  0
 18 19  1  0
 18 17  1  0
 18 20  1  0
 19 20  1  0
 21 20  1  0
 21 22  1  0
 22 23  1  0
  3 24  1  0
  5 25  1  0
  6 26  1  0
  7 27  1  0
  8 28  1  0
 10 29  1  0
 11 30  1  0
 14 31  1  0
 16 32  1  0
 16 33  1  0
 17 34  1  0
 17 35  1  0
 18 36  1  6
 19 37  1  0
 19 38  1  0
 20 39  1  1
 22 40  1  0
 22 41  1  0
 23 42  1  0
 23 43  1  0
 23 44  1  0
M  ISO  8  24   9  25  14  26  14  27  14  28  14  29  14  30  14  31  14
M  ISO  8  32   8  33   8  34   8  35   8  36  13  37  13  38  13  39  13
M  ISO  5  40   8  41   8  42   8  43   8  44   8
M  END
>  <minimizedAffinity>  (1) 
-5.41876078

>  <minimizedRMSD>  (1) 
0.356523305

$$$$
