
     RDKit          3D

 45 49  0  0  1  0  0  0  0  0999 V2000
   46.8220   34.5320   41.3630 C   0  0  0  0  0  0  0  0  0  0  0  0
   48.1130   34.9080   40.9840 C   0  0  0  0  0  0  0  0  0  0  0  0
   48.3520   34.5530   39.7310 N   0  0  0  0  0  0  0  0  0  0  0  0
   47.2410   33.9490   39.2770 C   0  0  0  0  0  0  0  0  0  0  0  0
   46.9730   33.3930   38.0200 C   0  0  0  0  0  0  0  0  0  0  0  0
   45.7400   32.8310   37.8180 C   0  0  0  0  0  0  0  0  0  0  0  0
   44.7260   32.7680   38.7580 C   0  0  0  0  0  0  0  0  0  0  0  0
   45.0590   33.3340   39.9720 C   0  0  0  0  0  0  0  0  0  0  0  0
   46.2570   33.9140   40.2650 C   0  0  0  0  0  0  0  0  0  0  0  0
   44.7380   36.0390   44.0560 C   0  0  0  0  0  0  0  0  0  0  0  0
   45.3600   35.8600   42.8130 C   0  0  0  0  0  0  0  0  0  0  0  0
   46.1670   34.7340   42.6530 C   0  0  0  0  0  0  0  0  0  0  0  0
   46.3260   33.8560   43.6920 N   0  0  0  0  0  0  0  0  0  0  0  0
   45.6970   34.0790   44.8790 C   0  0  0  0  0  0  0  0  0  0  0  0
   44.9040   35.1710   45.0570 N   0  0  0  0  0  0  0  0  0  0  0  0
   49.0600   35.6070   41.8890 C   0  0  0  0  0  0  0  0  0  0  0  0
   49.9450   34.6510   42.6190 C   0  0  0  0  0  0  0  0  0  0  0  0
   50.1550   33.3380   41.9200 C   0  0  1  0  0  0  0  0  0  0  0  0
   50.9780   32.2570   42.4440 C   0  0  0  0  0  0  0  0  0  0  0  0
   49.5040   32.1360   42.6250 C   0  0  2  0  0  0  0  0  0  0  0  0
   48.8580   31.1860   41.8650 O   0  0  0  0  0  0  0  0  0  0  0  0
   47.5670   30.8050   42.2380 C   0  0  0  0  0  0  0  0  0  0  0  0
   47.1350   30.5370   43.5200 C   0  0  0  0  0  0  0  0  0  0  0  0
   45.7820   30.1850   43.5110 C   0  0  0  0  0  0  0  0  0  0  0  0
   45.4630   30.2660   42.1600 C   0  0  0  0  0  0  0  0  0  0  0  0
   46.5120   30.6240   41.4570 O   0  0  0  0  0  0  0  0  0  0  0  0
   49.2234   34.7099   39.2047 H   0  0  0  0  0  0  0  0  0  0  0  0
   47.7283   33.4070   37.2204 H   0  0  0  0  0  0  0  0  0  0  0  0
   45.5396   32.3944   36.8284 H   0  0  0  0  0  0  0  0  0  0  0  0
   43.7465   32.3098   38.5564 H   0  0  0  0  0  0  0  0  0  0  0  0
   44.2975   33.3155   40.7656 H   0  0  0  0  0  0  0  0  0  0  0  0
   44.0956   36.9184   44.2112 H   0  0  0  0  0  0  0  0  0  0  0  0
   45.2170   36.5806   41.9943 H   0  0  0  0  0  0  0  0  0  0  0  0
   45.8317   33.3663   45.7060 H   0  0  0  0  0  0  0  0  0  0  0  0
   49.6866   36.2857   41.2917 H   0  0  0  0  0  0  0  0  0  0  0  0
   48.4711   36.1617   42.6343 H   0  0  0  0  0  0  0  0  0  0  0  0
   50.9267   35.1280   42.7562 H   0  0  0  0  0  0  0  0  0  0  0  0
   49.4412   34.4221   43.5696 H   0  0  0  0  0  0  0  0  0  0  0  0
   50.1534   33.8349   40.9386 H   0  0  0  0  0  0  0  0  0  0  0  0
   51.4952   31.5826   41.7457 H   0  0  0  0  0  0  0  0  0  0  0  0
   51.8342   32.2191   43.1335 H   0  0  0  0  0  0  0  0  0  0  0  0
   48.8044   32.0077   43.4641 H   0  0  0  0  0  0  0  0  0  0  0  0
   47.7646   30.5923   44.4203 H   0  0  0  0  0  0  0  0  0  0  0  0
   45.1344   29.9131   44.3575 H   0  0  0  0  0  0  0  0  0  0  0  0
   44.4684   30.0586   41.7384 H   0  0  0  0  0  0  0  0  0  0  0  0
  1 12  1  0
  2  1  2  0
  2 16  1  0
  3  2  1  0
  4  3  1  0
  4  9  2  0
  5  4  1  0
  6  5  2  0
  6  7  1  0
  7  8  2  0
  8  9  1  0
  9  1  1  0
 10 15  2  0
 11 10  1  0
 12 11  2  0
 12 13  1  0
 13 14  2  0
 14 15  1  0
 16 17  1  0
 18 19  1  0
 18 17  1  0
 18 20  1  0
 19 20  1  0
 21 22  1  0
 21 20  1  0
 22 23  2  0
 24 23  1  0
 25 24  2  0
 26 25  1  0
 26 22  1  0
  3 27  1  0
  5 28  1  0
  6 29  1  0
  7 30  1  0
  8 31  1  0
 10 32  1  0
 11 33  1  0
 14 34  1  0
 16 35  1  0
 16 36  1  0
 17 37  1  0
 17 38  1  0
 18 39  1  6
 19 40  1  0
 19 41  1  0
 20 42  1  1
 23 43  1  0
 24 44  1  0
 25 45  1  0
M  ISO  8  27   9  28  14  29  14  30  14  31  14  32  14  33  14  34  14
M  ISO  8  35   8  36   8  37   8  38   8  39  13  40  13  41  13  42  13
M  ISO  3  43  14  44  14  45  14
M  END
>  <minimizedAffinity>  (1) 
-5.49547625

>  <minimizedRMSD>  (1) 
0.475140601

$$$$
