
     RDKit          3D

 44 48  0  0  1  0  0  0  0  0999 V2000
   46.9100   34.5320   41.3490 C   0  0  0  0  0  0  0  0  0  0  0  0
   48.1990   34.9330   40.9900 C   0  0  0  0  0  0  0  0  0  0  0  0
   48.4590   34.6090   39.7350 N   0  0  0  0  0  0  0  0  0  0  0  0
   47.3580   33.9980   39.2560 C   0  0  0  0  0  0  0  0  0  0  0  0
   47.0950   33.4580   37.9930 C   0  0  0  0  0  0  0  0  0  0  0  0
   45.8760   32.8860   37.7660 C   0  0  0  0  0  0  0  0  0  0  0  0
   44.8700   32.7920   38.6850 C   0  0  0  0  0  0  0  0  0  0  0  0
   45.1760   33.3380   39.9150 C   0  0  0  0  0  0  0  0  0  0  0  0
   46.3620   33.9270   40.2310 C   0  0  0  0  0  0  0  0  0  0  0  0
   44.7690   35.9600   44.0350 C   0  0  0  0  0  0  0  0  0  0  0  0
   45.4060   35.8070   42.7950 C   0  0  0  0  0  0  0  0  0  0  0  0
   46.2420   34.7010   42.6320 C   0  0  0  0  0  0  0  0  0  0  0  0
   46.4100   33.8180   43.6620 N   0  0  0  0  0  0  0  0  0  0  0  0
   45.7640   34.0200   44.8430 C   0  0  0  0  0  0  0  0  0  0  0  0
   44.9460   35.0780   45.0410 N   0  0  0  0  0  0  0  0  0  0  0  0
   49.1280   35.6280   41.9180 C   0  0  0  0  0  0  0  0  0  0  0  0
   49.9400   34.6640   42.7140 C   0  0  0  0  0  0  0  0  0  0  0  0
   50.3430   33.4200   41.9580 C   0  0  1  0  0  0  0  0  0  0  0  0
   51.0200   32.2800   42.5840 C   0  0  0  0  0  0  0  0  0  0  0  0
   49.5580   32.1540   42.3680 C   0  0  2  0  0  0  0  0  0  0  0  0
   49.1370   31.3060   41.4040 O   0  0  0  0  0  0  0  0  0  0  0  0
   47.9280   30.7330   41.1470 C   0  0  0  0  0  0  0  0  0  0  0  0
   47.5050   30.0500   39.8450 C   0  0  0  0  0  0  0  0  0  0  0  0
   45.7430   29.5510   40.3160 S   0  0  0  0  0  0  0  0  0  0  0  0
   45.9200   30.3070   42.0410 C   0  0  0  0  0  0  0  0  0  0  0  0
   47.0550   30.7870   42.1380 N   0  0  0  0  0  0  0  0  0  0  0  0
   49.3341   34.7889   39.2225 H   0  0  0  0  0  0  0  0  0  0  0  0
   47.8549   33.4933   37.1984 H   0  0  0  0  0  0  0  0  0  0  0  0
   45.6898   32.4686   36.7654 H   0  0  0  0  0  0  0  0  0  0  0  0
   43.9003   32.3220   38.4640 H   0  0  0  0  0  0  0  0  0  0  0  0
   44.4046   33.2940   40.6979 H   0  0  0  0  0  0  0  0  0  0  0  0
   44.1061   36.8236   44.1921 H   0  0  0  0  0  0  0  0  0  0  0  0
   45.2526   36.5313   41.9814 H   0  0  0  0  0  0  0  0  0  0  0  0
   45.9121   33.3002   45.6615 H   0  0  0  0  0  0  0  0  0  0  0  0
   49.8061   36.2655   41.3317 H   0  0  0  0  0  0  0  0  0  0  0  0
   48.5271   36.2278   42.6174 H   0  0  0  0  0  0  0  0  0  0  0  0
   50.8546   35.1764   43.0472 H   0  0  0  0  0  0  0  0  0  0  0  0
   49.3069   34.3336   43.5507 H   0  0  0  0  0  0  0  0  0  0  0  0
   50.5796   34.0044   41.0566 H   0  0  0  0  0  0  0  0  0  0  0  0
   51.7100   31.6660   41.9867 H   0  0  0  0  0  0  0  0  0  0  0  0
   51.6685   32.1738   43.4661 H   0  0  0  0  0  0  0  0  0  0  0  0
   48.6749   31.9473   42.9904 H   0  0  0  0  0  0  0  0  0  0  0  0
   48.0623   29.8948   38.9094 H   0  0  0  0  0  0  0  0  0  0  0  0
   45.1464   30.3176   42.8229 H   0  0  0  0  0  0  0  0  0  0  0  0
  1 12  1  0
  2  1  2  0
  2 16  1  0
  3  2  1  0
  4  3  1  0
  4  9  2  0
  5  4  1  0
  6  5  2  0
  6  7  1  0
  7  8  2  0
  8  9  1  0
  9  1  1  0
 10 15  2  0
 11 10  1  0
 12 11  2  0
 12 13  1  0
 13 14  2  0
 14 15  1  0
 16 17  1  0
 18 20  1  0
 18 19  1  0
 18 17  1  0
 20 19  1  0
 21 20  1  0
 22 21  1  0
 22 26  1  0
 23 24  1  0
 23 22  2  0
 24 25  1  0
 25 26  2  0
  3 27  1  0
  5 28  1  0
  6 29  1  0
  7 30  1  0
  8 31  1  0
 10 32  1  0
 11 33  1  0
 14 34  1  0
 16 35  1  0
 16 36  1  0
 17 37  1  0
 17 38  1  0
 18 39  1  6
 19 40  1  0
 19 41  1  0
 20 42  1  1
 23 43  1  0
 25 44  1  0
M  ISO  8  27   9  28  14  29  14  30  14  31  14  32  14  33  14  34  14
M  ISO  8  35   8  36   8  37   8  38   8  39  13  40  13  41  13  42  13
M  ISO  2  43  14  44  14
M  END
>  <minimizedAffinity>  (1) 
-5.43493462

>  <minimizedRMSD>  (1) 
0.570934236

$$$$
