
     RDKit          3D

 42 45  0  0  1  0  0  0  0  0999 V2000
   46.9350   34.5020   41.3150 C   0  0  0  0  0  0  0  0  0  0  0  0
   48.2050   34.9250   40.9480 C   0  0  0  0  0  0  0  0  0  0  0  0
   48.4710   34.6320   39.6860 N   0  0  0  0  0  0  0  0  0  0  0  0
   47.3660   34.0090   39.2080 C   0  0  0  0  0  0  0  0  0  0  0  0
   47.1260   33.4960   37.9260 C   0  0  0  0  0  0  0  0  0  0  0  0
   45.9120   32.9100   37.7070 C   0  0  0  0  0  0  0  0  0  0  0  0
   44.9030   32.7780   38.6350 C   0  0  0  0  0  0  0  0  0  0  0  0
   45.2010   33.3000   39.8660 C   0  0  0  0  0  0  0  0  0  0  0  0
   46.3810   33.9060   40.1930 C   0  0  0  0  0  0  0  0  0  0  0  0
   44.7880   35.8500   44.0420 C   0  0  0  0  0  0  0  0  0  0  0  0
   45.4230   35.7340   42.7890 C   0  0  0  0  0  0  0  0  0  0  0  0
   46.2740   34.6350   42.6030 C   0  0  0  0  0  0  0  0  0  0  0  0
   46.4570   33.7350   43.6170 N   0  0  0  0  0  0  0  0  0  0  0  0
   45.8190   33.9000   44.8020 C   0  0  0  0  0  0  0  0  0  0  0  0
   44.9900   34.9440   45.0210 N   0  0  0  0  0  0  0  0  0  0  0  0
   49.1310   35.6210   41.8790 C   0  0  0  0  0  0  0  0  0  0  0  0
   49.9840   34.6630   42.6320 C   0  0  0  0  0  0  0  0  0  0  0  0
   50.2690   33.3610   41.9220 C   0  0  1  0  0  0  0  0  0  0  0  0
   51.0320   32.2570   42.5020 C   0  0  0  0  0  0  0  0  0  0  0  0
   49.5440   32.1560   42.5270 C   0  0  2  0  0  0  0  0  0  0  0  0
   48.9960   31.2300   41.6780 O   0  0  0  0  0  0  0  0  0  0  0  0
   47.9160   30.4250   41.9520 C   0  0  0  0  0  0  0  0  0  0  0  0
   46.7170   30.7950   41.8390 O   0  0  0  0  0  0  0  0  0  0  0  0
   47.6580   29.0670   42.4030 N   0  0  0  0  0  0  0  0  0  0  0  0
   49.3399   34.8355   39.1717 H   0  0  0  0  0  0  0  0  0  0  0  0
   47.8828   33.5625   37.1305 H   0  0  0  0  0  0  0  0  0  0  0  0
   45.7235   32.5080   36.7006 H   0  0  0  0  0  0  0  0  0  0  0  0
   43.9411   32.2952   38.4075 H   0  0  0  0  0  0  0  0  0  0  0  0
   44.4328   33.2257   40.6498 H   0  0  0  0  0  0  0  0  0  0  0  0
   44.1124   36.6984   44.2258 H   0  0  0  0  0  0  0  0  0  0  0  0
   45.2582   36.4735   41.9915 H   0  0  0  0  0  0  0  0  0  0  0  0
   45.9804   33.1656   45.6049 H   0  0  0  0  0  0  0  0  0  0  0  0
   49.7792   36.2942   41.2988 H   0  0  0  0  0  0  0  0  0  0  0  0
   48.5255   36.1825   42.6057 H   0  0  0  0  0  0  0  0  0  0  0  0
   50.9457   35.1546   42.8404 H   0  0  0  0  0  0  0  0  0  0  0  0
   49.4199   34.3993   43.5388 H   0  0  0  0  0  0  0  0  0  0  0  0
   50.3762   33.8803   40.9583 H   0  0  0  0  0  0  0  0  0  0  0  0
   51.6106   31.5919   41.8440 H   0  0  0  0  0  0  0  0  0  0  0  0
   51.8145   32.1918   43.2724 H   0  0  0  0  0  0  0  0  0  0  0  0
   48.7572   32.0244   43.2844 H   0  0  0  0  0  0  0  0  0  0  0  0
   46.6888   28.7382   42.5187 H   0  0  0  0  0  0  0  0  0  0  0  0
   48.4444   28.4338   42.6068 H   0  0  0  0  0  0  0  0  0  0  0  0
  1 12  1  0
  2  1  2  0
  2 16  1  0
  3  2  1  0
  4  3  1  0
  4  9  2  0
  5  4  1  0
  6  5  2  0
  6  7  1  0
  7  8  2  0
  8  9  1  0
  9  1  1  0
 10 15  2  0
 11 10  1  0
 12 11  2  0
 12 13  1  0
 13 14  2  0
 14 15  1  0
 16 17  1  0
 18 19  1  0
 18 20  1  0
 18 17  1  0
 19 20  1  0
 21 22  1  0
 21 20  1  0
 22 24  1  0
 23 22  2  0
  3 25  1  0
  5 26  1  0
  6 27  1  0
  7 28  1  0
  8 29  1  0
 10 30  1  0
 11 31  1  0
 14 32  1  0
 16 33  1  0
 16 34  1  0
 17 35  1  0
 17 36  1  0
 18 37  1  6
 19 38  1  0
 19 39  1  0
 20 40  1  1
 24 41  1  0
 24 42  1  0
M  ISO  8  25   9  26  14  27  14  28  14  29  14  30  14  31  14  32  14
M  ISO  8  33   8  34   8  35   8  36   8  37  13  38  13  39  13  40  13
M  END
>  <minimizedAffinity>  (1) 
-5.38416338

>  <minimizedRMSD>  (1) 
0.0502830669

$$$$
