
     RDKit          3D

 52 54  0  0  0  0  0  0  0  0999 V2000
   47.1780   32.9800   37.9440 C   0  0  0  0  0  0  0  0  0  0  0  0
   46.2780   34.2950   41.2380 C   0  0  0  0  0  0  0  0  0  0  0  0
   47.3930   35.0320   41.6030 C   0  0  0  0  0  0  0  0  0  0  0  0
   48.4930   35.1020   40.7270 C   0  0  0  0  0  0  0  0  0  0  0  0
   48.3890   34.4270   39.5540 N   0  0  0  0  0  0  0  0  0  0  0  0
   47.2830   33.7150   39.2260 C   0  0  0  0  0  0  0  0  0  0  0  0
   46.2610   33.6570   40.0560 N   0  0  0  0  0  0  0  0  0  0  0  0
   45.1580   34.2290   42.1410 C   0  0  0  0  0  0  0  0  0  0  0  0
   44.0360   33.7900   41.7180 O   0  0  0  0  0  0  0  0  0  0  0  0
   45.3620   34.6600   43.4730 O   0  0  0  0  0  0  0  0  0  0  0  0
   44.6570   35.8000   43.9120 C   0  0  0  0  0  0  0  0  0  0  0  0
   43.3060   35.7520   43.5750 F   0  0  0  0  0  0  0  0  0  0  0  0
   44.7780   35.9070   45.2770 F   0  0  0  0  0  0  0  0  0  0  0  0
   45.2020   36.8860   43.2430 F   0  0  0  0  0  0  0  0  0  0  0  0
   47.2320   31.5060   38.0810 C   0  0  0  0  0  0  0  0  0  0  0  0
   45.9080   33.3790   37.2720 C   0  0  0  0  0  0  0  0  0  0  0  0
   48.3430   33.4550   37.0760 C   0  0  0  0  0  0  0  0  0  0  0  0
   48.5640   32.5860   35.9100 C   0  0  0  0  0  0  0  0  0  0  0  0
   49.6030   31.6760   35.9090 C   0  0  0  0  0  0  0  0  0  0  0  0
   49.5330   31.0170   34.6660 C   0  0  0  0  0  0  0  0  0  0  0  0
   48.4960   31.5290   33.9820 N   0  0  0  0  0  0  0  0  0  0  0  0
   47.9480   32.4370   34.7230 N   0  0  0  0  0  0  0  0  0  0  0  0
   48.1000   31.1060   32.6560 C   0  0  0  0  0  0  0  0  0  0  0  0
   49.2040   31.4830   31.7640 N   0  0  0  0  0  0  0  0  0  0  0  0
   49.5710   30.3910   30.8950 C   0  0  0  0  0  0  0  0  0  0  0  0
   48.7590   30.3740   29.6420 C   0  0  0  0  0  0  0  0  0  0  0  0
   48.9510   31.5670   28.8500 N   0  0  0  0  0  0  0  0  0  0  0  0
   49.4080   32.6910   29.6250 C   0  0  0  0  0  0  0  0  0  0  0  0
   48.8870   32.6920   31.0410 C   0  0  0  0  0  0  0  0  0  0  0  0
   47.4186   35.5579   42.5688 H   0  0  0  0  0  0  0  0  0  0  0  0
   49.3953   35.6773   40.9815 H   0  0  0  0  0  0  0  0  0  0  0  0
   47.2419   31.2370   39.1476 H   0  0  0  0  0  0  0  0  0  0  0  0
   46.3496   31.0603   37.5986 H   0  0  0  0  0  0  0  0  0  0  0  0
   48.1447   31.1261   37.5986 H   0  0  0  0  0  0  0  0  0  0  0  0
   45.1499   33.6172   38.0326 H   0  0  0  0  0  0  0  0  0  0  0  0
   46.0879   34.2639   36.6439 H   0  0  0  0  0  0  0  0  0  0  0  0
   45.5495   32.5502   36.6439 H   0  0  0  0  0  0  0  0  0  0  0  0
   48.1271   34.4737   36.7215 H   0  0  0  0  0  0  0  0  0  0  0  0
   49.2537   33.4274   37.6924 H   0  0  0  0  0  0  0  0  0  0  0  0
   50.3338   31.5019   36.7125 H   0  0  0  0  0  0  0  0  0  0  0  0
   50.2088   30.2225   34.3166 H   0  0  0  0  0  0  0  0  0  0  0  0
   47.9446   30.0173   32.6327 H   0  0  0  0  0  0  0  0  0  0  0  0
   47.1548   31.5771   32.3484 H   0  0  0  0  0  0  0  0  0  0  0  0
   50.6334   30.4916   30.6280 H   0  0  0  0  0  0  0  0  0  0  0  0
   49.3826   29.4507   31.4339 H   0  0  0  0  0  0  0  0  0  0  0  0
   49.0519   29.4998   29.0421 H   0  0  0  0  0  0  0  0  0  0  0  0
   47.6980   30.3263   29.9283 H   0  0  0  0  0  0  0  0  0  0  0  0
   48.0540   31.8157   28.4090 H   0  0  0  0  0  0  0  0  0  0  0  0
   50.5073   32.6686   29.6576 H   0  0  0  0  0  0  0  0  0  0  0  0
   49.0258   33.5997   29.1370 H   0  0  0  0  0  0  0  0  0  0  0  0
   49.3293   33.5454   31.5758 H   0  0  0  0  0  0  0  0  0  0  0  0
   47.7906   32.7624   30.9861 H   0  0  0  0  0  0  0  0  0  0  0  0
  1 15  1  0
  1  6  1  0
  2  3  2  0
  2  8  1  0
  4  3  1  0
  5  4  2  0
  6  5  1  0
  6  7  2  0
  7  2  1  0
  8 10  1  0
  9  8  2  0
 10 11  1  0
 11 13  1  0
 12 11  1  0
 14 11  1  0
 16  1  1  0
 17  1  1  0
 18 17  1  0
 19 18  1  0
 20 19  2  0
 21 20  1  0
 21 22  1  0
 22 18  2  0
 23 21  1  0
 24 23  1  0
 25 24  1  0
 26 25  1  0
 27 28  1  0
 27 26  1  0
 28 29  1  0
 29 24  1  0
  3 30  1  0
  4 31  1  0
 15 32  1  0
 15 33  1  0
 15 34  1  0
 16 35  1  0
 16 36  1  0
 16 37  1  0
 17 38  1  0
 17 39  1  0
 19 40  1  0
 20 41  1  0
 23 42  1  0
 23 43  1  0
 25 44  1  0
 25 45  1  0
 26 46  1  0
 26 47  1  0
 27 48  1  0
 28 49  1  0
 28 50  1  0
 29 51  1  0
 29 52  1  0
M  ISO  8  30  14  31  14  32   8  33   8  34   8  35   8  36   8  37   8
M  ISO  8  38   8  39   8  40  14  41  14  42   8  43   8  44  13  45  13
M  ISO  7  46  13  47  13  48   5  49  13  50  13  51  13  52  13
M  END
>  <minimizedAffinity>  (1) 
-5.96369267

>  <minimizedRMSD>  (1) 
1.6922977

$$$$
