
     RDKit          3D

 21 22  0  0  0  0  0  0  0  0999 V2000
   46.4790   33.5560   39.6340 C   0  0  0  0  0  0  0  0  0  0  0  0
   47.7380   34.1390   39.3670 C   0  0  0  0  0  0  0  0  0  0  0  0
   48.3580   34.8980   40.3490 C   0  0  0  0  0  0  0  0  0  0  0  0
   47.7260   35.0600   41.5490 N   0  0  0  0  0  0  0  0  0  0  0  0
   46.5130   34.4840   41.7720 C   0  0  0  0  0  0  0  0  0  0  0  0
   45.9000   33.7440   40.8280 N   0  0  0  0  0  0  0  0  0  0  0  0
   45.9000   34.7070   43.0940 C   0  0  0  0  0  0  0  0  0  0  0  0
   45.1340   35.8390   43.2620 C   0  0  0  0  0  0  0  0  0  0  0  0
   44.5610   36.0380   44.5140 C   0  0  0  0  0  0  0  0  0  0  0  0
   44.7500   35.1420   45.5460 C   0  0  0  0  0  0  0  0  0  0  0  0
   45.5390   34.0140   45.3070 C   0  0  0  0  0  0  0  0  0  0  0  0
   46.1390   33.7650   44.0690 C   0  0  0  0  0  0  0  0  0  0  0  0
   48.5370   33.8970   37.7610 S   0  0  0  0  0  0  0  0  0  0  0  0
   45.9763   32.9506   38.8654 H   0  0  0  0  0  0  0  0  0  0  0  0
   49.3391   35.3601   40.1648 H   0  0  0  0  0  0  0  0  0  0  0  0
   44.9817   36.5553   42.4412 H   0  0  0  0  0  0  0  0  0  0  0  0
   43.9423   36.9313   44.6853 H   0  0  0  0  0  0  0  0  0  0  0  0
   44.2914   35.3113   46.5314 H   0  0  0  0  0  0  0  0  0  0  0  0
   45.6941   33.2942   46.1242 H   0  0  0  0  0  0  0  0  0  0  0  0
   46.7604   32.8759   43.8863 H   0  0  0  0  0  0  0  0  0  0  0  0
   49.8354   33.5037   37.9516 H   0  0  0  0  0  0  0  0  0  0  0  0
  1  6  2  0
  2  1  1  0
  2  3  2  0
  3  4  1  0
  4  5  2  0
  5  7  1  0
  6  5  1  0
  7  8  2  0
  7 12  1  0
  8  9  1  0
  9 10  2  0
 11 10  1  0
 12 11  2  0
 13  2  1  0
  1 14  1  0
  3 15  1  0
  8 16  1  0
  9 17  1  0
 10 18  1  0
 11 19  1  0
 12 20  1  0
 13 21  1  0
M  ISO  8  14  14  15  14  16  14  17  14  18  14  19  14  20  14  21  11
M  END
>  <minimizedAffinity>  (1) 
-4.50528669

>  <minimizedRMSD>  (1) 
4.86882114

$$$$
