
     RDKit          3D

 25 27  0  0  0  0  0  0  0  0999 V2000
   44.5430   35.4910   44.1130 C   0  0  0  0  0  0  0  0  0  0  0  0
   44.4760   34.7640   42.9030 C   0  0  0  0  0  0  0  0  0  0  0  0
   44.8360   33.4230   42.9090 C   0  0  0  0  0  0  0  0  0  0  0  0
   45.2460   32.8480   44.0940 N   0  0  0  0  0  0  0  0  0  0  0  0
   45.2920   33.5870   45.2220 C   0  0  0  0  0  0  0  0  0  0  0  0
   44.9530   34.8760   45.2510 N   0  0  0  0  0  0  0  0  0  0  0  0
   45.7070   33.0440   46.4710 N   0  0  0  0  0  0  0  0  0  0  0  0
   45.3600   33.3500   47.7400 C   0  0  0  0  0  0  0  0  0  0  0  0
   46.0430   32.5330   48.5930 N   0  0  0  0  0  0  0  0  0  0  0  0
   46.8290   31.7050   47.8470 C   0  0  0  0  0  0  0  0  0  0  0  0
   47.7140   30.6910   48.2330 C   0  0  0  0  0  0  0  0  0  0  0  0
   47.9140   30.3920   49.4200 O   0  0  0  0  0  0  0  0  0  0  0  0
   48.3400   30.0570   47.2250 N   0  0  0  0  0  0  0  0  0  0  0  0
   48.1380   30.3640   45.9300 C   0  0  0  0  0  0  0  0  0  0  0  0
   48.7790   29.7190   44.8350 N   0  0  0  0  0  0  0  0  0  0  0  0
   47.2860   31.3380   45.5590 N   0  0  0  0  0  0  0  0  0  0  0  0
   46.6050   32.0400   46.5060 C   0  0  0  0  0  0  0  0  0  0  0  0
   43.9340   35.5540   41.3750 S   0  0  0  0  0  0  0  0  0  0  0  0
   44.2630   36.5546   44.1323 H   0  0  0  0  0  0  0  0  0  0  0  0
   44.7949   32.8290   41.9841 H   0  0  0  0  0  0  0  0  0  0  0  0
   44.6439   34.1303   48.0372 H   0  0  0  0  0  0  0  0  0  0  0  0
   49.0033   29.3032   47.4543 H   0  0  0  0  0  0  0  0  0  0  0  0
   48.5701   30.0128   43.8702 H   0  0  0  0  0  0  0  0  0  0  0  0
   49.4518   28.9584   45.0074 H   0  0  0  0  0  0  0  0  0  0  0  0
   43.1777   36.6564   41.6742 H   0  0  0  0  0  0  0  0  0  0  0  0
  1  6  2  0
  2  3  2  0
  2  1  1  0
  3  4  1  0
  4  5  2  0
  5  6  1  0
  5  7  1  0
  7 17  1  0
  7  8  1  0
  8  9  2  0
 10 11  1  0
 10  9  1  0
 11 12  2  0
 13 11  1  0
 14 13  1  0
 15 14  1  0
 16 14  2  0
 16 17  1  0
 17 10  2  0
 18  2  1  0
  1 19  1  0
  3 20  1  0
  8 21  1  0
 13 22  1  0
 15 23  1  0
 15 24  1  0
 18 25  1  0
M  ISO  5  19  14  20  14  21  14  22   9  25  11
M  END
>  <minimizedAffinity>  (1) 
-4.32503986

>  <minimizedRMSD>  (1) 
1.29162717

$$$$
