
     RDKit          3D

 27 28  0  0  0  0  0  0  0  0999 V2000
   44.6200   35.2670   44.7370 C   0  0  0  0  0  0  0  0  0  0  0  0
   44.7380   34.6670   43.4630 C   0  0  0  0  0  0  0  0  0  0  0  0
   45.3830   33.4200   43.3650 C   0  0  0  0  0  0  0  0  0  0  0  0
   45.8660   32.8500   44.5180 N   0  0  0  0  0  0  0  0  0  0  0  0
   45.7230   33.4700   45.7020 C   0  0  0  0  0  0  0  0  0  0  0  0
   45.1170   34.6490   45.8240 N   0  0  0  0  0  0  0  0  0  0  0  0
   46.2600   32.8270   46.9490 C   0  0  0  0  0  0  0  0  0  0  0  0
   46.7210   31.4290   46.5220 C   0  0  0  0  0  0  0  0  0  0  0  0
   47.4790   30.7900   47.6630 C   0  0  0  0  0  0  0  0  0  0  0  0
   46.6840   31.0540   48.9280 C   0  0  0  0  0  0  0  0  0  0  0  0
   45.2310   31.2980   48.6090 C   0  0  0  0  0  0  0  0  0  0  0  0
   45.1600   32.6800   47.9750 C   0  0  0  0  0  0  0  0  0  0  0  0
   44.0890   35.4550   41.9880 S   0  0  0  0  0  0  0  0  0  0  0  0
   44.1206   36.2417   44.8403 H   0  0  0  0  0  0  0  0  0  0  0  0
   45.4971   32.9164   42.3937 H   0  0  0  0  0  0  0  0  0  0  0  0
   47.0689   33.4264   47.3922 H   0  0  0  0  0  0  0  0  0  0  0  0
   45.8452   30.8129   46.2704 H   0  0  0  0  0  0  0  0  0  0  0  0
   47.3737   31.5066   45.6400 H   0  0  0  0  0  0  0  0  0  0  0  0
   47.5722   29.7069   47.4947 H   0  0  0  0  0  0  0  0  0  0  0  0
   48.4933   31.2082   47.7428 H   0  0  0  0  0  0  0  0  0  0  0  0
   46.7652   30.1816   49.5930 H   0  0  0  0  0  0  0  0  0  0  0  0
   47.0915   31.9503   49.4186 H   0  0  0  0  0  0  0  0  0  0  0  0
   44.8622   30.5368   47.9058 H   0  0  0  0  0  0  0  0  0  0  0  0
   44.6075   31.2401   49.5134 H   0  0  0  0  0  0  0  0  0  0  0  0
   45.2822   33.4465   48.7544 H   0  0  0  0  0  0  0  0  0  0  0  0
   44.1841   32.8054   47.4832 H   0  0  0  0  0  0  0  0  0  0  0  0
   43.2486   36.4754   42.3476 H   0  0  0  0  0  0  0  0  0  0  0  0
  1  6  2  0
  2  1  1  0
  3  2  2  0
  3  4  1  0
  4  5  2  0
  5  6  1  0
  5  7  1  0
  7 12  1  0
  8  7  1  0
  8  9  1  0
  9 10  1  0
 11 10  1  0
 12 11  1  0
 13  2  1  0
  1 14  1  0
  3 15  1  0
  7 16  1  0
  8 17  1  0
  8 18  1  0
  9 19  1  0
  9 20  1  0
 10 21  1  0
 10 22  1  0
 11 23  1  0
 11 24  1  0
 12 25  1  0
 12 26  1  0
 13 27  1  0
M  ISO  8  14  14  15  14  16  13  17  13  18  13  19  13  20  13  21  13
M  ISO  6  22  13  23  13  24  13  25  13  26  13  27  11
M  END
>  <minimizedAffinity>  (1) 
-4.28437614

>  <minimizedRMSD>  (1) 
1.46860969

$$$$
