
     RDKit          3D

 19 20  0  0  0  0  0  0  0  0999 V2000
   44.0000   35.5530   42.7710 C   0  0  0  0  0  0  0  0  0  0  0  0
   43.3070   35.0920   41.6320 C   0  0  0  0  0  0  0  0  0  0  0  0
   44.0400   34.4280   40.6420 C   0  0  0  0  0  0  0  0  0  0  0  0
   45.3830   34.2520   40.8130 N   0  0  0  0  0  0  0  0  0  0  0  0
   46.0010   34.7120   41.9220 C   0  0  0  0  0  0  0  0  0  0  0  0
   45.3190   35.3500   42.8820 N   0  0  0  0  0  0  0  0  0  0  0  0
   47.4380   34.5250   42.1070 C   0  0  0  0  0  0  0  0  0  0  0  0
   47.9210   33.2700   42.4180 C   0  0  0  0  0  0  0  0  0  0  0  0
   49.2800   33.1130   42.5900 C   0  0  0  0  0  0  0  0  0  0  0  0
   50.1800   34.1280   42.4690 N   0  0  0  0  0  0  0  0  0  0  0  0
   49.6530   35.3400   42.1610 C   0  0  0  0  0  0  0  0  0  0  0  0
   48.3250   35.5560   41.9820 N   0  0  0  0  0  0  0  0  0  0  0  0
   41.5310   35.3490   41.4510 S   0  0  0  0  0  0  0  0  0  0  0  0
   43.4562   36.0799   43.5690 H   0  0  0  0  0  0  0  0  0  0  0  0
   43.5401   34.0524   39.7370 H   0  0  0  0  0  0  0  0  0  0  0  0
   47.2376   32.4149   42.5261 H   0  0  0  0  0  0  0  0  0  0  0  0
   49.6589   32.1108   42.8392 H   0  0  0  0  0  0  0  0  0  0  0  0
   50.3387   36.1930   42.0505 H   0  0  0  0  0  0  0  0  0  0  0  0
   40.9530   35.4326   42.6903 H   0  0  0  0  0  0  0  0  0  0  0  0
  1  6  2  0
  2  1  1  0
  3  4  1  0
  3  2  2  0
  4  5  2  0
  5  7  1  0
  5  6  1  0
  7  8  2  0
  8  9  1  0
 10  9  2  0
 11 10  1  0
 12  7  1  0
 12 11  2  0
 13  2  1  0
  1 14  1  0
  3 15  1  0
  8 16  1  0
  9 17  1  0
 11 18  1  0
 13 19  1  0
M  ISO  6  14  14  15  14  16  14  17  14  18  14  19  11
M  END
>  <minimizedAffinity>  (1) 
-3.79787159

>  <minimizedRMSD>  (1) 
5.151649

$$$$
