
     RDKit          3D

 20 21  0  0  0  0  0  0  0  0999 V2000
   44.0020   35.5130   42.6770 C   0  0  0  0  0  0  0  0  0  0  0  0
   43.3030   35.0460   41.5420 C   0  0  0  0  0  0  0  0  0  0  0  0
   44.0020   34.3560   40.5630 C   0  0  0  0  0  0  0  0  0  0  0  0
   45.3460   34.1450   40.7190 N   0  0  0  0  0  0  0  0  0  0  0  0
   45.9760   34.6140   41.8300 C   0  0  0  0  0  0  0  0  0  0  0  0
   45.3170   35.2860   42.7920 N   0  0  0  0  0  0  0  0  0  0  0  0
   47.4160   34.4140   42.0440 C   0  0  0  0  0  0  0  0  0  0  0  0
   48.2780   35.4840   41.9440 C   0  0  0  0  0  0  0  0  0  0  0  0
   49.6450   35.3450   42.1370 C   0  0  0  0  0  0  0  0  0  0  0  0
   50.1760   34.1020   42.4410 C   0  0  0  0  0  0  0  0  0  0  0  0
   49.2760   33.0490   42.5330 C   0  0  0  0  0  0  0  0  0  0  0  0
   47.9540   33.2170   42.3400 N   0  0  0  0  0  0  0  0  0  0  0  0
   41.5230   35.3410   41.3620 S   0  0  0  0  0  0  0  0  0  0  0  0
   43.4670   36.0625   43.4656 H   0  0  0  0  0  0  0  0  0  0  0  0
   43.4815   33.9816   39.6692 H   0  0  0  0  0  0  0  0  0  0  0  0
   47.8708   36.4773   41.7042 H   0  0  0  0  0  0  0  0  0  0  0  0
   50.3058   36.2200   42.0488 H   0  0  0  0  0  0  0  0  0  0  0  0
   51.2546   33.9570   42.6011 H   0  0  0  0  0  0  0  0  0  0  0  0
   49.6553   32.0444   42.7714 H   0  0  0  0  0  0  0  0  0  0  0  0
   40.9482   35.4363   42.6019 H   0  0  0  0  0  0  0  0  0  0  0  0
  1  6  2  0
  2  1  1  0
  3  4  1  0
  3  2  2  0
  4  5  2  0
  5  7  1  0
  5  6  1  0
  7 12  1  0
  8  7  2  0
  8  9  1  0
  9 10  2  0
 10 11  1  0
 12 11  2  0
 13  2  1  0
  1 14  1  0
  3 15  1  0
  8 16  1  0
  9 17  1  0
 10 18  1  0
 11 19  1  0
 13 20  1  0
M  ISO  7  14  14  15  14  16  14  17  14  18  14  19  14  20  11
M  END
>  <minimizedAffinity>  (1) 
-4.23665094

>  <minimizedRMSD>  (1) 
5.12606049

$$$$
