
     RDKit          3D

 45 47  0  0  0  0  0  0  0  0999 V2000
   46.1140   32.3020   37.7770 C   0  0  0  0  0  0  0  0  0  0  0  0
   45.7510   34.2370   40.8610 C   0  0  0  0  0  0  0  0  0  0  0  0
   47.0510   34.5830   41.1770 C   0  0  0  0  0  0  0  0  0  0  0  0
   48.0990   34.1580   40.3350 C   0  0  0  0  0  0  0  0  0  0  0  0
   47.7770   33.4260   39.2460 N   0  0  0  0  0  0  0  0  0  0  0  0
   46.4740   33.1060   38.9710 C   0  0  0  0  0  0  0  0  0  0  0  0
   45.4990   33.5100   39.7690 N   0  0  0  0  0  0  0  0  0  0  0  0
   44.6930   34.6780   41.7310 C   0  0  0  0  0  0  0  0  0  0  0  0
   43.7300   35.3680   41.2570 O   0  0  0  0  0  0  0  0  0  0  0  0
   44.7710   34.3160   43.1020 O   0  0  0  0  0  0  0  0  0  0  0  0
   44.7980   35.3370   44.0590 C   0  0  0  0  0  0  0  0  0  0  0  0
   43.5250   35.8590   44.3190 F   0  0  0  0  0  0  0  0  0  0  0  0
   45.3270   34.8690   45.2260 F   0  0  0  0  0  0  0  0  0  0  0  0
   45.5380   36.3680   43.5190 F   0  0  0  0  0  0  0  0  0  0  0  0
   45.1130   31.2380   38.0570 C   0  0  0  0  0  0  0  0  0  0  0  0
   45.6100   33.2140   36.7180 C   0  0  0  0  0  0  0  0  0  0  0  0
   47.4090   31.6630   37.2780 C   0  0  0  0  0  0  0  0  0  0  0  0
   47.6150   31.8600   35.8390 C   0  0  0  0  0  0  0  0  0  0  0  0
   46.9640   31.0500   34.9250 C   0  0  0  0  0  0  0  0  0  0  0  0
   47.3670   31.4880   33.6630 C   0  0  0  0  0  0  0  0  0  0  0  0
   48.2200   32.5150   33.8250 N   0  0  0  0  0  0  0  0  0  0  0  0
   48.3460   32.7100   35.1040 N   0  0  0  0  0  0  0  0  0  0  0  0
   48.8870   33.2760   32.7840 C   0  0  0  0  0  0  0  0  0  0  0  0
   49.2750   32.4170   31.6480 C   0  0  0  0  0  0  0  0  0  0  0  0
   48.7280   32.6360   30.3820 C   0  0  0  0  0  0  0  0  0  0  0  0
   49.2300   31.7140   29.4660 C   0  0  0  0  0  0  0  0  0  0  0  0
   50.0750   30.9600   30.2250 N   0  0  0  0  0  0  0  0  0  0  0  0
   50.1020   31.3680   31.4990 N   0  0  0  0  0  0  0  0  0  0  0  0
   47.2655   35.1824   42.0741 H   0  0  0  0  0  0  0  0  0  0  0  0
   49.1453   34.4142   40.5576 H   0  0  0  0  0  0  0  0  0  0  0  0
   45.0000   31.1179   39.1446 H   0  0  0  0  0  0  0  0  0  0  0  0
   44.1452   31.5200   37.6167 H   0  0  0  0  0  0  0  0  0  0  0  0
   45.4535   30.2892   37.6167 H   0  0  0  0  0  0  0  0  0  0  0  0
   45.1281   34.0861   37.1840 H   0  0  0  0  0  0  0  0  0  0  0  0
   46.4505   33.5500   36.0929 H   0  0  0  0  0  0  0  0  0  0  0  0
   44.8783   32.6812   36.0929 H   0  0  0  0  0  0  0  0  0  0  0  0
   48.2550   32.1109   37.8200 H   0  0  0  0  0  0  0  0  0  0  0  0
   47.3392   30.5805   37.4603 H   0  0  0  0  0  0  0  0  0  0  0  0
   46.2691   30.2270   35.1483 H   0  0  0  0  0  0  0  0  0  0  0  0
   47.0426   31.0656   32.7005 H   0  0  0  0  0  0  0  0  0  0  0  0
   48.2054   34.0600   32.4224 H   0  0  0  0  0  0  0  0  0  0  0  0
   49.8004   33.7162   33.2107 H   0  0  0  0  0  0  0  0  0  0  0  0
   48.0018   33.4264   30.1414 H   0  0  0  0  0  0  0  0  0  0  0  0
   49.0010   31.6181   28.3944 H   0  0  0  0  0  0  0  0  0  0  0  0
   50.6270   30.1702   29.8610 H   0  0  0  0  0  0  0  0  0  0  0  0
  1 15  1  0
  1  6  1  0
  2  3  2  0
  2  8  1  0
  4  3  1  0
  5  4  2  0
  6  5  1  0
  6  7  2  0
  7  2  1  0
  8 10  1  0
  9  8  2  0
 10 11  1  0
 11 12  1  0
 11 13  1  0
 14 11  1  0
 16  1  1  0
 17  1  1  0
 18 17  1  0
 19 18  1  0
 20 21  1  0
 20 19  2  0
 21 22  1  0
 22 18  2  0
 23 21  1  0
 24 23  1  0
 25 24  1  0
 26 27  1  0
 26 25  2  0
 27 28  1  0
 28 24  2  0
  3 29  1  0
  4 30  1  0
 15 31  1  0
 15 32  1  0
 15 33  1  0
 16 34  1  0
 16 35  1  0
 16 36  1  0
 17 37  1  0
 17 38  1  0
 19 39  1  0
 20 40  1  0
 23 41  1  0
 23 42  1  0
 25 43  1  0
 26 44  1  0
 27 45  1  0
M  ISO  8  29  14  30  14  31   8  32   8  33   8  34   8  35   8  36   8
M  ISO  8  37   8  38   8  39  14  40  14  41   8  42   8  43  14  44  14
M  ISO  1  45   9
M  END
>  <minimizedAffinity>  (1) 
-5.56181717

>  <minimizedRMSD>  (1) 
1.16738784

$$$$
