
     RDKit          3D

 27 29  0  0  0  0  0  0  0  0999 V2000
   44.0230   35.5240   42.7880 C   0  0  0  0  0  0  0  0  0  0  0  0
   43.3120   35.0900   41.6480 C   0  0  0  0  0  0  0  0  0  0  0  0
   43.9950   34.4290   40.6340 C   0  0  0  0  0  0  0  0  0  0  0  0
   45.3440   34.2120   40.7620 N   0  0  0  0  0  0  0  0  0  0  0  0
   45.9890   34.6510   41.8870 C   0  0  0  0  0  0  0  0  0  0  0  0
   45.3390   35.2920   42.8740 N   0  0  0  0  0  0  0  0  0  0  0  0
   47.4320   34.4480   42.0790 C   0  0  0  0  0  0  0  0  0  0  0  0
   48.2860   35.5110   41.9560 C   0  0  0  0  0  0  0  0  0  0  0  0
   49.6580   35.3430   42.1330 C   0  0  0  0  0  0  0  0  0  0  0  0
   50.1850   34.0980   42.4370 C   0  0  0  0  0  0  0  0  0  0  0  0
   49.2810   33.0640   42.5480 C   0  0  0  0  0  0  0  0  0  0  0  0
   47.9570   33.2350   42.3760 N   0  0  0  0  0  0  0  0  0  0  0  0
   41.5320   35.3930   41.5140 S   0  0  0  0  0  0  0  0  0  0  0  0
   41.0390   34.7210   39.9330 C   0  0  0  0  0  0  0  0  0  0  0  0
   40.8110   35.6680   38.9410 C   0  0  0  0  0  0  0  0  0  0  0  0
   40.4390   34.9800   37.7830 C   0  0  0  0  0  0  0  0  0  0  0  0
   40.4720   33.6380   38.1730 C   0  0  0  0  0  0  0  0  0  0  0  0
   40.8270   33.5420   39.4350 O   0  0  0  0  0  0  0  0  0  0  0  0
   43.4993   36.0493   43.6003 H   0  0  0  0  0  0  0  0  0  0  0  0
   43.4595   34.0831   39.7376 H   0  0  0  0  0  0  0  0  0  0  0  0
   47.8855   36.5068   41.7153 H   0  0  0  0  0  0  0  0  0  0  0  0
   50.3298   36.2079   42.0303 H   0  0  0  0  0  0  0  0  0  0  0  0
   51.2645   33.9438   42.5816 H   0  0  0  0  0  0  0  0  0  0  0  0
   49.6565   32.0581   42.7868 H   0  0  0  0  0  0  0  0  0  0  0  0
   40.9060   36.7587   39.0480 H   0  0  0  0  0  0  0  0  0  0  0  0
   40.1812   35.3959   36.7978 H   0  0  0  0  0  0  0  0  0  0  0  0
   40.2353   32.7860   37.5188 H   0  0  0  0  0  0  0  0  0  0  0  0
  1  6  2  0
  2  1  1  0
  3  4  1  0
  3  2  2  0
  4  5  2  0
  5  7  1  0
  5  6  1  0
  7 12  1  0
  8  7  2  0
  8  9  1  0
  9 10  2  0
 10 11  1  0
 12 11  2  0
 13  2  1  0
 14 13  1  0
 15 14  2  0
 16 17  2  0
 16 15  1  0
 17 18  1  0
 18 14  1  0
  1 19  1  0
  3 20  1  0
  8 21  1  0
  9 22  1  0
 10 23  1  0
 11 24  1  0
 15 25  1  0
 16 26  1  0
 17 27  1  0
M  ISO  8  19  14  20  14  21  14  22  14  23  14  24  14  25  14  26  14
M  ISO  1  27  14
M  END
>  <minimizedAffinity>  (1) 
-5.34958363

>  <minimizedRMSD>  (1) 
3.07323599

$$$$
