
     RDKit          3D

 30 32  0  0  0  0  0  0  0  0999 V2000
   43.4840   35.5880   42.1670 C   0  0  0  0  0  0  0  0  0  0  0  0
   42.5810   35.3410   41.1230 C   0  0  0  0  0  0  0  0  0  0  0  0
   43.0140   34.5900   40.0280 C   0  0  0  0  0  0  0  0  0  0  0  0
   44.2950   34.1180   40.0020 N   0  0  0  0  0  0  0  0  0  0  0  0
   45.1320   34.3830   41.0350 C   0  0  0  0  0  0  0  0  0  0  0  0
   44.7330   35.1090   42.1070 N   0  0  0  0  0  0  0  0  0  0  0  0
   46.5130   33.9060   41.0650 C   0  0  0  0  0  0  0  0  0  0  0  0
   47.5220   34.7420   41.4560 C   0  0  0  0  0  0  0  0  0  0  0  0
   48.8500   34.3610   41.5080 C   0  0  0  0  0  0  0  0  0  0  0  0
   49.1890   33.0690   41.1490 C   0  0  0  0  0  0  0  0  0  0  0  0
   48.1490   32.2430   40.7570 C   0  0  0  0  0  0  0  0  0  0  0  0
   46.8600   32.6460   40.7160 N   0  0  0  0  0  0  0  0  0  0  0  0
   40.8780   35.9560   41.1360 S   0  0  0  0  0  0  0  0  0  0  0  0
   39.8600   34.5430   40.7050 C   0  0  0  0  0  0  0  0  0  0  0  0
   39.9380   33.4620   41.5920 C   0  0  0  0  0  0  0  0  0  0  0  0
   39.2010   32.3160   41.3690 C   0  0  0  0  0  0  0  0  0  0  0  0
   38.3980   32.2880   40.2490 C   0  0  0  0  0  0  0  0  0  0  0  0
   38.3340   33.3630   39.3870 C   0  0  0  0  0  0  0  0  0  0  0  0
   39.0670   34.5250   39.5930 C   0  0  0  0  0  0  0  0  0  0  0  0
   43.1650   36.1778   43.0390 H   0  0  0  0  0  0  0  0  0  0  0  0
   42.3287   34.3805   39.1934 H   0  0  0  0  0  0  0  0  0  0  0  0
   47.2635   35.7716   41.7443 H   0  0  0  0  0  0  0  0  0  0  0  0
   49.6240   35.0734   41.8295 H   0  0  0  0  0  0  0  0  0  0  0  0
   50.2305   32.7160   41.1736 H   0  0  0  0  0  0  0  0  0  0  0  0
   48.3836   31.2088   40.4649 H   0  0  0  0  0  0  0  0  0  0  0  0
   40.5921   33.5266   42.4740 H   0  0  0  0  0  0  0  0  0  0  0  0
   39.2526   31.4597   42.0575 H   0  0  0  0  0  0  0  0  0  0  0  0
   37.7967   31.3912   40.0386 H   0  0  0  0  0  0  0  0  0  0  0  0
   37.6794   33.2979   38.5053 H   0  0  0  0  0  0  0  0  0  0  0  0
   39.0121   35.3792   38.9021 H   0  0  0  0  0  0  0  0  0  0  0  0
  2 13  1  0
  2  1  2  0
  3  2  1  0
  4  3  2  0
  4  5  1  0
  5  7  1  0
  5  6  2  0
  6  1  1  0
  7  8  2  0
  8  9  1  0
 10  9  2  0
 11 10  1  0
 12 11  2  0
 12  7  1  0
 14 13  1  0
 14 15  2  0
 16 15  1  0
 17 16  2  0
 18 19  2  0
 18 17  1  0
 19 14  1  0
  1 20  1  0
  3 21  1  0
  8 22  1  0
  9 23  1  0
 10 24  1  0
 11 25  1  0
 15 26  1  0
 16 27  1  0
 17 28  1  0
 18 29  1  0
 19 30  1  0
M  ISO  8  20  14  21  14  22  14  23  14  24  14  25  14  26  14  27  14
M  ISO  3  28  14  29  14  30  14
M  END
>  <minimizedAffinity>  (1) 
-5.31846142

>  <minimizedRMSD>  (1) 
1.93584836

$$$$
