
     RDKit          3D

 28 30  0  0  0  0  0  0  0  0999 V2000
   43.7980   35.6070   42.1940 C   0  0  0  0  0  0  0  0  0  0  0  0
   43.1470   35.0380   41.0890 C   0  0  0  0  0  0  0  0  0  0  0  0
   43.8850   34.2260   40.2290 C   0  0  0  0  0  0  0  0  0  0  0  0
   45.2010   34.0180   40.4960 N   0  0  0  0  0  0  0  0  0  0  0  0
   45.7930   34.5840   41.5710 C   0  0  0  0  0  0  0  0  0  0  0  0
   45.1020   35.3780   42.4240 N   0  0  0  0  0  0  0  0  0  0  0  0
   47.2060   34.3880   41.8940 C   0  0  0  0  0  0  0  0  0  0  0  0
   48.1030   35.4110   41.7520 C   0  0  0  0  0  0  0  0  0  0  0  0
   49.4470   35.2790   42.0430 C   0  0  0  0  0  0  0  0  0  0  0  0
   49.9260   34.0720   42.4970 C   0  0  0  0  0  0  0  0  0  0  0  0
   48.9980   33.0350   42.6370 C   0  0  0  0  0  0  0  0  0  0  0  0
   47.6910   33.2130   42.3390 N   0  0  0  0  0  0  0  0  0  0  0  0
   41.3860   35.3770   40.8230 S   0  0  0  0  0  0  0  0  0  0  0  0
   40.4340   33.8670   41.0270 C   0  0  0  0  0  0  0  0  0  0  0  0
   39.1410   33.6730   40.5470 C   0  0  0  0  0  0  0  0  0  0  0  0
   38.5680   32.4290   40.8070 C   0  0  0  0  0  0  0  0  0  0  0  0
   39.2430   31.4900   41.4800 N   0  0  0  0  0  0  0  0  0  0  0  0
   40.5030   31.7120   41.9350 C   0  0  0  0  0  0  0  0  0  0  0  0
   41.0890   32.9080   41.7000 N   0  0  0  0  0  0  0  0  0  0  0  0
   43.2319   36.2509   42.8831 H   0  0  0  0  0  0  0  0  0  0  0  0
   43.4111   33.7626   39.3511 H   0  0  0  0  0  0  0  0  0  0  0  0
   47.7374   36.3831   41.3896 H   0  0  0  0  0  0  0  0  0  0  0  0
   50.1288   36.1323   41.9127 H   0  0  0  0  0  0  0  0  0  0  0  0
   50.9896   33.9291   42.7387 H   0  0  0  0  0  0  0  0  0  0  0  0
   49.3387   32.0532   42.9974 H   0  0  0  0  0  0  0  0  0  0  0  0
   38.6025   34.4568   39.9942 H   0  0  0  0  0  0  0  0  0  0  0  0
   37.5479   32.2167   40.4544 H   0  0  0  0  0  0  0  0  0  0  0  0
   41.0409   30.9281   42.4883 H   0  0  0  0  0  0  0  0  0  0  0  0
  1  6  2  0
  2  1  1  0
  3  4  1  0
  3  2  2  0
  4  5  2  0
  5  7  1  0
  5  6  1  0
  7 12  1  0
  8  7  2  0
  8  9  1  0
  9 10  2  0
 10 11  1  0
 12 11  2  0
 13 14  1  0
 13  2  1  0
 14 19  2  0
 15 16  2  0
 15 14  1  0
 16 17  1  0
 17 18  2  0
 19 18  1  0
  1 20  1  0
  3 21  1  0
  8 22  1  0
  9 23  1  0
 10 24  1  0
 11 25  1  0
 15 26  1  0
 16 27  1  0
 18 28  1  0
M  ISO  8  20  14  21  14  22  14  23  14  24  14  25  14  26  14  27  14
M  ISO  1  28  14
M  END
>  <minimizedAffinity>  (1) 
-5.34670925

>  <minimizedRMSD>  (1) 
0.958670914

$$$$
