
     RDKit          3D

 32 33  0  0  0  0  0  0  0  0999 V2000
   43.9680   35.5110   42.6680 C   0  0  0  0  0  0  0  0  0  0  0  0
   43.2770   35.0430   41.5160 C   0  0  0  0  0  0  0  0  0  0  0  0
   43.9900   34.3580   40.5270 C   0  0  0  0  0  0  0  0  0  0  0  0
   45.3220   34.1590   40.6990 N   0  0  0  0  0  0  0  0  0  0  0  0
   45.9470   34.6260   41.8270 C   0  0  0  0  0  0  0  0  0  0  0  0
   45.2810   35.2810   42.7770 N   0  0  0  0  0  0  0  0  0  0  0  0
   47.3800   34.4260   42.0370 C   0  0  0  0  0  0  0  0  0  0  0  0
   48.2520   35.4720   41.9340 C   0  0  0  0  0  0  0  0  0  0  0  0
   49.6200   35.3530   42.1210 C   0  0  0  0  0  0  0  0  0  0  0  0
   50.1400   34.0950   42.4320 C   0  0  0  0  0  0  0  0  0  0  0  0
   49.2290   33.0390   42.5320 C   0  0  0  0  0  0  0  0  0  0  0  0
   47.9210   33.2350   42.3380 N   0  0  0  0  0  0  0  0  0  0  0  0
   41.4970   35.3440   41.3510 S   0  0  0  0  0  0  0  0  0  0  0  0
   40.8480   34.6510   39.8280 C   0  0  0  0  0  0  0  0  0  0  0  0
   41.4200   35.5220   38.7000 C   0  0  0  0  0  0  0  0  0  0  0  0
   39.3420   34.8110   39.8420 C   0  0  0  0  0  0  0  0  0  0  0  0
   41.2910   33.2440   39.5670 C   0  0  0  0  0  0  0  0  0  0  0  0
   43.4298   36.0547   43.4584 H   0  0  0  0  0  0  0  0  0  0  0  0
   43.4806   33.9869   39.6255 H   0  0  0  0  0  0  0  0  0  0  0  0
   47.8458   36.4644   41.6889 H   0  0  0  0  0  0  0  0  0  0  0  0
   50.2799   36.2280   42.0268 H   0  0  0  0  0  0  0  0  0  0  0  0
   51.2176   33.9417   42.5911 H   0  0  0  0  0  0  0  0  0  0  0  0
   49.5947   32.0303   42.7743 H   0  0  0  0  0  0  0  0  0  0  0  0
   41.9747   36.3667   39.1344 H   0  0  0  0  0  0  0  0  0  0  0  0
   42.0982   34.9186   38.0788 H   0  0  0  0  0  0  0  0  0  0  0  0
   40.5968   35.9046   38.0788 H   0  0  0  0  0  0  0  0  0  0  0  0
   38.9869   34.8487   40.8824 H   0  0  0  0  0  0  0  0  0  0  0  0
   39.0675   35.7434   39.3269 H   0  0  0  0  0  0  0  0  0  0  0  0
   38.8777   33.9571   39.3269 H   0  0  0  0  0  0  0  0  0  0  0  0
   41.4537   32.7273   40.5243 H   0  0  0  0  0  0  0  0  0  0  0  0
   40.5156   32.7161   38.9925 H   0  0  0  0  0  0  0  0  0  0  0  0
   42.2290   33.2555   38.9925 H   0  0  0  0  0  0  0  0  0  0  0  0
  1  6  2  0
  2  1  1  0
  3  4  1  0
  3  2  2  0
  4  5  2  0
  5  7  1  0
  5  6  1  0
  7 12  1  0
  8  7  2  0
  8  9  1  0
  9 10  2  0
 10 11  1  0
 12 11  2  0
 13  2  1  0
 14 16  1  0
 14 13  1  0
 15 14  1  0
 17 14  1  0
  1 18  1  0
  3 19  1  0
  8 20  1  0
  9 21  1  0
 10 22  1  0
 11 23  1  0
 15 24  1  0
 15 25  1  0
 15 26  1  0
 16 27  1  0
 16 28  1  0
 16 29  1  0
 17 30  1  0
 17 31  1  0
 17 32  1  0
M  ISO  8  18  14  19  14  20  14  21  14  22  14  23  14  24   8  25   8
M  ISO  7  26   8  27   8  28   8  29   8  30   8  31   8  32   8
M  END
>  <minimizedAffinity>  (1) 
-5.09937716

>  <minimizedRMSD>  (1) 
0.11582312

$$$$
