
     RDKit          3D

 23 24  0  0  0  0  0  0  0  0999 V2000
   43.9090   35.3140   41.6640 C   0  0  0  0  0  0  0  0  0  0  0  0
   43.3850   34.5680   40.5800 C   0  0  0  0  0  0  0  0  0  0  0  0
   44.2200   33.7320   39.8740 C   0  0  0  0  0  0  0  0  0  0  0  0
   45.5400   33.6400   40.2330 N   0  0  0  0  0  0  0  0  0  0  0  0
   46.0100   34.3700   41.2790 C   0  0  0  0  0  0  0  0  0  0  0  0
   45.2070   35.1840   41.9700 N   0  0  0  0  0  0  0  0  0  0  0  0
   47.4050   34.3060   41.6970 C   0  0  0  0  0  0  0  0  0  0  0  0
   48.1710   35.4640   41.7020 C   0  0  0  0  0  0  0  0  0  0  0  0
   49.5040   35.4420   42.0950 C   0  0  0  0  0  0  0  0  0  0  0  0
   50.1070   34.2690   42.4900 C   0  0  0  0  0  0  0  0  0  0  0  0
   49.3050   33.1270   42.4720 C   0  0  0  0  0  0  0  0  0  0  0  0
   48.0210   33.1870   42.0860 N   0  0  0  0  0  0  0  0  0  0  0  0
   41.6440   34.6970   40.1140 S   0  0  0  0  0  0  0  0  0  0  0  0
   40.8250   35.9570   41.0770 C   0  0  0  0  0  0  0  0  0  0  0  0
   43.2619   35.9881   42.2443 H   0  0  0  0  0  0  0  0  0  0  0  0
   43.8319   33.1433   39.0297 H   0  0  0  0  0  0  0  0  0  0  0  0
   47.7151   36.4151   41.3896 H   0  0  0  0  0  0  0  0  0  0  0  0
   50.0858   36.3755   42.0904 H   0  0  0  0  0  0  0  0  0  0  0  0
   51.1612   34.2339   42.8021 H   0  0  0  0  0  0  0  0  0  0  0  0
   49.7325   32.1612   42.7794 H   0  0  0  0  0  0  0  0  0  0  0  0
   40.9617   35.7467   42.1480 H   0  0  0  0  0  0  0  0  0  0  0  0
   41.2573   36.9399   40.8382 H   0  0  0  0  0  0  0  0  0  0  0  0
   39.7512   35.9609   40.8382 H   0  0  0  0  0  0  0  0  0  0  0  0
  1  6  2  0
  2  1  1  0
  3  4  1  0
  3  2  2  0
  4  5  2  0
  5  7  1  0
  5  6  1  0
  7  8  2  0
  7 12  1  0
  8  9  1  0
  9 10  2  0
 11 10  1  0
 12 11  2  0
 13  2  1  0
 13 14  1  0
  1 15  1  0
  3 16  1  0
  8 17  1  0
  9 18  1  0
 10 19  1  0
 11 20  1  0
 14 21  1  0
 14 22  1  0
 14 23  1  0
M  ISO  8  15  14  16  14  17  14  18  14  19  14  20  14  21   8  22   8
M  ISO  1  23   8
M  END
>  <minimizedAffinity>  (1) 
-4.22626543

>  <minimizedRMSD>  (1) 
0.841782331

$$$$
