
     RDKit          3D

 42 45  0  0  1  0  0  0  0  0999 V2000
   38.0290   33.4780   40.0430 N   0  0  0  0  0  0  0  0  0  0  0  0
   38.8180   32.9070   41.0310 C   0  0  0  0  0  0  0  0  0  0  0  0
   39.9520   33.5700   41.6110 C   0  0  0  0  0  0  0  0  0  0  0  0
   40.6850   34.3690   40.5960 C   0  0  1  0  0  0  0  0  0  0  0  0
   39.7370   34.9740   39.6490 C   0  0  0  0  0  0  0  0  0  0  0  0
   38.8410   33.9910   38.9560 C   0  0  1  0  0  0  0  0  0  0  0  0
   39.5830   32.8420   38.3710 C   0  0  0  0  0  0  0  0  0  0  0  0
   38.9090   31.7120   37.8980 C   0  0  0  0  0  0  0  0  0  0  0  0
   39.8620   30.8180   37.4140 C   0  0  0  0  0  0  0  0  0  0  0  0
   41.0620   31.4640   37.6240 C   0  0  0  0  0  0  0  0  0  0  0  0
   40.8640   32.6270   38.1770 O   0  0  0  0  0  0  0  0  0  0  0  0
   41.5200   35.5940   41.5840 S   0  0  0  0  0  0  0  0  0  0  0  0
   44.0190   35.6370   42.8060 C   0  0  0  0  0  0  0  0  0  0  0  0
   43.2890   35.2280   41.6880 C   0  0  0  0  0  0  0  0  0  0  0  0
   43.9410   34.5500   40.6870 C   0  0  0  0  0  0  0  0  0  0  0  0
   45.2720   34.2980   40.8100 N   0  0  0  0  0  0  0  0  0  0  0  0
   45.9560   34.7080   41.9100 C   0  0  0  0  0  0  0  0  0  0  0  0
   45.3410   35.3750   42.9080 N   0  0  0  0  0  0  0  0  0  0  0  0
   47.3810   34.4610   42.0860 C   0  0  0  0  0  0  0  0  0  0  0  0
   48.2900   35.4610   41.9730 C   0  0  0  0  0  0  0  0  0  0  0  0
   49.6460   35.2350   42.1380 C   0  0  0  0  0  0  0  0  0  0  0  0
   50.1220   33.9770   42.4250 C   0  0  0  0  0  0  0  0  0  0  0  0
   49.1730   32.9720   42.5360 C   0  0  0  0  0  0  0  0  0  0  0  0
   47.8620   33.2230   42.3690 N   0  0  0  0  0  0  0  0  0  0  0  0
   37.3844   32.7647   39.6734 H   0  0  0  0  0  0  0  0  0  0  0  0
   38.1395   32.6814   41.8669 H   0  0  0  0  0  0  0  0  0  0  0  0
   39.3026   32.0889   40.4779 H   0  0  0  0  0  0  0  0  0  0  0  0
   39.6051   34.2392   42.4122 H   0  0  0  0  0  0  0  0  0  0  0  0
   40.6345   32.8060   42.0116 H   0  0  0  0  0  0  0  0  0  0  0  0
   41.3823   33.7847   39.9776 H   0  0  0  0  0  0  0  0  0  0  0  0
   39.1053   35.6851   40.2015 H   0  0  0  0  0  0  0  0  0  0  0  0
   40.3403   35.4555   38.8653 H   0  0  0  0  0  0  0  0  0  0  0  0
   38.2975   34.4678   38.1270 H   0  0  0  0  0  0  0  0  0  0  0  0
   37.8201   31.5564   37.9064 H   0  0  0  0  0  0  0  0  0  0  0  0
   39.6956   29.8265   36.9677 H   0  0  0  0  0  0  0  0  0  0  0  0
   42.0486   31.0546   37.3613 H   0  0  0  0  0  0  0  0  0  0  0  0
   43.5104   36.1806   43.6158 H   0  0  0  0  0  0  0  0  0  0  0  0
   43.3922   34.2142   39.7948 H   0  0  0  0  0  0  0  0  0  0  0  0
   47.9408   36.4787   41.7442 H   0  0  0  0  0  0  0  0  0  0  0  0
   50.3519   36.0727   42.0382 H   0  0  0  0  0  0  0  0  0  0  0  0
   51.1957   33.7791   42.5590 H   0  0  0  0  0  0  0  0  0  0  0  0
   49.4994   31.9470   42.7657 H   0  0  0  0  0  0  0  0  0  0  0  0
  1  2  1  0
  2  3  1  0
  4 12  1  0
  4  3  1  0
  5  4  1  0
  6  5  1  0
  6  1  1  0
  7  6  1  0
  8  7  2  0
  9 10  2  0
  9  8  1  0
 10 11  1  0
 11  7  1  0
 12 14  1  0
 13 18  2  0
 14 13  1  0
 15 16  1  0
 15 14  2  0
 16 17  2  0
 17 19  1  0
 17 18  1  0
 19 24  1  0
 20 19  2  0
 20 21  1  0
 21 22  2  0
 22 23  1  0
 24 23  2  0
  1 25  1  0
  2 26  1  0
  2 27  1  0
  3 28  1  0
  3 29  1  0
  4 30  1  6
  5 31  1  0
  5 32  1  0
  6 33  1  6
  8 34  1  0
  9 35  1  0
 10 36  1  0
 13 37  1  0
 15 38  1  0
 20 39  1  0
 21 40  1  0
 22 41  1  0
 23 42  1  0
M  ISO  8  25   5  26  13  27  13  28  13  29  13  30  13  31  13  32  13
M  ISO  8  33  13  34  14  35  14  36  14  37  14  38  14  39  14  40  14
M  ISO  2  41  14  42  14
M  END
>  <minimizedAffinity>  (1) 
-6.57925129

>  <minimizedRMSD>  (1) 
0.830780268

$$$$
