
     RDKit          3D

 47 50  0  0  1  0  0  0  0  0999 V2000
   38.0470   32.8310   40.9370 N   0  0  0  0  0  0  0  0  0  0  0  0
   38.3320   33.6590   39.8160 C   0  0  0  0  0  0  0  0  0  0  0  0
   39.4950   34.5980   40.0470 C   0  0  0  0  0  0  0  0  0  0  0  0
   40.6930   33.7780   40.4420 C   0  0  1  0  0  0  0  0  0  0  0  0
   40.4150   32.3090   40.5660 C   0  0  0  0  0  0  0  0  0  0  0  0
   39.1810   32.0880   41.4270 C   0  0  2  0  0  0  0  0  0  0  0  0
   38.8440   30.7040   41.5440 N   0  0  0  0  0  0  0  0  0  0  0  0
   39.6620   29.8370   40.7500 C   0  0  0  0  0  0  0  0  0  0  0  0
   38.7970   29.0640   39.8090 C   0  0  0  0  0  0  0  0  0  0  0  0
   37.4250   29.6960   39.9090 C   0  0  0  0  0  0  0  0  0  0  0  0
   37.4660   30.4180   41.2170 C   0  0  0  0  0  0  0  0  0  0  0  0
   41.9630   34.0850   39.2130 S   0  0  0  0  0  0  0  0  0  0  0  0
   44.6500   33.4210   39.4290 C   0  0  0  0  0  0  0  0  0  0  0  0
   43.5930   34.1740   39.9510 C   0  0  0  0  0  0  0  0  0  0  0  0
   43.8420   34.9720   41.0310 C   0  0  0  0  0  0  0  0  0  0  0  0
   45.0910   35.0230   41.5750 N   0  0  0  0  0  0  0  0  0  0  0  0
   46.0950   34.2860   41.0540 C   0  0  0  0  0  0  0  0  0  0  0  0
   45.8730   33.4870   39.9820 N   0  0  0  0  0  0  0  0  0  0  0  0
   47.4490   34.2910   41.5810 C   0  0  0  0  0  0  0  0  0  0  0  0
   48.0330   33.1590   42.0410 C   0  0  0  0  0  0  0  0  0  0  0  0
   49.3310   33.1590   42.5470 C   0  0  0  0  0  0  0  0  0  0  0  0
   50.0630   34.3380   42.5890 C   0  0  0  0  0  0  0  0  0  0  0  0
   49.4400   35.4710   42.1140 C   0  0  0  0  0  0  0  0  0  0  0  0
   48.1840   35.4320   41.6320 N   0  0  0  0  0  0  0  0  0  0  0  0
   37.3144   32.1600   40.6649 H   0  0  0  0  0  0  0  0  0  0  0  0
   37.4385   34.2590   39.5888 H   0  0  0  0  0  0  0  0  0  0  0  0
   38.6086   32.9961   38.9829 H   0  0  0  0  0  0  0  0  0  0  0  0
   39.7131   35.1542   39.1234 H   0  0  0  0  0  0  0  0  0  0  0  0
   39.2492   35.3173   40.8421 H   0  0  0  0  0  0  0  0  0  0  0  0
   41.0116   34.0843   41.4493 H   0  0  0  0  0  0  0  0  0  0  0  0
   40.2431   31.8844   39.5659 H   0  0  0  0  0  0  0  0  0  0  0  0
   41.2783   31.8148   41.0357 H   0  0  0  0  0  0  0  0  0  0  0  0
   39.4376   32.4620   42.4291 H   0  0  0  0  0  0  0  0  0  0  0  0
   40.3838   30.4369   40.1764 H   0  0  0  0  0  0  0  0  0  0  0  0
   40.2050   29.1410   41.4063 H   0  0  0  0  0  0  0  0  0  0  0  0
   38.7554   28.0058   40.1063 H   0  0  0  0  0  0  0  0  0  0  0  0
   39.1856   29.0928   38.7803 H   0  0  0  0  0  0  0  0  0  0  0  0
   37.2538   30.3968   39.0786 H   0  0  0  0  0  0  0  0  0  0  0  0
   36.6097   28.9597   39.8522 H   0  0  0  0  0  0  0  0  0  0  0  0
   36.9010   31.3586   41.1387 H   0  0  0  0  0  0  0  0  0  0  0  0
   37.0151   29.7953   42.0037 H   0  0  0  0  0  0  0  0  0  0  0  0
   44.4788   32.7698   38.5591 H   0  0  0  0  0  0  0  0  0  0  0  0
   43.0311   35.5763   41.4639 H   0  0  0  0  0  0  0  0  0  0  0  0
   47.4681   32.2155   42.0144 H   0  0  0  0  0  0  0  0  0  0  0  0
   49.7769   32.2228   42.9141 H   0  0  0  0  0  0  0  0  0  0  0  0
   51.0899   34.3660   42.9822 H   0  0  0  0  0  0  0  0  0  0  0  0
   49.9809   36.4287   42.1290 H   0  0  0  0  0  0  0  0  0  0  0  0
  1  6  1  0
  2  3  1  0
  2  1  1  0
  3  4  1  0
  4  5  1  0
  5  6  1  0
  6  7  1  0
  7  8  1  0
  9 10  1  0
  9  8  1  0
 10 11  1  0
 11  7  1  0
 12 14  1  0
 12  4  1  0
 13 14  2  0
 13 18  1  0
 14 15  1  0
 15 16  2  0
 17 16  1  0
 17 19  1  0
 18 17  2  0
 19 24  1  0
 19 20  2  0
 20 21  1  0
 21 22  2  0
 23 22  1  0
 24 23  2  0
  1 25  1  0
  2 26  1  0
  2 27  1  0
  3 28  1  0
  3 29  1  0
  4 30  1  1
  5 31  1  0
  5 32  1  0
  6 33  1  1
  8 34  1  0
  8 35  1  0
  9 36  1  0
  9 37  1  0
 10 38  1  0
 10 39  1  0
 11 40  1  0
 11 41  1  0
 13 42  1  0
 15 43  1  0
 20 44  1  0
 21 45  1  0
 22 46  1  0
 23 47  1  0
M  ISO  8  25   5  26  13  27  13  28  13  29  13  30  13  31  13  32  13
M  ISO  8  33  13  34  13  35  13  36  13  37  13  38  13  39  13  40  13
M  ISO  7  41  13  42  14  43  14  44  14  45  14  46  14  47  14
M  END
>  <minimizedAffinity>  (1) 
-6.24520636

>  <minimizedRMSD>  (1) 
3.95215225

$$$$
