
     RDKit          3D

 36 38  0  0  1  0  0  0  0  0999 V2000
   44.0330   35.4790   42.5860 C   0  0  0  0  0  0  0  0  0  0  0  0
   43.3630   34.9840   41.4690 C   0  0  0  0  0  0  0  0  0  0  0  0
   44.0800   34.2950   40.5350 C   0  0  0  0  0  0  0  0  0  0  0  0
   45.4270   34.1010   40.7020 N   0  0  0  0  0  0  0  0  0  0  0  0
   46.0400   34.6020   41.8070 C   0  0  0  0  0  0  0  0  0  0  0  0
   45.3590   35.2850   42.7450 N   0  0  0  0  0  0  0  0  0  0  0  0
   47.4750   34.4260   42.0400 C   0  0  0  0  0  0  0  0  0  0  0  0
   48.3180   35.5070   41.9380 C   0  0  0  0  0  0  0  0  0  0  0  0
   49.6860   35.4100   42.1440 C   0  0  0  0  0  0  0  0  0  0  0  0
   50.2330   34.1750   42.4690 C   0  0  0  0  0  0  0  0  0  0  0  0
   49.3490   33.1010   42.5640 C   0  0  0  0  0  0  0  0  0  0  0  0
   48.0320   33.2510   42.3530 N   0  0  0  0  0  0  0  0  0  0  0  0
   41.5970   35.2490   41.2680 S   0  0  0  0  0  0  0  0  0  0  0  0
   38.4290   32.8780   39.2020 N   0  0  0  0  0  0  0  0  0  0  0  0
   38.5500   33.2720   40.5700 C   0  0  0  0  0  0  0  0  0  0  0  0
   39.9690   33.1330   41.0920 C   0  0  0  0  0  0  0  0  0  0  0  0
   40.8580   33.9940   40.2320 C   0  0  1  0  0  0  0  0  0  0  0  0
   40.1580   34.6030   39.0500 C   0  0  0  0  0  0  0  0  0  0  0  0
   39.3380   33.5580   38.3110 C   0  0  2  0  0  0  0  0  0  0  0  0
   38.5930   34.2830   37.3520 O   0  0  0  0  0  0  0  0  0  0  0  0
   43.4721   36.0368   43.3504 H   0  0  0  0  0  0  0  0  0  0  0  0
   43.5752   33.8933   39.6440 H   0  0  0  0  0  0  0  0  0  0  0  0
   47.8905   36.4879   41.6829 H   0  0  0  0  0  0  0  0  0  0  0  0
   50.3286   36.2980   42.0514 H   0  0  0  0  0  0  0  0  0  0  0  0
   51.3120   34.0504   42.6431 H   0  0  0  0  0  0  0  0  0  0  0  0
   49.7410   32.1052   42.8184 H   0  0  0  0  0  0  0  0  0  0  0  0
   38.6109   31.8661   39.1394 H   0  0  0  0  0  0  0  0  0  0  0  0
   38.2415   34.3238   40.6627 H   0  0  0  0  0  0  0  0  0  0  0  0
   37.9078   32.6079   41.1671 H   0  0  0  0  0  0  0  0  0  0  0  0
   40.0185   33.4702   42.1379 H   0  0  0  0  0  0  0  0  0  0  0  0
   40.2937   32.0827   41.0526 H   0  0  0  0  0  0  0  0  0  0  0  0
   41.6324   33.3475   39.7935 H   0  0  0  0  0  0  0  0  0  0  0  0
   39.4903   35.4042   39.3997 H   0  0  0  0  0  0  0  0  0  0  0  0
   40.9149   35.0083   38.3623 H   0  0  0  0  0  0  0  0  0  0  0  0
   39.9873   32.7912   37.8633 H   0  0  0  0  0  0  0  0  0  0  0  0
   37.9656   34.8935   37.8143 H   0  0  0  0  0  0  0  0  0  0  0  0
  1  6  2  0
  2  1  1  0
  3  4  1  0
  3  2  2  0
  4  5  2  0
  5  7  1  0
  5  6  1  0
  7 12  1  0
  8  7  2  0
  8  9  1  0
  9 10  2  0
 10 11  1  0
 12 11  2  0
 13  2  1  0
 14 15  1  0
 15 16  1  0
 17 16  1  0
 17 13  1  0
 18 17  1  0
 19 18  1  0
 19 14  1  0
 20 19  1  0
  1 21  1  0
  3 22  1  0
  8 23  1  0
  9 24  1  0
 10 25  1  0
 11 26  1  0
 14 27  1  0
 15 28  1  0
 15 29  1  0
 16 30  1  0
 16 31  1  0
 17 32  1  6
 18 33  1  0
 18 34  1  0
 19 35  1  6
 20 36  1  0
M  ISO  8  21  14  22  14  23  14  24  14  25  14  26  14  27   5  28  13
M  ISO  8  29  13  30  13  31  13  32  13  33  13  34  13  35  13  36   3
M  END
>  <minimizedAffinity>  (1) 
-5.62121248

>  <minimizedRMSD>  (1) 
0.582466781

$$$$
