
     RDKit          3D

 37 39  0  0  1  0  0  0  0  0999 V2000
   41.6080   35.1290   41.3180 S   0  0  0  0  0  0  0  0  0  0  0  0
   38.4600   32.5040   39.5420 N   0  0  0  0  0  0  0  0  0  0  0  0
   38.6040   33.0110   40.8830 C   0  0  0  0  0  0  0  0  0  0  0  0
   40.0460   32.9610   41.3550 C   0  0  0  0  0  0  0  0  0  0  0  0
   40.8780   33.7750   40.4010 C   0  0  1  0  0  0  0  0  0  0  0  0
   40.1100   34.2860   39.2130 C   0  0  0  0  0  0  0  0  0  0  0  0
   39.2970   33.1730   38.5770 C   0  0  2  0  0  0  0  0  0  0  0  0
   38.4280   33.8200   37.5340 C   0  0  0  0  0  0  0  0  0  0  0  0
   37.8480   33.0140   36.7920 O   0  0  0  0  0  0  0  0  0  0  0  0
   44.0540   35.4250   42.6070 C   0  0  0  0  0  0  0  0  0  0  0  0
   43.3830   34.9140   41.4970 C   0  0  0  0  0  0  0  0  0  0  0  0
   44.1190   34.2470   40.5610 C   0  0  0  0  0  0  0  0  0  0  0  0
   45.4640   34.0870   40.7060 N   0  0  0  0  0  0  0  0  0  0  0  0
   46.0860   34.6010   41.8040 C   0  0  0  0  0  0  0  0  0  0  0  0
   45.3860   35.2710   42.7580 N   0  0  0  0  0  0  0  0  0  0  0  0
   47.5170   34.4730   42.0320 C   0  0  0  0  0  0  0  0  0  0  0  0
   48.3420   35.5520   41.9270 C   0  0  0  0  0  0  0  0  0  0  0  0
   49.7110   35.4620   42.1400 C   0  0  0  0  0  0  0  0  0  0  0  0
   50.2720   34.2380   42.4710 C   0  0  0  0  0  0  0  0  0  0  0  0
   49.4110   33.1560   42.5720 C   0  0  0  0  0  0  0  0  0  0  0  0
   48.0920   33.2890   42.3580 N   0  0  0  0  0  0  0  0  0  0  0  0
   38.7029   31.5031   39.5448 H   0  0  0  0  0  0  0  0  0  0  0  0
   38.2576   34.0548   40.9077 H   0  0  0  0  0  0  0  0  0  0  0  0
   38.0037   32.3781   41.5532 H   0  0  0  0  0  0  0  0  0  0  0  0
   40.1215   33.3820   42.3684 H   0  0  0  0  0  0  0  0  0  0  0  0
   40.4031   31.9209   41.3806 H   0  0  0  0  0  0  0  0  0  0  0  0
   41.6537   33.1186   39.9798 H   0  0  0  0  0  0  0  0  0  0  0  0
   39.4308   35.0870   39.5401 H   0  0  0  0  0  0  0  0  0  0  0  0
   40.8245   34.6694   38.4698 H   0  0  0  0  0  0  0  0  0  0  0  0
   39.9710   32.4159   38.1498 H   0  0  0  0  0  0  0  0  0  0  0  0
   38.3171   34.9102   37.4382 H   0  0  0  0  0  0  0  0  0  0  0  0
   43.4847   35.9660   43.3772 H   0  0  0  0  0  0  0  0  0  0  0  0
   43.6176   33.8315   39.6744 H   0  0  0  0  0  0  0  0  0  0  0  0
   47.9085   36.5283   41.6644 H   0  0  0  0  0  0  0  0  0  0  0  0
   50.3460   36.3553   42.0468 H   0  0  0  0  0  0  0  0  0  0  0  0
   51.3527   34.1301   42.6458 H   0  0  0  0  0  0  0  0  0  0  0  0
   49.8170   32.1675   42.8330 H   0  0  0  0  0  0  0  0  0  0  0  0
  1 11  1  0
  2  3  1  0
  3  4  1  0
  5  1  1  0
  5  4  1  0
  6  5  1  0
  7  6  1  0
  7  2  1  0
  8  7  1  0
  9  8  2  0
 10 15  2  0
 11 10  1  0
 12 13  1  0
 12 11  2  0
 13 14  2  0
 14 16  1  0
 14 15  1  0
 16 21  1  0
 17 16  2  0
 17 18  1  0
 18 19  2  0
 19 20  1  0
 21 20  2  0
  2 22  1  0
  3 23  1  0
  3 24  1  0
  4 25  1  0
  4 26  1  0
  5 27  1  6
  6 28  1  0
  6 29  1  0
  7 30  1  6
  8 31  1  0
 10 32  1  0
 12 33  1  0
 17 34  1  0
 18 35  1  0
 19 36  1  0
 20 37  1  0
M  ISO  8  22   5  23  13  24  13  25  13  26  13  27  13  28  13  29  13
M  ISO  8  30  13  31   6  32  14  33  14  34  14  35  14  36  14  37  14
M  END
>  <minimizedAffinity>  (1) 
-5.54616976

>  <minimizedRMSD>  (1) 
0.992875099

$$$$
