
     RDKit          3D

 38 41  0  0  0  0  0  0  0  0999 V2000
   46.4460   34.6580   42.1740 C   0  0  0  0  0  0  0  0  0  0  0  0
   47.7490   35.0280   42.0360 C   0  0  0  0  0  0  0  0  0  0  0  0
   48.4510   34.8540   40.8360 C   0  0  0  0  0  0  0  0  0  0  0  0
   47.7950   34.2770   39.7300 C   0  0  0  0  0  0  0  0  0  0  0  0
   46.4850   33.9090   39.8770 C   0  0  0  0  0  0  0  0  0  0  0  0
   45.8250   34.1010   41.0900 C   0  0  0  0  0  0  0  0  0  0  0  0
   44.4660   33.7020   41.1950 N   0  0  0  0  0  0  0  0  0  0  0  0
   43.6480   34.6620   40.6580 C   0  0  0  0  0  0  0  0  0  0  0  0
   42.2570   34.4760   40.6550 C   0  0  0  0  0  0  0  0  0  0  0  0
   41.7620   33.3020   41.2080 C   0  0  0  0  0  0  0  0  0  0  0  0
   40.5300   33.0820   41.2320 O   0  0  0  0  0  0  0  0  0  0  0  0
   42.6140   32.3940   41.7200 N   0  0  0  0  0  0  0  0  0  0  0  0
   43.9390   32.5870   41.7160 C   0  0  0  0  0  0  0  0  0  0  0  0
   44.8020   31.8060   42.1660 O   0  0  0  0  0  0  0  0  0  0  0  0
   41.3260   35.4860   40.0850 C   0  0  0  0  0  0  0  0  0  0  0  0
   44.4160   36.0560   45.0170 C   0  0  0  0  0  0  0  0  0  0  0  0
   44.9760   35.9550   43.7440 C   0  0  0  0  0  0  0  0  0  0  0  0
   45.8020   34.8800   43.4570 C   0  0  0  0  0  0  0  0  0  0  0  0
   46.0210   33.9890   44.4270 N   0  0  0  0  0  0  0  0  0  0  0  0
   45.4690   34.0980   45.6670 C   0  0  0  0  0  0  0  0  0  0  0  0
   44.6700   35.1320   45.9500 N   0  0  0  0  0  0  0  0  0  0  0  0
   45.7540   33.0810   46.6810 C   0  0  0  0  0  0  0  0  0  0  0  0
   46.7480   32.1710   46.6860 N   0  0  0  0  0  0  0  0  0  0  0  0
   46.6840   31.4230   47.7640 O   0  0  0  0  0  0  0  0  0  0  0  0
   45.6660   31.8200   48.4720 C   0  0  0  0  0  0  0  0  0  0  0  0
   45.0680   32.8480   47.8260 N   0  0  0  0  0  0  0  0  0  0  0  0
   48.2678   35.4784   42.8951 H   0  0  0  0  0  0  0  0  0  0  0  0
   49.5034   35.1645   40.7579 H   0  0  0  0  0  0  0  0  0  0  0  0
   48.3210   34.1267   38.7757 H   0  0  0  0  0  0  0  0  0  0  0  0
   45.9477   33.4574   39.0300 H   0  0  0  0  0  0  0  0  0  0  0  0
   44.0817   35.5777   40.2297 H   0  0  0  0  0  0  0  0  0  0  0  0
   42.2359   31.5263   42.1263 H   0  0  0  0  0  0  0  0  0  0  0  0
   40.8271   36.0273   40.9024 H   0  0  0  0  0  0  0  0  0  0  0  0
   41.8915   36.1976   39.4655 H   0  0  0  0  0  0  0  0  0  0  0  0
   40.5708   34.9802   39.4655 H   0  0  0  0  0  0  0  0  0  0  0  0
   43.7583   36.9046   45.2564 H   0  0  0  0  0  0  0  0  0  0  0  0
   44.7653   36.7171   42.9792 H   0  0  0  0  0  0  0  0  0  0  0  0
   45.3459   31.3919   49.4334 H   0  0  0  0  0  0  0  0  0  0  0  0
  1 18  1  0
  2  1  2  0
  3  2  1  0
  4  5  1  0
  4  3  2  0
  5  6  2  0
  6  7  1  0
  6  1  1  0
  7 13  1  0
  8  7  1  0
  9  8  2  0
  9 10  1  0
 10 11  2  0
 10 12  1  0
 13 12  1  0
 13 14  2  0
 15  9  1  0
 16 21  2  0
 17 16  1  0
 18 17  2  0
 18 19  1  0
 19 20  2  0
 20 21  1  0
 20 22  1  0
 22 23  2  0
 22 26  1  0
 23 24  1  0
 24 25  1  0
 26 25  2  0
  2 27  1  0
  3 28  1  0
  4 29  1  0
  5 30  1  0
  8 31  1  0
 12 32  1  0
 15 33  1  0
 15 34  1  0
 15 35  1  0
 16 36  1  0
 17 37  1  0
 25 38  1  0
M  ISO  8  27  14  28  14  29  14  30  14  31  14  32   9  33   8  34   8
M  ISO  4  35   8  36  14  37  14  38  14
M  END
>  <minimizedAffinity>  (1) 
-7.35403633

>  <minimizedRMSD>  (1) 
0.209165499

$$$$
