
     RDKit          3D

 39 42  0  0  0  0  0  0  0  0999 V2000
   46.4700   34.6320   42.1940 C   0  0  0  0  0  0  0  0  0  0  0  0
   47.7670   35.0010   42.0530 C   0  0  0  0  0  0  0  0  0  0  0  0
   48.4630   34.8530   40.8490 C   0  0  0  0  0  0  0  0  0  0  0  0
   47.8080   34.3050   39.7400 C   0  0  0  0  0  0  0  0  0  0  0  0
   46.4970   33.9300   39.8840 C   0  0  0  0  0  0  0  0  0  0  0  0
   45.8430   34.0960   41.1010 C   0  0  0  0  0  0  0  0  0  0  0  0
   44.4850   33.6970   41.2070 N   0  0  0  0  0  0  0  0  0  0  0  0
   43.6590   34.6580   40.6830 C   0  0  0  0  0  0  0  0  0  0  0  0
   42.2720   34.4710   40.6830 C   0  0  0  0  0  0  0  0  0  0  0  0
   41.7800   33.2900   41.2280 C   0  0  0  0  0  0  0  0  0  0  0  0
   40.5420   33.0650   41.2570 O   0  0  0  0  0  0  0  0  0  0  0  0
   42.6340   32.3900   41.7250 N   0  0  0  0  0  0  0  0  0  0  0  0
   43.9630   32.5750   41.7210 C   0  0  0  0  0  0  0  0  0  0  0  0
   44.8270   31.7890   42.1630 O   0  0  0  0  0  0  0  0  0  0  0  0
   41.3350   35.4840   40.1260 C   0  0  0  0  0  0  0  0  0  0  0  0
   44.4260   35.9510   45.0700 C   0  0  0  0  0  0  0  0  0  0  0  0
   44.9780   35.8700   43.7920 C   0  0  0  0  0  0  0  0  0  0  0  0
   45.8340   34.8240   43.4820 C   0  0  0  0  0  0  0  0  0  0  0  0
   46.0850   33.9350   44.4470 N   0  0  0  0  0  0  0  0  0  0  0  0
   45.5390   34.0290   45.6830 C   0  0  0  0  0  0  0  0  0  0  0  0
   44.7110   35.0360   45.9920 N   0  0  0  0  0  0  0  0  0  0  0  0
   45.8290   33.0320   46.7420 C   0  0  0  0  0  0  0  0  0  0  0  0
   45.0020   32.7530   47.9020 C   0  0  0  0  0  0  0  0  0  0  0  0
   46.0210   31.4400   48.6940 S   0  0  0  0  0  0  0  0  0  0  0  0
   47.3500   31.5060   47.3410 C   0  0  0  0  0  0  0  0  0  0  0  0
   46.9670   32.3890   46.5220 N   0  0  0  0  0  0  0  0  0  0  0  0
   48.2915   35.4330   42.9180 H   0  0  0  0  0  0  0  0  0  0  0  0
   49.5154   35.1644   40.7742 H   0  0  0  0  0  0  0  0  0  0  0  0
   48.3302   34.1788   38.7801 H   0  0  0  0  0  0  0  0  0  0  0  0
   45.9576   33.4942   39.0301 H   0  0  0  0  0  0  0  0  0  0  0  0
   44.0880   35.5789   40.2613 H   0  0  0  0  0  0  0  0  0  0  0  0
   42.2570   31.5199   42.1270 H   0  0  0  0  0  0  0  0  0  0  0  0
   40.8405   36.0186   40.9505 H   0  0  0  0  0  0  0  0  0  0  0  0
   41.8953   36.2010   39.5079 H   0  0  0  0  0  0  0  0  0  0  0  0
   40.5766   34.9813   39.5079 H   0  0  0  0  0  0  0  0  0  0  0  0
   43.7476   36.7806   45.3181 H   0  0  0  0  0  0  0  0  0  0  0  0
   44.7361   36.6306   43.0350 H   0  0  0  0  0  0  0  0  0  0  0  0
   44.0457   33.1966   48.2161 H   0  0  0  0  0  0  0  0  0  0  0  0
   48.2660   30.8999   47.2817 H   0  0  0  0  0  0  0  0  0  0  0  0
  1 18  1  0
  2  1  2  0
  3  2  1  0
  4  5  1  0
  4  3  2  0
  5  6  2  0
  6  7  1  0
  6  1  1  0
  7 13  1  0
  8  9  2  0
  8  7  1  0
  9 10  1  0
 10 11  2  0
 10 12  1  0
 13 12  1  0
 13 14  2  0
 15  9  1  0
 16 21  2  0
 17 16  1  0
 18 17  2  0
 18 19  1  0
 19 20  2  0
 20 21  1  0
 20 22  1  0
 22 23  2  0
 23 24  1  0
 25 24  1  0
 26 22  1  0
 26 25  2  0
  2 27  1  0
  3 28  1  0
  4 29  1  0
  5 30  1  0
  8 31  1  0
 12 32  1  0
 15 33  1  0
 15 34  1  0
 15 35  1  0
 16 36  1  0
 17 37  1  0
 23 38  1  0
 25 39  1  0
M  ISO  8  27  14  28  14  29  14  30  14  31  14  32   9  33   8  34   8
M  ISO  5  35   8  36  14  37  14  38  14  39  14
M  END
>  <minimizedAffinity>  (1) 
-7.2869091

>  <minimizedRMSD>  (1) 
0.418835014

$$$$
