
     RDKit          3D

 35 37  0  0  0  0  0  0  0  0999 V2000
   46.3950   34.7120   42.1630 C   0  0  0  0  0  0  0  0  0  0  0  0
   47.7050   35.0720   42.0380 C   0  0  0  0  0  0  0  0  0  0  0  0
   48.4140   34.8280   40.8540 C   0  0  0  0  0  0  0  0  0  0  0  0
   47.7720   34.2000   39.7660 C   0  0  0  0  0  0  0  0  0  0  0  0
   46.4670   33.8510   39.9200 C   0  0  0  0  0  0  0  0  0  0  0  0
   45.7940   34.1060   41.1000 C   0  0  0  0  0  0  0  0  0  0  0  0
   44.3960   36.3080   44.9310 C   0  0  0  0  0  0  0  0  0  0  0  0
   44.9810   36.1390   43.6780 C   0  0  0  0  0  0  0  0  0  0  0  0
   45.7340   35.0040   43.4290 C   0  0  0  0  0  0  0  0  0  0  0  0
   45.8630   34.1110   44.4160 N   0  0  0  0  0  0  0  0  0  0  0  0
   45.2880   34.2830   45.6390 C   0  0  0  0  0  0  0  0  0  0  0  0
   44.5550   35.3880   45.8840 N   0  0  0  0  0  0  0  0  0  0  0  0
   45.5210   33.2370   46.5870 N   0  0  0  0  0  0  0  0  0  0  0  0
   44.4300   33.7210   41.2050 N   0  0  0  0  0  0  0  0  0  0  0  0
   43.6100   34.6620   40.6320 C   0  0  0  0  0  0  0  0  0  0  0  0
   42.2310   34.4970   40.6180 C   0  0  0  0  0  0  0  0  0  0  0  0
   41.7210   33.3550   41.1990 C   0  0  0  0  0  0  0  0  0  0  0  0
   40.4800   33.1310   41.2270 O   0  0  0  0  0  0  0  0  0  0  0  0
   42.5560   32.4520   41.7530 N   0  0  0  0  0  0  0  0  0  0  0  0
   43.8850   32.6270   41.7580 C   0  0  0  0  0  0  0  0  0  0  0  0
   44.7310   31.8480   42.2460 O   0  0  0  0  0  0  0  0  0  0  0  0
   41.3190   35.4990   40.0040 C   0  0  0  0  0  0  0  0  0  0  0  0
   48.2136   35.5623   42.8812 H   0  0  0  0  0  0  0  0  0  0  0  0
   49.4698   35.1258   40.7731 H   0  0  0  0  0  0  0  0  0  0  0  0
   48.3081   33.9998   38.8266 H   0  0  0  0  0  0  0  0  0  0  0  0
   45.9379   33.3574   39.0915 H   0  0  0  0  0  0  0  0  0  0  0  0
   43.7977   37.2079   45.1364 H   0  0  0  0  0  0  0  0  0  0  0  0
   44.8461   36.8993   42.8946 H   0  0  0  0  0  0  0  0  0  0  0  0
   45.1171   33.2994   47.5324 H   0  0  0  0  0  0  0  0  0  0  0  0
   46.0927   32.4216   46.3240 H   0  0  0  0  0  0  0  0  0  0  0  0
   44.0523   35.5605   40.1770 H   0  0  0  0  0  0  0  0  0  0  0  0
   42.1613   31.6041   42.1844 H   0  0  0  0  0  0  0  0  0  0  0  0
   40.8061   36.0626   40.7973 H   0  0  0  0  0  0  0  0  0  0  0  0
   41.9025   36.1923   39.3803 H   0  0  0  0  0  0  0  0  0  0  0  0
   40.5741   34.9831   39.3803 H   0  0  0  0  0  0  0  0  0  0  0  0
  1  9  1  0
  2  1  2  0
  3  2  1  0
  4  5  1  0
  4  3  2  0
  5  6  2  0
  6 14  1  0
  6  1  1  0
  7 12  2  0
  8  7  1  0
  9  8  2  0
  9 10  1  0
 10 11  2  0
 11 12  1  0
 11 13  1  0
 14 20  1  0
 15 14  1  0
 16 15  2  0
 16 17  1  0
 17 18  2  0
 17 19  1  0
 19 20  1  0
 20 21  2  0
 22 16  1  0
  2 23  1  0
  3 24  1  0
  4 25  1  0
  5 26  1  0
  7 27  1  0
  8 28  1  0
 13 29  1  0
 13 30  1  0
 15 31  1  0
 19 32  1  0
 22 33  1  0
 22 34  1  0
 22 35  1  0
M  ISO  8  23  14  24  14  25  14  26  14  27  14  28  14  31  14  32   9
M  ISO  3  33   8  34   8  35   8
M  END
>  <minimizedAffinity>  (1) 
-6.81336403

>  <minimizedRMSD>  (1) 
0.102115966

$$$$
