
     RDKit          3D

 33 35  0  0  1  0  0  0  0  0999 V2000
   46.3870   33.2270   46.0420 C   0  0  2  0  0  0  0  0  0  0  0  0
   47.0200   32.0510   45.3350 C   0  0  0  0  0  0  0  0  0  0  0  0
   47.3040   30.8650   46.1130 C   0  0  0  0  0  0  0  0  0  0  0  0
   46.9760   30.8370   47.5370 C   0  0  2  0  0  0  0  0  0  0  0  0
   46.5300   32.0990   48.1550 C   0  0  0  0  0  0  0  0  0  0  0  0
   45.5760   32.7980   47.2200 C   0  0  0  0  0  0  0  0  0  0  0  0
   45.8160   33.7910   43.7090 C   0  0  0  0  0  0  0  0  0  0  0  0
   45.6560   34.0530   45.0690 C   0  0  0  0  0  0  0  0  0  0  0  0
   44.7980   35.1220   45.4440 C   0  0  0  0  0  0  0  0  0  0  0  0
   44.1810   35.8310   44.4620 N   0  0  0  0  0  0  0  0  0  0  0  0
   44.3610   35.5460   43.1480 C   0  0  0  0  0  0  0  0  0  0  0  0
   45.1750   34.5310   42.7760 N   0  0  0  0  0  0  0  0  0  0  0  0
   48.0980   30.2530   48.3440 C   0  0  0  0  0  0  0  0  0  0  0  0
   48.5970   30.8990   49.4510 C   0  0  0  0  0  0  0  0  0  0  0  0
   49.6270   30.3990   50.2230 C   0  0  0  0  0  0  0  0  0  0  0  0
   50.1750   29.1840   49.8480 C   0  0  0  0  0  0  0  0  0  0  0  0
   49.6810   28.5320   48.7410 C   0  0  0  0  0  0  0  0  0  0  0  0
   48.6740   29.0720   48.0310 N   0  0  0  0  0  0  0  0  0  0  0  0
   47.1731   33.8646   46.4727 H   0  0  0  0  0  0  0  0  0  0  0  0
   47.2575   32.0954   44.2619 H   0  0  0  0  0  0  0  0  0  0  0  0
   47.7648   29.9880   45.6349 H   0  0  0  0  0  0  0  0  0  0  0  0
   46.0859   30.1911   47.5599 H   0  0  0  0  0  0  0  0  0  0  0  0
   46.0214   31.8834   49.1062 H   0  0  0  0  0  0  0  0  0  0  0  0
   47.3997   32.7446   48.3466 H   0  0  0  0  0  0  0  0  0  0  0  0
   45.1296   33.6732   47.7148 H   0  0  0  0  0  0  0  0  0  0  0  0
   44.7515   32.1350   46.9191 H   0  0  0  0  0  0  0  0  0  0  0  0
   46.4740   32.9694   43.3898 H   0  0  0  0  0  0  0  0  0  0  0  0
   44.6370   35.3698   46.5036 H   0  0  0  0  0  0  0  0  0  0  0  0
   43.8434   36.1422   42.3821 H   0  0  0  0  0  0  0  0  0  0  0  0
   48.1526   31.8640   49.7362 H   0  0  0  0  0  0  0  0  0  0  0  0
   49.9981   30.9453   51.1027 H   0  0  0  0  0  0  0  0  0  0  0  0
   50.9981   28.7436   50.4298 H   0  0  0  0  0  0  0  0  0  0  0  0
   50.1109   27.5665   48.4360 H   0  0  0  0  0  0  0  0  0  0  0  0
  1  6  1  0
  2  1  1  0
  2  3  2  0
  3  4  1  0
  4  5  1  0
  4 13  1  0
  6  5  1  0
  7  8  2  0
  8  9  1  0
  8  1  1  0
 10  9  2  0
 11 10  1  0
 12 11  2  0
 12  7  1  0
 13 14  2  0
 14 15  1  0
 16 15  2  0
 17 16  1  0
 18 13  1  0
 18 17  2  0
  1 19  1  1
  2 20  1  0
  3 21  1  0
  4 22  1  6
  5 23  1  0
  5 24  1  0
  6 25  1  0
  6 26  1  0
  7 27  1  0
  9 28  1  0
 11 29  1  0
 14 30  1  0
 15 31  1  0
 16 32  1  0
 17 33  1  0
M  ISO  8  19  13  20  13  21  13  22  13  23  13  24  13  25  13  26  13
M  ISO  7  27  14  28  14  29  14  30  14  31  14  32  14  33  14
M  END
>  <minimizedAffinity>  (1) 
-5.17781305

>  <minimizedRMSD>  (1) 
7.87049818

$$$$
