
     RDKit          3D

 31 33  0  0  1  0  0  0  0  0999 V2000
   46.2600   33.7400   45.4900 C   0  0  2  0  0  0  0  0  0  0  0  0
   45.0320   34.6260   45.5480 C   0  0  0  0  0  0  0  0  0  0  0  0
   44.7080   35.4030   44.3740 C   0  0  0  0  0  0  0  0  0  0  0  0
   45.5510   35.3170   43.1950 C   0  0  1  0  0  0  0  0  0  0  0  0
   46.7260   34.4390   43.2400 C   0  0  0  0  0  0  0  0  0  0  0  0
   46.4530   33.2310   44.0920 C   0  0  0  0  0  0  0  0  0  0  0  0
   45.2580   32.8680   47.5610 C   0  0  0  0  0  0  0  0  0  0  0  0
   46.1550   32.6920   46.5100 C   0  0  0  0  0  0  0  0  0  0  0  0
   46.9390   31.5080   46.4910 C   0  0  0  0  0  0  0  0  0  0  0  0
   46.7720   30.6110   47.4980 N   0  0  0  0  0  0  0  0  0  0  0  0
   45.8890   30.8140   48.5070 C   0  0  0  0  0  0  0  0  0  0  0  0
   45.1350   31.9370   48.5390 N   0  0  0  0  0  0  0  0  0  0  0  0
   44.6760   35.0170   42.0160 C   0  0  0  0  0  0  0  0  0  0  0  0
   43.4280   35.4830   41.7120 C   0  0  0  0  0  0  0  0  0  0  0  0
   42.8090   35.0650   40.5750 C   0  0  0  0  0  0  0  0  0  0  0  0
   43.5380   34.1460   39.7720 C   0  0  0  0  0  0  0  0  0  0  0  0
   45.1090   33.9250   40.7100 S   0  0  0  0  0  0  0  0  0  0  0  0
   47.1712   34.3078   45.7294 H   0  0  0  0  0  0  0  0  0  0  0  0
   44.4087   34.6758   46.4530 H   0  0  0  0  0  0  0  0  0  0  0  0
   43.8245   36.0584   44.3733 H   0  0  0  0  0  0  0  0  0  0  0  0
   46.0356   36.3017   43.1205 H   0  0  0  0  0  0  0  0  0  0  0  0
   46.9725   34.1127   42.2188 H   0  0  0  0  0  0  0  0  0  0  0  0
   47.5682   34.9966   43.6756 H   0  0  0  0  0  0  0  0  0  0  0  0
   45.5448   32.7167   43.7446 H   0  0  0  0  0  0  0  0  0  0  0  0
   47.2803   32.5079   44.0392 H   0  0  0  0  0  0  0  0  0  0  0  0
   44.6395   33.7769   47.5981 H   0  0  0  0  0  0  0  0  0  0  0  0
   47.6619   31.3221   45.6830 H   0  0  0  0  0  0  0  0  0  0  0  0
   45.7853   30.0621   49.3032 H   0  0  0  0  0  0  0  0  0  0  0  0
   42.9255   36.1938   42.3845 H   0  0  0  0  0  0  0  0  0  0  0  0
   41.8053   35.4168   40.2941 H   0  0  0  0  0  0  0  0  0  0  0  0
   43.2375   33.6801   38.8219 H   0  0  0  0  0  0  0  0  0  0  0  0
  1  2  1  0
  1  8  1  0
  3  2  2  0
  4  5  1  0
  4  3  1  0
  5  6  1  0
  6  1  1  0
  7 12  2  0
  8  7  1  0
  9  8  2  0
  9 10  1  0
 10 11  2  0
 11 12  1  0
 13  4  1  0
 14 13  2  0
 15 14  1  0
 16 15  2  0
 16 17  1  0
 17 13  1  0
  1 18  1  1
  2 19  1  0
  3 20  1  0
  4 21  1  6
  5 22  1  0
  5 23  1  0
  6 24  1  0
  6 25  1  0
  7 26  1  0
  9 27  1  0
 11 28  1  0
 14 29  1  0
 15 30  1  0
 16 31  1  0
M  ISO  8  18  13  19  13  20  13  21  13  22  13  23  13  24  13  25  13
M  ISO  6  26  14  27  14  28  14  29  14  30  14  31  14
M  END
>  <minimizedAffinity>  (1) 
-5.22761822

>  <minimizedRMSD>  (1) 
0.724710822

$$$$
