
     RDKit          3D

 37 40  0  0  1  0  0  0  0  0999 V2000
   46.6490   32.0010   44.8250 C   0  0  2  0  0  0  0  0  0  0  0  0
   46.7110   33.5060   44.6650 C   0  0  0  0  0  0  0  0  0  0  0  0
   46.3900   34.0730   43.3730 C   0  0  0  0  0  0  0  0  0  0  0  0
   46.0160   33.1850   42.2770 C   0  0  2  0  0  0  0  0  0  0  0  0
   46.1180   31.7340   42.4990 C   0  0  0  0  0  0  0  0  0  0  0  0
   45.6560   31.3960   43.8880 C   0  0  0  0  0  0  0  0  0  0  0  0
   46.9490   32.5090   47.2250 C   0  0  0  0  0  0  0  0  0  0  0  0
   46.4070   31.6680   46.2520 C   0  0  0  0  0  0  0  0  0  0  0  0
   45.6610   30.5310   46.6680 C   0  0  0  0  0  0  0  0  0  0  0  0
   45.5160   30.3210   47.9930 N   0  0  0  0  0  0  0  0  0  0  0  0
   46.0530   31.1530   48.9190 C   0  0  0  0  0  0  0  0  0  0  0  0
   46.7640   32.2400   48.5380 N   0  0  0  0  0  0  0  0  0  0  0  0
   46.7350   33.5400   41.0500 N   0  0  0  0  0  0  0  0  0  0  0  0
   47.9480   34.1500   40.9690 C   0  0  0  0  0  0  0  0  0  0  0  0
   48.2700   34.3040   39.6760 N   0  0  0  0  0  0  0  0  0  0  0  0
   47.2550   33.7880   38.9550 C   0  0  0  0  0  0  0  0  0  0  0  0
   47.0900   33.6970   37.5860 C   0  0  0  0  0  0  0  0  0  0  0  0
   45.9500   33.1210   37.1280 N   0  0  0  0  0  0  0  0  0  0  0  0
   44.9990   32.6460   37.9360 C   0  0  0  0  0  0  0  0  0  0  0  0
   45.1680   32.7390   39.2770 N   0  0  0  0  0  0  0  0  0  0  0  0
   46.2910   33.3070   39.8000 C   0  0  0  0  0  0  0  0  0  0  0  0
   48.0790   34.1910   36.6860 N   0  0  0  0  0  0  0  0  0  0  0  0
   47.6145   31.5541   44.5456 H   0  0  0  0  0  0  0  0  0  0  0  0
   46.9930   34.1517   45.5098 H   0  0  0  0  0  0  0  0  0  0  0  0
   46.4275   35.1615   43.2186 H   0  0  0  0  0  0  0  0  0  0  0  0
   44.9342   33.3645   42.1911 H   0  0  0  0  0  0  0  0  0  0  0  0
   45.4880   31.2077   41.7668 H   0  0  0  0  0  0  0  0  0  0  0  0
   47.1661   31.4220   42.3797 H   0  0  0  0  0  0  0  0  0  0  0  0
   44.6565   31.8182   44.0692 H   0  0  0  0  0  0  0  0  0  0  0  0
   45.5874   30.3074   44.0302 H   0  0  0  0  0  0  0  0  0  0  0  0
   47.5287   33.3938   46.9233 H   0  0  0  0  0  0  0  0  0  0  0  0
   45.2162   29.8443   45.9328 H   0  0  0  0  0  0  0  0  0  0  0  0
   45.9097   30.9429   49.9892 H   0  0  0  0  0  0  0  0  0  0  0  0
   48.5641   34.4654   41.8239 H   0  0  0  0  0  0  0  0  0  0  0  0
   44.0912   32.1857   37.5188 H   0  0  0  0  0  0  0  0  0  0  0  0
   47.9351   34.1126   35.6691 H   0  0  0  0  0  0  0  0  0  0  0  0
   48.9375   34.6263   37.0526 H   0  0  0  0  0  0  0  0  0  0  0  0
  1  8  1  0
  2  1  1  0
  3  2  2  0
  4  5  1  0
  4  3  1  0
  5  6  1  0
  6  1  1  0
  7 12  2  0
  8  9  2  0
  8  7  1  0
  9 10  1  0
 10 11  2  0
 12 11  1  0
 13  4  1  0
 14 13  1  0
 15 14  2  0
 16 15  1  0
 16 21  2  0
 17 16  1  0
 18 17  2  0
 18 19  1  0
 19 20  2  0
 20 21  1  0
 21 13  1  0
 22 17  1  0
  1 23  1  6
  2 24  1  0
  3 25  1  0
  4 26  1  6
  5 27  1  0
  5 28  1  0
  6 29  1  0
  6 30  1  0
  7 31  1  0
  9 32  1  0
 11 33  1  0
 14 34  1  0
 19 35  1  0
 22 36  1  0
 22 37  1  0
M  ISO  8  23  13  24  13  25  13  26  13  27  13  28  13  29  13  30  13
M  ISO  5  31  14  32  14  33  14  34  14  35  14
M  END
>  <minimizedAffinity>  (1) 
-5.07917404

>  <minimizedRMSD>  (1) 
4.73809004

$$$$
