
     RDKit          3D

 36 38  0  0  0  0  0  0  0  0999 V2000
   45.9920   34.1970   41.9840 C   0  0  0  0  0  0  0  0  0  0  0  0
   46.5100   33.8660   40.6340 C   0  0  0  0  0  0  0  0  0  0  0  0
   47.8610   34.5540   40.4670 C   0  0  0  0  0  0  0  0  0  0  0  0
   48.1500   35.2440   41.7660 C   0  0  0  0  0  0  0  0  0  0  0  0
   46.8300   35.4140   42.4200 C   0  0  0  0  0  0  0  0  0  0  0  0
   44.6460   34.6780   41.8160 N   0  0  0  0  0  0  0  0  0  0  0  0
   44.1640   34.4960   40.5600 C   0  0  0  0  0  0  0  0  0  0  0  0
   42.8630   34.9330   40.2980 C   0  0  0  0  0  0  0  0  0  0  0  0
   42.2020   34.7950   38.9580 C   0  0  0  0  0  0  0  0  0  0  0  0
   42.0760   35.5300   41.2590 C   0  0  0  0  0  0  0  0  0  0  0  0
   40.9070   35.9330   41.0590 O   0  0  0  0  0  0  0  0  0  0  0  0
   42.5920   35.6980   42.5110 N   0  0  0  0  0  0  0  0  0  0  0  0
   43.8460   35.2640   42.7200 C   0  0  0  0  0  0  0  0  0  0  0  0
   44.3390   35.4100   43.8680 O   0  0  0  0  0  0  0  0  0  0  0  0
   46.1940   33.1840   43.0280 C   0  0  0  0  0  0  0  0  0  0  0  0
   45.6880   31.8980   42.8200 C   0  0  0  0  0  0  0  0  0  0  0  0
   45.8800   30.9420   43.8540 C   0  0  0  0  0  0  0  0  0  0  0  0
   46.5480   31.3440   44.9870 N   0  0  0  0  0  0  0  0  0  0  0  0
   47.0210   32.6170   45.1320 C   0  0  0  0  0  0  0  0  0  0  0  0
   46.8340   33.5260   44.1380 N   0  0  0  0  0  0  0  0  0  0  0  0
   46.6309   32.7770   40.5370 H   0  0  0  0  0  0  0  0  0  0  0  0
   45.8077   34.2091   39.8600 H   0  0  0  0  0  0  0  0  0  0  0  0
   48.6419   33.8104   40.2496 H   0  0  0  0  0  0  0  0  0  0  0  0
   47.8428   35.2695   39.6317 H   0  0  0  0  0  0  0  0  0  0  0  0
   48.8131   34.6275   42.3907 H   0  0  0  0  0  0  0  0  0  0  0  0
   48.6601   36.2068   41.6147 H   0  0  0  0  0  0  0  0  0  0  0  0
   46.3536   36.3477   42.0864 H   0  0  0  0  0  0  0  0  0  0  0  0
   46.9226   35.4735   43.5145 H   0  0  0  0  0  0  0  0  0  0  0  0
   44.7750   34.0221   39.7776 H   0  0  0  0  0  0  0  0  0  0  0  0
   41.1339   34.5720   39.0973 H   0  0  0  0  0  0  0  0  0  0  0  0
   42.3102   35.7351   38.3972 H   0  0  0  0  0  0  0  0  0  0  0  0
   42.6773   33.9767   38.3972 H   0  0  0  0  0  0  0  0  0  0  0  0
   42.0436   36.1386   43.2634 H   0  0  0  0  0  0  0  0  0  0  0  0
   45.1609   31.6355   41.8909 H   0  0  0  0  0  0  0  0  0  0  0  0
   45.5060   29.9126   43.7513 H   0  0  0  0  0  0  0  0  0  0  0  0
   47.5521   32.9064   46.0508 H   0  0  0  0  0  0  0  0  0  0  0  0
  1  5  1  0
  1 15  1  0
  2  1  1  0
  3  2  1  0
  3  4  1  0
  4  5  1  0
  6  1  1  0
  6 13  1  0
  7  6  1  0
  8  7  2  0
  8 10  1  0
  9  8  1  0
 10 12  1  0
 11 10  2  0
 12 13  1  0
 13 14  2  0
 15 20  1  0
 16 15  2  0
 16 17  1  0
 17 18  2  0
 18 19  1  0
 20 19  2  0
  2 21  1  0
  2 22  1  0
  3 23  1  0
  3 24  1  0
  4 25  1  0
  4 26  1  0
  5 27  1  0
  5 28  1  0
  7 29  1  0
  9 30  1  0
  9 31  1  0
  9 32  1  0
 12 33  1  0
 16 34  1  0
 17 35  1  0
 19 36  1  0
M  ISO  8  21  13  22  13  23  13  24  13  25  13  26  13  27  13  28  13
M  ISO  8  29  14  30   8  31   8  32   8  33   9  34  14  35  14  36  14
M  END
>  <minimizedAffinity>  (1) 
-5.65012932

>  <minimizedRMSD>  (1) 
2.47920966

$$$$
