
     RDKit          3D

 32 34  0  0  1  0  0  0  0  0999 V2000
   47.9620   31.5910   47.2970 C   0  0  2  0  0  0  0  0  0  0  0  0
   46.8370   32.3490   47.9670 C   0  0  0  0  0  0  0  0  0  0  0  0
   45.7260   32.7560   47.1330 C   0  0  0  0  0  0  0  0  0  0  0  0
   45.7130   32.4330   45.6970 C   0  0  2  0  0  0  0  0  0  0  0  0
   46.9500   31.8230   45.1460 C   0  0  0  0  0  0  0  0  0  0  0  0
   47.4670   30.8000   46.1270 C   0  0  0  0  0  0  0  0  0  0  0  0
   49.1520   31.4250   49.4660 C   0  0  0  0  0  0  0  0  0  0  0  0
   48.6780   30.8060   48.3100 C   0  0  0  0  0  0  0  0  0  0  0  0
   48.9390   29.4160   48.1720 C   0  0  0  0  0  0  0  0  0  0  0  0
   49.6210   28.7730   49.1490 N   0  0  0  0  0  0  0  0  0  0  0  0
   50.0630   29.4170   50.2590 C   0  0  0  0  0  0  0  0  0  0  0  0
   49.8200   30.7410   50.4020 N   0  0  0  0  0  0  0  0  0  0  0  0
   45.5140   33.7470   44.9890 C   0  0  0  0  0  0  0  0  0  0  0  0
   44.8110   34.8070   45.5250 C   0  0  0  0  0  0  0  0  0  0  0  0
   44.7100   35.9590   44.7560 C   0  0  0  0  0  0  0  0  0  0  0  0
   45.2730   36.0330   43.5410 N   0  0  0  0  0  0  0  0  0  0  0  0
   45.9480   34.9730   43.0630 C   0  0  0  0  0  0  0  0  0  0  0  0
   46.0920   33.8110   43.7540 N   0  0  0  0  0  0  0  0  0  0  0  0
   48.6910   32.2898   46.8607 H   0  0  0  0  0  0  0  0  0  0  0  0
   46.8622   32.5809   49.0420 H   0  0  0  0  0  0  0  0  0  0  0  0
   44.8855   33.3106   47.5756 H   0  0  0  0  0  0  0  0  0  0  0  0
   44.9269   31.6781   45.5481 H   0  0  0  0  0  0  0  0  0  0  0  0
   46.7254   31.3344   44.1864 H   0  0  0  0  0  0  0  0  0  0  0  0
   47.7098   32.6016   44.9831 H   0  0  0  0  0  0  0  0  0  0  0  0
   46.6597   30.1195   46.4356 H   0  0  0  0  0  0  0  0  0  0  0  0
   48.2594   30.1753   45.6891 H   0  0  0  0  0  0  0  0  0  0  0  0
   48.9726   32.5004   49.6118 H   0  0  0  0  0  0  0  0  0  0  0  0
   48.5914   28.8695   47.2829 H   0  0  0  0  0  0  0  0  0  0  0  0
   50.6143   28.8674   51.0362 H   0  0  0  0  0  0  0  0  0  0  0  0
   44.3493   34.7419   46.5213 H   0  0  0  0  0  0  0  0  0  0  0  0
   44.1588   36.8255   45.1501 H   0  0  0  0  0  0  0  0  0  0  0  0
   46.4054   35.0495   42.0656 H   0  0  0  0  0  0  0  0  0  0  0  0
  1  2  1  0
  1  8  1  0
  3  2  2  0
  4  3  1  0
  5  4  1  0
  5  6  1  0
  6  1  1  0
  7 12  2  0
  8  7  1  0
  9  8  2  0
  9 10  1  0
 10 11  2  0
 11 12  1  0
 13 14  2  0
 13  4  1  0
 15 14  1  0
 16 15  2  0
 17 16  1  0
 17 18  2  0
 18 13  1  0
  1 19  1  6
  2 20  1  0
  3 21  1  0
  4 22  1  1
  5 23  1  0
  5 24  1  0
  6 25  1  0
  6 26  1  0
  7 27  1  0
  9 28  1  0
 11 29  1  0
 14 30  1  0
 15 31  1  0
 17 32  1  0
M  ISO  8  19  13  20  13  21  13  22  13  23  13  24  13  25  13  26  13
M  ISO  6  27  14  28  14  29  14  30  14  31  14  32  14
M  END
>  <minimizedAffinity>  (1) 
-4.66662598

>  <minimizedRMSD>  (1) 
4.3272295

$$$$
