
     RDKit          3D

 38 41  0  0  1  0  0  0  0  0999 V2000
   46.4610   31.6000   45.4730 C   0  0  2  0  0  0  0  0  0  0  0  0
   46.8530   33.0390   45.2470 C   0  0  0  0  0  0  0  0  0  0  0  0
   46.7870   33.5790   43.9030 C   0  0  0  0  0  0  0  0  0  0  0  0
   46.3300   32.7020   42.7950 C   0  0  2  0  0  0  0  0  0  0  0  0
   46.1710   31.2730   43.1210 C   0  0  0  0  0  0  0  0  0  0  0  0
   45.4630   31.1490   44.4470 C   0  0  0  0  0  0  0  0  0  0  0  0
   47.2710   32.7950   41.6500 C   0  0  0  0  0  0  0  0  0  0  0  0
   46.7820   33.4980   40.5920 N   0  0  0  0  0  0  0  0  0  0  0  0
   47.5420   33.6420   39.4940 C   0  0  0  0  0  0  0  0  0  0  0  0
   48.7870   33.1150   39.3860 N   0  0  0  0  0  0  0  0  0  0  0  0
   49.3120   32.4130   40.4050 C   0  0  0  0  0  0  0  0  0  0  0  0
   50.5520   31.8390   40.4160 C   0  0  0  0  0  0  0  0  0  0  0  0
   51.0390   31.1330   41.4920 C   0  0  0  0  0  0  0  0  0  0  0  0
   50.2330   31.0030   42.6080 C   0  0  0  0  0  0  0  0  0  0  0  0
   48.9770   31.5730   42.6220 C   0  0  0  0  0  0  0  0  0  0  0  0
   48.5360   32.2670   41.5260 C   0  0  0  0  0  0  0  0  0  0  0  0
   46.2320   32.4480   47.7910 C   0  0  0  0  0  0  0  0  0  0  0  0
   46.0230   31.4290   46.8610 C   0  0  0  0  0  0  0  0  0  0  0  0
   45.3890   30.2410   47.3170 C   0  0  0  0  0  0  0  0  0  0  0  0
   45.0210   30.1520   48.6190 N   0  0  0  0  0  0  0  0  0  0  0  0
   45.2420   31.1670   49.4920 C   0  0  0  0  0  0  0  0  0  0  0  0
   45.8420   32.3020   49.0790 N   0  0  0  0  0  0  0  0  0  0  0  0
   47.3287   30.9385   45.3330 H   0  0  0  0  0  0  0  0  0  0  0  0
   47.1831   33.6677   46.0871 H   0  0  0  0  0  0  0  0  0  0  0  0
   47.0714   34.6233   43.7068 H   0  0  0  0  0  0  0  0  0  0  0  0
   45.3255   33.0830   42.5587 H   0  0  0  0  0  0  0  0  0  0  0  0
   45.5767   30.7797   42.3378 H   0  0  0  0  0  0  0  0  0  0  0  0
   47.1588   30.7926   43.1801 H   0  0  0  0  0  0  0  0  0  0  0  0
   44.5707   31.7919   44.4689 H   0  0  0  0  0  0  0  0  0  0  0  0
   45.1194   30.1209   44.6336 H   0  0  0  0  0  0  0  0  0  0  0  0
   47.1369   34.2124   38.6451 H   0  0  0  0  0  0  0  0  0  0  0  0
   51.1889   31.9460   39.5255 H   0  0  0  0  0  0  0  0  0  0  0  0
   52.0428   30.6840   41.4651 H   0  0  0  0  0  0  0  0  0  0  0  0
   50.5935   30.4450   43.4847 H   0  0  0  0  0  0  0  0  0  0  0  0
   48.3331   31.4710   43.5080 H   0  0  0  0  0  0  0  0  0  0  0  0
   46.7197   33.3815   47.4736 H   0  0  0  0  0  0  0  0  0  0  0  0
   45.2000   29.4074   46.6247 H   0  0  0  0  0  0  0  0  0  0  0  0
   44.9302   31.0636   50.5418 H   0  0  0  0  0  0  0  0  0  0  0  0
  1 18  1  0
  2  1  1  0
  3  2  2  0
  4  5  1  0
  4  3  1  0
  5  6  1  0
  6  1  1  0
  7  4  1  0
  8  7  2  0
  9  8  1  0
 10  9  2  0
 10 11  1  0
 11 12  1  0
 11 16  2  0
 12 13  2  0
 13 14  1  0
 14 15  2  0
 16  7  1  0
 16 15  1  0
 17 22  2  0
 18 19  2  0
 18 17  1  0
 19 20  1  0
 20 21  2  0
 22 21  1  0
  1 23  1  1
  2 24  1  0
  3 25  1  0
  4 26  1  6
  5 27  1  0
  5 28  1  0
  6 29  1  0
  6 30  1  0
  9 31  1  0
 12 32  1  0
 13 33  1  0
 14 34  1  0
 15 35  1  0
 17 36  1  0
 19 37  1  0
 21 38  1  0
M  ISO  8  23  13  24  13  25  13  26  13  27  13  28  13  29  13  30  13
M  ISO  8  31  14  32  14  33  14  34  14  35  14  36  14  37  14  38  14
M  END
>  <minimizedAffinity>  (1) 
-4.82312393

>  <minimizedRMSD>  (1) 
4.65252352

$$$$
