
     RDKit          3D

 34 37  0  0  0  0  0  0  0  0999 V2000
   44.7690   34.4190   42.3270 C   0  0  0  0  0  0  0  0  0  0  0  0
   43.8860   33.3440   41.8750 C   0  0  0  0  0  0  0  0  0  0  0  0
   42.8900   33.9340   40.8780 C   0  0  0  0  0  0  0  0  0  0  0  0
   43.2590   35.3800   40.7070 C   0  0  0  0  0  0  0  0  0  0  0  0
   44.0200   35.7160   41.9600 C   0  0  0  0  0  0  0  0  0  0  0  0
   44.8870   34.4450   43.7870 N   0  0  0  0  0  0  0  0  0  0  0  0
   44.4950   35.3940   44.6610 C   0  0  0  0  0  0  0  0  0  0  0  0
   44.8010   35.0040   45.9140 N   0  0  0  0  0  0  0  0  0  0  0  0
   45.3930   33.8080   45.8790 C   0  0  0  0  0  0  0  0  0  0  0  0
   45.8890   32.9900   46.8760 C   0  0  0  0  0  0  0  0  0  0  0  0
   46.4430   31.8030   46.4880 N   0  0  0  0  0  0  0  0  0  0  0  0
   46.4920   31.4650   45.1780 C   0  0  0  0  0  0  0  0  0  0  0  0
   46.0070   32.2690   44.2150 N   0  0  0  0  0  0  0  0  0  0  0  0
   45.4410   33.4660   44.5300 C   0  0  0  0  0  0  0  0  0  0  0  0
   46.0900   34.5380   41.7020 C   0  0  0  0  0  0  0  0  0  0  0  0
   46.3600   33.8090   40.5340 C   0  0  0  0  0  0  0  0  0  0  0  0
   47.6230   33.9160   39.9330 C   0  0  0  0  0  0  0  0  0  0  0  0
   48.5290   34.7370   40.5320 N   0  0  0  0  0  0  0  0  0  0  0  0
   48.2300   35.4300   41.6670 C   0  0  0  0  0  0  0  0  0  0  0  0
   47.0250   35.3280   42.2420 N   0  0  0  0  0  0  0  0  0  0  0  0
   44.4782   32.5554   41.3878 H   0  0  0  0  0  0  0  0  0  0  0  0
   43.3528   32.9043   42.7307 H   0  0  0  0  0  0  0  0  0  0  0  0
   42.9606   33.4078   39.9146 H   0  0  0  0  0  0  0  0  0  0  0  0
   41.8567   33.8286   41.2402 H   0  0  0  0  0  0  0  0  0  0  0  0
   43.8909   35.5190   39.8174 H   0  0  0  0  0  0  0  0  0  0  0  0
   42.3801   36.0252   40.5615 H   0  0  0  0  0  0  0  0  0  0  0  0
   44.7310   36.5344   41.7736 H   0  0  0  0  0  0  0  0  0  0  0  0
   43.3571   36.0554   42.7695 H   0  0  0  0  0  0  0  0  0  0  0  0
   44.0018   36.3400   44.3927 H   0  0  0  0  0  0  0  0  0  0  0  0
   45.8400   33.2817   47.9355 H   0  0  0  0  0  0  0  0  0  0  0  0
   46.9424   30.5030   44.8923 H   0  0  0  0  0  0  0  0  0  0  0  0
   45.5888   33.1598   40.0938 H   0  0  0  0  0  0  0  0  0  0  0  0
   47.8709   33.3602   39.0167 H   0  0  0  0  0  0  0  0  0  0  0  0
   48.9910   36.0838   42.1180 H   0  0  0  0  0  0  0  0  0  0  0  0
  1  6  1  0
  2  1  1  0
  3  2  1  0
  4  3  1  0
  4  5  1  0
  5  1  1  0
  6 14  1  0
  6  7  1  0
  7  8  2  0
  9  8  1  0
  9 10  2  0
 11 10  1  0
 12 11  2  0
 13 14  2  0
 13 12  1  0
 14  9  1  0
 15 20  1  0
 15  1  1  0
 16 15  2  0
 17 18  2  0
 17 16  1  0
 18 19  1  0
 19 20  2  0
  2 21  1  0
  2 22  1  0
  3 23  1  0
  3 24  1  0
  4 25  1  0
  4 26  1  0
  5 27  1  0
  5 28  1  0
  7 29  1  0
 10 30  1  0
 12 31  1  0
 16 32  1  0
 17 33  1  0
 19 34  1  0
M  ISO  8  21  13  22  13  23  13  24  13  25  13  26  13  27  13  28  13
M  ISO  6  29  14  30  14  31  14  32  14  33  14  34  14
M  END
>  <minimizedAffinity>  (1) 
-5.50442791

>  <minimizedRMSD>  (1) 
5.67043734

$$$$
