
     RDKit          3D

 36 38  0  0  0  0  0  0  0  0999 V2000
   46.6020   34.4230   41.6480 C   0  0  0  0  0  0  0  0  0  0  0  0
   47.0240   34.0760   40.2890 C   0  0  0  0  0  0  0  0  0  0  0  0
   48.3910   34.7190   40.0590 C   0  0  0  0  0  0  0  0  0  0  0  0
   48.7780   35.4010   41.3500 C   0  0  0  0  0  0  0  0  0  0  0  0
   47.4530   35.6100   42.0510 C   0  0  0  0  0  0  0  0  0  0  0  0
   46.8120   33.3980   42.7040 C   0  0  0  0  0  0  0  0  0  0  0  0
   47.0310   32.0670   42.3270 C   0  0  0  0  0  0  0  0  0  0  0  0
   47.2140   31.1220   43.3450 C   0  0  0  0  0  0  0  0  0  0  0  0
   47.1690   31.5500   44.6370 N   0  0  0  0  0  0  0  0  0  0  0  0
   46.9550   32.8410   44.9570 C   0  0  0  0  0  0  0  0  0  0  0  0
   46.7800   33.7400   43.9950 N   0  0  0  0  0  0  0  0  0  0  0  0
   42.4100   34.9290   41.0260 C   0  0  0  0  0  0  0  0  0  0  0  0
   43.2310   34.1550   40.2390 C   0  0  0  0  0  0  0  0  0  0  0  0
   44.5980   34.0520   40.5240 C   0  0  0  0  0  0  0  0  0  0  0  0
   45.1310   34.7460   41.6210 C   0  0  0  0  0  0  0  0  0  0  0  0
   44.2990   35.5160   42.3980 C   0  0  0  0  0  0  0  0  0  0  0  0
   42.9600   35.6000   42.0970 C   0  0  0  0  0  0  0  0  0  0  0  0
   40.7140   35.0700   40.6940 S   0  0  0  0  0  0  0  0  0  0  0  0
   39.9930   34.3070   41.7830 O   0  0  0  0  0  0  0  0  0  0  0  0
   40.2790   36.4930   40.7560 O   0  0  0  0  0  0  0  0  0  0  0  0
   47.0999   32.9835   40.1859 H   0  0  0  0  0  0  0  0  0  0  0  0
   46.2941   34.4386   39.5503 H   0  0  0  0  0  0  0  0  0  0  0  0
   49.1327   33.9487   39.8010 H   0  0  0  0  0  0  0  0  0  0  0  0
   48.3523   35.4400   39.2291 H   0  0  0  0  0  0  0  0  0  0  0  0
   49.4428   34.7610   41.9487 H   0  0  0  0  0  0  0  0  0  0  0  0
   49.3303   36.3387   41.1900 H   0  0  0  0  0  0  0  0  0  0  0  0
   46.9858   36.5498   41.7216 H   0  0  0  0  0  0  0  0  0  0  0  0
   47.5707   35.6813   43.1424 H   0  0  0  0  0  0  0  0  0  0  0  0
   47.0584   31.7735   41.2672 H   0  0  0  0  0  0  0  0  0  0  0  0
   47.3894   30.0625   43.1070 H   0  0  0  0  0  0  0  0  0  0  0  0
   46.9253   33.1499   46.0123 H   0  0  0  0  0  0  0  0  0  0  0  0
   42.8103   33.6129   39.3793 H   0  0  0  0  0  0  0  0  0  0  0  0
   45.2499   33.4310   39.8920 H   0  0  0  0  0  0  0  0  0  0  0  0
   44.7043   36.0651   43.2607 H   0  0  0  0  0  0  0  0  0  0  0  0
   42.3086   36.2210   42.7295 H   0  0  0  0  0  0  0  0  0  0  0  0
   40.4391   34.5846   39.4427 H   0  0  0  0  0  0  0  0  0  0  0  0
  1  5  1  0
  1  6  1  0
  2  1  1  0
  3  2  1  0
  3  4  1  0
  4  5  1  0
  6 11  1  0
  7  6  2  0
  7  8  1  0
  8  9  2  0
  9 10  1  0
 11 10  2  0
 12 17  2  0
 13 14  2  0
 13 12  1  0
 14 15  1  0
 15  1  1  0
 15 16  2  0
 17 16  1  0
 18 20  2  0
 18 12  1  0
 18 19  2  0
  2 21  1  0
  2 22  1  0
  3 23  1  0
  3 24  1  0
  4 25  1  0
  4 26  1  0
  5 27  1  0
  5 28  1  0
  7 29  1  0
  8 30  1  0
 10 31  1  0
 13 32  1  0
 14 33  1  0
 16 34  1  0
 17 35  1  0
 18 36  1  0
M  ISO  8  21  13  22  13  23  13  24  13  25  13  26  13  27  13  28  13
M  ISO  8  29  14  30  14  31  14  32  14  33  14  34  14  35  14  36  11
M  END
>  <minimizedAffinity>  (1) 
-5.46307611

>  <minimizedRMSD>  (1) 
2.54351306

$$$$
