
     RDKit          3D

 39 41  0  0  0  0  0  0  0  0999 V2000
   47.9020   34.4970   41.3410 C   0  0  0  0  0  0  0  0  0  0  0  0
   48.8290   35.6250   41.6250 C   0  0  0  0  0  0  0  0  0  0  0  0
   49.9800   35.0800   42.4520 C   0  0  0  0  0  0  0  0  0  0  0  0
   49.7580   33.6050   42.5810 C   0  0  0  0  0  0  0  0  0  0  0  0
   48.2740   33.4300   42.3480 C   0  0  0  0  0  0  0  0  0  0  0  0
   48.0270   33.8730   40.0130 C   0  0  0  0  0  0  0  0  0  0  0  0
   48.2760   34.6850   38.9080 C   0  0  0  0  0  0  0  0  0  0  0  0
   48.3750   34.0690   37.6350 C   0  0  0  0  0  0  0  0  0  0  0  0
   48.2170   32.7050   37.5760 N   0  0  0  0  0  0  0  0  0  0  0  0
   47.9790   31.9680   38.6720 C   0  0  0  0  0  0  0  0  0  0  0  0
   47.8890   32.5540   39.8580 N   0  0  0  0  0  0  0  0  0  0  0  0
   46.4590   34.8620   41.5240 C   0  0  0  0  0  0  0  0  0  0  0  0
   45.4740   33.8530   41.0280 C   0  0  0  0  0  0  0  0  0  0  0  0
   44.1730   34.6100   40.8270 C   0  0  0  0  0  0  0  0  0  0  0  0
   43.7270   35.3690   42.0350 C   0  0  0  0  0  0  0  0  0  0  0  0
   44.7940   35.9810   42.8640 C   0  0  0  0  0  0  0  0  0  0  0  0
   46.0880   35.2060   42.9310 C   0  0  0  0  0  0  0  0  0  0  0  0
   49.2105   36.0429   40.6817 H   0  0  0  0  0  0  0  0  0  0  0  0
   48.3069   36.4244   42.1713 H   0  0  0  0  0  0  0  0  0  0  0  0
   50.9366   35.2763   41.9457 H   0  0  0  0  0  0  0  0  0  0  0  0
   50.0194   35.5616   43.4402 H   0  0  0  0  0  0  0  0  0  0  0  0
   50.3388   33.0558   41.8253 H   0  0  0  0  0  0  0  0  0  0  0  0
   50.0794   33.2150   43.5580 H   0  0  0  0  0  0  0  0  0  0  0  0
   47.7168   33.5733   43.2855 H   0  0  0  0  0  0  0  0  0  0  0  0
   48.0309   32.4202   41.9858 H   0  0  0  0  0  0  0  0  0  0  0  0
   48.3924   35.7730   39.0204 H   0  0  0  0  0  0  0  0  0  0  0  0
   48.5709   34.6605   36.7285 H   0  0  0  0  0  0  0  0  0  0  0  0
   47.8586   30.8780   38.5864 H   0  0  0  0  0  0  0  0  0  0  0  0
   46.3872   35.7580   40.8899 H   0  0  0  0  0  0  0  0  0  0  0  0
   45.8159   33.4193   40.0767 H   0  0  0  0  0  0  0  0  0  0  0  0
   45.3534   33.0215   41.7380 H   0  0  0  0  0  0  0  0  0  0  0  0
   44.3099   35.3224   40.0001 H   0  0  0  0  0  0  0  0  0  0  0  0
   43.3956   33.8620   40.6120 H   0  0  0  0  0  0  0  0  0  0  0  0
   43.0628   36.1774   41.6953 H   0  0  0  0  0  0  0  0  0  0  0  0
   43.2449   34.6240   42.6850 H   0  0  0  0  0  0  0  0  0  0  0  0
   45.0156   36.9761   42.4510 H   0  0  0  0  0  0  0  0  0  0  0  0
   44.4023   36.0055   43.8916 H   0  0  0  0  0  0  0  0  0  0  0  0
   45.9496   34.2882   43.5213 H   0  0  0  0  0  0  0  0  0  0  0  0
   46.8787   35.7990   43.4139 H   0  0  0  0  0  0  0  0  0  0  0  0
  1 12  1  0
  1  2  1  0
  1  5  1  0
  2  3  1  0
  3  4  1  0
  5  4  1  0
  6  1  1  0
  7  6  2  0
  8  7  1  0
  9  8  2  0
  9 10  1  0
 10 11  2  0
 11  6  1  0
 12 17  1  0
 13 12  1  0
 14 13  1  0
 14 15  1  0
 15 16  1  0
 16 17  1  0
  2 18  1  0
  2 19  1  0
  3 20  1  0
  3 21  1  0
  4 22  1  0
  4 23  1  0
  5 24  1  0
  5 25  1  0
  7 26  1  0
  8 27  1  0
 10 28  1  0
 12 29  1  0
 13 30  1  0
 13 31  1  0
 14 32  1  0
 14 33  1  0
 15 34  1  0
 15 35  1  0
 16 36  1  0
 16 37  1  0
 17 38  1  0
 17 39  1  0
M  ISO  8  18  13  19  13  20  13  21  13  22  13  23  13  24  13  25  13
M  ISO  8  26  14  27  14  28  14  29  13  30  13  31  13  32  13  33  13
M  ISO  6  34  13  35  13  36  13  37  13  38  13  39  13
M  END
>  <minimizedAffinity>  (1) 
-5.39984512

>  <minimizedRMSD>  (1) 
3.37731886

$$$$
