
     RDKit          3D

 33 35  0  0  0  0  0  0  0  0999 V2000
   45.0020   34.3670   42.0540 C   0  0  0  0  0  0  0  0  0  0  0  0
   44.0470   35.3030   41.4550 C   0  0  0  0  0  0  0  0  0  0  0  0
   42.7980   34.5050   41.0710 C   0  0  0  0  0  0  0  0  0  0  0  0
   43.0350   33.0800   41.5130 C   0  0  0  0  0  0  0  0  0  0  0  0
   44.5300   32.9850   41.6360 C   0  0  0  0  0  0  0  0  0  0  0  0
   45.0540   34.3240   43.5380 C   0  0  0  0  0  0  0  0  0  0  0  0
   44.5310   35.3890   44.2810 C   0  0  0  0  0  0  0  0  0  0  0  0
   44.6020   35.3170   45.6760 C   0  0  0  0  0  0  0  0  0  0  0  0
   45.1830   34.2060   46.2340 N   0  0  0  0  0  0  0  0  0  0  0  0
   45.6770   33.1970   45.4710 C   0  0  0  0  0  0  0  0  0  0  0  0
   45.6170   33.2520   44.1460 N   0  0  0  0  0  0  0  0  0  0  0  0
   46.3790   34.6820   41.5950 C   0  0  0  0  0  0  0  0  0  0  0  0
   47.4070   35.4040   42.1550 C   0  0  0  0  0  0  0  0  0  0  0  0
   48.6030   35.5430   41.4880 C   0  0  0  0  0  0  0  0  0  0  0  0
   48.8010   34.9650   40.2460 C   0  0  0  0  0  0  0  0  0  0  0  0
   47.7770   34.2360   39.6690 C   0  0  0  0  0  0  0  0  0  0  0  0
   46.5590   34.0940   40.3470 C   0  0  0  0  0  0  0  0  0  0  0  0
   43.7835   36.0863   42.1809 H   0  0  0  0  0  0  0  0  0  0  0  0
   44.4839   35.7879   40.5695 H   0  0  0  0  0  0  0  0  0  0  0  0
   41.9144   34.9171   41.5803 H   0  0  0  0  0  0  0  0  0  0  0  0
   42.6157   34.5561   39.9874 H   0  0  0  0  0  0  0  0  0  0  0  0
   42.5493   32.8841   42.4803 H   0  0  0  0  0  0  0  0  0  0  0  0
   42.6189   32.3427   40.8107 H   0  0  0  0  0  0  0  0  0  0  0  0
   44.8047   32.2403   42.3975 H   0  0  0  0  0  0  0  0  0  0  0  0
   44.9938   32.6688   40.6900 H   0  0  0  0  0  0  0  0  0  0  0  0
   44.0771   36.2578   43.7819 H   0  0  0  0  0  0  0  0  0  0  0  0
   44.2044   36.1260   46.3064 H   0  0  0  0  0  0  0  0  0  0  0  0
   46.1331   32.3222   45.9576 H   0  0  0  0  0  0  0  0  0  0  0  0
   47.2727   35.8728   43.1410 H   0  0  0  0  0  0  0  0  0  0  0  0
   49.4153   36.1233   41.9499 H   0  0  0  0  0  0  0  0  0  0  0  0
   49.7618   35.0841   39.7238 H   0  0  0  0  0  0  0  0  0  0  0  0
   47.9181   33.7700   38.6826 H   0  0  0  0  0  0  0  0  0  0  0  0
   45.7421   33.5155   39.8909 H   0  0  0  0  0  0  0  0  0  0  0  0
  1  6  1  0
  2  1  1  0
  3  2  1  0
  3  4  1  0
  4  5  1  0
  5  1  1  0
  6 11  1  0
  6  7  2  0
  7  8  1  0
  8  9  2  0
 10  9  1  0
 11 10  2  0
 12  1  1  0
 12 13  2  0
 14 13  1  0
 15 14  2  0
 16 15  1  0
 16 17  2  0
 17 12  1  0
  2 18  1  0
  2 19  1  0
  3 20  1  0
  3 21  1  0
  4 22  1  0
  4 23  1  0
  5 24  1  0
  5 25  1  0
  7 26  1  0
  8 27  1  0
 10 28  1  0
 13 29  1  0
 14 30  1  0
 15 31  1  0
 16 32  1  0
 17 33  1  0
M  ISO  8  18  13  19  13  20  13  21  13  22  13  23  13  24  13  25  13
M  ISO  8  26  14  27  14  28  14  29  14  30  14  31  14  32  14  33  14
M  END
>  <minimizedAffinity>  (1) 
-5.28994894

>  <minimizedRMSD>  (1) 
4.41420078

$$$$
