
     RDKit          3D

 40 42  0  0  1  0  0  0  0  0999 V2000
   46.7650   32.8870   45.0840 C   0  0  2  0  0  0  0  0  0  0  0  0
   45.5330   33.6500   45.5190 C   0  0  0  0  0  0  0  0  0  0  0  0
   45.1220   34.7590   44.6870 C   0  0  0  0  0  0  0  0  0  0  0  0
   45.8620   35.1150   43.4910 C   0  0  1  0  0  0  0  0  0  0  0  0
   47.0980   34.3570   43.2100 C   0  0  0  0  0  0  0  0  0  0  0  0
   46.9280   32.9190   43.6080 C   0  0  0  0  0  0  0  0  0  0  0  0
   45.7980   30.6570   45.3620 C   0  0  0  0  0  0  0  0  0  0  0  0
   46.7730   31.5760   45.7060 C   0  0  0  0  0  0  0  0  0  0  0  0
   47.7140   31.1770   46.6600 C   0  0  0  0  0  0  0  0  0  0  0  0
   47.6470   29.9380   47.2060 N   0  0  0  0  0  0  0  0  0  0  0  0
   46.6820   29.0560   46.8520 C   0  0  0  0  0  0  0  0  0  0  0  0
   45.7620   29.4220   45.9310 N   0  0  0  0  0  0  0  0  0  0  0  0
   46.7220   27.7900   47.4980 N   0  0  0  0  0  0  0  0  0  0  0  0
   47.9770   27.3300   47.7220 C   0  0  0  0  0  0  0  0  0  0  0  0
   48.1530   26.1100   48.3430 C   0  0  0  0  0  0  0  0  0  0  0  0
   49.5180   25.5640   48.6110 C   0  0  0  0  0  0  0  0  0  0  0  0
   47.0610   25.3380   48.7460 C   0  0  0  0  0  0  0  0  0  0  0  0
   47.1970   24.2250   49.3120 O   0  0  0  0  0  0  0  0  0  0  0  0
   45.8630   25.8720   48.4830 N   0  0  0  0  0  0  0  0  0  0  0  0
   45.6680   27.0630   47.8760 C   0  0  0  0  0  0  0  0  0  0  0  0
   44.5310   27.5390   47.6420 O   0  0  0  0  0  0  0  0  0  0  0  0
   44.9060   34.9990   42.2940 C   0  0  0  0  0  0  0  0  0  0  0  0
   43.9090   34.0770   42.4930 F   0  0  0  0  0  0  0  0  0  0  0  0
   44.2670   36.2370   42.1550 F   0  0  0  0  0  0  0  0  0  0  0  0
   45.6300   34.7770   41.1330 F   0  0  0  0  0  0  0  0  0  0  0  0
   47.6786   33.3806   45.4468 H   0  0  0  0  0  0  0  0  0  0  0  0
   44.9757   33.3739   46.4263 H   0  0  0  0  0  0  0  0  0  0  0  0
   44.2325   35.3430   44.9659 H   0  0  0  0  0  0  0  0  0  0  0  0
   46.2244   36.1382   43.6689 H   0  0  0  0  0  0  0  0  0  0  0  0
   47.3211   34.4121   42.1343 H   0  0  0  0  0  0  0  0  0  0  0  0
   47.9254   34.7935   43.7887 H   0  0  0  0  0  0  0  0  0  0  0  0
   46.0367   32.4963   43.1213 H   0  0  0  0  0  0  0  0  0  0  0  0
   47.7994   32.3231   43.2988 H   0  0  0  0  0  0  0  0  0  0  0  0
   45.0381   30.9298   44.6149 H   0  0  0  0  0  0  0  0  0  0  0  0
   48.5106   31.8701   46.9683 H   0  0  0  0  0  0  0  0  0  0  0  0
   48.8488   27.9245   47.4112 H   0  0  0  0  0  0  0  0  0  0  0  0
   49.6802   25.4991   49.6970 H   0  0  0  0  0  0  0  0  0  0  0  0
   49.6057   24.5616   48.1666 H   0  0  0  0  0  0  0  0  0  0  0  0
   50.2728   26.2294   48.1666 H   0  0  0  0  0  0  0  0  0  0  0  0
   45.0291   25.3364   48.7635 H   0  0  0  0  0  0  0  0  0  0  0  0
  1  2  1  0
  1  8  1  0
  3  2  2  0
  4  3  1  0
  5  4  1  0
  5  6  1  0
  6  1  1  0
  7  8  2  0
  7 12  1  0
  8  9  1  0
  9 10  2  0
 11 10  1  0
 11 13  1  0
 12 11  2  0
 13 14  1  0
 13 20  1  0
 14 15  2  0
 15 16  1  0
 15 17  1  0
 17 18  2  0
 19 17  1  0
 20 19  1  0
 21 20  2  0
 22 23  1  0
 22  4  1  0
 24 22  1  0
 25 22  1  0
  1 26  1  1
  2 27  1  0
  3 28  1  0
  4 29  1  1
  5 30  1  0
  5 31  1  0
  6 32  1  0
  6 33  1  0
  7 34  1  0
  9 35  1  0
 14 36  1  0
 16 37  1  0
 16 38  1  0
 16 39  1  0
 19 40  1  0
M  ISO  8  26  13  27  13  28  13  29  13  30  13  31  13  32  13  33  13
M  ISO  7  34  14  35  14  36  14  37   8  38   8  39   8  40   9
M  END
>  <minimizedAffinity>  (1) 
-5.45765495

>  <minimizedRMSD>  (1) 
2.55101657

$$$$
