
     RDKit          3D

 35 37  0  0  1  0  0  0  0  0999 V2000
   46.6420   32.7390   45.0160 C   0  0  2  0  0  0  0  0  0  0  0  0
   45.5190   33.6240   45.4880 C   0  0  0  0  0  0  0  0  0  0  0  0
   45.2090   34.7820   44.6830 C   0  0  0  0  0  0  0  0  0  0  0  0
   45.9590   35.0680   43.4700 C   0  0  1  0  0  0  0  0  0  0  0  0
   47.1060   34.1840   43.1540 C   0  0  0  0  0  0  0  0  0  0  0  0
   46.7750   32.7700   43.5340 C   0  0  0  0  0  0  0  0  0  0  0  0
   45.8360   31.2850   46.8130 C   0  0  0  0  0  0  0  0  0  0  0  0
   46.5230   31.4230   45.6220 C   0  0  0  0  0  0  0  0  0  0  0  0
   47.0790   30.2600   45.0730 C   0  0  0  0  0  0  0  0  0  0  0  0
   46.9370   29.0670   45.6980 N   0  0  0  0  0  0  0  0  0  0  0  0
   46.2530   28.9680   46.8720 C   0  0  0  0  0  0  0  0  0  0  0  0
   45.7110   30.0720   47.4160 N   0  0  0  0  0  0  0  0  0  0  0  0
   46.0960   27.6860   47.5510 C   0  0  0  0  0  0  0  0  0  0  0  0
   44.8680   27.3330   48.0860 C   0  0  0  0  0  0  0  0  0  0  0  0
   44.8370   26.0930   48.7080 C   0  0  0  0  0  0  0  0  0  0  0  0
   45.8700   25.2350   48.8290 N   0  0  0  0  0  0  0  0  0  0  0  0
   47.0550   25.6350   48.2830 C   0  0  0  0  0  0  0  0  0  0  0  0
   47.1400   26.8340   47.6660 N   0  0  0  0  0  0  0  0  0  0  0  0
   44.9620   35.0900   42.3050 C   0  0  0  0  0  0  0  0  0  0  0  0
   43.8990   34.2370   42.4940 F   0  0  0  0  0  0  0  0  0  0  0  0
   44.4290   36.3780   42.2270 F   0  0  0  0  0  0  0  0  0  0  0  0
   45.6230   34.8380   41.1160 F   0  0  0  0  0  0  0  0  0  0  0  0
   47.6102   33.1281   45.3641 H   0  0  0  0  0  0  0  0  0  0  0  0
   44.9585   33.3980   46.4071 H   0  0  0  0  0  0  0  0  0  0  0  0
   44.3959   35.4559   44.9908 H   0  0  0  0  0  0  0  0  0  0  0  0
   46.4474   36.0383   43.6431 H   0  0  0  0  0  0  0  0  0  0  0  0
   47.3189   34.2326   42.0759 H   0  0  0  0  0  0  0  0  0  0  0  0
   47.9886   34.5162   43.7202 H   0  0  0  0  0  0  0  0  0  0  0  0
   45.8293   32.4635   43.0631 H   0  0  0  0  0  0  0  0  0  0  0  0
   47.5599   32.0778   43.1951 H   0  0  0  0  0  0  0  0  0  0  0  0
   45.3825   32.1710   47.2814 H   0  0  0  0  0  0  0  0  0  0  0  0
   47.6358   30.3164   44.1260 H   0  0  0  0  0  0  0  0  0  0  0  0
   43.9849   27.9858   48.0226 H   0  0  0  0  0  0  0  0  0  0  0  0
   43.8771   25.7798   49.1444 H   0  0  0  0  0  0  0  0  0  0  0  0
   47.9387   24.9829   48.3451 H   0  0  0  0  0  0  0  0  0  0  0  0
  1  2  1  0
  1  8  1  0
  3  2  2  0
  4  3  1  0
  5  4  1  0
  5  6  1  0
  6  1  1  0
  7 12  2  0
  8  7  1  0
  9  8  2  0
  9 10  1  0
 10 11  2  0
 11 12  1  0
 11 13  1  0
 13 18  1  0
 13 14  2  0
 14 15  1  0
 15 16  2  0
 17 16  1  0
 18 17  2  0
 19 20  1  0
 19  4  1  0
 21 19  1  0
 22 19  1  0
  1 23  1  1
  2 24  1  0
  3 25  1  0
  4 26  1  1
  5 27  1  0
  5 28  1  0
  6 29  1  0
  6 30  1  0
  7 31  1  0
  9 32  1  0
 14 33  1  0
 15 34  1  0
 17 35  1  0
M  ISO  8  23  13  24  13  25  13  26  13  27  13  28  13  29  13  30  13
M  ISO  5  31  14  32  14  33  14  34  14  35  14
M  END
>  <minimizedAffinity>  (1) 
-4.8785491

>  <minimizedRMSD>  (1) 
2.09048009

$$$$
