
     RDKit          3D

 29 30  0  0  1  0  0  0  0  0999 V2000
   46.0850   34.1600   44.1780 C   0  0  2  0  0  0  0  0  0  0  0  0
   44.9470   35.1500   44.2460 C   0  0  0  0  0  0  0  0  0  0  0  0
   44.4660   35.6740   42.9920 C   0  0  0  0  0  0  0  0  0  0  0  0
   45.0480   35.2640   41.7300 C   0  0  1  0  0  0  0  0  0  0  0  0
   46.2090   34.3470   41.7860 C   0  0  0  0  0  0  0  0  0  0  0  0
   46.0370   33.3740   42.9150 C   0  0  0  0  0  0  0  0  0  0  0  0
   45.2790   33.7050   46.4470 C   0  0  0  0  0  0  0  0  0  0  0  0
   46.1280   33.3780   45.4040 C   0  0  0  0  0  0  0  0  0  0  0  0
   46.9940   32.2920   45.6150 C   0  0  0  0  0  0  0  0  0  0  0  0
   46.9830   31.6130   46.7860 N   0  0  0  0  0  0  0  0  0  0  0  0
   46.1300   31.9710   47.7910 C   0  0  0  0  0  0  0  0  0  0  0  0
   45.2750   33.0180   47.6220 N   0  0  0  0  0  0  0  0  0  0  0  0
   46.1360   31.2320   49.0320 C   0  0  0  0  0  0  0  0  0  0  0  0
   45.1700   31.3480   49.8240 O   0  0  0  0  0  0  0  0  0  0  0  0
   43.9350   34.6420   40.8820 C   0  0  0  0  0  0  0  0  0  0  0  0
   43.0130   33.9450   41.6380 F   0  0  0  0  0  0  0  0  0  0  0  0
   43.2330   35.6890   40.2790 F   0  0  0  0  0  0  0  0  0  0  0  0
   44.4850   33.8790   39.8650 F   0  0  0  0  0  0  0  0  0  0  0  0
   47.0511   34.6836   44.1279 H   0  0  0  0  0  0  0  0  0  0  0  0
   44.5062   35.4566   45.2060 H   0  0  0  0  0  0  0  0  0  0  0  0
   43.6399   36.4003   42.9933 H   0  0  0  0  0  0  0  0  0  0  0  0
   45.4725   36.1795   41.2923 H   0  0  0  0  0  0  0  0  0  0  0  0
   46.2842   33.7954   40.8373 H   0  0  0  0  0  0  0  0  0  0  0  0
   47.1257   34.9327   41.9491 H   0  0  0  0  0  0  0  0  0  0  0  0
   45.0685   32.8600   42.8265 H   0  0  0  0  0  0  0  0  0  0  0  0
   46.8277   32.6094   42.8982 H   0  0  0  0  0  0  0  0  0  0  0  0
   44.5841   34.5485   46.3221 H   0  0  0  0  0  0  0  0  0  0  0  0
   47.6898   31.9896   44.8185 H   0  0  0  0  0  0  0  0  0  0  0  0
   46.9808   30.5728   49.2807 H   0  0  0  0  0  0  0  0  0  0  0  0
  1  2  1  0
  1  8  1  0
  3  2  2  0
  4  5  1  0
  4  3  1  0
  5  6  1  0
  6  1  1  0
  7 12  2  0
  8  9  2  0
  8  7  1  0
  9 10  1  0
 10 11  2  0
 11 13  1  0
 12 11  1  0
 13 14  2  0
 15 16  1  0
 15  4  1  0
 17 15  1  0
 18 15  1  0
  1 19  1  6
  2 20  1  0
  3 21  1  0
  4 22  1  6
  5 23  1  0
  5 24  1  0
  6 25  1  0
  6 26  1  0
  7 27  1  0
  9 28  1  0
 13 29  1  0
M  ISO  8  19  13  20  13  21  13  22  13  23  13  24  13  25  13  26  13
M  ISO  3  27  14  28  14  29   6
M  END
>  <minimizedAffinity>  (1) 
-4.90609789

>  <minimizedRMSD>  (1) 
1.45074904

$$$$
