
     RDKit          3D

 31 33  0  0  0  0  0  0  0  0999 V2000
   45.3360   34.6590   42.7310 C   0  0  0  0  0  0  0  0  0  0  0  0
   45.5440   33.7840   43.8860 C   0  0  0  0  0  0  0  0  0  0  0  0
   45.1130   34.5410   45.1420 C   0  0  0  0  0  0  0  0  0  0  0  0
   44.5370   35.8470   44.6930 C   0  0  0  0  0  0  0  0  0  0  0  0
   45.1790   36.0690   43.3440 C   0  0  0  0  0  0  0  0  0  0  0  0
   44.1170   34.4510   41.9330 C   0  0  0  0  0  0  0  0  0  0  0  0
   43.5240   33.1780   41.9190 C   0  0  0  0  0  0  0  0  0  0  0  0
   42.3650   32.9710   41.1710 C   0  0  0  0  0  0  0  0  0  0  0  0
   41.8740   34.0460   40.4840 N   0  0  0  0  0  0  0  0  0  0  0  0
   42.4510   35.2580   40.5040 C   0  0  0  0  0  0  0  0  0  0  0  0
   43.5640   35.4450   41.2270 N   0  0  0  0  0  0  0  0  0  0  0  0
   46.5340   34.7540   41.8340 C   0  0  0  0  0  0  0  0  0  0  0  0
   46.5740   34.1130   40.6150 C   0  0  0  0  0  0  0  0  0  0  0  0
   47.6710   34.1890   39.7720 C   0  0  0  0  0  0  0  0  0  0  0  0
   48.7260   34.9170   40.1700 N   0  0  0  0  0  0  0  0  0  0  0  0
   48.7010   35.5520   41.3670 C   0  0  0  0  0  0  0  0  0  0  0  0
   47.6310   35.4720   42.1780 N   0  0  0  0  0  0  0  0  0  0  0  0
   44.9399   32.8714   43.7755 H   0  0  0  0  0  0  0  0  0  0  0  0
   46.6034   33.4973   43.9598 H   0  0  0  0  0  0  0  0  0  0  0  0
   44.3544   33.9624   45.6895 H   0  0  0  0  0  0  0  0  0  0  0  0
   45.9681   34.7011   45.8152 H   0  0  0  0  0  0  0  0  0  0  0  0
   43.4426   35.7838   44.6022 H   0  0  0  0  0  0  0  0  0  0  0  0
   44.7306   36.6669   45.4003 H   0  0  0  0  0  0  0  0  0  0  0  0
   46.1612   36.5508   43.4592 H   0  0  0  0  0  0  0  0  0  0  0  0
   44.5740   36.7292   42.7052 H   0  0  0  0  0  0  0  0  0  0  0  0
   43.9694   32.3518   42.4926 H   0  0  0  0  0  0  0  0  0  0  0  0
   41.8697   31.9895   41.1356 H   0  0  0  0  0  0  0  0  0  0  0  0
   42.0143   36.0901   39.9322 H   0  0  0  0  0  0  0  0  0  0  0  0
   45.7033   33.5193   40.2996 H   0  0  0  0  0  0  0  0  0  0  0  0
   47.6771   33.6673   38.8036 H   0  0  0  0  0  0  0  0  0  0  0  0
   49.5729   36.1444   41.6814 H   0  0  0  0  0  0  0  0  0  0  0  0
  1  5  1  0
  1  2  1  0
  2  3  1  0
  4  3  1  0
  5  4  1  0
  6  1  1  0
  7  6  2  0
  8  7  1  0
  9 10  1  0
  9  8  2  0
 10 11  2  0
 11  6  1  0
 12 17  1  0
 12  1  1  0
 13 12  2  0
 14 15  2  0
 14 13  1  0
 15 16  1  0
 16 17  2  0
  2 18  1  0
  2 19  1  0
  3 20  1  0
  3 21  1  0
  4 22  1  0
  4 23  1  0
  5 24  1  0
  5 25  1  0
  7 26  1  0
  8 27  1  0
 10 28  1  0
 13 29  1  0
 14 30  1  0
 16 31  1  0
M  ISO  8  18  13  19  13  20  13  21  13  22  13  23  13  24  13  25  13
M  ISO  6  26  14  27  14  28  14  29  14  30  14  31  14
M  END
>  <minimizedAffinity>  (1) 
-5.09499884

>  <minimizedRMSD>  (1) 
3.78662682

$$$$
