
     RDKit          3D

 30 31  0  0  1  0  0  0  0  0999 V2000
   46.0990   33.8990   45.2650 C   0  0  2  0  0  0  0  0  0  0  0  0
   44.8880   34.8850   45.3980 C   0  0  0  0  0  0  0  0  0  0  0  0
   44.6090   35.7170   44.2550 C   0  0  0  0  0  0  0  0  0  0  0  0
   45.4110   35.6250   43.0370 C   0  0  1  0  0  0  0  0  0  0  0  0
   46.5570   34.7050   43.0610 C   0  0  0  0  0  0  0  0  0  0  0  0
   46.2390   33.5020   43.8910 C   0  0  0  0  0  0  0  0  0  0  0  0
   45.1630   33.1190   47.3810 C   0  0  0  0  0  0  0  0  0  0  0  0
   45.9700   32.9220   46.3070 C   0  0  0  0  0  0  0  0  0  0  0  0
   46.6520   31.7040   46.2500 C   0  0  0  0  0  0  0  0  0  0  0  0
   46.5230   30.7770   47.2040 N   0  0  0  0  0  0  0  0  0  0  0  0
   45.7020   31.0000   48.2860 C   0  0  0  0  0  0  0  0  0  0  0  0
   45.0410   32.1530   48.3580 N   0  0  0  0  0  0  0  0  0  0  0  0
   45.5940   30.0220   49.3170 N   0  0  0  0  0  0  0  0  0  0  0  0
   47.5230   31.2660   45.2670 O   0  0  0  0  0  0  0  0  0  0  0  0
   44.4470   35.1970   41.9020 C   0  0  0  0  0  0  0  0  0  0  0  0
   43.5060   34.2820   42.3060 F   0  0  0  0  0  0  0  0  0  0  0  0
   43.7420   36.3440   41.5230 F   0  0  0  0  0  0  0  0  0  0  0  0
   45.1670   34.7810   40.8000 F   0  0  0  0  0  0  0  0  0  0  0  0
   47.0949   34.3264   45.4534 H   0  0  0  0  0  0  0  0  0  0  0  0
   44.2831   34.9390   46.3152 H   0  0  0  0  0  0  0  0  0  0  0  0
   43.7767   36.4348   44.3002 H   0  0  0  0  0  0  0  0  0  0  0  0
   45.8722   36.6140   42.8987 H   0  0  0  0  0  0  0  0  0  0  0  0
   46.7883   34.3865   42.0339 H   0  0  0  0  0  0  0  0  0  0  0  0
   47.4230   35.2232   43.4986 H   0  0  0  0  0  0  0  0  0  0  0  0
   45.2986   33.0515   43.5406 H   0  0  0  0  0  0  0  0  0  0  0  0
   47.0509   32.7655   43.8002 H   0  0  0  0  0  0  0  0  0  0  0  0
   44.6001   34.0596   47.4730 H   0  0  0  0  0  0  0  0  0  0  0  0
   44.9788   30.1917   50.1255 H   0  0  0  0  0  0  0  0  0  0  0  0
   46.1312   29.1454   49.2537 H   0  0  0  0  0  0  0  0  0  0  0  0
   47.9463   30.3742   45.3422 H   0  0  0  0  0  0  0  0  0  0  0  0
  1  2  1  0
  1  8  1  0
  3  2  2  0
  4  5  1  0
  4  3  1  0
  5  6  1  0
  6  1  1  0
  7 12  2  0
  8  7  1  0
  9  8  2  0
  9 10  1  0
 10 11  2  0
 11 12  1  0
 11 13  1  0
 14  9  1  0
 15 16  1  0
 15  4  1  0
 17 15  1  0
 18 15  1  0
  1 19  1  1
  2 20  1  0
  3 21  1  0
  4 22  1  6
  5 23  1  0
  5 24  1  0
  6 25  1  0
  6 26  1  0
  7 27  1  0
 13 28  1  0
 13 29  1  0
 14 30  1  0
M  ISO  8  19  13  20  13  21  13  22  13  23  13  24  13  25  13  26  13
M  ISO  2  27  14  30   3
M  END
>  <minimizedAffinity>  (1) 
-5.67320299

>  <minimizedRMSD>  (1) 
0.392159373

$$$$
