
     RDKit          3D

 39 41  0  0  1  0  0  0  0  0999 V2000
   45.3940   32.8840   47.5800 C   0  0  0  0  0  0  0  0  0  0  0  0
   45.8760   32.6250   46.3300 C   0  0  0  0  0  0  0  0  0  0  0  0
   46.0750   31.2650   46.0430 C   0  0  0  0  0  0  0  0  0  0  0  0
   45.8120   30.2850   46.9230 N   0  0  0  0  0  0  0  0  0  0  0  0
   45.3260   30.5950   48.1770 C   0  0  0  0  0  0  0  0  0  0  0  0
   45.1310   31.8740   48.4720 N   0  0  0  0  0  0  0  0  0  0  0  0
   45.0690   29.5760   49.1350 N   0  0  0  0  0  0  0  0  0  0  0  0
   46.1040   33.5900   45.3060 C   0  0  2  0  0  0  0  0  0  0  0  0
   44.9640   34.6850   45.5230 C   0  0  0  0  0  0  0  0  0  0  0  0
   44.7340   35.6170   44.4500 C   0  0  0  0  0  0  0  0  0  0  0  0
   45.5060   35.5380   43.2310 C   0  0  1  0  0  0  0  0  0  0  0  0
   46.5870   34.5190   43.1820 C   0  0  0  0  0  0  0  0  0  0  0  0
   46.0860   33.2830   43.9160 C   0  0  0  0  0  0  0  0  0  0  0  0
   44.5150   35.2720   42.0690 C   0  0  0  0  0  0  0  0  0  0  0  0
   43.4550   34.4710   42.4420 F   0  0  0  0  0  0  0  0  0  0  0  0
   43.9780   36.5070   41.7220 F   0  0  0  0  0  0  0  0  0  0  0  0
   45.2030   34.8110   40.9590 F   0  0  0  0  0  0  0  0  0  0  0  0
   46.6280   30.5790   44.8840 C   0  0  0  0  0  0  0  0  0  0  0  0
   48.0070   30.5120   44.9580 C   0  0  0  0  0  0  0  0  0  0  0  0
   48.7370   29.8910   43.9400 C   0  0  0  0  0  0  0  0  0  0  0  0
   48.0150   29.3570   42.8750 C   0  0  0  0  0  0  0  0  0  0  0  0
   46.6550   29.4380   42.8290 C   0  0  0  0  0  0  0  0  0  0  0  0
   45.9110   30.0510   43.8300 C   0  0  0  0  0  0  0  0  0  0  0  0
   45.2119   33.9265   47.8801 H   0  0  0  0  0  0  0  0  0  0  0  0
   44.7063   29.8245   50.0665 H   0  0  0  0  0  0  0  0  0  0  0  0
   45.2455   28.5894   48.8974 H   0  0  0  0  0  0  0  0  0  0  0  0
   47.1659   33.8370   45.4520 H   0  0  0  0  0  0  0  0  0  0  0  0
   44.3784   34.7261   46.4533 H   0  0  0  0  0  0  0  0  0  0  0  0
   43.9645   36.3954   44.5590 H   0  0  0  0  0  0  0  0  0  0  0  0
   46.0394   36.4972   43.1581 H   0  0  0  0  0  0  0  0  0  0  0  0
   46.8180   34.2668   42.1365 H   0  0  0  0  0  0  0  0  0  0  0  0
   47.5033   34.9040   43.6533 H   0  0  0  0  0  0  0  0  0  0  0  0
   45.0617   33.0422   43.5953 H   0  0  0  0  0  0  0  0  0  0  0  0
   46.7210   32.4118   43.6976 H   0  0  0  0  0  0  0  0  0  0  0  0
   48.5315   30.9487   45.8206 H   0  0  0  0  0  0  0  0  0  0  0  0
   49.8345   29.8268   43.9784 H   0  0  0  0  0  0  0  0  0  0  0  0
   48.5532   28.8599   42.0545 H   0  0  0  0  0  0  0  0  0  0  0  0
   46.1271   29.0022   41.9680 H   0  0  0  0  0  0  0  0  0  0  0  0
   44.8136   30.1118   43.7847 H   0  0  0  0  0  0  0  0  0  0  0  0
  1  6  2  0
  2  1  1  0
  3  2  2  0
  3  4  1  0
  4  5  2  0
  5  6  1  0
  5  7  1  0
  8  9  1  0
  8  2  1  0
 10  9  2  0
 11 10  1  0
 12 11  1  0
 12 13  1  0
 13  8  1  0
 14 15  1  0
 14 11  1  0
 16 14  1  0
 17 14  1  0
 18 19  2  0
 18  3  1  0
 20 19  1  0
 21 20  2  0
 22 21  1  0
 22 23  2  0
 23 18  1  0
  1 24  1  0
  7 25  1  0
  7 26  1  0
  8 27  1  1
  9 28  1  0
 10 29  1  0
 11 30  1  6
 12 31  1  0
 12 32  1  0
 13 33  1  0
 13 34  1  0
 19 35  1  0
 20 36  1  0
 21 37  1  0
 22 38  1  0
 23 39  1  0
M  ISO  8  24  14  27  13  28  13  29  13  30  13  31  13  32  13  33  13
M  ISO  6  34  13  35  14  36  14  37  14  38  14  39  14
M  END
>  <minimizedAffinity>  (1) 
-5.71363831

>  <minimizedRMSD>  (1) 
0.560896516

$$$$
