
     RDKit          3D

 36 37  0  0  1  0  0  0  0  0999 V2000
   46.0790   33.6450   45.3510 C   0  0  2  0  0  0  0  0  0  0  0  0
   44.9140   34.6910   45.4920 C   0  0  0  0  0  0  0  0  0  0  0  0
   44.7180   35.5850   44.3850 C   0  0  0  0  0  0  0  0  0  0  0  0
   45.5470   35.5070   43.1880 C   0  0  1  0  0  0  0  0  0  0  0  0
   46.6520   34.5560   43.2180 C   0  0  0  0  0  0  0  0  0  0  0  0
   46.2870   33.3170   43.9790 C   0  0  0  0  0  0  0  0  0  0  0  0
   45.5940   32.9800   47.6330 C   0  0  0  0  0  0  0  0  0  0  0  0
   45.8840   32.6300   46.3400 C   0  0  0  0  0  0  0  0  0  0  0  0
   45.9370   31.2550   46.0570 C   0  0  0  0  0  0  0  0  0  0  0  0
   45.7130   30.3750   47.0360 N   0  0  0  0  0  0  0  0  0  0  0  0
   45.4320   30.7240   48.2980 C   0  0  0  0  0  0  0  0  0  0  0  0
   45.3730   32.0130   48.5850 N   0  0  0  0  0  0  0  0  0  0  0  0
   45.2190   29.7030   49.2710 N   0  0  0  0  0  0  0  0  0  0  0  0
   46.1180   30.6700   44.7820 N   0  0  0  0  0  0  0  0  0  0  0  0
   45.0460   30.0200   44.1140 C   0  0  0  0  0  0  0  0  0  0  0  0
   44.1160   29.3650   44.7280 N   0  0  0  0  0  0  0  0  0  0  0  0
   44.7500   29.9360   42.7120 N   0  0  0  0  0  0  0  0  0  0  0  0
   43.9830   29.2000   45.7140 H   0  0  0  0  0  0  0  0  0  0  0  0
   44.6120   35.1740   42.0030 C   0  0  0  0  0  0  0  0  0  0  0  0
   43.6270   34.2760   42.3350 F   0  0  0  0  0  0  0  0  0  0  0  0
   43.9500   36.3600   41.6700 F   0  0  0  0  0  0  0  0  0  0  0  0
   45.3500   34.7910   40.9060 F   0  0  0  0  0  0  0  0  0  0  0  0
   47.0824   34.0211   45.5995 H   0  0  0  0  0  0  0  0  0  0  0  0
   44.2821   34.7359   46.3912 H   0  0  0  0  0  0  0  0  0  0  0  0
   43.9250   36.3453   44.4415 H   0  0  0  0  0  0  0  0  0  0  0  0
   46.0455   36.4834   43.0982 H   0  0  0  0  0  0  0  0  0  0  0  0
   46.9133   34.2783   42.1862 H   0  0  0  0  0  0  0  0  0  0  0  0
   47.5055   35.0329   43.7220 H   0  0  0  0  0  0  0  0  0  0  0  0
   45.3644   32.8884   43.5607 H   0  0  0  0  0  0  0  0  0  0  0  0
   47.1025   32.5833   43.8973 H   0  0  0  0  0  0  0  0  0  0  0  0
   45.5376   34.0427   47.9112 H   0  0  0  0  0  0  0  0  0  0  0  0
   45.0021   29.9572   50.2453 H   0  0  0  0  0  0  0  0  0  0  0  0
   45.2821   28.7115   48.9993 H   0  0  0  0  0  0  0  0  0  0  0  0
   47.0425   30.7161   44.3303 H   0  0  0  0  0  0  0  0  0  0  0  0
   45.3684   30.3931   42.0268 H   0  0  0  0  0  0  0  0  0  0  0  0
   43.9192   29.4186   42.3912 H   0  0  0  0  0  0  0  0  0  0  0  0
  1  2  1  0
  1  8  1  0
  3  2  2  0
  4  5  1  0
  4  3  1  0
  5  6  1  0
  6  1  1  0
  7 12  2  0
  8  7  1  0
  9  8  2  0
  9 10  1  0
 10 11  2  0
 11 12  1  0
 11 13  1  0
 14  9  1  0
 15 16  2  0
 15 14  1  0
 16 18  1  0
 17 15  1  0
 19 20  1  0
 19  4  1  0
 21 19  1  0
 22 19  1  0
  1 23  1  1
  2 24  1  0
  3 25  1  0
  4 26  1  6
  5 27  1  0
  5 28  1  0
  6 29  1  0
  6 30  1  0
  7 31  1  0
 13 32  1  0
 13 33  1  0
 14 34  1  0
 17 35  1  0
 17 36  1  0
M  ISO  8  23  13  24  13  25  13  26  13  27  13  28  13  29  13  30  13
M  ISO  1  31  14
M  END
>  <minimizedAffinity>  (1) 
-5.67739534

>  <minimizedRMSD>  (1) 
0.605694711

$$$$
