
     RDKit          3D

 36 38  0  0  1  0  0  0  0  0999 V2000
   46.1040   33.6100   45.3390 C   0  0  2  0  0  0  0  0  0  0  0  0
   44.9710   34.6860   45.5190 C   0  0  0  0  0  0  0  0  0  0  0  0
   44.7430   35.5930   44.4260 C   0  0  0  0  0  0  0  0  0  0  0  0
   45.5330   35.4990   43.2050 C   0  0  1  0  0  0  0  0  0  0  0  0
   46.6230   34.5170   43.2000 C   0  0  0  0  0  0  0  0  0  0  0  0
   46.1970   33.2760   43.9490 C   0  0  0  0  0  0  0  0  0  0  0  0
   45.3240   32.8810   47.5500 C   0  0  0  0  0  0  0  0  0  0  0  0
   45.8840   32.6090   46.3360 C   0  0  0  0  0  0  0  0  0  0  0  0
   46.2020   31.2630   46.0860 C   0  0  0  0  0  0  0  0  0  0  0  0
   45.9660   30.3110   46.9910 N   0  0  0  0  0  0  0  0  0  0  0  0
   45.4000   30.6120   48.2090 C   0  0  0  0  0  0  0  0  0  0  0  0
   45.0890   31.8790   48.4690 N   0  0  0  0  0  0  0  0  0  0  0  0
   45.1650   29.5800   49.1610 N   0  0  0  0  0  0  0  0  0  0  0  0
   46.7730   30.5740   44.9820 N   0  0  0  0  0  0  0  0  0  0  0  0
   46.1640   29.9520   43.9210 C   0  0  0  0  0  0  0  0  0  0  0  0
   47.1760   29.4810   43.1090 C   0  0  0  0  0  0  0  0  0  0  0  0
   48.3740   29.7910   43.6360 N   0  0  0  0  0  0  0  0  0  0  0  0
   48.1300   30.4680   44.7970 C   0  0  0  0  0  0  0  0  0  0  0  0
   44.5570   35.2060   42.0440 C   0  0  0  0  0  0  0  0  0  0  0  0
   43.5370   34.3440   42.4080 F   0  0  0  0  0  0  0  0  0  0  0  0
   43.9420   36.4160   41.7230 F   0  0  0  0  0  0  0  0  0  0  0  0
   45.2600   34.7860   40.9250 F   0  0  0  0  0  0  0  0  0  0  0  0
   47.1374   33.9281   45.5414 H   0  0  0  0  0  0  0  0  0  0  0  0
   44.3771   34.7426   46.4432 H   0  0  0  0  0  0  0  0  0  0  0  0
   43.9645   36.3653   44.5127 H   0  0  0  0  0  0  0  0  0  0  0  0
   46.0553   36.4619   43.1046 H   0  0  0  0  0  0  0  0  0  0  0  0
   46.8695   34.2503   42.1617 H   0  0  0  0  0  0  0  0  0  0  0  0
   47.5062   34.9521   43.6905 H   0  0  0  0  0  0  0  0  0  0  0  0
   45.2184   32.9347   43.5805 H   0  0  0  0  0  0  0  0  0  0  0  0
   46.9275   32.4677   43.7975 H   0  0  0  0  0  0  0  0  0  0  0  0
   45.0550   33.9177   47.8006 H   0  0  0  0  0  0  0  0  0  0  0  0
   44.7414   29.8065   50.0721 H   0  0  0  0  0  0  0  0  0  0  0  0
   45.4186   28.6068   48.9387 H   0  0  0  0  0  0  0  0  0  0  0  0
   45.0821   29.8490   43.7511 H   0  0  0  0  0  0  0  0  0  0  0  0
   47.0247   28.9320   42.1679 H   0  0  0  0  0  0  0  0  0  0  0  0
   48.8985   30.8654   45.4763 H   0  0  0  0  0  0  0  0  0  0  0  0
  1  2  1  0
  1  8  1  0
  3  2  2  0
  4  3  1  0
  5  4  1  0
  5  6  1  0
  6  1  1  0
  7 12  2  0
  8  7  1  0
  9  8  2  0
  9 10  1  0
 10 11  2  0
 11 12  1  0
 11 13  1  0
 14  9  1  0
 15 14  1  0
 16 17  1  0
 16 15  2  0
 17 18  2  0
 18 14  1  0
 19 20  1  0
 19  4  1  0
 21 19  1  0
 22 19  1  0
  1 23  1  1
  2 24  1  0
  3 25  1  0
  4 26  1  6
  5 27  1  0
  5 28  1  0
  6 29  1  0
  6 30  1  0
  7 31  1  0
 13 32  1  0
 13 33  1  0
 15 34  1  0
 16 35  1  0
 18 36  1  0
M  ISO  8  23  13  24  13  25  13  26  13  27  13  28  13  29  13  30  13
M  ISO  4  31  14  34  14  35  14  36  14
M  END
>  <minimizedAffinity>  (1) 
-5.61240911

>  <minimizedRMSD>  (1) 
0.310780525

$$$$
