
     RDKit          3D

 38 39  0  0  1  0  0  0  0  0999 V2000
   46.1290   33.6040   45.3790 C   0  0  2  0  0  0  0  0  0  0  0  0
   44.9960   34.6670   45.5540 C   0  0  0  0  0  0  0  0  0  0  0  0
   44.7560   35.5660   44.4520 C   0  0  0  0  0  0  0  0  0  0  0  0
   45.5440   35.4760   43.2340 C   0  0  1  0  0  0  0  0  0  0  0  0
   46.6400   34.4920   43.2380 C   0  0  0  0  0  0  0  0  0  0  0  0
   46.1260   33.2610   43.9790 C   0  0  0  0  0  0  0  0  0  0  0  0
   45.2130   32.8200   47.5790 C   0  0  0  0  0  0  0  0  0  0  0  0
   45.9080   32.6100   46.3920 C   0  0  0  0  0  0  0  0  0  0  0  0
   46.3620   31.3070   46.1440 C   0  0  0  0  0  0  0  0  0  0  0  0
   46.1030   30.3430   47.0450 N   0  0  0  0  0  0  0  0  0  0  0  0
   45.4190   30.5840   48.1910 C   0  0  0  0  0  0  0  0  0  0  0  0
   44.9770   31.8060   48.4620 N   0  0  0  0  0  0  0  0  0  0  0  0
   45.1830   29.5130   49.1250 N   0  0  0  0  0  0  0  0  0  0  0  0
   47.1450   30.7190   45.0360 C   0  0  0  0  0  0  0  0  0  0  0  0
   46.3420   29.6300   44.3480 C   0  0  0  0  0  0  0  0  0  0  0  0
   48.3290   29.8640   45.6200 C   0  0  0  0  0  0  0  0  0  0  0  0
   44.5670   35.1610   42.0720 C   0  0  0  0  0  0  0  0  0  0  0  0
   43.5550   34.3100   42.4320 F   0  0  0  0  0  0  0  0  0  0  0  0
   43.9660   36.3700   41.7290 F   0  0  0  0  0  0  0  0  0  0  0  0
   45.2800   34.7320   40.9630 F   0  0  0  0  0  0  0  0  0  0  0  0
   47.1725   33.9003   45.5616 H   0  0  0  0  0  0  0  0  0  0  0  0
   44.4057   34.7269   46.4803 H   0  0  0  0  0  0  0  0  0  0  0  0
   43.9675   36.3286   44.5343 H   0  0  0  0  0  0  0  0  0  0  0  0
   46.0559   36.4435   43.1249 H   0  0  0  0  0  0  0  0  0  0  0  0
   46.9136   34.2260   42.2063 H   0  0  0  0  0  0  0  0  0  0  0  0
   47.5358   34.9015   43.7278 H   0  0  0  0  0  0  0  0  0  0  0  0
   45.1059   33.0154   43.6487 H   0  0  0  0  0  0  0  0  0  0  0  0
   46.7561   32.3815   43.7804 H   0  0  0  0  0  0  0  0  0  0  0  0
   44.8440   33.8297   47.8120 H   0  0  0  0  0  0  0  0  0  0  0  0
   44.6637   29.6942   49.9959 H   0  0  0  0  0  0  0  0  0  0  0  0
   45.5335   28.5660   48.9220 H   0  0  0  0  0  0  0  0  0  0  0  0
   47.4418   31.5570   44.3882 H   0  0  0  0  0  0  0  0  0  0  0  0
   45.8691   28.9886   45.1063 H   0  0  0  0  0  0  0  0  0  0  0  0
   45.5646   30.0891   43.7196 H   0  0  0  0  0  0  0  0  0  0  0  0
   47.0104   29.0231   43.7196 H   0  0  0  0  0  0  0  0  0  0  0  0
   48.2928   29.8901   46.7191 H   0  0  0  0  0  0  0  0  0  0  0  0
   48.2353   28.8238   45.2747 H   0  0  0  0  0  0  0  0  0  0  0  0
   49.2869   30.2801   45.2747 H   0  0  0  0  0  0  0  0  0  0  0  0
  1  2  1  0
  1  8  1  0
  3  2  2  0
  4  5  1  0
  4  3  1  0
  5  6  1  0
  6  1  1  0
  7 12  2  0
  8  7  1  0
  9  8  2  0
  9 10  1  0
 10 11  2  0
 11 12  1  0
 11 13  1  0
 14 16  1  0
 14  9  1  0
 15 14  1  0
 17 18  1  0
 17  4  1  0
 19 17  1  0
 20 17  1  0
  1 21  1  1
  2 22  1  0
  3 23  1  0
  4 24  1  6
  5 25  1  0
  5 26  1  0
  6 27  1  0
  6 28  1  0
  7 29  1  0
 13 30  1  0
 13 31  1  0
 14 32  1  0
 15 33  1  0
 15 34  1  0
 15 35  1  0
 16 36  1  0
 16 37  1  0
 16 38  1  0
M  ISO  8  21  13  22  13  23  13  24  13  25  13  26  13  27  13  28  13
M  ISO  8  29  14  32   8  33   8  34   8  35   8  36   8  37   8  38   8
M  END
>  <minimizedAffinity>  (1) 
-5.61446953

>  <minimizedRMSD>  (1) 
0.50883466

$$$$
