
     RDKit          3D

 31 32  0  0  1  0  0  0  0  0999 V2000
   46.0950   33.8300   45.2550 C   0  0  2  0  0  0  0  0  0  0  0  0
   44.9140   34.8430   45.4060 C   0  0  0  0  0  0  0  0  0  0  0  0
   44.6400   35.6890   44.2720 C   0  0  0  0  0  0  0  0  0  0  0  0
   45.4220   35.5920   43.0490 C   0  0  1  0  0  0  0  0  0  0  0  0
   46.5770   34.6840   43.0800 C   0  0  0  0  0  0  0  0  0  0  0  0
   46.2120   33.4460   43.8770 C   0  0  0  0  0  0  0  0  0  0  0  0
   45.1900   33.0630   47.3850 C   0  0  0  0  0  0  0  0  0  0  0  0
   45.9520   32.8470   46.2810 C   0  0  0  0  0  0  0  0  0  0  0  0
   46.5690   31.6200   46.2070 C   0  0  0  0  0  0  0  0  0  0  0  0
   46.4370   30.6930   47.1590 N   0  0  0  0  0  0  0  0  0  0  0  0
   45.6670   30.9200   48.2670 C   0  0  0  0  0  0  0  0  0  0  0  0
   45.0620   32.0920   48.3580 N   0  0  0  0  0  0  0  0  0  0  0  0
   45.5110   29.9430   49.2760 N   0  0  0  0  0  0  0  0  0  0  0  0
   47.4170   30.9500   45.2450 C   0  0  0  0  0  0  0  0  0  0  0  0
   48.3080   30.1250   44.9570 O   0  0  0  0  0  0  0  0  0  0  0  0
   44.4540   35.1970   41.9170 C   0  0  0  0  0  0  0  0  0  0  0  0
   43.5050   34.2870   42.3150 F   0  0  0  0  0  0  0  0  0  0  0  0
   43.7740   36.3540   41.5480 F   0  0  0  0  0  0  0  0  0  0  0  0
   45.1800   34.7750   40.8060 F   0  0  0  0  0  0  0  0  0  0  0  0
   47.1020   34.2305   45.4437 H   0  0  0  0  0  0  0  0  0  0  0  0
   44.3221   34.9068   46.3310 H   0  0  0  0  0  0  0  0  0  0  0  0
   43.8230   36.4230   44.3323 H   0  0  0  0  0  0  0  0  0  0  0  0
   45.8854   36.5775   42.8939 H   0  0  0  0  0  0  0  0  0  0  0  0
   46.8466   34.3953   42.0534 H   0  0  0  0  0  0  0  0  0  0  0  0
   47.4337   35.1890   43.5502 H   0  0  0  0  0  0  0  0  0  0  0  0
   45.2545   33.0395   43.5192 H   0  0  0  0  0  0  0  0  0  0  0  0
   46.9838   32.6712   43.7582 H   0  0  0  0  0  0  0  0  0  0  0  0
   44.6683   34.0240   47.5051 H   0  0  0  0  0  0  0  0  0  0  0  0
   44.9249   30.1419   50.0993 H   0  0  0  0  0  0  0  0  0  0  0  0
   45.9834   29.0319   49.1881 H   0  0  0  0  0  0  0  0  0  0  0  0
   47.1323   31.3909   44.2783 H   0  0  0  0  0  0  0  0  0  0  0  0
  1  2  1  0
  1  8  1  0
  3  2  2  0
  4  5  1  0
  4  3  1  0
  5  6  1  0
  6  1  1  0
  7 12  2  0
  8  7  1  0
  9  8  2  0
  9 10  1  0
 10 11  2  0
 11 12  1  0
 11 13  1  0
 14  9  1  0
 15 14  2  0
 16 17  1  0
 16  4  1  0
 18 16  1  0
 19 16  1  0
  1 20  1  1
  2 21  1  0
  3 22  1  0
  4 23  1  6
  5 24  1  0
  5 25  1  0
  6 26  1  0
  6 27  1  0
  7 28  1  0
 13 29  1  0
 13 30  1  0
 14 31  1  0
M  ISO  8  20  13  21  13  22  13  23  13  24  13  25  13  26  13  27  13
M  ISO  2  28  14  31   6
M  END
>  <minimizedAffinity>  (1) 
-5.50406027

>  <minimizedRMSD>  (1) 
0.455949724

$$$$
