
     RDKit          3D

 36 38  0  0  1  0  0  0  0  0999 V2000
   46.1180   33.5970   45.2820 C   0  0  2  0  0  0  0  0  0  0  0  0
   44.9730   34.6860   45.5070 C   0  0  0  0  0  0  0  0  0  0  0  0
   44.7290   35.6180   44.4380 C   0  0  0  0  0  0  0  0  0  0  0  0
   45.5070   35.5380   43.2080 C   0  0  1  0  0  0  0  0  0  0  0  0
   46.5910   34.5370   43.1630 C   0  0  0  0  0  0  0  0  0  0  0  0
   46.1030   33.2920   43.8930 C   0  0  0  0  0  0  0  0  0  0  0  0
   45.3570   32.8690   47.5260 C   0  0  0  0  0  0  0  0  0  0  0  0
   45.9000   32.6170   46.2980 C   0  0  0  0  0  0  0  0  0  0  0  0
   46.1650   31.2750   46.0380 C   0  0  0  0  0  0  0  0  0  0  0  0
   45.9070   30.2920   46.9200 N   0  0  0  0  0  0  0  0  0  0  0  0
   45.3600   30.5870   48.1490 C   0  0  0  0  0  0  0  0  0  0  0  0
   45.0980   31.8600   48.4230 N   0  0  0  0  0  0  0  0  0  0  0  0
   45.0960   29.5660   49.0920 N   0  0  0  0  0  0  0  0  0  0  0  0
   46.7870   30.6210   44.8950 C   0  0  0  0  0  0  0  0  0  0  0  0
   46.3660   29.9210   43.7870 C   0  0  0  0  0  0  0  0  0  0  0  0
   47.5130   29.4560   43.1310 C   0  0  0  0  0  0  0  0  0  0  0  0
   48.5490   29.8930   43.8680 N   0  0  0  0  0  0  0  0  0  0  0  0
   48.1390   30.5860   44.9160 N   0  0  0  0  0  0  0  0  0  0  0  0
   44.5070   35.2740   42.0530 C   0  0  0  0  0  0  0  0  0  0  0  0
   43.4550   34.4720   42.4310 F   0  0  0  0  0  0  0  0  0  0  0  0
   43.9630   36.5080   41.7100 F   0  0  0  0  0  0  0  0  0  0  0  0
   45.1950   34.8100   40.9400 F   0  0  0  0  0  0  0  0  0  0  0  0
   47.1758   33.8592   45.4314 H   0  0  0  0  0  0  0  0  0  0  0  0
   44.3938   34.7226   46.4414 H   0  0  0  0  0  0  0  0  0  0  0  0
   43.9547   36.3914   44.5492 H   0  0  0  0  0  0  0  0  0  0  0  0
   46.0430   36.4950   43.1255 H   0  0  0  0  0  0  0  0  0  0  0  0
   46.8290   34.2893   42.1180 H   0  0  0  0  0  0  0  0  0  0  0  0
   47.4999   34.9319   43.6404 H   0  0  0  0  0  0  0  0  0  0  0  0
   45.0815   33.0407   43.5716 H   0  0  0  0  0  0  0  0  0  0  0  0
   46.7464   32.4276   43.6720 H   0  0  0  0  0  0  0  0  0  0  0  0
   45.1208   33.9067   47.8044 H   0  0  0  0  0  0  0  0  0  0  0  0
   44.6866   29.8033   50.0069 H   0  0  0  0  0  0  0  0  0  0  0  0
   45.3132   28.5854   48.8637 H   0  0  0  0  0  0  0  0  0  0  0  0
   45.3239   29.7574   43.4751 H   0  0  0  0  0  0  0  0  0  0  0  0
   47.5568   28.8594   42.2079 H   0  0  0  0  0  0  0  0  0  0  0  0
   49.5377   29.7107   43.6441 H   0  0  0  0  0  0  0  0  0  0  0  0
  1  2  1  0
  1  8  1  0
  3  2  2  0
  4  3  1  0
  5  4  1  0
  5  6  1  0
  6  1  1  0
  7 12  2  0
  8  7  1  0
  9  8  2  0
  9 10  1  0
 10 11  2  0
 11 12  1  0
 11 13  1  0
 14 18  2  0
 14  9  1  0
 15 14  1  0
 16 15  2  0
 16 17  1  0
 17 18  1  0
 19 20  1  0
 19  4  1  0
 21 19  1  0
 22 19  1  0
  1 23  1  1
  2 24  1  0
  3 25  1  0
  4 26  1  6
  5 27  1  0
  5 28  1  0
  6 29  1  0
  6 30  1  0
  7 31  1  0
 13 32  1  0
 13 33  1  0
 15 34  1  0
 16 35  1  0
 17 36  1  0
M  ISO  8  23  13  24  13  25  13  26  13  27  13  28  13  29  13  30  13
M  ISO  4  31  14  34  14  35  14  36   9
M  END
>  <minimizedAffinity>  (1) 
-5.58480263

>  <minimizedRMSD>  (1) 
0.250379533

$$$$
