
     RDKit          3D

 30 32  0  0  0  0  0  0  0  0999 V2000
   47.7140   34.4250   41.2950 C   0  0  0  0  0  0  0  0  0  0  0  0
   48.5480   35.6070   41.6420 C   0  0  0  0  0  0  0  0  0  0  0  0
   49.8130   35.1050   42.3270 C   0  0  0  0  0  0  0  0  0  0  0  0
   49.7520   33.6160   42.2840 C   0  0  0  0  0  0  0  0  0  0  0  0
   48.2740   33.3040   42.1440 C   0  0  0  0  0  0  0  0  0  0  0  0
   47.8090   33.9670   39.8900 C   0  0  0  0  0  0  0  0  0  0  0  0
   48.4250   34.7900   38.9470 C   0  0  0  0  0  0  0  0  0  0  0  0
   48.4750   34.3290   37.6190 C   0  0  0  0  0  0  0  0  0  0  0  0
   47.9210   33.1060   37.3250 N   0  0  0  0  0  0  0  0  0  0  0  0
   47.3400   32.3520   38.2750 C   0  0  0  0  0  0  0  0  0  0  0  0
   47.2920   32.7870   39.5300 N   0  0  0  0  0  0  0  0  0  0  0  0
   46.2850   34.6850   41.6850 C   0  0  0  0  0  0  0  0  0  0  0  0
   45.9320   35.4410   42.9010 C   0  0  0  0  0  0  0  0  0  0  0  0
   45.7710   33.9320   42.9150 C   0  0  0  0  0  0  0  0  0  0  0  0
   48.8122   36.1589   40.7279 H   0  0  0  0  0  0  0  0  0  0  0  0
   47.9941   36.2831   42.3098 H   0  0  0  0  0  0  0  0  0  0  0  0
   50.7040   35.4649   41.7917 H   0  0  0  0  0  0  0  0  0  0  0  0
   49.8786   35.4718   43.3620 H   0  0  0  0  0  0  0  0  0  0  0  0
   50.3153   33.2279   41.4226 H   0  0  0  0  0  0  0  0  0  0  0  0
   50.1963   33.1517   43.1768 H   0  0  0  0  0  0  0  0  0  0  0  0
   47.7877   33.2866   43.1305 H   0  0  0  0  0  0  0  0  0  0  0  0
   48.1020   32.3170   41.6898 H   0  0  0  0  0  0  0  0  0  0  0  0
   48.8550   35.7618   39.2309 H   0  0  0  0  0  0  0  0  0  0  0  0
   48.9478   34.9348   36.8320 H   0  0  0  0  0  0  0  0  0  0  0  0
   46.9049   31.3761   38.0136 H   0  0  0  0  0  0  0  0  0  0  0  0
   45.9959   34.8022   40.6302 H   0  0  0  0  0  0  0  0  0  0  0  0
   46.7253   35.9108   43.5010 H   0  0  0  0  0  0  0  0  0  0  0  0
   45.2622   36.2875   43.1125 H   0  0  0  0  0  0  0  0  0  0  0  0
   44.7682   33.4799   42.9111 H   0  0  0  0  0  0  0  0  0  0  0  0
   46.1326   33.1045   43.5431 H   0  0  0  0  0  0  0  0  0  0  0  0
  1  2  1  0
  1 12  1  0
  1  5  1  0
  2  3  1  0
  4  3  1  0
  5  4  1  0
  6  1  1  0
  7  6  2  0
  8  7  1  0
  9  8  2  0
  9 10  1  0
 10 11  2  0
 11  6  1  0
 12 13  1  0
 12 14  1  0
 13 14  1  0
  2 15  1  0
  2 16  1  0
  3 17  1  0
  3 18  1  0
  4 19  1  0
  4 20  1  0
  5 21  1  0
  5 22  1  0
  7 23  1  0
  8 24  1  0
 10 25  1  0
 12 26  1  0
 13 27  1  0
 13 28  1  0
 14 29  1  0
 14 30  1  0
M  ISO  8  15  13  16  13  17  13  18  13  19  13  20  13  21  13  22  13
M  ISO  8  23  14  24  14  25  14  26  13  27  13  28  13  29  13  30  13
M  END
>  <minimizedAffinity>  (1) 
-4.29948759

>  <minimizedRMSD>  (1) 
3.67914438

$$$$
