
     RDKit          3D

 35 37  0  0  1  0  0  0  0  0999 V2000
   46.7830   33.3850   42.5760 C   0  0  0  0  0  0  0  0  0  0  0  0
   46.6680   31.9390   42.3620 C   0  0  0  0  0  0  0  0  0  0  0  0
   46.3580   31.2950   43.7120 C   0  0  0  0  0  0  0  0  0  0  0  0
   46.1850   32.4080   44.7090 C   0  0  0  0  0  0  0  0  0  0  0  0
   46.9430   33.5350   44.1130 C   0  0  0  0  0  0  0  0  0  0  0  0
   45.6180   34.2120   42.2250 C   0  0  0  0  0  0  0  0  0  0  0  0
   44.8750   33.9010   41.0700 C   0  0  0  0  0  0  0  0  0  0  0  0
   43.7670   34.6690   40.7250 C   0  0  0  0  0  0  0  0  0  0  0  0
   43.4640   35.7170   41.5640 N   0  0  0  0  0  0  0  0  0  0  0  0
   44.1960   35.9940   42.6680 C   0  0  0  0  0  0  0  0  0  0  0  0
   45.2620   35.2480   42.9920 N   0  0  0  0  0  0  0  0  0  0  0  0
   47.8900   33.9350   41.8980 N   0  0  0  0  0  0  0  0  0  0  0  0
   48.2870   33.3580   40.6860 C   0  0  0  0  0  0  0  0  0  0  0  0
   48.2850   34.5590   39.7550 C   0  0  0  0  0  0  0  0  0  0  0  0
   48.8960   35.6040   40.7000 C   0  0  0  0  0  0  0  0  0  0  0  0
   48.2840   35.2530   42.0640 C   0  0  0  0  0  0  0  0  0  0  0  0
   45.8557   31.7286   41.6508 H   0  0  0  0  0  0  0  0  0  0  0  0
   47.6029   31.5346   41.9469 H   0  0  0  0  0  0  0  0  0  0  0  0
   45.4329   30.7037   43.6435 H   0  0  0  0  0  0  0  0  0  0  0  0
   47.1716   30.6208   44.0180 H   0  0  0  0  0  0  0  0  0  0  0  0
   45.1226   32.6682   44.8260 H   0  0  0  0  0  0  0  0  0  0  0  0
   46.5414   32.1390   45.7143 H   0  0  0  0  0  0  0  0  0  0  0  0
   48.0044   33.4749   44.3955 H   0  0  0  0  0  0  0  0  0  0  0  0
   46.5687   34.5071   44.4665 H   0  0  0  0  0  0  0  0  0  0  0  0
   45.1709   33.0496   40.4394 H   0  0  0  0  0  0  0  0  0  0  0  0
   43.1659   34.4503   39.8301 H   0  0  0  0  0  0  0  0  0  0  0  0
   43.9127   36.8425   43.3081 H   0  0  0  0  0  0  0  0  0  0  0  0
   49.2900   32.9131   40.7637 H   0  0  0  0  0  0  0  0  0  0  0  0
   47.6397   32.5339   40.3516 H   0  0  0  0  0  0  0  0  0  0  0  0
   48.9112   34.3918   38.8663 H   0  0  0  0  0  0  0  0  0  0  0  0
   47.3055   34.8239   39.3302 H   0  0  0  0  0  0  0  0  0  0  0  0
   49.9922   35.5172   40.7266 H   0  0  0  0  0  0  0  0  0  0  0  0
   48.6865   36.6381   40.3891 H   0  0  0  0  0  0  0  0  0  0  0  0
   47.4219   35.8982   42.2885 H   0  0  0  0  0  0  0  0  0  0  0  0
   48.9821   35.3948   42.9022 H   0  0  0  0  0  0  0  0  0  0  0  0
  1  5  1  0
  2  1  1  0
  2  3  1  0
  3  4  1  0
  5  4  1  0
  6  1  1  0
  6 11  1  0
  7  6  2  0
  8  7  1  0
  8  9  2  0
  9 10  1  0
 10 11  2  0
 12 13  1  0
 12 16  1  0
 12  1  1  0
 14 13  1  0
 14 15  1  0
 15 16  1  0
  2 17  1  0
  2 18  1  0
  3 19  1  0
  3 20  1  0
  4 21  1  0
  4 22  1  0
  5 23  1  0
  5 24  1  0
  7 25  1  0
  8 26  1  0
 10 27  1  0
 13 28  1  0
 13 29  1  0
 14 30  1  0
 14 31  1  0
 15 32  1  0
 15 33  1  0
 16 34  1  0
 16 35  1  0
M  ISO  8  17  13  18  13  19  13  20  13  21  13  22  13  23  13  24  13
M  ISO  8  25  14  26  14  27  14  28  13  29  13  30  13  31  13  32  13
M  ISO  3  33  13  34  13  35  13
M  END
>  <minimizedAffinity>  (1) 
-3.98400068

>  <minimizedRMSD>  (1) 
3.79126191

$$$$
