
     RDKit          3D

 30 32  0  0  0  0  0  0  0  0999 V2000
   44.8890   34.5910   42.4900 C   0  0  0  0  0  0  0  0  0  0  0  0
   44.7270   35.5600   43.5820 C   0  0  0  0  0  0  0  0  0  0  0  0
   45.0390   34.8620   44.9010 C   0  0  0  0  0  0  0  0  0  0  0  0
   45.4470   33.4560   44.5530 C   0  0  0  0  0  0  0  0  0  0  0  0
   44.8640   33.2220   43.2060 C   0  0  0  0  0  0  0  0  0  0  0  0
   46.1600   34.6180   41.7470 C   0  0  0  0  0  0  0  0  0  0  0  0
   47.2380   35.3610   42.2530 C   0  0  0  0  0  0  0  0  0  0  0  0
   48.4380   35.3870   41.5300 C   0  0  0  0  0  0  0  0  0  0  0  0
   48.4900   34.6800   40.3650 N   0  0  0  0  0  0  0  0  0  0  0  0
   47.4220   33.9710   39.9090 C   0  0  0  0  0  0  0  0  0  0  0  0
   46.2660   33.9410   40.5970 N   0  0  0  0  0  0  0  0  0  0  0  0
   43.7290   34.6210   41.5550 C   0  0  0  0  0  0  0  0  0  0  0  0
   43.0790   35.4740   40.7260 C   0  0  0  0  0  0  0  0  0  0  0  0
   41.9950   35.0560   40.0080 C   0  0  0  0  0  0  0  0  0  0  0  0
   41.5830   33.7080   40.1630 C   0  0  0  0  0  0  0  0  0  0  0  0
   42.7920   33.0370   41.3740 S   0  0  0  0  0  0  0  0  0  0  0  0
   45.4189   36.4025   43.4357 H   0  0  0  0  0  0  0  0  0  0  0  0
   43.6962   35.9439   43.5943 H   0  0  0  0  0  0  0  0  0  0  0  0
   45.8599   35.3787   45.4197 H   0  0  0  0  0  0  0  0  0  0  0  0
   44.1669   34.8692   45.5714 H   0  0  0  0  0  0  0  0  0  0  0  0
   46.5428   33.3652   44.5235 H   0  0  0  0  0  0  0  0  0  0  0  0
   45.0956   32.7229   45.2940 H   0  0  0  0  0  0  0  0  0  0  0  0
   43.8307   32.8555   43.2947 H   0  0  0  0  0  0  0  0  0  0  0  0
   45.4312   32.4634   42.6467 H   0  0  0  0  0  0  0  0  0  0  0  0
   47.1425   35.9128   43.1998 H   0  0  0  0  0  0  0  0  0  0  0  0
   49.3072   35.9574   41.8893 H   0  0  0  0  0  0  0  0  0  0  0  0
   47.5048   33.4141   38.9640 H   0  0  0  0  0  0  0  0  0  0  0  0
   43.4279   36.5128   40.6306 H   0  0  0  0  0  0  0  0  0  0  0  0
   41.4604   35.7408   39.3333 H   0  0  0  0  0  0  0  0  0  0  0  0
   40.7435   33.1897   39.6765 H   0  0  0  0  0  0  0  0  0  0  0  0
  1  5  1  0
  1  2  1  0
  2  3  1  0
  4  3  1  0
  5  4  1  0
  6  7  2  0
  6  1  1  0
  8  7  1  0
  9  8  2  0
 10  9  1  0
 10 11  2  0
 11  6  1  0
 12  1  1  0
 13 12  2  0
 14 15  2  0
 14 13  1  0
 15 16  1  0
 16 12  1  0
  2 17  1  0
  2 18  1  0
  3 19  1  0
  3 20  1  0
  4 21  1  0
  4 22  1  0
  5 23  1  0
  5 24  1  0
  7 25  1  0
  8 26  1  0
 10 27  1  0
 13 28  1  0
 14 29  1  0
 15 30  1  0
M  ISO  8  17  13  18  13  19  13  20  13  21  13  22  13  23  13  24  13
M  ISO  6  25  14  26  14  27  14  28  14  29  14  30  14
M  END
>  <minimizedAffinity>  (1) 
-4.64407873

>  <minimizedRMSD>  (1) 
3.637609

$$$$
