
     RDKit          3D

 44 48  0  0  0  0  0  0  0  0999 V2000
   45.8650   33.9560   42.6410 C   0  0  0  0  0  0  0  0  0  0  0  0
   46.0960   34.2840   44.0560 C   0  0  0  0  0  0  0  0  0  0  0  0
   46.6790   33.0490   44.7480 C   0  0  0  0  0  0  0  0  0  0  0  0
   46.8220   31.9900   43.6880 C   0  0  0  0  0  0  0  0  0  0  0  0
   45.8760   32.4060   42.6120 C   0  0  0  0  0  0  0  0  0  0  0  0
   46.8900   34.3820   41.6810 C   0  0  0  0  0  0  0  0  0  0  0  0
   47.8750   35.2960   42.0800 C   0  0  0  0  0  0  0  0  0  0  0  0
   48.8400   35.6880   41.1480 C   0  0  0  0  0  0  0  0  0  0  0  0
   48.7700   35.1550   39.8910 N   0  0  0  0  0  0  0  0  0  0  0  0
   47.7930   34.2680   39.5460 C   0  0  0  0  0  0  0  0  0  0  0  0
   46.8620   33.8830   40.4280 N   0  0  0  0  0  0  0  0  0  0  0  0
   44.5130   34.3730   42.2010 C   0  0  0  0  0  0  0  0  0  0  0  0
   43.7960   35.4840   41.9400 C   0  0  0  0  0  0  0  0  0  0  0  0
   42.5060   35.4550   41.5330 C   0  0  0  0  0  0  0  0  0  0  0  0
   41.9440   34.1820   41.3950 C   0  0  0  0  0  0  0  0  0  0  0  0
   43.3000   33.0470   41.8580 S   0  0  0  0  0  0  0  0  0  0  0  0
   40.6060   33.7970   40.9840 C   0  0  0  0  0  0  0  0  0  0  0  0
   39.7290   33.1980   41.8610 C   0  0  0  0  0  0  0  0  0  0  0  0
   38.6080   32.9990   41.1060 N   0  0  0  0  0  0  0  0  0  0  0  0
   38.7990   33.4510   39.8480 C   0  0  0  0  0  0  0  0  0  0  0  0
   37.8960   33.4210   38.8080 C   0  0  0  0  0  0  0  0  0  0  0  0
   38.3570   33.9590   37.6040 C   0  0  0  0  0  0  0  0  0  0  0  0
   39.6310   34.4940   37.4400 C   0  0  0  0  0  0  0  0  0  0  0  0
   40.4970   34.4950   38.5290 C   0  0  0  0  0  0  0  0  0  0  0  0
   40.0710   33.9710   39.7300 C   0  0  0  0  0  0  0  0  0  0  0  0
   46.8044   35.1221   44.1325 H   0  0  0  0  0  0  0  0  0  0  0  0
   45.1503   34.5758   44.5361 H   0  0  0  0  0  0  0  0  0  0  0  0
   47.6612   33.2858   45.1830 H   0  0  0  0  0  0  0  0  0  0  0  0
   46.0269   32.7071   45.5652 H   0  0  0  0  0  0  0  0  0  0  0  0
   47.8536   31.9580   43.3074 H   0  0  0  0  0  0  0  0  0  0  0  0
   46.6015   30.9829   44.0715 H   0  0  0  0  0  0  0  0  0  0  0  0
   44.8691   32.0113   42.8126 H   0  0  0  0  0  0  0  0  0  0  0  0
   46.1834   32.0200   41.6289 H   0  0  0  0  0  0  0  0  0  0  0  0
   47.8882   35.6961   43.1046 H   0  0  0  0  0  0  0  0  0  0  0  0
   49.6312   36.4031   41.4175 H   0  0  0  0  0  0  0  0  0  0  0  0
   47.7694   33.8614   38.5242 H   0  0  0  0  0  0  0  0  0  0  0  0
   44.2835   36.4623   42.0640 H   0  0  0  0  0  0  0  0  0  0  0  0
   41.9366   36.3727   41.3243 H   0  0  0  0  0  0  0  0  0  0  0  0
   39.8924   32.9410   42.9180 H   0  0  0  0  0  0  0  0  0  0  0  0
   37.7389   32.5650   41.4484 H   0  0  0  0  0  0  0  0  0  0  0  0
   36.8843   33.0033   38.9178 H   0  0  0  0  0  0  0  0  0  0  0  0
   37.6767   33.9597   36.7396 H   0  0  0  0  0  0  0  0  0  0  0  0
   39.9466   34.9071   36.4706 H   0  0  0  0  0  0  0  0  0  0  0  0
   41.5112   34.9098   38.4321 H   0  0  0  0  0  0  0  0  0  0  0  0
  1  2  1  0
  2  3  1  0
  4  3  1  0
  5  1  1  0
  5  4  1  0
  6  7  2  0
  6  1  1  0
  8  7  1  0
  9  8  2  0
 10  9  1  0
 10 11  2  0
 11  6  1  0
 12  1  1  0
 13 12  2  0
 14 13  1  0
 15 14  2  0
 15 16  1  0
 16 12  1  0
 17 15  1  0
 17 18  2  0
 19 18  1  0
 20 19  1  0
 21 20  2  0
 22 21  1  0
 23 22  2  0
 23 24  1  0
 24 25  2  0
 25 20  1  0
 25 17  1  0
  2 26  1  0
  2 27  1  0
  3 28  1  0
  3 29  1  0
  4 30  1  0
  4 31  1  0
  5 32  1  0
  5 33  1  0
  7 34  1  0
  8 35  1  0
 10 36  1  0
 13 37  1  0
 14 38  1  0
 18 39  1  0
 19 40  1  0
 21 41  1  0
 22 42  1  0
 23 43  1  0
 24 44  1  0
M  ISO  8  26  13  27  13  28  13  29  13  30  13  31  13  32  13  33  13
M  ISO  8  34  14  35  14  36  14  37  14  38  14  39  14  40   9  41  14
M  ISO  3  42  14  43  14  44  14
M  END
>  <minimizedAffinity>  (1) 
-6.99834967

>  <minimizedRMSD>  (1) 
1.60670221

$$$$
