
     RDKit          3D

 40 43  0  0  0  0  0  0  0  0999 V2000
   45.0640   34.2470   42.6130 C   0  0  0  0  0  0  0  0  0  0  0  0
   45.1490   34.8050   43.9590 C   0  0  0  0  0  0  0  0  0  0  0  0
   45.4910   33.6750   44.9350 C   0  0  0  0  0  0  0  0  0  0  0  0
   45.6680   32.4380   44.1050 C   0  0  0  0  0  0  0  0  0  0  0  0
   44.9230   32.7180   42.8380 C   0  0  0  0  0  0  0  0  0  0  0  0
   46.2520   34.4010   41.7450 C   0  0  0  0  0  0  0  0  0  0  0  0
   47.3310   35.1720   42.1900 C   0  0  0  0  0  0  0  0  0  0  0  0
   48.4510   35.3130   41.3630 C   0  0  0  0  0  0  0  0  0  0  0  0
   48.4130   34.6720   40.1480 N   0  0  0  0  0  0  0  0  0  0  0  0
   47.3440   33.9320   39.7570 C   0  0  0  0  0  0  0  0  0  0  0  0
   46.2760   33.7980   40.5470 N   0  0  0  0  0  0  0  0  0  0  0  0
   43.8340   34.6770   41.9070 C   0  0  0  0  0  0  0  0  0  0  0  0
   43.1530   35.7990   41.5980 C   0  0  0  0  0  0  0  0  0  0  0  0
   41.9950   35.7940   40.8980 C   0  0  0  0  0  0  0  0  0  0  0  0
   41.5390   34.5300   40.5070 C   0  0  0  0  0  0  0  0  0  0  0  0
   42.7940   33.3720   41.1590 S   0  0  0  0  0  0  0  0  0  0  0  0
   40.3590   34.1530   39.7570 C   0  0  0  0  0  0  0  0  0  0  0  0
   40.3250   34.5410   38.4580 C   0  0  0  0  0  0  0  0  0  0  0  0
   39.1970   34.1920   37.7090 C   0  0  0  0  0  0  0  0  0  0  0  0
   38.1870   33.4800   38.3210 C   0  0  0  0  0  0  0  0  0  0  0  0
   38.2670   33.1030   39.6650 C   0  0  0  0  0  0  0  0  0  0  0  0
   39.3870   33.4420   40.4300 C   0  0  0  0  0  0  0  0  0  0  0  0
   45.9346   35.5742   43.9925 H   0  0  0  0  0  0  0  0  0  0  0  0
   44.1890   35.2644   44.2370 H   0  0  0  0  0  0  0  0  0  0  0  0
   46.4208   33.9071   45.4751 H   0  0  0  0  0  0  0  0  0  0  0  0
   44.6975   33.5419   45.6851 H   0  0  0  0  0  0  0  0  0  0  0  0
   46.7334   32.2602   43.8969 H   0  0  0  0  0  0  0  0  0  0  0  0
   45.2948   31.5382   44.6160 H   0  0  0  0  0  0  0  0  0  0  0  0
   43.8641   32.4396   42.9435 H   0  0  0  0  0  0  0  0  0  0  0  0
   45.3200   32.1393   41.9910 H   0  0  0  0  0  0  0  0  0  0  0  0
   47.2996   35.6601   43.1753 H   0  0  0  0  0  0  0  0  0  0  0  0
   49.3221   35.9097   41.6714 H   0  0  0  0  0  0  0  0  0  0  0  0
   47.3580   33.4358   38.7754 H   0  0  0  0  0  0  0  0  0  0  0  0
   43.5586   36.7656   41.9313 H   0  0  0  0  0  0  0  0  0  0  0  0
   41.4506   36.7181   40.6536 H   0  0  0  0  0  0  0  0  0  0  0  0
   41.1538   35.1090   38.0103 H   0  0  0  0  0  0  0  0  0  0  0  0
   39.1167   34.4803   36.6505 H   0  0  0  0  0  0  0  0  0  0  0  0
   37.2968   33.2019   37.7377 H   0  0  0  0  0  0  0  0  0  0  0  0
   37.4434   32.5360   40.1234 H   0  0  0  0  0  0  0  0  0  0  0  0
   39.4858   33.1627   41.4893 H   0  0  0  0  0  0  0  0  0  0  0  0
  1  5  1  0
  1  2  1  0
  2  3  1  0
  4  3  1  0
  5  4  1  0
  6  7  2  0
  6  1  1  0
  8  7  1  0
  9  8  2  0
 10  9  1  0
 10 11  2  0
 11  6  1  0
 12  1  1  0
 13 12  2  0
 14 13  1  0
 15 14  2  0
 15 16  1  0
 16 12  1  0
 17 22  1  0
 17 15  1  0
 18 17  2  0
 19 20  2  0
 19 18  1  0
 20 21  1  0
 21 22  2  0
  2 23  1  0
  2 24  1  0
  3 25  1  0
  3 26  1  0
  4 27  1  0
  4 28  1  0
  5 29  1  0
  5 30  1  0
  7 31  1  0
  8 32  1  0
 10 33  1  0
 13 34  1  0
 14 35  1  0
 18 36  1  0
 19 37  1  0
 20 38  1  0
 21 39  1  0
 22 40  1  0
M  ISO  8  23  13  24  13  25  13  26  13  27  13  28  13  29  13  30  13
M  ISO  8  31  14  32  14  33  14  34  14  35  14  36  14  37  14  38  14
M  ISO  2  39  14  40  14
M  END
>  <minimizedAffinity>  (1) 
-6.29877996

>  <minimizedRMSD>  (1) 
1.07379782

$$$$
