
     RDKit          3D

 43 46  0  0  0  0  0  0  0  0999 V2000
   45.0350   34.3550   42.5980 C   0  0  0  0  0  0  0  0  0  0  0  0
   45.0320   35.0340   43.8940 C   0  0  0  0  0  0  0  0  0  0  0  0
   45.4100   34.0280   44.9700 C   0  0  0  0  0  0  0  0  0  0  0  0
   45.6440   32.7070   44.2640 C   0  0  0  0  0  0  0  0  0  0  0  0
   44.9200   32.8460   42.9700 C   0  0  0  0  0  0  0  0  0  0  0  0
   46.2260   34.4600   41.7500 C   0  0  0  0  0  0  0  0  0  0  0  0
   47.3120   35.2170   42.1950 C   0  0  0  0  0  0  0  0  0  0  0  0
   48.4490   35.3250   41.3850 C   0  0  0  0  0  0  0  0  0  0  0  0
   48.4260   34.6700   40.1860 N   0  0  0  0  0  0  0  0  0  0  0  0
   47.3550   33.9460   39.7910 C   0  0  0  0  0  0  0  0  0  0  0  0
   46.2630   33.8400   40.5620 N   0  0  0  0  0  0  0  0  0  0  0  0
   43.8050   34.6700   41.8170 C   0  0  0  0  0  0  0  0  0  0  0  0
   43.1080   35.7250   41.3570 C   0  0  0  0  0  0  0  0  0  0  0  0
   41.9710   35.5910   40.6420 C   0  0  0  0  0  0  0  0  0  0  0  0
   41.5340   34.2870   40.3930 C   0  0  0  0  0  0  0  0  0  0  0  0
   42.7970   33.2560   41.2090 S   0  0  0  0  0  0  0  0  0  0  0  0
   40.4440   33.6150   39.7200 C   0  0  0  0  0  0  0  0  0  0  0  0
   40.1370   34.4080   38.4560 C   0  0  0  0  0  0  0  0  0  0  0  0
   38.7670   33.8700   38.0970 C   0  0  0  0  0  0  0  0  0  0  0  0
   38.1490   33.3530   39.3880 C   0  0  0  0  0  0  0  0  0  0  0  0
   39.1390   33.7710   40.4780 C   0  0  0  0  0  0  0  0  0  0  0  0
   45.7621   35.8567   43.8830 H   0  0  0  0  0  0  0  0  0  0  0  0
   44.0333   35.4466   44.0996 H   0  0  0  0  0  0  0  0  0  0  0  0
   46.3265   34.3503   45.4859 H   0  0  0  0  0  0  0  0  0  0  0  0
   44.6163   33.9387   45.7264 H   0  0  0  0  0  0  0  0  0  0  0  0
   46.7180   32.5416   44.0934 H   0  0  0  0  0  0  0  0  0  0  0  0
   45.2897   31.8481   44.8528 H   0  0  0  0  0  0  0  0  0  0  0  0
   43.8651   32.5563   43.0851 H   0  0  0  0  0  0  0  0  0  0  0  0
   45.3437   32.1966   42.1898 H   0  0  0  0  0  0  0  0  0  0  0  0
   47.2745   35.7228   43.1711 H   0  0  0  0  0  0  0  0  0  0  0  0
   49.3239   35.9124   41.7006 H   0  0  0  0  0  0  0  0  0  0  0  0
   47.3797   33.4337   38.8179 H   0  0  0  0  0  0  0  0  0  0  0  0
   43.4798   36.7376   41.5723 H   0  0  0  0  0  0  0  0  0  0  0  0
   41.4153   36.4657   40.2732 H   0  0  0  0  0  0  0  0  0  0  0  0
   40.7417   32.5641   39.5895 H   0  0  0  0  0  0  0  0  0  0  0  0
   40.1058   35.4892   38.6560 H   0  0  0  0  0  0  0  0  0  0  0  0
   40.8883   34.2978   37.6601 H   0  0  0  0  0  0  0  0  0  0  0  0
   38.1442   34.6713   37.6727 H   0  0  0  0  0  0  0  0  0  0  0  0
   38.8401   33.0705   37.3450 H   0  0  0  0  0  0  0  0  0  0  0  0
   37.1644   33.8124   39.5595 H   0  0  0  0  0  0  0  0  0  0  0  0
   37.9826   32.2659   39.3672 H   0  0  0  0  0  0  0  0  0  0  0  0
   39.0913   33.1034   41.3510 H   0  0  0  0  0  0  0  0  0  0  0  0
   38.9661   34.7706   40.9033 H   0  0  0  0  0  0  0  0  0  0  0  0
  1  5  1  0
  1  2  1  0
  2  3  1  0
  4  3  1  0
  5  4  1  0
  6  7  2  0
  6  1  1  0
  8  7  1  0
  9  8  2  0
 10  9  1  0
 10 11  2  0
 11  6  1  0
 12  1  1  0
 13 12  2  0
 14 13  1  0
 15 14  2  0
 15 16  1  0
 16 12  1  0
 17 15  1  0
 17 21  1  0
 18 17  1  0
 19 18  1  0
 19 20  1  0
 20 21  1  0
  2 22  1  0
  2 23  1  0
  3 24  1  0
  3 25  1  0
  4 26  1  0
  4 27  1  0
  5 28  1  0
  5 29  1  0
  7 30  1  0
  8 31  1  0
 10 32  1  0
 13 33  1  0
 14 34  1  0
 17 35  1  0
 18 36  1  0
 18 37  1  0
 19 38  1  0
 19 39  1  0
 20 40  1  0
 20 41  1  0
 21 42  1  0
 21 43  1  0
M  ISO  8  22  13  23  13  24  13  25  13  26  13  27  13  28  13  29  13
M  ISO  8  30  14  31  14  32  14  33  14  34  14  35  13  36  13  37  13
M  ISO  6  38  13  39  13  40  13  41  13  42  13  43  13
M  END
>  <minimizedAffinity>  (1) 
-6.06566954

>  <minimizedRMSD>  (1) 
1.23291743

$$$$
