
     RDKit          3D

 37 40  0  0  0  0  0  0  0  0999 V2000
   44.9140   34.5640   42.4530 C   0  0  0  0  0  0  0  0  0  0  0  0
   44.8190   35.4350   43.6210 C   0  0  0  0  0  0  0  0  0  0  0  0
   45.1460   34.6150   44.8640 C   0  0  0  0  0  0  0  0  0  0  0  0
   45.4530   33.2230   44.3900 C   0  0  0  0  0  0  0  0  0  0  0  0
   44.8170   33.1280   43.0440 C   0  0  0  0  0  0  0  0  0  0  0  0
   46.1540   34.5740   41.6690 C   0  0  0  0  0  0  0  0  0  0  0  0
   47.2530   35.3060   42.1400 C   0  0  0  0  0  0  0  0  0  0  0  0
   48.4300   35.3160   41.3850 C   0  0  0  0  0  0  0  0  0  0  0  0
   48.4380   34.6040   40.2180 N   0  0  0  0  0  0  0  0  0  0  0  0
   47.3510   33.9050   39.7930 C   0  0  0  0  0  0  0  0  0  0  0  0
   46.2170   33.8890   40.5110 N   0  0  0  0  0  0  0  0  0  0  0  0
   43.7220   34.7080   41.5640 C   0  0  0  0  0  0  0  0  0  0  0  0
   43.0850   35.6460   40.8320 C   0  0  0  0  0  0  0  0  0  0  0  0
   41.9730   35.3860   40.1180 C   0  0  0  0  0  0  0  0  0  0  0  0
   41.4990   34.0690   40.1740 C   0  0  0  0  0  0  0  0  0  0  0  0
   42.6840   33.2310   41.2670 S   0  0  0  0  0  0  0  0  0  0  0  0
   40.3510   33.5180   39.5240 C   0  0  0  0  0  0  0  0  0  0  0  0
   39.3010   34.2160   38.9760 C   0  0  0  0  0  0  0  0  0  0  0  0
   38.3060   33.4730   38.4020 C   0  0  0  0  0  0  0  0  0  0  0  0
   38.4440   32.0470   38.4210 C   0  0  0  0  0  0  0  0  0  0  0  0
   40.1080   31.9030   39.3280 S   0  0  0  0  0  0  0  0  0  0  0  0
   45.5352   36.2643   43.5246 H   0  0  0  0  0  0  0  0  0  0  0  0
   43.8034   35.8502   43.6999 H   0  0  0  0  0  0  0  0  0  0  0  0
   46.0183   35.0410   45.3813 H   0  0  0  0  0  0  0  0  0  0  0  0
   44.3053   34.6166   45.5734 H   0  0  0  0  0  0  0  0  0  0  0  0
   46.5398   33.0699   44.3164 H   0  0  0  0  0  0  0  0  0  0  0  0
   45.0746   32.4565   45.0823 H   0  0  0  0  0  0  0  0  0  0  0  0
   43.7658   32.8167   43.1338 H   0  0  0  0  0  0  0  0  0  0  0  0
   45.3117   32.3826   42.4040 H   0  0  0  0  0  0  0  0  0  0  0  0
   47.1905   35.8626   43.0867 H   0  0  0  0  0  0  0  0  0  0  0  0
   49.3164   35.8759   41.7177 H   0  0  0  0  0  0  0  0  0  0  0  0
   47.4021   33.3450   38.8476 H   0  0  0  0  0  0  0  0  0  0  0  0
   43.4919   36.6679   40.8179 H   0  0  0  0  0  0  0  0  0  0  0  0
   41.4667   36.1623   39.5256 H   0  0  0  0  0  0  0  0  0  0  0  0
   39.2629   35.3151   38.9979 H   0  0  0  0  0  0  0  0  0  0  0  0
   37.4302   33.9538   37.9418 H   0  0  0  0  0  0  0  0  0  0  0  0
   37.7803   31.2638   38.0258 H   0  0  0  0  0  0  0  0  0  0  0  0
  1  5  1  0
  1  2  1  0
  2  3  1  0
  4  3  1  0
  5  4  1  0
  6  7  2  0
  6  1  1  0
  8  7  1  0
  9  8  2  0
 10  9  1  0
 10 11  2  0
 11  6  1  0
 12  1  1  0
 13 12  2  0
 14 15  2  0
 14 13  1  0
 15 16  1  0
 16 12  1  0
 17 15  1  0
 18 17  2  0
 19 20  2  0
 19 18  1  0
 20 21  1  0
 21 17  1  0
  2 22  1  0
  2 23  1  0
  3 24  1  0
  3 25  1  0
  4 26  1  0
  4 27  1  0
  5 28  1  0
  5 29  1  0
  7 30  1  0
  8 31  1  0
 10 32  1  0
 13 33  1  0
 14 34  1  0
 18 35  1  0
 19 36  1  0
 20 37  1  0
M  ISO  8  22  13  23  13  24  13  25  13  26  13  27  13  28  13  29  13
M  ISO  8  30  14  31  14  32  14  33  14  34  14  35  14  36  14  37  14
M  END
>  <minimizedAffinity>  (1) 
-5.75311375

>  <minimizedRMSD>  (1) 
0.349305391

$$$$
