
     RDKit          3D

 37 40  0  0  0  0  0  0  0  0999 V2000
   44.9600   34.3270   42.5240 C   0  0  0  0  0  0  0  0  0  0  0  0
   45.0270   35.0470   43.7920 C   0  0  0  0  0  0  0  0  0  0  0  0
   45.4260   34.0520   44.8880 C   0  0  0  0  0  0  0  0  0  0  0  0
   45.6140   32.7220   44.2160 C   0  0  0  0  0  0  0  0  0  0  0  0
   44.8640   32.8290   42.9410 C   0  0  0  0  0  0  0  0  0  0  0  0
   46.1310   34.3940   41.6240 C   0  0  0  0  0  0  0  0  0  0  0  0
   47.2450   35.1490   42.0270 C   0  0  0  0  0  0  0  0  0  0  0  0
   48.3520   35.2040   41.1560 C   0  0  0  0  0  0  0  0  0  0  0  0
   48.2760   34.5220   39.9740 N   0  0  0  0  0  0  0  0  0  0  0  0
   47.1660   33.8010   39.6300 C   0  0  0  0  0  0  0  0  0  0  0  0
   46.1180   33.7490   40.4550 N   0  0  0  0  0  0  0  0  0  0  0  0
   43.7160   34.6270   41.7810 C   0  0  0  0  0  0  0  0  0  0  0  0
   43.0350   35.6790   41.2840 C   0  0  0  0  0  0  0  0  0  0  0  0
   41.8600   35.5380   40.6230 C   0  0  0  0  0  0  0  0  0  0  0  0
   41.3740   34.2350   40.4750 C   0  0  0  0  0  0  0  0  0  0  0  0
   42.6330   33.2090   41.3030 S   0  0  0  0  0  0  0  0  0  0  0  0
   40.2240   33.7340   39.8660 C   0  0  0  0  0  0  0  0  0  0  0  0
   39.2190   34.4290   39.2310 C   0  0  0  0  0  0  0  0  0  0  0  0
   38.3080   33.4560   38.8000 C   0  0  0  0  0  0  0  0  0  0  0  0
   38.8350   32.2260   39.2110 C   0  0  0  0  0  0  0  0  0  0  0  0
   39.9660   32.4510   39.8350 O   0  0  0  0  0  0  0  0  0  0  0  0
   45.7774   35.8485   43.7258 H   0  0  0  0  0  0  0  0  0  0  0  0
   44.0508   35.4973   44.0250 H   0  0  0  0  0  0  0  0  0  0  0  0
   46.3638   34.3709   45.3664 H   0  0  0  0  0  0  0  0  0  0  0  0
   44.6546   33.9946   45.6701 H   0  0  0  0  0  0  0  0  0  0  0  0
   46.6804   32.5332   44.0230 H   0  0  0  0  0  0  0  0  0  0  0  0
   45.2553   31.8892   44.8387 H   0  0  0  0  0  0  0  0  0  0  0  0
   43.8135   32.5377   43.0877 H   0  0  0  0  0  0  0  0  0  0  0  0
   45.2770   32.1638   42.1684 H   0  0  0  0  0  0  0  0  0  0  0  0
   47.2532   35.6798   42.9904 H   0  0  0  0  0  0  0  0  0  0  0  0
   49.2515   35.7795   41.4201 H   0  0  0  0  0  0  0  0  0  0  0  0
   47.1368   33.2627   38.6712 H   0  0  0  0  0  0  0  0  0  0  0  0
   43.4482   36.6893   41.4199 H   0  0  0  0  0  0  0  0  0  0  0  0
   41.3155   36.4059   40.2226 H   0  0  0  0  0  0  0  0  0  0  0  0
   39.1468   35.5178   39.0917 H   0  0  0  0  0  0  0  0  0  0  0  0
   37.3699   33.6242   38.2507 H   0  0  0  0  0  0  0  0  0  0  0  0
   38.3786   31.2399   39.0398 H   0  0  0  0  0  0  0  0  0  0  0  0
  1  5  1  0
  1  2  1  0
  2  3  1  0
  4  3  1  0
  5  4  1  0
  6  7  2  0
  6  1  1  0
  8  7  1  0
  9  8  2  0
 10  9  1  0
 10 11  2  0
 11  6  1  0
 12  1  1  0
 13 12  2  0
 14 13  1  0
 15 14  2  0
 15 16  1  0
 16 12  1  0
 17 15  1  0
 18 17  2  0
 19 20  2  0
 19 18  1  0
 20 21  1  0
 21 17  1  0
  2 22  1  0
  2 23  1  0
  3 24  1  0
  3 25  1  0
  4 26  1  0
  4 27  1  0
  5 28  1  0
  5 29  1  0
  7 30  1  0
  8 31  1  0
 10 32  1  0
 13 33  1  0
 14 34  1  0
 18 35  1  0
 19 36  1  0
 20 37  1  0
M  ISO  8  22  13  23  13  24  13  25  13  26  13  27  13  28  13  29  13
M  ISO  8  30  14  31  14  32  14  33  14  34  14  35  14  36  14  37  14
M  END
>  <minimizedAffinity>  (1) 
-5.69637871

>  <minimizedRMSD>  (1) 
0.695009351

$$$$
