
     RDKit          3D

 43 46  0  0  1  0  0  0  0  0999 V2000
   47.1050   34.2130   43.4700 C   0  0  0  0  0  0  0  0  0  0  0  0
   46.0270   34.6170   42.6760 C   0  0  0  0  0  0  0  0  0  0  0  0
   44.9120   33.8080   42.5230 C   0  0  0  0  0  0  0  0  0  0  0  0
   44.9660   32.6330   43.1900 N   0  0  0  0  0  0  0  0  0  0  0  0
   45.9760   32.2210   43.9520 C   0  0  0  0  0  0  0  0  0  0  0  0
   47.0330   33.0130   44.0850 N   0  0  0  0  0  0  0  0  0  0  0  0
   45.8670   30.9670   44.5760 N   0  0  0  0  0  0  0  0  0  0  0  0
   44.9160   29.9450   44.2400 C   0  0  0  0  0  0  0  0  0  0  0  0
   45.7080   28.7660   43.6640 C   0  0  0  0  0  0  0  0  0  0  0  0
   46.9110   28.6100   44.3490 O   0  0  0  0  0  0  0  0  0  0  0  0
   46.8170   29.0580   45.6640 C   0  0  0  0  0  0  0  0  0  0  0  0
   46.7360   30.5730   45.6580 C   0  0  2  0  0  0  0  0  0  0  0  0
   43.7320   34.1760   41.6930 C   0  0  0  0  0  0  0  0  0  0  0  0
   43.7930   35.1370   40.7640 C   0  0  0  0  0  0  0  0  0  0  0  0
   42.1120   35.1730   40.0670 S   0  0  0  0  0  0  0  0  0  0  0  0
   41.5800   33.7740   41.2450 C   0  0  0  0  0  0  0  0  0  0  0  0
   42.5780   33.6090   41.8020 N   0  0  0  0  0  0  0  0  0  0  0  0
   40.2110   33.3320   41.1450 N   0  0  0  0  0  0  0  0  0  0  0  0
   39.4730   33.3890   39.9520 C   0  0  0  0  0  0  0  0  0  0  0  0
   40.1620   33.3910   38.8350 N   0  0  0  0  0  0  0  0  0  0  0  0
   38.0470   33.4380   40.1060 N   0  0  0  0  0  0  0  0  0  0  0  0
   39.5980   33.4020   37.9540 H   0  0  0  0  0  0  0  0  0  0  0  0
   46.1980   31.1250   46.9290 C   0  0  0  0  0  0  0  0  0  0  0  0
   46.6660   32.2110   47.6690 C   0  0  0  0  0  0  0  0  0  0  0  0
   45.8390   32.3510   48.7890 C   0  0  0  0  0  0  0  0  0  0  0  0
   44.9170   31.3310   48.6480 C   0  0  0  0  0  0  0  0  0  0  0  0
   45.1550   30.6410   47.5590 O   0  0  0  0  0  0  0  0  0  0  0  0
   47.9891   34.8564   43.5905 H   0  0  0  0  0  0  0  0  0  0  0  0
   46.0645   35.5907   42.1656 H   0  0  0  0  0  0  0  0  0  0  0  0
   44.3684   29.6283   45.1399 H   0  0  0  0  0  0  0  0  0  0  0  0
   44.1815   30.3175   43.5108 H   0  0  0  0  0  0  0  0  0  0  0  0
   45.1126   27.8463   43.7625 H   0  0  0  0  0  0  0  0  0  0  0  0
   45.9235   28.9641   42.6037 H   0  0  0  0  0  0  0  0  0  0  0  0
   45.9137   28.6410   46.1333 H   0  0  0  0  0  0  0  0  0  0  0  0
   47.6994   28.7325   46.2345 H   0  0  0  0  0  0  0  0  0  0  0  0
   47.7549   30.9691   45.5361 H   0  0  0  0  0  0  0  0  0  0  0  0
   44.6565   35.7593   40.4866 H   0  0  0  0  0  0  0  0  0  0  0  0
   39.7533   32.9570   41.9881 H   0  0  0  0  0  0  0  0  0  0  0  0
   37.4404   33.4811   39.2747 H   0  0  0  0  0  0  0  0  0  0  0  0
   37.6301   33.4300   41.0478 H   0  0  0  0  0  0  0  0  0  0  0  0
   47.5299   32.8436   47.4173 H   0  0  0  0  0  0  0  0  0  0  0  0
   45.9068   33.0981   49.5935 H   0  0  0  0  0  0  0  0  0  0  0  0
   44.0970   31.1265   49.3521 H   0  0  0  0  0  0  0  0  0  0  0  0
  1  6  2  0
  2  1  1  0
  3  2  2  0
  3  4  1  0
  4  5  2  0
  5  6  1  0
  5  7  1  0
  7 12  1  0
  8  7  1  0
  9  8  1  0
  9 10  1  0
 10 11  1  0
 12 11  1  0
 12 23  1  0
 13 17  1  0
 13  3  1  0
 14 13  2  0
 15 14  1  0
 15 16  1  0
 16 17  2  0
 18 16  1  0
 19 21  1  0
 19 18  1  0
 20 19  2  0
 22 20  1  0
 23 27  1  0
 23 24  2  0
 24 25  1  0
 26 25  2  0
 27 26  1  0
  1 28  1  0
  2 29  1  0
  8 30  1  0
  8 31  1  0
  9 32  1  0
  9 33  1  0
 11 34  1  0
 11 35  1  0
 12 36  1  6
 14 37  1  0
 18 38  1  0
 21 39  1  0
 21 40  1  0
 24 41  1  0
 25 42  1  0
 26 43  1  0
M  ISO  8  28  14  29  14  30  13  31  13  32  13  33  13  34  13  35  13
M  ISO  5  36  13  37  14  41  14  42  14  43  14
M  END
>  <minimizedAffinity>  (1) 
-5.90914679

>  <minimizedRMSD>  (1) 
3.30821157

$$$$
