
     RDKit          3D

 44 47  0  0  0  0  0  0  0  0999 V2000
   45.0230   34.3580   42.6510 C   0  0  0  0  0  0  0  0  0  0  0  0
   45.0130   35.0990   43.9250 C   0  0  0  0  0  0  0  0  0  0  0  0
   45.4320   34.1710   45.0450 C   0  0  0  0  0  0  0  0  0  0  0  0
   45.7210   32.8290   44.3990 C   0  0  0  0  0  0  0  0  0  0  0  0
   44.9780   32.8780   43.1040 C   0  0  0  0  0  0  0  0  0  0  0  0
   46.2040   34.4740   41.7930 C   0  0  0  0  0  0  0  0  0  0  0  0
   47.2890   35.2360   42.2200 C   0  0  0  0  0  0  0  0  0  0  0  0
   48.4150   35.3500   41.3950 C   0  0  0  0  0  0  0  0  0  0  0  0
   48.3760   34.6880   40.1930 N   0  0  0  0  0  0  0  0  0  0  0  0
   47.2980   33.9570   39.8180 C   0  0  0  0  0  0  0  0  0  0  0  0
   46.2120   33.8450   40.6100 N   0  0  0  0  0  0  0  0  0  0  0  0
   43.7810   34.6000   41.8780 C   0  0  0  0  0  0  0  0  0  0  0  0
   43.0850   35.6000   41.3010 C   0  0  0  0  0  0  0  0  0  0  0  0
   41.9110   35.4060   40.6600 C   0  0  0  0  0  0  0  0  0  0  0  0
   41.4330   34.0910   40.6170 C   0  0  0  0  0  0  0  0  0  0  0  0
   42.7150   33.1270   41.5220 S   0  0  0  0  0  0  0  0  0  0  0  0
   40.2630   33.5480   40.0670 N   0  0  0  0  0  0  0  0  0  0  0  0
   39.5190   32.9100   41.1660 C   0  0  0  0  0  0  0  0  0  0  0  0
   38.3210   32.1540   40.7070 C   0  0  0  0  0  0  0  0  0  0  0  0
   38.4440   31.6330   39.3620 N   0  0  0  0  0  0  0  0  0  0  0  0
   38.5990   32.7430   38.4540 C   0  0  0  0  0  0  0  0  0  0  0  0
   39.8050   33.5800   38.6940 C   0  0  0  0  0  0  0  0  0  0  0  0
   45.7155   35.9433   43.8648 H   0  0  0  0  0  0  0  0  0  0  0  0
   44.0005   35.4814   44.1217 H   0  0  0  0  0  0  0  0  0  0  0  0
   46.3342   34.5568   45.5421 H   0  0  0  0  0  0  0  0  0  0  0  0
   44.6458   34.0861   45.8097 H   0  0  0  0  0  0  0  0  0  0  0  0
   46.8000   32.7040   44.2252 H   0  0  0  0  0  0  0  0  0  0  0  0
   45.4124   31.9825   45.0300 H   0  0  0  0  0  0  0  0  0  0  0  0
   43.9371   32.5520   43.2464 H   0  0  0  0  0  0  0  0  0  0  0  0
   45.4256   32.2099   42.3535 H   0  0  0  0  0  0  0  0  0  0  0  0
   47.2617   35.7433   43.1957 H   0  0  0  0  0  0  0  0  0  0  0  0
   49.2910   35.9431   41.6965 H   0  0  0  0  0  0  0  0  0  0  0  0
   47.3091   33.4433   38.8454 H   0  0  0  0  0  0  0  0  0  0  0  0
   43.4913   36.6208   41.3543 H   0  0  0  0  0  0  0  0  0  0  0  0
   41.3601   36.2377   40.1965 H   0  0  0  0  0  0  0  0  0  0  0  0
   40.1933   32.2133   41.6855 H   0  0  0  0  0  0  0  0  0  0  0  0
   39.1628   33.7137   41.8272 H   0  0  0  0  0  0  0  0  0  0  0  0
   38.1587   31.3098   41.3933 H   0  0  0  0  0  0  0  0  0  0  0  0
   37.4767   32.8591   40.7035 H   0  0  0  0  0  0  0  0  0  0  0  0
   39.2675   31.0172   39.3018 H   0  0  0  0  0  0  0  0  0  0  0  0
   37.7117   33.3867   38.5455 H   0  0  0  0  0  0  0  0  0  0  0  0
   38.7176   32.3086   37.4504 H   0  0  0  0  0  0  0  0  0  0  0  0
   40.6167   33.2157   38.0471 H   0  0  0  0  0  0  0  0  0  0  0  0
   39.5285   34.6204   38.4680 H   0  0  0  0  0  0  0  0  0  0  0  0
  1  5  1  0
  1  2  1  0
  2  3  1  0
  4  3  1  0
  5  4  1  0
  6  7  2  0
  6  1  1  0
  8  7  1  0
  9  8  2  0
 10  9  1  0
 10 11  2  0
 11  6  1  0
 12  1  1  0
 13 12  2  0
 14 13  1  0
 15 14  2  0
 15 16  1  0
 16 12  1  0
 17 15  1  0
 17 18  1  0
 19 18  1  0
 20 19  1  0
 21 22  1  0
 21 20  1  0
 22 17  1  0
  2 23  1  0
  2 24  1  0
  3 25  1  0
  3 26  1  0
  4 27  1  0
  4 28  1  0
  5 29  1  0
  5 30  1  0
  7 31  1  0
  8 32  1  0
 10 33  1  0
 13 34  1  0
 14 35  1  0
 18 36  1  0
 18 37  1  0
 19 38  1  0
 19 39  1  0
 20 40  1  0
 21 41  1  0
 21 42  1  0
 22 43  1  0
 22 44  1  0
M  ISO  8  23  13  24  13  25  13  26  13  27  13  28  13  29  13  30  13
M  ISO  8  31  14  32  14  33  14  34  14  35  14  36  13  37  13  38  13
M  ISO  6  39  13  40   5  41  13  42  13  43  13  44  13
M  END
>  <minimizedAffinity>  (1) 
-5.69121838

>  <minimizedRMSD>  (1) 
0.592442513

$$$$
