
     RDKit          3D

 43 46  0  0  0  0  0  0  0  0999 V2000
   45.2220   34.3210   42.7280 C   0  0  0  0  0  0  0  0  0  0  0  0
   45.1820   34.9400   44.0590 C   0  0  0  0  0  0  0  0  0  0  0  0
   45.6070   33.9120   45.0950 C   0  0  0  0  0  0  0  0  0  0  0  0
   45.9190   32.6370   44.3370 C   0  0  0  0  0  0  0  0  0  0  0  0
   45.2010   32.7970   43.0460 C   0  0  0  0  0  0  0  0  0  0  0  0
   46.4150   34.5310   41.9020 C   0  0  0  0  0  0  0  0  0  0  0  0
   47.4560   35.3290   42.3900 C   0  0  0  0  0  0  0  0  0  0  0  0
   48.5890   35.5220   41.5900 C   0  0  0  0  0  0  0  0  0  0  0  0
   48.6120   34.9140   40.3680 N   0  0  0  0  0  0  0  0  0  0  0  0
   47.5750   34.1440   39.9310 C   0  0  0  0  0  0  0  0  0  0  0  0
   46.4920   33.9570   40.6890 N   0  0  0  0  0  0  0  0  0  0  0  0
   43.9880   34.5960   41.9580 C   0  0  0  0  0  0  0  0  0  0  0  0
   43.2750   35.6290   41.4710 C   0  0  0  0  0  0  0  0  0  0  0  0
   42.1260   35.4750   40.7750 C   0  0  0  0  0  0  0  0  0  0  0  0
   41.7000   34.1600   40.5770 C   0  0  0  0  0  0  0  0  0  0  0  0
   42.9760   33.1570   41.4080 S   0  0  0  0  0  0  0  0  0  0  0  0
   40.6080   33.6700   39.9320 N   0  0  0  0  0  0  0  0  0  0  0  0
   40.7600   33.5090   38.5000 C   0  0  0  0  0  0  0  0  0  0  0  0
   39.4660   32.9370   37.9690 C   0  0  0  0  0  0  0  0  0  0  0  0
   38.3540   33.5830   38.4320 O   0  0  0  0  0  0  0  0  0  0  0  0
   38.1660   33.5970   39.7870 C   0  0  0  0  0  0  0  0  0  0  0  0
   39.3780   33.3310   40.6210 C   0  0  0  0  0  0  0  0  0  0  0  0
   45.8693   35.7984   44.0875 H   0  0  0  0  0  0  0  0  0  0  0  0
   44.1614   35.2878   44.2770 H   0  0  0  0  0  0  0  0  0  0  0  0
   46.5004   34.2621   45.6328 H   0  0  0  0  0  0  0  0  0  0  0  0
   44.8138   33.7472   45.8391 H   0  0  0  0  0  0  0  0  0  0  0  0
   47.0018   32.5363   44.1716 H   0  0  0  0  0  0  0  0  0  0  0  0
   45.6081   31.7345   44.8836 H   0  0  0  0  0  0  0  0  0  0  0  0
   44.1646   32.4403   43.1385 H   0  0  0  0  0  0  0  0  0  0  0  0
   45.6774   32.2122   42.2453 H   0  0  0  0  0  0  0  0  0  0  0  0
   47.3855   35.7959   43.3835 H   0  0  0  0  0  0  0  0  0  0  0  0
   49.4304   36.1414   41.9340 H   0  0  0  0  0  0  0  0  0  0  0  0
   47.6315   33.6702   38.9399 H   0  0  0  0  0  0  0  0  0  0  0  0
   43.6457   36.6494   41.6482 H   0  0  0  0  0  0  0  0  0  0  0  0
   41.5601   36.3350   40.3875 H   0  0  0  0  0  0  0  0  0  0  0  0
   40.9604   34.4838   38.0313 H   0  0  0  0  0  0  0  0  0  0  0  0
   41.6027   32.8397   38.2720 H   0  0  0  0  0  0  0  0  0  0  0  0
   39.4042   31.8800   38.2673 H   0  0  0  0  0  0  0  0  0  0  0  0
   39.4813   33.0618   36.8762 H   0  0  0  0  0  0  0  0  0  0  0  0
   37.7793   34.5892   40.0626 H   0  0  0  0  0  0  0  0  0  0  0  0
   37.4738   32.7686   39.9983 H   0  0  0  0  0  0  0  0  0  0  0  0
   39.4011   32.2622   40.8799 H   0  0  0  0  0  0  0  0  0  0  0  0
   39.3120   33.9619   41.5197 H   0  0  0  0  0  0  0  0  0  0  0  0
  1  5  1  0
  1  2  1  0
  2  3  1  0
  4  3  1  0
  5  4  1  0
  6  7  2  0
  6  1  1  0
  8  7  1  0
  9  8  2  0
 10  9  1  0
 10 11  2  0
 11  6  1  0
 12  1  1  0
 13 12  2  0
 14 13  1  0
 15 14  2  0
 15 16  1  0
 16 12  1  0
 17 15  1  0
 17 22  1  0
 18 17  1  0
 19 20  1  0
 19 18  1  0
 20 21  1  0
 21 22  1  0
  2 23  1  0
  2 24  1  0
  3 25  1  0
  3 26  1  0
  4 27  1  0
  4 28  1  0
  5 29  1  0
  5 30  1  0
  7 31  1  0
  8 32  1  0
 10 33  1  0
 13 34  1  0
 14 35  1  0
 18 36  1  0
 18 37  1  0
 19 38  1  0
 19 39  1  0
 21 40  1  0
 21 41  1  0
 22 42  1  0
 22 43  1  0
M  ISO  8  23  13  24  13  25  13  26  13  27  13  28  13  29  13  30  13
M  ISO  8  31  14  32  14  33  14  34  14  35  14  36  13  37  13  38  13
M  ISO  5  39  13  40  13  41  13  42  13  43  13
M  END
>  <minimizedAffinity>  (1) 
-5.62946749

>  <minimizedRMSD>  (1) 
0.70954591

$$$$
