
     RDKit          3D

 36 39  0  0  0  0  0  0  0  0999 V2000
   44.8900   34.5260   42.3750 C   0  0  0  0  0  0  0  0  0  0  0  0
   44.8530   35.4290   43.5370 C   0  0  0  0  0  0  0  0  0  0  0  0
   45.1780   34.6250   44.7930 C   0  0  0  0  0  0  0  0  0  0  0  0
   45.4650   33.2260   44.3390 C   0  0  0  0  0  0  0  0  0  0  0  0
   44.7940   33.1100   43.0080 C   0  0  0  0  0  0  0  0  0  0  0  0
   46.1220   34.5160   41.5750 C   0  0  0  0  0  0  0  0  0  0  0  0
   47.2340   35.2470   42.0130 C   0  0  0  0  0  0  0  0  0  0  0  0
   48.3980   35.2160   41.2230 C   0  0  0  0  0  0  0  0  0  0  0  0
   48.3830   34.4850   40.0860 N   0  0  0  0  0  0  0  0  0  0  0  0
   47.2870   33.7900   39.6910 C   0  0  0  0  0  0  0  0  0  0  0  0
   46.1670   33.8070   40.4340 N   0  0  0  0  0  0  0  0  0  0  0  0
   43.6970   34.6760   41.5100 C   0  0  0  0  0  0  0  0  0  0  0  0
   43.0720   35.6050   40.7590 C   0  0  0  0  0  0  0  0  0  0  0  0
   41.9340   35.3420   40.0770 C   0  0  0  0  0  0  0  0  0  0  0  0
   41.4320   34.0450   40.1920 C   0  0  0  0  0  0  0  0  0  0  0  0
   42.6270   33.2120   41.2960 S   0  0  0  0  0  0  0  0  0  0  0  0
   40.2820   33.4150   39.6300 C   0  0  0  0  0  0  0  0  0  0  0  0
   39.9730   33.7090   38.2450 C   0  0  0  0  0  0  0  0  0  0  0  0
   38.4650   32.6980   38.0070 S   0  0  0  0  0  0  0  0  0  0  0  0
   38.5090   32.0610   39.7950 C   0  0  0  0  0  0  0  0  0  0  0  0
   39.4650   32.5800   40.2720 N   0  0  0  0  0  0  0  0  0  0  0  0
   45.5963   36.2294   43.4074 H   0  0  0  0  0  0  0  0  0  0  0  0
   43.8539   35.8800   43.6291 H   0  0  0  0  0  0  0  0  0  0  0  0
   46.0583   35.0488   45.2985 H   0  0  0  0  0  0  0  0  0  0  0  0
   44.3423   34.6481   45.5079 H   0  0  0  0  0  0  0  0  0  0  0  0
   46.5488   33.0651   44.2417 H   0  0  0  0  0  0  0  0  0  0  0  0
   45.0998   32.4746   45.0545 H   0  0  0  0  0  0  0  0  0  0  0  0
   43.7419   32.8138   43.1315 H   0  0  0  0  0  0  0  0  0  0  0  0
   45.2680   32.3452   42.3753 H   0  0  0  0  0  0  0  0  0  0  0  0
   47.1982   35.8278   42.9465 H   0  0  0  0  0  0  0  0  0  0  0  0
   49.2979   35.7728   41.5232 H   0  0  0  0  0  0  0  0  0  0  0  0
   47.3150   33.2092   38.7573 H   0  0  0  0  0  0  0  0  0  0  0  0
   43.5038   36.6149   40.6987 H   0  0  0  0  0  0  0  0  0  0  0  0
   41.4325   36.1072   39.4662 H   0  0  0  0  0  0  0  0  0  0  0  0
   40.4998   34.3606   37.5323 H   0  0  0  0  0  0  0  0  0  0  0  0
   37.8068   31.3671   40.2802 H   0  0  0  0  0  0  0  0  0  0  0  0
  1  5  1  0
  1  2  1  0
  2  3  1  0
  4  3  1  0
  5  4  1  0
  6  7  2  0
  6  1  1  0
  8  7  1  0
  9  8  2  0
 10  9  1  0
 10 11  2  0
 11  6  1  0
 12  1  1  0
 13 12  2  0
 14 15  2  0
 14 13  1  0
 15 16  1  0
 16 12  1  0
 17 15  1  0
 17 21  1  0
 18 17  2  0
 19 18  1  0
 19 20  1  0
 20 21  2  0
  2 22  1  0
  2 23  1  0
  3 24  1  0
  3 25  1  0
  4 26  1  0
  4 27  1  0
  5 28  1  0
  5 29  1  0
  7 30  1  0
  8 31  1  0
 10 32  1  0
 13 33  1  0
 14 34  1  0
 18 35  1  0
 20 36  1  0
M  ISO  8  22  13  23  13  24  13  25  13  26  13  27  13  28  13  29  13
M  ISO  7  30  14  31  14  32  14  33  14  34  14  35  14  36  14
M  END
>  <minimizedAffinity>  (1) 
-5.4425149

>  <minimizedRMSD>  (1) 
0.388873577

$$$$
