
     RDKit          3D

 37 40  0  0  0  0  0  0  0  0999 V2000
   45.0350   34.3660   42.6280 C   0  0  0  0  0  0  0  0  0  0  0  0
   45.0500   35.0840   43.9120 C   0  0  0  0  0  0  0  0  0  0  0  0
   45.4450   34.1120   45.0100 C   0  0  0  0  0  0  0  0  0  0  0  0
   45.6900   32.7770   44.3390 C   0  0  0  0  0  0  0  0  0  0  0  0
   44.9670   32.8670   43.0460 C   0  0  0  0  0  0  0  0  0  0  0  0
   46.2170   34.4700   41.7630 C   0  0  0  0  0  0  0  0  0  0  0  0
   47.3140   35.2270   42.1930 C   0  0  0  0  0  0  0  0  0  0  0  0
   48.4390   35.3220   41.3630 C   0  0  0  0  0  0  0  0  0  0  0  0
   48.3960   34.6620   40.1720 N   0  0  0  0  0  0  0  0  0  0  0  0
   47.3100   33.9340   39.7860 C   0  0  0  0  0  0  0  0  0  0  0  0
   46.2350   33.8430   40.5800 N   0  0  0  0  0  0  0  0  0  0  0  0
   43.7980   34.6410   41.8650 C   0  0  0  0  0  0  0  0  0  0  0  0
   43.1160   35.6710   41.3220 C   0  0  0  0  0  0  0  0  0  0  0  0
   41.9450   35.5180   40.6570 C   0  0  0  0  0  0  0  0  0  0  0  0
   41.4730   34.2080   40.5620 C   0  0  0  0  0  0  0  0  0  0  0  0
   42.7210   33.2050   41.4330 S   0  0  0  0  0  0  0  0  0  0  0  0
   40.3180   33.6660   39.9590 C   0  0  0  0  0  0  0  0  0  0  0  0
   39.0760   33.5290   40.5170 C   0  0  0  0  0  0  0  0  0  0  0  0
   38.2490   32.9680   39.6170 N   0  0  0  0  0  0  0  0  0  0  0  0
   39.0070   32.7650   38.5060 C   0  0  0  0  0  0  0  0  0  0  0  0
   40.2770   33.1980   38.7270 N   0  0  0  0  0  0  0  0  0  0  0  0
   45.7782   35.9072   43.8671 H   0  0  0  0  0  0  0  0  0  0  0  0
   44.0529   35.4992   44.1204 H   0  0  0  0  0  0  0  0  0  0  0  0
   46.3606   34.4581   45.5119 H   0  0  0  0  0  0  0  0  0  0  0  0
   44.6563   34.0336   45.7727 H   0  0  0  0  0  0  0  0  0  0  0  0
   46.7656   32.6185   44.1718 H   0  0  0  0  0  0  0  0  0  0  0  0
   45.3422   31.9328   44.9525 H   0  0  0  0  0  0  0  0  0  0  0  0
   43.9208   32.5502   43.1688 H   0  0  0  0  0  0  0  0  0  0  0  0
   45.4152   32.2125   42.2840 H   0  0  0  0  0  0  0  0  0  0  0  0
   47.2928   35.7387   43.1665 H   0  0  0  0  0  0  0  0  0  0  0  0
   49.3219   35.9064   41.6613 H   0  0  0  0  0  0  0  0  0  0  0  0
   47.3165   33.4173   38.8149 H   0  0  0  0  0  0  0  0  0  0  0  0
   43.5308   36.6846   41.4241 H   0  0  0  0  0  0  0  0  0  0  0  0
   41.4025   36.3699   40.2210 H   0  0  0  0  0  0  0  0  0  0  0  0
   38.7985   33.8296   41.5381 H   0  0  0  0  0  0  0  0  0  0  0  0
   38.6463   32.3172   37.5682 H   0  0  0  0  0  0  0  0  0  0  0  0
   41.0595   33.1663   38.0580 H   0  0  0  0  0  0  0  0  0  0  0  0
  1  5  1  0
  1  2  1  0
  2  3  1  0
  4  3  1  0
  5  4  1  0
  6  7  2  0
  6  1  1  0
  8  7  1  0
  9  8  2  0
 10  9  1  0
 10 11  2  0
 11  6  1  0
 12  1  1  0
 13 12  2  0
 14 13  1  0
 15 14  2  0
 15 16  1  0
 16 12  1  0
 17 18  2  0
 17 15  1  0
 19 18  1  0
 20 21  1  0
 20 19  2  0
 21 17  1  0
  2 22  1  0
  2 23  1  0
  3 24  1  0
  3 25  1  0
  4 26  1  0
  4 27  1  0
  5 28  1  0
  5 29  1  0
  7 30  1  0
  8 31  1  0
 10 32  1  0
 13 33  1  0
 14 34  1  0
 18 35  1  0
 20 36  1  0
 21 37  1  0
M  ISO  8  22  13  23  13  24  13  25  13  26  13  27  13  28  13  29  13
M  ISO  8  30  14  31  14  32  14  33  14  34  14  35  14  36  14  37   9
M  END
>  <minimizedAffinity>  (1) 
-5.38555431

>  <minimizedRMSD>  (1) 
0.654615581

$$$$
