
     RDKit          3D

 33 35  0  0  0  0  0  0  0  0999 V2000
   44.9530   34.5520   42.5330 C   0  0  0  0  0  0  0  0  0  0  0  0
   44.8090   35.4380   43.6860 C   0  0  0  0  0  0  0  0  0  0  0  0
   45.1520   34.6570   44.9480 C   0  0  0  0  0  0  0  0  0  0  0  0
   45.5210   33.2590   44.4970 C   0  0  0  0  0  0  0  0  0  0  0  0
   44.9130   33.1240   43.1540 C   0  0  0  0  0  0  0  0  0  0  0  0
   46.2020   34.5980   41.7630 C   0  0  0  0  0  0  0  0  0  0  0  0
   47.2710   35.3460   42.2510 C   0  0  0  0  0  0  0  0  0  0  0  0
   48.4610   35.3960   41.5160 C   0  0  0  0  0  0  0  0  0  0  0  0
   48.5130   34.7050   40.3540 N   0  0  0  0  0  0  0  0  0  0  0  0
   47.4450   33.9820   39.9080 C   0  0  0  0  0  0  0  0  0  0  0  0
   46.3050   33.9310   40.6050 N   0  0  0  0  0  0  0  0  0  0  0  0
   43.7700   34.6270   41.6240 C   0  0  0  0  0  0  0  0  0  0  0  0
   43.1080   35.5300   40.8760 C   0  0  0  0  0  0  0  0  0  0  0  0
   42.0150   35.2100   40.1460 C   0  0  0  0  0  0  0  0  0  0  0  0
   41.6010   33.8780   40.2090 C   0  0  0  0  0  0  0  0  0  0  0  0
   42.8150   33.0910   41.3390 S   0  0  0  0  0  0  0  0  0  0  0  0
   40.4880   33.2040   39.5650 C   0  0  0  0  0  0  0  0  0  0  0  0
   45.4926   36.2936   43.5830 H   0  0  0  0  0  0  0  0  0  0  0  0
   43.7759   35.8110   43.7453 H   0  0  0  0  0  0  0  0  0  0  0  0
   46.0009   35.1260   45.4670 H   0  0  0  0  0  0  0  0  0  0  0  0
   44.3049   34.6397   45.6496 H   0  0  0  0  0  0  0  0  0  0  0  0
   46.6137   33.1453   44.4412 H   0  0  0  0  0  0  0  0  0  0  0  0
   45.1624   32.4884   45.1953 H   0  0  0  0  0  0  0  0  0  0  0  0
   43.8749   32.7695   43.2359 H   0  0  0  0  0  0  0  0  0  0  0  0
   45.4532   32.3940   42.5332 H   0  0  0  0  0  0  0  0  0  0  0  0
   47.1810   35.8907   43.2024 H   0  0  0  0  0  0  0  0  0  0  0  0
   49.3247   35.9774   41.8710 H   0  0  0  0  0  0  0  0  0  0  0  0
   47.5233   33.4317   38.9588 H   0  0  0  0  0  0  0  0  0  0  0  0
   43.4702   36.5685   40.8578 H   0  0  0  0  0  0  0  0  0  0  0  0
   41.4829   35.9563   39.5377 H   0  0  0  0  0  0  0  0  0  0  0  0
   39.8134   32.7955   40.3318 H   0  0  0  0  0  0  0  0  0  0  0  0
   39.9384   33.9212   38.9376 H   0  0  0  0  0  0  0  0  0  0  0  0
   40.8689   32.3847   38.9376 H   0  0  0  0  0  0  0  0  0  0  0  0
  1  5  1  0
  1  2  1  0
  2  3  1  0
  4  3  1  0
  5  4  1  0
  6  7  2  0
  6  1  1  0
  8  7  1  0
  9  8  2  0
 10  9  1  0
 10 11  2  0
 11  6  1  0
 12  1  1  0
 13 12  2  0
 14 15  2  0
 14 13  1  0
 15 16  1  0
 16 12  1  0
 17 15  1  0
  2 18  1  0
  2 19  1  0
  3 20  1  0
  3 21  1  0
  4 22  1  0
  4 23  1  0
  5 24  1  0
  5 25  1  0
  7 26  1  0
  8 27  1  0
 10 28  1  0
 13 29  1  0
 14 30  1  0
 17 31  1  0
 17 32  1  0
 17 33  1  0
M  ISO  8  18  13  19  13  20  13  21  13  22  13  23  13  24  13  25  13
M  ISO  8  26  14  27  14  28  14  29  14  30  14  31   8  32   8  33   8
M  END
>  <minimizedAffinity>  (1) 
-4.80825329

>  <minimizedRMSD>  (1) 
0.137280151

$$$$
