
     RDKit          3D

 31 33  0  0  0  0  0  0  0  0999 V2000
   44.9370   34.5440   42.5310 C   0  0  0  0  0  0  0  0  0  0  0  0
   44.8140   35.4390   43.6900 C   0  0  0  0  0  0  0  0  0  0  0  0
   45.1520   34.6580   44.9490 C   0  0  0  0  0  0  0  0  0  0  0  0
   45.5250   33.2600   44.5060 C   0  0  0  0  0  0  0  0  0  0  0  0
   44.9140   33.1190   43.1580 C   0  0  0  0  0  0  0  0  0  0  0  0
   46.2000   34.6030   41.7650 C   0  0  0  0  0  0  0  0  0  0  0  0
   47.2710   35.3550   42.2620 C   0  0  0  0  0  0  0  0  0  0  0  0
   48.4570   35.3910   41.5120 C   0  0  0  0  0  0  0  0  0  0  0  0
   48.5110   34.7000   40.3480 N   0  0  0  0  0  0  0  0  0  0  0  0
   47.4370   33.9780   39.9010 C   0  0  0  0  0  0  0  0  0  0  0  0
   46.3020   33.9340   40.6040 N   0  0  0  0  0  0  0  0  0  0  0  0
   43.7730   34.6250   41.6320 C   0  0  0  0  0  0  0  0  0  0  0  0
   43.1070   35.5200   40.8770 C   0  0  0  0  0  0  0  0  0  0  0  0
   42.0150   35.2020   40.1440 C   0  0  0  0  0  0  0  0  0  0  0  0
   41.6050   33.8650   40.2120 C   0  0  0  0  0  0  0  0  0  0  0  0
   42.8100   33.0830   41.3420 S   0  0  0  0  0  0  0  0  0  0  0  0
   40.5730   33.2600   39.6050 O   0  0  0  0  0  0  0  0  0  0  0  0
   45.5102   36.2836   43.5806 H   0  0  0  0  0  0  0  0  0  0  0  0
   43.7870   35.8275   43.7553 H   0  0  0  0  0  0  0  0  0  0  0  0
   45.9979   35.1286   45.4715 H   0  0  0  0  0  0  0  0  0  0  0  0
   44.2994   34.6388   45.6438 H   0  0  0  0  0  0  0  0  0  0  0  0
   46.6180   33.1487   44.4507 H   0  0  0  0  0  0  0  0  0  0  0  0
   45.1699   32.4910   45.2078 H   0  0  0  0  0  0  0  0  0  0  0  0
   43.8797   32.7543   43.2425 H   0  0  0  0  0  0  0  0  0  0  0  0
   45.4631   32.3949   42.5382 H   0  0  0  0  0  0  0  0  0  0  0  0
   47.1857   35.9018   43.2126 H   0  0  0  0  0  0  0  0  0  0  0  0
   49.3251   35.9687   41.8624 H   0  0  0  0  0  0  0  0  0  0  0  0
   47.5097   33.4275   38.9514 H   0  0  0  0  0  0  0  0  0  0  0  0
   43.4681   36.5588   40.8553 H   0  0  0  0  0  0  0  0  0  0  0  0
   41.4832   35.9466   39.5335 H   0  0  0  0  0  0  0  0  0  0  0  0
   40.4083   32.2951   39.7529 H   0  0  0  0  0  0  0  0  0  0  0  0
  1  5  1  0
  1  2  1  0
  2  3  1  0
  4  3  1  0
  5  4  1  0
  6  7  2  0
  6  1  1  0
  8  7  1  0
  9  8  2  0
 10  9  1  0
 10 11  2  0
 11  6  1  0
 12  1  1  0
 13 12  2  0
 14 15  2  0
 14 13  1  0
 15 16  1  0
 16 12  1  0
 17 15  1  0
  2 18  1  0
  2 19  1  0
  3 20  1  0
  3 21  1  0
  4 22  1  0
  4 23  1  0
  5 24  1  0
  5 25  1  0
  7 26  1  0
  8 27  1  0
 10 28  1  0
 13 29  1  0
 14 30  1  0
 17 31  1  0
M  ISO  8  18  13  19  13  20  13  21  13  22  13  23  13  24  13  25  13
M  ISO  6  26  14  27  14  28  14  29  14  30  14  31   3
M  END
>  <minimizedAffinity>  (1) 
-4.80013275

>  <minimizedRMSD>  (1) 
0.133746222

$$$$
