
     RDKit          3D

 48 51  0  0  1  0  0  0  0  0999 V2000
   46.8850   34.2490   43.5550 C   0  0  0  0  0  0  0  0  0  0  0  0
   45.8180   34.6540   42.7510 C   0  0  0  0  0  0  0  0  0  0  0  0
   44.7300   33.8170   42.5500 C   0  0  0  0  0  0  0  0  0  0  0  0
   44.8040   32.6310   43.1800 N   0  0  0  0  0  0  0  0  0  0  0  0
   45.8060   32.2230   43.9500 C   0  0  0  0  0  0  0  0  0  0  0  0
   46.8420   33.0340   44.1340 N   0  0  0  0  0  0  0  0  0  0  0  0
   45.7070   30.9450   44.5310 N   0  0  0  0  0  0  0  0  0  0  0  0
   44.8090   29.9020   44.1500 C   0  0  0  0  0  0  0  0  0  0  0  0
   45.6160   28.7670   43.5590 C   0  0  0  0  0  0  0  0  0  0  0  0
   46.8260   28.6240   44.2170 O   0  0  0  0  0  0  0  0  0  0  0  0
   46.7670   29.0310   45.5460 C   0  0  0  0  0  0  0  0  0  0  0  0
   46.5370   30.5270   45.6350 C   0  0  2  0  0  0  0  0  0  0  0  0
   43.5490   34.1860   41.7000 C   0  0  0  0  0  0  0  0  0  0  0  0
   43.0790   35.4470   41.6780 C   0  0  0  0  0  0  0  0  0  0  0  0
   41.6860   35.3440   40.5210 S   0  0  0  0  0  0  0  0  0  0  0  0
   42.0070   33.4920   40.2540 C   0  0  0  0  0  0  0  0  0  0  0  0
   42.9260   33.3380   40.9530 N   0  0  0  0  0  0  0  0  0  0  0  0
   41.1240   32.8070   39.3450 N   0  0  0  0  0  0  0  0  0  0  0  0
   40.4970   33.4370   38.2610 C   0  0  0  0  0  0  0  0  0  0  0  0
   41.0740   34.5090   37.7970 N   0  0  0  0  0  0  0  0  0  0  0  0
   39.2830   32.8040   37.8100 N   0  0  0  0  0  0  0  0  0  0  0  0
   40.5950   34.9540   36.9790 H   0  0  0  0  0  0  0  0  0  0  0  0
   45.9240   30.7870   46.9160 N   0  0  0  0  0  0  0  0  0  0  0  0
   45.9990   32.1830   47.2960 C   0  0  0  0  0  0  0  0  0  0  0  0
   47.3290   32.3860   47.9450 C   0  0  0  0  0  0  0  0  0  0  0  0
   47.9150   31.0140   48.0810 C   0  0  0  0  0  0  0  0  0  0  0  0
   46.7060   30.1150   47.9370 C   0  0  0  0  0  0  0  0  0  0  0  0
   47.7480   34.9125   43.7132 H   0  0  0  0  0  0  0  0  0  0  0  0
   45.8401   35.6445   42.2731 H   0  0  0  0  0  0  0  0  0  0  0  0
   44.2582   29.5454   45.0329 H   0  0  0  0  0  0  0  0  0  0  0  0
   44.0873   30.2773   43.4095 H   0  0  0  0  0  0  0  0  0  0  0  0
   45.0435   27.8323   43.6513 H   0  0  0  0  0  0  0  0  0  0  0  0
   45.8165   28.9929   42.5013 H   0  0  0  0  0  0  0  0  0  0  0  0
   45.9402   28.5074   46.0483 H   0  0  0  0  0  0  0  0  0  0  0  0
   47.7225   28.7889   46.0343 H   0  0  0  0  0  0  0  0  0  0  0  0
   47.4743   31.0984   45.5648 H   0  0  0  0  0  0  0  0  0  0  0  0
   43.4491   36.3252   42.2273 H   0  0  0  0  0  0  0  0  0  0  0  0
   40.9444   31.8046   39.4992 H   0  0  0  0  0  0  0  0  0  0  0  0
   38.7583   33.2018   37.0180 H   0  0  0  0  0  0  0  0  0  0  0  0
   38.9402   31.9539   38.2798 H   0  0  0  0  0  0  0  0  0  0  0  0
   45.9113   32.8226   46.4053 H   0  0  0  0  0  0  0  0  0  0  0  0
   45.1816   32.4483   47.9827 H   0  0  0  0  0  0  0  0  0  0  0  0
   47.9721   33.0192   47.3162 H   0  0  0  0  0  0  0  0  0  0  0  0
   47.2382   32.8918   48.9176 H   0  0  0  0  0  0  0  0  0  0  0  0
   48.6512   30.8175   47.2876 H   0  0  0  0  0  0  0  0  0  0  0  0
   48.4576   30.8648   49.0262 H   0  0  0  0  0  0  0  0  0  0  0  0
   46.1480   30.0472   48.8826 H   0  0  0  0  0  0  0  0  0  0  0  0
   46.9636   29.0781   47.6754 H   0  0  0  0  0  0  0  0  0  0  0  0
  1  6  2  0
  2  1  1  0
  3  2  2  0
  3  4  1  0
  4  5  2  0
  5  6  1  0
  5  7  1  0
  7 12  1  0
  8  7  1  0
  9  8  1  0
  9 10  1  0
 10 11  1  0
 11 12  1  0
 12 23  1  0
 13  3  1  0
 14 13  2  0
 15 14  1  0
 16 15  1  0
 16 17  2  0
 17 13  1  0
 18 16  1  0
 19 18  1  0
 20 19  2  0
 21 19  1  0
 22 20  1  0
 23 24  1  0
 23 27  1  0
 24 25  1  0
 25 26  1  0
 27 26  1  0
  1 28  1  0
  2 29  1  0
  8 30  1  0
  8 31  1  0
  9 32  1  0
  9 33  1  0
 11 34  1  0
 11 35  1  0
 12 36  1  1
 14 37  1  0
 18 38  1  0
 21 39  1  0
 21 40  1  0
 24 41  1  0
 24 42  1  0
 25 43  1  0
 25 44  1  0
 26 45  1  0
 26 46  1  0
 27 47  1  0
 27 48  1  0
M  ISO  8  28  14  29  14  30  13  31  13  32  13  33  13  34  13  35  13
M  ISO  8  36  13  37  14  41  13  42  13  43  13  44  13  45  13  46  13
M  ISO  2  47  13  48  13
M  END
>  <minimizedAffinity>  (1) 
-5.64117861

>  <minimizedRMSD>  (1) 
3.06218219

$$$$
