
     RDKit          3D

 37 41  0  0  0  0  0  0  0  0999 V2000
   44.4800   36.0610   44.4950 C   0  0  0  0  0  0  0  0  0  0  0  0
   45.2690   35.9990   43.3140 C   0  0  0  0  0  0  0  0  0  0  0  0
   46.1660   34.9570   43.2350 C   0  0  0  0  0  0  0  0  0  0  0  0
   46.2080   34.1050   44.2780 N   0  0  0  0  0  0  0  0  0  0  0  0
   45.4790   34.1520   45.3830 C   0  0  0  0  0  0  0  0  0  0  0  0
   44.6060   35.1520   45.4760 N   0  0  0  0  0  0  0  0  0  0  0  0
   46.9800   34.8520   42.0690 N   0  0  0  0  0  0  0  0  0  0  0  0
   48.2110   35.3710   41.9210 C   0  0  0  0  0  0  0  0  0  0  0  0
   48.6980   35.0850   40.6860 N   0  0  0  0  0  0  0  0  0  0  0  0
   47.7390   34.3740   40.0670 C   0  0  0  0  0  0  0  0  0  0  0  0
   47.7020   33.8260   38.7930 C   0  0  0  0  0  0  0  0  0  0  0  0
   46.5830   33.1490   38.4350 N   0  0  0  0  0  0  0  0  0  0  0  0
   45.5460   33.0130   39.2870 C   0  0  0  0  0  0  0  0  0  0  0  0
   45.5440   33.5340   40.5370 N   0  0  0  0  0  0  0  0  0  0  0  0
   46.6580   34.2220   40.9260 C   0  0  0  0  0  0  0  0  0  0  0  0
   45.8050   33.0590   46.2850 C   0  0  0  0  0  0  0  0  0  0  0  0
   45.3520   32.9920   47.5820 C   0  0  0  0  0  0  0  0  0  0  0  0
   45.6350   31.9840   48.4600 C   0  0  0  0  0  0  0  0  0  0  0  0
   46.4260   30.9340   48.0740 C   0  0  0  0  0  0  0  0  0  0  0  0
   46.9130   30.9370   46.7880 C   0  0  0  0  0  0  0  0  0  0  0  0
   47.7060   29.8740   46.4170 C   0  0  0  0  0  0  0  0  0  0  0  0
   48.2290   29.8090   45.1490 C   0  0  0  0  0  0  0  0  0  0  0  0
   47.9180   30.8590   44.2770 C   0  0  0  0  0  0  0  0  0  0  0  0
   47.1300   31.8840   44.6970 C   0  0  0  0  0  0  0  0  0  0  0  0
   46.5910   31.9810   45.9550 C   0  0  0  0  0  0  0  0  0  0  0  0
   43.7477   36.8740   44.6084 H   0  0  0  0  0  0  0  0  0  0  0  0
   45.1687   36.7415   42.5086 H   0  0  0  0  0  0  0  0  0  0  0  0
   48.7475   35.9455   42.6905 H   0  0  0  0  0  0  0  0  0  0  0  0
   48.5486   33.9365   38.0994 H   0  0  0  0  0  0  0  0  0  0  0  0
   44.6610   32.4529   38.9508 H   0  0  0  0  0  0  0  0  0  0  0  0
   44.7130   33.8127   47.9398 H   0  0  0  0  0  0  0  0  0  0  0  0
   45.2262   32.0156   49.4807 H   0  0  0  0  0  0  0  0  0  0  0  0
   46.6636   30.1158   48.7697 H   0  0  0  0  0  0  0  0  0  0  0  0
   47.9215   29.0733   47.1398 H   0  0  0  0  0  0  0  0  0  0  0  0
   48.8644   28.9688   44.8324 H   0  0  0  0  0  0  0  0  0  0  0  0
   48.3120   30.8547   43.2500 H   0  0  0  0  0  0  0  0  0  0  0  0
   46.9099   32.6892   43.9806 H   0  0  0  0  0  0  0  0  0  0  0  0
  1  6  2  0
  2  1  1  0
  3  2  2  0
  3  4  1  0
  4  5  2  0
  5  6  1  0
  5 16  1  0
  7  3  1  0
  8  7  1  0
  9  8  2  0
 10  9  1  0
 10 15  2  0
 11 10  1  0
 12 11  2  0
 12 13  1  0
 13 14  2  0
 14 15  1  0
 15  7  1  0
 16 17  2  0
 17 18  1  0
 19 18  2  0
 20 19  1  0
 21 20  2  0
 22 21  1  0
 23 24  1  0
 23 22  2  0
 24 25  2  0
 25 16  1  0
 25 20  1  0
  1 26  1  0
  2 27  1  0
  8 28  1  0
 11 29  1  0
 13 30  1  0
 17 31  1  0
 18 32  1  0
 19 33  1  0
 21 34  1  0
 22 35  1  0
 23 36  1  0
 24 37  1  0
M  ISO  8  26  14  27  14  28  14  29  14  30  14  31  14  32  14  33  14
M  ISO  4  34  14  35  14  36  14  37  14
M  END
>  <minimizedAffinity>  (1) 
-7.0377183

>  <minimizedRMSD>  (1) 
0.738859177

$$$$
