
     RDKit          3D

 36 39  0  0  0  0  0  0  0  0999 V2000
   44.5420   35.8870   44.5280 C   0  0  0  0  0  0  0  0  0  0  0  0
   45.3110   35.8520   43.3500 C   0  0  0  0  0  0  0  0  0  0  0  0
   46.2730   34.8570   43.2380 C   0  0  0  0  0  0  0  0  0  0  0  0
   46.4220   33.9730   44.2610 N   0  0  0  0  0  0  0  0  0  0  0  0
   45.6750   34.0280   45.3740 C   0  0  0  0  0  0  0  0  0  0  0  0
   44.7380   34.9780   45.5120 N   0  0  0  0  0  0  0  0  0  0  0  0
   45.8680   33.0810   46.4190 N   0  0  0  0  0  0  0  0  0  0  0  0
   45.0910   33.0910   47.6430 C   0  0  0  0  0  0  0  0  0  0  0  0
   45.4330   31.8770   48.4550 C   0  0  0  0  0  0  0  0  0  0  0  0
   45.4670   30.5950   47.6830 C   0  0  0  0  0  0  0  0  0  0  0  0
   46.0660   30.7340   46.3020 C   0  0  0  0  0  0  0  0  0  0  0  0
   46.8710   32.0400   46.3040 C   0  0  0  0  0  0  0  0  0  0  0  0
   47.0500   34.8240   42.0450 N   0  0  0  0  0  0  0  0  0  0  0  0
   48.2490   35.4280   41.8750 C   0  0  0  0  0  0  0  0  0  0  0  0
   48.7270   35.2020   40.6190 N   0  0  0  0  0  0  0  0  0  0  0  0
   47.7840   34.4350   40.0110 C   0  0  0  0  0  0  0  0  0  0  0  0
   47.7480   33.9130   38.7330 C   0  0  0  0  0  0  0  0  0  0  0  0
   46.6690   33.1710   38.3870 N   0  0  0  0  0  0  0  0  0  0  0  0
   45.6670   32.9550   39.2620 C   0  0  0  0  0  0  0  0  0  0  0  0
   45.6580   33.4470   40.5280 N   0  0  0  0  0  0  0  0  0  0  0  0
   46.7330   34.1930   40.8920 C   0  0  0  0  0  0  0  0  0  0  0  0
   43.7719   36.6628   44.6509 H   0  0  0  0  0  0  0  0  0  0  0  0
   45.1555   36.5869   42.5464 H   0  0  0  0  0  0  0  0  0  0  0  0
   45.3256   33.9976   48.2202 H   0  0  0  0  0  0  0  0  0  0  0  0
   44.0183   33.0823   47.3996 H   0  0  0  0  0  0  0  0  0  0  0  0
   46.4255   32.0333   48.9029 H   0  0  0  0  0  0  0  0  0  0  0  0
   44.6325   31.7680   49.2015 H   0  0  0  0  0  0  0  0  0  0  0  0
   46.0639   29.8645   48.2487 H   0  0  0  0  0  0  0  0  0  0  0  0
   44.4241   30.2714   47.5504 H   0  0  0  0  0  0  0  0  0  0  0  0
   45.2690   30.7804   45.5453 H   0  0  0  0  0  0  0  0  0  0  0  0
   46.7061   29.8733   46.0583 H   0  0  0  0  0  0  0  0  0  0  0  0
   47.5627   32.0697   47.1588 H   0  0  0  0  0  0  0  0  0  0  0  0
   47.4907   32.1523   45.4021 H   0  0  0  0  0  0  0  0  0  0  0  0
   48.7664   36.0198   42.6445 H   0  0  0  0  0  0  0  0  0  0  0  0
   48.5669   34.0935   38.0210 H   0  0  0  0  0  0  0  0  0  0  0  0
   44.8107   32.3478   38.9333 H   0  0  0  0  0  0  0  0  0  0  0  0
  1  6  2  0
  2  1  1  0
  3  2  2  0
  3  4  1  0
  4  5  2  0
  5  6  1  0
  5  7  1  0
  7  8  1  0
  8  9  1  0
 10  9  1  0
 11 12  1  0
 11 10  1  0
 12  7  1  0
 13  3  1  0
 14 13  1  0
 15 14  2  0
 16 15  1  0
 16 21  2  0
 17 16  1  0
 18 17  2  0
 18 19  1  0
 19 20  2  0
 20 21  1  0
 21 13  1  0
  1 22  1  0
  2 23  1  0
  8 24  1  0
  8 25  1  0
  9 26  1  0
  9 27  1  0
 10 28  1  0
 10 29  1  0
 11 30  1  0
 11 31  1  0
 12 32  1  0
 12 33  1  0
 14 34  1  0
 17 35  1  0
 19 36  1  0
M  ISO  8  22  14  23  14  24  13  25  13  26  13  27  13  28  13  29  13
M  ISO  7  30  13  31  13  32  13  33  13  34  14  35  14  36  14
M  END
>  <minimizedAffinity>  (1) 
-6.60904646

>  <minimizedRMSD>  (1) 
0.228113845

$$$$
