
     RDKit          3D

 28 31  0  0  0  0  0  0  0  0999 V2000
   44.4730   35.9910   44.5050 C   0  0  0  0  0  0  0  0  0  0  0  0
   45.2520   35.9220   43.3250 C   0  0  0  0  0  0  0  0  0  0  0  0
   46.2070   34.9020   43.2520 C   0  0  0  0  0  0  0  0  0  0  0  0
   46.3400   34.0370   44.3030 N   0  0  0  0  0  0  0  0  0  0  0  0
   45.5700   34.1430   45.4130 C   0  0  0  0  0  0  0  0  0  0  0  0
   44.6450   35.1090   45.5190 N   0  0  0  0  0  0  0  0  0  0  0  0
   45.8500   33.1570   46.4000 N   0  0  0  0  0  0  0  0  0  0  0  0
   45.3130   32.7920   47.5790 C   0  0  0  0  0  0  0  0  0  0  0  0
   46.0820   31.7400   48.0330 C   0  0  0  0  0  0  0  0  0  0  0  0
   47.0650   31.4660   47.1550 N   0  0  0  0  0  0  0  0  0  0  0  0
   46.9030   32.3530   46.1550 C   0  0  0  0  0  0  0  0  0  0  0  0
   47.0000   34.8220   42.0670 N   0  0  0  0  0  0  0  0  0  0  0  0
   48.2270   35.3770   41.9240 C   0  0  0  0  0  0  0  0  0  0  0  0
   48.7070   35.1160   40.6770 N   0  0  0  0  0  0  0  0  0  0  0  0
   47.7430   34.3850   40.0520 C   0  0  0  0  0  0  0  0  0  0  0  0
   47.7020   33.8560   38.7810 C   0  0  0  0  0  0  0  0  0  0  0  0
   46.5850   33.1550   38.4210 N   0  0  0  0  0  0  0  0  0  0  0  0
   45.5550   32.9920   39.2960 C   0  0  0  0  0  0  0  0  0  0  0  0
   45.5660   33.5020   40.5540 N   0  0  0  0  0  0  0  0  0  0  0  0
   46.6610   34.1950   40.9200 C   0  0  0  0  0  0  0  0  0  0  0  0
   43.7109   36.7784   44.6008 H   0  0  0  0  0  0  0  0  0  0  0  0
   45.1127   36.6385   42.5020 H   0  0  0  0  0  0  0  0  0  0  0  0
   44.4409   33.2400   48.0778 H   0  0  0  0  0  0  0  0  0  0  0  0
   45.9155   31.2019   48.9778 H   0  0  0  0  0  0  0  0  0  0  0  0
   47.5420   32.4129   45.2616 H   0  0  0  0  0  0  0  0  0  0  0  0
   48.7559   35.9519   42.6984 H   0  0  0  0  0  0  0  0  0  0  0  0
   48.5387   33.9928   38.0802 H   0  0  0  0  0  0  0  0  0  0  0  0
   44.6736   32.4210   38.9688 H   0  0  0  0  0  0  0  0  0  0  0  0
  1  6  2  0
  2  1  1  0
  3  2  2  0
  3  4  1  0
  4  5  2  0
  5  6  1  0
  5  7  1  0
  7  8  1  0
  8  9  2  0
 10  9  1  0
 11  7  1  0
 11 10  2  0
 12  3  1  0
 13 12  1  0
 14 13  2  0
 15 14  1  0
 15 20  2  0
 16 15  1  0
 17 16  2  0
 17 18  1  0
 18 19  2  0
 19 20  1  0
 20 12  1  0
  1 21  1  0
  2 22  1  0
  8 23  1  0
  9 24  1  0
 11 25  1  0
 13 26  1  0
 16 27  1  0
 18 28  1  0
M  ISO  8  21  14  22  14  23  14  24  14  25  14  26  14  27  14  28  14
M  END
>  <minimizedAffinity>  (1) 
-6.18913174

>  <minimizedRMSD>  (1) 
0.312551856

$$$$
