
     RDKit          3D

 28 31  0  0  0  0  0  0  0  0999 V2000
   44.4780   35.9680   44.4210 C   0  0  0  0  0  0  0  0  0  0  0  0
   45.2550   35.8700   43.2590 C   0  0  0  0  0  0  0  0  0  0  0  0
   46.2360   34.8850   43.2010 C   0  0  0  0  0  0  0  0  0  0  0  0
   46.4040   34.0590   44.2710 N   0  0  0  0  0  0  0  0  0  0  0  0
   45.6330   34.1830   45.3780 C   0  0  0  0  0  0  0  0  0  0  0  0
   44.6670   35.1360   45.4620 N   0  0  0  0  0  0  0  0  0  0  0  0
   47.0120   34.8030   42.0160 N   0  0  0  0  0  0  0  0  0  0  0  0
   48.2420   35.3590   41.8510 C   0  0  0  0  0  0  0  0  0  0  0  0
   48.7080   35.0940   40.5950 N   0  0  0  0  0  0  0  0  0  0  0  0
   47.7430   34.3650   39.9910 C   0  0  0  0  0  0  0  0  0  0  0  0
   47.6840   33.8250   38.7140 C   0  0  0  0  0  0  0  0  0  0  0  0
   46.5670   33.1230   38.3700 N   0  0  0  0  0  0  0  0  0  0  0  0
   45.5590   32.9650   39.2500 C   0  0  0  0  0  0  0  0  0  0  0  0
   45.5700   33.4740   40.5090 N   0  0  0  0  0  0  0  0  0  0  0  0
   46.6650   34.1720   40.8710 C   0  0  0  0  0  0  0  0  0  0  0  0
   45.8140   33.2970   46.5210 C   0  0  0  0  0  0  0  0  0  0  0  0
   46.8110   32.3700   46.8210 C   0  0  0  0  0  0  0  0  0  0  0  0
   46.4970   31.7980   48.0410 C   0  0  0  0  0  0  0  0  0  0  0  0
   45.3390   32.3680   48.4640 N   0  0  0  0  0  0  0  0  0  0  0  0
   44.9420   33.2530   47.5600 N   0  0  0  0  0  0  0  0  0  0  0  0
   43.6976   36.7407   44.4837 H   0  0  0  0  0  0  0  0  0  0  0  0
   45.0934   36.5549   42.4135 H   0  0  0  0  0  0  0  0  0  0  0  0
   48.7816   35.9366   42.6159 H   0  0  0  0  0  0  0  0  0  0  0  0
   48.5119   33.9590   38.0022 H   0  0  0  0  0  0  0  0  0  0  0  0
   44.6768   32.3909   38.9304 H   0  0  0  0  0  0  0  0  0  0  0  0
   47.6884   32.1358   46.2002 H   0  0  0  0  0  0  0  0  0  0  0  0
   47.0764   31.0265   48.5692 H   0  0  0  0  0  0  0  0  0  0  0  0
   44.8493   32.1486   49.3432 H   0  0  0  0  0  0  0  0  0  0  0  0
  1  6  2  0
  2  1  1  0
  3  2  2  0
  3  4  1  0
  4  5  2  0
  5  6  1  0
  5 16  1  0
  7  3  1  0
  8  7  1  0
  9  8  2  0
 10  9  1  0
 10 15  2  0
 11 10  1  0
 12 11  2  0
 12 13  1  0
 13 14  2  0
 14 15  1  0
 15  7  1  0
 16 17  1  0
 16 20  2  0
 17 18  2  0
 18 19  1  0
 20 19  1  0
  1 21  1  0
  2 22  1  0
  8 23  1  0
 11 24  1  0
 13 25  1  0
 17 26  1  0
 18 27  1  0
 19 28  1  0
M  ISO  8  21  14  22  14  23  14  24  14  25  14  26  14  27  14  28   9
M  END
>  <minimizedAffinity>  (1) 
-6.10291433

>  <minimizedRMSD>  (1) 
0.535638452

$$$$
