
     RDKit          3D

 26 29  0  0  0  0  0  0  0  0999 V2000
   44.5010   35.8320   44.5730 C   0  0  0  0  0  0  0  0  0  0  0  0
   45.2560   35.7950   43.3850 C   0  0  0  0  0  0  0  0  0  0  0  0
   46.2590   34.8340   43.2850 C   0  0  0  0  0  0  0  0  0  0  0  0
   46.4580   33.9820   44.3330 N   0  0  0  0  0  0  0  0  0  0  0  0
   45.7200   34.0440   45.4520 C   0  0  0  0  0  0  0  0  0  0  0  0
   44.7440   34.9650   45.5740 N   0  0  0  0  0  0  0  0  0  0  0  0
   47.0220   34.7980   42.0860 N   0  0  0  0  0  0  0  0  0  0  0  0
   48.2260   35.4090   41.9190 C   0  0  0  0  0  0  0  0  0  0  0  0
   48.6940   35.1840   40.6620 N   0  0  0  0  0  0  0  0  0  0  0  0
   47.7570   34.4220   40.0520 C   0  0  0  0  0  0  0  0  0  0  0  0
   47.7050   33.8990   38.7780 C   0  0  0  0  0  0  0  0  0  0  0  0
   46.6160   33.1560   38.4380 N   0  0  0  0  0  0  0  0  0  0  0  0
   45.6190   32.9360   39.3170 C   0  0  0  0  0  0  0  0  0  0  0  0
   45.6360   33.4360   40.5830 N   0  0  0  0  0  0  0  0  0  0  0  0
   46.7050   34.1770   40.9440 C   0  0  0  0  0  0  0  0  0  0  0  0
   45.9920   33.0990   46.5310 C   0  0  0  0  0  0  0  0  0  0  0  0
   46.9870   32.2020   46.7980 N   0  0  0  0  0  0  0  0  0  0  0  0
   46.7190   31.6090   47.9270 O   0  0  0  0  0  0  0  0  0  0  0  0
   45.5870   32.0620   48.4380 C   0  0  0  0  0  0  0  0  0  0  0  0
   45.1140   33.0030   47.5710 N   0  0  0  0  0  0  0  0  0  0  0  0
   43.7017   36.5795   44.6848 H   0  0  0  0  0  0  0  0  0  0  0  0
   45.0603   36.5008   42.5643 H   0  0  0  0  0  0  0  0  0  0  0  0
   48.7453   35.9990   42.6885 H   0  0  0  0  0  0  0  0  0  0  0  0
   48.5179   34.0763   38.0584 H   0  0  0  0  0  0  0  0  0  0  0  0
   44.7583   32.3291   38.9995 H   0  0  0  0  0  0  0  0  0  0  0  0
   45.1175   31.7421   49.3799 H   0  0  0  0  0  0  0  0  0  0  0  0
  1  6  2  0
  2  1  1  0
  3  2  2  0
  3  4  1  0
  4  5  2  0
  5  6  1  0
  5 16  1  0
  7  3  1  0
  8  7  1  0
  9  8  2  0
 10  9  1  0
 10 15  2  0
 11 10  1  0
 12 11  2  0
 12 13  1  0
 13 14  2  0
 14 15  1  0
 15  7  1  0
 16 17  2  0
 16 20  1  0
 17 18  1  0
 18 19  1  0
 20 19  2  0
  1 21  1  0
  2 22  1  0
  8 23  1  0
 11 24  1  0
 13 25  1  0
 19 26  1  0
M  ISO  6  21  14  22  14  23  14  24  14  25  14  26  14
M  END
>  <minimizedAffinity>  (1) 
-5.97987556

>  <minimizedRMSD>  (1) 
0.392462999

$$$$
