
     RDKit          3D

 24 26  0  0  0  0  0  0  0  0999 V2000
   47.0350   34.8220   42.0670 N   0  0  0  0  0  0  0  0  0  0  0  0
   48.2340   35.4040   41.9080 C   0  0  0  0  0  0  0  0  0  0  0  0
   48.7100   35.1640   40.6500 N   0  0  0  0  0  0  0  0  0  0  0  0
   47.7560   34.4110   40.0370 C   0  0  0  0  0  0  0  0  0  0  0  0
   47.7110   33.8850   38.7600 C   0  0  0  0  0  0  0  0  0  0  0  0
   46.6160   33.1580   38.4120 N   0  0  0  0  0  0  0  0  0  0  0  0
   45.6050   32.9610   39.2940 C   0  0  0  0  0  0  0  0  0  0  0  0
   45.6170   33.4630   40.5490 N   0  0  0  0  0  0  0  0  0  0  0  0
   46.7040   34.1950   40.9240 C   0  0  0  0  0  0  0  0  0  0  0  0
   44.5180   35.9360   44.5290 C   0  0  0  0  0  0  0  0  0  0  0  0
   45.2960   35.8940   43.3440 C   0  0  0  0  0  0  0  0  0  0  0  0
   46.2510   34.8690   43.2550 C   0  0  0  0  0  0  0  0  0  0  0  0
   46.3650   33.9980   44.2890 N   0  0  0  0  0  0  0  0  0  0  0  0
   45.6120   34.0700   45.3920 C   0  0  0  0  0  0  0  0  0  0  0  0
   44.6870   35.0350   45.5190 N   0  0  0  0  0  0  0  0  0  0  0  0
   45.8620   33.0380   46.4360 C   0  0  0  0  0  0  0  0  0  0  0  0
   47.1270   33.1310   46.9730 F   0  0  0  0  0  0  0  0  0  0  0  0
   44.9200   33.2290   47.4550 F   0  0  0  0  0  0  0  0  0  0  0  0
   45.6490   31.7750   45.9010 F   0  0  0  0  0  0  0  0  0  0  0  0
   48.7573   35.9892   42.6785 H   0  0  0  0  0  0  0  0  0  0  0  0
   48.5338   34.0490   38.0486 H   0  0  0  0  0  0  0  0  0  0  0  0
   44.7367   32.3663   38.9740 H   0  0  0  0  0  0  0  0  0  0  0  0
   43.7578   36.7227   44.6439 H   0  0  0  0  0  0  0  0  0  0  0  0
   45.1581   36.6273   42.5358 H   0  0  0  0  0  0  0  0  0  0  0  0
  1 12  1  0
  2  1  1  0
  3  2  2  0
  4  3  1  0
  4  9  2  0
  5  4  1  0
  6  5  2  0
  6  7  1  0
  7  8  2  0
  8  9  1  0
  9  1  1  0
 10 15  2  0
 11 10  1  0
 12 11  2  0
 12 13  1  0
 13 14  2  0
 14 15  1  0
 14 16  1  0
 16 17  1  0
 16 18  1  0
 19 16  1  0
  2 20  1  0
  5 21  1  0
  7 22  1  0
 10 23  1  0
 11 24  1  0
M  ISO  5  20  14  21  14  22  14  23  14  24  14
M  END
>  <minimizedAffinity>  (1) 
-5.82312059

>  <minimizedRMSD>  (1) 
0.34311974

$$$$
