
     RDKit          3D

 28 31  0  0  0  0  0  0  0  0999 V2000
   47.1480   34.9000   42.0140 N   0  0  0  0  0  0  0  0  0  0  0  0
   48.3520   35.5270   41.9030 C   0  0  0  0  0  0  0  0  0  0  0  0
   48.8770   35.3190   40.6650 N   0  0  0  0  0  0  0  0  0  0  0  0
   47.9760   34.5490   40.0070 C   0  0  0  0  0  0  0  0  0  0  0  0
   48.0000   34.0390   38.7170 C   0  0  0  0  0  0  0  0  0  0  0  0
   46.9450   33.2900   38.3220 N   0  0  0  0  0  0  0  0  0  0  0  0
   45.9050   33.0470   39.1560 C   0  0  0  0  0  0  0  0  0  0  0  0
   45.8460   33.5300   40.4270 N   0  0  0  0  0  0  0  0  0  0  0  0
   46.8900   34.2820   40.8440 C   0  0  0  0  0  0  0  0  0  0  0  0
   44.5290   35.9160   44.3930 C   0  0  0  0  0  0  0  0  0  0  0  0
   45.3520   35.8860   43.2580 C   0  0  0  0  0  0  0  0  0  0  0  0
   46.3300   34.9100   43.1670 C   0  0  0  0  0  0  0  0  0  0  0  0
   46.4530   34.0120   44.1940 N   0  0  0  0  0  0  0  0  0  0  0  0
   45.6460   34.0660   45.2730 C   0  0  0  0  0  0  0  0  0  0  0  0
   44.6910   35.0000   45.3870 N   0  0  0  0  0  0  0  0  0  0  0  0
   45.7900   33.0790   46.3880 C   0  0  0  0  0  0  0  0  0  0  0  0
   45.9960   31.6330   46.0460 C   0  0  0  0  0  0  0  0  0  0  0  0
   47.0950   32.4220   46.6420 C   0  0  0  0  0  0  0  0  0  0  0  0
   48.8307   36.1163   42.6990 H   0  0  0  0  0  0  0  0  0  0  0  0
   48.8450   34.2362   38.0409 H   0  0  0  0  0  0  0  0  0  0  0  0
   45.0705   32.4314   38.7890 H   0  0  0  0  0  0  0  0  0  0  0  0
   43.7472   36.6849   44.4808 H   0  0  0  0  0  0  0  0  0  0  0  0
   45.2229   36.6252   42.4537 H   0  0  0  0  0  0  0  0  0  0  0  0
   45.0824   33.6531   47.0042 H   0  0  0  0  0  0  0  0  0  0  0  0
   45.4965   30.8508   46.6364 H   0  0  0  0  0  0  0  0  0  0  0  0
   45.8780   31.0221   45.1389 H   0  0  0  0  0  0  0  0  0  0  0  0
   47.9705   32.6892   46.0320 H   0  0  0  0  0  0  0  0  0  0  0  0
   47.7415   32.3030   47.5240 H   0  0  0  0  0  0  0  0  0  0  0  0
  1 12  1  0
  2  1  1  0
  3  2  2  0
  4  3  1  0
  4  9  2  0
  5  4  1  0
  6  5  2  0
  6  7  1  0
  7  8  2  0
  8  9  1  0
  9  1  1  0
 10 15  2  0
 11 10  1  0
 12 11  2  0
 12 13  1  0
 13 14  2  0
 14 15  1  0
 14 16  1  0
 16 18  1  0
 17 16  1  0
 17 18  1  0
  2 19  1  0
  5 20  1  0
  7 21  1  0
 10 22  1  0
 11 23  1  0
 16 24  1  0
 17 25  1  0
 17 26  1  0
 18 27  1  0
 18 28  1  0
M  ISO  8  19  14  20  14  21  14  22  14  23  14  24  13  25  13  26  13
M  ISO  2  27  13  28  13
M  END
>  <minimizedAffinity>  (1) 
-5.39305925

>  <minimizedRMSD>  (1) 
0.337802142

$$$$
