
     RDKit          3D

 39 41  0  0  1  0  0  0  0  0999 V2000
   47.6600   31.1090   43.6280 C   0  0  0  0  0  0  0  0  0  0  0  0
   46.8130   31.9330   42.8650 C   0  0  0  0  0  0  0  0  0  0  0  0
   45.9000   32.7740   43.4850 C   0  0  0  0  0  0  0  0  0  0  0  0
   45.9200   32.7150   44.8310 N   0  0  0  0  0  0  0  0  0  0  0  0
   46.7030   31.9540   45.5740 C   0  0  0  0  0  0  0  0  0  0  0  0
   47.5700   31.1530   44.9630 N   0  0  0  0  0  0  0  0  0  0  0  0
   46.5880   32.0200   46.9720 N   0  0  0  0  0  0  0  0  0  0  0  0
   45.4970   32.6270   47.6860 C   0  0  0  0  0  0  0  0  0  0  0  0
   44.7600   31.5040   48.4270 C   0  0  0  0  0  0  0  0  0  0  0  0
   45.6630   30.5560   48.9040 O   0  0  0  0  0  0  0  0  0  0  0  0
   46.8910   31.1200   49.1740 C   0  0  0  0  0  0  0  0  0  0  0  0
   47.5730   31.4730   47.8680 C   0  0  1  0  0  0  0  0  0  0  0  0
   44.9700   33.6770   42.7430 C   0  0  0  0  0  0  0  0  0  0  0  0
   45.1120   35.0170   42.7990 C   0  0  0  0  0  0  0  0  0  0  0  0
   43.7420   35.5980   41.7360 S   0  0  0  0  0  0  0  0  0  0  0  0
   43.1990   33.8170   41.3920 C   0  0  0  0  0  0  0  0  0  0  0  0
   43.9920   33.2340   42.0170 N   0  0  0  0  0  0  0  0  0  0  0  0
   42.0620   33.6670   40.5350 N   0  0  0  0  0  0  0  0  0  0  0  0
   41.7440   34.5480   39.5080 C   0  0  0  0  0  0  0  0  0  0  0  0
   42.7070   35.2720   39.0250 N   0  0  0  0  0  0  0  0  0  0  0  0
   40.3550   34.5370   39.1100 N   0  0  0  0  0  0  0  0  0  0  0  0
   42.4490   35.9450   38.2680 H   0  0  0  0  0  0  0  0  0  0  0  0
   47.9990   30.1330   47.2810 C   0  0  0  0  0  0  0  0  0  0  0  0
   48.3828   30.4409   43.1369 H   0  0  0  0  0  0  0  0  0  0  0  0
   46.8750   31.9105   41.7670 H   0  0  0  0  0  0  0  0  0  0  0  0
   45.8815   33.3646   48.4058 H   0  0  0  0  0  0  0  0  0  0  0  0
   44.8195   33.1489   46.9942 H   0  0  0  0  0  0  0  0  0  0  0  0
   44.2053   31.9333   49.2743 H   0  0  0  0  0  0  0  0  0  0  0  0
   44.0669   31.0132   47.7279 H   0  0  0  0  0  0  0  0  0  0  0  0
   46.7537   32.0306   49.7756 H   0  0  0  0  0  0  0  0  0  0  0  0
   47.5116   30.4054   49.7345 H   0  0  0  0  0  0  0  0  0  0  0  0
   48.4014   32.1828   48.0092 H   0  0  0  0  0  0  0  0  0  0  0  0
   45.8610   35.6095   43.3449 H   0  0  0  0  0  0  0  0  0  0  0  0
   41.4429   32.8583   40.6886 H   0  0  0  0  0  0  0  0  0  0  0  0
   40.0305   35.1588   38.3557 H   0  0  0  0  0  0  0  0  0  0  0  0
   39.6894   33.9074   39.5806 H   0  0  0  0  0  0  0  0  0  0  0  0
   48.2226   29.4298   48.0968 H   0  0  0  0  0  0  0  0  0  0  0  0
   47.1851   29.7288   46.6612 H   0  0  0  0  0  0  0  0  0  0  0  0
   48.8969   30.2730   46.6612 H   0  0  0  0  0  0  0  0  0  0  0  0
  1  6  2  0
  2  3  2  0
  2  1  1  0
  3  4  1  0
  4  5  2  0
  5  7  1  0
  6  5  1  0
  7  8  1  0
  7 12  1  0
  8  9  1  0
  9 10  1  0
 10 11  1  0
 12 11  1  0
 13 14  2  0
 13  3  1  0
 15 14  1  0
 16 15  1  0
 16 17  2  0
 17 13  1  0
 18 16  1  0
 19 18  1  0
 20 19  2  0
 21 19  1  0
 22 20  1  0
 23 12  1  0
  1 24  1  0
  2 25  1  0
  8 26  1  0
  8 27  1  0
  9 28  1  0
  9 29  1  0
 11 30  1  0
 11 31  1  0
 12 32  1  1
 14 33  1  0
 18 34  1  0
 21 35  1  0
 21 36  1  0
 23 37  1  0
 23 38  1  0
 23 39  1  0
M  ISO  8  24  14  25  14  26  13  27  13  28  13  29  13  30  13  31  13
M  ISO  5  32  13  33  14  37   8  38   8  39   8
M  END
>  <minimizedAffinity>  (1) 
-5.52859783

>  <minimizedRMSD>  (1) 
0.0109819509

$$$$
