
     RDKit          3D

 27 29  0  0  0  0  0  0  0  0999 V2000
   47.1810   34.9080   41.9460 N   0  0  0  0  0  0  0  0  0  0  0  0
   48.3710   35.5380   41.8280 C   0  0  0  0  0  0  0  0  0  0  0  0
   48.8930   35.3320   40.5860 N   0  0  0  0  0  0  0  0  0  0  0  0
   47.9880   34.5540   39.9390 C   0  0  0  0  0  0  0  0  0  0  0  0
   47.9980   34.0380   38.6500 C   0  0  0  0  0  0  0  0  0  0  0  0
   46.9420   33.2780   38.2630 N   0  0  0  0  0  0  0  0  0  0  0  0
   45.9180   33.0380   39.1040 C   0  0  0  0  0  0  0  0  0  0  0  0
   45.8640   33.5200   40.3720 N   0  0  0  0  0  0  0  0  0  0  0  0
   46.9150   34.2840   40.7810 C   0  0  0  0  0  0  0  0  0  0  0  0
   44.5460   35.9070   44.3330 C   0  0  0  0  0  0  0  0  0  0  0  0
   45.3670   35.8900   43.1790 C   0  0  0  0  0  0  0  0  0  0  0  0
   46.3600   34.9140   43.1100 C   0  0  0  0  0  0  0  0  0  0  0  0
   46.4870   34.0400   44.1420 N   0  0  0  0  0  0  0  0  0  0  0  0
   45.7020   34.0710   45.2220 C   0  0  0  0  0  0  0  0  0  0  0  0
   44.7240   35.0050   45.3290 N   0  0  0  0  0  0  0  0  0  0  0  0
   45.9810   33.0420   46.2530 C   0  0  0  0  0  0  0  0  0  0  0  0
   46.9490   32.0500   45.5960 C   0  0  0  0  0  0  0  0  0  0  0  0
   48.8495   36.1318   42.6207 H   0  0  0  0  0  0  0  0  0  0  0  0
   48.8346   34.2386   37.9646 H   0  0  0  0  0  0  0  0  0  0  0  0
   45.0822   32.4195   38.7450 H   0  0  0  0  0  0  0  0  0  0  0  0
   43.7523   36.6633   44.4223 H   0  0  0  0  0  0  0  0  0  0  0  0
   45.2264   36.6195   42.3678 H   0  0  0  0  0  0  0  0  0  0  0  0
   46.4447   33.5016   47.1383 H   0  0  0  0  0  0  0  0  0  0  0  0
   45.0595   32.5465   46.5927 H   0  0  0  0  0  0  0  0  0  0  0  0
   47.4906   31.4949   46.3761 H   0  0  0  0  0  0  0  0  0  0  0  0
   46.3825   31.3446   44.9704 H   0  0  0  0  0  0  0  0  0  0  0  0
   47.6681   32.5991   44.9704 H   0  0  0  0  0  0  0  0  0  0  0  0
  1 12  1  0
  2  1  1  0
  3  2  2  0
  4  3  1  0
  4  9  2  0
  5  4  1  0
  6  5  2  0
  6  7  1  0
  7  8  2  0
  8  9  1  0
  9  1  1  0
 10 15  2  0
 11 10  1  0
 12 11  2  0
 12 13  1  0
 13 14  2  0
 14 15  1  0
 14 16  1  0
 17 16  1  0
  2 18  1  0
  5 19  1  0
  7 20  1  0
 10 21  1  0
 11 22  1  0
 16 23  1  0
 16 24  1  0
 17 25  1  0
 17 26  1  0
 17 27  1  0
M  ISO  8  18  14  19  14  20  14  21  14  22  14  23   8  24   8  25   8
M  ISO  2  26   8  27   8
M  END
>  <minimizedAffinity>  (1) 
-5.14500427

>  <minimizedRMSD>  (1) 
0.538452327

$$$$
