
     RDKit          3D

 37 40  0  0  0  0  0  0  0  0999 V2000
   44.4860   35.9950   44.4920 C   0  0  0  0  0  0  0  0  0  0  0  0
   45.2630   35.9180   43.3190 C   0  0  0  0  0  0  0  0  0  0  0  0
   46.2000   34.8960   43.2450 C   0  0  0  0  0  0  0  0  0  0  0  0
   46.2900   34.0650   44.2980 N   0  0  0  0  0  0  0  0  0  0  0  0
   45.5590   34.1270   45.4160 C   0  0  0  0  0  0  0  0  0  0  0  0
   44.6470   35.1090   45.5010 N   0  0  0  0  0  0  0  0  0  0  0  0
   46.9850   34.8130   42.0710 N   0  0  0  0  0  0  0  0  0  0  0  0
   48.2260   35.3670   41.9230 C   0  0  0  0  0  0  0  0  0  0  0  0
   48.7080   35.1060   40.6780 N   0  0  0  0  0  0  0  0  0  0  0  0
   47.7370   34.3780   40.0580 C   0  0  0  0  0  0  0  0  0  0  0  0
   47.7150   33.8570   38.7860 C   0  0  0  0  0  0  0  0  0  0  0  0
   46.6060   33.1650   38.4270 N   0  0  0  0  0  0  0  0  0  0  0  0
   45.5740   33.0020   39.2930 C   0  0  0  0  0  0  0  0  0  0  0  0
   45.5770   33.5070   40.5490 N   0  0  0  0  0  0  0  0  0  0  0  0
   46.6670   34.1970   40.9250 C   0  0  0  0  0  0  0  0  0  0  0  0
   45.7020   33.1950   46.5220 C   0  0  0  0  0  0  0  0  0  0  0  0
   44.9430   33.3030   47.5370 O   0  0  0  0  0  0  0  0  0  0  0  0
   46.6640   32.1470   46.5330 N   0  0  0  0  0  0  0  0  0  0  0  0
   46.8850   31.3030   45.3920 C   0  0  0  0  0  0  0  0  0  0  0  0
   47.8640   30.2250   45.5540 C   0  0  0  0  0  0  0  0  0  0  0  0
   48.0380   29.6490   46.8320 N   0  0  0  0  0  0  0  0  0  0  0  0
   47.7020   30.4240   47.9680 C   0  0  0  0  0  0  0  0  0  0  0  0
   47.4660   31.8790   47.6920 C   0  0  0  0  0  0  0  0  0  0  0  0
   43.7336   36.7915   44.5889 H   0  0  0  0  0  0  0  0  0  0  0  0
   45.1328   36.6371   42.4968 H   0  0  0  0  0  0  0  0  0  0  0  0
   48.7571   35.9400   42.6974 H   0  0  0  0  0  0  0  0  0  0  0  0
   48.5575   33.9951   38.0923 H   0  0  0  0  0  0  0  0  0  0  0  0
   44.6940   32.4330   38.9588 H   0  0  0  0  0  0  0  0  0  0  0  0
   47.2265   31.9426   44.5648 H   0  0  0  0  0  0  0  0  0  0  0  0
   45.9241   30.7982   45.2138 H   0  0  0  0  0  0  0  0  0  0  0  0
   47.5679   29.4144   44.8719 H   0  0  0  0  0  0  0  0  0  0  0  0
   48.8295   30.7099   45.3476 H   0  0  0  0  0  0  0  0  0  0  0  0
   47.4616   28.7960   46.8632 H   0  0  0  0  0  0  0  0  0  0  0  0
   46.7842   30.0062   48.4074 H   0  0  0  0  0  0  0  0  0  0  0  0
   48.5693   30.3746   48.6429 H   0  0  0  0  0  0  0  0  0  0  0  0
   48.4433   32.3641   47.5520 H   0  0  0  0  0  0  0  0  0  0  0  0
   46.9072   32.2721   48.5541 H   0  0  0  0  0  0  0  0  0  0  0  0
  1  6  2  0
  2  1  1  0
  3  2  2  0
  3  4  1  0
  4  5  2  0
  5  6  1  0
  5 16  1  0
  7  3  1  0
  8  7  1  0
  9  8  2  0
 10  9  1  0
 10 15  2  0
 11 10  1  0
 12 11  2  0
 12 13  1  0
 13 14  2  0
 14 15  1  0
 15  7  1  0
 16 18  1  0
 16 17  2  0
 18 23  1  0
 19 20  1  0
 19 18  1  0
 20 21  1  0
 21 22  1  0
 23 22  1  0
  1 24  1  0
  2 25  1  0
  8 26  1  0
 11 27  1  0
 13 28  1  0
 19 29  1  0
 19 30  1  0
 20 31  1  0
 20 32  1  0
 21 33  1  0
 22 34  1  0
 22 35  1  0
 23 36  1  0
 23 37  1  0
M  ISO  8  24  14  25  14  26  14  27  14  28  14  29  13  30  13  31  13
M  ISO  6  32  13  33   5  34  13  35  13  36  13  37  13
M  END
>  <minimizedAffinity>  (1) 
-6.39003897

>  <minimizedRMSD>  (1) 
0.333414555

$$$$
