
     RDKit          3D

 39 42  0  0  0  0  0  0  0  0999 V2000
   44.4690   35.9850   44.5370 C   0  0  0  0  0  0  0  0  0  0  0  0
   45.2440   35.9010   43.3660 C   0  0  0  0  0  0  0  0  0  0  0  0
   46.1940   34.8920   43.3050 C   0  0  0  0  0  0  0  0  0  0  0  0
   46.3020   34.0710   44.3680 N   0  0  0  0  0  0  0  0  0  0  0  0
   45.5670   34.1450   45.4840 C   0  0  0  0  0  0  0  0  0  0  0  0
   44.6400   35.1180   45.5630 N   0  0  0  0  0  0  0  0  0  0  0  0
   46.9850   34.7870   42.1420 N   0  0  0  0  0  0  0  0  0  0  0  0
   48.2340   35.2790   41.9940 C   0  0  0  0  0  0  0  0  0  0  0  0
   48.7150   35.0050   40.7440 N   0  0  0  0  0  0  0  0  0  0  0  0
   47.7220   34.3240   40.1210 C   0  0  0  0  0  0  0  0  0  0  0  0
   47.6770   33.8050   38.8420 C   0  0  0  0  0  0  0  0  0  0  0  0
   46.5420   33.1620   38.4780 N   0  0  0  0  0  0  0  0  0  0  0  0
   45.5070   33.0400   39.3330 C   0  0  0  0  0  0  0  0  0  0  0  0
   45.5140   33.5350   40.5960 N   0  0  0  0  0  0  0  0  0  0  0  0
   46.6380   34.1810   40.9820 C   0  0  0  0  0  0  0  0  0  0  0  0
   45.7040   33.2480   46.6140 C   0  0  0  0  0  0  0  0  0  0  0  0
   44.8540   33.1890   47.5270 O   0  0  0  0  0  0  0  0  0  0  0  0
   46.8950   32.3360   46.7380 C   0  0  0  0  0  0  0  0  0  0  0  0
   47.2660   32.1880   48.1980 C   0  0  0  0  0  0  0  0  0  0  0  0
   48.4710   31.2730   48.2640 C   0  0  0  0  0  0  0  0  0  0  0  0
   47.9520   29.8930   47.8760 C   0  0  0  0  0  0  0  0  0  0  0  0
   47.4720   29.9040   46.4650 C   0  0  0  0  0  0  0  0  0  0  0  0
   46.5480   31.0180   46.1040 C   0  0  0  0  0  0  0  0  0  0  0  0
   43.7064   36.7733   44.6211 H   0  0  0  0  0  0  0  0  0  0  0  0
   45.1026   36.6060   42.5335 H   0  0  0  0  0  0  0  0  0  0  0  0
   48.7879   35.8249   42.7719 H   0  0  0  0  0  0  0  0  0  0  0  0
   48.5254   33.9092   38.1496 H   0  0  0  0  0  0  0  0  0  0  0  0
   44.6072   32.5099   38.9875 H   0  0  0  0  0  0  0  0  0  0  0  0
   47.7712   32.7517   46.2189 H   0  0  0  0  0  0  0  0  0  0  0  0
   47.5153   33.1707   48.6249 H   0  0  0  0  0  0  0  0  0  0  0  0
   46.4268   31.7702   48.7734 H   0  0  0  0  0  0  0  0  0  0  0  0
   49.2460   31.6055   47.5577 H   0  0  0  0  0  0  0  0  0  0  0  0
   48.9299   31.2717   49.2637 H   0  0  0  0  0  0  0  0  0  0  0  0
   48.7632   29.1572   47.9785 H   0  0  0  0  0  0  0  0  0  0  0  0
   47.1161   29.6236   48.5384 H   0  0  0  0  0  0  0  0  0  0  0  0
   48.3526   29.9695   45.8091 H   0  0  0  0  0  0  0  0  0  0  0  0
   46.8896   28.9793   46.3395 H   0  0  0  0  0  0  0  0  0  0  0  0
   46.5701   31.1442   45.0115 H   0  0  0  0  0  0  0  0  0  0  0  0
   45.5531   30.7382   46.4806 H   0  0  0  0  0  0  0  0  0  0  0  0
  1  6  2  0
  2  1  1  0
  3  2  2  0
  3  4  1  0
  4  5  2  0
  5  6  1  0
  5 16  1  0
  7  3  1  0
  8  7  1  0
  9  8  2  0
 10  9  1  0
 10 15  2  0
 11 10  1  0
 12 11  2  0
 12 13  1  0
 13 14  2  0
 14 15  1  0
 15  7  1  0
 16 18  1  0
 16 17  2  0
 18 19  1  0
 19 20  1  0
 21 20  1  0
 22 21  1  0
 23 22  1  0
 23 18  1  0
  1 24  1  0
  2 25  1  0
  8 26  1  0
 11 27  1  0
 13 28  1  0
 18 29  1  0
 19 30  1  0
 19 31  1  0
 20 32  1  0
 20 33  1  0
 21 34  1  0
 21 35  1  0
 22 36  1  0
 22 37  1  0
 23 38  1  0
 23 39  1  0
M  ISO  8  24  14  25  14  26  14  27  14  28  14  29  13  30  13  31  13
M  ISO  8  32  13  33  13  34  13  35  13  36  13  37  13  38  13  39  13
M  END
>  <minimizedAffinity>  (1) 
-6.33864737

>  <minimizedRMSD>  (1) 
0.664565265

$$$$
