
     RDKit          3D

 36 39  0  0  0  0  0  0  0  0999 V2000
   44.4840   36.0990   44.4630 C   0  0  0  0  0  0  0  0  0  0  0  0
   45.2760   35.9710   43.3050 C   0  0  0  0  0  0  0  0  0  0  0  0
   46.1900   34.8970   43.2640 C   0  0  0  0  0  0  0  0  0  0  0  0
   46.2300   34.0830   44.3310 N   0  0  0  0  0  0  0  0  0  0  0  0
   45.4720   34.2160   45.4240 C   0  0  0  0  0  0  0  0  0  0  0  0
   44.5910   35.2260   45.5000 N   0  0  0  0  0  0  0  0  0  0  0  0
   46.9840   34.7720   42.1040 N   0  0  0  0  0  0  0  0  0  0  0  0
   48.2540   35.2690   41.9810 C   0  0  0  0  0  0  0  0  0  0  0  0
   48.7380   34.9970   40.7410 N   0  0  0  0  0  0  0  0  0  0  0  0
   47.7370   34.3230   40.1020 C   0  0  0  0  0  0  0  0  0  0  0  0
   47.6920   33.8160   38.8260 C   0  0  0  0  0  0  0  0  0  0  0  0
   46.5620   33.1850   38.4460 N   0  0  0  0  0  0  0  0  0  0  0  0
   45.5050   33.0590   39.3040 C   0  0  0  0  0  0  0  0  0  0  0  0
   45.5170   33.5470   40.5590 N   0  0  0  0  0  0  0  0  0  0  0  0
   46.6440   34.1820   40.9530 C   0  0  0  0  0  0  0  0  0  0  0  0
   45.5590   33.3010   46.5510 C   0  0  0  0  0  0  0  0  0  0  0  0
   44.8050   33.4200   47.5530 O   0  0  0  0  0  0  0  0  0  0  0  0
   48.2730   30.0100   47.0140 C   0  0  0  0  0  0  0  0  0  0  0  0
   48.2190   31.0310   47.9340 C   0  0  0  0  0  0  0  0  0  0  0  0
   47.3230   32.0900   47.7540 C   0  0  0  0  0  0  0  0  0  0  0  0
   46.4630   32.1840   46.6860 C   0  0  0  0  0  0  0  0  0  0  0  0
   46.5430   31.1330   45.7700 C   0  0  0  0  0  0  0  0  0  0  0  0
   47.4120   30.0860   45.9240 C   0  0  0  0  0  0  0  0  0  0  0  0
   49.3480   28.6470   47.1410 S   0  0  0  0  0  0  0  0  0  0  0  0
   50.7290   29.0730   47.5510 O   0  0  0  0  0  0  0  0  0  0  0  0
   48.8000   27.6200   48.0960 O   0  0  0  0  0  0  0  0  0  0  0  0
   43.7612   36.9255   44.5299 H   0  0  0  0  0  0  0  0  0  0  0  0
   45.1856   36.6788   42.4678 H   0  0  0  0  0  0  0  0  0  0  0  0
   48.8008   35.8081   42.7687 H   0  0  0  0  0  0  0  0  0  0  0  0
   48.5454   33.9207   38.1399 H   0  0  0  0  0  0  0  0  0  0  0  0
   44.6037   32.5351   38.9531 H   0  0  0  0  0  0  0  0  0  0  0  0
   48.8811   31.0148   48.8123 H   0  0  0  0  0  0  0  0  0  0  0  0
   47.3058   32.8908   48.5079 H   0  0  0  0  0  0  0  0  0  0  0  0
   45.8823   31.1467   44.8906 H   0  0  0  0  0  0  0  0  0  0  0  0
   47.4297   29.2867   45.1685 H   0  0  0  0  0  0  0  0  0  0  0  0
   49.4407   28.0748   45.8997 H   0  0  0  0  0  0  0  0  0  0  0  0
  1  6  2  0
  2  1  1  0
  3  2  2  0
  3  4  1  0
  4  5  2  0
  5  6  1  0
  5 16  1  0
  7  3  1  0
  8  7  1  0
  9  8  2  0
 10  9  1  0
 10 15  2  0
 11 10  1  0
 12 11  2  0
 12 13  1  0
 13 14  2  0
 14 15  1  0
 15  7  1  0
 16 21  1  0
 16 17  2  0
 18 24  1  0
 18 19  2  0
 20 19  1  0
 21 20  2  0
 22 23  2  0
 22 21  1  0
 23 18  1  0
 24 25  2  0
 24 26  2  0
  1 27  1  0
  2 28  1  0
  8 29  1  0
 11 30  1  0
 13 31  1  0
 19 32  1  0
 20 33  1  0
 22 34  1  0
 23 35  1  0
 24 36  1  0
M  ISO  8  27  14  28  14  29  14  30  14  31  14  32  14  33  14  34  14
M  ISO  2  35  14  36  11
M  END
>  <minimizedAffinity>  (1) 
-6.21214104

>  <minimizedRMSD>  (1) 
0.576402009

$$$$
