
     RDKit          3D

 32 35  0  0  0  0  0  0  0  0999 V2000
   44.5130   36.1010   44.4990 C   0  0  0  0  0  0  0  0  0  0  0  0
   45.3020   36.0040   43.3370 C   0  0  0  0  0  0  0  0  0  0  0  0
   46.1860   34.9200   43.2450 C   0  0  0  0  0  0  0  0  0  0  0  0
   46.2180   34.0480   44.2730 N   0  0  0  0  0  0  0  0  0  0  0  0
   45.4570   34.1510   45.3790 C   0  0  0  0  0  0  0  0  0  0  0  0
   44.6050   35.1800   45.4880 N   0  0  0  0  0  0  0  0  0  0  0  0
   46.9800   34.8200   42.0820 N   0  0  0  0  0  0  0  0  0  0  0  0
   48.2240   35.3460   41.9390 C   0  0  0  0  0  0  0  0  0  0  0  0
   48.7130   35.0730   40.6970 N   0  0  0  0  0  0  0  0  0  0  0  0
   47.7380   34.3650   40.0800 C   0  0  0  0  0  0  0  0  0  0  0  0
   47.7110   33.8340   38.8050 C   0  0  0  0  0  0  0  0  0  0  0  0
   46.5960   33.1620   38.4370 N   0  0  0  0  0  0  0  0  0  0  0  0
   45.5600   33.0210   39.2880 C   0  0  0  0  0  0  0  0  0  0  0  0
   45.5410   33.5200   40.5430 N   0  0  0  0  0  0  0  0  0  0  0  0
   46.6530   34.1980   40.9270 C   0  0  0  0  0  0  0  0  0  0  0  0
   45.5260   33.1810   46.4670 C   0  0  0  0  0  0  0  0  0  0  0  0
   44.9610   33.4000   47.5610 O   0  0  0  0  0  0  0  0  0  0  0  0
   46.2570   31.9260   46.3120 C   0  0  0  0  0  0  0  0  0  0  0  0
   47.2770   31.6470   47.1990 C   0  0  0  0  0  0  0  0  0  0  0  0
   48.0180   30.4690   47.1140 C   0  0  0  0  0  0  0  0  0  0  0  0
   47.7000   29.5760   46.1060 C   0  0  0  0  0  0  0  0  0  0  0  0
   46.6680   29.8720   45.2190 C   0  0  0  0  0  0  0  0  0  0  0  0
   45.9730   31.0360   45.3430 N   0  0  0  0  0  0  0  0  0  0  0  0
   43.8093   36.9397   44.6056 H   0  0  0  0  0  0  0  0  0  0  0  0
   45.2276   36.7502   42.5322 H   0  0  0  0  0  0  0  0  0  0  0  0
   48.7602   35.9117   42.7152 H   0  0  0  0  0  0  0  0  0  0  0  0
   48.5612   33.9527   38.1172 H   0  0  0  0  0  0  0  0  0  0  0  0
   44.6767   32.4660   38.9392 H   0  0  0  0  0  0  0  0  0  0  0  0
   47.5111   32.3719   47.9926 H   0  0  0  0  0  0  0  0  0  0  0  0
   48.8295   30.2563   47.8255 H   0  0  0  0  0  0  0  0  0  0  0  0
   48.2607   28.6350   46.0056 H   0  0  0  0  0  0  0  0  0  0  0  0
   46.4139   29.1638   44.4166 H   0  0  0  0  0  0  0  0  0  0  0  0
  1  6  2  0
  2  1  1  0
  3  2  2  0
  3  4  1  0
  4  5  2  0
  5  6  1  0
  5 16  1  0
  7  3  1  0
  8  7  1  0
  9  8  2  0
 10  9  1  0
 10 15  2  0
 11 10  1  0
 12 11  2  0
 12 13  1  0
 13 14  2  0
 14 15  1  0
 15  7  1  0
 16 17  2  0
 18 16  1  0
 18 19  2  0
 20 19  1  0
 21 20  2  0
 22 23  2  0
 22 21  1  0
 23 18  1  0
  1 24  1  0
  2 25  1  0
  8 26  1  0
 11 27  1  0
 13 28  1  0
 19 29  1  0
 20 30  1  0
 21 31  1  0
 22 32  1  0
M  ISO  8  24  14  25  14  26  14  27  14  28  14  29  14  30  14  31  14
M  ISO  1  32  14
M  END
>  <minimizedAffinity>  (1) 
-5.9464488

>  <minimizedRMSD>  (1) 
0.798730314

$$$$
