
     RDKit          3D

 30 33  0  0  0  0  0  0  0  0999 V2000
   44.5170   36.0970   44.4970 C   0  0  0  0  0  0  0  0  0  0  0  0
   45.3100   35.9980   43.3410 C   0  0  0  0  0  0  0  0  0  0  0  0
   46.2000   34.9090   43.2500 C   0  0  0  0  0  0  0  0  0  0  0  0
   46.2330   34.0320   44.2740 N   0  0  0  0  0  0  0  0  0  0  0  0
   45.4630   34.1430   45.3760 C   0  0  0  0  0  0  0  0  0  0  0  0
   44.6040   35.1730   45.4920 N   0  0  0  0  0  0  0  0  0  0  0  0
   46.9930   34.8190   42.0830 N   0  0  0  0  0  0  0  0  0  0  0  0
   48.2290   35.3540   41.9350 C   0  0  0  0  0  0  0  0  0  0  0  0
   48.7160   35.0920   40.6970 N   0  0  0  0  0  0  0  0  0  0  0  0
   47.7520   34.3770   40.0730 C   0  0  0  0  0  0  0  0  0  0  0  0
   47.7060   33.8440   38.7990 C   0  0  0  0  0  0  0  0  0  0  0  0
   46.6070   33.1700   38.4370 N   0  0  0  0  0  0  0  0  0  0  0  0
   45.5590   33.0110   39.3000 C   0  0  0  0  0  0  0  0  0  0  0  0
   45.5720   33.5190   40.5490 N   0  0  0  0  0  0  0  0  0  0  0  0
   46.6670   34.1990   40.9320 C   0  0  0  0  0  0  0  0  0  0  0  0
   45.5300   33.1760   46.4570 C   0  0  0  0  0  0  0  0  0  0  0  0
   44.9600   33.3880   47.5610 O   0  0  0  0  0  0  0  0  0  0  0  0
   46.2640   31.9200   46.3020 C   0  0  0  0  0  0  0  0  0  0  0  0
   47.3660   31.5550   47.0450 C   0  0  0  0  0  0  0  0  0  0  0  0
   47.6950   30.3130   46.5420 C   0  0  0  0  0  0  0  0  0  0  0  0
   46.8670   29.9450   45.5740 N   0  0  0  0  0  0  0  0  0  0  0  0
   45.9880   30.9260   45.4240 N   0  0  0  0  0  0  0  0  0  0  0  0
   43.8135   36.9364   44.5993 H   0  0  0  0  0  0  0  0  0  0  0  0
   45.2386   36.7440   42.5358 H   0  0  0  0  0  0  0  0  0  0  0  0
   48.7630   35.9218   42.7111 H   0  0  0  0  0  0  0  0  0  0  0  0
   48.5479   33.9697   38.1023 H   0  0  0  0  0  0  0  0  0  0  0  0
   44.6748   32.4494   38.9641 H   0  0  0  0  0  0  0  0  0  0  0  0
   47.8642   32.1191   47.8473 H   0  0  0  0  0  0  0  0  0  0  0  0
   48.5387   29.7043   46.8994 H   0  0  0  0  0  0  0  0  0  0  0  0
   46.9004   29.0647   45.0403 H   0  0  0  0  0  0  0  0  0  0  0  0
  1  6  2  0
  2  1  1  0
  3  2  2  0
  3  4  1  0
  4  5  2  0
  5  6  1  0
  5 16  1  0
  7  3  1  0
  8  7  1  0
  9  8  2  0
 10  9  1  0
 10 15  2  0
 11 10  1  0
 12 11  2  0
 12 13  1  0
 13 14  2  0
 14 15  1  0
 15  7  1  0
 16 17  2  0
 18 16  1  0
 18 19  1  0
 20 19  2  0
 21 20  1  0
 22 21  1  0
 22 18  2  0
  1 23  1  0
  2 24  1  0
  8 25  1  0
 11 26  1  0
 13 27  1  0
 19 28  1  0
 20 29  1  0
 21 30  1  0
M  ISO  8  23  14  24  14  25  14  26  14  27  14  28  14  29  14  30   9
M  END
>  <minimizedAffinity>  (1) 
-5.75805712

>  <minimizedRMSD>  (1) 
0.599464059

$$$$
