
     RDKit          3D

 29 32  0  0  0  0  0  0  0  0999 V2000
   44.5220   36.0930   44.5110 C   0  0  0  0  0  0  0  0  0  0  0  0
   45.3110   36.0010   43.3470 C   0  0  0  0  0  0  0  0  0  0  0  0
   46.1820   34.9200   43.2500 C   0  0  0  0  0  0  0  0  0  0  0  0
   46.2260   34.0190   44.2730 N   0  0  0  0  0  0  0  0  0  0  0  0
   45.4490   34.1450   45.3750 C   0  0  0  0  0  0  0  0  0  0  0  0
   44.6070   35.1670   45.4960 N   0  0  0  0  0  0  0  0  0  0  0  0
   46.9730   34.8240   42.0850 N   0  0  0  0  0  0  0  0  0  0  0  0
   48.2210   35.3570   41.9340 C   0  0  0  0  0  0  0  0  0  0  0  0
   48.7100   35.0890   40.6980 N   0  0  0  0  0  0  0  0  0  0  0  0
   47.7410   34.3730   40.0690 C   0  0  0  0  0  0  0  0  0  0  0  0
   47.7130   33.8440   38.7970 C   0  0  0  0  0  0  0  0  0  0  0  0
   46.5970   33.1690   38.4420 N   0  0  0  0  0  0  0  0  0  0  0  0
   45.5580   33.0180   39.2920 C   0  0  0  0  0  0  0  0  0  0  0  0
   45.5470   33.5230   40.5510 N   0  0  0  0  0  0  0  0  0  0  0  0
   46.6560   34.2090   40.9380 C   0  0  0  0  0  0  0  0  0  0  0  0
   45.5340   33.1460   46.4510 C   0  0  0  0  0  0  0  0  0  0  0  0
   44.9800   33.3840   47.5670 O   0  0  0  0  0  0  0  0  0  0  0  0
   46.2510   31.8660   46.2690 C   0  0  0  0  0  0  0  0  0  0  0  0
   47.3440   31.6430   47.0760 C   0  0  0  0  0  0  0  0  0  0  0  0
   47.8860   30.0010   46.5150 S   0  0  0  0  0  0  0  0  0  0  0  0
   46.4840   29.8990   45.2360 C   0  0  0  0  0  0  0  0  0  0  0  0
   45.9250   30.9250   45.3960 N   0  0  0  0  0  0  0  0  0  0  0  0
   43.8223   36.9345   44.6221 H   0  0  0  0  0  0  0  0  0  0  0  0
   45.2412   36.7532   42.5474 H   0  0  0  0  0  0  0  0  0  0  0  0
   48.7562   35.9257   42.7087 H   0  0  0  0  0  0  0  0  0  0  0  0
   48.5583   33.9652   38.1037 H   0  0  0  0  0  0  0  0  0  0  0  0
   44.6769   32.4576   38.9460 H   0  0  0  0  0  0  0  0  0  0  0  0
   47.7756   32.2885   47.8551 H   0  0  0  0  0  0  0  0  0  0  0  0
   46.2530   29.0898   44.5276 H   0  0  0  0  0  0  0  0  0  0  0  0
  1  6  2  0
  2  1  1  0
  3  2  2  0
  3  4  1  0
  4  5  2  0
  5  6  1  0
  5 16  1  0
  7  3  1  0
  8  7  1  0
  9  8  2  0
 10  9  1  0
 10 15  2  0
 11 10  1  0
 12 11  2  0
 12 13  1  0
 13 14  2  0
 14 15  1  0
 15  7  1  0
 16 17  2  0
 18 16  1  0
 18 19  2  0
 20 19  1  0
 21 22  2  0
 21 20  1  0
 22 18  1  0
  1 23  1  0
  2 24  1  0
  8 25  1  0
 11 26  1  0
 13 27  1  0
 19 28  1  0
 21 29  1  0
M  ISO  7  23  14  24  14  25  14  26  14  27  14  28  14  29  14
M  END
>  <minimizedAffinity>  (1) 
-5.70703697

>  <minimizedRMSD>  (1) 
0.549203455

$$$$
