
     RDKit          3D

 33 36  0  0  0  0  0  0  0  0999 V2000
   44.4820   36.0890   44.4800 C   0  0  0  0  0  0  0  0  0  0  0  0
   45.2690   35.9920   43.3070 C   0  0  0  0  0  0  0  0  0  0  0  0
   46.1810   34.9230   43.2570 C   0  0  0  0  0  0  0  0  0  0  0  0
   46.2240   34.0940   44.3150 N   0  0  0  0  0  0  0  0  0  0  0  0
   45.4720   34.1970   45.4190 C   0  0  0  0  0  0  0  0  0  0  0  0
   44.5970   35.2010   45.5000 N   0  0  0  0  0  0  0  0  0  0  0  0
   46.9800   34.8050   42.0940 N   0  0  0  0  0  0  0  0  0  0  0  0
   48.2340   35.3030   41.9650 C   0  0  0  0  0  0  0  0  0  0  0  0
   48.7280   35.0240   40.7200 N   0  0  0  0  0  0  0  0  0  0  0  0
   47.7360   34.3390   40.0910 C   0  0  0  0  0  0  0  0  0  0  0  0
   47.6930   33.8090   38.8150 C   0  0  0  0  0  0  0  0  0  0  0  0
   46.5540   33.1630   38.4530 N   0  0  0  0  0  0  0  0  0  0  0  0
   45.5130   33.0470   39.3060 C   0  0  0  0  0  0  0  0  0  0  0  0
   45.5230   33.5500   40.5520 N   0  0  0  0  0  0  0  0  0  0  0  0
   46.6450   34.2000   40.9450 C   0  0  0  0  0  0  0  0  0  0  0  0
   45.5630   33.2690   46.5310 C   0  0  0  0  0  0  0  0  0  0  0  0
   44.8610   33.3980   47.5530 O   0  0  0  0  0  0  0  0  0  0  0  0
   46.4530   32.1170   46.5890 C   0  0  0  0  0  0  0  0  0  0  0  0
   47.3450   31.9540   47.6290 C   0  0  0  0  0  0  0  0  0  0  0  0
   48.1830   30.8370   47.6570 C   0  0  0  0  0  0  0  0  0  0  0  0
   48.1630   29.8690   46.6750 C   0  0  0  0  0  0  0  0  0  0  0  0
   47.2680   30.0420   45.6400 C   0  0  0  0  0  0  0  0  0  0  0  0
   46.4450   31.1390   45.6150 C   0  0  0  0  0  0  0  0  0  0  0  0
   43.7547   36.9096   44.5674 H   0  0  0  0  0  0  0  0  0  0  0  0
   45.1724   36.7124   42.4813 H   0  0  0  0  0  0  0  0  0  0  0  0
   48.7765   35.8524   42.7485 H   0  0  0  0  0  0  0  0  0  0  0  0
   48.5430   33.9060   38.1236 H   0  0  0  0  0  0  0  0  0  0  0  0
   44.6132   32.5148   38.9639 H   0  0  0  0  0  0  0  0  0  0  0  0
   47.3960   32.7019   48.4340 H   0  0  0  0  0  0  0  0  0  0  0  0
   48.8865   30.7250   48.4952 H   0  0  0  0  0  0  0  0  0  0  0  0
   48.8319   28.9967   46.7154 H   0  0  0  0  0  0  0  0  0  0  0  0
   47.2140   29.2977   44.8318 H   0  0  0  0  0  0  0  0  0  0  0  0
   45.7423   31.2448   44.7754 H   0  0  0  0  0  0  0  0  0  0  0  0
  1  6  2  0
  2  1  1  0
  3  2  2  0
  3  4  1  0
  4  5  2  0
  5  6  1  0
  5 16  1  0
  7  3  1  0
  8  7  1  0
  9  8  2  0
 10  9  1  0
 10 15  2  0
 11 10  1  0
 12 11  2  0
 12 13  1  0
 13 14  2  0
 14 15  1  0
 15  7  1  0
 16 18  1  0
 16 17  2  0
 18 19  2  0
 19 20  1  0
 21 20  2  0
 22 21  1  0
 23 22  2  0
 23 18  1  0
  1 24  1  0
  2 25  1  0
  8 26  1  0
 11 27  1  0
 13 28  1  0
 19 29  1  0
 20 30  1  0
 21 31  1  0
 22 32  1  0
 23 33  1  0
M  ISO  8  24  14  25  14  26  14  27  14  28  14  29  14  30  14  31  14
M  ISO  2  32  14  33  14
M  END
>  <minimizedAffinity>  (1) 
-6.1678133

>  <minimizedRMSD>  (1) 
0.568410099

$$$$
