
     RDKit          3D

 42 46  0  0  0  0  0  0  0  0999 V2000
   44.7150   35.4800   44.7910 C   0  0  0  0  0  0  0  0  0  0  0  0
   45.6020   35.3090   43.6930 C   0  0  0  0  0  0  0  0  0  0  0  0
   46.5340   34.2580   43.8030 C   0  0  0  0  0  0  0  0  0  0  0  0
   46.5030   33.5190   44.9200 N   0  0  0  0  0  0  0  0  0  0  0  0
   45.6540   33.6920   45.9540 C   0  0  0  0  0  0  0  0  0  0  0  0
   44.7560   34.6800   45.8850 N   0  0  0  0  0  0  0  0  0  0  0  0
   47.4090   34.0550   42.7170 N   0  0  0  0  0  0  0  0  0  0  0  0
   48.7470   34.1300   42.7900 C   0  0  0  0  0  0  0  0  0  0  0  0
   49.3040   33.8850   41.5600 N   0  0  0  0  0  0  0  0  0  0  0  0
   48.2520   33.6560   40.7290 C   0  0  0  0  0  0  0  0  0  0  0  0
   48.2500   33.3610   39.3830 C   0  0  0  0  0  0  0  0  0  0  0  0
   47.0320   33.1800   38.8060 N   0  0  0  0  0  0  0  0  0  0  0  0
   45.8910   33.2870   39.5270 C   0  0  0  0  0  0  0  0  0  0  0  0
   45.8720   33.5740   40.8380 N   0  0  0  0  0  0  0  0  0  0  0  0
   47.0560   33.7610   41.4480 C   0  0  0  0  0  0  0  0  0  0  0  0
   45.6480   32.8290   47.1350 C   0  0  0  0  0  0  0  0  0  0  0  0
   44.6760   32.8160   47.9150 O   0  0  0  0  0  0  0  0  0  0  0  0
   46.7220   31.9300   47.5190 C   0  0  0  0  0  0  0  0  0  0  0  0
   47.7310   32.3810   48.3720 C   0  0  0  0  0  0  0  0  0  0  0  0
   48.7800   31.5440   48.7250 C   0  0  0  0  0  0  0  0  0  0  0  0
   48.8600   30.2460   48.2450 C   0  0  0  0  0  0  0  0  0  0  0  0
   47.8450   29.8170   47.3960 C   0  0  0  0  0  0  0  0  0  0  0  0
   46.7950   30.6510   47.0470 C   0  0  0  0  0  0  0  0  0  0  0  0
   45.7840   30.0170   46.2170 C   0  0  0  0  0  0  0  0  0  0  0  0
   44.7870   29.2230   46.7320 C   0  0  0  0  0  0  0  0  0  0  0  0
   43.8050   28.5850   46.0080 C   0  0  0  0  0  0  0  0  0  0  0  0
   43.8080   28.7480   44.6420 C   0  0  0  0  0  0  0  0  0  0  0  0
   44.7930   29.5360   44.0980 C   0  0  0  0  0  0  0  0  0  0  0  0
   45.7010   30.1130   44.8830 N   0  0  0  0  0  0  0  0  0  0  0  0
   43.9703   36.2886   44.7516 H   0  0  0  0  0  0  0  0  0  0  0  0
   45.5628   35.9605   42.8076 H   0  0  0  0  0  0  0  0  0  0  0  0
   49.3155   34.3555   43.7043 H   0  0  0  0  0  0  0  0  0  0  0  0
   49.1830   33.2765   38.8065 H   0  0  0  0  0  0  0  0  0  0  0  0
   44.9314   33.1309   39.0125 H   0  0  0  0  0  0  0  0  0  0  0  0
   47.6942   33.4070   48.7670 H   0  0  0  0  0  0  0  0  0  0  0  0
   49.5642   31.9182   49.3996 H   0  0  0  0  0  0  0  0  0  0  0  0
   49.6919   29.5825   48.5240 H   0  0  0  0  0  0  0  0  0  0  0  0
   47.8766   28.7939   46.9931 H   0  0  0  0  0  0  0  0  0  0  0  0
   44.7724   29.0846   47.8232 H   0  0  0  0  0  0  0  0  0  0  0  0
   43.0437   27.9658   46.5050 H   0  0  0  0  0  0  0  0  0  0  0  0
   43.0494   28.2650   44.0085 H   0  0  0  0  0  0  0  0  0  0  0  0
   44.8319   29.6910   43.0097 H   0  0  0  0  0  0  0  0  0  0  0  0
  1  6  2  0
  2  3  2  0
  2  1  1  0
  3  4  1  0
  4  5  2  0
  5 16  1  0
  6  5  1  0
  7  8  1  0
  7  3  1  0
  9  8  2  0
 10 15  2  0
 10  9  1  0
 11 10  1  0
 12 11  2  0
 12 13  1  0
 13 14  2  0
 14 15  1  0
 15  7  1  0
 16 18  1  0
 16 17  2  0
 18 19  2  0
 19 20  1  0
 21 20  2  0
 22 21  1  0
 23 22  2  0
 23 18  1  0
 24 25  2  0
 24 23  1  0
 26 25  1  0
 27 26  2  0
 28 27  1  0
 28 29  2  0
 29 24  1  0
  1 30  1  0
  2 31  1  0
  8 32  1  0
 11 33  1  0
 13 34  1  0
 19 35  1  0
 20 36  1  0
 21 37  1  0
 22 38  1  0
 25 39  1  0
 26 40  1  0
 27 41  1  0
 28 42  1  0
M  ISO  8  30  14  31  14  32  14  33  14  34  14  35  14  36  14  37  14
M  ISO  5  38  14  39  14  40  14  41  14  42  14
M  END
>  <minimizedAffinity>  (1) 
-6.44120598

>  <minimizedRMSD>  (1) 
1.54685092

$$$$
