
     RDKit          3D

 36 39  0  0  0  0  0  0  0  0999 V2000
   44.5280   36.0510   44.5110 C   0  0  0  0  0  0  0  0  0  0  0  0
   45.3170   35.9850   43.3350 C   0  0  0  0  0  0  0  0  0  0  0  0
   46.2340   34.9180   43.2660 C   0  0  0  0  0  0  0  0  0  0  0  0
   46.2800   34.0700   44.3040 N   0  0  0  0  0  0  0  0  0  0  0  0
   45.5200   34.1540   45.4100 C   0  0  0  0  0  0  0  0  0  0  0  0
   44.6430   35.1410   45.5190 N   0  0  0  0  0  0  0  0  0  0  0  0
   47.0240   34.8190   42.0970 N   0  0  0  0  0  0  0  0  0  0  0  0
   48.2550   35.3410   41.9540 C   0  0  0  0  0  0  0  0  0  0  0  0
   48.7350   35.0640   40.7000 N   0  0  0  0  0  0  0  0  0  0  0  0
   47.7510   34.3540   40.0850 C   0  0  0  0  0  0  0  0  0  0  0  0
   47.7190   33.8220   38.8030 C   0  0  0  0  0  0  0  0  0  0  0  0
   46.5820   33.1480   38.4610 N   0  0  0  0  0  0  0  0  0  0  0  0
   45.5630   33.0140   39.3230 C   0  0  0  0  0  0  0  0  0  0  0  0
   45.5650   33.5160   40.5670 N   0  0  0  0  0  0  0  0  0  0  0  0
   46.6820   34.1960   40.9470 C   0  0  0  0  0  0  0  0  0  0  0  0
   45.6120   33.1850   46.4990 C   0  0  0  0  0  0  0  0  0  0  0  0
   44.8450   33.2570   47.4950 O   0  0  0  0  0  0  0  0  0  0  0  0
   46.5410   32.0810   46.5740 C   0  0  0  0  0  0  0  0  0  0  0  0
   47.3750   31.9130   47.6510 C   0  0  0  0  0  0  0  0  0  0  0  0
   48.2700   30.8450   47.6890 C   0  0  0  0  0  0  0  0  0  0  0  0
   48.3650   29.9270   46.6770 C   0  0  0  0  0  0  0  0  0  0  0  0
   47.5320   30.0960   45.6030 C   0  0  0  0  0  0  0  0  0  0  0  0
   46.6500   31.1530   45.5770 C   0  0  0  0  0  0  0  0  0  0  0  0
   45.8100   31.1020   44.4050 C   0  0  0  0  0  0  0  0  0  0  0  0
   46.1050   30.8690   43.2100 O   0  0  0  0  0  0  0  0  0  0  0  0
   44.5290   31.2300   43.9740 O   0  0  0  0  0  0  0  0  0  0  0  0
   43.7966   36.8661   44.6136 H   0  0  0  0  0  0  0  0  0  0  0  0
   45.2190   36.7228   42.5250 H   0  0  0  0  0  0  0  0  0  0  0  0
   48.7960   35.9058   42.7275 H   0  0  0  0  0  0  0  0  0  0  0  0
   48.5604   33.9368   38.1038 H   0  0  0  0  0  0  0  0  0  0  0  0
   44.6731   32.4597   38.9901 H   0  0  0  0  0  0  0  0  0  0  0  0
   47.3370   32.6249   48.4887 H   0  0  0  0  0  0  0  0  0  0  0  0
   48.9253   30.7352   48.5657 H   0  0  0  0  0  0  0  0  0  0  0  0
   49.0785   29.0912   46.7247 H   0  0  0  0  0  0  0  0  0  0  0  0
   47.5676   29.3879   44.7620 H   0  0  0  0  0  0  0  0  0  0  0  0
   44.3161   31.1165   43.0139 H   0  0  0  0  0  0  0  0  0  0  0  0
  1  6  2  0
  2  1  1  0
  3  2  2  0
  3  4  1  0
  4  5  2  0
  5  6  1  0
  5 16  1  0
  7  3  1  0
  8  7  1  0
  9  8  2  0
 10  9  1  0
 10 15  2  0
 11 10  1  0
 12 11  2  0
 12 13  1  0
 13 14  2  0
 14 15  1  0
 15  7  1  0
 16 18  1  0
 16 17  2  0
 18 19  2  0
 19 20  1  0
 21 20  2  0
 22 21  1  0
 23 22  2  0
 23 18  1  0
 24 23  1  0
 25 24  2  0
 26 24  1  0
  1 27  1  0
  2 28  1  0
  8 29  1  0
 11 30  1  0
 13 31  1  0
 19 32  1  0
 20 33  1  0
 21 34  1  0
 22 35  1  0
 26 36  1  0
M  ISO  8  27  14  28  14  29  14  30  14  31  14  32  14  33  14  34  14
M  ISO  2  35  14  36   3
M  END
>  <minimizedAffinity>  (1) 
-6.33880043

>  <minimizedRMSD>  (1) 
0.196234226

$$$$
