
     RDKit          3D

 40 44  0  0  0  0  0  0  0  0999 V2000
   44.7270   35.4670   44.7910 C   0  0  0  0  0  0  0  0  0  0  0  0
   45.6160   35.2960   43.6920 C   0  0  0  0  0  0  0  0  0  0  0  0
   46.5400   34.2380   43.8010 C   0  0  0  0  0  0  0  0  0  0  0  0
   46.5080   33.4920   44.9150 N   0  0  0  0  0  0  0  0  0  0  0  0
   45.6560   33.6720   45.9470 C   0  0  0  0  0  0  0  0  0  0  0  0
   44.7630   34.6630   45.8830 N   0  0  0  0  0  0  0  0  0  0  0  0
   47.4180   34.0380   42.7170 N   0  0  0  0  0  0  0  0  0  0  0  0
   48.7590   34.1080   42.7860 C   0  0  0  0  0  0  0  0  0  0  0  0
   49.3140   33.8640   41.5560 N   0  0  0  0  0  0  0  0  0  0  0  0
   48.2490   33.6400   40.7230 C   0  0  0  0  0  0  0  0  0  0  0  0
   48.2420   33.3470   39.3830 C   0  0  0  0  0  0  0  0  0  0  0  0
   47.0280   33.1710   38.8090 N   0  0  0  0  0  0  0  0  0  0  0  0
   45.8970   33.2800   39.5200 C   0  0  0  0  0  0  0  0  0  0  0  0
   45.8790   33.5650   40.8330 N   0  0  0  0  0  0  0  0  0  0  0  0
   47.0690   33.7470   41.4430 C   0  0  0  0  0  0  0  0  0  0  0  0
   45.6520   32.8140   47.1310 C   0  0  0  0  0  0  0  0  0  0  0  0
   44.6810   32.8050   47.9150 O   0  0  0  0  0  0  0  0  0  0  0  0
   46.7210   31.9200   47.5110 C   0  0  0  0  0  0  0  0  0  0  0  0
   47.7290   32.3600   48.3680 C   0  0  0  0  0  0  0  0  0  0  0  0
   48.7770   31.5130   48.7170 C   0  0  0  0  0  0  0  0  0  0  0  0
   48.8590   30.2170   48.2330 C   0  0  0  0  0  0  0  0  0  0  0  0
   47.8460   29.7950   47.3800 C   0  0  0  0  0  0  0  0  0  0  0  0
   46.8230   30.6490   47.0520 C   0  0  0  0  0  0  0  0  0  0  0  0
   45.7590   29.9830   46.2720 C   0  0  0  0  0  0  0  0  0  0  0  0
   44.6880   29.1920   46.7670 C   0  0  0  0  0  0  0  0  0  0  0  0
   43.8660   28.6970   45.7970 C   0  0  0  0  0  0  0  0  0  0  0  0
   44.0450   28.9340   44.4680 C   0  0  0  0  0  0  0  0  0  0  0  0
   45.4790   29.9410   44.4420 S   0  0  0  0  0  0  0  0  0  0  0  0
   43.9857   36.2788   44.7532 H   0  0  0  0  0  0  0  0  0  0  0  0
   45.5833   35.9517   42.8094 H   0  0  0  0  0  0  0  0  0  0  0  0
   49.3300   34.3296   43.6997 H   0  0  0  0  0  0  0  0  0  0  0  0
   49.1737   33.2596   38.8048 H   0  0  0  0  0  0  0  0  0  0  0  0
   44.9375   33.1289   39.0038 H   0  0  0  0  0  0  0  0  0  0  0  0
   47.6958   33.3830   48.7709 H   0  0  0  0  0  0  0  0  0  0  0  0
   49.5608   31.8821   49.3948 H   0  0  0  0  0  0  0  0  0  0  0  0
   49.6893   29.5515   48.5117 H   0  0  0  0  0  0  0  0  0  0  0  0
   47.8643   28.7755   46.9674 H   0  0  0  0  0  0  0  0  0  0  0  0
   44.5348   28.9957   47.8384 H   0  0  0  0  0  0  0  0  0  0  0  0
   43.0136   28.0735   46.1048 H   0  0  0  0  0  0  0  0  0  0  0  0
   43.4393   28.5807   43.6205 H   0  0  0  0  0  0  0  0  0  0  0  0
  1  6  2  0
  2  3  2  0
  2  1  1  0
  3  4  1  0
  4  5  2  0
  5 16  1  0
  6  5  1  0
  7  8  1  0
  7  3  1  0
  9  8  2  0
 10 15  2  0
 10  9  1  0
 11 10  1  0
 12 11  2  0
 12 13  1  0
 13 14  2  0
 14 15  1  0
 15  7  1  0
 16 18  1  0
 16 17  2  0
 18 19  2  0
 19 20  1  0
 21 20  2  0
 22 21  1  0
 23 22  2  0
 23 18  1  0
 24 25  2  0
 24 23  1  0
 26 25  1  0
 27 26  2  0
 28 27  1  0
 28 24  1  0
  1 29  1  0
  2 30  1  0
  8 31  1  0
 11 32  1  0
 13 33  1  0
 19 34  1  0
 20 35  1  0
 21 36  1  0
 22 37  1  0
 25 38  1  0
 26 39  1  0
 27 40  1  0
M  ISO  8  29  14  30  14  31  14  32  14  33  14  34  14  35  14  36  14
M  ISO  4  37  14  38  14  39  14  40  14
M  END
>  <minimizedAffinity>  (1) 
-6.29843235

>  <minimizedRMSD>  (1) 
1.51153481

$$$$
