
     RDKit          3D

 40 44  0  0  0  0  0  0  0  0999 V2000
   44.5500   35.9220   44.5750 C   0  0  0  0  0  0  0  0  0  0  0  0
   45.3650   35.8760   43.4170 C   0  0  0  0  0  0  0  0  0  0  0  0
   46.3070   34.8290   43.3610 C   0  0  0  0  0  0  0  0  0  0  0  0
   46.3480   33.9770   44.3980 N   0  0  0  0  0  0  0  0  0  0  0  0
   45.5670   34.0390   45.4840 C   0  0  0  0  0  0  0  0  0  0  0  0
   44.6650   35.0190   45.5690 N   0  0  0  0  0  0  0  0  0  0  0  0
   47.1240   34.7620   42.2170 N   0  0  0  0  0  0  0  0  0  0  0  0
   48.3840   35.2270   42.1350 C   0  0  0  0  0  0  0  0  0  0  0  0
   48.9010   35.0030   40.8920 N   0  0  0  0  0  0  0  0  0  0  0  0
   47.9050   34.3740   40.1940 C   0  0  0  0  0  0  0  0  0  0  0  0
   47.8940   33.9270   38.8970 C   0  0  0  0  0  0  0  0  0  0  0  0
   46.7450   33.3360   38.4770 N   0  0  0  0  0  0  0  0  0  0  0  0
   45.6860   33.2000   39.2880 C   0  0  0  0  0  0  0  0  0  0  0  0
   45.6760   33.6300   40.5610 N   0  0  0  0  0  0  0  0  0  0  0  0
   46.7910   34.2230   41.0230 C   0  0  0  0  0  0  0  0  0  0  0  0
   45.6560   33.0580   46.5710 C   0  0  0  0  0  0  0  0  0  0  0  0
   44.8380   33.0800   47.5200 O   0  0  0  0  0  0  0  0  0  0  0  0
   46.6400   32.0050   46.6810 C   0  0  0  0  0  0  0  0  0  0  0  0
   47.4080   31.9250   47.8420 C   0  0  0  0  0  0  0  0  0  0  0  0
   48.4100   30.9590   47.9640 C   0  0  0  0  0  0  0  0  0  0  0  0
   48.6690   30.0580   46.9410 C   0  0  0  0  0  0  0  0  0  0  0  0
   47.8860   30.1630   45.8020 C   0  0  0  0  0  0  0  0  0  0  0  0
   46.8930   31.1180   45.6820 C   0  0  0  0  0  0  0  0  0  0  0  0
   46.1170   30.9550   44.4640 C   0  0  0  0  0  0  0  0  0  0  0  0
   46.5140   30.8750   43.1380 C   0  0  0  0  0  0  0  0  0  0  0  0
   45.4870   30.7970   42.3080 N   0  0  0  0  0  0  0  0  0  0  0  0
   44.3660   30.8240   43.0460 C   0  0  0  0  0  0  0  0  0  0  0  0
   44.7750   30.9190   44.3200 N   0  0  0  0  0  0  0  0  0  0  0  0
   43.7990   36.7206   44.6658 H   0  0  0  0  0  0  0  0  0  0  0  0
   45.2682   36.6150   42.6080 H   0  0  0  0  0  0  0  0  0  0  0  0
   48.9234   35.7201   42.9571 H   0  0  0  0  0  0  0  0  0  0  0  0
   48.7653   34.0406   38.2352 H   0  0  0  0  0  0  0  0  0  0  0  0
   44.7824   32.7132   38.8924 H   0  0  0  0  0  0  0  0  0  0  0  0
   47.2236   32.6277   48.6680 H   0  0  0  0  0  0  0  0  0  0  0  0
   49.0046   30.9118   48.8882 H   0  0  0  0  0  0  0  0  0  0  0  0
   49.4580   29.2967   47.0297 H   0  0  0  0  0  0  0  0  0  0  0  0
   48.0596   29.4660   44.9689 H   0  0  0  0  0  0  0  0  0  0  0  0
   47.5648   30.8763   42.8128 H   0  0  0  0  0  0  0  0  0  0  0  0
   43.3289   30.7779   42.6821 H   0  0  0  0  0  0  0  0  0  0  0  0
   44.1237   30.9607   45.1169 H   0  0  0  0  0  0  0  0  0  0  0  0
  1  6  2  0
  2  1  1  0
  3  2  2  0
  3  4  1  0
  4  5  2  0
  5  6  1  0
  5 16  1  0
  7  3  1  0
  8  7  1  0
  9  8  2  0
 10  9  1  0
 10 15  2  0
 11 10  1  0
 12 11  2  0
 12 13  1  0
 13 14  2  0
 14 15  1  0
 15  7  1  0
 16 18  1  0
 16 17  2  0
 18 19  2  0
 19 20  1  0
 21 20  2  0
 22 21  1  0
 23 22  2  0
 23 18  1  0
 24 23  1  0
 25 24  2  0
 26 27  2  0
 26 25  1  0
 27 28  1  0
 28 24  1  0
  1 29  1  0
  2 30  1  0
  8 31  1  0
 11 32  1  0
 13 33  1  0
 19 34  1  0
 20 35  1  0
 21 36  1  0
 22 37  1  0
 25 38  1  0
 27 39  1  0
 28 40  1  0
M  ISO  8  29  14  30  14  31  14  32  14  33  14  34  14  35  14  36  14
M  ISO  4  37  14  38  14  39  14  40   9
M  END
>  <minimizedAffinity>  (1) 
-6.29797411

>  <minimizedRMSD>  (1) 
0.497221917

$$$$
