
     RDKit          3D

 40 44  0  0  0  0  0  0  0  0999 V2000
   44.6570   35.4750   44.9620 C   0  0  0  0  0  0  0  0  0  0  0  0
   45.5260   35.3420   43.8570 C   0  0  0  0  0  0  0  0  0  0  0  0
   46.4510   34.2880   43.9070 C   0  0  0  0  0  0  0  0  0  0  0  0
   46.4250   33.5010   45.0000 N   0  0  0  0  0  0  0  0  0  0  0  0
   45.5990   33.6280   46.0500 C   0  0  0  0  0  0  0  0  0  0  0  0
   44.7130   34.6220   46.0240 N   0  0  0  0  0  0  0  0  0  0  0  0
   47.3290   34.1390   42.8100 N   0  0  0  0  0  0  0  0  0  0  0  0
   48.6830   34.2670   42.8800 C   0  0  0  0  0  0  0  0  0  0  0  0
   49.2430   34.0630   41.6470 N   0  0  0  0  0  0  0  0  0  0  0  0
   48.1820   33.8070   40.8190 C   0  0  0  0  0  0  0  0  0  0  0  0
   48.1620   33.5330   39.4740 C   0  0  0  0  0  0  0  0  0  0  0  0
   46.9500   33.3150   38.8990 N   0  0  0  0  0  0  0  0  0  0  0  0
   45.8080   33.3680   39.6340 C   0  0  0  0  0  0  0  0  0  0  0  0
   45.8180   33.6350   40.9480 N   0  0  0  0  0  0  0  0  0  0  0  0
   47.0020   33.8560   41.5470 C   0  0  0  0  0  0  0  0  0  0  0  0
   45.6300   32.7420   47.1940 C   0  0  0  0  0  0  0  0  0  0  0  0
   44.6450   32.6400   47.9660 O   0  0  0  0  0  0  0  0  0  0  0  0
   46.7500   31.9000   47.5750 C   0  0  0  0  0  0  0  0  0  0  0  0
   47.7590   32.3950   48.3890 C   0  0  0  0  0  0  0  0  0  0  0  0
   48.8270   31.5560   48.7390 C   0  0  0  0  0  0  0  0  0  0  0  0
   48.9190   30.2470   48.3070 C   0  0  0  0  0  0  0  0  0  0  0  0
   47.9000   29.7820   47.4990 C   0  0  0  0  0  0  0  0  0  0  0  0
   46.8520   30.6000   47.1530 C   0  0  0  0  0  0  0  0  0  0  0  0
   45.8600   30.0090   46.3160 N   0  0  0  0  0  0  0  0  0  0  0  0
   45.6310   29.9750   44.9840 C   0  0  0  0  0  0  0  0  0  0  0  0
   44.4910   29.2280   44.7680 C   0  0  0  0  0  0  0  0  0  0  0  0
   44.0110   28.7980   45.9680 N   0  0  0  0  0  0  0  0  0  0  0  0
   44.8620   29.2850   46.9010 C   0  0  0  0  0  0  0  0  0  0  0  0
   43.9158   36.2878   44.9660 H   0  0  0  0  0  0  0  0  0  0  0  0
   45.4801   36.0301   43.0000 H   0  0  0  0  0  0  0  0  0  0  0  0
   49.2461   34.5007   43.7956 H   0  0  0  0  0  0  0  0  0  0  0  0
   49.0901   33.4915   38.8850 H   0  0  0  0  0  0  0  0  0  0  0  0
   44.8447   33.1860   39.1350 H   0  0  0  0  0  0  0  0  0  0  0  0
   47.7217   33.4317   48.7549 H   0  0  0  0  0  0  0  0  0  0  0  0
   49.6235   31.9564   49.3835 H   0  0  0  0  0  0  0  0  0  0  0  0
   49.7648   29.6047   48.5934 H   0  0  0  0  0  0  0  0  0  0  0  0
   47.9278   28.7465   47.1289 H   0  0  0  0  0  0  0  0  0  0  0  0
   46.2450   30.4576   44.2093 H   0  0  0  0  0  0  0  0  0  0  0  0
   44.0428   29.0145   43.7864 H   0  0  0  0  0  0  0  0  0  0  0  0
   44.7627   29.1197   47.9840 H   0  0  0  0  0  0  0  0  0  0  0  0
  1  6  2  0
  2  3  2  0
  2  1  1  0
  3  4  1  0
  4  5  2  0
  5 16  1  0
  6  5  1  0
  7  8  1  0
  7  3  1  0
  9  8  2  0
 10 15  2  0
 10  9  1  0
 11 10  1  0
 12 11  2  0
 12 13  1  0
 13 14  2  0
 14 15  1  0
 15  7  1  0
 16 18  1  0
 16 17  2  0
 18 19  2  0
 19 20  1  0
 21 20  2  0
 22 21  1  0
 23 22  2  0
 23 18  1  0
 24 28  1  0
 24 23  1  0
 25 24  1  0
 26 25  2  0
 26 27  1  0
 27 28  2  0
  1 29  1  0
  2 30  1  0
  8 31  1  0
 11 32  1  0
 13 33  1  0
 19 34  1  0
 20 35  1  0
 21 36  1  0
 22 37  1  0
 25 38  1  0
 26 39  1  0
 28 40  1  0
M  ISO  8  29  14  30  14  31  14  32  14  33  14  34  14  35  14  36  14
M  ISO  4  37  14  38  14  39  14  40  14
M  END
>  <minimizedAffinity>  (1) 
-6.13809586

>  <minimizedRMSD>  (1) 
1.62071562

$$$$
