
     RDKit          3D

 45 48  0  0  0  0  0  0  0  0999 V2000
   44.7310   35.4510   44.8210 C   0  0  0  0  0  0  0  0  0  0  0  0
   45.6150   35.2830   43.7260 C   0  0  0  0  0  0  0  0  0  0  0  0
   46.5390   34.2300   43.8340 C   0  0  0  0  0  0  0  0  0  0  0  0
   46.4750   33.5090   44.9600 N   0  0  0  0  0  0  0  0  0  0  0  0
   45.6510   33.6580   45.9860 C   0  0  0  0  0  0  0  0  0  0  0  0
   44.7700   34.6420   45.9120 N   0  0  0  0  0  0  0  0  0  0  0  0
   47.4240   34.0270   42.7480 N   0  0  0  0  0  0  0  0  0  0  0  0
   48.7610   34.0790   42.8200 C   0  0  0  0  0  0  0  0  0  0  0  0
   49.3210   33.8350   41.5940 N   0  0  0  0  0  0  0  0  0  0  0  0
   48.2700   33.6300   40.7630 C   0  0  0  0  0  0  0  0  0  0  0  0
   48.2510   33.3390   39.4210 C   0  0  0  0  0  0  0  0  0  0  0  0
   47.0420   33.1780   38.8360 N   0  0  0  0  0  0  0  0  0  0  0  0
   45.9020   33.2990   39.5520 C   0  0  0  0  0  0  0  0  0  0  0  0
   45.8880   33.5820   40.8680 N   0  0  0  0  0  0  0  0  0  0  0  0
   47.0970   33.7500   41.4830 C   0  0  0  0  0  0  0  0  0  0  0  0
   45.6610   32.7900   47.1330 C   0  0  0  0  0  0  0  0  0  0  0  0
   44.6670   32.7720   47.9200 O   0  0  0  0  0  0  0  0  0  0  0  0
   46.7290   31.8820   47.5390 C   0  0  0  0  0  0  0  0  0  0  0  0
   47.7440   32.4220   48.3490 C   0  0  0  0  0  0  0  0  0  0  0  0
   48.8090   31.5720   48.7010 C   0  0  0  0  0  0  0  0  0  0  0  0
   48.8570   30.2460   48.2620 C   0  0  0  0  0  0  0  0  0  0  0  0
   47.8000   29.7840   47.4590 C   0  0  0  0  0  0  0  0  0  0  0  0
   46.7600   30.5850   47.1100 C   0  0  0  0  0  0  0  0  0  0  0  0
   46.0010   29.7680   46.1820 C   0  0  0  0  0  0  0  0  0  0  0  0
   44.6270   29.3070   46.7510 C   0  0  0  0  0  0  0  0  0  0  0  0
   46.7040   28.3520   46.3380 C   0  0  0  0  0  0  0  0  0  0  0  0
   45.8520   30.0480   44.7980 C   0  0  0  0  0  0  0  0  0  0  0  0
   43.9893   36.2626   44.7865 H   0  0  0  0  0  0  0  0  0  0  0  0
   45.5798   35.9385   42.8434 H   0  0  0  0  0  0  0  0  0  0  0  0
   49.3305   34.2888   43.7374 H   0  0  0  0  0  0  0  0  0  0  0  0
   49.1825   33.2407   38.8443 H   0  0  0  0  0  0  0  0  0  0  0  0
   44.9409   33.1597   39.0353 H   0  0  0  0  0  0  0  0  0  0  0  0
   47.7070   33.4661   48.6933 H   0  0  0  0  0  0  0  0  0  0  0  0
   49.6204   31.9593   49.3347 H   0  0  0  0  0  0  0  0  0  0  0  0
   49.6936   29.5863   48.5356 H   0  0  0  0  0  0  0  0  0  0  0  0
   47.8154   28.7434   47.1028 H   0  0  0  0  0  0  0  0  0  0  0  0
   44.6627   29.3190   47.8504 H   0  0  0  0  0  0  0  0  0  0  0  0
   43.8381   29.9897   46.4023 H   0  0  0  0  0  0  0  0  0  0  0  0
   44.4095   28.2867   46.4023 H   0  0  0  0  0  0  0  0  0  0  0  0
   46.8210   28.1164   47.4061 H   0  0  0  0  0  0  0  0  0  0  0  0
   46.0844   27.5802   45.8580 H   0  0  0  0  0  0  0  0  0  0  0  0
   47.6934   28.3789   45.8580 H   0  0  0  0  0  0  0  0  0  0  0  0
   45.3386   31.0127   44.6723 H   0  0  0  0  0  0  0  0  0  0  0  0
   46.8438   30.0960   44.3248 H   0  0  0  0  0  0  0  0  0  0  0  0
   45.2581   29.2522   44.3248 H   0  0  0  0  0  0  0  0  0  0  0  0
  1  6  2  0
  2  3  2  0
  2  1  1  0
  3  4  1  0
  4  5  2  0
  5 16  1  0
  6  5  1  0
  7  8  1  0
  7  3  1  0
  9  8  2  0
 10 15  2  0
 10  9  1  0
 11 10  1  0
 12 11  2  0
 12 13  1  0
 13 14  2  0
 14 15  1  0
 15  7  1  0
 16 18  1  0
 16 17  2  0
 18 19  2  0
 19 20  1  0
 21 20  2  0
 22 21  1  0
 23 22  2  0
 23 18  1  0
 24 26  1  0
 24 25  1  0
 24 23  1  0
 27 24  1  0
  1 28  1  0
  2 29  1  0
  8 30  1  0
 11 31  1  0
 13 32  1  0
 19 33  1  0
 20 34  1  0
 21 35  1  0
 22 36  1  0
 25 37  1  0
 25 38  1  0
 25 39  1  0
 26 40  1  0
 26 41  1  0
 26 42  1  0
 27 43  1  0
 27 44  1  0
 27 45  1  0
M  ISO  8  28  14  29  14  30  14  31  14  32  14  33  14  34  14  35  14
M  ISO  8  36  14  37   8  38   8  39   8  40   8  41   8  42   8  43   8
M  ISO  2  44   8  45   8
M  END
>  <minimizedAffinity>  (1) 
-5.98260117

>  <minimizedRMSD>  (1) 
1.55858707

$$$$
