
     RDKit          3D

 25 27  0  0  0  0  0  0  0  0999 V2000
   46.7360   32.9640   44.1440 C   0  0  0  0  0  0  0  0  0  0  0  0
   45.4810   33.3950   44.4580 N   0  0  0  0  0  0  0  0  0  0  0  0
   45.0190   34.5500   43.9000 C   0  0  0  0  0  0  0  0  0  0  0  0
   45.8070   35.2400   43.0540 N   0  0  0  0  0  0  0  0  0  0  0  0
   47.0520   34.8210   42.7380 C   0  0  0  0  0  0  0  0  0  0  0  0
   47.8910   35.5160   41.8670 C   0  0  0  0  0  0  0  0  0  0  0  0
   49.1650   35.0150   41.5930 C   0  0  0  0  0  0  0  0  0  0  0  0
   49.6010   33.8430   42.1740 C   0  0  0  0  0  0  0  0  0  0  0  0
   48.8000   33.1120   43.0520 C   0  0  0  0  0  0  0  0  0  0  0  0
   47.5610   33.6560   43.2800 C   0  0  0  0  0  0  0  0  0  0  0  0
   47.1490   31.4460   44.9750 S   0  0  0  0  0  0  0  0  0  0  0  0
   46.4240   31.3920   46.6350 C   0  0  0  0  0  0  0  0  0  0  0  0
   46.7790   32.3570   47.5930 C   0  0  0  0  0  0  0  0  0  0  0  0
   46.1730   32.2440   48.8550 C   0  0  0  0  0  0  0  0  0  0  0  0
   45.3000   31.2270   49.0590 N   0  0  0  0  0  0  0  0  0  0  0  0
   44.9820   30.3220   48.1260 C   0  0  0  0  0  0  0  0  0  0  0  0
   45.5400   30.3900   46.8940 N   0  0  0  0  0  0  0  0  0  0  0  0
   44.0095   34.9156   44.1393 H   0  0  0  0  0  0  0  0  0  0  0  0
   47.5514   36.4520   41.3994 H   0  0  0  0  0  0  0  0  0  0  0  0
   49.8282   35.5612   40.9061 H   0  0  0  0  0  0  0  0  0  0  0  0
   50.6099   33.4735   41.9384 H   0  0  0  0  0  0  0  0  0  0  0  0
   49.1345   32.1759   43.5230 H   0  0  0  0  0  0  0  0  0  0  0  0
   47.4953   33.1603   47.3659 H   0  0  0  0  0  0  0  0  0  0  0  0
   46.4007   32.9618   49.6568 H   0  0  0  0  0  0  0  0  0  0  0  0
   44.2656   29.5209   48.3604 H   0  0  0  0  0  0  0  0  0  0  0  0
  1  2  2  0
  1 11  1  0
  3  2  1  0
  4  3  2  0
  5  4  1  0
  5 10  2  0
  6  5  1  0
  7  6  2  0
  7  8  1  0
  8  9  2  0
  9 10  1  0
 10  1  1  0
 11 12  1  0
 12 17  1  0
 12 13  2  0
 13 14  1  0
 14 15  2  0
 16 15  1  0
 17 16  2  0
  3 18  1  0
  6 19  1  0
  7 20  1  0
  8 21  1  0
  9 22  1  0
 13 23  1  0
 14 24  1  0
 16 25  1  0
M  ISO  8  18  14  19  14  20  14  21  14  22  14  23  14  24  14  25  14
M  END
>  <minimizedAffinity>  (1) 
-5.02767181

>  <minimizedRMSD>  (1) 
4.36674881

$$$$
