
     RDKit          3D

 43 46  0  0  1  0  0  0  0  0999 V2000
   47.5260   30.9280   43.5560 C   0  0  0  0  0  0  0  0  0  0  0  0
   46.7070   31.7800   42.8070 C   0  0  0  0  0  0  0  0  0  0  0  0
   45.8520   32.6750   43.4340 C   0  0  0  0  0  0  0  0  0  0  0  0
   45.8900   32.6420   44.7840 N   0  0  0  0  0  0  0  0  0  0  0  0
   46.6620   31.8400   45.5120 C   0  0  0  0  0  0  0  0  0  0  0  0
   47.4680   30.9960   44.8880 N   0  0  0  0  0  0  0  0  0  0  0  0
   46.5810   31.9320   46.9200 N   0  0  0  0  0  0  0  0  0  0  0  0
   45.5430   32.5980   47.6500 C   0  0  0  0  0  0  0  0  0  0  0  0
   44.7670   31.5530   48.4240 C   0  0  0  0  0  0  0  0  0  0  0  0
   45.6100   30.5500   48.8840 O   0  0  0  0  0  0  0  0  0  0  0  0
   46.8890   31.0010   49.1090 C   0  0  0  0  0  0  0  0  0  0  0  0
   47.5720   31.3430   47.7830 C   0  0  1  0  0  0  0  0  0  0  0  0
   44.9440   33.6190   42.7000 C   0  0  0  0  0  0  0  0  0  0  0  0
   45.1410   34.9520   42.7580 C   0  0  0  0  0  0  0  0  0  0  0  0
   43.7850   35.5920   41.7130 S   0  0  0  0  0  0  0  0  0  0  0  0
   43.1700   33.8250   41.3740 C   0  0  0  0  0  0  0  0  0  0  0  0
   43.9470   33.2040   41.9910 N   0  0  0  0  0  0  0  0  0  0  0  0
   42.0150   33.7120   40.5270 N   0  0  0  0  0  0  0  0  0  0  0  0
   41.7040   34.6230   39.5240 C   0  0  0  0  0  0  0  0  0  0  0  0
   42.6920   35.3220   39.0340 N   0  0  0  0  0  0  0  0  0  0  0  0
   40.3090   34.6740   39.1540 N   0  0  0  0  0  0  0  0  0  0  0  0
   42.4480   35.9800   38.2570 H   0  0  0  0  0  0  0  0  0  0  0  0
   48.1470   30.1250   47.1150 C   0  0  0  0  0  0  0  0  0  0  0  0
   48.4320   28.9430   48.0650 C   0  0  0  0  0  0  0  0  0  0  0  0
   49.5360   29.6870   47.3000 C   0  0  0  0  0  0  0  0  0  0  0  0
   48.2027   30.2178   43.0583 H   0  0  0  0  0  0  0  0  0  0  0  0
   46.7414   31.7398   41.7083 H   0  0  0  0  0  0  0  0  0  0  0  0
   45.9850   33.3258   48.3464 H   0  0  0  0  0  0  0  0  0  0  0  0
   44.8755   33.1344   46.9595 H   0  0  0  0  0  0  0  0  0  0  0  0
   44.2754   32.0325   49.2833 H   0  0  0  0  0  0  0  0  0  0  0  0
   44.0185   31.1037   47.7548 H   0  0  0  0  0  0  0  0  0  0  0  0
   46.8507   31.9010   49.7403 H   0  0  0  0  0  0  0  0  0  0  0  0
   47.4636   30.2107   49.6143 H   0  0  0  0  0  0  0  0  0  0  0  0
   48.4046   32.0346   47.9791 H   0  0  0  0  0  0  0  0  0  0  0  0
   45.9196   35.5116   43.2971 H   0  0  0  0  0  0  0  0  0  0  0  0
   41.3825   32.9119   40.6708 H   0  0  0  0  0  0  0  0  0  0  0  0
   39.9947   35.3229   38.4184 H   0  0  0  0  0  0  0  0  0  0  0  0
   39.6284   34.0615   39.6257 H   0  0  0  0  0  0  0  0  0  0  0  0
   47.5694   30.3212   46.1996 H   0  0  0  0  0  0  0  0  0  0  0  0
   48.3282   29.0640   49.1534 H   0  0  0  0  0  0  0  0  0  0  0  0
   48.0948   27.9003   48.1604 H   0  0  0  0  0  0  0  0  0  0  0  0
   50.0629   29.1831   46.4763 H   0  0  0  0  0  0  0  0  0  0  0  0
   50.4670   30.1928   47.5956 H   0  0  0  0  0  0  0  0  0  0  0  0
  1  6  2  0
  2  3  2  0
  2  1  1  0
  3  4  1  0
  4  5  2  0
  5  7  1  0
  6  5  1  0
  7  8  1  0
  7 12  1  0
  8  9  1  0
  9 10  1  0
 10 11  1  0
 12 11  1  0
 13 14  2  0
 13  3  1  0
 15 14  1  0
 16 15  1  0
 16 17  2  0
 17 13  1  0
 18 16  1  0
 19 18  1  0
 20 19  2  0
 21 19  1  0
 22 20  1  0
 23 25  1  0
 23 12  1  0
 23 24  1  0
 25 24  1  0
  1 26  1  0
  2 27  1  0
  8 28  1  0
  8 29  1  0
  9 30  1  0
  9 31  1  0
 11 32  1  0
 11 33  1  0
 12 34  1  1
 14 35  1  0
 18 36  1  0
 21 37  1  0
 21 38  1  0
 23 39  1  0
 24 40  1  0
 24 41  1  0
 25 42  1  0
 25 43  1  0
M  ISO  8  26  14  27  14  28  13  29  13  30  13  31  13  32  13  33  13
M  ISO  7  34  13  35  14  39  13  40  13  41  13  42  13  43  13
M  END
>  <minimizedAffinity>  (1) 
-5.38336897

>  <minimizedRMSD>  (1) 
0.538150787

$$$$
