
     RDKit          3D

 27 28  0  0  0  0  0  0  0  0999 V2000
   44.3770   34.9490   43.0020 C   0  0  0  0  0  0  0  0  0  0  0  0
   45.0420   33.7370   43.2020 C   0  0  0  0  0  0  0  0  0  0  0  0
   45.5030   33.4270   44.4720 C   0  0  0  0  0  0  0  0  0  0  0  0
   45.2730   34.3440   45.4690 N   0  0  0  0  0  0  0  0  0  0  0  0
   44.6340   35.4980   45.2510 C   0  0  0  0  0  0  0  0  0  0  0  0
   44.1780   35.8220   44.0340 N   0  0  0  0  0  0  0  0  0  0  0  0
   43.7480   35.4220   41.3790 S   0  0  0  0  0  0  0  0  0  0  0  0
   42.1760   34.5710   41.1850 C   0  0  0  0  0  0  0  0  0  0  0  0
   41.8630   34.2560   39.7380 C   0  0  0  0  0  0  0  0  0  0  0  0
   40.4040   33.8460   39.7030 C   0  0  0  0  0  0  0  0  0  0  0  0
   39.5850   35.1180   39.7230 C   0  0  0  0  0  0  0  0  0  0  0  0
   40.2810   36.1120   40.6040 C   0  0  0  0  0  0  0  0  0  0  0  0
   41.0610   35.4270   41.7240 C   0  0  0  0  0  0  0  0  0  0  0  0
   45.1973   33.0399   42.3654 H   0  0  0  0  0  0  0  0  0  0  0  0
   46.0321   32.4840   44.6737 H   0  0  0  0  0  0  0  0  0  0  0  0
   44.4797   36.1952   46.0877 H   0  0  0  0  0  0  0  0  0  0  0  0
   42.2590   33.6254   41.7408 H   0  0  0  0  0  0  0  0  0  0  0  0
   42.0250   35.1446   39.1102 H   0  0  0  0  0  0  0  0  0  0  0  0
   42.5139   33.4584   39.3505 H   0  0  0  0  0  0  0  0  0  0  0  0
   40.1642   33.2287   40.5813 H   0  0  0  0  0  0  0  0  0  0  0  0
   40.1850   33.2529   38.8028 H   0  0  0  0  0  0  0  0  0  0  0  0
   39.4989   35.5210   38.7031 H   0  0  0  0  0  0  0  0  0  0  0  0
   38.5750   34.9126   40.1074 H   0  0  0  0  0  0  0  0  0  0  0  0
   40.9796   36.7021   39.9927 H   0  0  0  0  0  0  0  0  0  0  0  0
   39.5170   36.7564   41.0634 H   0  0  0  0  0  0  0  0  0  0  0  0
   40.3723   34.7928   42.3015 H   0  0  0  0  0  0  0  0  0  0  0  0
   41.5051   36.2078   42.3589 H   0  0  0  0  0  0  0  0  0  0  0  0
  1  2  2  0
  1  6  1  0
  2  3  1  0
  3  4  2  0
  5  4  1  0
  6  5  2  0
  7  1  1  0
  8  7  1  0
  8 13  1  0
  9  8  1  0
 10 11  1  0
 10  9  1  0
 11 12  1  0
 12 13  1  0
  2 14  1  0
  3 15  1  0
  5 16  1  0
  8 17  1  0
  9 18  1  0
  9 19  1  0
 10 20  1  0
 10 21  1  0
 11 22  1  0
 11 23  1  0
 12 24  1  0
 12 25  1  0
 13 26  1  0
 13 27  1  0
M  ISO  8  14  14  15  14  16  14  17  13  18  13  19  13  20  13  21  13
M  ISO  6  22  13  23  13  24  13  25  13  26  13  27  13
M  END
>  <minimizedAffinity>  (1) 
-4.50718498

>  <minimizedRMSD>  (1) 
2.15404558

$$$$
