
     RDKit          3D

 21 22  0  0  0  0  0  0  0  0999 V2000
   44.8940   35.9150   43.0540 S   0  0  0  0  0  0  0  0  0  0  0  0
   45.6060   34.6570   44.1300 C   0  0  0  0  0  0  0  0  0  0  0  0
   46.6510   33.8300   43.7130 C   0  0  0  0  0  0  0  0  0  0  0  0
   47.1450   32.8840   44.6050 C   0  0  0  0  0  0  0  0  0  0  0  0
   46.5760   32.8190   45.8430 N   0  0  0  0  0  0  0  0  0  0  0  0
   45.5640   33.6280   46.2320 C   0  0  0  0  0  0  0  0  0  0  0  0
   45.0750   34.5490   45.3820 N   0  0  0  0  0  0  0  0  0  0  0  0
   44.0080   35.1770   41.6990 C   0  0  0  0  0  0  0  0  0  0  0  0
   42.6490   35.4730   41.6470 C   0  0  0  0  0  0  0  0  0  0  0  0
   41.7920   34.9860   40.6600 C   0  0  0  0  0  0  0  0  0  0  0  0
   42.3490   34.1650   39.6860 C   0  0  0  0  0  0  0  0  0  0  0  0
   43.6980   33.8580   39.7190 C   0  0  0  0  0  0  0  0  0  0  0  0
   44.5200   34.3550   40.7100 C   0  0  0  0  0  0  0  0  0  0  0  0
   47.0739   33.9245   42.7020 H   0  0  0  0  0  0  0  0  0  0  0  0
   47.9673   32.2106   44.3215 H   0  0  0  0  0  0  0  0  0  0  0  0
   45.1411   33.5328   47.2430 H   0  0  0  0  0  0  0  0  0  0  0  0
   42.2283   36.1259   42.4259 H   0  0  0  0  0  0  0  0  0  0  0  0
   40.7219   35.2405   40.6526 H   0  0  0  0  0  0  0  0  0  0  0  0
   41.7144   33.7575   38.8853 H   0  0  0  0  0  0  0  0  0  0  0  0
   44.1228   33.2061   38.9414 H   0  0  0  0  0  0  0  0  0  0  0  0
   45.5891   34.0962   40.7139 H   0  0  0  0  0  0  0  0  0  0  0  0
  1  2  1  0
  2  7  1  0
  3  2  2  0
  3  4  1  0
  4  5  2  0
  5  6  1  0
  7  6  2  0
  8  1  1  0
  9  8  2  0
 10  9  1  0
 11 12  1  0
 11 10  2  0
 12 13  2  0
 13  8  1  0
  3 14  1  0
  4 15  1  0
  6 16  1  0
  9 17  1  0
 10 18  1  0
 11 19  1  0
 12 20  1  0
 13 21  1  0
M  ISO  8  14  14  15  14  16  14  17  14  18  14  19  14  20  14  21  14
M  END
>  <minimizedAffinity>  (1) 
-3.83377218

>  <minimizedRMSD>  (1) 
1.04823864

$$$$
