
     RDKit          3D

 28 31  0  0  0  0  0  0  0  0999 V2000
   43.8790   33.6840   40.8520 S   0  0  0  0  0  0  0  0  0  0  0  0
   44.3940   34.2750   42.4890 C   0  0  0  0  0  0  0  0  0  0  0  0
   44.1910   35.6230   42.8380 C   0  0  0  0  0  0  0  0  0  0  0  0
   44.6130   36.0110   44.1200 C   0  0  0  0  0  0  0  0  0  0  0  0
   45.1770   35.0710   44.9120 N   0  0  0  0  0  0  0  0  0  0  0  0
   45.3550   33.7930   44.5450 C   0  0  0  0  0  0  0  0  0  0  0  0
   44.9660   33.3840   43.3350 N   0  0  0  0  0  0  0  0  0  0  0  0
   45.9480   32.8090   45.3820 N   0  0  0  0  0  0  0  0  0  0  0  0
   46.5840   32.8130   46.5790 C   0  0  0  0  0  0  0  0  0  0  0  0
   46.9330   31.5260   46.8690 N   0  0  0  0  0  0  0  0  0  0  0  0
   46.5000   30.7670   45.8390 C   0  0  0  0  0  0  0  0  0  0  0  0
   45.8990   31.5640   44.9330 N   0  0  0  0  0  0  0  0  0  0  0  0
   39.0100   32.9920   41.4290 N   0  0  0  0  0  0  0  0  0  0  0  0
   39.7330   31.9970   41.9630 C   0  0  0  0  0  0  0  0  0  0  0  0
   41.0410   32.2910   41.7470 N   0  0  0  0  0  0  0  0  0  0  0  0
   41.0660   33.4490   41.0920 C   0  0  0  0  0  0  0  0  0  0  0  0
   42.1680   34.1560   40.6500 C   0  0  0  0  0  0  0  0  0  0  0  0
   42.0060   35.3330   39.9910 N   0  0  0  0  0  0  0  0  0  0  0  0
   40.7270   35.7660   39.7950 C   0  0  0  0  0  0  0  0  0  0  0  0
   39.6560   35.0830   40.2220 N   0  0  0  0  0  0  0  0  0  0  0  0
   39.8070   33.9270   40.8700 C   0  0  0  0  0  0  0  0  0  0  0  0
   43.7255   36.3365   42.1421 H   0  0  0  0  0  0  0  0  0  0  0  0
   44.4887   37.0468   44.4690 H   0  0  0  0  0  0  0  0  0  0  0  0
   46.7831   33.6956   47.2046 H   0  0  0  0  0  0  0  0  0  0  0  0
   46.6184   29.6767   45.7535 H   0  0  0  0  0  0  0  0  0  0  0  0
   37.9811   33.0370   41.4435 H   0  0  0  0  0  0  0  0  0  0  0  0
   39.3401   31.1088   42.4794 H   0  0  0  0  0  0  0  0  0  0  0  0
   40.5683   36.7161   39.2639 H   0  0  0  0  0  0  0  0  0  0  0  0
  1  2  1  0
  2  3  2  0
  2  7  1  0
  3  4  1  0
  4  5  2  0
  6  5  1  0
  6  8  1  0
  7  6  2  0
  8  9  1  0
  9 10  2  0
 11 10  1  0
 12  8  1  0
 12 11  2  0
 13 14  1  0
 15 14  2  0
 16 15  1  0
 17  1  1  0
 17 16  2  0
 18 17  1  0
 19 18  2  0
 19 20  1  0
 20 21  2  0
 21 16  1  0
 21 13  1  0
  3 22  1  0
  4 23  1  0
  9 24  1  0
 11 25  1  0
 13 26  1  0
 14 27  1  0
 19 28  1  0
M  ISO  7  22  14  23  14  24  14  25  14  26   9  27  14  28  14
M  END
>  <minimizedAffinity>  (1) 
-5.93039274

>  <minimizedRMSD>  (1) 
3.59862614

$$$$
