
     RDKit          3D

 29 31  0  0  0  0  0  0  0  0999 V2000
   44.4220   33.6160   40.9270 C   0  0  0  0  0  0  0  0  0  0  0  0
   45.6980   33.0800   41.1240 C   0  0  0  0  0  0  0  0  0  0  0  0
   46.5630   33.7630   41.9890 C   0  0  0  0  0  0  0  0  0  0  0  0
   46.0890   34.8910   42.5660 N   0  0  0  0  0  0  0  0  0  0  0  0
   44.8650   35.3840   42.3630 C   0  0  0  0  0  0  0  0  0  0  0  0
   44.0320   34.7490   41.5440 N   0  0  0  0  0  0  0  0  0  0  0  0
   44.4500   36.5910   43.0220 N   0  0  0  0  0  0  0  0  0  0  0  0
   44.7220   36.7780   44.4070 C   0  0  0  0  0  0  0  0  0  0  0  0
   44.7160   35.7060   45.1600 N   0  0  0  0  0  0  0  0  0  0  0  0
   44.9790   38.1220   44.8590 N   0  0  0  0  0  0  0  0  0  0  0  0
   44.9100   35.7860   46.1810 H   0  0  0  0  0  0  0  0  0  0  0  0
   43.2530   32.7850   39.8210 S   0  0  0  0  0  0  0  0  0  0  0  0
   38.4760   33.1090   41.0320 N   0  0  0  0  0  0  0  0  0  0  0  0
   38.9930   31.8970   41.3130 C   0  0  0  0  0  0  0  0  0  0  0  0
   40.3040   31.9300   40.9380 N   0  0  0  0  0  0  0  0  0  0  0  0
   40.5450   33.1470   40.4440 C   0  0  0  0  0  0  0  0  0  0  0  0
   41.7050   33.6640   39.9420 C   0  0  0  0  0  0  0  0  0  0  0  0
   41.7540   34.9380   39.4820 N   0  0  0  0  0  0  0  0  0  0  0  0
   40.6150   35.6700   39.5400 C   0  0  0  0  0  0  0  0  0  0  0  0
   39.4670   35.1680   40.0350 N   0  0  0  0  0  0  0  0  0  0  0  0
   39.4130   33.9180   40.4870 C   0  0  0  0  0  0  0  0  0  0  0  0
   46.0117   32.1551   40.6180 H   0  0  0  0  0  0  0  0  0  0  0  0
   47.5813   33.3986   42.1898 H   0  0  0  0  0  0  0  0  0  0  0  0
   43.9549   37.3223   42.4918 H   0  0  0  0  0  0  0  0  0  0  0  0
   45.1802   38.3014   45.8531 H   0  0  0  0  0  0  0  0  0  0  0  0
   44.9615   38.9032   44.1880 H   0  0  0  0  0  0  0  0  0  0  0  0
   37.4988   33.3827   41.2084 H   0  0  0  0  0  0  0  0  0  0  0  0
   38.4601   31.0444   41.7592 H   0  0  0  0  0  0  0  0  0  0  0  0
   40.6282   36.7063   39.1714 H   0  0  0  0  0  0  0  0  0  0  0  0
  1  2  2  0
  1  6  1  0
  2  3  1  0
  3  4  2  0
  5  4  1  0
  5  7  1  0
  6  5  2  0
  7  8  1  0
  8 10  1  0
  8  9  2  0
  9 11  1  0
 12 17  1  0
 12  1  1  0
 13 14  1  0
 15 14  2  0
 16 21  2  0
 16 15  1  0
 17 16  1  0
 18 19  1  0
 18 17  2  0
 19 20  2  0
 20 21  1  0
 21 13  1  0
  2 22  1  0
  3 23  1  0
  7 24  1  0
 10 25  1  0
 10 26  1  0
 13 27  1  0
 14 28  1  0
 19 29  1  0
M  ISO  5  22  14  23  14  27   9  28  14  29  14
M  END
>  <minimizedAffinity>  (1) 
-5.89675283

>  <minimizedRMSD>  (1) 
1.70319951

$$$$
