
     RDKit          3D

 32 35  0  0  0  0  0  0  0  0999 V2000
   47.3760   32.5430   41.6120 C   0  0  0  0  0  0  0  0  0  0  0  0
   48.0220   32.9740   42.7860 C   0  0  0  0  0  0  0  0  0  0  0  0
   47.3600   33.9400   43.5470 C   0  0  0  0  0  0  0  0  0  0  0  0
   46.1600   34.3950   43.1150 N   0  0  0  0  0  0  0  0  0  0  0  0
   45.5680   33.9650   41.9910 C   0  0  0  0  0  0  0  0  0  0  0  0
   46.1780   33.0360   41.2360 N   0  0  0  0  0  0  0  0  0  0  0  0
   44.3050   34.4420   41.5370 N   0  0  0  0  0  0  0  0  0  0  0  0
   43.7140   34.0450   40.4160 C   0  0  0  0  0  0  0  0  0  0  0  0
   42.4930   34.5400   40.0270 C   0  0  0  0  0  0  0  0  0  0  0  0
   41.8850   35.4800   40.8450 C   0  0  0  0  0  0  0  0  0  0  0  0
   40.7750   35.9140   40.4660 O   0  0  0  0  0  0  0  0  0  0  0  0
   42.5160   35.8690   41.9880 N   0  0  0  0  0  0  0  0  0  0  0  0
   43.7230   35.3540   42.3370 C   0  0  0  0  0  0  0  0  0  0  0  0
   44.1440   35.8310   43.4200 O   0  0  0  0  0  0  0  0  0  0  0  0
   48.1590   31.2900   40.5580 S   0  0  0  0  0  0  0  0  0  0  0  0
   47.7150   33.9980   36.4430 N   0  0  0  0  0  0  0  0  0  0  0  0
   48.4580   34.6150   37.3780 C   0  0  0  0  0  0  0  0  0  0  0  0
   48.5100   33.7760   38.4620 N   0  0  0  0  0  0  0  0  0  0  0  0
   47.8010   32.6920   38.1430 C   0  0  0  0  0  0  0  0  0  0  0  0
   47.5560   31.5700   38.8940 C   0  0  0  0  0  0  0  0  0  0  0  0
   46.8050   30.5540   38.4030 N   0  0  0  0  0  0  0  0  0  0  0  0
   46.3090   30.6980   37.1380 C   0  0  0  0  0  0  0  0  0  0  0  0
   46.5490   31.8020   36.3950 N   0  0  0  0  0  0  0  0  0  0  0  0
   47.2850   32.7920   36.8840 C   0  0  0  0  0  0  0  0  0  0  0  0
   48.9993   32.5702   43.0889 H   0  0  0  0  0  0  0  0  0  0  0  0
   47.8040   34.3231   44.4776 H   0  0  0  0  0  0  0  0  0  0  0  0
   44.2158   33.2995   39.7817 H   0  0  0  0  0  0  0  0  0  0  0  0
   42.0133   34.2016   39.0968 H   0  0  0  0  0  0  0  0  0  0  0  0
   42.0689   36.5672   42.5992 H   0  0  0  0  0  0  0  0  0  0  0  0
   47.5012   34.3902   35.5149 H   0  0  0  0  0  0  0  0  0  0  0  0
   48.9332   35.6032   37.2906 H   0  0  0  0  0  0  0  0  0  0  0  0
   45.6956   29.8910   36.7109 H   0  0  0  0  0  0  0  0  0  0  0  0
  1  2  2  0
  2  3  1  0
  4  3  2  0
  5  4  1  0
  6  1  1  0
  6  5  2  0
  7  5  1  0
  7 13  1  0
  8  7  1  0
  9  8  2  0
  9 10  1  0
 10 12  1  0
 11 10  2  0
 12 13  1  0
 13 14  2  0
 15  1  1  0
 16 24  1  0
 16 17  1  0
 17 18  2  0
 19 18  1  0
 19 20  2  0
 20 15  1  0
 21 20  1  0
 22 21  2  0
 23 24  2  0
 23 22  1  0
 24 19  1  0
  2 25  1  0
  3 26  1  0
  8 27  1  0
  9 28  1  0
 12 29  1  0
 16 30  1  0
 17 31  1  0
 22 32  1  0
M  ISO  8  25  14  26  14  27  14  28  14  29   9  30   9  31  14  32  14
M  END
>  <minimizedAffinity>  (1) 
-5.40337133

>  <minimizedRMSD>  (1) 
6.34248447

$$$$
