
     RDKit          3D

 35 38  0  0  0  0  0  0  0  0999 V2000
   41.9970   35.3110   40.7700 S   0  0  0  0  0  0  0  0  0  0  0  0
   38.2490   33.1850   38.3390 N   0  0  0  0  0  0  0  0  0  0  0  0
   38.8390   34.1590   37.6150 C   0  0  0  0  0  0  0  0  0  0  0  0
   39.8520   34.6720   38.3800 N   0  0  0  0  0  0  0  0  0  0  0  0
   39.8380   33.9930   39.5330 C   0  0  0  0  0  0  0  0  0  0  0  0
   40.6560   34.1380   40.6170 C   0  0  0  0  0  0  0  0  0  0  0  0
   40.5050   33.3620   41.7140 N   0  0  0  0  0  0  0  0  0  0  0  0
   39.5010   32.4310   41.6870 C   0  0  0  0  0  0  0  0  0  0  0  0
   38.6900   32.2860   40.6150 N   0  0  0  0  0  0  0  0  0  0  0  0
   38.8500   33.0550   39.5460 C   0  0  0  0  0  0  0  0  0  0  0  0
   43.5220   34.4270   40.3710 C   0  0  0  0  0  0  0  0  0  0  0  0
   43.6270   33.7250   39.1600 C   0  0  0  0  0  0  0  0  0  0  0  0
   44.8390   33.0640   38.9200 C   0  0  0  0  0  0  0  0  0  0  0  0
   45.8020   33.1480   39.8540 N   0  0  0  0  0  0  0  0  0  0  0  0
   45.6860   33.8200   41.0000 C   0  0  0  0  0  0  0  0  0  0  0  0
   44.5320   34.4600   41.2480 N   0  0  0  0  0  0  0  0  0  0  0  0
   46.7730   33.8990   42.0260 C   0  0  0  0  0  0  0  0  0  0  0  0
   47.9620   33.0360   41.6850 C   0  0  0  0  0  0  0  0  0  0  0  0
   49.1480   33.9670   41.5520 C   0  0  0  0  0  0  0  0  0  0  0  0
   48.4460   35.2470   41.1110 C   0  0  0  0  0  0  0  0  0  0  0  0
   47.3230   35.3070   42.1250 C   0  0  0  0  0  0  0  0  0  0  0  0
   37.4512   32.6182   38.0179 H   0  0  0  0  0  0  0  0  0  0  0  0
   38.5588   34.4804   36.6010 H   0  0  0  0  0  0  0  0  0  0  0  0
   39.3501   31.7826   42.5626 H   0  0  0  0  0  0  0  0  0  0  0  0
   42.7995   33.6953   38.4359 H   0  0  0  0  0  0  0  0  0  0  0  0
   44.9979   32.4926   37.9936 H   0  0  0  0  0  0  0  0  0  0  0  0
   46.3028   33.5623   42.9617 H   0  0  0  0  0  0  0  0  0  0  0  0
   48.1420   32.3041   42.4862 H   0  0  0  0  0  0  0  0  0  0  0  0
   47.7914   32.4754   40.7541 H   0  0  0  0  0  0  0  0  0  0  0  0
   49.6701   34.0996   42.5111 H   0  0  0  0  0  0  0  0  0  0  0  0
   49.9335   33.6149   40.8672 H   0  0  0  0  0  0  0  0  0  0  0  0
   49.1093   36.1212   41.1870 H   0  0  0  0  0  0  0  0  0  0  0  0
   48.1174   35.2521   40.0612 H   0  0  0  0  0  0  0  0  0  0  0  0
   46.5674   36.0568   41.8479 H   0  0  0  0  0  0  0  0  0  0  0  0
   47.6391   35.6016   43.1366 H   0  0  0  0  0  0  0  0  0  0  0  0
  2 10  1  0
  3  2  1  0
  3  4  2  0
  4  5  1  0
  5 10  2  0
  5  6  1  0
  6  1  1  0
  6  7  2  0
  8  7  1  0
  9  8  2  0
 10  9  1  0
 11  1  1  0
 11 16  1  0
 12 11  2  0
 13 12  1  0
 13 14  2  0
 14 15  1  0
 15 16  2  0
 15 17  1  0
 17 21  1  0
 18 17  1  0
 19 18  1  0
 20 19  1  0
 20 21  1  0
  2 22  1  0
  3 23  1  0
  8 24  1  0
 12 25  1  0
 13 26  1  0
 17 27  1  0
 18 28  1  0
 18 29  1  0
 19 30  1  0
 19 31  1  0
 20 32  1  0
 20 33  1  0
 21 34  1  0
 21 35  1  0
M  ISO  8  22   9  23  14  24  14  25  14  26  14  27  13  28  13  29  13
M  ISO  6  30  13  31  13  32  13  33  13  34  13  35  13
M  END
>  <minimizedAffinity>  (1) 
-5.15910149

>  <minimizedRMSD>  (1) 
4.31542301

$$$$
