
     RDKit          3D

 29 32  0  0  0  0  0  0  0  0999 V2000
   44.4300   34.6190   42.1810 C   0  0  0  0  0  0  0  0  0  0  0  0
   44.7050   33.6230   43.1450 C   0  0  0  0  0  0  0  0  0  0  0  0
   45.1350   34.0900   44.4080 C   0  0  0  0  0  0  0  0  0  0  0  0
   45.2480   35.4310   44.5960 N   0  0  0  0  0  0  0  0  0  0  0  0
   44.9720   36.3300   43.6490 C   0  0  0  0  0  0  0  0  0  0  0  0
   44.5670   35.9310   42.4470 N   0  0  0  0  0  0  0  0  0  0  0  0
   45.1240   37.7510   43.9480 C   0  0  0  0  0  0  0  0  0  0  0  0
   45.3860   38.7990   43.1010 C   0  0  0  0  0  0  0  0  0  0  0  0
   45.4440   39.9460   43.8060 N   0  0  0  0  0  0  0  0  0  0  0  0
   45.2190   39.6510   45.1210 C   0  0  0  0  0  0  0  0  0  0  0  0
   45.0340   38.3330   45.1600 N   0  0  0  0  0  0  0  0  0  0  0  0
   43.8760   34.1190   40.5350 S   0  0  0  0  0  0  0  0  0  0  0  0
   39.1820   32.9590   41.5240 N   0  0  0  0  0  0  0  0  0  0  0  0
   40.0250   32.0490   42.0120 C   0  0  0  0  0  0  0  0  0  0  0  0
   41.2790   32.4690   41.6810 N   0  0  0  0  0  0  0  0  0  0  0  0
   41.1410   33.6150   41.0090 C   0  0  0  0  0  0  0  0  0  0  0  0
   42.1030   34.4280   40.4650 C   0  0  0  0  0  0  0  0  0  0  0  0
   41.7830   35.5580   39.8140 N   0  0  0  0  0  0  0  0  0  0  0  0
   40.4460   35.8580   39.7210 C   0  0  0  0  0  0  0  0  0  0  0  0
   39.4960   35.0700   40.2500 N   0  0  0  0  0  0  0  0  0  0  0  0
   39.8200   33.9630   40.8870 C   0  0  0  0  0  0  0  0  0  0  0  0
   44.5915   32.5510   42.9262 H   0  0  0  0  0  0  0  0  0  0  0  0
   45.3723   33.3853   45.2186 H   0  0  0  0  0  0  0  0  0  0  0  0
   45.5270   38.7153   42.0133 H   0  0  0  0  0  0  0  0  0  0  0  0
   45.1957   40.3531   45.9675 H   0  0  0  0  0  0  0  0  0  0  0  0
   44.8419   37.8119   46.0274 H   0  0  0  0  0  0  0  0  0  0  0  0
   38.1583   32.9021   41.6222 H   0  0  0  0  0  0  0  0  0  0  0  0
   39.7610   31.1392   42.5711 H   0  0  0  0  0  0  0  0  0  0  0  0
   40.1429   36.7754   39.1951 H   0  0  0  0  0  0  0  0  0  0  0  0
  1  6  1  0
  1  2  2  0
  2  3  1  0
  3  4  2  0
  5  7  1  0
  5  4  1  0
  6  5  2  0
  7 11  1  0
  8  9  1  0
  8  7  2  0
  9 10  2  0
 10 11  1  0
 12  1  1  0
 13 14  1  0
 15 14  2  0
 16 15  1  0
 17 12  1  0
 17 16  2  0
 18 17  1  0
 19 18  2  0
 19 20  1  0
 20 21  2  0
 21 16  1  0
 21 13  1  0
  2 22  1  0
  3 23  1  0
  8 24  1  0
 10 25  1  0
 11 26  1  0
 13 27  1  0
 14 28  1  0
 19 29  1  0
M  ISO  8  22  14  23  14  24  14  25  14  26   9  27   9  28  14  29  14
M  END
>  <minimizedAffinity>  (1) 
-4.91071415

>  <minimizedRMSD>  (1) 
0.9953264

$$$$
