
     RDKit          3D

 32 35  0  0  0  0  0  0  0  0999 V2000
   46.9880   34.5740   41.8980 C   0  0  0  0  0  0  0  0  0  0  0  0
   47.1590   34.3220   43.2680 C   0  0  0  0  0  0  0  0  0  0  0  0
   45.9930   34.0170   44.0050 C   0  0  0  0  0  0  0  0  0  0  0  0
   44.8130   33.9960   43.3320 N   0  0  0  0  0  0  0  0  0  0  0  0
   44.6870   34.2430   42.0210 C   0  0  0  0  0  0  0  0  0  0  0  0
   45.7840   34.5330   41.3090 N   0  0  0  0  0  0  0  0  0  0  0  0
   43.3620   34.1880   41.4140 C   0  0  0  0  0  0  0  0  0  0  0  0
   42.6120   33.0330   41.4170 C   0  0  0  0  0  0  0  0  0  0  0  0
   41.3620   33.0800   40.8150 C   0  0  0  0  0  0  0  0  0  0  0  0
   40.8870   34.2300   40.2350 C   0  0  0  0  0  0  0  0  0  0  0  0
   41.6390   35.4120   40.2230 C   0  0  0  0  0  0  0  0  0  0  0  0
   42.8940   35.3550   40.8320 C   0  0  0  0  0  0  0  0  0  0  0  0
   48.4440   34.9690   40.9030 S   0  0  0  0  0  0  0  0  0  0  0  0
   48.4680   30.5430   38.6990 N   0  0  0  0  0  0  0  0  0  0  0  0
   48.5730   30.4510   40.0300 C   0  0  0  0  0  0  0  0  0  0  0  0
   48.5570   31.7150   40.5340 N   0  0  0  0  0  0  0  0  0  0  0  0
   48.4410   32.5390   39.4880 C   0  0  0  0  0  0  0  0  0  0  0  0
   48.3800   33.9150   39.4550 C   0  0  0  0  0  0  0  0  0  0  0  0
   48.2620   34.5720   38.2880 N   0  0  0  0  0  0  0  0  0  0  0  0
   48.2080   33.8350   37.1520 C   0  0  0  0  0  0  0  0  0  0  0  0
   48.2680   32.4840   37.1610 N   0  0  0  0  0  0  0  0  0  0  0  0
   48.3830   31.8380   38.3180 C   0  0  0  0  0  0  0  0  0  0  0  0
   48.1502   34.3600   43.7436 H   0  0  0  0  0  0  0  0  0  0  0  0
   46.0388   33.8045   45.0833 H   0  0  0  0  0  0  0  0  0  0  0  0
   42.9890   32.1085   41.8788 H   0  0  0  0  0  0  0  0  0  0  0  0
   40.7375   32.1745   40.8024 H   0  0  0  0  0  0  0  0  0  0  0  0
   39.8911   34.2233   39.7680 H   0  0  0  0  0  0  0  0  0  0  0  0
   41.2611   36.3349   39.7589 H   0  0  0  0  0  0  0  0  0  0  0  0
   43.5248   36.2560   40.8502 H   0  0  0  0  0  0  0  0  0  0  0  0
   48.4539   29.7396   38.0546 H   0  0  0  0  0  0  0  0  0  0  0  0
   48.6571   29.5212   40.6118 H   0  0  0  0  0  0  0  0  0  0  0  0
   48.1118   34.3547   36.1873 H   0  0  0  0  0  0  0  0  0  0  0  0
  1  2  2  0
  2  3  1  0
  4  3  2  0
  5  4  1  0
  6  1  1  0
  6  5  2  0
  7  8  2  0
  7  5  1  0
  9  8  1  0
 10  9  2  0
 11 10  1  0
 11 12  2  0
 12  7  1  0
 13  1  1  0
 14 15  1  0
 15 16  2  0
 17 16  1  0
 18 17  2  0
 18 13  1  0
 19 18  1  0
 20 21  1  0
 20 19  2  0
 21 22  2  0
 22 14  1  0
 22 17  1  0
  2 23  1  0
  3 24  1  0
  8 25  1  0
  9 26  1  0
 10 27  1  0
 11 28  1  0
 12 29  1  0
 14 30  1  0
 15 31  1  0
 20 32  1  0
M  ISO  8  23  14  24  14  25  14  26  14  27  14  28  14  29  14  30   9
M  ISO  2  31  14  32  14
M  END
>  <minimizedAffinity>  (1) 
-4.74495554

>  <minimizedRMSD>  (1) 
6.52987194

$$$$
