
     RDKit          3D

 33 36  0  0  0  0  0  0  0  0999 V2000
   43.8830   32.9910   41.4870 C   0  0  0  0  0  0  0  0  0  0  0  0
   44.3660   31.9190   42.2630 C   0  0  0  0  0  0  0  0  0  0  0  0
   44.9880   32.2780   43.4820 C   0  0  0  0  0  0  0  0  0  0  0  0
   45.0740   33.5900   43.8080 N   0  0  0  0  0  0  0  0  0  0  0  0
   44.5950   34.5730   43.0290 C   0  0  0  0  0  0  0  0  0  0  0  0
   44.0030   34.2840   41.8740 N   0  0  0  0  0  0  0  0  0  0  0  0
   44.7770   35.8910   43.5360 N   0  0  0  0  0  0  0  0  0  0  0  0
   45.0340   36.9470   42.7410 C   0  0  0  0  0  0  0  0  0  0  0  0
   45.2030   38.2190   43.3020 C   0  0  0  0  0  0  0  0  0  0  0  0
   45.0860   38.2810   44.6740 C   0  0  0  0  0  0  0  0  0  0  0  0
   45.2500   39.5530   45.2890 N   0  0  0  0  0  0  0  0  0  0  0  0
   44.8280   37.2120   45.4500 N   0  0  0  0  0  0  0  0  0  0  0  0
   44.6690   35.9900   44.8730 C   0  0  0  0  0  0  0  0  0  0  0  0
   44.4300   35.0300   45.6500 O   0  0  0  0  0  0  0  0  0  0  0  0
   43.0680   32.6480   39.9070 S   0  0  0  0  0  0  0  0  0  0  0  0
   38.2270   32.9600   40.8790 N   0  0  0  0  0  0  0  0  0  0  0  0
   38.7370   31.7610   41.2200 C   0  0  0  0  0  0  0  0  0  0  0  0
   40.0560   31.7970   40.9100 N   0  0  0  0  0  0  0  0  0  0  0  0
   40.3100   32.9970   40.3950 C   0  0  0  0  0  0  0  0  0  0  0  0
   41.4900   33.5150   39.9320 C   0  0  0  0  0  0  0  0  0  0  0  0
   41.5670   34.7730   39.4350 N   0  0  0  0  0  0  0  0  0  0  0  0
   40.4200   35.4940   39.4190 C   0  0  0  0  0  0  0  0  0  0  0  0
   39.2490   35.0000   39.8720 N   0  0  0  0  0  0  0  0  0  0  0  0
   39.1880   33.7660   40.3560 C   0  0  0  0  0  0  0  0  0  0  0  0
   44.2661   30.8716   41.9422 H   0  0  0  0  0  0  0  0  0  0  0  0
   45.3941   31.5062   44.1524 H   0  0  0  0  0  0  0  0  0  0  0  0
   45.1111   36.8107   41.6522 H   0  0  0  0  0  0  0  0  0  0  0  0
   45.4147   39.1079   42.6896 H   0  0  0  0  0  0  0  0  0  0  0  0
   45.1707   39.6446   46.3118 H   0  0  0  0  0  0  0  0  0  0  0  0
   45.4481   40.3826   44.7115 H   0  0  0  0  0  0  0  0  0  0  0  0
   37.2402   33.2300   40.9987 H   0  0  0  0  0  0  0  0  0  0  0  0
   38.1894   30.9165   41.6639 H   0  0  0  0  0  0  0  0  0  0  0  0
   40.4443   36.5196   39.0222 H   0  0  0  0  0  0  0  0  0  0  0  0
  1  6  1  0
  1  2  2  0
  2  3  1  0
  3  4  2  0
  5  7  1  0
  5  4  1  0
  6  5  2  0
  7 13  1  0
  8  9  2  0
  8  7  1  0
  9 10  1  0
 10 11  1  0
 10 12  2  0
 13 12  1  0
 13 14  2  0
 15 20  1  0
 15  1  1  0
 16 17  1  0
 18 17  2  0
 19 18  1  0
 20 19  2  0
 21 20  1  0
 22 21  2  0
 22 23  1  0
 23 24  2  0
 24 19  1  0
 24 16  1  0
  2 25  1  0
  3 26  1  0
  8 27  1  0
  9 28  1  0
 11 29  1  0
 11 30  1  0
 16 31  1  0
 17 32  1  0
 22 33  1  0
M  ISO  7  25  14  26  14  27  14  28  14  31   9  32  14  33  14
M  END
>  <minimizedAffinity>  (1) 
-4.54155827

>  <minimizedRMSD>  (1) 
1.68468273

$$$$
