
     RDKit          3D

 35 39  0  0  0  0  0  0  0  0999 V2000
   46.5660   34.8460   41.6810 C   0  0  0  0  0  0  0  0  0  0  0  0
   46.1370   35.6360   42.7550 C   0  0  0  0  0  0  0  0  0  0  0  0
   44.7850   35.5130   43.1400 C   0  0  0  0  0  0  0  0  0  0  0  0
   44.0200   34.6510   42.4470 N   0  0  0  0  0  0  0  0  0  0  0  0
   44.4460   33.9020   41.4200 C   0  0  0  0  0  0  0  0  0  0  0  0
   45.7230   34.0020   41.0390 N   0  0  0  0  0  0  0  0  0  0  0  0
   43.5160   33.0230   40.7720 N   0  0  0  0  0  0  0  0  0  0  0  0
   42.4030   32.4930   41.3440 C   0  0  0  0  0  0  0  0  0  0  0  0
   41.7850   31.7170   40.4170 N   0  0  0  0  0  0  0  0  0  0  0  0
   42.5250   31.7830   39.2980 C   0  0  0  0  0  0  0  0  0  0  0  0
   42.4270   31.2300   38.0370 C   0  0  0  0  0  0  0  0  0  0  0  0
   43.3440   31.4690   37.0530 N   0  0  0  0  0  0  0  0  0  0  0  0
   44.4070   32.2870   37.3120 C   0  0  0  0  0  0  0  0  0  0  0  0
   44.5290   32.8420   38.5330 N   0  0  0  0  0  0  0  0  0  0  0  0
   43.6260   32.5980   39.4820 C   0  0  0  0  0  0  0  0  0  0  0  0
   41.3330   30.3730   37.7320 N   0  0  0  0  0  0  0  0  0  0  0  0
   48.2850   34.9450   41.1270 S   0  0  0  0  0  0  0  0  0  0  0  0
   49.9990   30.3170   41.4330 N   0  0  0  0  0  0  0  0  0  0  0  0
   50.0360   30.9560   42.6210 C   0  0  0  0  0  0  0  0  0  0  0  0
   49.5440   32.2130   42.4150 N   0  0  0  0  0  0  0  0  0  0  0  0
   49.2270   32.2930   41.1190 C   0  0  0  0  0  0  0  0  0  0  0  0
   48.6950   33.3520   40.4210 C   0  0  0  0  0  0  0  0  0  0  0  0
   48.4410   33.2430   39.1090 N   0  0  0  0  0  0  0  0  0  0  0  0
   48.7300   32.0500   38.5000 C   0  0  0  0  0  0  0  0  0  0  0  0
   49.2500   31.0130   39.1800 N   0  0  0  0  0  0  0  0  0  0  0  0
   49.5010   31.1180   40.4750 C   0  0  0  0  0  0  0  0  0  0  0  0
   46.8228   36.3212   43.2748 H   0  0  0  0  0  0  0  0  0  0  0  0
   44.3729   36.0994   43.9745 H   0  0  0  0  0  0  0  0  0  0  0  0
   42.0627   32.6628   42.3762 H   0  0  0  0  0  0  0  0  0  0  0  0
   45.1552   32.4902   36.5317 H   0  0  0  0  0  0  0  0  0  0  0  0
   41.2516   29.9558   36.7938 H   0  0  0  0  0  0  0  0  0  0  0  0
   40.6224   30.1698   38.4494 H   0  0  0  0  0  0  0  0  0  0  0  0
   50.3102   29.3470   41.2808 H   0  0  0  0  0  0  0  0  0  0  0  0
   50.3947   30.5424   43.5751 H   0  0  0  0  0  0  0  0  0  0  0  0
   48.5309   31.9374   37.4240 H   0  0  0  0  0  0  0  0  0  0  0  0
  1  2  2  0
  2  3  1  0
  4  3  2  0
  5  4  1  0
  6  5  2  0
  6  1  1  0
  7  8  1  0
  7  5  1  0
  9  8  2  0
 10 15  2  0
 10  9  1  0
 11 10  1  0
 12 13  1  0
 12 11  2  0
 13 14  2  0
 14 15  1  0
 15  7  1  0
 16 11  1  0
 17  1  1  0
 18 19  1  0
 20 19  2  0
 21 20  1  0
 22 21  2  0
 22 17  1  0
 23 22  1  0
 24 23  2  0
 24 25  1  0
 25 26  2  0
 26 21  1  0
 26 18  1  0
  2 27  1  0
  3 28  1  0
  8 29  1  0
 13 30  1  0
 16 31  1  0
 16 32  1  0
 18 33  1  0
 19 34  1  0
 24 35  1  0
M  ISO  7  27  14  28  14  29  14  30  14  33   9  34  14  35  14
M  END
>  <minimizedAffinity>  (1) 
-4.42612886

>  <minimizedRMSD>  (1) 
8.11033154

$$$$
