
     RDKit          3D

 38 42  0  0  0  0  0  0  0  0999 V2000
   45.2680   33.8500   41.1830 C   0  0  0  0  0  0  0  0  0  0  0  0
   44.9490   33.5890   42.5180 C   0  0  0  0  0  0  0  0  0  0  0  0
   45.9190   33.9370   43.4610 C   0  0  0  0  0  0  0  0  0  0  0  0
   47.0830   34.4920   43.0230 N   0  0  0  0  0  0  0  0  0  0  0  0
   47.3520   34.7270   41.7220 C   0  0  0  0  0  0  0  0  0  0  0  0
   46.4330   34.4010   40.8000 N   0  0  0  0  0  0  0  0  0  0  0  0
   45.7290   33.7280   44.8560 N   0  0  0  0  0  0  0  0  0  0  0  0
   44.9760   34.5400   45.6250 C   0  0  0  0  0  0  0  0  0  0  0  0
   44.9610   34.1240   46.9020 N   0  0  0  0  0  0  0  0  0  0  0  0
   45.7300   33.0060   46.9570 C   0  0  0  0  0  0  0  0  0  0  0  0
   46.0900   32.1450   47.9720 C   0  0  0  0  0  0  0  0  0  0  0  0
   46.8900   31.0890   47.7270 N   0  0  0  0  0  0  0  0  0  0  0  0
   47.3260   30.9050   46.4490 C   0  0  0  0  0  0  0  0  0  0  0  0
   47.0080   31.7160   45.4030 N   0  0  0  0  0  0  0  0  0  0  0  0
   46.1990   32.7770   45.6770 C   0  0  0  0  0  0  0  0  0  0  0  0
   48.6290   35.3340   41.2950 C   0  0  0  0  0  0  0  0  0  0  0  0
   48.6340   35.4750   39.9200 F   0  0  0  0  0  0  0  0  0  0  0  0
   49.6720   34.4450   41.5850 F   0  0  0  0  0  0  0  0  0  0  0  0
   48.9310   36.5040   41.9590 F   0  0  0  0  0  0  0  0  0  0  0  0
   45.6130   32.3660   49.3130 N   0  0  0  0  0  0  0  0  0  0  0  0
   44.0460   33.4210   39.9040 S   0  0  0  0  0  0  0  0  0  0  0  0
   39.6970   32.9630   42.1720 N   0  0  0  0  0  0  0  0  0  0  0  0
   40.4060   31.8250   42.2130 C   0  0  0  0  0  0  0  0  0  0  0  0
   41.5750   32.0770   41.5590 N   0  0  0  0  0  0  0  0  0  0  0  0
   41.5350   33.3440   41.1500 C   0  0  0  0  0  0  0  0  0  0  0  0
   42.4770   34.0530   40.4520 C   0  0  0  0  0  0  0  0  0  0  0  0
   42.2530   35.3430   40.1250 N   0  0  0  0  0  0  0  0  0  0  0  0
   41.0800   35.8880   40.5110 C   0  0  0  0  0  0  0  0  0  0  0  0
   40.1530   35.2060   41.1920 N   0  0  0  0  0  0  0  0  0  0  0  0
   40.3670   33.9230   41.5220 C   0  0  0  0  0  0  0  0  0  0  0  0
   43.9900   33.1359   42.8095 H   0  0  0  0  0  0  0  0  0  0  0  0
   44.4430   35.4281   45.2546 H   0  0  0  0  0  0  0  0  0  0  0  0
   47.9791   30.0427   46.2492 H   0  0  0  0  0  0  0  0  0  0  0  0
   45.8839   31.7208   50.0688 H   0  0  0  0  0  0  0  0  0  0  0  0
   45.0010   33.1692   49.5161 H   0  0  0  0  0  0  0  0  0  0  0  0
   38.7613   33.0825   42.5857 H   0  0  0  0  0  0  0  0  0  0  0  0
   40.1039   30.8767   42.6814 H   0  0  0  0  0  0  0  0  0  0  0  0
   40.8779   36.9384   40.2543 H   0  0  0  0  0  0  0  0  0  0  0  0
  1  2  2  0
  2  3  1  0
  3  7  1  0
  4  3  2  0
  5  4  1  0
  6  1  1  0
  6  5  2  0
  7  8  1  0
  7 15  1  0
  8  9  2  0
  9 10  1  0
 10 11  2  0
 11 20  1  0
 12 11  1  0
 13 12  2  0
 14 15  2  0
 14 13  1  0
 15 10  1  0
 16 18  1  0
 16  5  1  0
 16 19  1  0
 17 16  1  0
 21 26  1  0
 21  1  1  0
 22 23  1  0
 24 23  2  0
 25 30  2  0
 25 24  1  0
 26 25  1  0
 27 26  2  0
 27 28  1  0
 28 29  2  0
 29 30  1  0
 30 22  1  0
  2 31  1  0
  8 32  1  0
 13 33  1  0
 20 34  1  0
 20 35  1  0
 22 36  1  0
 23 37  1  0
 28 38  1  0
M  ISO  6  31  14  32  14  33  14  36   9  37  14  38  14
M  END
>  <minimizedAffinity>  (1) 
-8.39300156

>  <minimizedRMSD>  (1) 
0.797222793

$$$$
