
     RDKit          3D

 49 52  0  0  1  0  0  0  0  0999 V2000
   49.6090   30.2970   43.0150 C   0  0  0  0  0  0  0  0  0  0  0  0
   48.8560   31.4220   42.6530 C   0  0  0  0  0  0  0  0  0  0  0  0
   47.8230   31.8870   43.4760 C   0  0  0  0  0  0  0  0  0  0  0  0
   47.6370   31.1710   44.5980 N   0  0  0  0  0  0  0  0  0  0  0  0
   48.3410   30.0990   44.9590 C   0  0  0  0  0  0  0  0  0  0  0  0
   49.3150   29.6720   44.1710 N   0  0  0  0  0  0  0  0  0  0  0  0
   48.0170   29.4670   46.1660 N   0  0  0  0  0  0  0  0  0  0  0  0
   46.8070   29.6680   46.9120 C   0  0  0  0  0  0  0  0  0  0  0  0
   46.0060   28.3690   46.8830 C   0  0  0  0  0  0  0  0  0  0  0  0
   46.8630   27.2650   46.9370 O   0  0  0  0  0  0  0  0  0  0  0  0
   48.0210   27.5450   47.6190 C   0  0  0  0  0  0  0  0  0  0  0  0
   48.8600   28.5240   46.8220 C   0  0  2  0  0  0  0  0  0  0  0  0
   46.9810   33.0770   43.1540 C   0  0  0  0  0  0  0  0  0  0  0  0
   47.5220   34.2880   42.9730 C   0  0  0  0  0  0  0  0  0  0  0  0
   46.0720   35.3300   42.6160 S   0  0  0  0  0  0  0  0  0  0  0  0
   44.9100   33.8320   42.7910 C   0  0  0  0  0  0  0  0  0  0  0  0
   45.6890   33.0020   43.0350 N   0  0  0  0  0  0  0  0  0  0  0  0
   43.5150   34.0930   42.5950 N   0  0  0  0  0  0  0  0  0  0  0  0
   43.0210   35.0980   41.7570 C   0  0  0  0  0  0  0  0  0  0  0  0
   43.8010   35.4920   40.7990 N   0  0  0  0  0  0  0  0  0  0  0  0
   41.6980   35.5650   42.0780 N   0  0  0  0  0  0  0  0  0  0  0  0
   43.4230   36.2300   40.1550 H   0  0  0  0  0  0  0  0  0  0  0  0
   49.8630   29.2490   47.6640 C   0  0  0  0  0  0  0  0  0  0  0  0
   49.9040   28.7720   49.0910 C   0  0  0  0  0  0  0  0  0  0  0  0
   51.1700   29.4550   49.5880 C   0  0  0  0  0  0  0  0  0  0  0  0
   52.0590   29.6180   48.3850 C   0  0  0  0  0  0  0  0  0  0  0  0
   51.2850   28.9970   47.2140 C   0  0  0  0  0  0  0  0  0  0  0  0
   50.4218   29.9327   42.3695 H   0  0  0  0  0  0  0  0  0  0  0  0
   49.0789   31.9457   41.7117 H   0  0  0  0  0  0  0  0  0  0  0  0
   47.0504   29.9320   47.9517 H   0  0  0  0  0  0  0  0  0  0  0  0
   46.2197   30.4859   46.4692 H   0  0  0  0  0  0  0  0  0  0  0  0
   45.3268   28.3429   47.7479 H   0  0  0  0  0  0  0  0  0  0  0  0
   45.4293   28.3269   45.9472 H   0  0  0  0  0  0  0  0  0  0  0  0
   47.7725   27.9868   48.5953 H   0  0  0  0  0  0  0  0  0  0  0  0
   48.5897   26.6152   47.7679 H   0  0  0  0  0  0  0  0  0  0  0  0
   49.4202   27.9341   46.0816 H   0  0  0  0  0  0  0  0  0  0  0  0
   48.5808   34.5812   43.0267 H   0  0  0  0  0  0  0  0  0  0  0  0
   42.8362   33.5062   43.1008 H   0  0  0  0  0  0  0  0  0  0  0  0
   41.2608   36.3043   41.5095 H   0  0  0  0  0  0  0  0  0  0  0  0
   41.1884   35.1599   42.8762 H   0  0  0  0  0  0  0  0  0  0  0  0
   49.5413   30.2966   47.5687 H   0  0  0  0  0  0  0  0  0  0  0  0
   49.0186   29.1033   49.6535 H   0  0  0  0  0  0  0  0  0  0  0  0
   49.9043   27.6778   49.2040 H   0  0  0  0  0  0  0  0  0  0  0  0
   50.9288   30.4375   50.0198 H   0  0  0  0  0  0  0  0  0  0  0  0
   51.6628   28.8631   50.3734 H   0  0  0  0  0  0  0  0  0  0  0  0
   52.2553   30.6833   48.1939 H   0  0  0  0  0  0  0  0  0  0  0  0
   53.0353   29.1328   48.5311 H   0  0  0  0  0  0  0  0  0  0  0  0
   51.4949   27.9220   47.1122 H   0  0  0  0  0  0  0  0  0  0  0  0
   51.5350   29.4114   46.2262 H   0  0  0  0  0  0  0  0  0  0  0  0
  1  6  2  0
  2  1  1  0
  2  3  2  0
  3  4  1  0
  4  5  2  0
  5  7  1  0
  6  5  1  0
  7 12  1  0
  7  8  1  0
  9  8  1  0
  9 10  1  0
 10 11  1  0
 12 11  1  0
 12 23  1  0
 13  3  1  0
 14 13  2  0
 15 16  1  0
 15 14  1  0
 16 17  2  0
 17 13  1  0
 18 16  1  0
 19 21  1  0
 19 18  1  0
 20 19  2  0
 22 20  1  0
 23 24  1  0
 24 25  1  0
 26 25  1  0
 27 23  1  0
 27 26  1  0
  1 28  1  0
  2 29  1  0
  8 30  1  0
  8 31  1  0
  9 32  1  0
  9 33  1  0
 11 34  1  0
 11 35  1  0
 12 36  1  6
 14 37  1  0
 18 38  1  0
 21 39  1  0
 21 40  1  0
 23 41  1  0
 24 42  1  0
 24 43  1  0
 25 44  1  0
 25 45  1  0
 26 46  1  0
 26 47  1  0
 27 48  1  0
 27 49  1  0
M  ISO  8  28  14  29  14  30  13  31  13  32  13  33  13  34  13  35  13
M  ISO  8  36  13  37  14  41  13  42  13  43  13  44  13  45  13  46  13
M  ISO  3  47  13  48  13  49  13
M  END
>  <minimizedAffinity>  (1) 
-5.20651197

>  <minimizedRMSD>  (1) 
3.25526619

$$$$
