
     RDKit          3D

 32 35  0  0  0  0  0  0  0  0999 V2000
   45.0490   33.9840   40.9860 C   0  0  0  0  0  0  0  0  0  0  0  0
   44.6090   34.0210   42.3260 C   0  0  0  0  0  0  0  0  0  0  0  0
   45.5420   34.4830   43.2590 C   0  0  0  0  0  0  0  0  0  0  0  0
   46.7750   34.8560   42.8420 N   0  0  0  0  0  0  0  0  0  0  0  0
   47.1570   34.8050   41.5440 C   0  0  0  0  0  0  0  0  0  0  0  0
   46.2800   34.3670   40.6410 N   0  0  0  0  0  0  0  0  0  0  0  0
   45.2060   34.5650   44.6590 C   0  0  0  0  0  0  0  0  0  0  0  0
   45.5220   33.6660   45.6530 C   0  0  0  0  0  0  0  0  0  0  0  0
   45.0290   34.0870   46.8530 C   0  0  0  0  0  0  0  0  0  0  0  0
   44.4060   35.2580   46.5860 N   0  0  0  0  0  0  0  0  0  0  0  0
   44.5210   35.5220   45.2880 N   0  0  0  0  0  0  0  0  0  0  0  0
   48.5130   35.2230   41.1360 C   0  0  0  0  0  0  0  0  0  0  0  0
   48.5420   35.3440   39.7440 F   0  0  0  0  0  0  0  0  0  0  0  0
   49.4240   34.2190   41.4450 F   0  0  0  0  0  0  0  0  0  0  0  0
   48.9560   36.3600   41.7640 F   0  0  0  0  0  0  0  0  0  0  0  0
   43.8990   33.3980   39.7180 S   0  0  0  0  0  0  0  0  0  0  0  0
   39.4830   33.1100   41.8910 N   0  0  0  0  0  0  0  0  0  0  0  0
   40.2100   32.0050   42.0960 C   0  0  0  0  0  0  0  0  0  0  0  0
   41.3840   32.2130   41.4540 N   0  0  0  0  0  0  0  0  0  0  0  0
   41.3360   33.4100   40.8910 C   0  0  0  0  0  0  0  0  0  0  0  0
   42.2840   34.0580   40.1390 C   0  0  0  0  0  0  0  0  0  0  0  0
   42.0580   35.2890   39.6420 N   0  0  0  0  0  0  0  0  0  0  0  0
   40.8560   35.8550   39.9190 C   0  0  0  0  0  0  0  0  0  0  0  0
   39.9140   35.2260   40.6600 N   0  0  0  0  0  0  0  0  0  0  0  0
   40.1410   34.0040   41.1510 C   0  0  0  0  0  0  0  0  0  0  0  0
   43.5962   33.7063   42.6181 H   0  0  0  0  0  0  0  0  0  0  0  0
   46.0924   32.7379   45.5005 H   0  0  0  0  0  0  0  0  0  0  0  0
   45.1185   33.5836   47.8269 H   0  0  0  0  0  0  0  0  0  0  0  0
   43.9213   35.8491   47.2763 H   0  0  0  0  0  0  0  0  0  0  0  0
   38.5318   33.2527   42.2595 H   0  0  0  0  0  0  0  0  0  0  0  0
   39.9149   31.1127   42.6676 H   0  0  0  0  0  0  0  0  0  0  0  0
   40.6398   36.8600   39.5276 H   0  0  0  0  0  0  0  0  0  0  0  0
  1  2  2  0
  2  3  1  0
  3  7  1  0
  4  3  2  0
  5  4  1  0
  6  1  1  0
  6  5  2  0
  7 11  2  0
  7  8  1  0
  8  9  2  0
 10  9  1  0
 11 10  1  0
 12 14  1  0
 12  5  1  0
 12 15  1  0
 13 12  1  0
 16 21  1  0
 16  1  1  0
 17 18  1  0
 19 18  2  0
 20 25  2  0
 20 19  1  0
 21 20  1  0
 22 23  1  0
 22 21  2  0
 23 24  2  0
 24 25  1  0
 25 17  1  0
  2 26  1  0
  8 27  1  0
  9 28  1  0
 10 29  1  0
 17 30  1  0
 18 31  1  0
 23 32  1  0
M  ISO  7  26  14  27  14  28  14  29   9  30   9  31  14  32  14
M  END
>  <minimizedAffinity>  (1) 
-7.56640053

>  <minimizedRMSD>  (1) 
0.398630381

$$$$
