
     RDKit          3D

 31 34  0  0  0  0  0  0  0  0999 V2000
   45.2060   33.9270   41.1590 C   0  0  0  0  0  0  0  0  0  0  0  0
   44.8420   33.8110   42.5240 C   0  0  0  0  0  0  0  0  0  0  0  0
   45.8030   34.2230   43.4470 C   0  0  0  0  0  0  0  0  0  0  0  0
   46.9930   34.6970   43.0000 N   0  0  0  0  0  0  0  0  0  0  0  0
   47.3050   34.7930   41.6960 C   0  0  0  0  0  0  0  0  0  0  0  0
   46.4060   34.4060   40.7980 N   0  0  0  0  0  0  0  0  0  0  0  0
   45.4790   34.1240   44.8280 N   0  0  0  0  0  0  0  0  0  0  0  0
   45.9270   33.0440   45.4870 C   0  0  0  0  0  0  0  0  0  0  0  0
   45.5270   33.1190   46.7770 N   0  0  0  0  0  0  0  0  0  0  0  0
   44.8160   34.2710   46.9090 C   0  0  0  0  0  0  0  0  0  0  0  0
   44.8000   34.8660   45.7110 N   0  0  0  0  0  0  0  0  0  0  0  0
   48.6150   35.3160   41.2630 C   0  0  0  0  0  0  0  0  0  0  0  0
   48.6120   35.4410   39.8720 F   0  0  0  0  0  0  0  0  0  0  0  0
   49.6120   34.3980   41.5550 F   0  0  0  0  0  0  0  0  0  0  0  0
   48.9740   36.4920   41.8880 F   0  0  0  0  0  0  0  0  0  0  0  0
   44.0140   33.4120   39.9020 S   0  0  0  0  0  0  0  0  0  0  0  0
   39.6460   32.9840   42.1500 N   0  0  0  0  0  0  0  0  0  0  0  0
   40.3660   31.8600   42.2470 C   0  0  0  0  0  0  0  0  0  0  0  0
   41.5340   32.1140   41.5920 N   0  0  0  0  0  0  0  0  0  0  0  0
   41.4850   33.3460   41.1310 C   0  0  0  0  0  0  0  0  0  0  0  0
   42.4170   34.0490   40.4110 C   0  0  0  0  0  0  0  0  0  0  0  0
   42.1830   35.3230   40.0230 N   0  0  0  0  0  0  0  0  0  0  0  0
   40.9900   35.8660   40.3770 C   0  0  0  0  0  0  0  0  0  0  0  0
   40.0680   35.1920   41.0810 N   0  0  0  0  0  0  0  0  0  0  0  0
   40.2970   33.9290   41.4680 C   0  0  0  0  0  0  0  0  0  0  0  0
   43.8622   33.4202   42.8360 H   0  0  0  0  0  0  0  0  0  0  0  0
   46.5229   32.2297   45.0490 H   0  0  0  0  0  0  0  0  0  0  0  0
   44.3425   34.6438   47.8292 H   0  0  0  0  0  0  0  0  0  0  0  0
   38.7055   33.1050   42.5520 H   0  0  0  0  0  0  0  0  0  0  0  0
   40.0757   30.9260   42.7504 H   0  0  0  0  0  0  0  0  0  0  0  0
   40.7705   36.9005   40.0743 H   0  0  0  0  0  0  0  0  0  0  0  0
  1  2  2  0
  2  3  1  0
  3  7  1  0
  4  3  2  0
  5  4  1  0
  6  1  1  0
  6  5  2  0
  7  8  1  0
  7 11  1  0
  8  9  2  0
  9 10  1  0
 11 10  2  0
 12 14  1  0
 12  5  1  0
 12 15  1  0
 13 12  1  0
 16 21  1  0
 16  1  1  0
 17 18  1  0
 19 18  2  0
 20 25  2  0
 20 19  1  0
 21 20  1  0
 22 23  1  0
 22 21  2  0
 23 24  2  0
 24 25  1  0
 25 17  1  0
  2 26  1  0
  8 27  1  0
 10 28  1  0
 17 29  1  0
 18 30  1  0
 23 31  1  0
M  ISO  6  26  14  27  14  28  14  29   9  30  14  31  14
M  END
>  <minimizedAffinity>  (1) 
-7.06858921

>  <minimizedRMSD>  (1) 
0.283640146

$$$$
