
     RDKit          3D

 34 37  0  0  0  0  0  0  0  0999 V2000
   45.2780   33.8420   41.1680 C   0  0  0  0  0  0  0  0  0  0  0  0
   44.9620   33.5330   42.5120 C   0  0  0  0  0  0  0  0  0  0  0  0
   45.9540   33.8650   43.4330 C   0  0  0  0  0  0  0  0  0  0  0  0
   47.1050   34.4350   43.0110 N   0  0  0  0  0  0  0  0  0  0  0  0
   47.3630   34.7120   41.7130 C   0  0  0  0  0  0  0  0  0  0  0  0
   46.4400   34.4110   40.8010 N   0  0  0  0  0  0  0  0  0  0  0  0
   45.7380   33.5930   44.8420 C   0  0  0  0  0  0  0  0  0  0  0  0
   46.2840   32.4580   45.4080 C   0  0  0  0  0  0  0  0  0  0  0  0
   46.0580   32.2340   46.7420 C   0  0  0  0  0  0  0  0  0  0  0  0
   45.2990   33.1260   47.5090 C   0  0  0  0  0  0  0  0  0  0  0  0
   44.7690   34.2590   46.8850 C   0  0  0  0  0  0  0  0  0  0  0  0
   45.0090   34.4510   45.5760 N   0  0  0  0  0  0  0  0  0  0  0  0
   48.6330   35.3360   41.2990 C   0  0  0  0  0  0  0  0  0  0  0  0
   48.6390   35.4680   39.9110 F   0  0  0  0  0  0  0  0  0  0  0  0
   49.6900   34.4900   41.6110 F   0  0  0  0  0  0  0  0  0  0  0  0
   48.8940   36.5260   41.9340 F   0  0  0  0  0  0  0  0  0  0  0  0
   44.0510   33.4510   39.8810 S   0  0  0  0  0  0  0  0  0  0  0  0
   39.7170   32.9310   42.1890 N   0  0  0  0  0  0  0  0  0  0  0  0
   40.4410   31.7980   42.1940 C   0  0  0  0  0  0  0  0  0  0  0  0
   41.5880   32.0720   41.5390 N   0  0  0  0  0  0  0  0  0  0  0  0
   41.5460   33.3420   41.1540 C   0  0  0  0  0  0  0  0  0  0  0  0
   42.4760   34.0640   40.4620 C   0  0  0  0  0  0  0  0  0  0  0  0
   42.2520   35.3620   40.1580 N   0  0  0  0  0  0  0  0  0  0  0  0
   41.0760   35.9000   40.5670 C   0  0  0  0  0  0  0  0  0  0  0  0
   40.1640   35.1930   41.2430 N   0  0  0  0  0  0  0  0  0  0  0  0
   40.3820   33.9140   41.5460 C   0  0  0  0  0  0  0  0  0  0  0  0
   44.0096   33.0680   42.8065 H   0  0  0  0  0  0  0  0  0  0  0  0
   46.8813   31.7558   44.8079 H   0  0  0  0  0  0  0  0  0  0  0  0
   46.4808   31.3370   47.2181 H   0  0  0  0  0  0  0  0  0  0  0  0
   45.1236   32.9394   48.5788 H   0  0  0  0  0  0  0  0  0  0  0  0
   44.1660   34.9811   47.4550 H   0  0  0  0  0  0  0  0  0  0  0  0
   38.7854   33.0343   42.6160 H   0  0  0  0  0  0  0  0  0  0  0  0
   40.1542   30.8361   42.6440 H   0  0  0  0  0  0  0  0  0  0  0  0
   40.8651   36.9543   40.3346 H   0  0  0  0  0  0  0  0  0  0  0  0
  1  2  2  0
  2  3  1  0
  3  7  1  0
  4  3  2  0
  5  4  1  0
  6  1  1  0
  6  5  2  0
  7  8  2  0
  7 12  1  0
  8  9  1  0
  9 10  2  0
 11 10  1  0
 12 11  2  0
 13 15  1  0
 13  5  1  0
 13 16  1  0
 14 13  1  0
 17 22  1  0
 17  1  1  0
 18 19  1  0
 20 19  2  0
 21 20  1  0
 21 26  2  0
 22 21  1  0
 23 22  2  0
 23 24  1  0
 24 25  2  0
 25 26  1  0
 26 18  1  0
  2 27  1  0
  8 28  1  0
  9 29  1  0
 10 30  1  0
 11 31  1  0
 18 32  1  0
 19 33  1  0
 24 34  1  0
M  ISO  8  27  14  28  14  29  14  30  14  31  14  32   9  33  14  34  14
M  END
>  <minimizedAffinity>  (1) 
-6.77611494

>  <minimizedRMSD>  (1) 
0.73175168

$$$$
