
     RDKit          3D

 40 43  0  0  0  0  0  0  0  0999 V2000
   45.4970   33.6200   41.1150 C   0  0  0  0  0  0  0  0  0  0  0  0
   45.3550   33.0110   42.3660 C   0  0  0  0  0  0  0  0  0  0  0  0
   46.3870   33.2440   43.2980 C   0  0  0  0  0  0  0  0  0  0  0  0
   47.4260   34.0240   42.9250 N   0  0  0  0  0  0  0  0  0  0  0  0
   47.5330   34.5990   41.7050 C   0  0  0  0  0  0  0  0  0  0  0  0
   46.5590   34.3780   40.8290 N   0  0  0  0  0  0  0  0  0  0  0  0
   46.3870   32.6960   44.6110 N   0  0  0  0  0  0  0  0  0  0  0  0
   46.6800   31.3070   44.8460 C   0  0  0  0  0  0  0  0  0  0  0  0
   45.8190   30.7210   45.9450 C   0  0  0  0  0  0  0  0  0  0  0  0
   45.8980   31.5370   47.2130 C   0  0  0  0  0  0  0  0  0  0  0  0
   46.6930   32.8100   46.9730 C   0  0  0  0  0  0  0  0  0  0  0  0
   46.0900   33.5190   45.7670 C   0  0  0  0  0  0  0  0  0  0  0  0
   48.6900   35.4390   41.3580 C   0  0  0  0  0  0  0  0  0  0  0  0
   48.7330   35.5920   39.9700 F   0  0  0  0  0  0  0  0  0  0  0  0
   49.8670   34.7680   41.7030 F   0  0  0  0  0  0  0  0  0  0  0  0
   48.7280   36.6380   42.0230 F   0  0  0  0  0  0  0  0  0  0  0  0
   44.2000   33.3500   39.8920 S   0  0  0  0  0  0  0  0  0  0  0  0
   39.8930   32.8650   42.2370 N   0  0  0  0  0  0  0  0  0  0  0  0
   40.5400   31.6840   42.1140 C   0  0  0  0  0  0  0  0  0  0  0  0
   41.6950   31.9580   41.4580 N   0  0  0  0  0  0  0  0  0  0  0  0
   41.7230   33.2490   41.2080 C   0  0  0  0  0  0  0  0  0  0  0  0
   42.6840   33.9870   40.5700 C   0  0  0  0  0  0  0  0  0  0  0  0
   42.5410   35.3320   40.4000 N   0  0  0  0  0  0  0  0  0  0  0  0
   41.4060   35.8890   40.8920 C   0  0  0  0  0  0  0  0  0  0  0  0
   40.4500   35.1750   41.5230 N   0  0  0  0  0  0  0  0  0  0  0  0
   40.6040   33.8570   41.6830 C   0  0  0  0  0  0  0  0  0  0  0  0
   44.4848   32.3838   42.6097 H   0  0  0  0  0  0  0  0  0  0  0  0
   46.5012   30.7448   43.9176 H   0  0  0  0  0  0  0  0  0  0  0  0
   47.7308   31.2314   45.1624 H   0  0  0  0  0  0  0  0  0  0  0  0
   44.7739   30.6945   45.6029 H   0  0  0  0  0  0  0  0  0  0  0  0
   46.1879   29.7085   46.1659 H   0  0  0  0  0  0  0  0  0  0  0  0
   44.8809   31.8004   47.5388 H   0  0  0  0  0  0  0  0  0  0  0  0
   46.4008   30.9425   47.9901 H   0  0  0  0  0  0  0  0  0  0  0  0
   46.6324   33.4607   47.8578 H   0  0  0  0  0  0  0  0  0  0  0  0
   47.7508   32.5717   46.7877 H   0  0  0  0  0  0  0  0  0  0  0  0
   46.5398   34.5158   45.6488 H   0  0  0  0  0  0  0  0  0  0  0  0
   45.0053   33.6553   45.8886 H   0  0  0  0  0  0  0  0  0  0  0  0
   38.9780   32.9859   42.6943 H   0  0  0  0  0  0  0  0  0  0  0  0
   40.1991   30.7016   42.4728 H   0  0  0  0  0  0  0  0  0  0  0  0
   41.2580   36.9723   40.7711 H   0  0  0  0  0  0  0  0  0  0  0  0
  1  2  2  0
  2  3  1  0
  3  7  1  0
  4  3  2  0
  5  4  1  0
  6  1  1  0
  6  5  2  0
  7  8  1  0
  7 12  1  0
  8  9  1  0
  9 10  1  0
 11 10  1  0
 12 11  1  0
 13 15  1  0
 13  5  1  0
 13 16  1  0
 14 13  1  0
 17 22  1  0
 17  1  1  0
 19 18  1  0
 20 19  2  0
 21 20  1  0
 21 26  2  0
 22 21  1  0
 23 22  2  0
 23 24  1  0
 24 25  2  0
 25 26  1  0
 26 18  1  0
  2 27  1  0
  8 28  1  0
  8 29  1  0
  9 30  1  0
  9 31  1  0
 10 32  1  0
 10 33  1  0
 11 34  1  0
 11 35  1  0
 12 36  1  0
 12 37  1  0
 18 38  1  0
 19 39  1  0
 24 40  1  0
M  ISO  8  27  14  28  13  29  13  30  13  31  13  32  13  33  13  34  13
M  ISO  6  35  13  36  13  37  13  38   9  39  14  40  14
M  END
>  <minimizedAffinity>  (1) 
-6.76775455

>  <minimizedRMSD>  (1) 
1.46436429

$$$$
