
     RDKit          3D

 39 41  0  0  1  0  0  0  0  0999 V2000
   49.2670   30.4370   43.4480 C   0  0  0  0  0  0  0  0  0  0  0  0
   48.5730   31.5640   43.0000 C   0  0  0  0  0  0  0  0  0  0  0  0
   47.4110   31.9890   43.6380 C   0  0  0  0  0  0  0  0  0  0  0  0
   47.0350   31.2310   44.6920 N   0  0  0  0  0  0  0  0  0  0  0  0
   47.6780   30.1530   45.1380 C   0  0  0  0  0  0  0  0  0  0  0  0
   48.7820   29.7710   44.5140 N   0  0  0  0  0  0  0  0  0  0  0  0
   47.1630   29.4730   46.2430 N   0  0  0  0  0  0  0  0  0  0  0  0
   45.8320   29.6520   46.7780 C   0  0  0  0  0  0  0  0  0  0  0  0
   45.0710   28.3380   46.5550 C   0  0  0  0  0  0  0  0  0  0  0  0
   45.9210   27.2480   46.7410 O   0  0  0  0  0  0  0  0  0  0  0  0
   46.9370   27.5420   47.6460 C   0  0  0  0  0  0  0  0  0  0  0  0
   47.8960   28.5060   46.9910 C   0  0  2  0  0  0  0  0  0  0  0  0
   46.6240   33.1800   43.2130 C   0  0  0  0  0  0  0  0  0  0  0  0
   47.2260   34.3680   43.0000 C   0  0  0  0  0  0  0  0  0  0  0  0
   45.8250   35.4410   42.5130 S   0  0  0  0  0  0  0  0  0  0  0  0
   44.6090   33.9930   42.7000 C   0  0  0  0  0  0  0  0  0  0  0  0
   45.3420   33.1520   43.0270 N   0  0  0  0  0  0  0  0  0  0  0  0
   43.2260   34.2740   42.4190 N   0  0  0  0  0  0  0  0  0  0  0  0
   42.8120   35.2520   41.5020 C   0  0  0  0  0  0  0  0  0  0  0  0
   43.6660   35.5650   40.5650 N   0  0  0  0  0  0  0  0  0  0  0  0
   41.4930   35.7790   41.7230 N   0  0  0  0  0  0  0  0  0  0  0  0
   43.3340   36.2780   39.8710 H   0  0  0  0  0  0  0  0  0  0  0  0
   48.8730   29.0860   47.9870 C   0  0  0  0  0  0  0  0  0  0  0  0
   48.2630   30.0620   48.7670 F   0  0  0  0  0  0  0  0  0  0  0  0
   49.9820   29.6120   47.3910 F   0  0  0  0  0  0  0  0  0  0  0  0
   49.2810   28.0970   48.8610 F   0  0  0  0  0  0  0  0  0  0  0  0
   50.1854   30.1023   42.9435 H   0  0  0  0  0  0  0  0  0  0  0  0
   48.9501   32.1232   42.1310 H   0  0  0  0  0  0  0  0  0  0  0  0
   45.8856   29.8784   47.8531 H   0  0  0  0  0  0  0  0  0  0  0  0
   45.3205   30.4883   46.2790 H   0  0  0  0  0  0  0  0  0  0  0  0
   44.6746   28.3180   45.5291 H   0  0  0  0  0  0  0  0  0  0  0  0
   44.2457   28.2755   47.2795 H   0  0  0  0  0  0  0  0  0  0  0  0
   46.5084   28.0008   48.5492 H   0  0  0  0  0  0  0  0  0  0  0  0
   47.4651   26.6207   47.9329 H   0  0  0  0  0  0  0  0  0  0  0  0
   48.5326   27.9700   46.2716 H   0  0  0  0  0  0  0  0  0  0  0  0
   48.2908   34.6270   43.0950 H   0  0  0  0  0  0  0  0  0  0  0  0
   42.5050   33.7309   42.9151 H   0  0  0  0  0  0  0  0  0  0  0  0
   41.1147   36.5011   41.0934 H   0  0  0  0  0  0  0  0  0  0  0  0
   40.9262   35.4346   42.5110 H   0  0  0  0  0  0  0  0  0  0  0  0
  1  6  2  0
  2  1  1  0
  2  3  2  0
  3  4  1  0
  4  5  2  0
  5  7  1  0
  6  5  1  0
  7  8  1  0
  7 12  1  0
  9 10  1  0
  9  8  1  0
 10 11  1  0
 12 11  1  0
 12 23  1  0
 13  3  1  0
 14 13  2  0
 15 16  1  0
 15 14  1  0
 16 17  2  0
 17 13  1  0
 18 16  1  0
 19 21  1  0
 19 18  1  0
 20 19  2  0
 22 20  1  0
 23 24  1  0
 23 26  1  0
 25 23  1  0
  1 27  1  0
  2 28  1  0
  8 29  1  0
  8 30  1  0
  9 31  1  0
  9 32  1  0
 11 33  1  0
 11 34  1  0
 12 35  1  6
 14 36  1  0
 18 37  1  0
 21 38  1  0
 21 39  1  0
M  ISO  8  27  14  28  14  29  13  30  13  31  13  32  13  33  13  34  13
M  ISO  2  35  13  36  14
M  END
>  <minimizedAffinity>  (1) 
-4.97178078

>  <minimizedRMSD>  (1) 
2.76424766

$$$$
