
     RDKit          3D

 26 28  0  0  0  0  0  0  0  0999 V2000
   44.0140   33.4090   39.9300 S   0  0  0  0  0  0  0  0  0  0  0  0
   39.6280   32.9950   42.1520 N   0  0  0  0  0  0  0  0  0  0  0  0
   40.3450   31.8660   42.2460 C   0  0  0  0  0  0  0  0  0  0  0  0
   41.5150   32.1060   41.6050 N   0  0  0  0  0  0  0  0  0  0  0  0
   41.4710   33.3410   41.1530 C   0  0  0  0  0  0  0  0  0  0  0  0
   42.4220   34.0430   40.4370 C   0  0  0  0  0  0  0  0  0  0  0  0
   42.1990   35.3200   40.0530 N   0  0  0  0  0  0  0  0  0  0  0  0
   41.0120   35.8730   40.4000 C   0  0  0  0  0  0  0  0  0  0  0  0
   40.0790   35.2100   41.0930 N   0  0  0  0  0  0  0  0  0  0  0  0
   40.3030   33.9390   41.4730 C   0  0  0  0  0  0  0  0  0  0  0  0
   45.2080   33.9350   41.1760 C   0  0  0  0  0  0  0  0  0  0  0  0
   44.8490   33.8440   42.5320 C   0  0  0  0  0  0  0  0  0  0  0  0
   45.8210   34.2680   43.4560 C   0  0  0  0  0  0  0  0  0  0  0  0
   47.0120   34.7250   42.9830 N   0  0  0  0  0  0  0  0  0  0  0  0
   47.3150   34.7960   41.6840 C   0  0  0  0  0  0  0  0  0  0  0  0
   46.4020   34.3970   40.7930 N   0  0  0  0  0  0  0  0  0  0  0  0
   48.6240   35.3010   41.2240 C   0  0  0  0  0  0  0  0  0  0  0  0
   48.6190   35.4140   39.8430 F   0  0  0  0  0  0  0  0  0  0  0  0
   49.6170   34.3580   41.5300 F   0  0  0  0  0  0  0  0  0  0  0  0
   49.0100   36.4650   41.8370 F   0  0  0  0  0  0  0  0  0  0  0  0
   45.4590   34.1910   45.2190 S   0  0  0  0  0  0  0  0  0  0  0  0
   38.6854   33.1223   42.5474 H   0  0  0  0  0  0  0  0  0  0  0  0
   40.0441   30.9322   42.7435 H   0  0  0  0  0  0  0  0  0  0  0  0
   40.8065   36.9110   40.0993 H   0  0  0  0  0  0  0  0  0  0  0  0
   43.8673   33.4642   42.8512 H   0  0  0  0  0  0  0  0  0  0  0  0
   46.6037   34.4345   45.9313 H   0  0  0  0  0  0  0  0  0  0  0  0
  1  6  1  0
  1 11  1  0
  2  3  1  0
  4  3  2  0
  5 10  2  0
  5  4  1  0
  6  5  1  0
  7  8  1  0
  7  6  2  0
  8  9  2  0
  9 10  1  0
 10  2  1  0
 11 12  2  0
 12 13  1  0
 13 21  1  0
 14 13  2  0
 15 14  1  0
 16 11  1  0
 16 15  2  0
 17 19  1  0
 17 15  1  0
 17 20  1  0
 18 17  1  0
  2 22  1  0
  3 23  1  0
  8 24  1  0
 12 25  1  0
 21 26  1  0
M  ISO  5  22   9  23  14  24  14  25  14  26  11
M  END
>  <minimizedAffinity>  (1) 
-6.20244169

>  <minimizedRMSD>  (1) 
0.129313052

$$$$
