
     RDKit          3D

 37 39  0  0  0  0  0  0  0  0999 V2000
   44.6750   33.2780   39.4480 C   0  0  0  0  0  0  0  0  0  0  0  0
   44.7510   33.5950   40.8120 C   0  0  0  0  0  0  0  0  0  0  0  0
   46.0100   33.9860   41.2850 C   0  0  0  0  0  0  0  0  0  0  0  0
   47.0430   34.0290   40.4080 N   0  0  0  0  0  0  0  0  0  0  0  0
   46.9360   33.7180   39.1050 C   0  0  0  0  0  0  0  0  0  0  0  0
   45.7480   33.3440   38.6380 N   0  0  0  0  0  0  0  0  0  0  0  0
   48.1050   33.7880   38.2140 C   0  0  0  0  0  0  0  0  0  0  0  0
   47.7360   33.3120   36.9570 F   0  0  0  0  0  0  0  0  0  0  0  0
   49.0980   32.9250   38.6770 F   0  0  0  0  0  0  0  0  0  0  0  0
   48.6740   35.0370   38.1300 F   0  0  0  0  0  0  0  0  0  0  0  0
   46.0880   34.3170   42.7040 C   0  0  0  0  0  0  0  0  0  0  0  0
   45.3510   33.3480   43.5880 C   0  0  0  0  0  0  0  0  0  0  0  0
   45.5730   35.7310   42.8920 C   0  0  0  0  0  0  0  0  0  0  0  0
   47.5480   34.3370   43.1510 C   0  0  0  0  0  0  0  0  0  0  0  0
   43.0750   32.7610   38.7550 S   0  0  0  0  0  0  0  0  0  0  0  0
   39.5870   33.3910   42.1990 N   0  0  0  0  0  0  0  0  0  0  0  0
   40.1480   32.1630   42.2510 C   0  0  0  0  0  0  0  0  0  0  0  0
   41.0850   32.1140   41.2620 N   0  0  0  0  0  0  0  0  0  0  0  0
   41.0630   33.2810   40.6570 C   0  0  0  0  0  0  0  0  0  0  0  0
   41.8180   33.7220   39.5990 C   0  0  0  0  0  0  0  0  0  0  0  0
   41.6660   34.9790   39.0870 N   0  0  0  0  0  0  0  0  0  0  0  0
   40.7260   35.7620   39.6850 C   0  0  0  0  0  0  0  0  0  0  0  0
   39.9760   35.3420   40.7260 N   0  0  0  0  0  0  0  0  0  0  0  0
   40.1340   34.1180   41.2140 C   0  0  0  0  0  0  0  0  0  0  0  0
   43.8728   33.5398   41.4721 H   0  0  0  0  0  0  0  0  0  0  0  0
   45.5403   33.5969   44.6426 H   0  0  0  0  0  0  0  0  0  0  0  0
   44.2721   33.4131   43.3838 H   0  0  0  0  0  0  0  0  0  0  0  0
   45.7018   32.3256   43.3838 H   0  0  0  0  0  0  0  0  0  0  0  0
   45.4925   35.9521   43.9665 H   0  0  0  0  0  0  0  0  0  0  0  0
   46.2704   36.4406   42.4229 H   0  0  0  0  0  0  0  0  0  0  0  0
   44.5826   35.8259   42.4229 H   0  0  0  0  0  0  0  0  0  0  0  0
   47.5950   34.3376   44.2500 H   0  0  0  0  0  0  0  0  0  0  0  0
   48.0627   33.4458   42.7625 H   0  0  0  0  0  0  0  0  0  0  0  0
   48.0380   35.2419   42.7625 H   0  0  0  0  0  0  0  0  0  0  0  0
   38.8424   33.7227   42.8287 H   0  0  0  0  0  0  0  0  0  0  0  0
   39.8968   31.3571   42.9563 H   0  0  0  0  0  0  0  0  0  0  0  0
   40.5709   36.7818   39.3030 H   0  0  0  0  0  0  0  0  0  0  0  0
  1  2  2  0
  2  3  1  0
  3 11  1  0
  4  3  2  0
  5  4  1  0
  6  5  2  0
  6  1  1  0
  7  9  1  0
  7  5  1  0
  8  7  1  0
 10  7  1  0
 11 13  1  0
 11 14  1  0
 11 12  1  0
 15  1  1  0
 15 20  1  0
 16 17  1  0
 18 17  2  0
 19 24  2  0
 19 18  1  0
 20 19  1  0
 21 20  2  0
 21 22  1  0
 22 23  2  0
 23 24  1  0
 24 16  1  0
  2 25  1  0
 12 26  1  0
 12 27  1  0
 12 28  1  0
 13 29  1  0
 13 30  1  0
 13 31  1  0
 14 32  1  0
 14 33  1  0
 14 34  1  0
 16 35  1  0
 17 36  1  0
 22 37  1  0
M  ISO  8  25  14  26   8  27   8  28   8  29   8  30   8  31   8  32   8
M  ISO  5  33   8  34   8  35   9  36  14  37  14
M  END
>  <minimizedAffinity>  (1) 
-5.72043562

>  <minimizedRMSD>  (1) 
2.20692301

$$$$
