
     RDKit          3D

 27 29  0  0  0  0  0  0  0  0999 V2000
   46.4790   33.7510   44.4780 C   0  0  0  0  0  0  0  0  0  0  0  0
   45.8910   33.5700   45.8160 C   0  0  0  0  0  0  0  0  0  0  0  0
   44.8890   34.3000   46.3900 C   0  0  0  0  0  0  0  0  0  0  0  0
   44.5800   33.8820   47.6300 N   0  0  0  0  0  0  0  0  0  0  0  0
   45.4160   32.8510   47.8470 C   0  0  0  0  0  0  0  0  0  0  0  0
   45.5280   32.0490   48.9720 C   0  0  0  0  0  0  0  0  0  0  0  0
   46.4760   31.0170   48.9930 C   0  0  0  0  0  0  0  0  0  0  0  0
   47.3210   30.7680   47.9050 C   0  0  0  0  0  0  0  0  0  0  0  0
   47.1840   31.5860   46.7970 C   0  0  0  0  0  0  0  0  0  0  0  0
   46.2580   32.6050   46.7590 C   0  0  0  0  0  0  0  0  0  0  0  0
   44.4040   35.7390   42.1390 C   0  0  0  0  0  0  0  0  0  0  0  0
   43.6190   34.7430   41.5610 C   0  0  0  0  0  0  0  0  0  0  0  0
   43.8000   33.4290   41.9640 C   0  0  0  0  0  0  0  0  0  0  0  0
   44.7360   33.1560   42.9100 N   0  0  0  0  0  0  0  0  0  0  0  0
   45.4840   34.1560   43.4530 C   0  0  0  0  0  0  0  0  0  0  0  0
   45.3170   35.4340   43.0680 N   0  0  0  0  0  0  0  0  0  0  0  0
   47.2547   34.5286   44.5390 H   0  0  0  0  0  0  0  0  0  0  0  0
   46.8919   32.7798   44.1677 H   0  0  0  0  0  0  0  0  0  0  0  0
   44.3875   35.1417   45.8900 H   0  0  0  0  0  0  0  0  0  0  0  0
   43.8667   34.2638   48.2675 H   0  0  0  0  0  0  0  0  0  0  0  0
   44.8774   32.2213   49.8421 H   0  0  0  0  0  0  0  0  0  0  0  0
   46.5584   30.3850   49.8895 H   0  0  0  0  0  0  0  0  0  0  0  0
   48.0628   29.9562   47.9297 H   0  0  0  0  0  0  0  0  0  0  0  0
   47.8316   31.4180   45.9238 H   0  0  0  0  0  0  0  0  0  0  0  0
   44.2716   36.7859   41.8284 H   0  0  0  0  0  0  0  0  0  0  0  0
   42.8682   34.9953   40.7977 H   0  0  0  0  0  0  0  0  0  0  0  0
   43.1960   32.6211   41.5252 H   0  0  0  0  0  0  0  0  0  0  0  0
  1  2  1  0
  2  3  2  0
  2 10  1  0
  3  4  1  0
  4  5  1  0
  5  6  2  0
  6  7  1  0
  8  7  2  0
  9  8  1  0
 10  9  2  0
 10  5  1  0
 11 16  2  0
 12 13  2  0
 12 11  1  0
 13 14  1  0
 14 15  2  0
 15  1  1  0
 16 15  1  0
  1 17  1  0
  1 18  1  0
  3 19  1  0
  4 20  1  0
  6 21  1  0
  7 22  1  0
  8 23  1  0
  9 24  1  0
 11 25  1  0
 12 26  1  0
 13 27  1  0
M  ISO  8  17   8  18   8  19  14  20   9  21  14  22  14  23  14  24  14
M  ISO  3  25  14  26  14  27  14
M  END
>  <minimizedAffinity>  (1) 
-5.2747879

>  <minimizedRMSD>  (1) 
3.87470388

$$$$
