
     RDKit          3D

 26 28  0  0  0  0  0  0  0  0999 V2000
   46.1580   33.8650   45.4490 C   0  0  0  0  0  0  0  0  0  0  0  0
   44.6730   33.9470   42.0460 C   0  0  0  0  0  0  0  0  0  0  0  0
   45.7570   34.4360   41.2950 C   0  0  0  0  0  0  0  0  0  0  0  0
   46.9600   34.7270   41.9390 C   0  0  0  0  0  0  0  0  0  0  0  0
   47.0320   34.5240   43.2780 N   0  0  0  0  0  0  0  0  0  0  0  0
   45.9750   34.0530   43.9810 C   0  0  0  0  0  0  0  0  0  0  0  0
   44.8050   33.7660   43.3800 N   0  0  0  0  0  0  0  0  0  0  0  0
   46.3280   32.4830   45.8070 N   0  0  0  0  0  0  0  0  0  0  0  0
   46.9790   31.5590   45.0430 C   0  0  0  0  0  0  0  0  0  0  0  0
   46.9490   30.3700   45.6790 N   0  0  0  0  0  0  0  0  0  0  0  0
   46.2980   30.4800   46.8430 C   0  0  0  0  0  0  0  0  0  0  0  0
   45.9410   29.6760   47.9020 C   0  0  0  0  0  0  0  0  0  0  0  0
   45.2460   30.1870   48.9500 N   0  0  0  0  0  0  0  0  0  0  0  0
   44.8830   31.4860   48.9920 C   0  0  0  0  0  0  0  0  0  0  0  0
   45.2170   32.2980   47.9720 N   0  0  0  0  0  0  0  0  0  0  0  0
   45.9040   31.8200   46.9220 C   0  0  0  0  0  0  0  0  0  0  0  0
   46.3510   28.3230   47.7980 N   0  0  0  0  0  0  0  0  0  0  0  0
   45.2719   34.2583   45.9688 H   0  0  0  0  0  0  0  0  0  0  0  0
   47.0705   34.4031   45.7451 H   0  0  0  0  0  0  0  0  0  0  0  0
   43.7199   33.7122   41.5496 H   0  0  0  0  0  0  0  0  0  0  0  0
   45.6573   34.5876   40.2101 H   0  0  0  0  0  0  0  0  0  0  0  0
   47.8247   35.1099   41.3772 H   0  0  0  0  0  0  0  0  0  0  0  0
   47.4509   31.7520   44.0683 H   0  0  0  0  0  0  0  0  0  0  0  0
   44.3195   31.8775   49.8517 H   0  0  0  0  0  0  0  0  0  0  0  0
   46.1228   27.6565   48.5494 H   0  0  0  0  0  0  0  0  0  0  0  0
   46.8771   28.0064   46.9710 H   0  0  0  0  0  0  0  0  0  0  0  0
  1  8  1  0
  2  7  2  0
  3  4  2  0
  3  2  1  0
  4  5  1  0
  5  6  2  0
  6  1  1  0
  7  6  1  0
  8 16  1  0
  9 10  2  0
  9  8  1  0
 10 11  1  0
 11 16  2  0
 11 12  1  0
 12 13  2  0
 13 14  1  0
 15 14  2  0
 16 15  1  0
 17 12  1  0
  1 18  1  0
  1 19  1  0
  2 20  1  0
  3 21  1  0
  4 22  1  0
  9 23  1  0
 14 24  1  0
 17 25  1  0
 17 26  1  0
M  ISO  7  18   8  19   8  20  14  21  14  22  14  23  14  24  14
M  END
>  <minimizedAffinity>  (1) 
-4.38463497

>  <minimizedRMSD>  (1) 
3.49926877

$$$$
