
     RDKit          3D

 20 21  0  0  0  0  0  0  0  0999 V2000
   44.5730   35.6250   44.8120 C   0  0  0  0  0  0  0  0  0  0  0  0
   44.9460   36.0840   43.5310 C   0  0  0  0  0  0  0  0  0  0  0  0
   45.9460   35.3980   42.8530 C   0  0  0  0  0  0  0  0  0  0  0  0
   46.5240   34.3140   43.4470 N   0  0  0  0  0  0  0  0  0  0  0  0
   46.1250   33.9090   44.6920 C   0  0  0  0  0  0  0  0  0  0  0  0
   45.1680   34.5580   45.3540 N   0  0  0  0  0  0  0  0  0  0  0  0
   46.8300   32.7120   45.2350 C   0  0  0  0  0  0  0  0  0  0  0  0
   46.5090   32.4300   46.6430 C   0  0  0  0  0  0  0  0  0  0  0  0
   47.2480   32.4230   47.8110 C   0  0  0  0  0  0  0  0  0  0  0  0
   46.4170   32.0860   48.8090 N   0  0  0  0  0  0  0  0  0  0  0  0
   45.1920   31.8830   48.3040 C   0  0  0  0  0  0  0  0  0  0  0  0
   45.2300   32.0920   46.9560 N   0  0  0  0  0  0  0  0  0  0  0  0
   43.7844   36.1507   45.3703 H   0  0  0  0  0  0  0  0  0  0  0  0
   44.4582   36.9614   43.0812 H   0  0  0  0  0  0  0  0  0  0  0  0
   46.2669   35.7238   41.8526 H   0  0  0  0  0  0  0  0  0  0  0  0
   46.5463   31.8373   44.6313 H   0  0  0  0  0  0  0  0  0  0  0  0
   47.9087   32.9216   45.1849 H   0  0  0  0  0  0  0  0  0  0  0  0
   48.3199   32.6516   47.9050 H   0  0  0  0  0  0  0  0  0  0  0  0
   44.3014   31.5950   48.8819 H   0  0  0  0  0  0  0  0  0  0  0  0
   44.4399   32.0094   46.3004 H   0  0  0  0  0  0  0  0  0  0  0  0
  1  6  2  0
  2  1  1  0
  3  4  1  0
  3  2  2  0
  4  5  2  0
  5  7  1  0
  5  6  1  0
  7  8  1  0
  8 12  1  0
  8  9  2  0
  9 10  1  0
 11 10  2  0
 12 11  1  0
  1 13  1  0
  2 14  1  0
  3 15  1  0
  7 16  1  0
  7 17  1  0
  9 18  1  0
 11 19  1  0
 12 20  1  0
M  ISO  8  13  14  14  14  15  14  16   8  17   8  18  14  19  14  20   9
M  END
>  <minimizedAffinity>  (1) 
-4.30324268

>  <minimizedRMSD>  (1) 
1.81518662

$$$$
