
     RDKit          3D

 26 27  0  0  0  0  0  0  0  0999 V2000
   44.7170   35.2200   44.8210 C   0  0  0  0  0  0  0  0  0  0  0  0
   45.3790   35.1040   43.5960 C   0  0  0  0  0  0  0  0  0  0  0  0
   46.4460   34.2280   43.4810 C   0  0  0  0  0  0  0  0  0  0  0  0
   46.8010   33.5180   44.5710 N   0  0  0  0  0  0  0  0  0  0  0  0
   46.1450   33.6430   45.7580 C   0  0  0  0  0  0  0  0  0  0  0  0
   45.1200   34.4870   45.8610 N   0  0  0  0  0  0  0  0  0  0  0  0
   46.6180   32.8150   46.8950 C   0  0  0  0  0  0  0  0  0  0  0  0
   45.8040   31.5490   47.0290 C   0  0  0  0  0  0  0  0  0  0  0  0
   44.7840   31.6990   48.1220 C   0  0  0  0  0  0  0  0  0  0  0  0
   45.5450   31.4480   49.4100 C   0  0  0  0  0  0  0  0  0  0  0  0
   46.8870   30.8470   49.0070 C   0  0  0  0  0  0  0  0  0  0  0  0
   46.7100   30.4540   47.5600 C   0  0  0  0  0  0  0  0  0  0  0  0
   43.8683   35.9117   44.9277 H   0  0  0  0  0  0  0  0  0  0  0  0
   45.0561   35.7024   42.7314 H   0  0  0  0  0  0  0  0  0  0  0  0
   46.9869   34.1151   42.5299 H   0  0  0  0  0  0  0  0  0  0  0  0
   47.6720   32.5473   46.7291 H   0  0  0  0  0  0  0  0  0  0  0  0
   46.5055   33.3993   47.8201 H   0  0  0  0  0  0  0  0  0  0  0  0
   45.3513   31.3351   46.0495 H   0  0  0  0  0  0  0  0  0  0  0  0
   44.3583   32.7133   48.1164 H   0  0  0  0  0  0  0  0  0  0  0  0
   43.9420   31.0021   47.9983 H   0  0  0  0  0  0  0  0  0  0  0  0
   45.6986   32.3931   49.9514 H   0  0  0  0  0  0  0  0  0  0  0  0
   44.9892   30.7718   50.0762 H   0  0  0  0  0  0  0  0  0  0  0  0
   47.6920   31.5893   49.1120 H   0  0  0  0  0  0  0  0  0  0  0  0
   47.1678   29.9922   49.6398 H   0  0  0  0  0  0  0  0  0  0  0  0
   46.2333   29.4666   47.4720 H   0  0  0  0  0  0  0  0  0  0  0  0
   47.6591   30.3663   47.0109 H   0  0  0  0  0  0  0  0  0  0  0  0
  1  6  2  0
  2  1  1  0
  3  2  2  0
  3  4  1  0
  4  5  2  0
  5  6  1  0
  5  7  1  0
  7  8  1  0
  8 12  1  0
  8  9  1  0
  9 10  1  0
 11 10  1  0
 12 11  1  0
  1 13  1  0
  2 14  1  0
  3 15  1  0
  7 16  1  0
  7 17  1  0
  8 18  1  0
  9 19  1  0
  9 20  1  0
 10 21  1  0
 10 22  1  0
 11 23  1  0
 11 24  1  0
 12 25  1  0
 12 26  1  0
M  ISO  8  13  14  14  14  15  14  16   8  17   8  18  13  19  13  20  13
M  ISO  6  21  13  22  13  23  13  24  13  25  13  26  13
M  END
>  <minimizedAffinity>  (1) 
-4.16871405

>  <minimizedRMSD>  (1) 
2.76050091

$$$$
