
     RDKit          3D

 20 21  0  0  0  0  0  0  0  0999 V2000
   44.5680   35.4750   45.2990 C   0  0  0  0  0  0  0  0  0  0  0  0
   44.7740   36.0350   44.0280 C   0  0  0  0  0  0  0  0  0  0  0  0
   45.6810   35.4110   43.1590 C   0  0  0  0  0  0  0  0  0  0  0  0
   46.3080   34.3020   43.5910 N   0  0  0  0  0  0  0  0  0  0  0  0
   46.0880   33.7820   44.8280 C   0  0  0  0  0  0  0  0  0  0  0  0
   45.2280   34.3600   45.6730 N   0  0  0  0  0  0  0  0  0  0  0  0
   46.8320   32.5530   45.2060 C   0  0  0  0  0  0  0  0  0  0  0  0
   46.5370   32.2230   46.5870 C   0  0  0  0  0  0  0  0  0  0  0  0
   45.5200   32.5740   47.4400 C   0  0  0  0  0  0  0  0  0  0  0  0
   45.4720   32.1200   48.7190 C   0  0  0  0  0  0  0  0  0  0  0  0
   46.6210   31.2270   49.0610 C   0  0  0  0  0  0  0  0  0  0  0  0
   47.5870   31.1690   47.5250 S   0  0  0  0  0  0  0  0  0  0  0  0
   43.8619   35.9500   45.9960 H   0  0  0  0  0  0  0  0  0  0  0  0
   44.2356   36.9436   43.7204 H   0  0  0  0  0  0  0  0  0  0  0  0
   45.8738   35.8162   42.1547 H   0  0  0  0  0  0  0  0  0  0  0  0
   46.5238   31.7215   44.5551 H   0  0  0  0  0  0  0  0  0  0  0  0
   47.9123   32.7244   45.0896 H   0  0  0  0  0  0  0  0  0  0  0  0
   44.7232   33.2404   47.0779 H   0  0  0  0  0  0  0  0  0  0  0  0
   44.6726   32.3816   49.4279 H   0  0  0  0  0  0  0  0  0  0  0  0
   46.8313   30.7243   50.0166 H   0  0  0  0  0  0  0  0  0  0  0  0
  1  6  2  0
  2  1  1  0
  3  4  1  0
  3  2  2  0
  4  5  2  0
  5  7  1  0
  5  6  1  0
  7  8  1  0
  8  9  2  0
  8 12  1  0
  9 10  1  0
 10 11  2  0
 12 11  1  0
  1 13  1  0
  2 14  1  0
  3 15  1  0
  7 16  1  0
  7 17  1  0
  9 18  1  0
 10 19  1  0
 11 20  1  0
M  ISO  8  13  14  14  14  15  14  16   8  17   8  18  14  19  14  20  14
M  END
>  <minimizedAffinity>  (1) 
-4.12798929

>  <minimizedRMSD>  (1) 
2.06867051

$$$$
