
     RDKit          3D

 22 23  0  0  0  0  0  0  0  0999 V2000
   46.8210   32.8490   46.4020 C   0  0  0  0  0  0  0  0  0  0  0  0
   44.5340   35.3820   44.9620 C   0  0  0  0  0  0  0  0  0  0  0  0
   45.0370   35.4960   43.6650 C   0  0  0  0  0  0  0  0  0  0  0  0
   46.1400   34.7230   43.2820 C   0  0  0  0  0  0  0  0  0  0  0  0
   46.6650   33.8940   44.2040 N   0  0  0  0  0  0  0  0  0  0  0  0
   46.1650   33.7960   45.4580 C   0  0  0  0  0  0  0  0  0  0  0  0
   45.1020   34.5370   45.8400 N   0  0  0  0  0  0  0  0  0  0  0  0
   46.0580   31.5720   46.5080 C   0  0  0  0  0  0  0  0  0  0  0  0
   45.4970   31.1310   47.6880 C   0  0  0  0  0  0  0  0  0  0  0  0
   44.8100   29.9400   47.6900 C   0  0  0  0  0  0  0  0  0  0  0  0
   44.6480   29.1480   46.5530 C   0  0  0  0  0  0  0  0  0  0  0  0
   45.2400   29.6570   45.3970 C   0  0  0  0  0  0  0  0  0  0  0  0
   45.9190   30.8240   45.3760 N   0  0  0  0  0  0  0  0  0  0  0  0
   46.8774   33.3160   47.3963 H   0  0  0  0  0  0  0  0  0  0  0  0
   47.8273   32.6209   46.0208 H   0  0  0  0  0  0  0  0  0  0  0  0
   43.6677   35.9871   45.2676 H   0  0  0  0  0  0  0  0  0  0  0  0
   44.5702   36.1882   42.9488 H   0  0  0  0  0  0  0  0  0  0  0  0
   46.5609   34.7904   42.2680 H   0  0  0  0  0  0  0  0  0  0  0  0
   45.5973   31.7213   48.6108 H   0  0  0  0  0  0  0  0  0  0  0  0
   44.3660   29.5944   48.6352 H   0  0  0  0  0  0  0  0  0  0  0  0
   44.0965   28.1964   46.5670 H   0  0  0  0  0  0  0  0  0  0  0  0
   45.1499   29.0833   44.4628 H   0  0  0  0  0  0  0  0  0  0  0  0
  1  8  1  0
  2  7  2  0
  3  2  1  0
  4  3  2  0
  4  5  1  0
  5  6  2  0
  6  7  1  0
  6  1  1  0
  8  9  2  0
  9 10  1  0
 11 10  2  0
 12 11  1  0
 13 12  2  0
 13  8  1  0
  1 14  1  0
  1 15  1  0
  2 16  1  0
  3 17  1  0
  4 18  1  0
  9 19  1  0
 10 20  1  0
 11 21  1  0
 12 22  1  0
M  ISO  8  14   8  15   8  16  14  17  14  18  14  19  14  20  14  21  14
M  ISO  1  22  14
M  END
>  <minimizedAffinity>  (1) 
-3.92065501

>  <minimizedRMSD>  (1) 
1.10870707

$$$$
