
     RDKit          3D

 21 22  0  0  0  0  0  0  0  0999 V2000
   46.7680   32.8810   46.3590 C   0  0  0  0  0  0  0  0  0  0  0  0
   44.5250   35.4460   44.8850 C   0  0  0  0  0  0  0  0  0  0  0  0
   45.0440   35.5610   43.5800 C   0  0  0  0  0  0  0  0  0  0  0  0
   46.1420   34.7670   43.2290 C   0  0  0  0  0  0  0  0  0  0  0  0
   46.6640   33.9240   44.1460 N   0  0  0  0  0  0  0  0  0  0  0  0
   46.1360   33.8350   45.4070 C   0  0  0  0  0  0  0  0  0  0  0  0
   45.0770   34.5900   45.7710 N   0  0  0  0  0  0  0  0  0  0  0  0
   46.0400   31.5820   46.3870 C   0  0  0  0  0  0  0  0  0  0  0  0
   45.5350   31.1380   47.5920 C   0  0  0  0  0  0  0  0  0  0  0  0
   44.8510   29.9410   47.6750 C   0  0  0  0  0  0  0  0  0  0  0  0
   44.6810   29.2040   46.5520 N   0  0  0  0  0  0  0  0  0  0  0  0
   45.1730   29.6390   45.3780 C   0  0  0  0  0  0  0  0  0  0  0  0
   45.8500   30.8220   45.2910 N   0  0  0  0  0  0  0  0  0  0  0  0
   46.7560   33.3203   47.3674 H   0  0  0  0  0  0  0  0  0  0  0  0
   47.8002   32.6934   46.0284 H   0  0  0  0  0  0  0  0  0  0  0  0
   43.6623   36.0592   45.1845 H   0  0  0  0  0  0  0  0  0  0  0  0
   44.5974   36.2575   42.8551 H   0  0  0  0  0  0  0  0  0  0  0  0
   46.5741   34.8288   42.2193 H   0  0  0  0  0  0  0  0  0  0  0  0
   45.6790   31.7451   48.4979 H   0  0  0  0  0  0  0  0  0  0  0  0
   44.4507   29.5919   48.6383 H   0  0  0  0  0  0  0  0  0  0  0  0
   45.0276   29.0315   44.4726 H   0  0  0  0  0  0  0  0  0  0  0  0
  1  8  1  0
  2  7  2  0
  3  2  1  0
  4  3  2  0
  4  5  1  0
  5  6  2  0
  6  7  1  0
  6  1  1  0
  8  9  2  0
  9 10  1  0
 11 10  2  0
 12 11  1  0
 13 12  2  0
 13  8  1  0
  1 14  1  0
  1 15  1  0
  2 16  1  0
  3 17  1  0
  4 18  1  0
  9 19  1  0
 10 20  1  0
 12 21  1  0
M  ISO  8  14   8  15   8  16  14  17  14  18  14  19  14  20  14  21  14
M  END
>  <minimizedAffinity>  (1) 
-3.80881763

>  <minimizedRMSD>  (1) 
1.10254514

$$$$
