
     RDKit          3D

 27 29  0  0  0  0  0  0  0  0999 V2000
   46.1090   31.3900   45.1180 C   0  0  0  0  0  0  0  0  0  0  0  0
   46.9070   31.3810   46.3530 C   0  0  0  0  0  0  0  0  0  0  0  0
   46.9370   32.4620   47.1530 N   0  0  0  0  0  0  0  0  0  0  0  0
   47.6620   32.4960   48.3040 C   0  0  0  0  0  0  0  0  0  0  0  0
   48.3800   31.4040   48.6570 N   0  0  0  0  0  0  0  0  0  0  0  0
   48.3890   30.3000   47.9020 C   0  0  0  0  0  0  0  0  0  0  0  0
   49.1190   29.1870   48.2590 C   0  0  0  0  0  0  0  0  0  0  0  0
   49.1000   28.0700   47.4500 C   0  0  0  0  0  0  0  0  0  0  0  0
   48.3770   27.9970   46.2750 C   0  0  0  0  0  0  0  0  0  0  0  0
   47.6550   29.1390   45.9500 C   0  0  0  0  0  0  0  0  0  0  0  0
   47.6460   30.2710   46.7240 C   0  0  0  0  0  0  0  0  0  0  0  0
   45.4230   34.6200   43.4490 C   0  0  0  0  0  0  0  0  0  0  0  0
   46.6770   34.9260   42.8870 C   0  0  0  0  0  0  0  0  0  0  0  0
   47.7210   34.0380   43.0850 C   0  0  0  0  0  0  0  0  0  0  0  0
   47.5240   32.9140   43.7990 N   0  0  0  0  0  0  0  0  0  0  0  0
   46.2920   32.6360   44.3370 C   0  0  0  0  0  0  0  0  0  0  0  0
   45.2890   33.4910   44.1470 N   0  0  0  0  0  0  0  0  0  0  0  0
   46.4116   30.5351   44.4955 H   0  0  0  0  0  0  0  0  0  0  0  0
   45.0486   31.3252   45.4031 H   0  0  0  0  0  0  0  0  0  0  0  0
   47.6646   33.3956   48.9370 H   0  0  0  0  0  0  0  0  0  0  0  0
   49.7138   29.1894   49.1843 H   0  0  0  0  0  0  0  0  0  0  0  0
   49.6901   27.1934   47.7557 H   0  0  0  0  0  0  0  0  0  0  0  0
   48.3731   27.0980   45.6412 H   0  0  0  0  0  0  0  0  0  0  0  0
   47.0603   29.1347   45.0246 H   0  0  0  0  0  0  0  0  0  0  0  0
   44.5687   35.2999   43.3149 H   0  0  0  0  0  0  0  0  0  0  0  0
   46.8239   35.8478   42.3049 H   0  0  0  0  0  0  0  0  0  0  0  0
   48.7122   34.2513   42.6584 H   0  0  0  0  0  0  0  0  0  0  0  0
  1  2  1  0
  2 11  1  0
  2  3  2  0
  3  4  1  0
  4  5  2  0
  6  7  2  0
  6  5  1  0
  8  7  1  0
  9  8  2  0
 10  9  1  0
 10 11  2  0
 11  6  1  0
 12 17  2  0
 13 14  2  0
 13 12  1  0
 14 15  1  0
 15 16  2  0
 16  1  1  0
 17 16  1  0
  1 18  1  0
  1 19  1  0
  4 20  1  0
  7 21  1  0
  8 22  1  0
  9 23  1  0
 10 24  1  0
 12 25  1  0
 13 26  1  0
 14 27  1  0
M  ISO  8  18   8  19   8  20  14  21  14  22  14  23  14  24  14  25  14
M  ISO  2  26  14  27  14
M  END
>  <minimizedAffinity>  (1) 
-3.70530152

>  <minimizedRMSD>  (1) 
2.49976349

$$$$
