
     RDKit          3D

 14 14  0  0  0  0  0  0  0  0999 V2000
   44.5470   35.9940   44.5540 C   0  0  0  0  0  0  0  0  0  0  0  0
   45.2510   35.8700   43.3540 C   0  0  0  0  0  0  0  0  0  0  0  0
   46.1320   34.8120   43.1890 C   0  0  0  0  0  0  0  0  0  0  0  0
   46.2790   33.9260   44.2150 N   0  0  0  0  0  0  0  0  0  0  0  0
   45.5840   34.0690   45.3700 C   0  0  0  0  0  0  0  0  0  0  0  0
   44.7280   35.0890   45.5380 N   0  0  0  0  0  0  0  0  0  0  0  0
   45.8110   33.0570   46.4230 C   0  0  0  0  0  0  0  0  0  0  0  0
   47.0990   33.3200   46.9390 O   0  0  0  0  0  0  0  0  0  0  0  0
   43.8454   36.8291   44.6966 H   0  0  0  0  0  0  0  0  0  0  0  0
   45.1079   36.6045   42.5477 H   0  0  0  0  0  0  0  0  0  0  0  0
   46.6982   34.6905   42.2538 H   0  0  0  0  0  0  0  0  0  0  0  0
   45.0541   33.1526   47.2155 H   0  0  0  0  0  0  0  0  0  0  0  0
   45.7358   32.0345   46.0244 H   0  0  0  0  0  0  0  0  0  0  0  0
   47.0658   33.3132   47.9284 H   0  0  0  0  0  0  0  0  0  0  0  0
  1  6  2  0
  2  1  1  0
  3  2  2  0
  3  4  1  0
  4  5  2  0
  5  6  1  0
  5  7  1  0
  7  8  1  0
  1  9  1  0
  2 10  1  0
  3 11  1  0
  7 12  1  0
  7 13  1  0
  8 14  1  0
M  ISO  6   9  14  10  14  11  14  12   8  13   8  14   3
M  END
>  <minimizedAffinity>  (1) 
-3.59771085

>  <minimizedRMSD>  (1) 
0.221241847

$$$$
