
     RDKit          3D

 21 22  0  0  0  0  0  0  0  0999 V2000
   46.0460   31.3740   45.3890 C   0  0  0  0  0  0  0  0  0  0  0  0
   45.8220   34.6440   43.6450 C   0  0  0  0  0  0  0  0  0  0  0  0
   47.0500   34.6940   42.9710 C   0  0  0  0  0  0  0  0  0  0  0  0
   47.9400   33.6200   43.1150 C   0  0  0  0  0  0  0  0  0  0  0  0
   47.5700   32.5820   43.9000 N   0  0  0  0  0  0  0  0  0  0  0  0
   46.3600   32.5630   44.5470 C   0  0  0  0  0  0  0  0  0  0  0  0
   45.5070   33.5920   44.4100 N   0  0  0  0  0  0  0  0  0  0  0  0
   46.9780   31.2510   46.5410 C   0  0  0  0  0  0  0  0  0  0  0  0
   47.0920   32.2940   47.4520 C   0  0  0  0  0  0  0  0  0  0  0  0
   47.9350   32.2590   48.5480 C   0  0  0  0  0  0  0  0  0  0  0  0
   48.6740   31.1430   48.7200 N   0  0  0  0  0  0  0  0  0  0  0  0
   48.5760   30.1200   47.8450 C   0  0  0  0  0  0  0  0  0  0  0  0
   47.7410   30.1650   46.7660 N   0  0  0  0  0  0  0  0  0  0  0  0
   46.1243   30.4684   44.7695 H   0  0  0  0  0  0  0  0  0  0  0  0
   45.0270   31.4953   45.7852 H   0  0  0  0  0  0  0  0  0  0  0  0
   45.1107   35.4770   43.5442 H   0  0  0  0  0  0  0  0  0  0  0  0
   47.3102   35.5581   42.3420 H   0  0  0  0  0  0  0  0  0  0  0  0
   48.9136   33.6214   42.6031 H   0  0  0  0  0  0  0  0  0  0  0  0
   46.4801   33.1942   47.2933 H   0  0  0  0  0  0  0  0  0  0  0  0
   48.0002   33.1042   49.2490 H   0  0  0  0  0  0  0  0  0  0  0  0
   49.1888   29.2209   48.0066 H   0  0  0  0  0  0  0  0  0  0  0  0
  1  8  1  0
  2  7  2  0
  3  4  2  0
  3  2  1  0
  4  5  1  0
  5  6  2  0
  6  1  1  0
  7  6  1  0
  8 13  1  0
  8  9  2  0
  9 10  1  0
 10 11  2  0
 12 11  1  0
 13 12  2  0
  1 14  1  0
  1 15  1  0
  2 16  1  0
  3 17  1  0
  4 18  1  0
  9 19  1  0
 10 20  1  0
 12 21  1  0
M  ISO  8  14   8  15   8  16  14  17  14  18  14  19  14  20  14  21  14
M  END
>  <minimizedAffinity>  (1) 
-3.20810843

>  <minimizedRMSD>  (1) 
2.4394238

$$$$
