
     RDKit          3D

 38 41  0  0  0  0  0  0  0  0999 V2000
   44.6440   35.3610   44.4100 C   0  0  0  0  0  0  0  0  0  0  0  0
   45.3820   35.4790   43.2340 C   0  0  0  0  0  0  0  0  0  0  0  0
   46.5550   34.7430   43.1150 C   0  0  0  0  0  0  0  0  0  0  0  0
   46.9340   33.9400   44.1430 N   0  0  0  0  0  0  0  0  0  0  0  0
   46.1880   33.8540   45.2680 C   0  0  0  0  0  0  0  0  0  0  0  0
   45.0600   34.5600   45.3880 N   0  0  0  0  0  0  0  0  0  0  0  0
   47.3570   34.8380   41.9000 C   0  0  0  0  0  0  0  0  0  0  0  0
   48.5450   35.5250   41.7730 C   0  0  0  0  0  0  0  0  0  0  0  0
   48.9690   35.3740   40.5080 N   0  0  0  0  0  0  0  0  0  0  0  0
   48.0620   34.6010   39.8500 C   0  0  0  0  0  0  0  0  0  0  0  0
   48.1440   34.2190   38.5270 C   0  0  0  0  0  0  0  0  0  0  0  0
   47.1110   33.4260   38.0400 C   0  0  0  0  0  0  0  0  0  0  0  0
   46.0710   33.0590   38.8710 C   0  0  0  0  0  0  0  0  0  0  0  0
   46.0200   33.4640   40.2060 C   0  0  0  0  0  0  0  0  0  0  0  0
   47.0310   34.2460   40.6990 C   0  0  0  0  0  0  0  0  0  0  0  0
   46.6960   32.9500   46.3240 C   0  0  0  0  0  0  0  0  0  0  0  0
   46.0490   31.6790   46.3680 N   0  0  0  0  0  0  0  0  0  0  0  0
   45.9770   30.8470   45.2960 C   0  0  0  0  0  0  0  0  0  0  0  0
   45.3330   29.6260   45.4070 C   0  0  0  0  0  0  0  0  0  0  0  0
   44.7470   29.2220   46.6100 C   0  0  0  0  0  0  0  0  0  0  0  0
   44.1190   27.9330   46.5660 N   0  0  0  0  0  0  0  0  0  0  0  0
   44.8180   30.0580   47.6910 N   0  0  0  0  0  0  0  0  0  0  0  0
   45.4640   31.2200   47.4820 C   0  0  0  0  0  0  0  0  0  0  0  0
   45.5150   31.9750   48.4990 O   0  0  0  0  0  0  0  0  0  0  0  0
   43.7123   35.9331   44.5307 H   0  0  0  0  0  0  0  0  0  0  0  0
   45.0448   36.1380   42.4204 H   0  0  0  0  0  0  0  0  0  0  0  0
   49.0539   36.0942   42.5649 H   0  0  0  0  0  0  0  0  0  0  0  0
   49.8294   35.7729   40.1061 H   0  0  0  0  0  0  0  0  0  0  0  0
   48.9854   34.5267   37.8887 H   0  0  0  0  0  0  0  0  0  0  0  0
   47.1222   33.0908   36.9924 H   0  0  0  0  0  0  0  0  0  0  0  0
   45.2615   32.4311   38.4705 H   0  0  0  0  0  0  0  0  0  0  0  0
   45.1823   33.1604   40.8511 H   0  0  0  0  0  0  0  0  0  0  0  0
   47.7694   32.7846   46.1493 H   0  0  0  0  0  0  0  0  0  0  0  0
   46.4912   33.4420   47.2863 H   0  0  0  0  0  0  0  0  0  0  0  0
   46.4308   31.1437   44.3389 H   0  0  0  0  0  0  0  0  0  0  0  0
   45.2817   28.9615   44.5319 H   0  0  0  0  0  0  0  0  0  0  0  0
   43.6612   27.5542   47.4073 H   0  0  0  0  0  0  0  0  0  0  0  0
   44.1259   27.3863   45.6931 H   0  0  0  0  0  0  0  0  0  0  0  0
  1  6  2  0
  2  1  1  0
  3  2  2  0
  3  4  1  0
  4  5  2  0
  5  6  1  0
  5 16  1  0
  7  3  1  0
  8  7  2  0
  9  8  1  0
 10  9  1  0
 10 15  2  0
 11 10  1  0
 12 11  2  0
 12 13  1  0
 13 14  2  0
 14 15  1  0
 15  7  1  0
 16 17  1  0
 17 23  1  0
 18 19  2  0
 18 17  1  0
 19 20  1  0
 20 22  2  0
 21 20  1  0
 23 22  1  0
 23 24  2  0
  1 25  1  0
  2 26  1  0
  8 27  1  0
  9 28  1  0
 11 29  1  0
 12 30  1  0
 13 31  1  0
 14 32  1  0
 16 33  1  0
 16 34  1  0
 18 35  1  0
 19 36  1  0
 21 37  1  0
 21 38  1  0
M  ISO  8  25  14  26  14  27  14  28   9  29  14  30  14  31  14  32  14
M  ISO  4  33   8  34   8  35  14  36  14
M  END
>  <minimizedAffinity>  (1) 
-6.81710911

>  <minimizedRMSD>  (1) 
0.667385936

$$$$
