
     RDKit          3D

 37 39  0  0  0  0  0  0  0  0999 V2000
   44.6440   35.4590   44.5130 C   0  0  0  0  0  0  0  0  0  0  0  0
   45.2780   35.4490   43.2590 C   0  0  0  0  0  0  0  0  0  0  0  0
   46.3770   34.6130   43.0650 C   0  0  0  0  0  0  0  0  0  0  0  0
   46.7910   33.8460   44.0930 N   0  0  0  0  0  0  0  0  0  0  0  0
   46.1650   33.8740   45.2890 C   0  0  0  0  0  0  0  0  0  0  0  0
   45.0940   34.6770   45.5010 N   0  0  0  0  0  0  0  0  0  0  0  0
   47.0300   34.5870   41.8090 N   0  0  0  0  0  0  0  0  0  0  0  0
   46.3460   33.8560   40.8830 C   0  0  0  0  0  0  0  0  0  0  0  0
   46.8250   33.7100   39.5880 C   0  0  0  0  0  0  0  0  0  0  0  0
   46.0740   32.9070   38.5670 C   0  0  0  0  0  0  0  0  0  0  0  0
   48.0020   34.3180   39.2610 C   0  0  0  0  0  0  0  0  0  0  0  0
   48.4900   34.2260   38.1070 O   0  0  0  0  0  0  0  0  0  0  0  0
   48.6610   35.0400   40.2060 N   0  0  0  0  0  0  0  0  0  0  0  0
   48.1960   35.1750   41.4470 C   0  0  0  0  0  0  0  0  0  0  0  0
   48.7340   35.8150   42.3720 O   0  0  0  0  0  0  0  0  0  0  0  0
   46.7080   32.9830   46.3500 C   0  0  0  0  0  0  0  0  0  0  0  0
   46.0730   31.7080   46.4140 N   0  0  0  0  0  0  0  0  0  0  0  0
   46.0160   30.8400   45.3760 C   0  0  0  0  0  0  0  0  0  0  0  0
   45.3760   29.6140   45.5190 C   0  0  0  0  0  0  0  0  0  0  0  0
   44.7810   29.2490   46.7200 C   0  0  0  0  0  0  0  0  0  0  0  0
   44.1630   27.9550   46.7040 N   0  0  0  0  0  0  0  0  0  0  0  0
   44.8250   30.1130   47.7820 N   0  0  0  0  0  0  0  0  0  0  0  0
   45.4710   31.2840   47.5490 C   0  0  0  0  0  0  0  0  0  0  0  0
   45.5030   32.0710   48.5390 O   0  0  0  0  0  0  0  0  0  0  0  0
   43.7751   36.1118   44.6829 H   0  0  0  0  0  0  0  0  0  0  0  0
   44.9131   36.0905   42.4433 H   0  0  0  0  0  0  0  0  0  0  0  0
   45.3989   33.3739   41.1668 H   0  0  0  0  0  0  0  0  0  0  0  0
   45.4084   32.1953   39.0774 H   0  0  0  0  0  0  0  0  0  0  0  0
   45.4755   33.5820   37.9375 H   0  0  0  0  0  0  0  0  0  0  0  0
   46.7875   32.3550   37.9375 H   0  0  0  0  0  0  0  0  0  0  0  0
   49.5488   35.4975   39.9541 H   0  0  0  0  0  0  0  0  0  0  0  0
   47.7796   32.8270   46.1565 H   0  0  0  0  0  0  0  0  0  0  0  0
   46.5211   33.4817   47.3125 H   0  0  0  0  0  0  0  0  0  0  0  0
   46.4787   31.1065   44.4143 H   0  0  0  0  0  0  0  0  0  0  0  0
   45.3402   28.9206   44.6658 H   0  0  0  0  0  0  0  0  0  0  0  0
   43.6956   27.5970   47.5491 H   0  0  0  0  0  0  0  0  0  0  0  0
   44.1866   27.3836   45.8474 H   0  0  0  0  0  0  0  0  0  0  0  0
  1  6  2  0
  2  1  1  0
  3  2  2  0
  3  4  1  0
  4  5  2  0
  5  6  1  0
  5 16  1  0
  7  3  1  0
  8  7  1  0
  9  8  2  0
 10  9  1  0
 11  9  1  0
 11 13  1  0
 12 11  2  0
 13 14  1  0
 14  7  1  0
 14 15  2  0
 16 17  1  0
 17 23  1  0
 18 19  2  0
 18 17  1  0
 19 20  1  0
 20 22  2  0
 21 20  1  0
 23 22  1  0
 23 24  2  0
  1 25  1  0
  2 26  1  0
  8 27  1  0
 10 28  1  0
 10 29  1  0
 10 30  1  0
 13 31  1  0
 16 32  1  0
 16 33  1  0
 18 34  1  0
 19 35  1  0
 21 36  1  0
 21 37  1  0
M  ISO  8  25  14  26  14  27  14  28   8  29   8  30   8  31   9  32   8
M  ISO  3  33   8  34  14  35  14
M  END
>  <minimizedAffinity>  (1) 
-6.27817202

>  <minimizedRMSD>  (1) 
0.674550831

$$$$
