
     RDKit          3D

 35 38  0  0  0  0  0  0  0  0999 V2000
   44.6070   35.4140   44.5280 C   0  0  0  0  0  0  0  0  0  0  0  0
   45.3140   35.4600   43.3360 C   0  0  0  0  0  0  0  0  0  0  0  0
   46.4580   34.6650   43.2040 C   0  0  0  0  0  0  0  0  0  0  0  0
   46.8300   33.8850   44.2410 N   0  0  0  0  0  0  0  0  0  0  0  0
   46.1150   33.8640   45.3930 C   0  0  0  0  0  0  0  0  0  0  0  0
   45.0210   34.6220   45.5230 N   0  0  0  0  0  0  0  0  0  0  0  0
   47.1660   34.7300   41.9740 N   0  0  0  0  0  0  0  0  0  0  0  0
   48.2890   35.4900   41.9170 C   0  0  0  0  0  0  0  0  0  0  0  0
   48.8200   35.4300   40.6810 N   0  0  0  0  0  0  0  0  0  0  0  0
   48.0600   34.6430   39.9290 C   0  0  0  0  0  0  0  0  0  0  0  0
   48.0240   34.1660   38.6250 C   0  0  0  0  0  0  0  0  0  0  0  0
   47.0270   33.3400   38.2380 N   0  0  0  0  0  0  0  0  0  0  0  0
   46.0370   32.9430   39.0740 C   0  0  0  0  0  0  0  0  0  0  0  0
   46.0200   33.3790   40.3680 N   0  0  0  0  0  0  0  0  0  0  0  0
   47.0340   34.2120   40.7410 C   0  0  0  0  0  0  0  0  0  0  0  0
   46.6090   32.9730   46.4680 C   0  0  0  0  0  0  0  0  0  0  0  0
   45.9940   31.6870   46.4930 N   0  0  0  0  0  0  0  0  0  0  0  0
   45.9420   30.8660   45.4050 C   0  0  0  0  0  0  0  0  0  0  0  0
   45.3260   29.6290   45.5070 C   0  0  0  0  0  0  0  0  0  0  0  0
   44.7510   29.1900   46.6980 C   0  0  0  0  0  0  0  0  0  0  0  0
   44.1590   27.8900   46.6270 N   0  0  0  0  0  0  0  0  0  0  0  0
   44.8040   30.0100   47.7780 N   0  0  0  0  0  0  0  0  0  0  0  0
   45.4180   31.1960   47.6060 C   0  0  0  0  0  0  0  0  0  0  0  0
   45.4540   31.9420   48.6300 O   0  0  0  0  0  0  0  0  0  0  0  0
   43.7044   36.0297   44.6554 H   0  0  0  0  0  0  0  0  0  0  0  0
   44.9824   36.1080   42.5113 H   0  0  0  0  0  0  0  0  0  0  0  0
   48.7036   36.0687   42.7555 H   0  0  0  0  0  0  0  0  0  0  0  0
   48.8054   34.4600   37.9088 H   0  0  0  0  0  0  0  0  0  0  0  0
   45.2470   32.2695   38.7102 H   0  0  0  0  0  0  0  0  0  0  0  0
   47.6915   32.8346   46.3304 H   0  0  0  0  0  0  0  0  0  0  0  0
   46.3582   33.4607   47.4215 H   0  0  0  0  0  0  0  0  0  0  0  0
   46.3871   31.1845   44.4508 H   0  0  0  0  0  0  0  0  0  0  0  0
   45.2899   28.9753   44.6231 H   0  0  0  0  0  0  0  0  0  0  0  0
   43.7096   27.4826   47.4594 H   0  0  0  0  0  0  0  0  0  0  0  0
   44.1820   27.3612   45.7434 H   0  0  0  0  0  0  0  0  0  0  0  0
  1  6  2  0
  2  1  1  0
  3  2  2  0
  3  4  1  0
  4  5  2  0
  5  6  1  0
  5 16  1  0
  7  3  1  0
  8  7  1  0
  9  8  2  0
 10  9  1  0
 10 15  2  0
 11 10  1  0
 12 11  2  0
 12 13  1  0
 13 14  2  0
 14 15  1  0
 15  7  1  0
 16 17  1  0
 17 23  1  0
 18 19  2  0
 18 17  1  0
 19 20  1  0
 20 22  2  0
 21 20  1  0
 23 22  1  0
 23 24  2  0
  1 25  1  0
  2 26  1  0
  8 27  1  0
 11 28  1  0
 13 29  1  0
 16 30  1  0
 16 31  1  0
 18 32  1  0
 19 33  1  0
 21 34  1  0
 21 35  1  0
M  ISO  8  25  14  26  14  27  14  28  14  29  14  30   8  31   8  32  14
M  ISO  1  33  14
M  END
>  <minimizedAffinity>  (1) 
-6.16572571

>  <minimizedRMSD>  (1) 
0.559825838

$$$$
