
     RDKit          3D

 31 33  0  0  0  0  0  0  0  0999 V2000
   46.6990   32.9680   46.3670 C   0  0  0  0  0  0  0  0  0  0  0  0
   46.0620   31.6970   46.4210 N   0  0  0  0  0  0  0  0  0  0  0  0
   46.0030   30.8460   45.3640 C   0  0  0  0  0  0  0  0  0  0  0  0
   45.3620   29.6220   45.4980 C   0  0  0  0  0  0  0  0  0  0  0  0
   44.7740   29.2390   46.6910 C   0  0  0  0  0  0  0  0  0  0  0  0
   44.1510   27.9480   46.6760 N   0  0  0  0  0  0  0  0  0  0  0  0
   44.8300   30.0900   47.7570 N   0  0  0  0  0  0  0  0  0  0  0  0
   45.4710   31.2560   47.5400 C   0  0  0  0  0  0  0  0  0  0  0  0
   45.5120   32.0320   48.5400 O   0  0  0  0  0  0  0  0  0  0  0  0
   44.6170   35.3760   44.4780 C   0  0  0  0  0  0  0  0  0  0  0  0
   45.3270   35.4780   43.2830 C   0  0  0  0  0  0  0  0  0  0  0  0
   46.4890   34.7300   43.1450 C   0  0  0  0  0  0  0  0  0  0  0  0
   46.9010   33.9350   44.1550 N   0  0  0  0  0  0  0  0  0  0  0  0
   46.1710   33.8670   45.3120 C   0  0  0  0  0  0  0  0  0  0  0  0
   45.0450   34.5840   45.4580 N   0  0  0  0  0  0  0  0  0  0  0  0
   47.2660   34.8030   41.9120 C   0  0  0  0  0  0  0  0  0  0  0  0
   47.0160   34.1600   40.7410 C   0  0  0  0  0  0  0  0  0  0  0  0
   48.0330   34.5520   39.8730 C   0  0  0  0  0  0  0  0  0  0  0  0
   48.8640   35.4080   40.5170 N   0  0  0  0  0  0  0  0  0  0  0  0
   48.3780   35.5390   41.7370 N   0  0  0  0  0  0  0  0  0  0  0  0
   46.5657   33.4626   47.3405 H   0  0  0  0  0  0  0  0  0  0  0  0
   47.7559   32.7825   46.1251 H   0  0  0  0  0  0  0  0  0  0  0  0
   46.4619   31.1260   44.4043 H   0  0  0  0  0  0  0  0  0  0  0  0
   45.3204   28.9404   44.6357 H   0  0  0  0  0  0  0  0  0  0  0  0
   43.6905   27.5885   47.5243 H   0  0  0  0  0  0  0  0  0  0  0  0
   44.1639   27.3799   45.8169 H   0  0  0  0  0  0  0  0  0  0  0  0
   43.6925   35.9567   44.6126 H   0  0  0  0  0  0  0  0  0  0  0  0
   44.9767   36.1329   42.4716 H   0  0  0  0  0  0  0  0  0  0  0  0
   46.1844   33.4735   40.5239 H   0  0  0  0  0  0  0  0  0  0  0  0
   48.1441   34.2196   38.8303 H   0  0  0  0  0  0  0  0  0  0  0  0
   49.7039   35.8635   40.1323 H   0  0  0  0  0  0  0  0  0  0  0  0
  1  2  1  0
  2  8  1  0
  3  4  2  0
  3  2  1  0
  4  5  1  0
  5  7  2  0
  6  5  1  0
  8  7  1  0
  8  9  2  0
 10 15  2  0
 11 10  1  0
 12 11  2  0
 12 13  1  0
 13 14  2  0
 14 15  1  0
 14  1  1  0
 16 12  1  0
 17 16  1  0
 18 19  1  0
 18 17  2  0
 19 20  1  0
 20 16  2  0
  1 21  1  0
  1 22  1  0
  3 23  1  0
  4 24  1  0
  6 25  1  0
  6 26  1  0
 10 27  1  0
 11 28  1  0
 17 29  1  0
 18 30  1  0
 19 31  1  0
M  ISO  8  21   8  22   8  23  14  24  14  27  14  28  14  29  14  30  14
M  ISO  1  31   9
M  END
>  <minimizedAffinity>  (1) 
-5.80397987

>  <minimizedRMSD>  (1) 
0.465003282

$$$$
