
     RDKit          3D

 31 33  0  0  0  0  0  0  0  0999 V2000
   46.6200   32.9090   46.6010 C   0  0  0  0  0  0  0  0  0  0  0  0
   46.0040   31.6230   46.6120 N   0  0  0  0  0  0  0  0  0  0  0  0
   45.9450   30.8070   45.5180 C   0  0  0  0  0  0  0  0  0  0  0  0
   45.3190   29.5640   45.6240 C   0  0  0  0  0  0  0  0  0  0  0  0
   44.7490   29.1270   46.8200 C   0  0  0  0  0  0  0  0  0  0  0  0
   44.1620   27.8400   46.7220 N   0  0  0  0  0  0  0  0  0  0  0  0
   44.8040   29.9350   47.9080 N   0  0  0  0  0  0  0  0  0  0  0  0
   45.4310   31.1350   47.7330 C   0  0  0  0  0  0  0  0  0  0  0  0
   45.4650   31.8540   48.7520 O   0  0  0  0  0  0  0  0  0  0  0  0
   44.5900   35.3680   44.7390 C   0  0  0  0  0  0  0  0  0  0  0  0
   45.2680   35.4350   43.5060 C   0  0  0  0  0  0  0  0  0  0  0  0
   46.3930   34.6360   43.3610 C   0  0  0  0  0  0  0  0  0  0  0  0
   46.7940   33.8420   44.3730 N   0  0  0  0  0  0  0  0  0  0  0  0
   46.1120   33.8070   45.5470 C   0  0  0  0  0  0  0  0  0  0  0  0
   45.0210   34.5680   45.7140 N   0  0  0  0  0  0  0  0  0  0  0  0
   47.1100   34.6890   42.0920 C   0  0  0  0  0  0  0  0  0  0  0  0
   48.1920   35.3910   41.7500 C   0  0  0  0  0  0  0  0  0  0  0  0
   48.7360   35.3220   40.5170 C   0  0  0  0  0  0  0  0  0  0  0  0
   47.9990   34.3930   39.6100 C   0  0  0  0  0  0  0  0  0  0  0  0
   46.6090   33.7620   40.7300 S   0  0  0  0  0  0  0  0  0  0  0  0
   46.4436   33.3857   47.5765 H   0  0  0  0  0  0  0  0  0  0  0  0
   47.6887   32.7489   46.3957 H   0  0  0  0  0  0  0  0  0  0  0  0
   46.3867   31.1265   44.5626 H   0  0  0  0  0  0  0  0  0  0  0  0
   45.2738   28.9109   44.7400 H   0  0  0  0  0  0  0  0  0  0  0  0
   43.7106   27.4158   47.5449 H   0  0  0  0  0  0  0  0  0  0  0  0
   44.1870   27.3293   45.8279 H   0  0  0  0  0  0  0  0  0  0  0  0
   43.6929   35.9841   44.8992 H   0  0  0  0  0  0  0  0  0  0  0  0
   44.9210   36.0915   42.6944 H   0  0  0  0  0  0  0  0  0  0  0  0
   48.6567   36.0488   42.4992 H   0  0  0  0  0  0  0  0  0  0  0  0
   49.6276   35.8898   40.2126 H   0  0  0  0  0  0  0  0  0  0  0  0
   48.2095   34.1400   38.5604 H   0  0  0  0  0  0  0  0  0  0  0  0
  1  2  1  0
  2  8  1  0
  3  4  2  0
  3  2  1  0
  4  5  1  0
  5  7  2  0
  6  5  1  0
  8  7  1  0
  8  9  2  0
 10 15  2  0
 11 10  1  0
 12 11  2  0
 12 13  1  0
 13 14  2  0
 14 15  1  0
 14  1  1  0
 16 12  1  0
 17 16  2  0
 18 17  1  0
 19 18  2  0
 19 20  1  0
 20 16  1  0
  1 21  1  0
  1 22  1  0
  3 23  1  0
  4 24  1  0
  6 25  1  0
  6 26  1  0
 10 27  1  0
 11 28  1  0
 17 29  1  0
 18 30  1  0
 19 31  1  0
M  ISO  8  21   8  22   8  23  14  24  14  27  14  28  14  29  14  30  14
M  ISO  1  31  14
M  END
>  <minimizedAffinity>  (1) 
-5.74653959

>  <minimizedRMSD>  (1) 
0.839922547

$$$$
