
     RDKit          3D

 32 34  0  0  0  0  0  0  0  0999 V2000
   46.6590   32.8940   46.5910 C   0  0  0  0  0  0  0  0  0  0  0  0
   46.0380   31.6030   46.6350 N   0  0  0  0  0  0  0  0  0  0  0  0
   45.9870   30.7720   45.5640 C   0  0  0  0  0  0  0  0  0  0  0  0
   45.3710   29.5350   45.6740 C   0  0  0  0  0  0  0  0  0  0  0  0
   44.7940   29.1230   46.8810 C   0  0  0  0  0  0  0  0  0  0  0  0
   44.1950   27.8190   46.8390 N   0  0  0  0  0  0  0  0  0  0  0  0
   44.8430   29.9550   47.9600 N   0  0  0  0  0  0  0  0  0  0  0  0
   45.4650   31.1430   47.7600 C   0  0  0  0  0  0  0  0  0  0  0  0
   45.5020   31.9010   48.7640 O   0  0  0  0  0  0  0  0  0  0  0  0
   44.5560   35.4000   44.8620 C   0  0  0  0  0  0  0  0  0  0  0  0
   45.1540   35.4250   43.5950 C   0  0  0  0  0  0  0  0  0  0  0  0
   46.2470   34.5980   43.3600 C   0  0  0  0  0  0  0  0  0  0  0  0
   46.6770   33.8120   44.3670 N   0  0  0  0  0  0  0  0  0  0  0  0
   46.0820   33.8050   45.5820 C   0  0  0  0  0  0  0  0  0  0  0  0
   45.0250   34.5980   45.8310 N   0  0  0  0  0  0  0  0  0  0  0  0
   46.9010   34.5850   42.0710 C   0  0  0  0  0  0  0  0  0  0  0  0
   48.0520   35.3130   41.8860 C   0  0  0  0  0  0  0  0  0  0  0  0
   48.6570   35.2770   40.6300 C   0  0  0  0  0  0  0  0  0  0  0  0
   48.1070   34.5410   39.6410 N   0  0  0  0  0  0  0  0  0  0  0  0
   46.9790   33.8340   39.8410 C   0  0  0  0  0  0  0  0  0  0  0  0
   46.3940   33.8690   41.0590 N   0  0  0  0  0  0  0  0  0  0  0  0
   46.5531   33.3625   47.5806 H   0  0  0  0  0  0  0  0  0  0  0  0
   47.7098   32.7318   46.3089 H   0  0  0  0  0  0  0  0  0  0  0  0
   46.4347   31.0799   44.6076 H   0  0  0  0  0  0  0  0  0  0  0  0
   45.3351   28.8676   44.8003 H   0  0  0  0  0  0  0  0  0  0  0  0
   43.7455   27.4314   47.6808 H   0  0  0  0  0  0  0  0  0  0  0  0
   44.2147   27.2710   45.9671 H   0  0  0  0  0  0  0  0  0  0  0  0
   43.6898   36.0468   45.0655 H   0  0  0  0  0  0  0  0  0  0  0  0
   44.7674   36.0842   42.8038 H   0  0  0  0  0  0  0  0  0  0  0  0
   48.4836   35.9070   42.7051 H   0  0  0  0  0  0  0  0  0  0  0  0
   49.5797   35.8467   40.4457 H   0  0  0  0  0  0  0  0  0  0  0  0
   46.5408   33.2379   39.0270 H   0  0  0  0  0  0  0  0  0  0  0  0
  1  2  1  0
  2  8  1  0
  3  4  2  0
  3  2  1  0
  4  5  1  0
  5  7  2  0
  6  5  1  0
  8  7  1  0
  8  9  2  0
 10 15  2  0
 11 10  1  0
 12 11  2  0
 12 13  1  0
 13 14  2  0
 14 15  1  0
 14  1  1  0
 16 12  1  0
 17 16  2  0
 18 17  1  0
 19 20  1  0
 19 18  2  0
 20 21  2  0
 21 16  1  0
  1 22  1  0
  1 23  1  0
  3 24  1  0
  4 25  1  0
  6 26  1  0
  6 27  1  0
 10 28  1  0
 11 29  1  0
 17 30  1  0
 18 31  1  0
 20 32  1  0
M  ISO  8  22   8  23   8  24  14  25  14  28  14  29  14  30  14  31  14
M  ISO  1  32  14
M  END
>  <minimizedAffinity>  (1) 
-5.7437439

>  <minimizedRMSD>  (1) 
0.343189389

$$$$
