
     RDKit          3D

 32 34  0  0  0  0  0  0  0  0999 V2000
   46.6260   32.9270   46.6060 C   0  0  0  0  0  0  0  0  0  0  0  0
   46.0210   31.6320   46.6350 N   0  0  0  0  0  0  0  0  0  0  0  0
   45.9690   30.8050   45.5650 C   0  0  0  0  0  0  0  0  0  0  0  0
   45.3630   29.5630   45.6730 C   0  0  0  0  0  0  0  0  0  0  0  0
   44.8000   29.1390   46.8720 C   0  0  0  0  0  0  0  0  0  0  0  0
   44.2090   27.8340   46.8360 N   0  0  0  0  0  0  0  0  0  0  0  0
   44.8430   29.9580   47.9580 N   0  0  0  0  0  0  0  0  0  0  0  0
   45.4560   31.1540   47.7590 C   0  0  0  0  0  0  0  0  0  0  0  0
   45.4860   31.8980   48.7750 O   0  0  0  0  0  0  0  0  0  0  0  0
   44.5900   35.3930   44.7570 C   0  0  0  0  0  0  0  0  0  0  0  0
   45.2140   35.4060   43.5180 C   0  0  0  0  0  0  0  0  0  0  0  0
   46.3150   34.5760   43.3350 C   0  0  0  0  0  0  0  0  0  0  0  0
   46.7310   33.8010   44.3520 N   0  0  0  0  0  0  0  0  0  0  0  0
   46.0920   33.8150   45.5540 C   0  0  0  0  0  0  0  0  0  0  0  0
   45.0210   34.6140   45.7520 N   0  0  0  0  0  0  0  0  0  0  0  0
   46.9720   34.5890   42.0320 C   0  0  0  0  0  0  0  0  0  0  0  0
   48.1220   35.3250   41.8310 C   0  0  0  0  0  0  0  0  0  0  0  0
   48.6610   35.2630   40.5540 C   0  0  0  0  0  0  0  0  0  0  0  0
   48.1010   34.5340   39.5700 N   0  0  0  0  0  0  0  0  0  0  0  0
   46.9620   33.8170   39.8050 C   0  0  0  0  0  0  0  0  0  0  0  0
   46.4140   33.8610   41.0470 N   0  0  0  0  0  0  0  0  0  0  0  0
   46.4611   33.4079   47.5814 H   0  0  0  0  0  0  0  0  0  0  0  0
   47.6926   32.7755   46.3839 H   0  0  0  0  0  0  0  0  0  0  0  0
   46.4088   31.1193   44.6070 H   0  0  0  0  0  0  0  0  0  0  0  0
   45.3268   28.9012   44.7951 H   0  0  0  0  0  0  0  0  0  0  0  0
   43.7698   27.4440   47.6821 H   0  0  0  0  0  0  0  0  0  0  0  0
   44.2234   27.2860   45.9640 H   0  0  0  0  0  0  0  0  0  0  0  0
   43.7173   36.0415   44.9240 H   0  0  0  0  0  0  0  0  0  0  0  0
   44.8495   36.0523   42.7060 H   0  0  0  0  0  0  0  0  0  0  0  0
   48.5819   35.9225   42.6319 H   0  0  0  0  0  0  0  0  0  0  0  0
   49.5787   35.8297   40.3376 H   0  0  0  0  0  0  0  0  0  0  0  0
   46.4995   33.2179   39.0068 H   0  0  0  0  0  0  0  0  0  0  0  0
  1  2  1  0
  2  8  1  0
  3  4  2  0
  3  2  1  0
  4  5  1  0
  5  7  2  0
  6  5  1  0
  8  7  1  0
  8  9  2  0
 10 15  2  0
 11 10  1  0
 12 11  2  0
 12 13  1  0
 13 14  2  0
 14 15  1  0
 14  1  1  0
 16 12  1  0
 17 16  2  0
 18 17  1  0
 19 20  1  0
 19 18  2  0
 20 21  2  0
 21 16  1  0
  1 22  1  0
  1 23  1  0
  3 24  1  0
  4 25  1  0
  6 26  1  0
  6 27  1  0
 10 28  1  0
 11 29  1  0
 17 30  1  0
 18 31  1  0
 20 32  1  0
M  ISO  8  22   8  23   8  24  14  25  14  28  14  29  14  30  14  31  14
M  ISO  1  32  14
M  END
>  <minimizedAffinity>  (1) 
-5.74327755

>  <minimizedRMSD>  (1) 
0.589293599

$$$$
