
     RDKit          3D

 31 33  0  0  0  0  0  0  0  0999 V2000
   46.6430   32.8830   46.5130 C   0  0  0  0  0  0  0  0  0  0  0  0
   46.0080   31.5980   46.5160 N   0  0  0  0  0  0  0  0  0  0  0  0
   45.9340   30.7990   45.4240 C   0  0  0  0  0  0  0  0  0  0  0  0
   45.3070   29.5740   45.5000 C   0  0  0  0  0  0  0  0  0  0  0  0
   44.7320   29.1220   46.6970 C   0  0  0  0  0  0  0  0  0  0  0  0
   44.1180   27.8350   46.6270 N   0  0  0  0  0  0  0  0  0  0  0  0
   44.8050   29.9240   47.7970 N   0  0  0  0  0  0  0  0  0  0  0  0
   45.4420   31.1100   47.6240 C   0  0  0  0  0  0  0  0  0  0  0  0
   45.4950   31.8360   48.6620 O   0  0  0  0  0  0  0  0  0  0  0  0
   44.6040   35.3920   44.7220 C   0  0  0  0  0  0  0  0  0  0  0  0
   45.2730   35.4780   43.4920 C   0  0  0  0  0  0  0  0  0  0  0  0
   46.3960   34.6780   43.3130 C   0  0  0  0  0  0  0  0  0  0  0  0
   46.7960   33.8620   44.3100 N   0  0  0  0  0  0  0  0  0  0  0  0
   46.1210   33.8080   45.4880 C   0  0  0  0  0  0  0  0  0  0  0  0
   45.0270   34.5750   45.6880 N   0  0  0  0  0  0  0  0  0  0  0  0
   47.1170   34.7190   42.0870 N   0  0  0  0  0  0  0  0  0  0  0  0
   46.8250   34.0970   40.9680 N   0  0  0  0  0  0  0  0  0  0  0  0
   47.7300   34.3680   40.0190 C   0  0  0  0  0  0  0  0  0  0  0  0
   48.6570   35.2260   40.5930 C   0  0  0  0  0  0  0  0  0  0  0  0
   48.2450   35.4210   41.8760 C   0  0  0  0  0  0  0  0  0  0  0  0
   46.4967   33.3435   47.5012 H   0  0  0  0  0  0  0  0  0  0  0  0
   47.7041   32.7132   46.2778 H   0  0  0  0  0  0  0  0  0  0  0  0
   46.3763   31.1296   44.4727 H   0  0  0  0  0  0  0  0  0  0  0  0
   45.2565   28.9379   44.6040 H   0  0  0  0  0  0  0  0  0  0  0  0
   43.6727   27.4307   47.4631 H   0  0  0  0  0  0  0  0  0  0  0  0
   44.1204   27.3108   45.7404 H   0  0  0  0  0  0  0  0  0  0  0  0
   43.7114   36.0116   44.8936 H   0  0  0  0  0  0  0  0  0  0  0  0
   44.9220   36.1537   42.6981 H   0  0  0  0  0  0  0  0  0  0  0  0
   47.7371   33.9857   38.9876 H   0  0  0  0  0  0  0  0  0  0  0  0
   49.5445   35.6605   40.1097 H   0  0  0  0  0  0  0  0  0  0  0  0
   48.7530   36.0515   42.6206 H   0  0  0  0  0  0  0  0  0  0  0  0
  1  2  1  0
  2  8  1  0
  3  4  2  0
  3  2  1  0
  4  5  1  0
  5  7  2  0
  6  5  1  0
  8  7  1  0
  8  9  2  0
 10 15  2  0
 11 10  1  0
 12 11  2  0
 12 13  1  0
 13 14  2  0
 14 15  1  0
 14  1  1  0
 16 12  1  0
 17 16  1  0
 18 19  1  0
 18 17  2  0
 19 20  2  0
 20 16  1  0
  1 21  1  0
  1 22  1  0
  3 23  1  0
  4 24  1  0
  6 25  1  0
  6 26  1  0
 10 27  1  0
 11 28  1  0
 18 29  1  0
 19 30  1  0
 20 31  1  0
M  ISO  8  21   8  22   8  23  14  24  14  27  14  28  14  29  14  30  14
M  ISO  1  31  14
M  END
>  <minimizedAffinity>  (1) 
-5.58913946

>  <minimizedRMSD>  (1) 
0.370124042

$$$$
