
     RDKit          3D

 31 33  0  0  0  0  0  0  0  0999 V2000
   46.6430   32.9200   46.4760 C   0  0  0  0  0  0  0  0  0  0  0  0
   46.0160   31.6430   46.4880 N   0  0  0  0  0  0  0  0  0  0  0  0
   45.9440   30.8230   45.4070 C   0  0  0  0  0  0  0  0  0  0  0  0
   45.3160   29.5970   45.5070 C   0  0  0  0  0  0  0  0  0  0  0  0
   44.7450   29.1630   46.6900 C   0  0  0  0  0  0  0  0  0  0  0  0
   44.1360   27.8740   46.6250 N   0  0  0  0  0  0  0  0  0  0  0  0
   44.8090   29.9770   47.7890 N   0  0  0  0  0  0  0  0  0  0  0  0
   45.4390   31.1580   47.6080 C   0  0  0  0  0  0  0  0  0  0  0  0
   45.4890   31.8950   48.6310 O   0  0  0  0  0  0  0  0  0  0  0  0
   44.5970   35.4320   44.6730 C   0  0  0  0  0  0  0  0  0  0  0  0
   45.2700   35.4880   43.4430 C   0  0  0  0  0  0  0  0  0  0  0  0
   46.3880   34.6820   43.2570 C   0  0  0  0  0  0  0  0  0  0  0  0
   46.7830   33.8770   44.2630 N   0  0  0  0  0  0  0  0  0  0  0  0
   46.1140   33.8440   45.4410 C   0  0  0  0  0  0  0  0  0  0  0  0
   45.0370   34.6120   45.6360 N   0  0  0  0  0  0  0  0  0  0  0  0
   47.0840   34.7100   42.0400 N   0  0  0  0  0  0  0  0  0  0  0  0
   46.8230   34.0770   40.9010 C   0  0  0  0  0  0  0  0  0  0  0  0
   47.7310   34.3490   39.9190 C   0  0  0  0  0  0  0  0  0  0  0  0
   48.6000   35.1970   40.4880 N   0  0  0  0  0  0  0  0  0  0  0  0
   48.2030   35.4110   41.7720 C   0  0  0  0  0  0  0  0  0  0  0  0
   46.4978   33.3857   47.4619 H   0  0  0  0  0  0  0  0  0  0  0  0
   47.7037   32.7510   46.2388 H   0  0  0  0  0  0  0  0  0  0  0  0
   46.3869   31.1363   44.4501 H   0  0  0  0  0  0  0  0  0  0  0  0
   45.2685   28.9471   44.6208 H   0  0  0  0  0  0  0  0  0  0  0  0
   43.6869   27.4739   47.4611 H   0  0  0  0  0  0  0  0  0  0  0  0
   44.1456   27.3438   45.7420 H   0  0  0  0  0  0  0  0  0  0  0  0
   43.7105   36.0599   44.8457 H   0  0  0  0  0  0  0  0  0  0  0  0
   44.9203   36.1560   42.6420 H   0  0  0  0  0  0  0  0  0  0  0  0
   45.9641   33.4036   40.7639 H   0  0  0  0  0  0  0  0  0  0  0  0
   47.7465   33.9595   38.8904 H   0  0  0  0  0  0  0  0  0  0  0  0
   48.7221   36.0637   42.4893 H   0  0  0  0  0  0  0  0  0  0  0  0
  1  2  1  0
  2  8  1  0
  3  4  2  0
  3  2  1  0
  4  5  1  0
  5  7  2  0
  6  5  1  0
  8  7  1  0
  8  9  2  0
 10 15  2  0
 11 10  1  0
 12 11  2  0
 12 13  1  0
 13 14  2  0
 14 15  1  0
 14  1  1  0
 16 12  1  0
 17 16  1  0
 18 19  1  0
 18 17  2  0
 19 20  2  0
 20 16  1  0
  1 21  1  0
  1 22  1  0
  3 23  1  0
  4 24  1  0
  6 25  1  0
  6 26  1  0
 10 27  1  0
 11 28  1  0
 17 29  1  0
 18 30  1  0
 20 31  1  0
M  ISO  8  21   8  22   8  23  14  24  14  27  14  28  14  29  14  30  14
M  ISO  1  31  14
M  END
>  <minimizedAffinity>  (1) 
-5.44235992

>  <minimizedRMSD>  (1) 
0.355344325

$$$$
