
     RDKit          3D

 25 26  0  0  0  0  0  0  0  0999 V2000
   46.6590   32.9020   46.4700 C   0  0  0  0  0  0  0  0  0  0  0  0
   46.0230   31.6160   46.4800 N   0  0  0  0  0  0  0  0  0  0  0  0
   45.9430   30.7980   45.4070 C   0  0  0  0  0  0  0  0  0  0  0  0
   45.3150   29.5740   45.4970 C   0  0  0  0  0  0  0  0  0  0  0  0
   44.7410   29.1450   46.7020 C   0  0  0  0  0  0  0  0  0  0  0  0
   44.1250   27.8540   46.6340 N   0  0  0  0  0  0  0  0  0  0  0  0
   44.8110   29.9610   47.8030 N   0  0  0  0  0  0  0  0  0  0  0  0
   45.4470   31.1350   47.6070 C   0  0  0  0  0  0  0  0  0  0  0  0
   45.5030   31.8740   48.6290 O   0  0  0  0  0  0  0  0  0  0  0  0
   44.5550   35.4490   44.8150 C   0  0  0  0  0  0  0  0  0  0  0  0
   45.1500   35.5220   43.5490 C   0  0  0  0  0  0  0  0  0  0  0  0
   46.2540   34.7020   43.2870 C   0  0  0  0  0  0  0  0  0  0  0  0
   46.6970   33.8790   44.2610 N   0  0  0  0  0  0  0  0  0  0  0  0
   46.0990   33.8350   45.4710 C   0  0  0  0  0  0  0  0  0  0  0  0
   45.0320   34.6190   45.7430 N   0  0  0  0  0  0  0  0  0  0  0  0
   47.0820   34.7190   41.7060 S   0  0  0  0  0  0  0  0  0  0  0  0
   46.5464   33.3526   47.4671 H   0  0  0  0  0  0  0  0  0  0  0  0
   47.7125   32.7369   46.1998 H   0  0  0  0  0  0  0  0  0  0  0  0
   46.3845   31.1128   44.4499 H   0  0  0  0  0  0  0  0  0  0  0  0
   45.2636   28.9246   44.6106 H   0  0  0  0  0  0  0  0  0  0  0  0
   43.6759   27.4530   47.4697 H   0  0  0  0  0  0  0  0  0  0  0  0
   44.1310   27.3264   45.7494 H   0  0  0  0  0  0  0  0  0  0  0  0
   43.6859   36.0825   45.0458 H   0  0  0  0  0  0  0  0  0  0  0  0
   44.7600   36.2058   42.7807 H   0  0  0  0  0  0  0  0  0  0  0  0
   48.4378   34.7468   41.9008 H   0  0  0  0  0  0  0  0  0  0  0  0
  1  2  1  0
  2  8  1  0
  3  4  2  0
  3  2  1  0
  4  5  1  0
  5  7  2  0
  6  5  1  0
  8  7  1  0
  8  9  2  0
 10 15  2  0
 11 10  1  0
 12 11  2  0
 12 13  1  0
 13 14  2  0
 14 15  1  0
 14  1  1  0
 16 12  1  0
  1 17  1  0
  1 18  1  0
  3 19  1  0
  4 20  1  0
  6 21  1  0
  6 22  1  0
 10 23  1  0
 11 24  1  0
 16 25  1  0
M  ISO  7  17   8  18   8  19  14  20  14  23  14  24  14  25  11
M  END
>  <minimizedAffinity>  (1) 
-4.52305603

>  <minimizedRMSD>  (1) 
0.134737864

$$$$
