
     RDKit          3D

 44 48  0  0  1  0  0  0  0  0999 V2000
   44.6330   35.3480   44.7490 C   0  0  0  0  0  0  0  0  0  0  0  0
   45.1830   35.5850   43.4960 C   0  0  0  0  0  0  0  0  0  0  0  0
   46.2860   34.8390   43.1230 C   0  0  0  0  0  0  0  0  0  0  0  0
   46.8120   33.9030   43.9590 N   0  0  0  0  0  0  0  0  0  0  0  0
   46.2440   33.7020   45.1750 C   0  0  0  0  0  0  0  0  0  0  0  0
   45.1640   34.4210   45.5610 N   0  0  0  0  0  0  0  0  0  0  0  0
   46.8650   35.0680   41.7830 C   0  0  1  0  0  0  0  0  0  0  0  0
   48.3980   35.0830   41.6780 C   0  0  0  0  0  0  0  0  0  0  0  0
   47.6010   33.9750   41.1030 C   0  0  2  0  0  0  0  0  0  0  0  0
   47.3680   33.8550   39.6950 N   0  0  0  0  0  0  0  0  0  0  0  0
   48.1830   34.1830   38.6920 C   0  0  0  0  0  0  0  0  0  0  0  0
   47.5400   33.8950   37.5250 N   0  0  0  0  0  0  0  0  0  0  0  0
   46.3240   33.3870   37.7970 C   0  0  0  0  0  0  0  0  0  0  0  0
   45.2330   32.9170   37.0890 C   0  0  0  0  0  0  0  0  0  0  0  0
   44.1230   32.4590   37.7100 N   0  0  0  0  0  0  0  0  0  0  0  0
   44.0320   32.4400   39.0660 C   0  0  0  0  0  0  0  0  0  0  0  0
   45.0930   32.8970   39.7560 N   0  0  0  0  0  0  0  0  0  0  0  0
   46.2160   33.3620   39.1740 C   0  0  0  0  0  0  0  0  0  0  0  0
   45.3190   32.9310   35.6700 N   0  0  0  0  0  0  0  0  0  0  0  0
   46.8530   32.6640   46.0340 C   0  0  0  0  0  0  0  0  0  0  0  0
   46.0990   31.4520   46.0950 N   0  0  0  0  0  0  0  0  0  0  0  0
   45.8850   30.6320   45.0200 C   0  0  0  0  0  0  0  0  0  0  0  0
   45.1430   29.4680   45.1590 C   0  0  0  0  0  0  0  0  0  0  0  0
   44.5970   29.1010   46.3850 C   0  0  0  0  0  0  0  0  0  0  0  0
   43.8600   27.8710   46.3610 N   0  0  0  0  0  0  0  0  0  0  0  0
   44.8010   29.9080   47.4670 N   0  0  0  0  0  0  0  0  0  0  0  0
   45.5360   31.0170   47.2270 C   0  0  0  0  0  0  0  0  0  0  0  0
   45.7090   31.7450   48.2460 O   0  0  0  0  0  0  0  0  0  0  0  0
   43.7558   35.9243   45.0782 H   0  0  0  0  0  0  0  0  0  0  0  0
   44.7551   36.3417   42.8220 H   0  0  0  0  0  0  0  0  0  0  0  0
   46.0358   35.7318   41.4971 H   0  0  0  0  0  0  0  0  0  0  0  0
   48.9002   35.8044   41.0167 H   0  0  0  0  0  0  0  0  0  0  0  0
   49.2325   35.1619   42.3903 H   0  0  0  0  0  0  0  0  0  0  0  0
   47.6951   32.8842   41.2091 H   0  0  0  0  0  0  0  0  0  0  0  0
   49.1924   34.6092   38.7888 H   0  0  0  0  0  0  0  0  0  0  0  0
   43.1315   32.0678   39.5764 H   0  0  0  0  0  0  0  0  0  0  0  0
   46.1704   33.2825   35.2091 H   0  0  0  0  0  0  0  0  0  0  0  0
   44.5299   32.5896   35.1028 H   0  0  0  0  0  0  0  0  0  0  0  0
   47.8534   32.4309   45.6404 H   0  0  0  0  0  0  0  0  0  0  0  0
   46.8874   33.0721   47.0549 H   0  0  0  0  0  0  0  0  0  0  0  0
   46.3045   30.8980   44.0385 H   0  0  0  0  0  0  0  0  0  0  0  0
   44.9832   28.8226   44.2827 H   0  0  0  0  0  0  0  0  0  0  0  0
   43.4189   27.5180   47.2223 H   0  0  0  0  0  0  0  0  0  0  0  0
   43.7717   27.3406   45.4825 H   0  0  0  0  0  0  0  0  0  0  0  0
  1  6  2  0
  2  1  1  0
  3  2  2  0
  3  4  1  0
  4  5  2  0
  5  6  1  0
  5 20  1  0
  7  3  1  0
  8  7  1  0
  9  8  1  0
  9  7  1  0
 10  9  1  0
 11 10  1  0
 12 13  1  0
 12 11  2  0
 13 18  2  0
 14 15  2  0
 14 13  1  0
 15 16  1  0
 16 17  2  0
 18 10  1  0
 18 17  1  0
 19 14  1  0
 20 21  1  0
 21 27  1  0
 22 23  2  0
 22 21  1  0
 23 24  1  0
 24 26  2  0
 25 24  1  0
 27 26  1  0
 27 28  2  0
  1 29  1  0
  2 30  1  0
  7 31  1  6
  8 32  1  0
  8 33  1  0
  9 34  1  1
 11 35  1  0
 16 36  1  0
 19 37  1  0
 19 38  1  0
 20 39  1  0
 20 40  1  0
 22 41  1  0
 23 42  1  0
 25 43  1  0
 25 44  1  0
M  ISO  8  29  14  30  14  31  13  32  13  33  13  34  13  35  14  36  14
M  ISO  4  39   8  40   8  41  14  42  14
M  END
>  <minimizedAffinity>  (1) 
-6.59280396

>  <minimizedRMSD>  (1) 
3.88482428

$$$$
