
     RDKit          3D

 44 47  0  0  1  0  0  0  0  0999 V2000
   44.6080   35.3660   44.7250 C   0  0  0  0  0  0  0  0  0  0  0  0
   45.2520   35.4840   43.4970 C   0  0  0  0  0  0  0  0  0  0  0  0
   46.3770   34.7170   43.2760 C   0  0  0  0  0  0  0  0  0  0  0  0
   46.8390   33.8730   44.2350 N   0  0  0  0  0  0  0  0  0  0  0  0
   46.1860   33.7830   45.4230 C   0  0  0  0  0  0  0  0  0  0  0  0
   45.0780   34.5300   45.6570 N   0  0  0  0  0  0  0  0  0  0  0  0
   47.0580   34.8160   41.9730 C   0  0  1  0  0  0  0  0  0  0  0  0
   48.3850   35.5950   41.9430 C   0  0  0  0  0  0  0  0  0  0  0  0
   48.3520   34.1230   41.7660 C   0  0  2  0  0  0  0  0  0  0  0  0
   48.7090   33.4750   40.5290 N   0  0  0  0  0  0  0  0  0  0  0  0
   48.1030   33.7620   39.3470 C   0  0  0  0  0  0  0  0  0  0  0  0
   48.4510   33.1340   38.1490 C   0  0  0  0  0  0  0  0  0  0  0  0
   47.7470   33.4960   36.8960 C   0  0  0  0  0  0  0  0  0  0  0  0
   49.4580   32.1740   38.1590 C   0  0  0  0  0  0  0  0  0  0  0  0
   49.7690   31.6120   37.0870 O   0  0  0  0  0  0  0  0  0  0  0  0
   50.0500   31.9000   39.3390 N   0  0  0  0  0  0  0  0  0  0  0  0
   49.6700   32.5380   40.4470 C   0  0  0  0  0  0  0  0  0  0  0  0
   50.3040   32.1860   41.4740 O   0  0  0  0  0  0  0  0  0  0  0  0
   46.7340   32.8350   46.4180 C   0  0  0  0  0  0  0  0  0  0  0  0
   46.0660   31.5720   46.4340 N   0  0  0  0  0  0  0  0  0  0  0  0
   45.9680   30.7440   45.3500 C   0  0  0  0  0  0  0  0  0  0  0  0
   45.2980   29.5320   45.4440 C   0  0  0  0  0  0  0  0  0  0  0  0
   44.7100   29.1250   46.6390 C   0  0  0  0  0  0  0  0  0  0  0  0
   44.0550   27.8510   46.5710 N   0  0  0  0  0  0  0  0  0  0  0  0
   44.8040   29.9520   47.7400 N   0  0  0  0  0  0  0  0  0  0  0  0
   45.4730   31.0990   47.5380 C   0  0  0  0  0  0  0  0  0  0  0  0
   45.5380   31.8270   48.5610 O   0  0  0  0  0  0  0  0  0  0  0  0
   43.7075   35.9636   44.9301 H   0  0  0  0  0  0  0  0  0  0  0  0
   44.8745   36.1697   42.7242 H   0  0  0  0  0  0  0  0  0  0  0  0
   46.1024   34.8374   41.4286 H   0  0  0  0  0  0  0  0  0  0  0  0
   48.6234   36.2497   41.0918 H   0  0  0  0  0  0  0  0  0  0  0  0
   48.9011   36.2934   42.6182 H   0  0  0  0  0  0  0  0  0  0  0  0
   48.8543   33.2812   42.2652 H   0  0  0  0  0  0  0  0  0  0  0  0
   47.3058   34.5199   39.3332 H   0  0  0  0  0  0  0  0  0  0  0  0
   46.7931   33.9865   37.1399 H   0  0  0  0  0  0  0  0  0  0  0  0
   48.3734   34.1838   36.3091 H   0  0  0  0  0  0  0  0  0  0  0  0
   47.5520   32.5864   36.3091 H   0  0  0  0  0  0  0  0  0  0  0  0
   50.7992   31.1947   39.3850 H   0  0  0  0  0  0  0  0  0  0  0  0
   47.7958   32.6638   46.1870 H   0  0  0  0  0  0  0  0  0  0  0  0
   46.5891   33.2888   47.4095 H   0  0  0  0  0  0  0  0  0  0  0  0
   46.4245   31.0413   44.3944 H   0  0  0  0  0  0  0  0  0  0  0  0
   45.2303   28.8818   44.5593 H   0  0  0  0  0  0  0  0  0  0  0  0
   43.5906   27.4655   47.4056 H   0  0  0  0  0  0  0  0  0  0  0  0
   44.0490   27.3215   45.6875 H   0  0  0  0  0  0  0  0  0  0  0  0
  1  6  2  0
  2  1  1  0
  3  2  2  0
  3  4  1  0
  4  5  2  0
  5  6  1  0
  5 19  1  0
  7  3  1  0
  8  7  1  0
  9  8  1  0
  9  7  1  0
 10  9  1  0
 11 10  1  0
 12 14  1  0
 12 11  2  0
 13 12  1  0
 14 16  1  0
 15 14  2  0
 16 17  1  0
 17 10  1  0
 17 18  2  0
 19 20  1  0
 20 26  1  0
 21 22  2  0
 21 20  1  0
 22 23  1  0
 23 25  2  0
 24 23  1  0
 26 25  1  0
 26 27  2  0
  1 28  1  0
  2 29  1  0
  7 30  1  6
  8 31  1  0
  8 32  1  0
  9 33  1  1
 11 34  1  0
 13 35  1  0
 13 36  1  0
 13 37  1  0
 16 38  1  0
 19 39  1  0
 19 40  1  0
 21 41  1  0
 22 42  1  0
 24 43  1  0
 24 44  1  0
M  ISO  8  28  14  29  14  30  13  31  13  32  13  33  13  34  14  35   8
M  ISO  7  36   8  37   8  38   9  39   8  40   8  41  14  42  14
M  END
>  <minimizedAffinity>  (1) 
-6.36430883

>  <minimizedRMSD>  (1) 
2.44573426

$$$$
