
     RDKit          3D

 37 40  0  0  1  0  0  0  0  0999 V2000
   44.6660   35.3310   44.6770 C   0  0  0  0  0  0  0  0  0  0  0  0
   45.2880   35.5200   43.4460 C   0  0  0  0  0  0  0  0  0  0  0  0
   46.4130   34.7680   43.1570 C   0  0  0  0  0  0  0  0  0  0  0  0
   46.8940   33.8690   44.0560 N   0  0  0  0  0  0  0  0  0  0  0  0
   46.2580   33.7090   45.2540 C   0  0  0  0  0  0  0  0  0  0  0  0
   45.1570   34.4360   45.5550 N   0  0  0  0  0  0  0  0  0  0  0  0
   47.0610   34.9490   41.8540 C   0  0  1  0  0  0  0  0  0  0  0  0
   48.4690   35.5700   41.8500 C   0  0  0  0  0  0  0  0  0  0  0  0
   48.2540   34.1480   41.4910 C   0  0  2  0  0  0  0  0  0  0  0  0
   48.3950   33.7120   40.0550 C   0  0  0  0  0  0  0  0  0  0  0  0
   48.8830   32.3660   39.8470 C   0  0  0  0  0  0  0  0  0  0  0  0
   48.8950   32.2650   37.9890 S   0  0  0  0  0  0  0  0  0  0  0  0
   48.2460   34.0460   37.8430 C   0  0  0  0  0  0  0  0  0  0  0  0
   48.1180   34.4400   38.9850 N   0  0  0  0  0  0  0  0  0  0  0  0
   46.8220   32.7100   46.1860 C   0  0  0  0  0  0  0  0  0  0  0  0
   46.0940   31.4710   46.2070 N   0  0  0  0  0  0  0  0  0  0  0  0
   45.9470   30.6530   45.1290 C   0  0  0  0  0  0  0  0  0  0  0  0
   45.2230   29.4760   45.2330 C   0  0  0  0  0  0  0  0  0  0  0  0
   44.6290   29.0990   46.4390 C   0  0  0  0  0  0  0  0  0  0  0  0
   43.9140   27.8650   46.3810 N   0  0  0  0  0  0  0  0  0  0  0  0
   44.7700   29.9110   47.5290 N   0  0  0  0  0  0  0  0  0  0  0  0
   45.4920   31.0340   47.3260 C   0  0  0  0  0  0  0  0  0  0  0  0
   45.6070   31.7680   48.3490 O   0  0  0  0  0  0  0  0  0  0  0  0
   43.7699   35.9151   44.9334 H   0  0  0  0  0  0  0  0  0  0  0  0
   44.8952   36.2486   42.7215 H   0  0  0  0  0  0  0  0  0  0  0  0
   46.0937   35.1461   41.3688 H   0  0  0  0  0  0  0  0  0  0  0  0
   48.7499   36.2998   41.0764 H   0  0  0  0  0  0  0  0  0  0  0  0
   49.0909   36.1105   42.5787 H   0  0  0  0  0  0  0  0  0  0  0  0
   48.6942   33.2071   41.8529 H   0  0  0  0  0  0  0  0  0  0  0  0
   49.1700   31.6059   40.5886 H   0  0  0  0  0  0  0  0  0  0  0  0
   48.0315   34.6026   36.9188 H   0  0  0  0  0  0  0  0  0  0  0  0
   47.8590   32.4996   45.8853 H   0  0  0  0  0  0  0  0  0  0  0  0
   46.7600   33.1391   47.1969 H   0  0  0  0  0  0  0  0  0  0  0  0
   46.4063   30.9283   44.1681 H   0  0  0  0  0  0  0  0  0  0  0  0
   45.1145   28.8280   44.3508 H   0  0  0  0  0  0  0  0  0  0  0  0
   43.4414   27.5036   47.2218 H   0  0  0  0  0  0  0  0  0  0  0  0
   43.8707   27.3359   45.4984 H   0  0  0  0  0  0  0  0  0  0  0  0
  1  6  2  0
  2  1  1  0
  3  2  2  0
  3  4  1  0
  4  5  2  0
  5  6  1  0
  5 15  1  0
  7  3  1  0
  8  7  1  0
  9  8  1  0
  9  7  1  0
 10  9  1  0
 11 10  2  0
 12 11  1  0
 13 12  1  0
 13 14  2  0
 14 10  1  0
 15 16  1  0
 16 22  1  0
 17 18  2  0
 17 16  1  0
 18 19  1  0
 19 21  2  0
 20 19  1  0
 22 21  1  0
 22 23  2  0
  1 24  1  0
  2 25  1  0
  7 26  1  6
  8 27  1  0
  8 28  1  0
  9 29  1  1
 11 30  1  0
 13 31  1  0
 15 32  1  0
 15 33  1  0
 17 34  1  0
 18 35  1  0
 20 36  1  0
 20 37  1  0
M  ISO  8  24  14  25  14  26  13  27  13  28  13  29  13  30  14  31  14
M  ISO  4  32   8  33   8  34  14  35  14
M  END
>  <minimizedAffinity>  (1) 
-5.81282616

>  <minimizedRMSD>  (1) 
1.83188057

$$$$
