
     RDKit          3D

 39 42  0  0  0  0  0  0  0  0999 V2000
   44.4940   35.8630   44.8730 C   0  0  0  0  0  0  0  0  0  0  0  0
   45.0790   35.8820   43.6120 C   0  0  0  0  0  0  0  0  0  0  0  0
   45.9780   34.9290   43.1890 C   0  0  0  0  0  0  0  0  0  0  0  0
   46.2290   33.9750   44.1360 N   0  0  0  0  0  0  0  0  0  0  0  0
   45.6780   33.9360   45.3560 C   0  0  0  0  0  0  0  0  0  0  0  0
   44.8170   34.8850   45.7030 N   0  0  0  0  0  0  0  0  0  0  0  0
   46.0280   32.8830   46.2460 N   0  0  0  0  0  0  0  0  0  0  0  0
   45.3550   32.7570   47.4120 C   0  0  0  0  0  0  0  0  0  0  0  0
   45.7120   31.7270   48.2590 C   0  0  0  0  0  0  0  0  0  0  0  0
   45.0450   31.5000   49.5530 C   0  0  0  0  0  0  0  0  0  0  0  0
   46.7450   30.8830   47.8580 C   0  0  0  0  0  0  0  0  0  0  0  0
   47.0900   29.9290   48.6210 O   0  0  0  0  0  0  0  0  0  0  0  0
   47.3830   31.0520   46.6870 N   0  0  0  0  0  0  0  0  0  0  0  0
   47.0130   32.0570   45.8910 C   0  0  0  0  0  0  0  0  0  0  0  0
   47.6410   32.1690   44.8080 O   0  0  0  0  0  0  0  0  0  0  0  0
   46.6740   34.7740   41.9400 C   0  0  0  0  0  0  0  0  0  0  0  0
   47.9200   35.3640   41.8200 C   0  0  0  0  0  0  0  0  0  0  0  0
   48.7060   35.2930   40.6930 C   0  0  0  0  0  0  0  0  0  0  0  0
   48.2460   34.6000   39.6090 C   0  0  0  0  0  0  0  0  0  0  0  0
   47.0070   33.9820   39.6510 C   0  0  0  0  0  0  0  0  0  0  0  0
   46.5340   33.2880   38.5610 C   0  0  0  0  0  0  0  0  0  0  0  0
   45.3020   32.6670   38.5680 C   0  0  0  0  0  0  0  0  0  0  0  0
   44.5800   32.7900   39.7430 C   0  0  0  0  0  0  0  0  0  0  0  0
   45.0710   33.4820   40.8030 C   0  0  0  0  0  0  0  0  0  0  0  0
   46.2860   34.0990   40.8070 C   0  0  0  0  0  0  0  0  0  0  0  0
   43.7791   36.6431   45.1736 H   0  0  0  0  0  0  0  0  0  0  0  0
   44.8115   36.6951   42.9211 H   0  0  0  0  0  0  0  0  0  0  0  0
   44.5470   33.4545   47.6778 H   0  0  0  0  0  0  0  0  0  0  0  0
   45.7413   31.7370   50.3710 H   0  0  0  0  0  0  0  0  0  0  0  0
   44.1585   32.1470   49.6271 H   0  0  0  0  0  0  0  0  0  0  0  0
   44.7372   30.4465   49.6271 H   0  0  0  0  0  0  0  0  0  0  0  0
   48.1445   30.4166   46.4089 H   0  0  0  0  0  0  0  0  0  0  0  0
   48.3074   35.9266   42.6822 H   0  0  0  0  0  0  0  0  0  0  0  0
   49.6889   35.7862   40.6651 H   0  0  0  0  0  0  0  0  0  0  0  0
   48.8616   34.5326   38.6999 H   0  0  0  0  0  0  0  0  0  0  0  0
   47.1571   33.2265   37.6566 H   0  0  0  0  0  0  0  0  0  0  0  0
   44.9193   32.1118   37.6989 H   0  0  0  0  0  0  0  0  0  0  0  0
   43.5894   32.3179   39.8192 H   0  0  0  0  0  0  0  0  0  0  0  0
   44.4527   33.5484   41.7104 H   0  0  0  0  0  0  0  0  0  0  0  0
  1  6  2  0
  2  1  1  0
  3  2  2  0
  3  4  1  0
  4  5  2  0
  5  6  1  0
  5  7  1  0
  7  8  1  0
  8  9  2  0
  9 10  1  0
 11  9  1  0
 11 12  2  0
 13 11  1  0
 14  7  1  0
 14 13  1  0
 15 14  2  0
 16  3  1  0
 17 16  2  0
 18 17  1  0
 19 20  1  0
 19 18  2  0
 20 25  2  0
 21 22  2  0
 21 20  1  0
 22 23  1  0
 23 24  2  0
 24 25  1  0
 25 16  1  0
  1 26  1  0
  2 27  1  0
  8 28  1  0
 10 29  1  0
 10 30  1  0
 10 31  1  0
 13 32  1  0
 17 33  1  0
 18 34  1  0
 19 35  1  0
 21 36  1  0
 22 37  1  0
 23 38  1  0
 24 39  1  0
M  ISO  8  26  14  27  14  28  14  29   8  30   8  31   8  32   9  33  14
M  ISO  6  34  14  35  14  36  14  37  14  38  14  39  14
M  END
>  <minimizedAffinity>  (1) 
-7.92977953

>  <minimizedRMSD>  (1) 
0.160763249

$$$$
