
     RDKit          3D

 37 39  0  0  1  0  0  0  0  0999 V2000
   44.8160   35.2630   44.2120 C   0  0  0  0  0  0  0  0  0  0  0  0
   45.5230   35.4010   43.0320 C   0  0  0  0  0  0  0  0  0  0  0  0
   46.6760   34.6580   42.8610 C   0  0  0  0  0  0  0  0  0  0  0  0
   47.0780   33.8280   43.8300 N   0  0  0  0  0  0  0  0  0  0  0  0
   46.3780   33.6970   44.9830 C   0  0  0  0  0  0  0  0  0  0  0  0
   45.2480   34.4210   45.1650 N   0  0  0  0  0  0  0  0  0  0  0  0
   47.4290   34.7840   41.6010 C   0  0  1  0  0  0  0  0  0  0  0  0
   48.6250   35.7450   41.6020 C   0  0  0  0  0  0  0  0  0  0  0  0
   48.8130   34.2670   41.5040 C   0  0  1  0  0  0  0  0  0  0  0  0
   49.5180   33.6640   42.6980 C   0  0  0  0  0  0  0  0  0  0  0  0
   50.9090   33.1880   42.3210 C   0  0  0  0  0  0  0  0  0  0  0  0
   46.8910   32.7480   45.9990 C   0  0  0  0  0  0  0  0  0  0  0  0
   46.1400   31.5250   46.0640 N   0  0  0  0  0  0  0  0  0  0  0  0
   45.9160   30.7120   44.9870 C   0  0  0  0  0  0  0  0  0  0  0  0
   45.1740   29.5500   45.1400 C   0  0  0  0  0  0  0  0  0  0  0  0
   44.6430   29.1830   46.3750 C   0  0  0  0  0  0  0  0  0  0  0  0
   43.8990   27.9620   46.3620 N   0  0  0  0  0  0  0  0  0  0  0  0
   44.8630   29.9950   47.4690 N   0  0  0  0  0  0  0  0  0  0  0  0
   45.5950   31.1000   47.2150 C   0  0  0  0  0  0  0  0  0  0  0  0
   45.7810   31.8220   48.2280 O   0  0  0  0  0  0  0  0  0  0  0  0
   43.8962   35.8450   44.3709 H   0  0  0  0  0  0  0  0  0  0  0  0
   45.1754   36.0875   42.2459 H   0  0  0  0  0  0  0  0  0  0  0  0
   46.5177   34.6388   41.0023 H   0  0  0  0  0  0  0  0  0  0  0  0
   48.8203   36.3873   40.7306 H   0  0  0  0  0  0  0  0  0  0  0  0
   48.9926   36.5422   42.2649 H   0  0  0  0  0  0  0  0  0  0  0  0
   49.2658   33.5508   40.8026 H   0  0  0  0  0  0  0  0  0  0  0  0
   49.5993   34.4233   43.4898 H   0  0  0  0  0  0  0  0  0  0  0  0
   48.9348   32.8012   43.0521 H   0  0  0  0  0  0  0  0  0  0  0  0
   51.4888   32.9896   43.2345 H   0  0  0  0  0  0  0  0  0  0  0  0
   50.8324   32.2649   41.7276 H   0  0  0  0  0  0  0  0  0  0  0  0
   51.4140   33.9645   41.7276 H   0  0  0  0  0  0  0  0  0  0  0  0
   47.9351   32.5040   45.7533 H   0  0  0  0  0  0  0  0  0  0  0  0
   46.7999   33.2390   46.9791 H   0  0  0  0  0  0  0  0  0  0  0  0
   46.3237   30.9793   44.0009 H   0  0  0  0  0  0  0  0  0  0  0  0
   45.0009   28.9037   44.2669 H   0  0  0  0  0  0  0  0  0  0  0  0
   43.4692   27.6116   47.2300 H   0  0  0  0  0  0  0  0  0  0  0  0
   43.7929   27.4329   45.4847 H   0  0  0  0  0  0  0  0  0  0  0  0
  1  6  2  0
  2  1  1  0
  3  2  2  0
  3  4  1  0
  4  5  2  0
  5  6  1  0
  5 12  1  0
  7  8  1  0
  7  3  1  0
  9  7  1  0
  9  8  1  0
  9 10  1  0
 11 10  1  0
 12 13  1  0
 13 19  1  0
 14 15  2  0
 14 13  1  0
 15 16  1  0
 16 18  2  0
 17 16  1  0
 19 18  1  0
 19 20  2  0
  1 21  1  0
  2 22  1  0
  7 23  1  6
  8 24  1  0
  8 25  1  0
  9 26  1  6
 10 27  1  0
 10 28  1  0
 11 29  1  0
 11 30  1  0
 11 31  1  0
 12 32  1  0
 12 33  1  0
 14 34  1  0
 15 35  1  0
 17 36  1  0
 17 37  1  0
M  ISO  8  21  14  22  14  23  13  24  13  25  13  26  13  27   8  28   8
M  ISO  7  29   8  30   8  31   8  32   8  33   8  34  14  35  14
M  END
>  <minimizedAffinity>  (1) 
-5.44434404

>  <minimizedRMSD>  (1) 
0.80509299

$$$$
