
     RDKit          3D

 43 45  0  0  1  0  0  0  0  0999 V2000
   47.7610   34.1090   43.1550 C   0  0  0  0  0  0  0  0  0  0  0  0
   46.6700   34.9070   42.8480 C   0  0  0  0  0  0  0  0  0  0  0  0
   45.4240   34.5200   43.3070 C   0  0  0  0  0  0  0  0  0  0  0  0
   45.3040   33.3870   44.0360 N   0  0  0  0  0  0  0  0  0  0  0  0
   46.3890   32.6330   44.3150 C   0  0  0  0  0  0  0  0  0  0  0  0
   47.6080   32.9930   43.8770 N   0  0  0  0  0  0  0  0  0  0  0  0
   44.2360   35.3360   43.0080 C   0  0  1  0  0  0  0  0  0  0  0  0
   44.2230   36.0940   41.6720 C   0  0  0  0  0  0  0  0  0  0  0  0
   43.2860   35.0020   41.9690 C   0  0  1  0  0  0  0  0  0  0  0  0
   43.2010   33.8420   41.0930 C   0  0  0  0  0  0  0  0  0  0  0  0
   44.4910   33.8390   40.2440 C   0  0  0  0  0  0  0  0  0  0  0  0
   42.1030   34.0160   40.0560 C   0  0  0  0  0  0  0  0  0  0  0  0
   43.1750   32.4870   41.7280 C   0  0  0  0  0  0  0  0  0  0  0  0
   46.1540   31.4010   45.1150 C   0  0  0  0  0  0  0  0  0  0  0  0
   46.8930   31.3440   46.3230 N   0  0  0  0  0  0  0  0  0  0  0  0
   46.8710   32.3420   47.2450 C   0  0  0  0  0  0  0  0  0  0  0  0
   47.6150   32.2350   48.4160 C   0  0  0  0  0  0  0  0  0  0  0  0
   48.3940   31.1070   48.6680 C   0  0  0  0  0  0  0  0  0  0  0  0
   49.0950   31.1560   49.9250 N   0  0  0  0  0  0  0  0  0  0  0  0
   48.4240   30.0980   47.7490 N   0  0  0  0  0  0  0  0  0  0  0  0
   47.6670   30.3070   46.6510 C   0  0  0  0  0  0  0  0  0  0  0  0
   47.7090   29.3600   45.8120 O   0  0  0  0  0  0  0  0  0  0  0  0
   48.7624   34.3960   42.8016 H   0  0  0  0  0  0  0  0  0  0  0  0
   46.7921   35.8249   42.2543 H   0  0  0  0  0  0  0  0  0  0  0  0
   44.1261   35.5617   44.0790 H   0  0  0  0  0  0  0  0  0  0  0  0
   45.0330   35.9495   40.9420 H   0  0  0  0  0  0  0  0  0  0  0  0
   44.1407   37.1451   41.3584 H   0  0  0  0  0  0  0  0  0  0  0  0
   42.1997   34.8461   42.0443 H   0  0  0  0  0  0  0  0  0  0  0  0
   45.3674   33.8370   40.9087 H   0  0  0  0  0  0  0  0  0  0  0  0
   44.5101   32.9408   39.6093 H   0  0  0  0  0  0  0  0  0  0  0  0
   44.5143   34.7371   39.6093 H   0  0  0  0  0  0  0  0  0  0  0  0
   41.1395   34.1687   40.5643 H   0  0  0  0  0  0  0  0  0  0  0  0
   42.3281   34.8897   39.4267 H   0  0  0  0  0  0  0  0  0  0  0  0
   42.0470   33.1155   39.4267 H   0  0  0  0  0  0  0  0  0  0  0  0
   43.1771   32.5950   42.8227 H   0  0  0  0  0  0  0  0  0  0  0  0
   42.2664   31.9523   41.4140 H   0  0  0  0  0  0  0  0  0  0  0  0
   44.0624   31.9178   41.4140 H   0  0  0  0  0  0  0  0  0  0  0  0
   45.0835   31.3492   45.3625 H   0  0  0  0  0  0  0  0  0  0  0  0
   46.4898   30.5543   44.4983 H   0  0  0  0  0  0  0  0  0  0  0  0
   46.2615   33.2397   47.0646 H   0  0  0  0  0  0  0  0  0  0  0  0
   47.5880   33.0515   49.1526 H   0  0  0  0  0  0  0  0  0  0  0  0
   49.6994   30.3717   50.2085 H   0  0  0  0  0  0  0  0  0  0  0  0
   48.9920   31.9754   50.5405 H   0  0  0  0  0  0  0  0  0  0  0  0
  1  6  2  0
  2  1  1  0
  2  3  2  0
  3  4  1  0
  4  5  2  0
  5 14  1  0
  6  5  1  0
  7  3  1  0
  8  9  1  0
  8  7  1  0
  9  7  1  0
 10 13  1  0
 10  9  1  0
 11 10  1  0
 12 10  1  0
 14 15  1  0
 15 21  1  0
 15 16  1  0
 16 17  2  0
 17 18  1  0
 18 19  1  0
 20 18  2  0
 21 20  1  0
 22 21  2  0
  1 23  1  0
  2 24  1  0
  7 25  1  1
  8 26  1  0
  8 27  1  0
  9 28  1  1
 11 29  1  0
 11 30  1  0
 11 31  1  0
 12 32  1  0
 12 33  1  0
 12 34  1  0
 13 35  1  0
 13 36  1  0
 13 37  1  0
 14 38  1  0
 14 39  1  0
 16 40  1  0
 17 41  1  0
 19 42  1  0
 19 43  1  0
M  ISO  8  23  14  24  14  25  13  26  13  27  13  28  13  29   8  30   8
M  ISO  8  31   8  32   8  33   8  34   8  35   8  36   8  37   8  38   8
M  ISO  3  39   8  40  14  41  14
M  END
>  <minimizedAffinity>  (1) 
-4.95053101

>  <minimizedRMSD>  (1) 
4.80188179

$$$$
