
     RDKit          3D

 46 49  0  0  1  0  0  0  0  0999 V2000
   46.4740   32.7950   47.0270 C   0  0  0  0  0  0  0  0  0  0  0  0
   45.9360   31.4610   47.0140 N   0  0  0  0  0  0  0  0  0  0  0  0
   45.6960   30.7400   45.8650 C   0  0  0  0  0  0  0  0  0  0  0  0
   45.1770   29.4570   45.9500 C   0  0  0  0  0  0  0  0  0  0  0  0
   44.8890   28.8650   47.1650 C   0  0  0  0  0  0  0  0  0  0  0  0
   44.3640   27.5330   47.0680 N   0  0  0  0  0  0  0  0  0  0  0  0
   45.1210   29.5670   48.3230 N   0  0  0  0  0  0  0  0  0  0  0  0
   45.6270   30.8080   48.1380 C   0  0  0  0  0  0  0  0  0  0  0  0
   45.8320   31.4370   49.2180 O   0  0  0  0  0  0  0  0  0  0  0  0
   44.9660   28.7980   44.6890 N   0  0  0  0  0  0  0  0  0  0  0  0
   43.8750   29.0660   43.9660 C   0  0  0  0  0  0  0  0  0  0  0  0
   43.6640   28.4400   42.7580 C   0  0  0  0  0  0  0  0  0  0  0  0
   42.4690   28.7000   41.9130 C   0  0  0  0  0  0  0  0  0  0  0  0
   44.6220   27.5350   42.3400 C   0  0  0  0  0  0  0  0  0  0  0  0
   44.4830   26.9420   41.2580 O   0  0  0  0  0  0  0  0  0  0  0  0
   45.7320   27.2650   43.0770 N   0  0  0  0  0  0  0  0  0  0  0  0
   45.8910   27.9130   44.2680 C   0  0  0  0  0  0  0  0  0  0  0  0
   46.9320   27.6620   44.9650 O   0  0  0  0  0  0  0  0  0  0  0  0
   45.0170   34.9110   44.3280 C   0  0  0  0  0  0  0  0  0  0  0  0
   45.9940   34.7870   43.3500 C   0  0  0  0  0  0  0  0  0  0  0  0
   47.1020   34.0140   43.6130 C   0  0  0  0  0  0  0  0  0  0  0  0
   47.2410   33.3810   44.8100 N   0  0  0  0  0  0  0  0  0  0  0  0
   46.2670   33.5200   45.7500 C   0  0  0  0  0  0  0  0  0  0  0  0
   45.1670   34.2770   45.5120 N   0  0  0  0  0  0  0  0  0  0  0  0
   48.1450   33.8440   42.5820 C   0  0  1  0  0  0  0  0  0  0  0  0
   48.5800   35.0850   41.8190 C   0  0  0  0  0  0  0  0  0  0  0  0
   49.4990   34.3410   42.7760 C   0  0  2  0  0  0  0  0  0  0  0  0
   50.6700   33.6010   42.1760 C   0  0  0  0  0  0  0  0  0  0  0  0
   50.7830   32.3770   42.4380 O   0  0  0  0  0  0  0  0  0  0  0  0
   45.9857   33.3612   47.8338 H   0  0  0  0  0  0  0  0  0  0  0  0
   47.5596   32.7085   47.1820 H   0  0  0  0  0  0  0  0  0  0  0  0
   45.9157   31.1814   44.8817 H   0  0  0  0  0  0  0  0  0  0  0  0
   44.1199   27.0121   47.9224 H   0  0  0  0  0  0  0  0  0  0  0  0
   44.2312   27.0978   46.1440 H   0  0  0  0  0  0  0  0  0  0  0  0
   43.1388   29.7932   44.3391 H   0  0  0  0  0  0  0  0  0  0  0  0
   41.5982   28.8895   42.5578 H   0  0  0  0  0  0  0  0  0  0  0  0
   42.6532   29.5791   41.2780 H   0  0  0  0  0  0  0  0  0  0  0  0
   42.2713   27.8239   41.2780 H   0  0  0  0  0  0  0  0  0  0  0  0
   46.4348   26.5890   42.7454 H   0  0  0  0  0  0  0  0  0  0  0  0
   44.1230   35.5237   44.1399 H   0  0  0  0  0  0  0  0  0  0  0  0
   45.8847   35.2975   42.3818 H   0  0  0  0  0  0  0  0  0  0  0  0
   47.7472   32.8512   42.3248 H   0  0  0  0  0  0  0  0  0  0  0  0
   48.7515   35.0406   40.7334 H   0  0  0  0  0  0  0  0  0  0  0  0
   48.2164   36.1173   41.7085 H   0  0  0  0  0  0  0  0  0  0  0  0
   50.0836   34.6050   43.6696 H   0  0  0  0  0  0  0  0  0  0  0  0
   51.3988   34.1150   41.5321 H   0  0  0  0  0  0  0  0  0  0  0  0
  2  1  1  0
  2  8  1  0
  3  4  2  0
  3  2  1  0
  4  5  1  0
  5  7  2  0
  6  5  1  0
  8  7  1  0
  8  9  2  0
 10  4  1  0
 11 10  1  0
 12 11  2  0
 13 12  1  0
 14 12  1  0
 14 16  1  0
 15 14  2  0
 16 17  1  0
 17 10  1  0
 17 18  2  0
 19 24  2  0
 20 21  2  0
 20 19  1  0
 21 22  1  0
 22 23  2  0
 23  1  1  0
 24 23  1  0
 25 27  1  0
 25 21  1  0
 26 25  1  0
 26 27  1  0
 28 29  2  0
 28 27  1  0
  1 30  1  0
  1 31  1  0
  3 32  1  0
  6 33  1  0
  6 34  1  0
 11 35  1  0
 13 36  1  0
 13 37  1  0
 13 38  1  0
 16 39  1  0
 19 40  1  0
 20 41  1  0
 25 42  1  6
 26 43  1  0
 26 44  1  0
 27 45  1  1
 28 46  1  0
M  ISO  8  30   8  31   8  32  14  35  14  36   8  37   8  38   8  39   9
M  ISO  7  40  14  41  14  42  13  43  13  44  13  45  13  46   6
M  END
>  <minimizedAffinity>  (1) 
-5.22342348

>  <minimizedRMSD>  (1) 
1.02074575

$$$$
