
     RDKit          3D

 37 41  0  0  0  0  0  0  0  0999 V2000
   44.4460   36.1070   44.9060 C   0  0  0  0  0  0  0  0  0  0  0  0
   45.0640   36.0460   43.6610 C   0  0  0  0  0  0  0  0  0  0  0  0
   45.8890   35.0090   43.2850 C   0  0  0  0  0  0  0  0  0  0  0  0
   46.0270   34.0600   44.2600 N   0  0  0  0  0  0  0  0  0  0  0  0
   45.4490   34.0920   45.4550 C   0  0  0  0  0  0  0  0  0  0  0  0
   44.6660   35.1110   45.7650 N   0  0  0  0  0  0  0  0  0  0  0  0
   45.6890   33.0230   46.3690 N   0  0  0  0  0  0  0  0  0  0  0  0
   45.1500   32.8890   47.5980 C   0  0  0  0  0  0  0  0  0  0  0  0
   45.5970   31.7610   48.1840 N   0  0  0  0  0  0  0  0  0  0  0  0
   46.4400   31.1610   47.3150 C   0  0  0  0  0  0  0  0  0  0  0  0
   47.1910   30.0000   47.3550 C   0  0  0  0  0  0  0  0  0  0  0  0
   47.9570   29.6720   46.2800 N   0  0  0  0  0  0  0  0  0  0  0  0
   48.0080   30.4480   45.1760 C   0  0  0  0  0  0  0  0  0  0  0  0
   47.2820   31.5870   45.1190 N   0  0  0  0  0  0  0  0  0  0  0  0
   46.4990   31.9580   46.1670 C   0  0  0  0  0  0  0  0  0  0  0  0
   46.6030   34.7790   42.0560 C   0  0  0  0  0  0  0  0  0  0  0  0
   47.8920   35.2750   41.9570 C   0  0  0  0  0  0  0  0  0  0  0  0
   48.6990   35.1300   40.8580 C   0  0  0  0  0  0  0  0  0  0  0  0
   48.2090   34.4430   39.7590 C   0  0  0  0  0  0  0  0  0  0  0  0
   46.9320   33.9240   39.7950 C   0  0  0  0  0  0  0  0  0  0  0  0
   46.4360   33.2430   38.7020 C   0  0  0  0  0  0  0  0  0  0  0  0
   45.1610   32.7120   38.6890 C   0  0  0  0  0  0  0  0  0  0  0  0
   44.4240   32.9100   39.8440 C   0  0  0  0  0  0  0  0  0  0  0  0
   44.9390   33.5850   40.9050 C   0  0  0  0  0  0  0  0  0  0  0  0
   46.2040   34.1160   40.9260 C   0  0  0  0  0  0  0  0  0  0  0  0
   43.7949   36.9522   45.1740 H   0  0  0  0  0  0  0  0  0  0  0  0
   44.8859   36.8620   42.9452 H   0  0  0  0  0  0  0  0  0  0  0  0
   44.4461   33.5991   48.0565 H   0  0  0  0  0  0  0  0  0  0  0  0
   47.1690   29.3515   48.2432 H   0  0  0  0  0  0  0  0  0  0  0  0
   48.6392   30.1538   44.3245 H   0  0  0  0  0  0  0  0  0  0  0  0
   48.2968   35.8236   42.8202 H   0  0  0  0  0  0  0  0  0  0  0  0
   49.7153   35.5508   40.8490 H   0  0  0  0  0  0  0  0  0  0  0  0
   48.8346   34.3125   38.8637 H   0  0  0  0  0  0  0  0  0  0  0  0
   47.0748   33.1194   37.8151 H   0  0  0  0  0  0  0  0  0  0  0  0
   44.7590   32.1692   37.8208 H   0  0  0  0  0  0  0  0  0  0  0  0
   43.4001   32.5126   39.9042 H   0  0  0  0  0  0  0  0  0  0  0  0
   44.3069   33.7127   41.7961 H   0  0  0  0  0  0  0  0  0  0  0  0
  1  6  2  0
  2  1  1  0
  3  2  2  0
  3  4  1  0
  4  5  2  0
  5  6  1  0
  5  7  1  0
  7  8  1  0
  8  9  2  0
 10 11  2  0
 10  9  1  0
 12 11  1  0
 13 12  2  0
 14 13  1  0
 14 15  2  0
 15  7  1  0
 15 10  1  0
 16  3  1  0
 17 16  2  0
 18 17  1  0
 19 20  1  0
 19 18  2  0
 20 25  2  0
 21 20  1  0
 22 21  2  0
 22 23  1  0
 23 24  2  0
 24 25  1  0
 25 16  1  0
  1 26  1  0
  2 27  1  0
  8 28  1  0
 11 29  1  0
 13 30  1  0
 17 31  1  0
 18 32  1  0
 19 33  1  0
 21 34  1  0
 22 35  1  0
 23 36  1  0
 24 37  1  0
M  ISO  8  26  14  27  14  28  14  29  14  30  14  31  14  32  14  33  14
M  ISO  4  34  14  35  14  36  14  37  14
M  END
>  <minimizedAffinity>  (1) 
-7.52607679

>  <minimizedRMSD>  (1) 
0.243325993

$$$$
