
     RDKit          3D

 42 45  0  0  1  0  0  0  0  0999 V2000
   46.4360   33.0360   46.6400 C   0  0  0  0  0  0  0  0  0  0  0  0
   45.9120   31.7070   46.6850 N   0  0  0  0  0  0  0  0  0  0  0  0
   45.8470   30.8750   45.5900 C   0  0  0  0  0  0  0  0  0  0  0  0
   45.3250   29.5900   45.7100 C   0  0  0  0  0  0  0  0  0  0  0  0
   44.8570   29.1100   46.9290 C   0  0  0  0  0  0  0  0  0  0  0  0
   44.3570   27.7700   46.8930 N   0  0  0  0  0  0  0  0  0  0  0  0
   44.9150   29.9230   48.0240 N   0  0  0  0  0  0  0  0  0  0  0  0
   45.4390   31.1570   47.8070 C   0  0  0  0  0  0  0  0  0  0  0  0
   45.4800   31.8890   48.8350 O   0  0  0  0  0  0  0  0  0  0  0  0
   45.2880   28.7800   44.5350 N   0  0  0  0  0  0  0  0  0  0  0  0
   44.2080   28.4090   43.8930 N   0  0  0  0  0  0  0  0  0  0  0  0
   44.5030   27.6460   42.8180 C   0  0  0  0  0  0  0  0  0  0  0  0
   45.8800   27.5210   42.7730 C   0  0  0  0  0  0  0  0  0  0  0  0
   46.3050   28.2510   43.8710 C   0  0  0  0  0  0  0  0  0  0  0  0
   45.0120   34.9060   43.7510 C   0  0  0  0  0  0  0  0  0  0  0  0
   46.0700   34.8440   42.8510 C   0  0  0  0  0  0  0  0  0  0  0  0
   47.2200   34.1910   43.2290 C   0  0  0  0  0  0  0  0  0  0  0  0
   47.3210   33.6150   44.4640 N   0  0  0  0  0  0  0  0  0  0  0  0
   46.2650   33.6940   45.3190 C   0  0  0  0  0  0  0  0  0  0  0  0
   45.1330   34.3320   44.9590 N   0  0  0  0  0  0  0  0  0  0  0  0
   48.3520   34.0820   42.2930 C   0  0  1  0  0  0  0  0  0  0  0  0
   49.0280   35.3740   41.8600 C   0  0  0  0  0  0  0  0  0  0  0  0
   49.7250   34.3200   42.7110 C   0  0  2  0  0  0  0  0  0  0  0  0
   50.8560   33.5490   42.0740 C   0  0  0  0  0  0  0  0  0  0  0  0
   50.5620   32.6910   41.2050 O   0  0  0  0  0  0  0  0  0  0  0  0
   45.9191   33.6404   47.4000 H   0  0  0  0  0  0  0  0  0  0  0  0
   47.5172   32.9650   46.8295 H   0  0  0  0  0  0  0  0  0  0  0  0
   46.2100   31.2280   44.6135 H   0  0  0  0  0  0  0  0  0  0  0  0
   43.9903   27.3339   47.7511 H   0  0  0  0  0  0  0  0  0  0  0  0
   44.3637   27.2414   46.0090 H   0  0  0  0  0  0  0  0  0  0  0  0
   43.7836   27.2067   42.1113 H   0  0  0  0  0  0  0  0  0  0  0  0
   46.4912   26.9731   42.0407 H   0  0  0  0  0  0  0  0  0  0  0  0
   47.3597   28.3763   44.1570 H   0  0  0  0  0  0  0  0  0  0  0  0
   44.0808   35.4225   43.4750 H   0  0  0  0  0  0  0  0  0  0  0  0
   45.9890   35.3078   41.8568 H   0  0  0  0  0  0  0  0  0  0  0  0
   47.8667   33.2307   41.7932 H   0  0  0  0  0  0  0  0  0  0  0  0
   49.3202   35.5262   40.8105 H   0  0  0  0  0  0  0  0  0  0  0  0
   48.8143   36.4497   41.9450 H   0  0  0  0  0  0  0  0  0  0  0  0
   50.2281   34.3064   43.6891 H   0  0  0  0  0  0  0  0  0  0  0  0
   51.5259   34.2810   41.5992 H   0  0  0  0  0  0  0  0  0  0  0  0
   51.2960   32.9693   42.8988 H   0  0  0  0  0  0  0  0  0  0  0  0
   50.2754   31.8547   41.6507 H   0  0  0  0  0  0  0  0  0  0  0  0
  1  2  1  0
  2  8  1  0
  3  4  2  0
  3  2  1  0
  4  5  1  0
  5  7  2  0
  6  5  1  0
  8  7  1  0
  8  9  2  0
 10  4  1  0
 11 10  1  0
 12 11  2  0
 13 12  1  0
 13 14  2  0
 14 10  1  0
 15 20  2  0
 16 17  2  0
 16 15  1  0
 17 18  1  0
 18 19  2  0
 19  1  1  0
 20 19  1  0
 21 23  1  0
 21 17  1  0
 22 21  1  0
 22 23  1  0
 24 23  1  0
 25 24  1  0
  1 26  1  0
  1 27  1  0
  3 28  1  0
  6 29  1  0
  6 30  1  0
 12 31  1  0
 13 32  1  0
 14 33  1  0
 15 34  1  0
 16 35  1  0
 21 36  1  6
 22 37  1  0
 22 38  1  0
 23 39  1  1
 24 40  1  0
 24 41  1  0
 25 42  1  0
M  ISO  8  26   8  27   8  28  14  31  14  32  14  33  14  34  14  35  14
M  ISO  7  36  13  37  13  38  13  39  13  40   8  41   8  42   3
M  END
>  <minimizedAffinity>  (1) 
-5.16097736

>  <minimizedRMSD>  (1) 
0.189752534

$$$$
