
     RDKit          3D

 39 42  0  0  1  0  0  0  0  0999 V2000
   46.4030   32.8670   46.9940 C   0  0  0  0  0  0  0  0  0  0  0  0
   45.9000   31.5280   46.9910 N   0  0  0  0  0  0  0  0  0  0  0  0
   45.8080   30.7650   45.8780 C   0  0  0  0  0  0  0  0  0  0  0  0
   45.3090   29.4570   45.9440 C   0  0  0  0  0  0  0  0  0  0  0  0
   44.8960   28.9060   47.1450 C   0  0  0  0  0  0  0  0  0  0  0  0
   44.4340   27.5700   47.0750 N   0  0  0  0  0  0  0  0  0  0  0  0
   44.9820   29.6620   48.2750 N   0  0  0  0  0  0  0  0  0  0  0  0
   45.4790   30.9190   48.1060 C   0  0  0  0  0  0  0  0  0  0  0  0
   45.5480   31.5970   49.1680 O   0  0  0  0  0  0  0  0  0  0  0  0
   45.3030   28.8430   44.6390 N   0  0  0  0  0  0  0  0  0  0  0  0
   44.7320   29.3440   43.5570 C   0  0  0  0  0  0  0  0  0  0  0  0
   44.9070   28.5290   42.4980 N   0  0  0  0  0  0  0  0  0  0  0  0
   45.6170   27.4790   42.9460 C   0  0  0  0  0  0  0  0  0  0  0  0
   45.8340   27.7000   44.2250 N   0  0  0  0  0  0  0  0  0  0  0  0
   44.9860   34.9470   44.2550 C   0  0  0  0  0  0  0  0  0  0  0  0
   45.9770   34.8150   43.2910 C   0  0  0  0  0  0  0  0  0  0  0  0
   47.0860   34.0440   43.5810 C   0  0  0  0  0  0  0  0  0  0  0  0
   47.2050   33.4290   44.7820 N   0  0  0  0  0  0  0  0  0  0  0  0
   46.2210   33.5740   45.7090 C   0  0  0  0  0  0  0  0  0  0  0  0
   45.1320   34.3210   45.4460 N   0  0  0  0  0  0  0  0  0  0  0  0
   48.1350   33.8690   42.5610 C   0  0  1  0  0  0  0  0  0  0  0  0
   48.6070   35.1120   41.8220 C   0  0  0  0  0  0  0  0  0  0  0  0
   49.4940   34.3300   42.7810 C   0  0  2  0  0  0  0  0  0  0  0  0
   50.6660   33.5870   42.1900 C   0  0  0  0  0  0  0  0  0  0  0  0
   50.7430   32.3540   42.4310 O   0  0  0  0  0  0  0  0  0  0  0  0
   45.8793   33.4327   47.7786 H   0  0  0  0  0  0  0  0  0  0  0  0
   47.4862   32.8026   47.1743 H   0  0  0  0  0  0  0  0  0  0  0  0
   46.1287   31.1760   44.9094 H   0  0  0  0  0  0  0  0  0  0  0  0
   44.1099   27.0918   47.9277 H   0  0  0  0  0  0  0  0  0  0  0  0
   44.4219   27.0759   46.1713 H   0  0  0  0  0  0  0  0  0  0  0  0
   44.1867   30.2988   43.5253 H   0  0  0  0  0  0  0  0  0  0  0  0
   45.9499   26.6092   42.3606 H   0  0  0  0  0  0  0  0  0  0  0  0
   44.0914   35.5542   44.0526 H   0  0  0  0  0  0  0  0  0  0  0  0
   45.8808   35.3146   42.3157 H   0  0  0  0  0  0  0  0  0  0  0  0
   47.7177   32.8903   42.2815 H   0  0  0  0  0  0  0  0  0  0  0  0
   48.7927   35.0803   40.7382 H   0  0  0  0  0  0  0  0  0  0  0  0
   48.2690   36.1540   41.7220 H   0  0  0  0  0  0  0  0  0  0  0  0
   50.0688   34.5598   43.6903 H   0  0  0  0  0  0  0  0  0  0  0  0
   51.4203   34.1001   41.5754 H   0  0  0  0  0  0  0  0  0  0  0  0
  2  1  1  0
  2  8  1  0
  3  4  2  0
  3  2  1  0
  4  5  1  0
  5  7  2  0
  6  5  1  0
  8  7  1  0
  8  9  2  0
 10  4  1  0
 11 10  1  0
 12 13  1  0
 12 11  2  0
 13 14  2  0
 14 10  1  0
 15 20  2  0
 16 17  2  0
 16 15  1  0
 17 18  1  0
 18 19  2  0
 19  1  1  0
 20 19  1  0
 21 23  1  0
 21 17  1  0
 22 21  1  0
 22 23  1  0
 24 25  2  0
 24 23  1  0
  1 26  1  0
  1 27  1  0
  3 28  1  0
  6 29  1  0
  6 30  1  0
 11 31  1  0
 13 32  1  0
 15 33  1  0
 16 34  1  0
 21 35  1  6
 22 36  1  0
 22 37  1  0
 23 38  1  1
 24 39  1  0
M  ISO  8  26   8  27   8  28  14  31  14  32  14  33  14  34  14  35  13
M  ISO  4  36  13  37  13  38  13  39   6
M  END
>  <minimizedAffinity>  (1) 
-5.09280157

>  <minimizedRMSD>  (1) 
0.519843102

$$$$
