
     RDKit          3D

 33 35  0  0  0  0  0  0  0  0999 V2000
   46.8100   34.8500   41.8670 C   0  0  0  0  0  0  0  0  0  0  0  0
   48.0520   35.4580   41.8340 C   0  0  0  0  0  0  0  0  0  0  0  0
   48.9050   35.3980   40.7550 C   0  0  0  0  0  0  0  0  0  0  0  0
   48.5140   34.7000   39.6340 C   0  0  0  0  0  0  0  0  0  0  0  0
   47.2930   34.0770   39.6090 C   0  0  0  0  0  0  0  0  0  0  0  0
   46.8930   33.3810   38.4870 C   0  0  0  0  0  0  0  0  0  0  0  0
   45.6670   32.7470   38.4210 C   0  0  0  0  0  0  0  0  0  0  0  0
   44.8690   32.8550   39.5480 C   0  0  0  0  0  0  0  0  0  0  0  0
   45.2940   33.5490   40.6380 C   0  0  0  0  0  0  0  0  0  0  0  0
   46.5030   34.1800   40.7170 C   0  0  0  0  0  0  0  0  0  0  0  0
   44.5320   36.0030   44.7060 C   0  0  0  0  0  0  0  0  0  0  0  0
   45.2140   36.0380   43.5000 C   0  0  0  0  0  0  0  0  0  0  0  0
   46.0360   34.9980   43.0700 C   0  0  0  0  0  0  0  0  0  0  0  0
   46.0860   33.9660   43.9630 N   0  0  0  0  0  0  0  0  0  0  0  0
   45.4370   33.9150   45.1280 C   0  0  0  0  0  0  0  0  0  0  0  0
   44.6720   34.9310   45.4810 N   0  0  0  0  0  0  0  0  0  0  0  0
   45.6410   32.7350   45.9140 N   0  0  0  0  0  0  0  0  0  0  0  0
   45.5540   32.8430   47.3260 C   0  0  0  0  0  0  0  0  0  0  0  0
   44.6510   33.5650   47.8830 N   0  0  0  0  0  0  0  0  0  0  0  0
   46.4820   32.1340   48.1780 N   0  0  0  0  0  0  0  0  0  0  0  0
   43.9590   34.0900   47.3220 H   0  0  0  0  0  0  0  0  0  0  0  0
   48.3768   36.0219   42.7209 H   0  0  0  0  0  0  0  0  0  0  0  0
   49.8834   35.8997   40.7877 H   0  0  0  0  0  0  0  0  0  0  0  0
   49.1800   34.6425   38.7604 H   0  0  0  0  0  0  0  0  0  0  0  0
   47.5689   33.3293   37.6207 H   0  0  0  0  0  0  0  0  0  0  0  0
   45.3446   32.1908   37.5284 H   0  0  0  0  0  0  0  0  0  0  0  0
   43.8799   32.3739   39.5617 H   0  0  0  0  0  0  0  0  0  0  0  0
   44.6237   33.6055   41.5083 H   0  0  0  0  0  0  0  0  0  0  0  0
   43.8904   36.8415   45.0148 H   0  0  0  0  0  0  0  0  0  0  0  0
   45.1019   36.9227   42.8560 H   0  0  0  0  0  0  0  0  0  0  0  0
   45.8457   31.8307   45.4653 H   0  0  0  0  0  0  0  0  0  0  0  0
   46.4096   32.2196   49.2019 H   0  0  0  0  0  0  0  0  0  0  0  0
   47.2156   31.5432   47.7612 H   0  0  0  0  0  0  0  0  0  0  0  0
  1 13  1  0
  2  1  2  0
  3  2  1  0
  4  3  2  0
  5  4  1  0
  5 10  2  0
  6  5  1  0
  7  6  2  0
  7  8  1  0
  8  9  2  0
  9 10  1  0
 10  1  1  0
 11 16  2  0
 12 11  1  0
 13 12  2  0
 13 14  1  0
 14 15  2  0
 15 16  1  0
 15 17  1  0
 17 18  1  0
 18 19  2  0
 18 20  1  0
 21 19  1  0
  2 22  1  0
  3 23  1  0
  4 24  1  0
  6 25  1  0
  7 26  1  0
  8 27  1  0
  9 28  1  0
 11 29  1  0
 12 30  1  0
 17 31  1  0
 20 32  1  0
 20 33  1  0
M  ISO  8  22  14  23  14  24  14  25  14  26  14  27  14  28  14  29  14
M  ISO  1  30  14
M  END
>  <minimizedAffinity>  (1) 
-7.36721849

>  <minimizedRMSD>  (1) 
0.339989603

$$$$
