
     RDKit          3D

 36 38  0  0  1  0  0  0  0  0999 V2000
   44.9860   34.9400   44.2570 C   0  0  0  0  0  0  0  0  0  0  0  0
   45.9790   34.8130   43.2930 C   0  0  0  0  0  0  0  0  0  0  0  0
   47.0880   34.0510   43.5820 C   0  0  0  0  0  0  0  0  0  0  0  0
   47.2180   33.4300   44.7910 N   0  0  0  0  0  0  0  0  0  0  0  0
   46.2250   33.5750   45.7150 C   0  0  0  0  0  0  0  0  0  0  0  0
   45.1330   34.3170   45.4490 N   0  0  0  0  0  0  0  0  0  0  0  0
   48.1430   33.8730   42.5680 C   0  0  1  0  0  0  0  0  0  0  0  0
   48.6010   35.1110   41.8130 C   0  0  0  0  0  0  0  0  0  0  0  0
   49.4980   34.3440   42.7760 C   0  0  2  0  0  0  0  0  0  0  0  0
   50.6740   33.6000   42.2020 C   0  0  0  0  0  0  0  0  0  0  0  0
   50.7420   32.3670   42.4350 O   0  0  0  0  0  0  0  0  0  0  0  0
   46.4120   32.8700   47.0000 C   0  0  0  0  0  0  0  0  0  0  0  0
   45.9040   31.5280   46.9920 N   0  0  0  0  0  0  0  0  0  0  0  0
   45.8060   30.7480   45.8620 C   0  0  0  0  0  0  0  0  0  0  0  0
   45.3070   29.4580   45.9390 C   0  0  0  0  0  0  0  0  0  0  0  0
   44.8920   28.9200   47.1670 C   0  0  0  0  0  0  0  0  0  0  0  0
   44.4160   27.5640   47.0570 N   0  0  0  0  0  0  0  0  0  0  0  0
   44.9810   29.6820   48.2960 N   0  0  0  0  0  0  0  0  0  0  0  0
   45.4810   30.9180   48.1020 C   0  0  0  0  0  0  0  0  0  0  0  0
   45.5510   31.5980   49.1670 O   0  0  0  0  0  0  0  0  0  0  0  0
   45.2400   28.7010   44.6820 C   0  0  0  0  0  0  0  0  0  0  0  0
   46.1850   28.0400   44.2270 O   0  0  0  0  0  0  0  0  0  0  0  0
   44.1330   28.6430   43.8810 O   0  0  0  0  0  0  0  0  0  0  0  0
   44.0882   35.5419   44.0526 H   0  0  0  0  0  0  0  0  0  0  0  0
   45.8804   35.3120   42.3177 H   0  0  0  0  0  0  0  0  0  0  0  0
   47.7352   32.8857   42.3055 H   0  0  0  0  0  0  0  0  0  0  0  0
   48.7810   35.0691   40.7286 H   0  0  0  0  0  0  0  0  0  0  0  0
   48.2553   36.1495   41.7035 H   0  0  0  0  0  0  0  0  0  0  0  0
   50.0770   34.5902   43.6783 H   0  0  0  0  0  0  0  0  0  0  0  0
   51.4412   34.1137   41.6041 H   0  0  0  0  0  0  0  0  0  0  0  0
   47.4882   32.8343   47.2249 H   0  0  0  0  0  0  0  0  0  0  0  0
   45.8468   33.4271   47.7617 H   0  0  0  0  0  0  0  0  0  0  0  0
   46.1264   31.1522   44.8904 H   0  0  0  0  0  0  0  0  0  0  0  0
   44.0846   27.0650   47.8949 H   0  0  0  0  0  0  0  0  0  0  0  0
   44.4072   27.0940   46.1405 H   0  0  0  0  0  0  0  0  0  0  0  0
   44.1542   28.1133   43.0449 H   0  0  0  0  0  0  0  0  0  0  0  0
  1  6  2  0
  2  3  2  0
  2  1  1  0
  3  4  1  0
  4  5  2  0
  5 12  1  0
  6  5  1  0
  7  9  1  0
  7  3  1  0
  8  7  1  0
  8  9  1  0
 10 11  2  0
 10  9  1  0
 13 12  1  0
 13 19  1  0
 14 15  2  0
 14 13  1  0
 15 16  1  0
 16 18  2  0
 17 16  1  0
 19 18  1  0
 19 20  2  0
 21 15  1  0
 22 21  2  0
 23 21  1  0
  1 24  1  0
  2 25  1  0
  7 26  1  6
  8 27  1  0
  8 28  1  0
  9 29  1  1
 10 30  1  0
 12 31  1  0
 12 32  1  0
 14 33  1  0
 17 34  1  0
 17 35  1  0
 23 36  1  0
M  ISO  8  24  14  25  14  26  13  27  13  28  13  29  13  30   6  31   8
M  ISO  3  32   8  33  14  36   3
M  END
>  <minimizedAffinity>  (1) 
-5.06072378

>  <minimizedRMSD>  (1) 
0.505061805

$$$$
