
     RDKit          3D

 39 42  0  0  1  0  0  0  0  0999 V2000
   46.4660   32.9780   46.8140 C   0  0  0  0  0  0  0  0  0  0  0  0
   45.9310   31.6540   46.8340 N   0  0  0  0  0  0  0  0  0  0  0  0
   45.7950   30.8700   45.7220 C   0  0  0  0  0  0  0  0  0  0  0  0
   45.2680   29.5840   45.8180 C   0  0  0  0  0  0  0  0  0  0  0  0
   44.8670   29.0660   47.0490 C   0  0  0  0  0  0  0  0  0  0  0  0
   44.3710   27.7150   46.9680 N   0  0  0  0  0  0  0  0  0  0  0  0
   44.9940   29.8370   48.1770 N   0  0  0  0  0  0  0  0  0  0  0  0
   45.5150   31.0580   47.9580 C   0  0  0  0  0  0  0  0  0  0  0  0
   45.6220   31.7500   49.0140 O   0  0  0  0  0  0  0  0  0  0  0  0
   45.1420   28.7890   44.5860 C   0  0  0  0  0  0  0  0  0  0  0  0
   44.2060   29.0970   43.5870 C   0  0  0  0  0  0  0  0  0  0  0  0
   44.4950   27.7630   42.2870 S   0  0  0  0  0  0  0  0  0  0  0  0
   45.8580   27.0370   43.3810 C   0  0  0  0  0  0  0  0  0  0  0  0
   45.8530   27.7340   44.2790 N   0  0  0  0  0  0  0  0  0  0  0  0
   44.9740   35.0230   44.0830 C   0  0  0  0  0  0  0  0  0  0  0  0
   45.9540   34.9090   43.1010 C   0  0  0  0  0  0  0  0  0  0  0  0
   47.0780   34.1590   43.3850 C   0  0  0  0  0  0  0  0  0  0  0  0
   47.2310   33.5460   44.5900 N   0  0  0  0  0  0  0  0  0  0  0  0
   46.2440   33.6840   45.5230 C   0  0  0  0  0  0  0  0  0  0  0  0
   45.1350   34.4120   45.2720 N   0  0  0  0  0  0  0  0  0  0  0  0
   48.1170   33.9920   42.3510 C   0  0  1  0  0  0  0  0  0  0  0  0
   48.9520   35.2160   41.9980 C   0  0  0  0  0  0  0  0  0  0  0  0
   49.5310   33.9870   42.6840 C   0  0  2  0  0  0  0  0  0  0  0  0
   50.5040   33.1440   41.8940 C   0  0  0  0  0  0  0  0  0  0  0  0
   50.0340   32.4580   40.9490 O   0  0  0  0  0  0  0  0  0  0  0  0
   45.9885   33.5595   47.6164 H   0  0  0  0  0  0  0  0  0  0  0  0
   47.5535   32.8917   46.9549 H   0  0  0  0  0  0  0  0  0  0  0  0
   46.1051   31.2590   44.7409 H   0  0  0  0  0  0  0  0  0  0  0  0
   44.0472   27.2334   47.8189 H   0  0  0  0  0  0  0  0  0  0  0  0
   44.3404   27.2313   46.0592 H   0  0  0  0  0  0  0  0  0  0  0  0
   43.4772   29.9207   43.5672 H   0  0  0  0  0  0  0  0  0  0  0  0
   46.4954   26.1601   43.1946 H   0  0  0  0  0  0  0  0  0  0  0  0
   44.0666   35.6132   43.8873 H   0  0  0  0  0  0  0  0  0  0  0  0
   45.8362   35.4030   42.1253 H   0  0  0  0  0  0  0  0  0  0  0  0
   47.4797   33.2798   41.8064 H   0  0  0  0  0  0  0  0  0  0  0  0
   49.2001   35.4390   40.9498 H   0  0  0  0  0  0  0  0  0  0  0  0
   48.9077   36.2954   42.2052 H   0  0  0  0  0  0  0  0  0  0  0  0
   50.0809   33.7910   43.6163 H   0  0  0  0  0  0  0  0  0  0  0  0
   51.5774   33.1301   42.1342 H   0  0  0  0  0  0  0  0  0  0  0  0
  1  2  1  0
  2  8  1  0
  3  4  2  0
  3  2  1  0
  4  5  1  0
  5  7  2  0
  6  5  1  0
  8  7  1  0
  8  9  2  0
 10  4  1  0
 11 10  2  0
 12 13  1  0
 12 11  1  0
 13 14  2  0
 14 10  1  0
 15 20  2  0
 16 17  2  0
 16 15  1  0
 17 18  1  0
 18 19  2  0
 19  1  1  0
 20 19  1  0
 21 23  1  0
 21 17  1  0
 22 21  1  0
 22 23  1  0
 24 23  1  0
 25 24  2  0
  1 26  1  0
  1 27  1  0
  3 28  1  0
  6 29  1  0
  6 30  1  0
 11 31  1  0
 13 32  1  0
 15 33  1  0
 16 34  1  0
 21 35  1  6
 22 36  1  0
 22 37  1  0
 23 38  1  1
 24 39  1  0
M  ISO  8  26   8  27   8  28  14  31  14  32  14  33  14  34  14  35  13
M  ISO  4  36  13  37  13  38  13  39   6
M  END
>  <minimizedAffinity>  (1) 
-5.04756784

>  <minimizedRMSD>  (1) 
0.593824029

$$$$
