
     RDKit          3D

 36 38  0  0  1  0  0  0  0  0999 V2000
   45.0050   34.7490   43.7930 C   0  0  0  0  0  0  0  0  0  0  0  0
   46.0490   34.6580   42.8800 C   0  0  0  0  0  0  0  0  0  0  0  0
   47.2130   34.0380   43.2660 C   0  0  0  0  0  0  0  0  0  0  0  0
   47.3400   33.5200   44.5250 N   0  0  0  0  0  0  0  0  0  0  0  0
   46.2980   33.6250   45.3950 C   0  0  0  0  0  0  0  0  0  0  0  0
   45.1410   34.2370   45.0260 N   0  0  0  0  0  0  0  0  0  0  0  0
   48.3310   33.8950   42.3190 C   0  0  1  0  0  0  0  0  0  0  0  0
   49.0910   35.1600   41.9440 C   0  0  0  0  0  0  0  0  0  0  0  0
   49.7180   34.0220   42.7360 C   0  0  2  0  0  0  0  0  0  0  0  0
   50.7910   33.2100   42.0480 C   0  0  0  0  0  0  0  0  0  0  0  0
   50.4280   32.3850   41.1710 O   0  0  0  0  0  0  0  0  0  0  0  0
   46.4950   33.0310   46.7420 C   0  0  0  0  0  0  0  0  0  0  0  0
   45.9790   31.6980   46.8530 N   0  0  0  0  0  0  0  0  0  0  0  0
   45.8810   30.8340   45.8110 C   0  0  0  0  0  0  0  0  0  0  0  0
   45.3680   29.5450   45.9880 C   0  0  0  0  0  0  0  0  0  0  0  0
   44.9420   29.1130   47.2420 C   0  0  0  0  0  0  0  0  0  0  0  0
   44.4450   27.7720   47.2730 N   0  0  0  0  0  0  0  0  0  0  0  0
   45.0330   29.9740   48.3090 N   0  0  0  0  0  0  0  0  0  0  0  0
   45.5450   31.1930   48.0120 C   0  0  0  0  0  0  0  0  0  0  0  0
   45.6210   31.9700   49.0120 O   0  0  0  0  0  0  0  0  0  0  0  0
   45.2840   28.6380   44.7990 C   0  0  0  0  0  0  0  0  0  0  0  0
   43.9540   28.2750   44.6370 F   0  0  0  0  0  0  0  0  0  0  0  0
   45.9750   27.4780   45.0670 F   0  0  0  0  0  0  0  0  0  0  0  0
   45.8330   29.2040   43.6830 F   0  0  0  0  0  0  0  0  0  0  0  0
   44.0650   35.2419   43.5042 H   0  0  0  0  0  0  0  0  0  0  0  0
   45.9454   35.0746   41.8672 H   0  0  0  0  0  0  0  0  0  0  0  0
   47.7887   33.1012   41.7844 H   0  0  0  0  0  0  0  0  0  0  0  0
   49.3881   35.3439   40.9010 H   0  0  0  0  0  0  0  0  0  0  0  0
   48.9507   36.2421   42.0831 H   0  0  0  0  0  0  0  0  0  0  0  0
   50.2233   33.9271   43.7084 H   0  0  0  0  0  0  0  0  0  0  0  0
   51.8530   33.3363   42.3055 H   0  0  0  0  0  0  0  0  0  0  0  0
   47.5730   33.0077   46.9594 H   0  0  0  0  0  0  0  0  0  0  0  0
   45.9420   33.6560   47.4587 H   0  0  0  0  0  0  0  0  0  0  0  0
   46.2104   31.1527   44.8110 H   0  0  0  0  0  0  0  0  0  0  0  0
   44.1080   27.3680   48.1585 H   0  0  0  0  0  0  0  0  0  0  0  0
   44.4241   27.2104   46.4098 H   0  0  0  0  0  0  0  0  0  0  0  0
  1  6  2  0
  2  3  2  0
  2  1  1  0
  3  4  1  0
  4  5  2  0
  5 12  1  0
  6  5  1  0
  7  9  1  0
  7  3  1  0
  8  7  1  0
  8  9  1  0
 10  9  1  0
 11 10  2  0
 12 13  1  0
 13 19  1  0
 14 15  2  0
 14 13  1  0
 15 16  1  0
 16 17  1  0
 16 18  2  0
 19 18  1  0
 19 20  2  0
 21 23  1  0
 21 15  1  0
 22 21  1  0
 24 21  1  0
  1 25  1  0
  2 26  1  0
  7 27  1  6
  8 28  1  0
  8 29  1  0
  9 30  1  1
 10 31  1  0
 12 32  1  0
 12 33  1  0
 14 34  1  0
 17 35  1  0
 17 36  1  0
M  ISO  8  25  14  26  14  27  13  28  13  29  13  30  13  31   6  32   8
M  ISO  2  33   8  34  14
M  END
>  <minimizedAffinity>  (1) 
-5.01330137

>  <minimizedRMSD>  (1) 
0.495378911

$$$$
