
     RDKit          3D

 31 34  0  0  0  0  0  0  0  0999 V2000
   44.7400   33.4660   40.0960 N   0  0  0  0  0  0  0  0  0  0  0  0
   45.5980   32.8980   39.2050 C   0  0  0  0  0  0  0  0  0  0  0  0
   44.9300   32.9530   37.9610 C   0  0  0  0  0  0  0  0  0  0  0  0
   43.7690   33.5170   38.1500 N   0  0  0  0  0  0  0  0  0  0  0  0
   43.6090   33.8490   39.4790 C   0  0  0  0  0  0  0  0  0  0  0  0
   42.3480   34.4170   39.9260 C   0  0  0  0  0  0  0  0  0  0  0  0
   42.1740   35.4440   40.7530 N   0  0  0  0  0  0  0  0  0  0  0  0
   41.0790   36.0240   41.1890 C   0  0  0  0  0  0  0  0  0  0  0  0
   39.9140   35.5220   40.7430 N   0  0  0  0  0  0  0  0  0  0  0  0
   39.9170   34.4630   39.8840 C   0  0  0  0  0  0  0  0  0  0  0  0
   38.6890   34.0400   39.4820 C   0  0  0  0  0  0  0  0  0  0  0  0
   38.6090   32.9850   38.6020 C   0  0  0  0  0  0  0  0  0  0  0  0
   39.8020   32.3990   38.1610 C   0  0  0  0  0  0  0  0  0  0  0  0
   40.9720   32.9170   38.6370 C   0  0  0  0  0  0  0  0  0  0  0  0
   41.1310   33.9460   39.5030 C   0  0  0  0  0  0  0  0  0  0  0  0
   45.6290   34.9580   41.7640 C   0  0  0  0  0  0  0  0  0  0  0  0
   44.9970   33.6920   41.4730 C   0  0  0  0  0  0  0  0  0  0  0  0
   44.6580   32.7970   42.5180 C   0  0  0  0  0  0  0  0  0  0  0  0
   44.9630   33.2160   43.7820 N   0  0  0  0  0  0  0  0  0  0  0  0
   45.5600   34.4270   44.0210 C   0  0  0  0  0  0  0  0  0  0  0  0
   45.8940   35.3010   43.0080 N   0  0  0  0  0  0  0  0  0  0  0  0
   46.5968   32.4849   39.4094 H   0  0  0  0  0  0  0  0  0  0  0  0
   45.3207   32.5846   37.0010 H   0  0  0  0  0  0  0  0  0  0  0  0
   41.1133   36.8765   41.8833 H   0  0  0  0  0  0  0  0  0  0  0  0
   37.7774   34.5314   39.8529 H   0  0  0  0  0  0  0  0  0  0  0  0
   37.6343   32.6121   38.2544 H   0  0  0  0  0  0  0  0  0  0  0  0
   39.7966   31.5533   37.4576 H   0  0  0  0  0  0  0  0  0  0  0  0
   41.8954   32.4421   38.2740 H   0  0  0  0  0  0  0  0  0  0  0  0
   45.8906   35.6400   40.9415 H   0  0  0  0  0  0  0  0  0  0  0  0
   44.1793   31.8259   42.3236 H   0  0  0  0  0  0  0  0  0  0  0  0
   45.7809   34.7121   45.0602 H   0  0  0  0  0  0  0  0  0  0  0  0
  1 17  1  0
  2  1  1  0
  3  4  1  0
  3  2  2  0
  4  5  2  0
  5  6  1  0
  5  1  1  0
  6  7  2  0
  7  8  1  0
  9  8  2  0
 10  9  1  0
 11 10  2  0
 12 11  1  0
 13 12  2  0
 13 14  1  0
 14 15  2  0
 15 10  1  0
 15  6  1  0
 16 21  2  0
 17 16  1  0
 17 18  2  0
 18 19  1  0
 19 20  2  0
 21 20  1  0
  2 22  1  0
  3 23  1  0
  8 24  1  0
 11 25  1  0
 12 26  1  0
 13 27  1  0
 14 28  1  0
 16 29  1  0
 18 30  1  0
 20 31  1  0
M  ISO  8  22  14  23  14  24  14  25  14  26  14  27  14  28  14  29  14
M  ISO  2  30  14  31  14
M  END
>  <minimizedAffinity>  (1) 
-5.24324942

>  <minimizedRMSD>  (1) 
3.08411479

$$$$
