
     RDKit          3D

 41 44  0  0  0  0  0  0  0  0999 V2000
   46.7530   34.8370   42.1020 C   0  0  0  0  0  0  0  0  0  0  0  0
   47.9980   35.4440   42.0380 C   0  0  0  0  0  0  0  0  0  0  0  0
   48.8380   35.3840   40.9490 C   0  0  0  0  0  0  0  0  0  0  0  0
   48.4360   34.6860   39.8470 C   0  0  0  0  0  0  0  0  0  0  0  0
   47.2140   34.0570   39.8330 C   0  0  0  0  0  0  0  0  0  0  0  0
   46.7980   33.3510   38.7230 C   0  0  0  0  0  0  0  0  0  0  0  0
   45.5760   32.7090   38.6690 C   0  0  0  0  0  0  0  0  0  0  0  0
   44.7980   32.8240   39.8090 C   0  0  0  0  0  0  0  0  0  0  0  0
   45.2280   33.5200   40.8860 C   0  0  0  0  0  0  0  0  0  0  0  0
   46.4400   34.1620   40.9510 C   0  0  0  0  0  0  0  0  0  0  0  0
   44.4010   35.9090   44.9100 C   0  0  0  0  0  0  0  0  0  0  0  0
   45.0460   35.9210   43.6790 C   0  0  0  0  0  0  0  0  0  0  0  0
   45.9960   34.9820   43.3150 C   0  0  0  0  0  0  0  0  0  0  0  0
   46.2310   34.0510   44.2870 N   0  0  0  0  0  0  0  0  0  0  0  0
   45.6200   34.0240   45.4760 C   0  0  0  0  0  0  0  0  0  0  0  0
   44.7180   34.9410   45.7800 N   0  0  0  0  0  0  0  0  0  0  0  0
   45.9530   32.9980   46.4070 N   0  0  0  0  0  0  0  0  0  0  0  0
   45.3280   32.9120   47.7130 C   0  0  0  0  0  0  0  0  0  0  0  0
   45.3460   31.5050   48.2470 C   0  0  0  0  0  0  0  0  0  0  0  0
   45.1960   30.5200   47.1080 C   0  0  0  0  0  0  0  0  0  0  0  0
   46.3500   30.5920   46.1420 C   0  0  0  0  0  0  0  0  0  0  0  0
   46.9390   31.9920   46.0770 C   0  0  0  0  0  0  0  0  0  0  0  0
   48.3374   36.0119   42.9168 H   0  0  0  0  0  0  0  0  0  0  0  0
   49.8150   35.8892   40.9666 H   0  0  0  0  0  0  0  0  0  0  0  0
   49.0927   34.6267   38.9665 H   0  0  0  0  0  0  0  0  0  0  0  0
   47.4638   33.2974   37.8490 H   0  0  0  0  0  0  0  0  0  0  0  0
   45.2445   32.1466   37.7837 H   0  0  0  0  0  0  0  0  0  0  0  0
   43.8108   32.3397   39.8391 H   0  0  0  0  0  0  0  0  0  0  0  0
   44.5666   33.5751   41.7632 H   0  0  0  0  0  0  0  0  0  0  0  0
   43.6511   36.6730   45.1628 H   0  0  0  0  0  0  0  0  0  0  0  0
   44.7898   36.7135   42.9604 H   0  0  0  0  0  0  0  0  0  0  0  0
   45.8709   33.5655   48.4118 H   0  0  0  0  0  0  0  0  0  0  0  0
   44.2790   33.2273   47.6126 H   0  0  0  0  0  0  0  0  0  0  0  0
   46.3001   31.3230   48.7634 H   0  0  0  0  0  0  0  0  0  0  0  0
   44.5112   31.3742   48.9513 H   0  0  0  0  0  0  0  0  0  0  0  0
   45.1437   29.5027   47.5232 H   0  0  0  0  0  0  0  0  0  0  0  0
   44.2775   30.7741   46.5586 H   0  0  0  0  0  0  0  0  0  0  0  0
   47.1322   29.8904   46.4674 H   0  0  0  0  0  0  0  0  0  0  0  0
   45.9777   30.3286   45.1410 H   0  0  0  0  0  0  0  0  0  0  0  0
   47.7736   32.0621   46.7901 H   0  0  0  0  0  0  0  0  0  0  0  0
   47.2860   32.1730   45.0490 H   0  0  0  0  0  0  0  0  0  0  0  0
  1 13  1  0
  2  1  2  0
  3  2  1  0
  4  3  2  0
  5  4  1  0
  5 10  2  0
  6  5  1  0
  7  6  2  0
  7  8  1  0
  8  9  2  0
  9 10  1  0
 10  1  1  0
 11 16  2  0
 12 11  1  0
 13 12  2  0
 13 14  1  0
 14 15  2  0
 15 16  1  0
 15 17  1  0
 17 18  1  0
 18 19  1  0
 20 19  1  0
 21 20  1  0
 22 21  1  0
 22 17  1  0
  2 23  1  0
  3 24  1  0
  4 25  1  0
  6 26  1  0
  7 27  1  0
  8 28  1  0
  9 29  1  0
 11 30  1  0
 12 31  1  0
 18 32  1  0
 18 33  1  0
 19 34  1  0
 19 35  1  0
 20 36  1  0
 20 37  1  0
 21 38  1  0
 21 39  1  0
 22 40  1  0
 22 41  1  0
M  ISO  8  23  14  24  14  25  14  26  14  27  14  28  14  29  14  30  14
M  ISO  8  31  14  32  13  33  13  34  13  35  13  36  13  37  13  38  13
M  ISO  3  39  13  40  13  41  13
M  END
>  <minimizedAffinity>  (1) 
-7.33679342

>  <minimizedRMSD>  (1) 
0.157419786

$$$$
