
     RDKit          3D

 24 26  0  0  0  0  0  0  0  0999 V2000
   45.7040   34.3300   41.7130 N   0  0  0  0  0  0  0  0  0  0  0  0
   45.1190   34.2750   40.4850 C   0  0  0  0  0  0  0  0  0  0  0  0
   43.7610   34.6090   40.6980 C   0  0  0  0  0  0  0  0  0  0  0  0
   43.5980   34.8370   41.9840 N   0  0  0  0  0  0  0  0  0  0  0  0
   44.7970   34.6650   42.6400 C   0  0  0  0  0  0  0  0  0  0  0  0
   47.9000   35.2830   41.8730 C   0  0  0  0  0  0  0  0  0  0  0  0
   47.0740   34.1100   41.9850 C   0  0  0  0  0  0  0  0  0  0  0  0
   47.6500   32.8700   42.3590 C   0  0  0  0  0  0  0  0  0  0  0  0
   48.9940   32.8660   42.6010 N   0  0  0  0  0  0  0  0  0  0  0  0
   49.7480   34.0060   42.4870 C   0  0  0  0  0  0  0  0  0  0  0  0
   49.1990   35.2160   42.1220 N   0  0  0  0  0  0  0  0  0  0  0  0
   44.7900   34.7920   44.0920 C   0  0  0  0  0  0  0  0  0  0  0  0
   45.2810   33.8610   44.9880 C   0  0  0  0  0  0  0  0  0  0  0  0
   45.1380   34.2430   46.2930 C   0  0  0  0  0  0  0  0  0  0  0  0
   44.5450   35.4350   46.2070 N   0  0  0  0  0  0  0  0  0  0  0  0
   44.3630   35.7150   44.9560 N   0  0  0  0  0  0  0  0  0  0  0  0
   45.6008   34.0238   39.5286 H   0  0  0  0  0  0  0  0  0  0  0  0
   42.9798   34.6677   39.9258 H   0  0  0  0  0  0  0  0  0  0  0  0
   47.4492   36.2422   41.5785 H   0  0  0  0  0  0  0  0  0  0  0  0
   47.0444   31.9562   42.4498 H   0  0  0  0  0  0  0  0  0  0  0  0
   50.8271   33.9526   42.6939 H   0  0  0  0  0  0  0  0  0  0  0  0
   45.7402   32.9094   44.6822 H   0  0  0  0  0  0  0  0  0  0  0  0
   45.4402   33.6971   47.1989 H   0  0  0  0  0  0  0  0  0  0  0  0
   44.2770   36.0322   47.0022 H   0  0  0  0  0  0  0  0  0  0  0  0
  1  7  1  0
  1  5  1  0
  2  3  2  0
  2  1  1  0
  3  4  1  0
  4  5  2  0
  5 12  1  0
  6  7  2  0
  6 11  1  0
  7  8  1  0
  8  9  2  0
 10  9  1  0
 11 10  2  0
 12 16  2  0
 12 13  1  0
 13 14  2  0
 15 14  1  0
 16 15  1  0
  2 17  1  0
  3 18  1  0
  6 19  1  0
  8 20  1  0
 10 21  1  0
 13 22  1  0
 14 23  1  0
 15 24  1  0
M  ISO  8  17  14  18  14  19  14  20  14  21  14  22  14  23  14  24   9
M  END
>  <minimizedAffinity>  (1) 
-4.72336721

>  <minimizedRMSD>  (1) 
4.08423853

$$$$
