
     RDKit          3D

 25 27  0  0  0  0  0  0  0  0999 V2000
   45.1010   33.9420   41.2810 N   0  0  0  0  0  0  0  0  0  0  0  0
   46.2040   33.4440   40.6620 C   0  0  0  0  0  0  0  0  0  0  0  0
   45.8050   33.1790   39.3330 C   0  0  0  0  0  0  0  0  0  0  0  0
   44.5400   33.5090   39.2150 N   0  0  0  0  0  0  0  0  0  0  0  0
   44.0720   33.9870   40.4230 C   0  0  0  0  0  0  0  0  0  0  0  0
   44.7430   35.7970   42.7680 C   0  0  0  0  0  0  0  0  0  0  0  0
   45.0250   34.3950   42.6180 C   0  0  0  0  0  0  0  0  0  0  0  0
   45.1900   33.5740   43.7640 C   0  0  0  0  0  0  0  0  0  0  0  0
   45.0660   34.1830   44.9850 N   0  0  0  0  0  0  0  0  0  0  0  0
   44.7920   35.5240   45.0890 C   0  0  0  0  0  0  0  0  0  0  0  0
   44.6320   36.3210   43.9720 N   0  0  0  0  0  0  0  0  0  0  0  0
   42.6610   34.3160   40.4850 C   0  0  0  0  0  0  0  0  0  0  0  0
   41.7610   33.5490   41.1890 C   0  0  0  0  0  0  0  0  0  0  0  0
   40.4150   33.7760   41.2980 C   0  0  0  0  0  0  0  0  0  0  0  0
   39.8880   34.8340   40.6730 N   0  0  0  0  0  0  0  0  0  0  0  0
   40.7130   35.6180   39.9720 C   0  0  0  0  0  0  0  0  0  0  0  0
   41.9930   35.3150   39.9290 N   0  0  0  0  0  0  0  0  0  0  0  0
   47.1984   33.2815   41.1033 H   0  0  0  0  0  0  0  0  0  0  0  0
   46.4427   32.7681   38.5365 H   0  0  0  0  0  0  0  0  0  0  0  0
   44.6200   36.4318   41.8781 H   0  0  0  0  0  0  0  0  0  0  0  0
   45.4072   32.4993   43.6760 H   0  0  0  0  0  0  0  0  0  0  0  0
   44.6974   35.9757   46.0875 H   0  0  0  0  0  0  0  0  0  0  0  0
   42.1612   32.6694   41.7145 H   0  0  0  0  0  0  0  0  0  0  0  0
   39.7790   33.1004   41.8889 H   0  0  0  0  0  0  0  0  0  0  0  0
   40.3288   36.5010   39.4403 H   0  0  0  0  0  0  0  0  0  0  0  0
  1  7  1  0
  2  1  1  0
  3  2  2  0
  4  3  1  0
  4  5  2  0
  5 12  1  0
  5  1  1  0
  6 11  2  0
  7  6  1  0
  7  8  2  0
  8  9  1  0
  9 10  2  0
 11 10  1  0
 12 13  2  0
 13 14  1  0
 15 14  2  0
 16 15  1  0
 17 16  2  0
 17 12  1  0
  2 18  1  0
  3 19  1  0
  6 20  1  0
  8 21  1  0
 10 22  1  0
 13 23  1  0
 14 24  1  0
 16 25  1  0
M  ISO  8  18  14  19  14  20  14  21  14  22  14  23  14  24  14  25  14
M  END
>  <minimizedAffinity>  (1) 
-4.32581615

>  <minimizedRMSD>  (1) 
2.45258021

$$$$
