
     RDKit          3D

 25 27  0  0  0  0  0  0  0  0999 V2000
   44.4750   33.7690   40.6160 N   0  0  0  0  0  0  0  0  0  0  0  0
   45.1950   33.4820   39.5000 C   0  0  0  0  0  0  0  0  0  0  0  0
   46.5450   33.4740   39.9270 C   0  0  0  0  0  0  0  0  0  0  0  0
   46.5750   33.7460   41.2130 N   0  0  0  0  0  0  0  0  0  0  0  0
   45.2950   33.9410   41.6740 C   0  0  0  0  0  0  0  0  0  0  0  0
   42.4570   32.6500   41.2590 C   0  0  0  0  0  0  0  0  0  0  0  0
   43.0670   33.8290   40.7080 C   0  0  0  0  0  0  0  0  0  0  0  0
   42.2600   34.9220   40.3120 C   0  0  0  0  0  0  0  0  0  0  0  0
   40.9050   34.7900   40.4830 N   0  0  0  0  0  0  0  0  0  0  0  0
   40.3550   33.6530   41.0160 C   0  0  0  0  0  0  0  0  0  0  0  0
   41.1240   32.5800   41.4060 N   0  0  0  0  0  0  0  0  0  0  0  0
   45.1380   34.3390   43.0660 C   0  0  0  0  0  0  0  0  0  0  0  0
   44.6350   35.5740   43.4030 C   0  0  0  0  0  0  0  0  0  0  0  0
   44.4520   36.0540   44.6700 C   0  0  0  0  0  0  0  0  0  0  0  0
   44.7950   35.2410   45.6820 N   0  0  0  0  0  0  0  0  0  0  0  0
   45.2860   34.0340   45.4250 C   0  0  0  0  0  0  0  0  0  0  0  0
   45.4240   33.6650   44.1710 N   0  0  0  0  0  0  0  0  0  0  0  0
   44.8124   33.2963   38.4856 H   0  0  0  0  0  0  0  0  0  0  0  0
   47.4199   33.2742   39.2909 H   0  0  0  0  0  0  0  0  0  0  0  0
   43.0858   31.7999   41.5621 H   0  0  0  0  0  0  0  0  0  0  0  0
   42.6992   35.8362   39.8863 H   0  0  0  0  0  0  0  0  0  0  0  0
   39.2630   33.5963   41.1360 H   0  0  0  0  0  0  0  0  0  0  0  0
   44.3529   36.2393   42.5736 H   0  0  0  0  0  0  0  0  0  0  0  0
   44.0430   37.0589   44.8517 H   0  0  0  0  0  0  0  0  0  0  0  0
   45.5711   33.3575   46.2442 H   0  0  0  0  0  0  0  0  0  0  0  0
  1  7  1  0
  1  5  1  0
  2  3  2  0
  2  1  1  0
  3  4  1  0
  4  5  2  0
  5 12  1  0
  6 11  2  0
  7  6  1  0
  8  9  1  0
  8  7  2  0
  9 10  2  0
 10 11  1  0
 12 13  2  0
 12 17  1  0
 13 14  1  0
 14 15  2  0
 16 15  1  0
 17 16  2  0
  2 18  1  0
  3 19  1  0
  6 20  1  0
  8 21  1  0
 10 22  1  0
 13 23  1  0
 14 24  1  0
 16 25  1  0
M  ISO  8  18  14  19  14  20  14  21  14  22  14  23  14  24  14  25  14
M  END
>  <minimizedAffinity>  (1) 
-4.25776577

>  <minimizedRMSD>  (1) 
4.6648221

$$$$
