
     RDKit          3D

 20 21  0  0  0  0  0  0  0  0999 V2000
   42.1510   33.7090   39.8290 N   0  0  0  0  0  0  0  0  0  0  0  0
   42.4800   32.9220   38.7780 C   0  0  0  0  0  0  0  0  0  0  0  0
   41.2850   32.7850   38.0480 C   0  0  0  0  0  0  0  0  0  0  0  0
   40.3070   33.4660   38.6590 N   0  0  0  0  0  0  0  0  0  0  0  0
   40.8230   34.0500   39.7740 C   0  0  0  0  0  0  0  0  0  0  0  0
   43.5400   33.1540   41.6820 C   0  0  0  0  0  0  0  0  0  0  0  0
   43.0080   34.1620   40.8510 C   0  0  0  0  0  0  0  0  0  0  0  0
   43.3620   35.5060   41.0920 C   0  0  0  0  0  0  0  0  0  0  0  0
   44.2160   35.7550   42.1340 N   0  0  0  0  0  0  0  0  0  0  0  0
   44.7090   34.7460   42.9140 C   0  0  0  0  0  0  0  0  0  0  0  0
   44.3680   33.4360   42.6830 N   0  0  0  0  0  0  0  0  0  0  0  0
   39.8440   34.8110   40.5830 C   0  0  0  0  0  0  0  0  0  0  0  0
   38.5450   34.7250   40.1210 F   0  0  0  0  0  0  0  0  0  0  0  0
   40.0950   36.2090   40.5000 F   0  0  0  0  0  0  0  0  0  0  0  0
   39.9840   34.5700   41.9320 F   0  0  0  0  0  0  0  0  0  0  0  0
   43.4631   32.4864   38.5461 H   0  0  0  0  0  0  0  0  0  0  0  0
   41.1715   32.2075   37.1187 H   0  0  0  0  0  0  0  0  0  0  0  0
   43.2621   32.1059   41.4967 H   0  0  0  0  0  0  0  0  0  0  0  0
   42.9680   36.3218   40.4681 H   0  0  0  0  0  0  0  0  0  0  0  0
   45.3915   34.9881   43.7420 H   0  0  0  0  0  0  0  0  0  0  0  0
  1  7  1  0
  2  1  1  0
  3  4  1  0
  3  2  2  0
  4  5  2  0
  5  1  1  0
  5 12  1  0
  6 11  2  0
  7  8  2  0
  7  6  1  0
  8  9  1  0
  9 10  2  0
 11 10  1  0
 12 15  1  0
 13 12  1  0
 14 12  1  0
  2 16  1  0
  3 17  1  0
  6 18  1  0
  8 19  1  0
 10 20  1  0
M  ISO  5  16  14  17  14  18  14  19  14  20  14
M  END
>  <minimizedAffinity>  (1) 
-4.21759415

>  <minimizedRMSD>  (1) 
2.87008142

$$$$
