
     RDKit          3D

 26 27  0  0  0  0  0  0  0  0999 V2000
   43.5230   34.1820   40.9310 N   0  0  0  0  0  0  0  0  0  0  0  0
   44.0780   33.7710   39.7750 C   0  0  0  0  0  0  0  0  0  0  0  0
   43.0630   33.9360   38.8110 C   0  0  0  0  0  0  0  0  0  0  0  0
   41.9610   34.4260   39.4000 N   0  0  0  0  0  0  0  0  0  0  0  0
   42.2300   34.5810   40.7090 C   0  0  0  0  0  0  0  0  0  0  0  0
   44.2480   35.5470   42.7380 C   0  0  0  0  0  0  0  0  0  0  0  0
   44.1330   34.2460   42.2040 C   0  0  0  0  0  0  0  0  0  0  0  0
   44.6180   33.1390   42.9310 C   0  0  0  0  0  0  0  0  0  0  0  0
   45.1890   33.3810   44.1450 N   0  0  0  0  0  0  0  0  0  0  0  0
   45.2860   34.6510   44.6360 C   0  0  0  0  0  0  0  0  0  0  0  0
   44.8190   35.7340   43.9410 N   0  0  0  0  0  0  0  0  0  0  0  0
   41.0780   35.0740   41.4950 C   0  0  0  0  0  0  0  0  0  0  0  0
   39.9850   33.9880   41.6350 C   0  0  0  0  0  0  0  0  0  0  0  0
   40.3500   36.1920   40.7330 C   0  0  0  0  0  0  0  0  0  0  0  0
   45.0981   33.3906   39.6177 H   0  0  0  0  0  0  0  0  0  0  0  0
   43.1592   33.6996   37.7410 H   0  0  0  0  0  0  0  0  0  0  0  0
   43.8700   36.4095   42.1694 H   0  0  0  0  0  0  0  0  0  0  0  0
   44.5384   32.1168   42.5326 H   0  0  0  0  0  0  0  0  0  0  0  0
   45.7533   34.8088   45.6192 H   0  0  0  0  0  0  0  0  0  0  0  0
   41.4928   35.3918   42.4630 H   0  0  0  0  0  0  0  0  0  0  0  0
   39.7925   33.7968   42.7010 H   0  0  0  0  0  0  0  0  0  0  0  0
   39.0596   34.3347   41.1518 H   0  0  0  0  0  0  0  0  0  0  0  0
   40.3257   33.0604   41.1518 H   0  0  0  0  0  0  0  0  0  0  0  0
   39.8956   36.8898   41.4517 H   0  0  0  0  0  0  0  0  0  0  0  0
   41.0692   36.7334   40.1009 H   0  0  0  0  0  0  0  0  0  0  0  0
   39.5640   35.7532   40.1009 H   0  0  0  0  0  0  0  0  0  0  0  0
  1  7  1  0
  2  1  1  0
  3  4  1  0
  3  2  2  0
  4  5  2  0
  5  1  1  0
  5 12  1  0
  6 11  2  0
  7  6  1  0
  7  8  2  0
  8  9  1  0
  9 10  2  0
 11 10  1  0
 12 13  1  0
 14 12  1  0
  2 15  1  0
  3 16  1  0
  6 17  1  0
  8 18  1  0
 10 19  1  0
 12 20  1  0
 13 21  1  0
 13 22  1  0
 13 23  1  0
 14 24  1  0
 14 25  1  0
 14 26  1  0
M  ISO  8  15  14  16  14  17  14  18  14  19  14  20   8  21   8  22   8
M  ISO  4  23   8  24   8  25   8  26   8
M  END
>  <minimizedAffinity>  (1) 
-4.05306625

>  <minimizedRMSD>  (1) 
0.95472163

$$$$
