
     RDKit          3D

 18 19  0  0  0  0  0  0  0  0999 V2000
   44.5290   35.3290   43.4790 C   0  0  0  0  0  0  0  0  0  0  0  0
   44.2250   34.2560   42.6190 C   0  0  0  0  0  0  0  0  0  0  0  0
   44.6860   32.9620   42.9290 C   0  0  0  0  0  0  0  0  0  0  0  0
   45.4160   32.8060   44.0700 N   0  0  0  0  0  0  0  0  0  0  0  0
   45.6860   33.8750   44.8740 C   0  0  0  0  0  0  0  0  0  0  0  0
   45.2400   35.1280   44.5730 N   0  0  0  0  0  0  0  0  0  0  0  0
   43.4590   34.5610   41.4810 N   0  0  0  0  0  0  0  0  0  0  0  0
   43.7220   34.3420   40.1880 C   0  0  0  0  0  0  0  0  0  0  0  0
   42.6370   34.8290   39.4400 C   0  0  0  0  0  0  0  0  0  0  0  0
   41.7490   35.3300   40.3040 N   0  0  0  0  0  0  0  0  0  0  0  0
   42.2410   35.1700   41.5520 C   0  0  0  0  0  0  0  0  0  0  0  0
   41.4340   35.6410   42.5720 O   0  0  0  0  0  0  0  0  0  0  0  0
   44.1717   36.3410   43.2376 H   0  0  0  0  0  0  0  0  0  0  0  0
   44.4649   32.1068   42.2734 H   0  0  0  0  0  0  0  0  0  0  0  0
   46.2785   33.7221   45.7881 H   0  0  0  0  0  0  0  0  0  0  0  0
   44.6267   33.8655   39.7825 H   0  0  0  0  0  0  0  0  0  0  0  0
   42.5369   34.8028   38.3449 H   0  0  0  0  0  0  0  0  0  0  0  0
   40.5618   36.0589   42.3603 H   0  0  0  0  0  0  0  0  0  0  0  0
  1  6  2  0
  2  3  2  0
  2  1  1  0
  3  4  1  0
  4  5  2  0
  6  5  1  0
  7 11  1  0
  7  2  1  0
  8  7  1  0
  9  8  2  0
  9 10  1  0
 10 11  2  0
 11 12  1  0
  1 13  1  0
  3 14  1  0
  5 15  1  0
  8 16  1  0
  9 17  1  0
 12 18  1  0
M  ISO  6  13  14  14  14  15  14  16  14  17  14  18   3
M  END
>  <minimizedAffinity>  (1) 
-3.68544769

>  <minimizedRMSD>  (1) 
0.884814501

$$$$
