
     RDKit          3D

 31 33  0  0  0  0  0  0  0  0999 V2000
   43.1370   33.3290   41.1730 N   0  0  0  0  0  0  0  0  0  0  0  0
   42.2110   33.7330   40.2930 C   0  0  0  0  0  0  0  0  0  0  0  0
   42.0990   35.1320   40.3930 C   0  0  0  0  0  0  0  0  0  0  0  0
   42.9660   35.5280   41.3360 N   0  0  0  0  0  0  0  0  0  0  0  0
   43.5950   34.4220   41.8050 C   0  0  0  0  0  0  0  0  0  0  0  0
   44.5370   34.7790   42.8000 N   0  0  0  0  0  0  0  0  0  0  0  0
   45.0970   36.1050   43.1240 C   0  0  0  0  0  0  0  0  0  0  0  0
   44.7410   36.5350   44.5000 C   0  0  0  0  0  0  0  0  0  0  0  0
   44.3680   35.4090   45.3330 N   0  0  0  0  0  0  0  0  0  0  0  0
   45.2310   34.2680   45.1100 C   0  0  0  0  0  0  0  0  0  0  0  0
   45.0970   33.7570   43.6970 C   0  0  0  0  0  0  0  0  0  0  0  0
   44.7630   31.6310   40.8070 C   0  0  0  0  0  0  0  0  0  0  0  0
   43.5830   32.0410   41.4510 C   0  0  0  0  0  0  0  0  0  0  0  0
   42.9570   31.1250   42.3250 C   0  0  0  0  0  0  0  0  0  0  0  0
   43.5310   29.9040   42.4940 N   0  0  0  0  0  0  0  0  0  0  0  0
   44.6670   29.5630   41.8490 C   0  0  0  0  0  0  0  0  0  0  0  0
   45.2810   30.4370   41.0030 N   0  0  0  0  0  0  0  0  0  0  0  0
   41.6391   33.0852   39.6123 H   0  0  0  0  0  0  0  0  0  0  0  0
   41.4276   35.7782   39.8085 H   0  0  0  0  0  0  0  0  0  0  0  0
   46.1927   36.0590   43.0380 H   0  0  0  0  0  0  0  0  0  0  0  0
   44.6743   36.8354   42.4184 H   0  0  0  0  0  0  0  0  0  0  0  0
   45.6075   37.0407   44.9510 H   0  0  0  0  0  0  0  0  0  0  0  0
   43.8784   37.2145   44.4349 H   0  0  0  0  0  0  0  0  0  0  0  0
   44.4341   35.6892   46.3220 H   0  0  0  0  0  0  0  0  0  0  0  0
   46.2748   34.5664   45.2872 H   0  0  0  0  0  0  0  0  0  0  0  0
   44.9369   33.4654   45.8024 H   0  0  0  0  0  0  0  0  0  0  0  0
   44.4332   32.8799   43.6965 H   0  0  0  0  0  0  0  0  0  0  0  0
   46.1001   33.4923   43.3314 H   0  0  0  0  0  0  0  0  0  0  0  0
   45.2674   32.3269   40.1205 H   0  0  0  0  0  0  0  0  0  0  0  0
   42.0305   31.3920   42.8545 H   0  0  0  0  0  0  0  0  0  0  0  0
   45.1029   28.5658   42.0087 H   0  0  0  0  0  0  0  0  0  0  0  0
  1 13  1  0
  1  5  1  0
  2  3  2  0
  2  1  1  0
  3  4  1  0
  4  5  2  0
  5  6  1  0
  6  7  1  0
  6 11  1  0
  7  8  1  0
  8  9  1  0
 10  9  1  0
 11 10  1  0
 12 17  2  0
 12 13  1  0
 13 14  2  0
 14 15  1  0
 16 15  2  0
 17 16  1  0
  2 18  1  0
  3 19  1  0
  7 20  1  0
  7 21  1  0
  8 22  1  0
  8 23  1  0
  9 24  1  0
 10 25  1  0
 10 26  1  0
 11 27  1  0
 11 28  1  0
 12 29  1  0
 14 30  1  0
 16 31  1  0
M  ISO  8  18  14  19  14  20  13  21  13  22  13  23  13  24   5  25  13
M  ISO  6  26  13  27  13  28  13  29  14  30  14  31  14
M  END
>  <minimizedAffinity>  (1) 
-4.15351963

>  <minimizedRMSD>  (1) 
4.25108814

$$$$
