
     RDKit          3D

 45 49  0  0  0  0  0  0  0  0999 V2000
   43.2820   32.9460   41.1920 N   0  0  0  0  0  0  0  0  0  0  0  0
   42.6000   33.2580   40.0950 C   0  0  0  0  0  0  0  0  0  0  0  0
   42.7690   34.6330   39.8510 C   0  0  0  0  0  0  0  0  0  0  0  0
   43.5620   35.1140   40.8240 N   0  0  0  0  0  0  0  0  0  0  0  0
   43.8720   34.0790   41.6390 C   0  0  0  0  0  0  0  0  0  0  0  0
   44.7160   34.5160   42.7000 N   0  0  0  0  0  0  0  0  0  0  0  0
   45.4630   35.7800   42.8100 C   0  0  0  0  0  0  0  0  0  0  0  0
   45.0120   36.5960   43.9650 C   0  0  0  0  0  0  0  0  0  0  0  0
   44.2910   35.7920   44.9470 N   0  0  0  0  0  0  0  0  0  0  0  0
   44.9480   34.5220   45.1440 C   0  0  0  0  0  0  0  0  0  0  0  0
   44.9460   33.6890   43.8710 C   0  0  0  0  0  0  0  0  0  0  0  0
   44.7140   31.1460   41.8250 C   0  0  0  0  0  0  0  0  0  0  0  0
   43.4220   31.7210   41.8250 C   0  0  0  0  0  0  0  0  0  0  0  0
   42.4090   31.0100   42.4810 C   0  0  0  0  0  0  0  0  0  0  0  0
   42.7190   29.8390   43.0680 N   0  0  0  0  0  0  0  0  0  0  0  0
   43.9360   29.3240   43.0570 C   0  0  0  0  0  0  0  0  0  0  0  0
   44.9320   29.9830   42.4310 N   0  0  0  0  0  0  0  0  0  0  0  0
   44.4410   28.0710   43.6460 C   0  0  0  0  0  0  0  0  0  0  0  0
   44.6760   26.9380   42.9350 N   0  0  0  0  0  0  0  0  0  0  0  0
   45.1330   25.7950   43.4480 C   0  0  0  0  0  0  0  0  0  0  0  0
   45.4040   25.6720   44.7580 N   0  0  0  0  0  0  0  0  0  0  0  0
   45.2000   26.7460   45.5470 C   0  0  0  0  0  0  0  0  0  0  0  0
   45.4840   26.5980   46.8850 C   0  0  0  0  0  0  0  0  0  0  0  0
   45.3000   27.6540   47.7530 C   0  0  0  0  0  0  0  0  0  0  0  0
   44.8240   28.8440   47.2080 C   0  0  0  0  0  0  0  0  0  0  0  0
   44.5620   28.9180   45.8610 C   0  0  0  0  0  0  0  0  0  0  0  0
   44.7280   27.8990   44.9630 C   0  0  0  0  0  0  0  0  0  0  0  0
   42.0065   32.5620   39.4840 H   0  0  0  0  0  0  0  0  0  0  0  0
   42.3338   35.2071   39.0197 H   0  0  0  0  0  0  0  0  0  0  0  0
   46.5318   35.5509   42.9333 H   0  0  0  0  0  0  0  0  0  0  0  0
   45.2827   36.3611   41.8936 H   0  0  0  0  0  0  0  0  0  0  0  0
   45.8918   37.0450   44.4491 H   0  0  0  0  0  0  0  0  0  0  0  0
   44.3286   37.3720   43.5898 H   0  0  0  0  0  0  0  0  0  0  0  0
   44.2596   36.2995   45.8427 H   0  0  0  0  0  0  0  0  0  0  0  0
   45.9887   34.7020   45.4516 H   0  0  0  0  0  0  0  0  0  0  0  0
   44.4003   33.9672   45.9200 H   0  0  0  0  0  0  0  0  0  0  0  0
   44.1493   32.9336   43.9383 H   0  0  0  0  0  0  0  0  0  0  0  0
   45.9302   33.2084   43.7689 H   0  0  0  0  0  0  0  0  0  0  0  0
   45.5432   31.6639   41.3208 H   0  0  0  0  0  0  0  0  0  0  0  0
   41.3813   31.4006   42.5158 H   0  0  0  0  0  0  0  0  0  0  0  0
   45.2917   24.9331   42.7832 H   0  0  0  0  0  0  0  0  0  0  0  0
   45.8586   25.6354   47.2633 H   0  0  0  0  0  0  0  0  0  0  0  0
   45.5192   27.5605   48.8269 H   0  0  0  0  0  0  0  0  0  0  0  0
   44.6586   29.7200   47.8524 H   0  0  0  0  0  0  0  0  0  0  0  0
   44.1876   29.8765   45.4722 H   0  0  0  0  0  0  0  0  0  0  0  0
  1  5  1  0
  1 13  1  0
  2  1  1  0
  3  2  2  0
  3  4  1  0
  4  5  2  0
  5  6  1  0
  6  7  1  0
  6 11  1  0
  7  8  1  0
  8  9  1  0
  9 10  1  0
 11 10  1  0
 12 17  2  0
 13 12  1  0
 13 14  2  0
 14 15  1  0
 16 15  2  0
 16 18  1  0
 17 16  1  0
 18 27  2  0
 19 20  2  0
 19 18  1  0
 20 21  1  0
 21 22  2  0
 22 23  1  0
 23 24  2  0
 25 24  1  0
 26 25  2  0
 27 22  1  0
 27 26  1  0
  2 28  1  0
  3 29  1  0
  7 30  1  0
  7 31  1  0
  8 32  1  0
  8 33  1  0
  9 34  1  0
 10 35  1  0
 10 36  1  0
 11 37  1  0
 11 38  1  0
 12 39  1  0
 14 40  1  0
 20 41  1  0
 23 42  1  0
 24 43  1  0
 25 44  1  0
 26 45  1  0
M  ISO  8  28  14  29  14  30  13  31  13  32  13  33  13  34   5  35  13
M  ISO  8  36  13  37  13  38  13  39  14  40  14  41  14  42  14  43  14
M  ISO  2  44  14  45  14
M  END
>  <minimizedAffinity>  (1) 
-4.74376154

>  <minimizedRMSD>  (1) 
1.73064148

$$$$
