
     RDKit          3D

 33 35  0  0  0  0  0  0  0  0999 V2000
   43.1280   33.3230   41.1660 N   0  0  0  0  0  0  0  0  0  0  0  0
   42.2080   33.7310   40.2850 C   0  0  0  0  0  0  0  0  0  0  0  0
   42.1010   35.1310   40.3830 C   0  0  0  0  0  0  0  0  0  0  0  0
   42.9680   35.5280   41.3290 N   0  0  0  0  0  0  0  0  0  0  0  0
   43.5870   34.4260   41.7970 C   0  0  0  0  0  0  0  0  0  0  0  0
   44.5310   34.7660   42.8020 N   0  0  0  0  0  0  0  0  0  0  0  0
   45.0790   36.1060   43.1240 C   0  0  0  0  0  0  0  0  0  0  0  0
   44.7480   36.5290   44.5030 C   0  0  0  0  0  0  0  0  0  0  0  0
   44.3440   35.4150   45.3230 N   0  0  0  0  0  0  0  0  0  0  0  0
   45.2280   34.2850   45.1100 C   0  0  0  0  0  0  0  0  0  0  0  0
   45.1150   33.7660   43.6850 C   0  0  0  0  0  0  0  0  0  0  0  0
   44.7480   31.6210   40.8140 C   0  0  0  0  0  0  0  0  0  0  0  0
   43.5780   32.0410   41.4430 C   0  0  0  0  0  0  0  0  0  0  0  0
   42.9350   31.1310   42.3230 C   0  0  0  0  0  0  0  0  0  0  0  0
   43.5210   29.9140   42.4840 N   0  0  0  0  0  0  0  0  0  0  0  0
   44.6510   29.5590   41.8550 C   0  0  0  0  0  0  0  0  0  0  0  0
   45.2610   30.4260   41.0160 N   0  0  0  0  0  0  0  0  0  0  0  0
   45.1480   28.2490   42.1220 N   0  0  0  0  0  0  0  0  0  0  0  0
   41.6352   33.0853   39.6031 H   0  0  0  0  0  0  0  0  0  0  0  0
   41.4331   35.7782   39.7955 H   0  0  0  0  0  0  0  0  0  0  0  0
   46.1732   36.0766   43.0156 H   0  0  0  0  0  0  0  0  0  0  0  0
   44.6272   36.8309   42.4309 H   0  0  0  0  0  0  0  0  0  0  0  0
   45.6345   36.9994   44.9534 H   0  0  0  0  0  0  0  0  0  0  0  0
   43.9077   37.2370   44.4506 H   0  0  0  0  0  0  0  0  0  0  0  0
   44.3802   35.6923   46.3143 H   0  0  0  0  0  0  0  0  0  0  0  0
   46.2653   34.5995   45.2972 H   0  0  0  0  0  0  0  0  0  0  0  0
   44.9392   33.4790   45.8006 H   0  0  0  0  0  0  0  0  0  0  0  0
   44.4791   32.8685   43.6800 H   0  0  0  0  0  0  0  0  0  0  0  0
   46.1256   33.5292   43.3208 H   0  0  0  0  0  0  0  0  0  0  0  0
   45.2595   32.3105   40.1263 H   0  0  0  0  0  0  0  0  0  0  0  0
   42.0068   31.3975   42.8497 H   0  0  0  0  0  0  0  0  0  0  0  0
   46.0124   27.9233   41.6663 H   0  0  0  0  0  0  0  0  0  0  0  0
   44.6425   27.6287   42.7705 H   0  0  0  0  0  0  0  0  0  0  0  0
  1 13  1  0
  1  5  1  0
  2  3  2  0
  2  1  1  0
  3  4  1  0
  4  5  2  0
  5  6  1  0
  6  7  1  0
  6 11  1  0
  7  8  1  0
  8  9  1  0
 10  9  1  0
 11 10  1  0
 12 17  2  0
 12 13  1  0
 13 14  2  0
 14 15  1  0
 16 18  1  0
 16 15  2  0
 17 16  1  0
  2 19  1  0
  3 20  1  0
  7 21  1  0
  7 22  1  0
  8 23  1  0
  8 24  1  0
  9 25  1  0
 10 26  1  0
 10 27  1  0
 11 28  1  0
 11 29  1  0
 12 30  1  0
 14 31  1  0
 18 32  1  0
 18 33  1  0
M  ISO  8  19  14  20  14  21  13  22  13  23  13  24  13  25   5  26  13
M  ISO  5  27  13  28  13  29  13  30  14  31  14
M  END
>  <minimizedAffinity>  (1) 
-4.17931032

>  <minimizedRMSD>  (1) 
0.0127456877

$$$$
