
     RDKit          3D

 37 40  0  0  0  0  0  0  0  0999 V2000
   43.2850   33.3460   41.0820 N   0  0  0  0  0  0  0  0  0  0  0  0
   42.4400   33.7700   40.1380 C   0  0  0  0  0  0  0  0  0  0  0  0
   42.3730   35.1680   40.1980 C   0  0  0  0  0  0  0  0  0  0  0  0
   43.1870   35.5540   41.1880 N   0  0  0  0  0  0  0  0  0  0  0  0
   43.7420   34.4380   41.7240 C   0  0  0  0  0  0  0  0  0  0  0  0
   44.6250   34.7690   42.7860 N   0  0  0  0  0  0  0  0  0  0  0  0
   45.1820   36.0980   43.1210 C   0  0  0  0  0  0  0  0  0  0  0  0
   44.7660   36.5570   44.4610 C   0  0  0  0  0  0  0  0  0  0  0  0
   44.3090   35.4620   45.2810 N   0  0  0  0  0  0  0  0  0  0  0  0
   45.1830   34.3110   45.1290 C   0  0  0  0  0  0  0  0  0  0  0  0
   45.1090   33.7630   43.7220 C   0  0  0  0  0  0  0  0  0  0  0  0
   44.8670   31.5820   40.8040 C   0  0  0  0  0  0  0  0  0  0  0  0
   43.6770   32.0440   41.4110 C   0  0  0  0  0  0  0  0  0  0  0  0
   42.9680   31.1900   42.2990 C   0  0  0  0  0  0  0  0  0  0  0  0
   43.4940   29.9660   42.5070 N   0  0  0  0  0  0  0  0  0  0  0  0
   44.6260   29.5520   41.9190 C   0  0  0  0  0  0  0  0  0  0  0  0
   45.3160   30.3630   41.0640 N   0  0  0  0  0  0  0  0  0  0  0  0
   45.1770   28.2190   42.1610 C   0  0  0  0  0  0  0  0  0  0  0  0
   45.8780   27.3530   41.1310 C   0  0  0  0  0  0  0  0  0  0  0  0
   46.2370   25.8800   42.2640 S   0  0  0  0  0  0  0  0  0  0  0  0
   45.4200   26.6940   43.7730 C   0  0  0  0  0  0  0  0  0  0  0  0
   45.0300   27.7640   43.3950 N   0  0  0  0  0  0  0  0  0  0  0  0
   41.8899   33.1296   39.4328 H   0  0  0  0  0  0  0  0  0  0  0  0
   41.7673   35.8232   39.5546 H   0  0  0  0  0  0  0  0  0  0  0  0
   46.2800   36.0391   43.0921 H   0  0  0  0  0  0  0  0  0  0  0  0
   44.7994   36.8193   42.3839 H   0  0  0  0  0  0  0  0  0  0  0  0
   45.6227   37.0390   44.9548 H   0  0  0  0  0  0  0  0  0  0  0  0
   43.9330   37.2648   44.3381 H   0  0  0  0  0  0  0  0  0  0  0  0
   44.3054   35.7565   46.2680 H   0  0  0  0  0  0  0  0  0  0  0  0
   46.2185   34.6135   45.3442 H   0  0  0  0  0  0  0  0  0  0  0  0
   44.8595   33.5275   45.8301 H   0  0  0  0  0  0  0  0  0  0  0  0
   44.4242   32.9022   43.7084 H   0  0  0  0  0  0  0  0  0  0  0  0
   46.1208   33.4608   43.4138 H   0  0  0  0  0  0  0  0  0  0  0  0
   45.4213   32.2358   40.1145 H   0  0  0  0  0  0  0  0  0  0  0  0
   42.0381   31.5111   42.7911 H   0  0  0  0  0  0  0  0  0  0  0  0
   46.1045   27.5256   40.0685 H   0  0  0  0  0  0  0  0  0  0  0  0
   45.3242   26.2719   44.7843 H   0  0  0  0  0  0  0  0  0  0  0  0
  1 13  1  0
  1  5  1  0
  2  3  2  0
  2  1  1  0
  3  4  1  0
  4  5  2  0
  5  6  1  0
  6  7  1  0
  6 11  1  0
  7  8  1  0
  8  9  1  0
 10  9  1  0
 11 10  1  0
 12 17  2  0
 12 13  1  0
 13 14  2  0
 14 15  1  0
 16 18  1  0
 16 15  2  0
 17 16  1  0
 18 22  1  0
 19 18  2  0
 19 20  1  0
 20 21  1  0
 22 21  2  0
  2 23  1  0
  3 24  1  0
  7 25  1  0
  7 26  1  0
  8 27  1  0
  8 28  1  0
  9 29  1  0
 10 30  1  0
 10 31  1  0
 11 32  1  0
 11 33  1  0
 12 34  1  0
 14 35  1  0
 19 36  1  0
 21 37  1  0
M  ISO  8  23  14  24  14  25  13  26  13  27  13  28  13  29   5  30  13
M  ISO  7  31  13  32  13  33  13  34  14  35  14  36  14  37  14
M  END
>  <minimizedAffinity>  (1) 
-4.0601325

>  <minimizedRMSD>  (1) 
0.247712567

$$$$
