
     RDKit          3D

 38 41  0  0  0  0  0  0  0  0999 V2000
   43.1680   33.3380   41.1590 N   0  0  0  0  0  0  0  0  0  0  0  0
   42.2870   33.7610   40.2530 C   0  0  0  0  0  0  0  0  0  0  0  0
   42.2140   35.1530   40.3220 C   0  0  0  0  0  0  0  0  0  0  0  0
   43.0640   35.5440   41.2800 N   0  0  0  0  0  0  0  0  0  0  0  0
   43.6450   34.4300   41.7870 C   0  0  0  0  0  0  0  0  0  0  0  0
   44.5680   34.7690   42.8130 N   0  0  0  0  0  0  0  0  0  0  0  0
   45.1230   36.0970   43.1380 C   0  0  0  0  0  0  0  0  0  0  0  0
   44.7500   36.5460   44.5010 C   0  0  0  0  0  0  0  0  0  0  0  0
   44.3460   35.4390   45.3270 N   0  0  0  0  0  0  0  0  0  0  0  0
   45.2080   34.2960   45.1370 C   0  0  0  0  0  0  0  0  0  0  0  0
   45.1070   33.7660   43.7160 C   0  0  0  0  0  0  0  0  0  0  0  0
   44.7660   31.5970   40.8640 C   0  0  0  0  0  0  0  0  0  0  0  0
   43.5800   32.0420   41.4680 C   0  0  0  0  0  0  0  0  0  0  0  0
   42.8970   31.1550   42.3430 C   0  0  0  0  0  0  0  0  0  0  0  0
   43.4580   29.9360   42.5210 N   0  0  0  0  0  0  0  0  0  0  0  0
   44.5950   29.5510   41.9230 C   0  0  0  0  0  0  0  0  0  0  0  0
   45.2480   30.3930   41.0890 N   0  0  0  0  0  0  0  0  0  0  0  0
   45.1800   28.2310   42.1340 C   0  0  0  0  0  0  0  0  0  0  0  0
   45.0840   27.6800   43.4150 C   0  0  0  0  0  0  0  0  0  0  0  0
   45.7020   26.4380   43.3680 C   0  0  0  0  0  0  0  0  0  0  0  0
   46.1420   26.3070   42.0500 C   0  0  0  0  0  0  0  0  0  0  0  0
   45.8090   27.3890   41.3640 O   0  0  0  0  0  0  0  0  0  0  0  0
   41.7138   33.1208   39.5663 H   0  0  0  0  0  0  0  0  0  0  0  0
   41.5782   35.8057   39.7058 H   0  0  0  0  0  0  0  0  0  0  0  0
   46.2198   36.0481   43.0697 H   0  0  0  0  0  0  0  0  0  0  0  0
   44.7070   36.8197   42.4206 H   0  0  0  0  0  0  0  0  0  0  0  0
   45.6164   37.0406   44.9644 H   0  0  0  0  0  0  0  0  0  0  0  0
   43.9022   37.2417   44.4161 H   0  0  0  0  0  0  0  0  0  0  0  0
   44.3846   35.7269   46.3152 H   0  0  0  0  0  0  0  0  0  0  0  0
   46.2481   34.5930   45.3368 H   0  0  0  0  0  0  0  0  0  0  0  0
   44.8935   33.5016   45.8298 H   0  0  0  0  0  0  0  0  0  0  0  0
   44.4471   32.8859   43.7083 H   0  0  0  0  0  0  0  0  0  0  0  0
   46.1176   33.4991   43.3734 H   0  0  0  0  0  0  0  0  0  0  0  0
   45.3070   32.2721   40.1847 H   0  0  0  0  0  0  0  0  0  0  0  0
   41.9633   31.4432   42.8482 H   0  0  0  0  0  0  0  0  0  0  0  0
   44.6092   28.1424   44.2929 H   0  0  0  0  0  0  0  0  0  0  0  0
   45.8192   25.7156   44.1892 H   0  0  0  0  0  0  0  0  0  0  0  0
   46.6820   25.4389   41.6441 H   0  0  0  0  0  0  0  0  0  0  0  0
  1 13  1  0
  1  5  1  0
  2  3  2  0
  2  1  1  0
  3  4  1  0
  4  5  2  0
  5  6  1  0
  6  7  1  0
  6 11  1  0
  7  8  1  0
  8  9  1  0
 10  9  1  0
 11 10  1  0
 12 17  2  0
 12 13  1  0
 13 14  2  0
 14 15  1  0
 16 18  1  0
 16 15  2  0
 17 16  1  0
 18 19  2  0
 20 19  1  0
 21 20  2  0
 22 21  1  0
 22 18  1  0
  2 23  1  0
  3 24  1  0
  7 25  1  0
  7 26  1  0
  8 27  1  0
  8 28  1  0
  9 29  1  0
 10 30  1  0
 10 31  1  0
 11 32  1  0
 11 33  1  0
 12 34  1  0
 14 35  1  0
 19 36  1  0
 20 37  1  0
 21 38  1  0
M  ISO  8  23  14  24  14  25  13  26  13  27  13  28  13  29   5  30  13
M  ISO  8  31  13  32  13  33  13  34  14  35  14  36  14  37  14  38  14
M  END
>  <minimizedAffinity>  (1) 
-4.03576279

>  <minimizedRMSD>  (1) 
0.112926818

$$$$
