
     RDKit          3D

 44 47  0  0  0  0  0  0  0  0999 V2000
   43.2960   33.3180   41.0610 N   0  0  0  0  0  0  0  0  0  0  0  0
   42.4780   33.7360   40.0940 C   0  0  0  0  0  0  0  0  0  0  0  0
   42.4480   35.1320   40.1090 C   0  0  0  0  0  0  0  0  0  0  0  0
   43.2580   35.5280   41.1000 N   0  0  0  0  0  0  0  0  0  0  0  0
   43.7720   34.4180   41.6740 C   0  0  0  0  0  0  0  0  0  0  0  0
   44.6530   34.7640   42.7410 N   0  0  0  0  0  0  0  0  0  0  0  0
   45.2260   36.0890   43.0530 C   0  0  0  0  0  0  0  0  0  0  0  0
   44.8020   36.5950   44.3730 C   0  0  0  0  0  0  0  0  0  0  0  0
   44.3030   35.5300   45.2120 N   0  0  0  0  0  0  0  0  0  0  0  0
   45.1240   34.3470   45.1130 C   0  0  0  0  0  0  0  0  0  0  0  0
   45.1200   33.7860   43.6980 C   0  0  0  0  0  0  0  0  0  0  0  0
   44.8360   31.5120   40.8920 C   0  0  0  0  0  0  0  0  0  0  0  0
   43.6460   32.0270   41.4350 C   0  0  0  0  0  0  0  0  0  0  0  0
   42.9070   31.1950   42.3200 C   0  0  0  0  0  0  0  0  0  0  0  0
   43.4170   29.9660   42.5680 N   0  0  0  0  0  0  0  0  0  0  0  0
   44.5570   29.5200   42.0250 C   0  0  0  0  0  0  0  0  0  0  0  0
   45.2680   30.3030   41.1810 N   0  0  0  0  0  0  0  0  0  0  0  0
   45.9350   25.6180   42.9700 C   0  0  0  0  0  0  0  0  0  0  0  0
   44.7760   26.1170   43.5040 C   0  0  0  0  0  0  0  0  0  0  0  0
   44.3360   27.3680   43.2000 C   0  0  0  0  0  0  0  0  0  0  0  0
   45.0440   28.1800   42.3410 C   0  0  0  0  0  0  0  0  0  0  0  0
   46.2070   27.7120   41.7880 C   0  0  0  0  0  0  0  0  0  0  0  0
   46.6500   26.4280   42.1070 C   0  0  0  0  0  0  0  0  0  0  0  0
   46.6100   24.0460   43.2710 S   0  0  0  0  0  0  0  0  0  0  0  0
   45.5270   22.9920   43.3500 O   0  0  0  0  0  0  0  0  0  0  0  0
   47.3550   24.0990   44.5740 O   0  0  0  0  0  0  0  0  0  0  0  0
   41.9203   33.0893   39.4007 H   0  0  0  0  0  0  0  0  0  0  0  0
   41.8699   35.7822   39.4359 H   0  0  0  0  0  0  0  0  0  0  0  0
   46.3231   36.0097   43.0421 H   0  0  0  0  0  0  0  0  0  0  0  0
   44.8624   36.7962   42.2930 H   0  0  0  0  0  0  0  0  0  0  0  0
   45.6632   37.0670   44.8685 H   0  0  0  0  0  0  0  0  0  0  0  0
   43.9916   37.3229   44.2200 H   0  0  0  0  0  0  0  0  0  0  0  0
   44.2957   35.8509   46.1907 H   0  0  0  0  0  0  0  0  0  0  0  0
   46.1563   34.6031   45.3937 H   0  0  0  0  0  0  0  0  0  0  0  0
   44.7140   33.5830   45.7899 H   0  0  0  0  0  0  0  0  0  0  0  0
   44.4582   32.9080   43.6636 H   0  0  0  0  0  0  0  0  0  0  0  0
   46.1514   33.5099   43.4336 H   0  0  0  0  0  0  0  0  0  0  0  0
   45.4237   32.1384   40.2049 H   0  0  0  0  0  0  0  0  0  0  0  0
   41.9671   31.5334   42.7805 H   0  0  0  0  0  0  0  0  0  0  0  0
   44.1886   25.4927   44.1934 H   0  0  0  0  0  0  0  0  0  0  0  0
   43.4009   27.7368   43.6467 H   0  0  0  0  0  0  0  0  0  0  0  0
   46.7865   28.3433   41.0983 H   0  0  0  0  0  0  0  0  0  0  0  0
   47.5846   26.0534   41.6641 H   0  0  0  0  0  0  0  0  0  0  0  0
   47.4489   23.7098   42.2414 H   0  0  0  0  0  0  0  0  0  0  0  0
  1 13  1  0
  1  5  1  0
  2  3  2  0
  2  1  1  0
  3  4  1  0
  4  5  2  0
  5  6  1  0
  6  7  1  0
  6 11  1  0
  7  8  1  0
  8  9  1  0
 10  9  1  0
 11 10  1  0
 12 17  2  0
 12 13  1  0
 13 14  2  0
 14 15  1  0
 16 21  1  0
 16 15  2  0
 17 16  1  0
 18 24  1  0
 18 19  2  0
 20 19  1  0
 21 20  2  0
 22 23  2  0
 22 21  1  0
 23 18  1  0
 24 25  2  0
 24 26  2  0
  2 27  1  0
  3 28  1  0
  7 29  1  0
  7 30  1  0
  8 31  1  0
  8 32  1  0
  9 33  1  0
 10 34  1  0
 10 35  1  0
 11 36  1  0
 11 37  1  0
 12 38  1  0
 14 39  1  0
 19 40  1  0
 20 41  1  0
 22 42  1  0
 23 43  1  0
 24 44  1  0
M  ISO  8  27  14  28  14  29  13  30  13  31  13  32  13  33   5  34  13
M  ISO  8  35  13  36  13  37  13  38  14  39  14  40  14  41  14  42  14
M  ISO  2  43  14  44  11
M  END
>  <minimizedAffinity>  (1) 
-3.90315056

>  <minimizedRMSD>  (1) 
0.717066467

$$$$
