
     RDKit          3D

 36 39  0  0  1  0  0  0  0  0999 V2000
   44.4120   35.9830   44.8290 C   0  0  0  0  0  0  0  0  0  0  0  0
   44.5780   35.8320   43.4200 C   0  0  0  0  0  0  0  0  0  0  0  0
   45.2440   34.6690   42.9520 C   0  0  0  0  0  0  0  0  0  0  0  0
   45.6610   33.8030   43.8970 N   0  0  0  0  0  0  0  0  0  0  0  0
   45.4900   33.9720   45.2110 C   0  0  0  0  0  0  0  0  0  0  0  0
   44.8680   35.0580   45.6650 N   0  0  0  0  0  0  0  0  0  0  0  0
   45.9800   32.9800   46.0660 N   0  0  0  0  0  0  0  0  0  0  0  0
   45.4260   32.6340   47.3710 C   0  0  0  0  0  0  0  0  0  0  0  0
   46.7090   32.2220   48.0860 C   0  0  0  0  0  0  0  0  0  0  0  0
   47.2670   31.2530   47.0460 C   0  0  0  0  0  0  0  0  0  0  0  0
   47.1430   32.1120   45.8030 C   0  0  1  0  0  0  0  0  0  0  0  0
   46.9720   31.3230   44.6110 N   0  0  0  0  0  0  0  0  0  0  0  0
   46.1660   30.3260   44.2740 C   0  0  0  0  0  0  0  0  0  0  0  0
   46.4240   29.9370   43.0100 N   0  0  0  0  0  0  0  0  0  0  0  0
   47.4200   30.7050   42.5300 C   0  0  0  0  0  0  0  0  0  0  0  0
   48.0140   30.6620   41.2740 C   0  0  0  0  0  0  0  0  0  0  0  0
   47.6330   29.8270   40.4110 O   0  0  0  0  0  0  0  0  0  0  0  0
   49.0020   31.5500   41.0440 N   0  0  0  0  0  0  0  0  0  0  0  0
   49.3570   32.4140   42.0170 C   0  0  0  0  0  0  0  0  0  0  0  0
   50.4040   33.3100   41.6840 N   0  0  0  0  0  0  0  0  0  0  0  0
   48.7700   32.4320   43.2090 N   0  0  0  0  0  0  0  0  0  0  0  0
   47.7660   31.5750   43.5340 C   0  0  0  0  0  0  0  0  0  0  0  0
   43.9020   36.8732   45.2259 H   0  0  0  0  0  0  0  0  0  0  0  0
   44.2022   36.5920   42.7192 H   0  0  0  0  0  0  0  0  0  0  0  0
   45.4101   34.4852   41.8803 H   0  0  0  0  0  0  0  0  0  0  0  0
   44.9452   33.4970   47.8549 H   0  0  0  0  0  0  0  0  0  0  0  0
   44.6322   31.8727   47.3564 H   0  0  0  0  0  0  0  0  0  0  0  0
   47.3799   33.0775   48.2534 H   0  0  0  0  0  0  0  0  0  0  0  0
   46.5732   31.8042   49.0945 H   0  0  0  0  0  0  0  0  0  0  0  0
   48.3130   30.9851   47.2558 H   0  0  0  0  0  0  0  0  0  0  0  0
   46.7555   30.2806   46.9934 H   0  0  0  0  0  0  0  0  0  0  0  0
   48.0569   32.6944   45.6145 H   0  0  0  0  0  0  0  0  0  0  0  0
   45.4010   29.8826   44.9283 H   0  0  0  0  0  0  0  0  0  0  0  0
   49.4818   31.5685   40.1328 H   0  0  0  0  0  0  0  0  0  0  0  0
   50.7308   34.0000   42.3754 H   0  0  0  0  0  0  0  0  0  0  0  0
   50.8379   33.2710   40.7507 H   0  0  0  0  0  0  0  0  0  0  0  0
  1  6  2  0
  2  1  1  0
  3  2  2  0
  3  4  1  0
  4  5  2  0
  5  6  1  0
  5  7  1  0
  7  8  1  0
  8  9  1  0
 10  9  1  0
 11  7  1  0
 11 10  1  0
 12 11  1  0
 13 12  1  0
 14 13  2  0
 15 14  1  0
 15 22  2  0
 16 15  1  0
 17 16  2  0
 18 16  1  0
 18 19  1  0
 19 21  2  0
 20 19  1  0
 21 22  1  0
 22 12  1  0
  1 23  1  0
  2 24  1  0
  3 25  1  0
  8 26  1  0
  8 27  1  0
  9 28  1  0
  9 29  1  0
 10 30  1  0
 10 31  1  0
 11 32  1  6
 13 33  1  0
 18 34  1  0
 20 35  1  0
 20 36  1  0
M  ISO  8  23  14  24  14  25  14  26  13  27  13  28  13  29  13  30  13
M  ISO  4  31  13  32  13  33  14  34   9
M  END
>  <minimizedAffinity>  (1) 
-5.14124489

>  <minimizedRMSD>  (1) 
3.30384755

$$$$
