
     RDKit          3D

 38 40  0  0  1  0  0  0  0  0999 V2000
   44.4610   35.8940   44.8660 C   0  0  0  0  0  0  0  0  0  0  0  0
   44.8520   35.7030   43.5290 C   0  0  0  0  0  0  0  0  0  0  0  0
   45.5880   34.5510   43.2320 C   0  0  0  0  0  0  0  0  0  0  0  0
   45.8580   33.7240   44.2590 N   0  0  0  0  0  0  0  0  0  0  0  0
   45.4800   33.9190   45.5200 C   0  0  0  0  0  0  0  0  0  0  0  0
   44.7780   35.0100   45.8250 N   0  0  0  0  0  0  0  0  0  0  0  0
   45.8400   32.9680   46.4750 N   0  0  0  0  0  0  0  0  0  0  0  0
   45.0990   32.6280   47.6810 C   0  0  0  0  0  0  0  0  0  0  0  0
   46.2620   32.3780   48.6360 C   0  0  0  0  0  0  0  0  0  0  0  0
   47.0280   31.3850   47.7560 C   0  0  0  0  0  0  0  0  0  0  0  0
   47.0250   32.1300   46.4590 C   0  0  1  0  0  0  0  0  0  0  0  0
   47.1740   31.2570   45.2620 C   0  0  0  0  0  0  0  0  0  0  0  0
   45.7630   30.8410   44.8190 C   0  0  0  0  0  0  0  0  0  0  0  0
   45.7690   30.3460   43.3930 C   0  0  0  0  0  0  0  0  0  0  0  0
   47.1250   29.8840   42.9740 C   0  0  0  0  0  0  0  0  0  0  0  0
   48.0460   31.0910   42.9390 C   0  0  0  0  0  0  0  0  0  0  0  0
   47.7380   32.0300   44.0880 C   0  0  0  0  0  0  0  0  0  0  0  0
   43.8811   36.7899   45.1326 H   0  0  0  0  0  0  0  0  0  0  0  0
   44.5895   36.4309   42.7472 H   0  0  0  0  0  0  0  0  0  0  0  0
   45.9293   34.3318   42.2095 H   0  0  0  0  0  0  0  0  0  0  0  0
   44.4632   33.4596   48.0190 H   0  0  0  0  0  0  0  0  0  0  0  0
   44.3949   31.7896   47.5746 H   0  0  0  0  0  0  0  0  0  0  0  0
   46.8409   33.2909   48.8400 H   0  0  0  0  0  0  0  0  0  0  0  0
   45.9992   32.0337   49.6471 H   0  0  0  0  0  0  0  0  0  0  0  0
   48.0496   31.2150   48.1266 H   0  0  0  0  0  0  0  0  0  0  0  0
   46.5935   30.3754   47.7110 H   0  0  0  0  0  0  0  0  0  0  0  0
   47.9188   32.7644   46.3661 H   0  0  0  0  0  0  0  0  0  0  0  0
   47.8319   30.4160   45.5263 H   0  0  0  0  0  0  0  0  0  0  0  0
   45.4013   30.0375   45.4774 H   0  0  0  0  0  0  0  0  0  0  0  0
   45.1021   31.7180   44.8833 H   0  0  0  0  0  0  0  0  0  0  0  0
   45.0634   29.5068   43.3041 H   0  0  0  0  0  0  0  0  0  0  0  0
   45.4742   31.1803   42.7395 H   0  0  0  0  0  0  0  0  0  0  0  0
   47.5061   29.1452   43.6944 H   0  0  0  0  0  0  0  0  0  0  0  0
   47.0767   29.4132   41.9810 H   0  0  0  0  0  0  0  0  0  0  0  0
   49.0894   30.7521   43.0188 H   0  0  0  0  0  0  0  0  0  0  0  0
   47.8918   31.6276   41.9912 H   0  0  0  0  0  0  0  0  0  0  0  0
   48.6625   32.5385   44.3989 H   0  0  0  0  0  0  0  0  0  0  0  0
   46.9944   32.7696   43.7562 H   0  0  0  0  0  0  0  0  0  0  0  0
  1  6  2  0
  2  1  1  0
  3  2  2  0
  3  4  1  0
  4  5  2  0
  5  6  1  0
  5  7  1  0
  7  8  1  0
  8  9  1  0
 10  9  1  0
 11  7  1  0
 11 10  1  0
 12 11  1  0
 13 12  1  0
 14 13  1  0
 15 14  1  0
 16 15  1  0
 16 17  1  0
 17 12  1  0
  1 18  1  0
  2 19  1  0
  3 20  1  0
  8 21  1  0
  8 22  1  0
  9 23  1  0
  9 24  1  0
 10 25  1  0
 10 26  1  0
 11 27  1  1
 12 28  1  0
 13 29  1  0
 13 30  1  0
 14 31  1  0
 14 32  1  0
 15 33  1  0
 15 34  1  0
 16 35  1  0
 16 36  1  0
 17 37  1  0
 17 38  1  0
M  ISO  8  18  14  19  14  20  14  21  13  22  13  23  13  24  13  25  13
M  ISO  8  26  13  27  13  28  13  29  13  30  13  31  13  32  13  33  13
M  ISO  5  34  13  35  13  36  13  37  13  38  13
M  END
>  <minimizedAffinity>  (1) 
-4.63587952

>  <minimizedRMSD>  (1) 
0.902648389

$$$$
