
     RDKit          3D

 35 37  0  0  1  0  0  0  0  0999 V2000
   44.4650   35.9060   44.7810 C   0  0  0  0  0  0  0  0  0  0  0  0
   44.7320   35.6460   43.4260 C   0  0  0  0  0  0  0  0  0  0  0  0
   45.4000   34.4440   43.1100 C   0  0  0  0  0  0  0  0  0  0  0  0
   45.7300   33.6350   44.1380 N   0  0  0  0  0  0  0  0  0  0  0  0
   45.4640   33.9070   45.4170 C   0  0  0  0  0  0  0  0  0  0  0  0
   44.8350   35.0390   45.7290 N   0  0  0  0  0  0  0  0  0  0  0  0
   45.8600   32.9880   46.3840 N   0  0  0  0  0  0  0  0  0  0  0  0
   45.1630   32.7120   47.6380 C   0  0  0  0  0  0  0  0  0  0  0  0
   46.3360   32.3620   48.5320 C   0  0  0  0  0  0  0  0  0  0  0  0
   47.0460   31.3710   47.6140 C   0  0  0  0  0  0  0  0  0  0  0  0
   47.0310   32.1390   46.3280 C   0  0  1  0  0  0  0  0  0  0  0  0
   47.1460   31.2860   45.1130 C   0  0  0  0  0  0  0  0  0  0  0  0
   45.7170   30.9540   44.6830 C   0  0  0  0  0  0  0  0  0  0  0  0
   45.9100   30.6760   43.1980 C   0  0  0  0  0  0  0  0  0  0  0  0
   46.8240   31.7830   42.7780 C   0  0  0  0  0  0  0  0  0  0  0  0
   47.8030   31.9270   43.9430 C   0  0  0  0  0  0  0  0  0  0  0  0
   43.9457   36.8333   45.0648 H   0  0  0  0  0  0  0  0  0  0  0  0
   44.4310   36.3542   42.6399 H   0  0  0  0  0  0  0  0  0  0  0  0
   45.6413   34.1780   42.0703 H   0  0  0  0  0  0  0  0  0  0  0  0
   44.6216   33.5963   48.0053 H   0  0  0  0  0  0  0  0  0  0  0  0
   44.3882   31.9340   47.5712 H   0  0  0  0  0  0  0  0  0  0  0  0
   46.9613   33.2391   48.7549 H   0  0  0  0  0  0  0  0  0  0  0  0
   46.0739   31.9797   49.5296 H   0  0  0  0  0  0  0  0  0  0  0  0
   48.0720   31.1652   47.9532 H   0  0  0  0  0  0  0  0  0  0  0  0
   46.5793   30.3763   47.5616 H   0  0  0  0  0  0  0  0  0  0  0  0
   47.9319   32.7619   46.2266 H   0  0  0  0  0  0  0  0  0  0  0  0
   47.7708   30.4238   45.3892 H   0  0  0  0  0  0  0  0  0  0  0  0
   45.3325   30.0694   45.2118 H   0  0  0  0  0  0  0  0  0  0  0  0
   44.9850   31.7453   44.9021 H   0  0  0  0  0  0  0  0  0  0  0  0
   46.3753   29.6927   43.0348 H   0  0  0  0  0  0  0  0  0  0  0  0
   44.9678   30.6462   42.6312 H   0  0  0  0  0  0  0  0  0  0  0  0
   47.3561   31.5189   41.8522 H   0  0  0  0  0  0  0  0  0  0  0  0
   46.2830   32.7170   42.5658 H   0  0  0  0  0  0  0  0  0  0  0  0
   48.7505   31.4187   43.7109 H   0  0  0  0  0  0  0  0  0  0  0  0
   48.0392   32.9827   44.1423 H   0  0  0  0  0  0  0  0  0  0  0  0
  1  6  2  0
  2  1  1  0
  3  2  2  0
  3  4  1  0
  4  5  2  0
  5  6  1  0
  5  7  1  0
  7  8  1  0
  8  9  1  0
 10  9  1  0
 11  7  1  0
 11 10  1  0
 12 11  1  0
 13 12  1  0
 14 13  1  0
 15 14  1  0
 15 16  1  0
 16 12  1  0
  1 17  1  0
  2 18  1  0
  3 19  1  0
  8 20  1  0
  8 21  1  0
  9 22  1  0
  9 23  1  0
 10 24  1  0
 10 25  1  0
 11 26  1  1
 12 27  1  0
 13 28  1  0
 13 29  1  0
 14 30  1  0
 14 31  1  0
 15 32  1  0
 15 33  1  0
 16 34  1  0
 16 35  1  0
M  ISO  8  17  14  18  14  19  14  20  13  21  13  22  13  23  13  24  13
M  ISO  8  25  13  26  13  27  13  28  13  29  13  30  13  31  13  32  13
M  ISO  3  33  13  34  13  35  13
M  END
>  <minimizedAffinity>  (1) 
-4.51184034

>  <minimizedRMSD>  (1) 
0.89140892

$$$$
