
     RDKit          3D

 49 53  0  0  1  0  0  0  0  0999 V2000
   46.0510   30.9820   43.3090 N   0  0  0  0  0  0  0  0  0  0  0  0
   44.8600   30.4100   43.6580 C   0  0  0  0  0  0  0  0  0  0  0  0
   44.2020   29.7830   42.4240 C   0  0  0  0  0  0  0  0  0  0  0  0
   44.2210   30.5720   41.3090 O   0  0  0  0  0  0  0  0  0  0  0  0
   45.4640   31.0610   41.0290 C   0  0  0  0  0  0  0  0  0  0  0  0
   46.1620   31.7590   42.2040 C   0  0  2  0  0  0  0  0  0  0  0  0
   44.6700   35.4980   45.1580 C   0  0  0  0  0  0  0  0  0  0  0  0
   44.2970   35.6130   43.7910 C   0  0  0  0  0  0  0  0  0  0  0  0
   44.5530   34.5120   42.9300 C   0  0  0  0  0  0  0  0  0  0  0  0
   45.1360   33.4590   43.5170 N   0  0  0  0  0  0  0  0  0  0  0  0
   45.4840   33.3570   44.7960 C   0  0  0  0  0  0  0  0  0  0  0  0
   45.2440   34.3850   45.6010 N   0  0  0  0  0  0  0  0  0  0  0  0
   46.0920   32.1750   45.2390 N   0  0  0  0  0  0  0  0  0  0  0  0
   45.9980   31.6190   46.5790 C   0  0  0  0  0  0  0  0  0  0  0  0
   47.3510   30.9330   46.6510 C   0  0  0  0  0  0  0  0  0  0  0  0
   47.3360   30.1910   45.3110 C   0  0  0  0  0  0  0  0  0  0  0  0
   46.9350   31.3010   44.4020 C   0  0  1  0  0  0  0  0  0  0  0  0
   47.6090   31.4480   41.8460 N   0  0  0  0  0  0  0  0  0  0  0  0
   47.9740   30.2660   41.3090 C   0  0  0  0  0  0  0  0  0  0  0  0
   49.3210   30.2410   41.0810 N   0  0  0  0  0  0  0  0  0  0  0  0
   49.7860   31.4260   41.4850 C   0  0  0  0  0  0  0  0  0  0  0  0
   51.0170   32.0400   41.5340 C   0  0  0  0  0  0  0  0  0  0  0  0
   52.0260   31.3820   41.1040 O   0  0  0  0  0  0  0  0  0  0  0  0
   51.1770   33.3000   42.0200 N   0  0  0  0  0  0  0  0  0  0  0  0
   50.0810   33.9780   42.4710 C   0  0  0  0  0  0  0  0  0  0  0  0
   50.3720   35.2940   42.9570 N   0  0  0  0  0  0  0  0  0  0  0  0
   48.8380   33.4270   42.4490 N   0  0  0  0  0  0  0  0  0  0  0  0
   48.7500   32.1710   41.9540 C   0  0  0  0  0  0  0  0  0  0  0  0
   45.0372   29.6299   44.4130 H   0  0  0  0  0  0  0  0  0  0  0  0
   44.1942   31.1822   44.0709 H   0  0  0  0  0  0  0  0  0  0  0  0
   44.7305   28.8467   42.1913 H   0  0  0  0  0  0  0  0  0  0  0  0
   43.1433   29.6277   42.6791 H   0  0  0  0  0  0  0  0  0  0  0  0
   46.0968   30.2215   40.7052 H   0  0  0  0  0  0  0  0  0  0  0  0
   45.3269   31.8271   40.2516 H   0  0  0  0  0  0  0  0  0  0  0  0
   45.8156   32.7914   42.3594 H   0  0  0  0  0  0  0  0  0  0  0  0
   44.4829   36.3322   45.8502 H   0  0  0  0  0  0  0  0  0  0  0  0
   43.8230   36.5296   43.4101 H   0  0  0  0  0  0  0  0  0  0  0  0
   44.2919   34.5238   41.8615 H   0  0  0  0  0  0  0  0  0  0  0  0
   45.8924   32.4027   47.3436 H   0  0  0  0  0  0  0  0  0  0  0  0
   45.1293   30.9689   46.7601 H   0  0  0  0  0  0  0  0  0  0  0  0
   48.1756   31.6588   46.7079 H   0  0  0  0  0  0  0  0  0  0  0  0
   47.5044   30.2963   47.5348 H   0  0  0  0  0  0  0  0  0  0  0  0
   48.3286   29.7923   45.0545 H   0  0  0  0  0  0  0  0  0  0  0  0
   46.6811   29.3078   45.2790 H   0  0  0  0  0  0  0  0  0  0  0  0
   47.8726   31.6837   43.9725 H   0  0  0  0  0  0  0  0  0  0  0  0
   47.2844   29.4385   41.0859 H   0  0  0  0  0  0  0  0  0  0  0  0
   52.1099   33.7358   42.0474 H   0  0  0  0  0  0  0  0  0  0  0  0
   49.6132   35.8885   43.3199 H   0  0  0  0  0  0  0  0  0  0  0  0
   51.3400   35.6456   42.9435 H   0  0  0  0  0  0  0  0  0  0  0  0
  1  2  1  0
  1 17  1  0
  3  2  1  0
  4  3  1  0
  5  4  1  0
  5  6  1  0
  6  1  1  0
  7 12  2  0
  8  7  1  0
  9 10  1  0
  9  8  2  0
 10 11  2  0
 11 13  1  0
 11 12  1  0
 13 14  1  0
 14 15  1  0
 16 15  1  0
 17 13  1  0
 17 16  1  0
 18 28  1  0
 18  6  1  0
 19 18  1  0
 20 19  2  0
 20 21  1  0
 21 22  1  0
 21 28  2  0
 22 24  1  0
 23 22  2  0
 24 25  1  0
 25 26  1  0
 27 25  2  0
 28 27  1  0
  2 29  1  0
  2 30  1  0
  3 31  1  0
  3 32  1  0
  5 33  1  0
  5 34  1  0
  6 35  1  1
  7 36  1  0
  8 37  1  0
  9 38  1  0
 14 39  1  0
 14 40  1  0
 15 41  1  0
 15 42  1  0
 16 43  1  0
 16 44  1  0
 17 45  1  6
 19 46  1  0
 24 47  1  0
 26 48  1  0
 26 49  1  0
M  ISO  8  29  13  30  13  31  13  32  13  33  13  34  13  35  13  36  14
M  ISO  8  37  14  38  14  39  13  40  13  41  13  42  13  43  13  44  13
M  ISO  3  45  13  46  14  47   9
M  END
>  <minimizedAffinity>  (1) 
-6.31113577

>  <minimizedRMSD>  (1) 
3.18853545

$$$$
