
     RDKit          3D

 39 42  0  0  0  0  0  0  0  0999 V2000
   46.7310   34.8250   42.0750 C   0  0  0  0  0  0  0  0  0  0  0  0
   47.9840   35.4090   42.0150 C   0  0  0  0  0  0  0  0  0  0  0  0
   48.8130   35.3360   40.9160 C   0  0  0  0  0  0  0  0  0  0  0  0
   48.3940   34.6520   39.8070 C   0  0  0  0  0  0  0  0  0  0  0  0
   47.1560   34.0460   39.8010 C   0  0  0  0  0  0  0  0  0  0  0  0
   46.7250   33.3630   38.6850 C   0  0  0  0  0  0  0  0  0  0  0  0
   45.4880   32.7520   38.6350 C   0  0  0  0  0  0  0  0  0  0  0  0
   44.7160   32.8730   39.7790 C   0  0  0  0  0  0  0  0  0  0  0  0
   45.1700   33.5530   40.8630 C   0  0  0  0  0  0  0  0  0  0  0  0
   46.3990   34.1660   40.9260 C   0  0  0  0  0  0  0  0  0  0  0  0
   44.4780   35.9850   44.9290 C   0  0  0  0  0  0  0  0  0  0  0  0
   45.1400   36.0020   43.7070 C   0  0  0  0  0  0  0  0  0  0  0  0
   45.9810   34.9790   43.2950 C   0  0  0  0  0  0  0  0  0  0  0  0
   46.0830   33.9730   44.2100 N   0  0  0  0  0  0  0  0  0  0  0  0
   45.4610   33.9380   45.3820 C   0  0  0  0  0  0  0  0  0  0  0  0
   44.6640   34.9380   45.7350 N   0  0  0  0  0  0  0  0  0  0  0  0
   45.6800   32.7570   46.2730 C   0  0  0  0  0  0  0  0  0  0  0  0
   47.1510   32.5350   46.5380 C   0  0  0  0  0  0  0  0  0  0  0  0
   47.3130   32.3800   48.0170 C   0  0  0  0  0  0  0  0  0  0  0  0
   45.9060   32.2760   48.5620 C   0  0  0  0  0  0  0  0  0  0  0  0
   45.1280   33.1540   47.6260 C   0  0  0  0  0  0  0  0  0  0  0  0
   48.3394   35.9640   42.8958 H   0  0  0  0  0  0  0  0  0  0  0  0
   49.7998   35.8218   40.9302 H   0  0  0  0  0  0  0  0  0  0  0  0
   49.0441   34.5860   38.9221 H   0  0  0  0  0  0  0  0  0  0  0  0
   47.3860   33.3027   37.8078 H   0  0  0  0  0  0  0  0  0  0  0  0
   45.1388   32.2057   37.7464 H   0  0  0  0  0  0  0  0  0  0  0  0
   43.7185   32.4104   39.8096 H   0  0  0  0  0  0  0  0  0  0  0  0
   44.5148   33.6173   41.7442 H   0  0  0  0  0  0  0  0  0  0  0  0
   43.8175   36.8136   45.2242 H   0  0  0  0  0  0  0  0  0  0  0  0
   44.9907   36.8628   43.0387 H   0  0  0  0  0  0  0  0  0  0  0  0
   45.2262   31.8690   45.8088 H   0  0  0  0  0  0  0  0  0  0  0  0
   47.4940   31.6253   46.0235 H   0  0  0  0  0  0  0  0  0  0  0  0
   47.7479   33.3804   46.1652 H   0  0  0  0  0  0  0  0  0  0  0  0
   47.8847   31.4693   48.2490 H   0  0  0  0  0  0  0  0  0  0  0  0
   47.8641   33.2224   48.4605 H   0  0  0  0  0  0  0  0  0  0  0  0
   45.5424   31.2384   48.5279 H   0  0  0  0  0  0  0  0  0  0  0  0
   45.8215   32.5768   49.6167 H   0  0  0  0  0  0  0  0  0  0  0  0
   45.3116   34.2185   47.8339 H   0  0  0  0  0  0  0  0  0  0  0  0
   44.0384   33.0290   47.7099 H   0  0  0  0  0  0  0  0  0  0  0  0
  1 13  1  0
  2  1  2  0
  3  2  1  0
  4  3  2  0
  5  4  1  0
  5 10  2  0
  6  5  1  0
  7  6  2  0
  7  8  1  0
  8  9  2  0
  9 10  1  0
 10  1  1  0
 11 16  2  0
 12 11  1  0
 13 12  2  0
 13 14  1  0
 14 15  2  0
 15 16  1  0
 15 17  1  0
 17 18  1  0
 17 21  1  0
 18 19  1  0
 19 20  1  0
 21 20  1  0
  2 22  1  0
  3 23  1  0
  4 24  1  0
  6 25  1  0
  7 26  1  0
  8 27  1  0
  9 28  1  0
 11 29  1  0
 12 30  1  0
 17 31  1  0
 18 32  1  0
 18 33  1  0
 19 34  1  0
 19 35  1  0
 20 36  1  0
 20 37  1  0
 21 38  1  0
 21 39  1  0
M  ISO  8  22  14  23  14  24  14  25  14  26  14  27  14  28  14  29  14
M  ISO  8  30  14  31  13  32  13  33  13  34  13  35  13  36  13  37  13
M  ISO  2  38  13  39  13
M  END
>  <minimizedAffinity>  (1) 
-6.78362608

>  <minimizedRMSD>  (1) 
0.305490524

$$$$
