
     RDKit          3D

 38 40  0  0  1  0  0  0  0  0999 V2000
   44.5630   35.4510   45.3220 C   0  0  0  0  0  0  0  0  0  0  0  0
   44.6870   36.3840   44.2550 C   0  0  0  0  0  0  0  0  0  0  0  0
   45.5080   36.0280   43.1490 C   0  0  0  0  0  0  0  0  0  0  0  0
   46.0890   34.8330   43.2260 N   0  0  0  0  0  0  0  0  0  0  0  0
   45.9650   33.9680   44.2300 C   0  0  0  0  0  0  0  0  0  0  0  0
   45.1980   34.2900   45.2740 N   0  0  0  0  0  0  0  0  0  0  0  0
   46.6490   32.7450   44.1550 N   0  0  0  0  0  0  0  0  0  0  0  0
   46.2220   31.4940   44.7600 C   0  0  0  0  0  0  0  0  0  0  0  0
   47.5600   30.8610   45.0230 C   0  0  0  0  0  0  0  0  0  0  0  0
   48.2280   31.0920   43.6550 C   0  0  0  0  0  0  0  0  0  0  0  0
   47.9250   32.5340   43.4450 C   0  0  1  0  0  0  0  0  0  0  0  0
   47.6160   32.9680   42.1190 N   0  0  0  0  0  0  0  0  0  0  0  0
   46.4440   32.4420   41.5830 C   0  0  0  0  0  0  0  0  0  0  0  0
   46.3840   32.6730   40.0820 C   0  0  0  0  0  0  0  0  0  0  0  0
   46.7810   33.9130   39.6660 O   0  0  0  0  0  0  0  0  0  0  0  0
   47.9600   34.3150   40.2160 C   0  0  0  0  0  0  0  0  0  0  0  0
   48.0410   34.1870   41.7390 C   0  0  2  0  0  0  0  0  0  0  0  0
   49.5670   33.9540   41.8970 C   0  0  0  0  0  0  0  0  0  0  0  0
   50.3240   34.7430   42.5210 O   0  0  0  0  0  0  0  0  0  0  0  0
   50.6670   33.1610   41.6360 O   0  0  0  0  0  0  0  0  0  0  0  0
   43.9359   35.6956   46.1920 H   0  0  0  0  0  0  0  0  0  0  0  0
   44.1639   37.3512   44.2843 H   0  0  0  0  0  0  0  0  0  0  0  0
   45.6530   36.6961   42.2873 H   0  0  0  0  0  0  0  0  0  0  0  0
   45.6597   31.6615   45.6905 H   0  0  0  0  0  0  0  0  0  0  0  0
   45.5375   30.8917   44.1446 H   0  0  0  0  0  0  0  0  0  0  0  0
   48.1014   31.3694   45.8344 H   0  0  0  0  0  0  0  0  0  0  0  0
   47.5235   29.8125   45.3535 H   0  0  0  0  0  0  0  0  0  0  0  0
   49.3115   30.9065   43.6957 H   0  0  0  0  0  0  0  0  0  0  0  0
   47.8728   30.4276   42.8535 H   0  0  0  0  0  0  0  0  0  0  0  0
   48.8306   33.0729   43.7604 H   0  0  0  0  0  0  0  0  0  0  0  0
   46.4098   31.3608   41.7829 H   0  0  0  0  0  0  0  0  0  0  0  0
   45.5857   32.9460   42.0512 H   0  0  0  0  0  0  0  0  0  0  0  0
   47.0322   31.9281   39.5972 H   0  0  0  0  0  0  0  0  0  0  0  0
   45.3240   32.5830   39.8023 H   0  0  0  0  0  0  0  0  0  0  0  0
   48.7653   33.7061   39.7792 H   0  0  0  0  0  0  0  0  0  0  0  0
   48.0530   35.3881   39.9926 H   0  0  0  0  0  0  0  0  0  0  0  0
   47.5219   35.0082   42.2549 H   0  0  0  0  0  0  0  0  0  0  0  0
   51.5599   33.4276   41.9702 H   0  0  0  0  0  0  0  0  0  0  0  0
  2  1  2  0
  3  4  2  0
  3  2  1  0
  4  5  1  0
  5  6  2  0
  6  1  1  0
  7  5  1  0
  7  8  1  0
  8  9  1  0
 10  9  1  0
 11 10  1  0
 11  7  1  0
 12 13  1  0
 12 11  1  0
 14 13  1  0
 15 14  1  0
 15 16  1  0
 16 17  1  0
 17 18  1  0
 17 12  1  0
 18 19  2  0
 20 18  1  0
  1 21  1  0
  2 22  1  0
  3 23  1  0
  8 24  1  0
  8 25  1  0
  9 26  1  0
  9 27  1  0
 10 28  1  0
 10 29  1  0
 11 30  1  1
 13 31  1  0
 13 32  1  0
 14 33  1  0
 14 34  1  0
 16 35  1  0
 16 36  1  0
 17 37  1  1
 20 38  1  0
M  ISO  8  21  14  22  14  23  14  24  13  25  13  26  13  27  13  28  13
M  ISO  8  29  13  30  13  31  13  32  13  33  13  34  13  35  13  36  13
M  ISO  2  37  13  38   3
M  END
>  <minimizedAffinity>  (1) 
-5.13710165

>  <minimizedRMSD>  (1) 
3.30370164

$$$$
