
     RDKit          3D

 33 36  0  0  0  0  0  0  0  0999 V2000
   46.7550   34.8100   42.0450 C   0  0  0  0  0  0  0  0  0  0  0  0
   48.0010   35.4110   41.9650 C   0  0  0  0  0  0  0  0  0  0  0  0
   48.8230   35.3520   40.8610 C   0  0  0  0  0  0  0  0  0  0  0  0
   48.4000   34.6600   39.7640 C   0  0  0  0  0  0  0  0  0  0  0  0
   47.1790   34.0390   39.7650 C   0  0  0  0  0  0  0  0  0  0  0  0
   46.7350   33.3400   38.6560 C   0  0  0  0  0  0  0  0  0  0  0  0
   45.5070   32.7080   38.6210 C   0  0  0  0  0  0  0  0  0  0  0  0
   44.7500   32.8230   39.7760 C   0  0  0  0  0  0  0  0  0  0  0  0
   45.1990   33.5110   40.8550 C   0  0  0  0  0  0  0  0  0  0  0  0
   46.4140   34.1390   40.8940 C   0  0  0  0  0  0  0  0  0  0  0  0
   44.4170   35.8870   44.8670 C   0  0  0  0  0  0  0  0  0  0  0  0
   45.0440   35.8920   43.6250 C   0  0  0  0  0  0  0  0  0  0  0  0
   46.0160   34.9600   43.2650 C   0  0  0  0  0  0  0  0  0  0  0  0
   46.2810   34.0540   44.2510 N   0  0  0  0  0  0  0  0  0  0  0  0
   45.6860   34.0380   45.4440 C   0  0  0  0  0  0  0  0  0  0  0  0
   44.7670   34.9510   45.7350 N   0  0  0  0  0  0  0  0  0  0  0  0
   46.0200   33.0350   46.4540 C   0  0  0  0  0  0  0  0  0  0  0  0
   45.2090   32.9520   47.5700 C   0  0  0  0  0  0  0  0  0  0  0  0
   45.7490   31.9310   48.3520 C   0  0  0  0  0  0  0  0  0  0  0  0
   46.8540   31.4580   47.6630 C   0  0  0  0  0  0  0  0  0  0  0  0
   46.9840   32.1310   46.5480 O   0  0  0  0  0  0  0  0  0  0  0  0
   48.3575   35.9725   42.8412 H   0  0  0  0  0  0  0  0  0  0  0  0
   49.8020   35.8535   40.8640 H   0  0  0  0  0  0  0  0  0  0  0  0
   49.0431   34.6004   38.8736 H   0  0  0  0  0  0  0  0  0  0  0  0
   47.3840   33.2856   37.7695 H   0  0  0  0  0  0  0  0  0  0  0  0
   45.1551   32.1529   37.7389 H   0  0  0  0  0  0  0  0  0  0  0  0
   43.7605   32.3444   39.8187 H   0  0  0  0  0  0  0  0  0  0  0  0
   44.5536   33.5670   41.7440 H   0  0  0  0  0  0  0  0  0  0  0  0
   43.6539   36.6378   45.1198 H   0  0  0  0  0  0  0  0  0  0  0  0
   44.7604   36.6649   42.8955 H   0  0  0  0  0  0  0  0  0  0  0  0
   44.3227   33.5635   47.7947 H   0  0  0  0  0  0  0  0  0  0  0  0
   45.3728   31.5730   49.3217 H   0  0  0  0  0  0  0  0  0  0  0  0
   47.5162   30.6466   47.9993 H   0  0  0  0  0  0  0  0  0  0  0  0
  1 13  1  0
  2  1  2  0
  3  2  1  0
  4  5  1  0
  4  3  2  0
  5 10  2  0
  6  5  1  0
  7  6  2  0
  7  8  1  0
  8  9  2  0
  9 10  1  0
 10  1  1  0
 11 16  2  0
 12 11  1  0
 13 12  2  0
 13 14  1  0
 14 15  2  0
 15 16  1  0
 15 17  1  0
 17 21  1  0
 17 18  2  0
 18 19  1  0
 20 19  2  0
 21 20  1  0
  2 22  1  0
  3 23  1  0
  4 24  1  0
  6 25  1  0
  7 26  1  0
  8 27  1  0
  9 28  1  0
 11 29  1  0
 12 30  1  0
 18 31  1  0
 19 32  1  0
 20 33  1  0
M  ISO  8  22  14  23  14  24  14  25  14  26  14  27  14  28  14  29  14
M  ISO  4  30  14  31  14  32  14  33  14
M  END
>  <minimizedAffinity>  (1) 
-6.77180862

>  <minimizedRMSD>  (1) 
0.219252437

$$$$
