
     RDKit          3D

 50 53  0  0  1  0  0  0  0  0999 V2000
   44.4460   35.9740   44.7750 C   0  0  0  0  0  0  0  0  0  0  0  0
   44.4080   35.9630   43.3560 C   0  0  0  0  0  0  0  0  0  0  0  0
   44.9800   34.8450   42.6800 C   0  0  0  0  0  0  0  0  0  0  0  0
   45.5020   33.9080   43.4710 N   0  0  0  0  0  0  0  0  0  0  0  0
   45.5320   33.9300   44.8000 C   0  0  0  0  0  0  0  0  0  0  0  0
   44.9980   34.9710   45.4240 N   0  0  0  0  0  0  0  0  0  0  0  0
   46.1300   32.8700   45.4810 N   0  0  0  0  0  0  0  0  0  0  0  0
   45.7660   32.3920   46.8040 C   0  0  0  0  0  0  0  0  0  0  0  0
   47.1170   31.8880   47.2750 C   0  0  0  0  0  0  0  0  0  0  0  0
   47.5210   31.0680   46.0410 C   0  0  0  0  0  0  0  0  0  0  0  0
   47.2500   32.0580   44.9660 C   0  0  1  0  0  0  0  0  0  0  0  0
   46.7430   31.5740   43.7160 N   0  0  0  0  0  0  0  0  0  0  0  0
   45.5300   30.8880   43.8140 C   0  0  0  0  0  0  0  0  0  0  0  0
   45.2450   30.1160   42.5390 C   0  0  0  0  0  0  0  0  0  0  0  0
   45.5100   30.8000   41.3740 O   0  0  0  0  0  0  0  0  0  0  0  0
   46.7680   31.3440   41.3890 C   0  0  0  0  0  0  0  0  0  0  0  0
   47.0380   32.2560   42.5980 C   0  0  2  0  0  0  0  0  0  0  0  0
   48.5300   32.2480   42.6460 N   0  0  0  0  0  0  0  0  0  0  0  0
   49.1790   33.4290   42.9090 C   0  0  0  0  0  0  0  0  0  0  0  0
   50.5810   33.3710   42.3400 C   0  0  0  0  0  0  0  0  0  0  0  0
   50.8210   32.2130   41.4050 C   0  0  0  0  0  0  0  0  0  0  0  0
   50.2970   30.8910   41.9100 C   0  0  0  0  0  0  0  0  0  0  0  0
   49.1490   31.0270   42.8840 C   0  0  0  0  0  0  0  0  0  0  0  0
   44.0148   36.8194   45.3312 H   0  0  0  0  0  0  0  0  0  0  0  0
   43.9513   36.7916   42.7949 H   0  0  0  0  0  0  0  0  0  0  0  0
   44.9896   34.7620   41.5832 H   0  0  0  0  0  0  0  0  0  0  0  0
   45.3865   33.2034   47.4424 H   0  0  0  0  0  0  0  0  0  0  0  0
   44.9576   31.6463   46.8240 H   0  0  0  0  0  0  0  0  0  0  0  0
   47.8188   32.7127   47.4683 H   0  0  0  0  0  0  0  0  0  0  0  0
   47.1064   31.3333   48.2248 H   0  0  0  0  0  0  0  0  0  0  0  0
   48.5825   30.7811   46.0723 H   0  0  0  0  0  0  0  0  0  0  0  0
   46.9912   30.1104   45.9301 H   0  0  0  0  0  0  0  0  0  0  0  0
   48.2207   32.5315   44.7574 H   0  0  0  0  0  0  0  0  0  0  0  0
   45.5803   30.1846   44.6582 H   0  0  0  0  0  0  0  0  0  0  0  0
   44.7229   31.6183   43.9728 H   0  0  0  0  0  0  0  0  0  0  0  0
   45.8604   29.2043   42.5471 H   0  0  0  0  0  0  0  0  0  0  0  0
   44.1640   29.9127   42.5374 H   0  0  0  0  0  0  0  0  0  0  0  0
   47.5002   30.5232   41.4039 H   0  0  0  0  0  0  0  0  0  0  0  0
   46.8554   31.9714   40.4897 H   0  0  0  0  0  0  0  0  0  0  0  0
   46.5118   33.2195   42.5292 H   0  0  0  0  0  0  0  0  0  0  0  0
   48.6290   34.2610   42.4451 H   0  0  0  0  0  0  0  0  0  0  0  0
   49.2305   33.5852   43.9966 H   0  0  0  0  0  0  0  0  0  0  0  0
   50.7684   34.3042   41.7886 H   0  0  0  0  0  0  0  0  0  0  0  0
   51.2628   33.2355   43.1925 H   0  0  0  0  0  0  0  0  0  0  0  0
   51.9053   32.1165   41.2467 H   0  0  0  0  0  0  0  0  0  0  0  0
   50.2730   32.4367   40.4778 H   0  0  0  0  0  0  0  0  0  0  0  0
   49.9533   30.3009   41.0476 H   0  0  0  0  0  0  0  0  0  0  0  0
   51.1216   30.4022   42.4496 H   0  0  0  0  0  0  0  0  0  0  0  0
   49.5285   30.9951   43.9160 H   0  0  0  0  0  0  0  0  0  0  0  0
   48.4336   30.2021   42.7510 H   0  0  0  0  0  0  0  0  0  0  0  0
  1  6  2  0
  2  1  1  0
  3  2  2  0
  3  4  1  0
  4  5  2  0
  5  6  1  0
  5  7  1  0
  7  8  1  0
  8  9  1  0
 10  9  1  0
 11  7  1  0
 11 10  1  0
 12 13  1  0
 12 11  1  0
 14 13  1  0
 15 16  1  0
 15 14  1  0
 16 17  1  0
 17 18  1  0
 17 12  1  0
 18 23  1  0
 18 19  1  0
 20 19  1  0
 21 22  1  0
 21 20  1  0
 22 23  1  0
  1 24  1  0
  2 25  1  0
  3 26  1  0
  8 27  1  0
  8 28  1  0
  9 29  1  0
  9 30  1  0
 10 31  1  0
 10 32  1  0
 11 33  1  6
 13 34  1  0
 13 35  1  0
 14 36  1  0
 14 37  1  0
 16 38  1  0
 16 39  1  0
 17 40  1  6
 19 41  1  0
 19 42  1  0
 20 43  1  0
 20 44  1  0
 21 45  1  0
 21 46  1  0
 22 47  1  0
 22 48  1  0
 23 49  1  0
 23 50  1  0
M  ISO  8  24  14  25  14  26  14  27  13  28  13  29  13  30  13  31  13
M  ISO  8  32  13  33  13  34  13  35  13  36  13  37  13  38  13  39  13
M  ISO  8  40  13  41  13  42  13  43  13  44  13  45  13  46  13  47  13
M  ISO  3  48  13  49  13  50  13
M  END
>  <minimizedAffinity>  (1) 
-4.95161343

>  <minimizedRMSD>  (1) 
2.01313424

$$$$
