
     RDKit          3D

 51 54  0  0  1  0  0  0  0  0999 V2000
   44.4300   35.9690   44.7450 C   0  0  0  0  0  0  0  0  0  0  0  0
   44.4180   35.8370   43.3190 C   0  0  0  0  0  0  0  0  0  0  0  0
   44.9900   34.6730   42.7560 C   0  0  0  0  0  0  0  0  0  0  0  0
   45.4920   33.8000   43.6220 N   0  0  0  0  0  0  0  0  0  0  0  0
   45.5010   33.9290   44.9450 C   0  0  0  0  0  0  0  0  0  0  0  0
   44.9650   35.0190   45.4880 N   0  0  0  0  0  0  0  0  0  0  0  0
   46.0760   32.9190   45.7180 N   0  0  0  0  0  0  0  0  0  0  0  0
   45.7000   32.5470   47.0750 C   0  0  0  0  0  0  0  0  0  0  0  0
   47.0500   32.0790   47.5910 C   0  0  0  0  0  0  0  0  0  0  0  0
   47.4550   31.1550   46.4370 C   0  0  0  0  0  0  0  0  0  0  0  0
   47.1860   32.0500   45.2770 C   0  0  1  0  0  0  0  0  0  0  0  0
   46.6870   31.4620   44.0780 N   0  0  0  0  0  0  0  0  0  0  0  0
   45.4310   30.8810   44.2110 C   0  0  0  0  0  0  0  0  0  0  0  0
   45.1290   29.9970   43.0070 C   0  0  0  0  0  0  0  0  0  0  0  0
   45.4070   30.5430   41.7960 O   0  0  0  0  0  0  0  0  0  0  0  0
   46.6830   31.0590   41.7360 C   0  0  0  0  0  0  0  0  0  0  0  0
   47.0470   31.9950   42.8890 C   0  0  2  0  0  0  0  0  0  0  0  0
   48.6020   31.7300   42.8960 C   0  0  0  0  0  0  0  0  0  0  0  0
   49.3130   32.6710   41.9470 C   0  0  0  0  0  0  0  0  0  0  0  0
   50.7810   32.5350   42.3250 C   0  0  0  0  0  0  0  0  0  0  0  0
   51.2670   31.1390   42.4380 C   0  0  0  0  0  0  0  0  0  0  0  0
   50.3720   30.1910   43.1990 C   0  0  0  0  0  0  0  0  0  0  0  0
   48.9780   30.3630   42.5500 C   0  0  0  0  0  0  0  0  0  0  0  0
   43.9942   36.8604   45.2198 H   0  0  0  0  0  0  0  0  0  0  0  0
   43.9772   36.6174   42.6812 H   0  0  0  0  0  0  0  0  0  0  0  0
   45.0175   34.5013   41.6698 H   0  0  0  0  0  0  0  0  0  0  0  0
   45.3186   33.4068   47.6452 H   0  0  0  0  0  0  0  0  0  0  0  0
   44.8888   31.8078   47.1497 H   0  0  0  0  0  0  0  0  0  0  0  0
   47.7545   32.9148   47.7142 H   0  0  0  0  0  0  0  0  0  0  0  0
   47.0338   31.6077   48.5848 H   0  0  0  0  0  0  0  0  0  0  0  0
   48.5162   30.8712   46.4953 H   0  0  0  0  0  0  0  0  0  0  0  0
   46.9252   30.1914   46.4093 H   0  0  0  0  0  0  0  0  0  0  0  0
   48.1588   32.4989   45.0275 H   0  0  0  0  0  0  0  0  0  0  0  0
   45.4086   30.2696   45.1252 H   0  0  0  0  0  0  0  0  0  0  0  0
   44.6729   31.6757   44.2715 H   0  0  0  0  0  0  0  0  0  0  0  0
   45.7206   29.0750   43.1068 H   0  0  0  0  0  0  0  0  0  0  0  0
   44.0418   29.8303   43.0203 H   0  0  0  0  0  0  0  0  0  0  0  0
   47.3931   30.2189   41.7390 H   0  0  0  0  0  0  0  0  0  0  0  0
   46.7319   31.6626   40.8177 H   0  0  0  0  0  0  0  0  0  0  0  0
   46.6320   33.0075   42.7770 H   0  0  0  0  0  0  0  0  0  0  0  0
   48.9117   31.9063   43.9367 H   0  0  0  0  0  0  0  0  0  0  0  0
   48.9667   33.7053   42.0894 H   0  0  0  0  0  0  0  0  0  0  0  0
   49.1237   32.4299   40.8906 H   0  0  0  0  0  0  0  0  0  0  0  0
   51.3808   33.0451   41.5569 H   0  0  0  0  0  0  0  0  0  0  0  0
   50.8860   32.9814   43.3249 H   0  0  0  0  0  0  0  0  0  0  0  0
   51.3914   30.7416   41.4199 H   0  0  0  0  0  0  0  0  0  0  0  0
   52.2023   31.1942   43.0144 H   0  0  0  0  0  0  0  0  0  0  0  0
   50.7246   29.1545   43.0924 H   0  0  0  0  0  0  0  0  0  0  0  0
   50.3588   30.4057   44.2778 H   0  0  0  0  0  0  0  0  0  0  0  0
   48.2597   29.6413   42.9662 H   0  0  0  0  0  0  0  0  0  0  0  0
   48.9881   30.1853   41.4645 H   0  0  0  0  0  0  0  0  0  0  0  0
  1  6  2  0
  2  1  1  0
  3  2  2  0
  3  4  1  0
  4  5  2  0
  5  6  1  0
  5  7  1  0
  7  8  1  0
  8  9  1  0
 10  9  1  0
 11  7  1  0
 11 10  1  0
 12 13  1  0
 12 11  1  0
 14 13  1  0
 15 14  1  0
 16 15  1  0
 16 17  1  0
 17 18  1  0
 17 12  1  0
 19 20  1  0
 19 18  1  0
 20 21  1  0
 21 22  1  0
 23 18  1  0
 23 22  1  0
  1 24  1  0
  2 25  1  0
  3 26  1  0
  8 27  1  0
  8 28  1  0
  9 29  1  0
  9 30  1  0
 10 31  1  0
 10 32  1  0
 11 33  1  6
 13 34  1  0
 13 35  1  0
 14 36  1  0
 14 37  1  0
 16 38  1  0
 16 39  1  0
 17 40  1  6
 18 41  1  0
 19 42  1  0
 19 43  1  0
 20 44  1  0
 20 45  1  0
 21 46  1  0
 21 47  1  0
 22 48  1  0
 22 49  1  0
 23 50  1  0
 23 51  1  0
M  ISO  8  24  14  25  14  26  14  27  13  28  13  29  13  30  13  31  13
M  ISO  8  32  13  33  13  34  13  35  13  36  13  37  13  38  13  39  13
M  ISO  8  40  13  41  13  42  13  43  13  44  13  45  13  46  13  47  13
M  ISO  4  48  13  49  13  50  13  51  13
M  END
>  <minimizedAffinity>  (1) 
-4.94372988

>  <minimizedRMSD>  (1) 
1.62283301

$$$$
