
     RDKit          3D

 48 51  0  0  1  0  0  0  0  0999 V2000
   44.4150   35.9080   44.6710 C   0  0  0  0  0  0  0  0  0  0  0  0
   44.3980   35.6790   43.2640 C   0  0  0  0  0  0  0  0  0  0  0  0
   44.9650   34.4730   42.7810 C   0  0  0  0  0  0  0  0  0  0  0  0
   45.4660   33.6630   43.7140 N   0  0  0  0  0  0  0  0  0  0  0  0
   45.4810   33.8790   45.0210 C   0  0  0  0  0  0  0  0  0  0  0  0
   44.9500   35.0090   45.4780 N   0  0  0  0  0  0  0  0  0  0  0  0
   46.0630   32.9200   45.8610 N   0  0  0  0  0  0  0  0  0  0  0  0
   45.6620   32.6570   47.2330 C   0  0  0  0  0  0  0  0  0  0  0  0
   46.9690   32.2040   47.8060 C   0  0  0  0  0  0  0  0  0  0  0  0
   47.3970   31.2060   46.7140 C   0  0  0  0  0  0  0  0  0  0  0  0
   47.1770   32.0290   45.4870 C   0  0  1  0  0  0  0  0  0  0  0  0
   46.6780   31.3690   44.3240 N   0  0  0  0  0  0  0  0  0  0  0  0
   45.4350   30.7670   44.4830 C   0  0  0  0  0  0  0  0  0  0  0  0
   45.1290   29.8220   43.3340 C   0  0  0  0  0  0  0  0  0  0  0  0
   45.4600   30.2760   42.1020 O   0  0  0  0  0  0  0  0  0  0  0  0
   46.7050   30.8320   42.0190 C   0  0  0  0  0  0  0  0  0  0  0  0
   47.0360   31.8520   43.1130 C   0  0  2  0  0  0  0  0  0  0  0  0
   48.5310   31.6900   43.1640 N   0  0  0  0  0  0  0  0  0  0  0  0
   49.0350   30.4290   42.9240 C   0  0  0  0  0  0  0  0  0  0  0  0
   50.2920   30.5440   42.0440 C   0  0  0  0  0  0  0  0  0  0  0  0
   50.1260   31.3360   40.9410 O   0  0  0  0  0  0  0  0  0  0  0  0
   49.9020   32.6320   41.3220 C   0  0  0  0  0  0  0  0  0  0  0  0
   49.2480   32.8030   42.6390 C   0  0  0  0  0  0  0  0  0  0  0  0
   43.9834   36.8316   45.0841 H   0  0  0  0  0  0  0  0  0  0  0  0
   43.9586   36.4151   42.5748 H   0  0  0  0  0  0  0  0  0  0  0  0
   44.9899   34.2226   41.7102 H   0  0  0  0  0  0  0  0  0  0  0  0
   45.2913   33.5652   47.7308 H   0  0  0  0  0  0  0  0  0  0  0  0
   44.8352   31.9400   47.3438 H   0  0  0  0  0  0  0  0  0  0  0  0
   47.6832   33.0348   47.9046 H   0  0  0  0  0  0  0  0  0  0  0  0
   46.9140   31.7882   48.8229 H   0  0  0  0  0  0  0  0  0  0  0  0
   48.4519   30.9138   46.8226 H   0  0  0  0  0  0  0  0  0  0  0  0
   46.8509   30.2512   46.7280 H   0  0  0  0  0  0  0  0  0  0  0  0
   48.1584   32.4483   45.2204 H   0  0  0  0  0  0  0  0  0  0  0  0
   45.4296   30.1993   45.4251 H   0  0  0  0  0  0  0  0  0  0  0  0
   44.6671   31.5545   44.4990 H   0  0  0  0  0  0  0  0  0  0  0  0
   45.6793   28.8859   43.5094 H   0  0  0  0  0  0  0  0  0  0  0  0
   44.0359   29.6991   43.3270 H   0  0  0  0  0  0  0  0  0  0  0  0
   47.4451   30.0201   42.0750 H   0  0  0  0  0  0  0  0  0  0  0  0
   46.7309   31.3840   41.0679 H   0  0  0  0  0  0  0  0  0  0  0  0
   46.5884   32.8391   42.9249 H   0  0  0  0  0  0  0  0  0  0  0  0
   49.2973   29.9500   43.8789 H   0  0  0  0  0  0  0  0  0  0  0  0
   48.2775   29.8210   42.4077 H   0  0  0  0  0  0  0  0  0  0  0  0
   51.1044   30.9657   42.6540 H   0  0  0  0  0  0  0  0  0  0  0  0
   50.5197   29.5317   41.6788 H   0  0  0  0  0  0  0  0  0  0  0  0
   50.8727   33.1484   41.3556 H   0  0  0  0  0  0  0  0  0  0  0  0
   49.2044   33.0494   40.5809 H   0  0  0  0  0  0  0  0  0  0  0  0
   50.0320   33.0629   43.3655 H   0  0  0  0  0  0  0  0  0  0  0  0
   48.4845   33.5778   42.4755 H   0  0  0  0  0  0  0  0  0  0  0  0
  1  6  2  0
  2  1  1  0
  3  2  2  0
  3  4  1  0
  4  5  2  0
  5  6  1  0
  5  7  1  0
  7  8  1  0
  8  9  1  0
 10  9  1  0
 11  7  1  0
 11 10  1  0
 12 13  1  0
 12 11  1  0
 14 13  1  0
 15 14  1  0
 16 15  1  0
 16 17  1  0
 17 18  1  0
 17 12  1  0
 19 18  1  0
 20 19  1  0
 21 22  1  0
 21 20  1  0
 22 23  1  0
 23 18  1  0
  1 24  1  0
  2 25  1  0
  3 26  1  0
  8 27  1  0
  8 28  1  0
  9 29  1  0
  9 30  1  0
 10 31  1  0
 10 32  1  0
 11 33  1  6
 13 34  1  0
 13 35  1  0
 14 36  1  0
 14 37  1  0
 16 38  1  0
 16 39  1  0
 17 40  1  6
 19 41  1  0
 19 42  1  0
 20 43  1  0
 20 44  1  0
 22 45  1  0
 22 46  1  0
 23 47  1  0
 23 48  1  0
M  ISO  8  24  14  25  14  26  14  27  13  28  13  29  13  30  13  31  13
M  ISO  8  32  13  33  13  34  13  35  13  36  13  37  13  38  13  39  13
M  ISO  8  40  13  41  13  42  13  43  13  44  13  45  13  46  13  47  13
M  ISO  1  48  13
M  END
>  <minimizedAffinity>  (1) 
-4.74381304

>  <minimizedRMSD>  (1) 
1.73182142

$$$$
