
     RDKit          3D

 42 45  0  0  1  0  0  0  0  0999 V2000
   44.4520   35.9720   44.8440 C   0  0  0  0  0  0  0  0  0  0  0  0
   44.3920   35.9650   43.4210 C   0  0  0  0  0  0  0  0  0  0  0  0
   44.9470   34.8460   42.7260 C   0  0  0  0  0  0  0  0  0  0  0  0
   45.4780   33.9030   43.5020 N   0  0  0  0  0  0  0  0  0  0  0  0
   45.5280   33.9220   44.8320 C   0  0  0  0  0  0  0  0  0  0  0  0
   45.0110   34.9630   45.4820 N   0  0  0  0  0  0  0  0  0  0  0  0
   46.1220   32.8470   45.5020 N   0  0  0  0  0  0  0  0  0  0  0  0
   45.7860   32.3760   46.8390 C   0  0  0  0  0  0  0  0  0  0  0  0
   47.1310   31.8320   47.2710 C   0  0  0  0  0  0  0  0  0  0  0  0
   47.4800   31.0080   46.0360 C   0  0  0  0  0  0  0  0  0  0  0  0
   47.1940   32.0080   44.9630 C   0  0  1  0  0  0  0  0  0  0  0  0
   46.6440   31.5090   43.7330 N   0  0  0  0  0  0  0  0  0  0  0  0
   45.3830   30.9400   43.8560 C   0  0  0  0  0  0  0  0  0  0  0  0
   45.0390   30.1620   42.5920 C   0  0  0  0  0  0  0  0  0  0  0  0
   45.3350   30.7990   41.4180 O   0  0  0  0  0  0  0  0  0  0  0  0
   46.6090   31.2950   41.3890 C   0  0  0  0  0  0  0  0  0  0  0  0
   46.9680   32.1560   42.6020 C   0  0  2  0  0  0  0  0  0  0  0  0
   48.6200   31.8370   42.5800 C   0  0  0  0  0  0  0  0  0  0  0  0
   49.4100   32.8040   42.3700 C   0  0  0  0  0  0  0  0  0  0  0  0
   50.7630   32.5720   42.3480 C   0  0  0  0  0  0  0  0  0  0  0  0
   51.1600   31.2330   42.5710 C   0  0  0  0  0  0  0  0  0  0  0  0
   49.4830   30.3740   42.8020 S   0  0  0  0  0  0  0  0  0  0  0  0
   44.0328   36.8174   45.4093 H   0  0  0  0  0  0  0  0  0  0  0  0
   43.9307   36.7987   42.8713 H   0  0  0  0  0  0  0  0  0  0  0  0
   44.9363   34.7693   41.6287 H   0  0  0  0  0  0  0  0  0  0  0  0
   45.4499   33.1974   47.4889 H   0  0  0  0  0  0  0  0  0  0  0  0
   44.9582   31.6529   46.8813 H   0  0  0  0  0  0  0  0  0  0  0  0
   47.8609   32.6358   47.4473 H   0  0  0  0  0  0  0  0  0  0  0  0
   47.1270   31.2744   48.2192 H   0  0  0  0  0  0  0  0  0  0  0  0
   48.5363   30.7009   46.0360 H   0  0  0  0  0  0  0  0  0  0  0  0
   46.9298   30.0601   45.9425 H   0  0  0  0  0  0  0  0  0  0  0  0
   48.1615   32.4725   44.7219 H   0  0  0  0  0  0  0  0  0  0  0  0
   45.3736   30.2572   44.7184 H   0  0  0  0  0  0  0  0  0  0  0  0
   44.6393   31.7368   44.0042 H   0  0  0  0  0  0  0  0  0  0  0  0
   45.5953   29.2133   42.6142 H   0  0  0  0  0  0  0  0  0  0  0  0
   43.9469   30.0309   42.6016 H   0  0  0  0  0  0  0  0  0  0  0  0
   47.3094   30.4479   41.3463 H   0  0  0  0  0  0  0  0  0  0  0  0
   46.6778   31.9455   40.5046 H   0  0  0  0  0  0  0  0  0  0  0  0
   46.5510   33.1734   42.5718 H   0  0  0  0  0  0  0  0  0  0  0  0
   49.0168   33.8183   42.2071 H   0  0  0  0  0  0  0  0  0  0  0  0
   51.4917   33.3762   42.1684 H   0  0  0  0  0  0  0  0  0  0  0  0
   52.1721   30.8033   42.6023 H   0  0  0  0  0  0  0  0  0  0  0  0
  1  6  2  0
  2  1  1  0
  3  2  2  0
  3  4  1  0
  4  5  2  0
  5  6  1  0
  5  7  1  0
  7  8  1  0
  8  9  1  0
 10  9  1  0
 11  7  1  0
 11 10  1  0
 12 13  1  0
 12 11  1  0
 14 13  1  0
 15 14  1  0
 16 15  1  0
 16 17  1  0
 17 12  1  0
 18 17  1  0
 18 22  1  0
 19 18  2  0
 20 19  1  0
 20 21  2  0
 21 22  1  0
  1 23  1  0
  2 24  1  0
  3 25  1  0
  8 26  1  0
  8 27  1  0
  9 28  1  0
  9 29  1  0
 10 30  1  0
 10 31  1  0
 11 32  1  6
 13 33  1  0
 13 34  1  0
 14 35  1  0
 14 36  1  0
 16 37  1  0
 16 38  1  0
 17 39  1  6
 19 40  1  0
 20 41  1  0
 21 42  1  0
M  ISO  8  23  14  24  14  25  14  26  13  27  13  28  13  29  13  30  13
M  ISO  8  31  13  32  13  33  13  34  13  35  13  36  13  37  13  38  13
M  ISO  4  39  13  40  14  41  14  42  14
M  END
>  <minimizedAffinity>  (1) 
-4.6118865

>  <minimizedRMSD>  (1) 
1.83805728

$$$$
