
     RDKit          3D

 47 49  0  0  1  0  0  0  0  0999 V2000
   44.4130   35.9690   44.6710 C   0  0  0  0  0  0  0  0  0  0  0  0
   44.3160   35.7570   43.2590 C   0  0  0  0  0  0  0  0  0  0  0  0
   44.8260   34.5440   42.7270 C   0  0  0  0  0  0  0  0  0  0  0  0
   45.3570   33.7110   43.6340 N   0  0  0  0  0  0  0  0  0  0  0  0
   45.4450   33.9120   44.9400 C   0  0  0  0  0  0  0  0  0  0  0  0
   44.9660   35.0480   45.4400 N   0  0  0  0  0  0  0  0  0  0  0  0
   46.0350   32.9360   45.7380 N   0  0  0  0  0  0  0  0  0  0  0  0
   45.7210   32.6540   47.1250 C   0  0  0  0  0  0  0  0  0  0  0  0
   47.0800   32.1820   47.6090 C   0  0  0  0  0  0  0  0  0  0  0  0
   47.3670   31.1450   46.5120 C   0  0  0  0  0  0  0  0  0  0  0  0
   47.1060   32.0090   45.3130 C   0  0  1  0  0  0  0  0  0  0  0  0
   46.6060   31.4170   44.1320 N   0  0  0  0  0  0  0  0  0  0  0  0
   45.3800   30.7380   44.3720 C   0  0  0  0  0  0  0  0  0  0  0  0
   45.0230   29.8040   43.2460 C   0  0  0  0  0  0  0  0  0  0  0  0
   45.2190   30.2920   41.9990 O   0  0  0  0  0  0  0  0  0  0  0  0
   46.4720   30.8300   41.8700 C   0  0  0  0  0  0  0  0  0  0  0  0
   46.8200   31.9040   42.9100 C   0  0  2  0  0  0  0  0  0  0  0  0
   48.3620   31.9940   42.6170 C   0  0  0  0  0  0  0  0  0  0  0  0
   49.0970   30.8090   43.1060 C   0  0  0  0  0  0  0  0  0  0  0  0
   48.9470   33.3340   42.8610 C   0  0  0  0  0  0  0  0  0  0  0  0
   48.4970   31.8550   41.0530 C   0  0  0  0  0  0  0  0  0  0  0  0
   44.0274   36.8982   45.1158 H   0  0  0  0  0  0  0  0  0  0  0  0
   43.8588   36.5133   42.6040 H   0  0  0  0  0  0  0  0  0  0  0  0
   44.7886   34.3056   41.6538 H   0  0  0  0  0  0  0  0  0  0  0  0
   45.3870   33.5553   47.6599 H   0  0  0  0  0  0  0  0  0  0  0  0
   44.8991   31.9393   47.2791 H   0  0  0  0  0  0  0  0  0  0  0  0
   47.8221   32.9939   47.6158 H   0  0  0  0  0  0  0  0  0  0  0  0
   47.1141   31.8055   48.6420 H   0  0  0  0  0  0  0  0  0  0  0  0
   48.4057   30.7844   46.5445 H   0  0  0  0  0  0  0  0  0  0  0  0
   46.7798   30.2165   46.5679 H   0  0  0  0  0  0  0  0  0  0  0  0
   48.0930   32.4106   45.0399 H   0  0  0  0  0  0  0  0  0  0  0  0
   45.4723   30.1558   45.3007 H   0  0  0  0  0  0  0  0  0  0  0  0
   44.5837   31.4926   44.4531 H   0  0  0  0  0  0  0  0  0  0  0  0
   45.6328   28.8949   43.3537 H   0  0  0  0  0  0  0  0  0  0  0  0
   43.9411   29.6256   43.3335 H   0  0  0  0  0  0  0  0  0  0  0  0
   47.2055   30.0153   41.9605 H   0  0  0  0  0  0  0  0  0  0  0  0
   46.4964   31.3280   40.8895 H   0  0  0  0  0  0  0  0  0  0  0  0
   46.2624   32.8509   42.8602 H   0  0  0  0  0  0  0  0  0  0  0  0
   49.0985   30.8066   44.2060 H   0  0  0  0  0  0  0  0  0  0  0  0
   48.6066   29.8957   42.7380 H   0  0  0  0  0  0  0  0  0  0  0  0
   50.1331   30.8425   42.7380 H   0  0  0  0  0  0  0  0  0  0  0  0
   49.0234   33.5090   43.9443 H   0  0  0  0  0  0  0  0  0  0  0  0
   49.9490   33.3843   42.4099 H   0  0  0  0  0  0  0  0  0  0  0  0
   48.3027   34.1030   42.4099 H   0  0  0  0  0  0  0  0  0  0  0  0
   49.2455   31.0843   40.8166 H   0  0  0  0  0  0  0  0  0  0  0  0
   47.5256   31.5661   40.6254 H   0  0  0  0  0  0  0  0  0  0  0  0
   48.8142   32.8176   40.6254 H   0  0  0  0  0  0  0  0  0  0  0  0
  1  6  2  0
  2  1  1  0
  3  2  2  0
  3  4  1  0
  4  5  2  0
  5  6  1  0
  5  7  1  0
  7  8  1  0
  8  9  1  0
 10  9  1  0
 11  7  1  0
 11 10  1  0
 12 13  1  0
 12 11  1  0
 14 13  1  0
 15 14  1  0
 16 15  1  0
 16 17  1  0
 17 12  1  0
 18 20  1  0
 18 17  1  0
 18 19  1  0
 21 18  1  0
  1 22  1  0
  2 23  1  0
  3 24  1  0
  8 25  1  0
  8 26  1  0
  9 27  1  0
  9 28  1  0
 10 29  1  0
 10 30  1  0
 11 31  1  6
 13 32  1  0
 13 33  1  0
 14 34  1  0
 14 35  1  0
 16 36  1  0
 16 37  1  0
 17 38  1  6
 19 39  1  0
 19 40  1  0
 19 41  1  0
 20 42  1  0
 20 43  1  0
 20 44  1  0
 21 45  1  0
 21 46  1  0
 21 47  1  0
M  ISO  8  22  14  23  14  24  14  25  13  26  13  27  13  28  13  29  13
M  ISO  8  30  13  31  13  32  13  33  13  34  13  35  13  36  13  37  13
M  ISO  8  38  13  39   8  40   8  41   8  42   8  43   8  44   8  45   8
M  ISO  2  46   8  47   8
M  END
>  <minimizedAffinity>  (1) 
-4.54981995

>  <minimizedRMSD>  (1) 
1.44173193

$$$$
