
     RDKit          3D

 38 40  0  0  1  0  0  0  0  0999 V2000
   44.4450   35.8920   44.6250 C   0  0  0  0  0  0  0  0  0  0  0  0
   44.4470   35.6790   43.2210 C   0  0  0  0  0  0  0  0  0  0  0  0
   45.0180   34.4710   42.7220 C   0  0  0  0  0  0  0  0  0  0  0  0
   45.5040   33.6450   43.6440 N   0  0  0  0  0  0  0  0  0  0  0  0
   45.4960   33.8600   44.9610 C   0  0  0  0  0  0  0  0  0  0  0  0
   44.9640   34.9840   45.4300 N   0  0  0  0  0  0  0  0  0  0  0  0
   46.0460   32.8960   45.8110 N   0  0  0  0  0  0  0  0  0  0  0  0
   45.6460   32.6130   47.1810 C   0  0  0  0  0  0  0  0  0  0  0  0
   46.9850   32.1580   47.7420 C   0  0  0  0  0  0  0  0  0  0  0  0
   47.3880   31.1560   46.6550 C   0  0  0  0  0  0  0  0  0  0  0  0
   47.1520   31.9910   45.4420 C   0  0  1  0  0  0  0  0  0  0  0  0
   46.6460   31.3280   44.2720 N   0  0  0  0  0  0  0  0  0  0  0  0
   45.3520   30.8660   44.3770 C   0  0  0  0  0  0  0  0  0  0  0  0
   45.0500   29.8950   43.2360 C   0  0  0  0  0  0  0  0  0  0  0  0
   45.4580   30.3150   42.0030 O   0  0  0  0  0  0  0  0  0  0  0  0
   46.7660   30.7130   41.9950 C   0  0  0  0  0  0  0  0  0  0  0  0
   47.1380   31.7320   43.0790 C   0  0  2  0  0  0  0  0  0  0  0  0
   48.6520   31.2960   43.2830 C   0  0  0  0  0  0  0  0  0  0  0  0
   44.0112   36.8131   45.0413 H   0  0  0  0  0  0  0  0  0  0  0  0
   44.0194   36.4261   42.5362 H   0  0  0  0  0  0  0  0  0  0  0  0
   45.0539   34.2384   41.6475 H   0  0  0  0  0  0  0  0  0  0  0  0
   45.2700   33.5111   47.6930 H   0  0  0  0  0  0  0  0  0  0  0  0
   44.8224   31.8920   47.2898 H   0  0  0  0  0  0  0  0  0  0  0  0
   47.7012   32.9893   47.8195 H   0  0  0  0  0  0  0  0  0  0  0  0
   46.9506   31.7516   48.7636 H   0  0  0  0  0  0  0  0  0  0  0  0
   48.4421   30.8552   46.7461 H   0  0  0  0  0  0  0  0  0  0  0  0
   46.8426   30.2010   46.6765 H   0  0  0  0  0  0  0  0  0  0  0  0
   48.1332   32.4155   45.1829 H   0  0  0  0  0  0  0  0  0  0  0  0
   45.2271   30.3477   45.3392 H   0  0  0  0  0  0  0  0  0  0  0  0
   44.6584   31.7179   44.3196 H   0  0  0  0  0  0  0  0  0  0  0  0
   45.5525   28.9416   43.4562 H   0  0  0  0  0  0  0  0  0  0  0  0
   43.9546   29.8074   43.1861 H   0  0  0  0  0  0  0  0  0  0  0  0
   47.3952   29.8215   42.1339 H   0  0  0  0  0  0  0  0  0  0  0  0
   46.9294   31.2156   41.0303 H   0  0  0  0  0  0  0  0  0  0  0  0
   46.8493   32.7628   42.8260 H   0  0  0  0  0  0  0  0  0  0  0  0
   48.8735   31.2322   44.3586 H   0  0  0  0  0  0  0  0  0  0  0  0
   48.8169   30.3139   42.8158 H   0  0  0  0  0  0  0  0  0  0  0  0
   49.3140   32.0400   42.8158 H   0  0  0  0  0  0  0  0  0  0  0  0
  1  6  2  0
  2  1  1  0
  3  2  2  0
  3  4  1  0
  4  5  2  0
  5  6  1  0
  5  7  1  0
  7  8  1  0
  8  9  1  0
 10  9  1  0
 11  7  1  0
 11 10  1  0
 12 13  1  0
 12 11  1  0
 14 13  1  0
 15 14  1  0
 16 15  1  0
 16 17  1  0
 17 18  1  0
 17 12  1  0
  1 19  1  0
  2 20  1  0
  3 21  1  0
  8 22  1  0
  8 23  1  0
  9 24  1  0
  9 25  1  0
 10 26  1  0
 10 27  1  0
 11 28  1  6
 13 29  1  0
 13 30  1  0
 14 31  1  0
 14 32  1  0
 16 33  1  0
 16 34  1  0
 17 35  1  6
 18 36  1  0
 18 37  1  0
 18 38  1  0
M  ISO  8  19  14  20  14  21  14  22  13  23  13  24  13  25  13  26  13
M  ISO  8  27  13  28  13  29  13  30  13  31  13  32  13  33  13  34  13
M  ISO  4  35  13  36   8  37   8  38   8
M  END
>  <minimizedAffinity>  (1) 
-4.18885994

>  <minimizedRMSD>  (1) 
0.94975394

$$$$
