
     RDKit          3D

 37 39  0  0  1  0  0  0  0  0999 V2000
   44.4550   35.9010   44.6070 C   0  0  0  0  0  0  0  0  0  0  0  0
   44.4700   35.6820   43.1990 C   0  0  0  0  0  0  0  0  0  0  0  0
   45.0430   34.4750   42.7150 C   0  0  0  0  0  0  0  0  0  0  0  0
   45.5210   33.6540   43.6470 N   0  0  0  0  0  0  0  0  0  0  0  0
   45.5020   33.8700   44.9620 C   0  0  0  0  0  0  0  0  0  0  0  0
   44.9690   34.9930   45.4330 N   0  0  0  0  0  0  0  0  0  0  0  0
   46.0440   32.9060   45.8160 N   0  0  0  0  0  0  0  0  0  0  0  0
   45.6230   32.6190   47.1830 C   0  0  0  0  0  0  0  0  0  0  0  0
   46.9180   32.1320   47.7690 C   0  0  0  0  0  0  0  0  0  0  0  0
   47.3890   31.1810   46.6730 C   0  0  0  0  0  0  0  0  0  0  0  0
   47.1560   32.0080   45.4560 C   0  0  1  0  0  0  0  0  0  0  0  0
   46.6490   31.3450   44.2790 N   0  0  0  0  0  0  0  0  0  0  0  0
   45.3560   30.9030   44.3680 C   0  0  0  0  0  0  0  0  0  0  0  0
   45.0710   29.8940   43.2530 C   0  0  0  0  0  0  0  0  0  0  0  0
   45.5190   30.2920   42.0110 O   0  0  0  0  0  0  0  0  0  0  0  0
   46.8410   30.6420   42.0540 C   0  0  0  0  0  0  0  0  0  0  0  0
   47.1740   31.7260   43.0930 C   0  0  2  0  0  0  0  0  0  0  0  0
   48.6340   31.3840   43.3390 N   0  0  0  0  0  0  0  0  0  0  0  0
   44.0166   36.8246   45.0129 H   0  0  0  0  0  0  0  0  0  0  0  0
   44.0499   36.4262   42.5064 H   0  0  0  0  0  0  0  0  0  0  0  0
   45.0884   34.2355   41.6424 H   0  0  0  0  0  0  0  0  0  0  0  0
   45.2596   33.5224   47.6946 H   0  0  0  0  0  0  0  0  0  0  0  0
   44.7857   31.9105   47.2667 H   0  0  0  0  0  0  0  0  0  0  0  0
   47.6289   32.9574   47.9216 H   0  0  0  0  0  0  0  0  0  0  0  0
   46.8226   31.6697   48.7626 H   0  0  0  0  0  0  0  0  0  0  0  0
   48.4526   30.9257   46.7899 H   0  0  0  0  0  0  0  0  0  0  0  0
   46.8738   30.2092   46.6651 H   0  0  0  0  0  0  0  0  0  0  0  0
   48.1402   32.4282   45.2016 H   0  0  0  0  0  0  0  0  0  0  0  0
   45.2022   30.4203   45.3444 H   0  0  0  0  0  0  0  0  0  0  0  0
   44.6733   31.7592   44.2640 H   0  0  0  0  0  0  0  0  0  0  0  0
   45.5633   28.9447   43.5109 H   0  0  0  0  0  0  0  0  0  0  0  0
   43.9776   29.7972   43.1820 H   0  0  0  0  0  0  0  0  0  0  0  0
   47.4280   29.7431   42.2935 H   0  0  0  0  0  0  0  0  0  0  0  0
   47.0881   31.0631   41.0683 H   0  0  0  0  0  0  0  0  0  0  0  0
   46.8761   32.7402   42.7886 H   0  0  0  0  0  0  0  0  0  0  0  0
   48.8108   31.3426   44.3529 H   0  0  0  0  0  0  0  0  0  0  0  0
   48.8486   30.4700   42.9154 H   0  0  0  0  0  0  0  0  0  0  0  0
  1  6  2  0
  2  1  1  0
  3  2  2  0
  3  4  1  0
  4  5  2  0
  5  6  1  0
  5  7  1  0
  7  8  1  0
  8  9  1  0
 10  9  1  0
 11  7  1  0
 11 10  1  0
 12 13  1  0
 12 11  1  0
 14 13  1  0
 15 16  1  0
 15 14  1  0
 16 17  1  0
 17 18  1  0
 17 12  1  0
  1 19  1  0
  2 20  1  0
  3 21  1  0
  8 22  1  0
  8 23  1  0
  9 24  1  0
  9 25  1  0
 10 26  1  0
 10 27  1  0
 11 28  1  6
 13 29  1  0
 13 30  1  0
 14 31  1  0
 14 32  1  0
 16 33  1  0
 16 34  1  0
 17 35  1  6
 18 36  1  0
 18 37  1  0
M  ISO  8  19  14  20  14  21  14  22  13  23  13  24  13  25  13  26  13
M  ISO  8  27  13  28  13  29  13  30  13  31  13  32  13  33  13  34  13
M  ISO  3  35  13  36   5  37   5
M  END
>  <minimizedAffinity>  (1) 
-4.14710379

>  <minimizedRMSD>  (1) 
0.916056991

$$$$
