
     RDKit          3D

 35 37  0  0  1  0  0  0  0  0999 V2000
   47.1320   34.6470   42.2250 N   0  0  0  0  0  0  0  0  0  0  0  0
   48.5420   34.9710   42.0710 C   0  0  0  0  0  0  0  0  0  0  0  0
   48.5710   35.4240   40.6310 C   0  0  0  0  0  0  0  0  0  0  0  0
   47.8370   34.2540   39.9780 C   0  0  0  0  0  0  0  0  0  0  0  0
   46.7910   33.9490   41.0070 C   0  0  2  0  0  0  0  0  0  0  0  0
   44.6580   36.2190   44.4920 C   0  0  0  0  0  0  0  0  0  0  0  0
   45.4980   36.0940   43.3690 C   0  0  0  0  0  0  0  0  0  0  0  0
   46.2560   34.9190   43.2870 C   0  0  0  0  0  0  0  0  0  0  0  0
   46.1340   33.9890   44.2820 N   0  0  0  0  0  0  0  0  0  0  0  0
   45.3170   34.1420   45.3490 C   0  0  0  0  0  0  0  0  0  0  0  0
   44.5790   35.2730   45.4370 N   0  0  0  0  0  0  0  0  0  0  0  0
   42.7930   34.0050   39.5180 C   0  0  0  0  0  0  0  0  0  0  0  0
   43.7860   33.1570   39.0260 C   0  0  0  0  0  0  0  0  0  0  0  0
   45.0700   33.1810   39.5410 C   0  0  0  0  0  0  0  0  0  0  0  0
   45.4020   34.0640   40.5760 C   0  0  0  0  0  0  0  0  0  0  0  0
   44.4000   34.8680   41.0190 C   0  0  0  0  0  0  0  0  0  0  0  0
   43.1110   34.8850   40.5450 C   0  0  0  0  0  0  0  0  0  0  0  0
   41.1470   34.0410   38.9270 S   0  0  0  0  0  0  0  0  0  0  0  0
   40.9300   35.4100   38.3050 O   0  0  0  0  0  0  0  0  0  0  0  0
   40.8840   32.9600   37.9380 O   0  0  0  0  0  0  0  0  0  0  0  0
   48.8498   35.7756   42.7550 H   0  0  0  0  0  0  0  0  0  0  0  0
   49.2281   34.1429   42.3024 H   0  0  0  0  0  0  0  0  0  0  0  0
   48.0347   36.3740   40.4897 H   0  0  0  0  0  0  0  0  0  0  0  0
   49.5733   35.6294   40.2270 H   0  0  0  0  0  0  0  0  0  0  0  0
   47.3846   34.5477   39.0193 H   0  0  0  0  0  0  0  0  0  0  0  0
   48.4843   33.4004   39.7284 H   0  0  0  0  0  0  0  0  0  0  0  0
   46.8166   32.8670   41.2034 H   0  0  0  0  0  0  0  0  0  0  0  0
   44.0446   37.1260   44.5971 H   0  0  0  0  0  0  0  0  0  0  0  0
   45.5558   36.8765   42.5980 H   0  0  0  0  0  0  0  0  0  0  0  0
   45.2539   33.3661   46.1262 H   0  0  0  0  0  0  0  0  0  0  0  0
   43.5434   32.4563   38.2135 H   0  0  0  0  0  0  0  0  0  0  0  0
   45.8346   32.5024   39.1350 H   0  0  0  0  0  0  0  0  0  0  0  0
   44.6434   35.5689   41.8311 H   0  0  0  0  0  0  0  0  0  0  0  0
   42.3585   35.5698   40.9629 H   0  0  0  0  0  0  0  0  0  0  0  0
   40.2742   33.8243   39.9605 H   0  0  0  0  0  0  0  0  0  0  0  0
  1  8  1  0
  2  1  1  0
  3  2  1  0
  4  3  1  0
  4  5  1  0
  5  1  1  0
  6 11  2  0
  7  6  1  0
  8  7  2  0
  8  9  1  0
  9 10  2  0
 10 11  1  0
 12 17  2  0
 13 12  1  0
 13 14  2  0
 14 15  1  0
 15  5  1  0
 15 16  2  0
 17 16  1  0
 18 12  1  0
 19 18  2  0
 20 18  2  0
  2 21  1  0
  2 22  1  0
  3 23  1  0
  3 24  1  0
  4 25  1  0
  4 26  1  0
  5 27  1  1
  6 28  1  0
  7 29  1  0
 10 30  1  0
 13 31  1  0
 14 32  1  0
 16 33  1  0
 17 34  1  0
 18 35  1  0
M  ISO  8  21  13  22  13  23  13  24  13  25  13  26  13  27  13  28  14
M  ISO  7  29  14  30  14  31  14  32  14  33  14  34  14  35  11
M  END
>  <minimizedAffinity>  (1) 
-5.77598763

>  <minimizedRMSD>  (1) 
0.952395201

$$$$
