
     RDKit          3D

 33 36  0  0  1  0  0  0  0  0999 V2000
   47.1760   34.4740   42.6600 N   0  0  0  0  0  0  0  0  0  0  0  0
   48.5760   34.0650   42.6880 C   0  0  0  0  0  0  0  0  0  0  0  0
   49.1350   34.9780   41.6360 C   0  0  0  0  0  0  0  0  0  0  0  0
   48.1320   34.7530   40.5110 C   0  0  0  0  0  0  0  0  0  0  0  0
   46.8350   34.7180   41.2770 C   0  0  1  0  0  0  0  0  0  0  0  0
   45.8700   33.8010   40.7350 N   0  0  0  0  0  0  0  0  0  0  0  0
   46.0850   32.5120   40.3480 C   0  0  0  0  0  0  0  0  0  0  0  0
   44.9670   31.9280   39.8820 N   0  0  0  0  0  0  0  0  0  0  0  0
   43.9830   32.8310   39.9560 C   0  0  0  0  0  0  0  0  0  0  0  0
   42.6420   32.8200   39.6310 C   0  0  0  0  0  0  0  0  0  0  0  0
   41.8620   33.9140   39.8170 N   0  0  0  0  0  0  0  0  0  0  0  0
   42.4680   35.0200   40.3390 C   0  0  0  0  0  0  0  0  0  0  0  0
   43.7710   35.0430   40.6570 N   0  0  0  0  0  0  0  0  0  0  0  0
   44.5610   33.9850   40.4860 C   0  0  0  0  0  0  0  0  0  0  0  0
   44.5040   35.7330   44.9070 C   0  0  0  0  0  0  0  0  0  0  0  0
   45.3360   35.6710   43.7690 C   0  0  0  0  0  0  0  0  0  0  0  0
   46.2930   34.6190   43.7520 C   0  0  0  0  0  0  0  0  0  0  0  0
   46.3550   33.7510   44.8040 N   0  0  0  0  0  0  0  0  0  0  0  0
   45.5140   33.8760   45.8690 C   0  0  0  0  0  0  0  0  0  0  0  0
   44.6040   34.8620   45.9070 N   0  0  0  0  0  0  0  0  0  0  0  0
   49.0346   34.2460   43.6713 H   0  0  0  0  0  0  0  0  0  0  0  0
   48.7493   32.9932   42.5111 H   0  0  0  0  0  0  0  0  0  0  0  0
   49.1421   36.0260   41.9700 H   0  0  0  0  0  0  0  0  0  0  0  0
   50.1816   34.7769   41.3638 H   0  0  0  0  0  0  0  0  0  0  0  0
   48.3178   33.8025   39.9895 H   0  0  0  0  0  0  0  0  0  0  0  0
   48.1666   35.5134   39.7169 H   0  0  0  0  0  0  0  0  0  0  0  0
   46.3119   35.6816   41.1891 H   0  0  0  0  0  0  0  0  0  0  0  0
   47.0606   32.0076   40.4097 H   0  0  0  0  0  0  0  0  0  0  0  0
   42.1965   31.9054   39.2126 H   0  0  0  0  0  0  0  0  0  0  0  0
   41.8659   35.9255   40.5050 H   0  0  0  0  0  0  0  0  0  0  0  0
   43.7471   36.5287   44.9691 H   0  0  0  0  0  0  0  0  0  0  0  0
   45.2496   36.3934   42.9440 H   0  0  0  0  0  0  0  0  0  0  0  0
   45.5814   33.1632   46.7041 H   0  0  0  0  0  0  0  0  0  0  0  0
  1  2  1  0
  1 17  1  0
  3  2  1  0
  4  5  1  0
  4  3  1  0
  5  1  1  0
  6  5  1  0
  7  6  1  0
  8  9  1  0
  8  7  2  0
  9 14  2  0
 10 11  2  0
 10  9  1  0
 11 12  1  0
 12 13  2  0
 14 13  1  0
 14  6  1  0
 15 20  2  0
 16 15  1  0
 17 16  2  0
 17 18  1  0
 18 19  2  0
 19 20  1  0
  2 21  1  0
  2 22  1  0
  3 23  1  0
  3 24  1  0
  4 25  1  0
  4 26  1  0
  5 27  1  1
  7 28  1  0
 10 29  1  0
 12 30  1  0
 15 31  1  0
 16 32  1  0
 19 33  1  0
M  ISO  8  21  13  22  13  23  13  24  13  25  13  26  13  27  13  28  14
M  ISO  5  29  14  30  14  31  14  32  14  33  14
M  END
>  <minimizedAffinity>  (1) 
-5.38504124

>  <minimizedRMSD>  (1) 
2.71230364

$$$$
