
     RDKit          3D

 33 35  0  0  1  0  0  0  0  0999 V2000
   47.1820   34.5170   42.6360 N   0  0  0  0  0  0  0  0  0  0  0  0
   48.6100   34.2160   42.6690 C   0  0  0  0  0  0  0  0  0  0  0  0
   49.1060   35.1080   41.5730 C   0  0  0  0  0  0  0  0  0  0  0  0
   48.1230   34.7640   40.4770 C   0  0  0  0  0  0  0  0  0  0  0  0
   46.8220   34.6580   41.2420 C   0  0  1  0  0  0  0  0  0  0  0  0
   46.0360   33.5400   40.7730 N   0  0  0  0  0  0  0  0  0  0  0  0
   46.4910   32.2890   40.5700 C   0  0  0  0  0  0  0  0  0  0  0  0
   45.6380   31.3000   40.1160 C   0  0  0  0  0  0  0  0  0  0  0  0
   44.2950   31.6010   39.8670 C   0  0  0  0  0  0  0  0  0  0  0  0
   43.4560   30.5510   39.4010 N   0  0  0  0  0  0  0  0  0  0  0  0
   43.8970   32.8680   40.0870 N   0  0  0  0  0  0  0  0  0  0  0  0
   44.7440   33.8170   40.5290 C   0  0  0  0  0  0  0  0  0  0  0  0
   44.1350   34.9210   40.6580 O   0  0  0  0  0  0  0  0  0  0  0  0
   44.4950   35.7490   44.8870 C   0  0  0  0  0  0  0  0  0  0  0  0
   45.3350   35.6960   43.7520 C   0  0  0  0  0  0  0  0  0  0  0  0
   46.3000   34.6520   43.7240 C   0  0  0  0  0  0  0  0  0  0  0  0
   46.3570   33.7810   44.7680 N   0  0  0  0  0  0  0  0  0  0  0  0
   45.5240   33.8800   45.8340 C   0  0  0  0  0  0  0  0  0  0  0  0
   44.6100   34.8500   45.8850 N   0  0  0  0  0  0  0  0  0  0  0  0
   49.0574   34.4783   43.6391 H   0  0  0  0  0  0  0  0  0  0  0  0
   48.8559   33.1518   42.5386 H   0  0  0  0  0  0  0  0  0  0  0  0
   49.0464   36.1697   41.8543 H   0  0  0  0  0  0  0  0  0  0  0  0
   50.1629   34.9630   41.3049 H   0  0  0  0  0  0  0  0  0  0  0  0
   48.3812   33.8102   39.9937 H   0  0  0  0  0  0  0  0  0  0  0  0
   48.0972   35.4983   39.6584 H   0  0  0  0  0  0  0  0  0  0  0  0
   46.1940   35.5489   41.0937 H   0  0  0  0  0  0  0  0  0  0  0  0
   47.5472   32.0525   40.7664 H   0  0  0  0  0  0  0  0  0  0  0  0
   46.0145   30.2797   39.9512 H   0  0  0  0  0  0  0  0  0  0  0  0
   43.8430   29.6071   39.2591 H   0  0  0  0  0  0  0  0  0  0  0  0
   42.4615   30.7347   39.2055 H   0  0  0  0  0  0  0  0  0  0  0  0
   43.7327   36.5389   44.9576 H   0  0  0  0  0  0  0  0  0  0  0  0
   45.2470   36.4246   42.9326 H   0  0  0  0  0  0  0  0  0  0  0  0
   45.6026   33.1574   46.6596 H   0  0  0  0  0  0  0  0  0  0  0  0
  1  2  1  0
  1 16  1  0
  3  2  1  0
  4  5  1  0
  4  3  1  0
  5  1  1  0
  6  5  1  0
  7  6  1  0
  8  7  2  0
  9 11  2  0
  9  8  1  0
 10  9  1  0
 11 12  1  0
 12 13  2  0
 12  6  1  0
 14 19  2  0
 15 14  1  0
 16 15  2  0
 16 17  1  0
 17 18  2  0
 18 19  1  0
  2 20  1  0
  2 21  1  0
  3 22  1  0
  3 23  1  0
  4 24  1  0
  4 25  1  0
  5 26  1  1
  7 27  1  0
  8 28  1  0
 10 29  1  0
 10 30  1  0
 14 31  1  0
 15 32  1  0
 18 33  1  0
M  ISO  8  20  13  21  13  22  13  23  13  24  13  25  13  26  13  27  14
M  ISO  4  28  14  31  14  32  14  33  14
M  END
>  <minimizedAffinity>  (1) 
-4.8452673

>  <minimizedRMSD>  (1) 
1.75972903

$$$$
