
     RDKit          3D

 29 31  0  0  0  0  0  0  0  0999 V2000
   46.8510   34.7890   41.9810 C   0  0  0  0  0  0  0  0  0  0  0  0
   48.0580   35.4650   41.8910 C   0  0  0  0  0  0  0  0  0  0  0  0
   48.8670   35.4570   40.7780 C   0  0  0  0  0  0  0  0  0  0  0  0
   48.4790   34.7450   39.6770 C   0  0  0  0  0  0  0  0  0  0  0  0
   47.2870   34.0450   39.6910 C   0  0  0  0  0  0  0  0  0  0  0  0
   46.8900   33.3310   38.5870 C   0  0  0  0  0  0  0  0  0  0  0  0
   45.7040   32.6240   38.5640 C   0  0  0  0  0  0  0  0  0  0  0  0
   44.9480   32.6850   39.7220 C   0  0  0  0  0  0  0  0  0  0  0  0
   45.3680   33.4010   40.7990 C   0  0  0  0  0  0  0  0  0  0  0  0
   46.5390   34.1020   40.8340 C   0  0  0  0  0  0  0  0  0  0  0  0
   44.4980   35.6850   44.8480 C   0  0  0  0  0  0  0  0  0  0  0  0
   45.1060   35.7430   43.5980 C   0  0  0  0  0  0  0  0  0  0  0  0
   46.1190   34.8840   43.2160 C   0  0  0  0  0  0  0  0  0  0  0  0
   46.4530   33.9880   44.1900 N   0  0  0  0  0  0  0  0  0  0  0  0
   45.8850   33.9150   45.3910 C   0  0  0  0  0  0  0  0  0  0  0  0
   44.9190   34.7620   45.7030 N   0  0  0  0  0  0  0  0  0  0  0  0
   46.3300   32.9090   46.3500 C   0  0  0  0  0  0  0  0  0  0  0  0
   45.8770   31.7470   46.3190 O   0  0  0  0  0  0  0  0  0  0  0  0
   47.2690   33.1980   47.3320 O   0  0  0  0  0  0  0  0  0  0  0  0
   48.3901   36.0446   42.7649 H   0  0  0  0  0  0  0  0  0  0  0  0
   49.8141   36.0164   40.7740 H   0  0  0  0  0  0  0  0  0  0  0  0
   49.1155   34.7292   38.7800 H   0  0  0  0  0  0  0  0  0  0  0  0
   47.5349   33.3221   37.6960 H   0  0  0  0  0  0  0  0  0  0  0  0
   45.3811   32.0499   37.6830 H   0  0  0  0  0  0  0  0  0  0  0  0
   43.9910   32.1449   39.7718 H   0  0  0  0  0  0  0  0  0  0  0  0
   44.7276   33.4163   41.6932 H   0  0  0  0  0  0  0  0  0  0  0  0
   43.6925   36.3833   45.1193 H   0  0  0  0  0  0  0  0  0  0  0  0
   44.7656   36.5059   42.8824 H   0  0  0  0  0  0  0  0  0  0  0  0
   47.5517   32.4947   47.9689 H   0  0  0  0  0  0  0  0  0  0  0  0
  1 13  1  0
  2  1  2  0
  3  2  1  0
  4  5  1  0
  4  3  2  0
  5 10  2  0
  6  5  1  0
  7  6  2  0
  7  8  1  0
  8  9  2  0
  9 10  1  0
 10  1  1  0
 11 16  2  0
 12 11  1  0
 13 12  2  0
 13 14  1  0
 14 15  2  0
 15 16  1  0
 15 17  1  0
 17 19  1  0
 18 17  2  0
  2 20  1  0
  3 21  1  0
  4 22  1  0
  6 23  1  0
  7 24  1  0
  8 25  1  0
  9 26  1  0
 11 27  1  0
 12 28  1  0
 19 29  1  0
M  ISO  8  20  14  21  14  22  14  23  14  24  14  25  14  26  14  27  14
M  ISO  2  28  14  29   3
M  END
>  <minimizedAffinity>  (1) 
-6.52845955

>  <minimizedRMSD>  (1) 
0.310675412

$$$$
