
     RDKit          3D

 29 31  0  0  1  0  0  0  0  0999 V2000
   47.3230   34.3720   42.7880 N   0  0  0  0  0  0  0  0  0  0  0  0
   48.5790   33.6350   42.8040 C   0  0  0  0  0  0  0  0  0  0  0  0
   49.4310   34.5500   41.9730 C   0  0  0  0  0  0  0  0  0  0  0  0
   48.5330   34.8550   40.8120 C   0  0  0  0  0  0  0  0  0  0  0  0
   47.1770   34.9370   41.4610 C   0  0  1  0  0  0  0  0  0  0  0  0
   44.5230   35.6880   44.8740 C   0  0  0  0  0  0  0  0  0  0  0  0
   45.4250   35.5670   43.8120 C   0  0  0  0  0  0  0  0  0  0  0  0
   46.3990   34.5340   43.8250 C   0  0  0  0  0  0  0  0  0  0  0  0
   46.3930   33.7000   44.9020 N   0  0  0  0  0  0  0  0  0  0  0  0
   45.4990   33.8490   45.9160 C   0  0  0  0  0  0  0  0  0  0  0  0
   44.5840   34.8230   45.9000 N   0  0  0  0  0  0  0  0  0  0  0  0
   46.1480   34.1580   40.7370 C   0  0  0  0  0  0  0  0  0  0  0  0
   46.3610   32.9080   40.1670 C   0  0  0  0  0  0  0  0  0  0  0  0
   45.2310   32.4630   39.5820 N   0  0  0  0  0  0  0  0  0  0  0  0
   44.3310   33.4270   39.7870 C   0  0  0  0  0  0  0  0  0  0  0  0
   44.8780   34.4620   40.4870 N   0  0  0  0  0  0  0  0  0  0  0  0
   48.9742   33.5246   43.8246 H   0  0  0  0  0  0  0  0  0  0  0  0
   48.5134   32.6012   42.4341 H   0  0  0  0  0  0  0  0  0  0  0  0
   49.6911   35.4643   42.5265 H   0  0  0  0  0  0  0  0  0  0  0  0
   50.3954   34.1092   41.6803 H   0  0  0  0  0  0  0  0  0  0  0  0
   48.5666   34.0513   40.0617 H   0  0  0  0  0  0  0  0  0  0  0  0
   48.8147   35.7688   40.2682 H   0  0  0  0  0  0  0  0  0  0  0  0
   46.8462   35.9861   41.4663 H   0  0  0  0  0  0  0  0  0  0  0  0
   43.7674   36.4874   44.8692 H   0  0  0  0  0  0  0  0  0  0  0  0
   45.3799   36.2710   42.9680 H   0  0  0  0  0  0  0  0  0  0  0  0
   45.5297   33.1531   46.7673 H   0  0  0  0  0  0  0  0  0  0  0  0
   47.3148   32.3606   40.1901 H   0  0  0  0  0  0  0  0  0  0  0  0
   43.2883   33.3916   39.4383 H   0  0  0  0  0  0  0  0  0  0  0  0
   44.3935   35.3253   40.7713 H   0  0  0  0  0  0  0  0  0  0  0  0
  1  2  1  0
  1  8  1  0
  3  2  1  0
  4  5  1  0
  4  3  1  0
  5  1  1  0
  6 11  2  0
  7  8  2  0
  7  6  1  0
  8  9  1  0
  9 10  2  0
 11 10  1  0
 12  5  1  0
 13 12  2  0
 14 15  2  0
 14 13  1  0
 15 16  1  0
 16 12  1  0
  2 17  1  0
  2 18  1  0
  3 19  1  0
  3 20  1  0
  4 21  1  0
  4 22  1  0
  5 23  1  1
  6 24  1  0
  7 25  1  0
 10 26  1  0
 13 27  1  0
 15 28  1  0
 16 29  1  0
M  ISO  8  17  13  18  13  19  13  20  13  21  13  22  13  23  13  24  14
M  ISO  5  25  14  26  14  27  14  28  14  29   9
M  END
>  <minimizedAffinity>  (1) 
-4.65696335

>  <minimizedRMSD>  (1) 
1.6047771

$$$$
