
     RDKit          3D

 25 26  0  0  1  0  0  0  0  0999 V2000
   47.1750   34.4880   42.4140 N   0  0  0  0  0  0  0  0  0  0  0  0
   48.5490   34.9620   42.2690 C   0  0  0  0  0  0  0  0  0  0  0  0
   48.5280   35.3280   40.8010 C   0  0  0  0  0  0  0  0  0  0  0  0
   47.9140   34.0910   40.2040 C   0  0  0  0  0  0  0  0  0  0  0  0
   46.8270   33.7580   41.2130 C   0  0  2  0  0  0  0  0  0  0  0  0
   44.5580   35.8610   44.6750 C   0  0  0  0  0  0  0  0  0  0  0  0
   45.3820   35.7360   43.5560 C   0  0  0  0  0  0  0  0  0  0  0  0
   46.3130   34.6810   43.4990 C   0  0  0  0  0  0  0  0  0  0  0  0
   46.3380   33.8420   44.5690 N   0  0  0  0  0  0  0  0  0  0  0  0
   45.5380   33.9670   45.6500 C   0  0  0  0  0  0  0  0  0  0  0  0
   44.6490   34.9860   45.6910 N   0  0  0  0  0  0  0  0  0  0  0  0
   45.5410   34.2040   40.6320 C   0  0  0  0  0  0  0  0  0  0  0  0
   44.7060   33.2430   40.7250 O   0  0  0  0  0  0  0  0  0  0  0  0
   44.3220   34.5920   40.0950 O   0  0  0  0  0  0  0  0  0  0  0  0
   48.7525   35.8344   42.9074 H   0  0  0  0  0  0  0  0  0  0  0  0
   49.3278   34.2430   42.5631 H   0  0  0  0  0  0  0  0  0  0  0  0
   47.9071   36.2168   40.6154 H   0  0  0  0  0  0  0  0  0  0  0  0
   49.5121   35.5908   40.3857 H   0  0  0  0  0  0  0  0  0  0  0  0
   47.4879   34.2959   39.2108 H   0  0  0  0  0  0  0  0  0  0  0  0
   48.6325   33.2742   40.0408 H   0  0  0  0  0  0  0  0  0  0  0  0
   46.7366   32.6876   41.4500 H   0  0  0  0  0  0  0  0  0  0  0  0
   43.8280   36.6823   44.7260 H   0  0  0  0  0  0  0  0  0  0  0  0
   45.3052   36.4544   42.7266 H   0  0  0  0  0  0  0  0  0  0  0  0
   45.6081   33.2522   46.4832 H   0  0  0  0  0  0  0  0  0  0  0  0
   44.2138   35.5013   39.7187 H   0  0  0  0  0  0  0  0  0  0  0  0
  1  8  1  0
  2  1  1  0
  3  2  1  0
  4  3  1  0
  4  5  1  0
  5  1  1  0
  6 11  2  0
  7  6  1  0
  8  7  2  0
  8  9  1  0
  9 10  2  0
 10 11  1  0
 12 13  2  0
 12  5  1  0
 14 12  1  0
  2 15  1  0
  2 16  1  0
  3 17  1  0
  3 18  1  0
  4 19  1  0
  4 20  1  0
  5 21  1  1
  6 22  1  0
  7 23  1  0
 10 24  1  0
 14 25  1  0
M  ISO  8  15  13  16  13  17  13  18  13  19  13  20  13  21  13  22  14
M  ISO  3  23  14  24  14  25   3
M  END
>  <minimizedAffinity>  (1) 
-4.63910961

>  <minimizedRMSD>  (1) 
0.637203932

$$$$
