
     RDKit          3D

 35 37  0  0  1  0  0  0  0  0999 V2000
   47.1040   34.6050   42.3610 N   0  0  0  0  0  0  0  0  0  0  0  0
   48.5660   34.5850   42.3610 C   0  0  0  0  0  0  0  0  0  0  0  0
   48.8190   35.3570   41.0880 C   0  0  0  0  0  0  0  0  0  0  0  0
   47.9050   34.6160   40.1470 C   0  0  0  0  0  0  0  0  0  0  0  0
   46.6600   34.4040   40.9890 C   0  0  1  0  0  0  0  0  0  0  0  0
   44.4870   35.9260   44.6620 C   0  0  0  0  0  0  0  0  0  0  0  0
   45.2980   35.8280   43.5280 C   0  0  0  0  0  0  0  0  0  0  0  0
   46.2500   34.7820   43.4540 C   0  0  0  0  0  0  0  0  0  0  0  0
   46.2990   33.9370   44.5200 N   0  0  0  0  0  0  0  0  0  0  0  0
   45.5080   34.0510   45.6030 C   0  0  0  0  0  0  0  0  0  0  0  0
   44.6020   35.0480   45.6690 N   0  0  0  0  0  0  0  0  0  0  0  0
   46.0750   33.1780   40.7780 O   0  0  0  0  0  0  0  0  0  0  0  0
   44.2660   34.4720   40.2300 N   0  0  0  0  0  0  0  0  0  0  0  0
   43.0520   34.2760   39.4980 C   0  0  0  0  0  0  0  0  0  0  0  0
   42.7530   32.7980   39.4930 C   0  0  0  0  0  0  0  0  0  0  0  0
   44.1000   32.1760   39.8330 C   0  0  0  0  0  0  0  0  0  0  0  0
   44.7040   33.2000   40.7530 C   0  0  1  0  0  0  0  0  0  0  0  0
   48.9845   35.0947   43.2414 H   0  0  0  0  0  0  0  0  0  0  0  0
   49.0231   33.5854   42.4041 H   0  0  0  0  0  0  0  0  0  0  0  0
   48.5321   36.4142   41.1878 H   0  0  0  0  0  0  0  0  0  0  0  0
   49.8722   35.3996   40.7734 H   0  0  0  0  0  0  0  0  0  0  0  0
   48.3451   33.6555   39.8408 H   0  0  0  0  0  0  0  0  0  0  0  0
   47.7110   35.1581   39.2097 H   0  0  0  0  0  0  0  0  0  0  0  0
   45.8583   35.1077   40.7207 H   0  0  0  0  0  0  0  0  0  0  0  0
   43.7441   36.7345   44.7294 H   0  0  0  0  0  0  0  0  0  0  0  0
   45.1985   36.5519   42.7058 H   0  0  0  0  0  0  0  0  0  0  0  0
   45.6001   33.3334   46.4316 H   0  0  0  0  0  0  0  0  0  0  0  0
   44.0997   35.1272   41.0072 H   0  0  0  0  0  0  0  0  0  0  0  0
   42.2298   34.8229   39.9827 H   0  0  0  0  0  0  0  0  0  0  0  0
   43.1576   34.6511   38.4693 H   0  0  0  0  0  0  0  0  0  0  0  0
   41.9977   32.5447   40.2515 H   0  0  0  0  0  0  0  0  0  0  0  0
   42.3396   32.4422   38.5378 H   0  0  0  0  0  0  0  0  0  0  0  0
   43.9749   31.2086   40.3414 H   0  0  0  0  0  0  0  0  0  0  0  0
   44.7192   31.9578   38.9504 H   0  0  0  0  0  0  0  0  0  0  0  0
   44.3856   33.0010   41.7869 H   0  0  0  0  0  0  0  0  0  0  0  0
  1  8  1  0
  2  1  1  0
  3  2  1  0
  4  5  1  0
  4  3  1  0
  5  1  1  0
  6 11  2  0
  7  6  1  0
  8  7  2  0
  8  9  1  0
  9 10  2  0
 10 11  1  0
 12  5  1  0
 13 17  1  0
 14 13  1  0
 15 14  1  0
 15 16  1  0
 16 17  1  0
 17 12  1  0
  2 18  1  0
  2 19  1  0
  3 20  1  0
  3 21  1  0
  4 22  1  0
  4 23  1  0
  5 24  1  6
  6 25  1  0
  7 26  1  0
 10 27  1  0
 13 28  1  0
 14 29  1  0
 14 30  1  0
 15 31  1  0
 15 32  1  0
 16 33  1  0
 16 34  1  0
 17 35  1  1
M  ISO  8  18  13  19  13  20  13  21  13  22  13  23  13  24  13  25  14
M  ISO  8  26  14  27  14  28   5  29  13  30  13  31  13  32  13  33  13
M  ISO  2  34  13  35  13
M  END
>  <minimizedAffinity>  (1) 
-4.94234085

>  <minimizedRMSD>  (1) 
0.907859802

$$$$
