
     RDKit          3D

 38 40  0  0  0  0  0  0  0  0999 V2000
   46.6760   34.7070   42.2870 C   0  0  0  0  0  0  0  0  0  0  0  0
   47.9100   35.3300   42.2000 C   0  0  0  0  0  0  0  0  0  0  0  0
   48.7040   35.3100   41.0740 C   0  0  0  0  0  0  0  0  0  0  0  0
   48.2760   34.6430   39.9630 C   0  0  0  0  0  0  0  0  0  0  0  0
   47.0680   34.0070   39.9820 C   0  0  0  0  0  0  0  0  0  0  0  0
   46.6100   33.3300   38.8630 C   0  0  0  0  0  0  0  0  0  0  0  0
   45.3930   32.6780   38.8320 C   0  0  0  0  0  0  0  0  0  0  0  0
   44.6480   32.7460   40.0080 C   0  0  0  0  0  0  0  0  0  0  0  0
   45.1180   33.4140   41.0910 C   0  0  0  0  0  0  0  0  0  0  0  0
   46.3280   34.0640   41.1280 C   0  0  0  0  0  0  0  0  0  0  0  0
   44.4560   35.7010   45.2240 C   0  0  0  0  0  0  0  0  0  0  0  0
   45.0600   35.7670   43.9800 C   0  0  0  0  0  0  0  0  0  0  0  0
   45.9640   34.8090   43.5310 C   0  0  0  0  0  0  0  0  0  0  0  0
   46.1890   33.8100   44.4400 N   0  0  0  0  0  0  0  0  0  0  0  0
   45.6100   33.7380   45.6400 C   0  0  0  0  0  0  0  0  0  0  0  0
   44.7540   34.6790   46.0200 N   0  0  0  0  0  0  0  0  0  0  0  0
   45.9570   32.5810   46.5260 C   0  0  0  0  0  0  0  0  0  0  0  0
   47.3540   32.7360   47.0880 C   0  0  0  0  0  0  0  0  0  0  0  0
   45.0200   32.4940   47.7160 C   0  0  0  0  0  0  0  0  0  0  0  0
   45.9230   31.2680   45.7630 C   0  0  0  0  0  0  0  0  0  0  0  0
   48.2783   35.8733   43.0827 H   0  0  0  0  0  0  0  0  0  0  0  0
   49.6747   35.8274   41.0707 H   0  0  0  0  0  0  0  0  0  0  0  0
   48.9004   34.6179   39.0578 H   0  0  0  0  0  0  0  0  0  0  0  0
   47.2416   33.3112   37.9626 H   0  0  0  0  0  0  0  0  0  0  0  0
   45.0361   32.1418   37.9403 H   0  0  0  0  0  0  0  0  0  0  0  0
   43.6666   32.2518   40.0585 H   0  0  0  0  0  0  0  0  0  0  0  0
   44.4920   33.4367   41.9952 H   0  0  0  0  0  0  0  0  0  0  0  0
   43.7457   36.4766   45.5463 H   0  0  0  0  0  0  0  0  0  0  0  0
   44.8152   36.6116   43.3192 H   0  0  0  0  0  0  0  0  0  0  0  0
   47.3097   32.7311   48.1871 H   0  0  0  0  0  0  0  0  0  0  0  0
   47.9828   31.9021   46.7426 H   0  0  0  0  0  0  0  0  0  0  0  0
   47.7847   33.6874   46.7426 H   0  0  0  0  0  0  0  0  0  0  0  0
   45.6035   32.5482   48.6469 H   0  0  0  0  0  0  0  0  0  0  0  0
   44.3055   33.3297   47.6820 H   0  0  0  0  0  0  0  0  0  0  0  0
   44.4716   31.5411   47.6820 H   0  0  0  0  0  0  0  0  0  0  0  0
   45.9013   30.4303   46.4756 H   0  0  0  0  0  0  0  0  0  0  0  0
   45.0237   31.2347   45.1304 H   0  0  0  0  0  0  0  0  0  0  0  0
   46.8194   31.1882   45.1304 H   0  0  0  0  0  0  0  0  0  0  0  0
  1 13  1  0
  2  1  2  0
  3  2  1  0
  4  5  1  0
  4  3  2  0
  5 10  2  0
  6  5  1  0
  7  6  2  0
  7  8  1  0
  8  9  2  0
  9 10  1  0
 10  1  1  0
 11 16  2  0
 12 11  1  0
 13 12  2  0
 13 14  1  0
 14 15  2  0
 15 16  1  0
 15 17  1  0
 17 18  1  0
 17 19  1  0
 20 17  1  0
  2 21  1  0
  3 22  1  0
  4 23  1  0
  6 24  1  0
  7 25  1  0
  8 26  1  0
  9 27  1  0
 11 28  1  0
 12 29  1  0
 18 30  1  0
 18 31  1  0
 18 32  1  0
 19 33  1  0
 19 34  1  0
 19 35  1  0
 20 36  1  0
 20 37  1  0
 20 38  1  0
M  ISO  8  21  14  22  14  23  14  24  14  25  14  26  14  27  14  28  14
M  ISO  8  29  14  30   8  31   8  32   8  33   8  34   8  35   8  36   8
M  ISO  2  37   8  38   8
M  END
>  <minimizedAffinity>  (1) 
-5.99144125

>  <minimizedRMSD>  (1) 
0.374597877

$$$$
