
     RDKit          3D

 30 32  0  0  1  0  0  0  0  0999 V2000
   47.1450   34.5120   42.5340 N   0  0  0  0  0  0  0  0  0  0  0  0
   48.5690   34.1690   42.5960 C   0  0  0  0  0  0  0  0  0  0  0  0
   49.0880   35.0450   41.4710 C   0  0  0  0  0  0  0  0  0  0  0  0
   48.1080   34.6830   40.3830 C   0  0  0  0  0  0  0  0  0  0  0  0
   46.7890   34.6070   41.1440 C   0  0  1  0  0  0  0  0  0  0  0  0
   44.4840   35.8830   44.7390 C   0  0  0  0  0  0  0  0  0  0  0  0
   45.3240   35.7620   43.6250 C   0  0  0  0  0  0  0  0  0  0  0  0
   46.2670   34.7160   43.5940 C   0  0  0  0  0  0  0  0  0  0  0  0
   46.2910   33.8840   44.6790 N   0  0  0  0  0  0  0  0  0  0  0  0
   45.4800   34.0090   45.7440 C   0  0  0  0  0  0  0  0  0  0  0  0
   44.5730   35.0150   45.7710 N   0  0  0  0  0  0  0  0  0  0  0  0
   45.9790   33.5920   40.6890 O   0  0  0  0  0  0  0  0  0  0  0  0
   43.0730   33.6240   38.6480 N   0  0  0  0  0  0  0  0  0  0  0  0
   44.3040   33.2400   38.9060 N   0  0  0  0  0  0  0  0  0  0  0  0
   44.7510   33.7530   40.0690 C   0  0  0  0  0  0  0  0  0  0  0  0
   43.7150   34.5100   40.5640 C   0  0  0  0  0  0  0  0  0  0  0  0
   42.6540   34.4270   39.6630 C   0  0  0  0  0  0  0  0  0  0  0  0
   49.0142   34.4392   43.5649 H   0  0  0  0  0  0  0  0  0  0  0  0
   48.7967   33.0973   42.4975 H   0  0  0  0  0  0  0  0  0  0  0  0
   49.0359   36.1132   41.7283 H   0  0  0  0  0  0  0  0  0  0  0  0
   50.1457   34.8885   41.2124 H   0  0  0  0  0  0  0  0  0  0  0  0
   48.3603   33.7148   39.9259 H   0  0  0  0  0  0  0  0  0  0  0  0
   48.0935   35.3989   39.5480 H   0  0  0  0  0  0  0  0  0  0  0  0
   46.1680   35.5004   40.9819 H   0  0  0  0  0  0  0  0  0  0  0  0
   43.7425   36.6947   44.7745 H   0  0  0  0  0  0  0  0  0  0  0  0
   45.2487   36.4719   42.7881 H   0  0  0  0  0  0  0  0  0  0  0  0
   45.5521   33.3024   46.5840 H   0  0  0  0  0  0  0  0  0  0  0  0
   42.5206   33.3617   37.8192 H   0  0  0  0  0  0  0  0  0  0  0  0
   43.7221   35.0803   41.5046 H   0  0  0  0  0  0  0  0  0  0  0  0
   41.6722   34.9145   39.7548 H   0  0  0  0  0  0  0  0  0  0  0  0
  1  2  1  0
  1  8  1  0
  3  2  1  0
  4  5  1  0
  4  3  1  0
  5  1  1  0
  6 11  2  0
  7  6  1  0
  8  7  2  0
  8  9  1  0
  9 10  2  0
 10 11  1  0
 12  5  1  0
 13 14  1  0
 13 17  1  0
 14 15  2  0
 15 16  1  0
 15 12  1  0
 17 16  2  0
  2 18  1  0
  2 19  1  0
  3 20  1  0
  3 21  1  0
  4 22  1  0
  4 23  1  0
  5 24  1  1
  6 25  1  0
  7 26  1  0
 10 27  1  0
 13 28  1  0
 16 29  1  0
 17 30  1  0
M  ISO  8  18  13  19  13  20  13  21  13  22  13  23  13  24  13  25  14
M  ISO  5  26  14  27  14  28   9  29  14  30  14
M  END
>  <minimizedAffinity>  (1) 
-4.81173801

>  <minimizedRMSD>  (1) 
1.0599494

$$$$
