
     RDKit          3D

 27 28  0  0  1  0  0  0  0  0999 V2000
   47.2050   34.6810   42.2990 N   0  0  0  0  0  0  0  0  0  0  0  0
   48.6560   34.7000   42.3290 C   0  0  0  0  0  0  0  0  0  0  0  0
   48.9490   35.4710   41.0620 C   0  0  0  0  0  0  0  0  0  0  0  0
   48.0630   34.7170   40.0890 C   0  0  0  0  0  0  0  0  0  0  0  0
   46.8330   34.4600   40.9290 C   0  0  1  0  0  0  0  0  0  0  0  0
   44.4950   35.9650   44.4970 C   0  0  0  0  0  0  0  0  0  0  0  0
   45.3460   35.8790   43.3990 C   0  0  0  0  0  0  0  0  0  0  0  0
   46.3170   34.8400   43.3530 C   0  0  0  0  0  0  0  0  0  0  0  0
   46.3300   33.9940   44.4180 N   0  0  0  0  0  0  0  0  0  0  0  0
   45.4880   34.0980   45.4770 C   0  0  0  0  0  0  0  0  0  0  0  0
   44.5760   35.0880   45.5040 N   0  0  0  0  0  0  0  0  0  0  0  0
   46.2620   33.2120   40.6910 O   0  0  0  0  0  0  0  0  0  0  0  0
   44.9780   33.1410   40.1800 C   0  0  0  0  0  0  0  0  0  0  0  0
   44.2990   34.4120   40.0990 N   0  0  0  0  0  0  0  0  0  0  0  0
   44.3260   32.1500   39.7860 O   0  0  0  0  0  0  0  0  0  0  0  0
   49.0368   35.2222   43.2191 H   0  0  0  0  0  0  0  0  0  0  0  0
   49.1260   33.7067   42.3796 H   0  0  0  0  0  0  0  0  0  0  0  0
   48.6547   36.5273   41.1488 H   0  0  0  0  0  0  0  0  0  0  0  0
   50.0117   35.5186   40.7820 H   0  0  0  0  0  0  0  0  0  0  0  0
   48.5320   33.7757   39.7666 H   0  0  0  0  0  0  0  0  0  0  0  0
   47.8599   35.2626   39.1557 H   0  0  0  0  0  0  0  0  0  0  0  0
   46.0270   35.1558   40.6530 H   0  0  0  0  0  0  0  0  0  0  0  0
   43.7435   36.7672   44.5374 H   0  0  0  0  0  0  0  0  0  0  0  0
   45.2688   36.6055   42.5767 H   0  0  0  0  0  0  0  0  0  0  0  0
   45.5501   33.3789   46.3071 H   0  0  0  0  0  0  0  0  0  0  0  0
   43.3381   34.4600   39.7312 H   0  0  0  0  0  0  0  0  0  0  0  0
   44.7753   35.2710   40.4090 H   0  0  0  0  0  0  0  0  0  0  0  0
  1  2  1  0
  1  8  1  0
  3  2  1  0
  4  5  1  0
  4  3  1  0
  5  1  1  0
  6 11  2  0
  7  6  1  0
  8  7  2  0
  8  9  1  0
  9 10  2  0
 10 11  1  0
 12  5  1  0
 13 12  1  0
 14 13  1  0
 15 13  2  0
  2 16  1  0
  2 17  1  0
  3 18  1  0
  3 19  1  0
  4 20  1  0
  4 21  1  0
  5 22  1  6
  6 23  1  0
  7 24  1  0
 10 25  1  0
 14 26  1  0
 14 27  1  0
M  ISO  8  16  13  17  13  18  13  19  13  20  13  21  13  22  13  23  14
M  ISO  2  24  14  25  14
M  END
>  <minimizedAffinity>  (1) 
-4.61128092

>  <minimizedRMSD>  (1) 
0.36103335

$$$$
