
     RDKit          3D

 35 36  0  0  1  0  0  0  0  0999 V2000
   47.2430   34.6560   42.3760 N   0  0  0  0  0  0  0  0  0  0  0  0
   48.6940   34.7090   42.4040 C   0  0  0  0  0  0  0  0  0  0  0  0
   48.9310   35.5080   41.1330 C   0  0  0  0  0  0  0  0  0  0  0  0
   48.0690   34.7300   40.1690 C   0  0  0  0  0  0  0  0  0  0  0  0
   46.8230   34.4460   40.9960 C   0  0  1  0  0  0  0  0  0  0  0  0
   44.5120   35.8260   44.6340 C   0  0  0  0  0  0  0  0  0  0  0  0
   45.3550   35.7750   43.5290 C   0  0  0  0  0  0  0  0  0  0  0  0
   46.3570   34.7770   43.4470 C   0  0  0  0  0  0  0  0  0  0  0  0
   46.4180   33.9100   44.5030 N   0  0  0  0  0  0  0  0  0  0  0  0
   45.5930   33.9760   45.5630 C   0  0  0  0  0  0  0  0  0  0  0  0
   44.6400   34.9350   45.6270 N   0  0  0  0  0  0  0  0  0  0  0  0
   46.3260   33.2230   40.7440 O   0  0  0  0  0  0  0  0  0  0  0  0
   45.1990   32.9690   40.1060 C   0  0  0  0  0  0  0  0  0  0  0  0
   44.5910   31.7350   40.7980 C   0  0  0  0  0  0  0  0  0  0  0  0
   45.1600   32.7210   38.6630 C   0  0  0  0  0  0  0  0  0  0  0  0
   44.2020   34.0910   40.4190 C   0  0  0  0  0  0  0  0  0  0  0  0
   49.0699   35.2323   43.2956 H   0  0  0  0  0  0  0  0  0  0  0  0
   49.2008   33.7338   42.4495 H   0  0  0  0  0  0  0  0  0  0  0  0
   48.5908   36.5490   41.2360 H   0  0  0  0  0  0  0  0  0  0  0  0
   49.9859   35.6045   40.8367 H   0  0  0  0  0  0  0  0  0  0  0  0
   48.5618   33.7966   39.8594 H   0  0  0  0  0  0  0  0  0  0  0  0
   47.8606   35.2698   39.2335 H   0  0  0  0  0  0  0  0  0  0  0  0
   45.9803   35.1085   40.7491 H   0  0  0  0  0  0  0  0  0  0  0  0
   43.7352   36.6026   44.6934 H   0  0  0  0  0  0  0  0  0  0  0  0
   45.2436   36.5100   42.7182 H   0  0  0  0  0  0  0  0  0  0  0  0
   45.6931   33.2477   46.3813 H   0  0  0  0  0  0  0  0  0  0  0  0
   44.6522   31.8592   41.8892 H   0  0  0  0  0  0  0  0  0  0  0  0
   43.5376   31.6291   40.4995 H   0  0  0  0  0  0  0  0  0  0  0  0
   45.1489   30.8352   40.4995 H   0  0  0  0  0  0  0  0  0  0  0  0
   44.9915   31.6496   38.4795 H   0  0  0  0  0  0  0  0  0  0  0  0
   44.3424   33.3031   38.2129 H   0  0  0  0  0  0  0  0  0  0  0  0
   46.1168   33.0241   38.2129 H   0  0  0  0  0  0  0  0  0  0  0  0
   44.1042   34.2011   41.5091 H   0  0  0  0  0  0  0  0  0  0  0  0
   44.5646   35.0350   39.9862 H   0  0  0  0  0  0  0  0  0  0  0  0
   43.2219   33.8419   39.9862 H   0  0  0  0  0  0  0  0  0  0  0  0
  1  2  1  0
  1  8  1  0
  3  2  1  0
  4  5  1  0
  4  3  1  0
  5  1  1  0
  6 11  2  0
  7  6  1  0
  8  7  2  0
  8  9  1  0
  9 10  2  0
 10 11  1  0
 12  5  1  0
 13 16  1  0
 13 12  1  0
 13 14  1  0
 15 13  1  0
  2 17  1  0
  2 18  1  0
  3 19  1  0
  3 20  1  0
  4 21  1  0
  4 22  1  0
  5 23  1  6
  6 24  1  0
  7 25  1  0
 10 26  1  0
 14 27  1  0
 14 28  1  0
 14 29  1  0
 15 30  1  0
 15 31  1  0
 15 32  1  0
 16 33  1  0
 16 34  1  0
 16 35  1  0
M  ISO  8  17  13  18  13  19  13  20  13  21  13  22  13  23  13  24  14
M  ISO  8  25  14  26  14  27   8  28   8  29   8  30   8  31   8  32   8
M  ISO  3  33   8  34   8  35   8
M  END
>  <minimizedAffinity>  (1) 
-4.57098675

>  <minimizedRMSD>  (1) 
0.308576196

$$$$
