
     RDKit          3D

 29 30  0  0  1  0  0  0  0  0999 V2000
   47.1780   34.6610   42.3100 N   0  0  0  0  0  0  0  0  0  0  0  0
   48.6470   34.7400   42.3370 C   0  0  0  0  0  0  0  0  0  0  0  0
   48.8780   35.4880   41.0430 C   0  0  0  0  0  0  0  0  0  0  0  0
   48.0300   34.6620   40.1050 C   0  0  0  0  0  0  0  0  0  0  0  0
   46.8060   34.3820   40.9500 C   0  0  1  0  0  0  0  0  0  0  0  0
   44.5050   35.9400   44.5560 C   0  0  0  0  0  0  0  0  0  0  0  0
   45.3430   35.8580   43.4400 C   0  0  0  0  0  0  0  0  0  0  0  0
   46.2990   34.8230   43.3830 C   0  0  0  0  0  0  0  0  0  0  0  0
   46.3250   33.9710   44.4410 N   0  0  0  0  0  0  0  0  0  0  0  0
   45.5210   34.0530   45.5090 C   0  0  0  0  0  0  0  0  0  0  0  0
   44.5990   35.0500   45.5650 N   0  0  0  0  0  0  0  0  0  0  0  0
   46.2900   33.1040   40.7800 O   0  0  0  0  0  0  0  0  0  0  0  0
   45.2590   33.0570   39.8580 C   0  0  0  0  0  0  0  0  0  0  0  0
   44.1840   34.0310   40.3520 C   0  0  0  0  0  0  0  0  0  0  0  0
   49.0121   35.3038   43.2081 H   0  0  0  0  0  0  0  0  0  0  0  0
   49.1673   33.7744   42.4201 H   0  0  0  0  0  0  0  0  0  0  0  0
   48.5241   36.5277   41.1041 H   0  0  0  0  0  0  0  0  0  0  0  0
   49.9330   35.5860   40.7475 H   0  0  0  0  0  0  0  0  0  0  0  0
   48.5407   33.7302   39.8205 H   0  0  0  0  0  0  0  0  0  0  0  0
   47.8054   35.1640   39.1523 H   0  0  0  0  0  0  0  0  0  0  0  0
   45.9745   35.0285   40.6328 H   0  0  0  0  0  0  0  0  0  0  0  0
   43.7563   36.7440   44.6121 H   0  0  0  0  0  0  0  0  0  0  0  0
   45.2581   36.5876   42.6212 H   0  0  0  0  0  0  0  0  0  0  0  0
   45.6056   33.3243   46.3286 H   0  0  0  0  0  0  0  0  0  0  0  0
   44.8492   32.0379   39.7987 H   0  0  0  0  0  0  0  0  0  0  0  0
   45.6126   33.3331   38.8536 H   0  0  0  0  0  0  0  0  0  0  0  0
   44.1745   34.0396   41.4519 H   0  0  0  0  0  0  0  0  0  0  0  0
   44.4060   35.0419   39.9793 H   0  0  0  0  0  0  0  0  0  0  0  0
   43.1999   33.7107   39.9793 H   0  0  0  0  0  0  0  0  0  0  0  0
  1  2  1  0
  1  8  1  0
  3  2  1  0
  4  5  1  0
  4  3  1  0
  5  1  1  0
  6 11  2  0
  7  6  1  0
  8  7  2  0
  8  9  1  0
  9 10  2  0
 10 11  1  0
 12  5  1  0
 13 14  1  0
 13 12  1  0
  2 15  1  0
  2 16  1  0
  3 17  1  0
  3 18  1  0
  4 19  1  0
  4 20  1  0
  5 21  1  6
  6 22  1  0
  7 23  1  0
 10 24  1  0
 13 25  1  0
 13 26  1  0
 14 27  1  0
 14 28  1  0
 14 29  1  0
M  ISO  8  15  13  16  13  17  13  18  13  19  13  20  13  21  13  22  14
M  ISO  7  23  14  24  14  25   8  26   8  27   8  28   8  29   8
M  END
>  <minimizedAffinity>  (1) 
-4.42676735

>  <minimizedRMSD>  (1) 
0.716136098

$$$$
