
     RDKit          3D

 26 27  0  0  1  0  0  0  0  0999 V2000
   47.2040   34.6780   42.2830 N   0  0  0  0  0  0  0  0  0  0  0  0
   48.6570   34.8040   42.2990 C   0  0  0  0  0  0  0  0  0  0  0  0
   48.8660   35.5030   40.9770 C   0  0  0  0  0  0  0  0  0  0  0  0
   48.0490   34.6280   40.0720 C   0  0  0  0  0  0  0  0  0  0  0  0
   46.8170   34.3560   40.9380 C   0  0  1  0  0  0  0  0  0  0  0  0
   44.5000   35.9560   44.5100 C   0  0  0  0  0  0  0  0  0  0  0  0
   45.3490   35.8710   43.4050 C   0  0  0  0  0  0  0  0  0  0  0  0
   46.3210   34.8330   43.3480 C   0  0  0  0  0  0  0  0  0  0  0  0
   46.3340   33.9890   44.4110 N   0  0  0  0  0  0  0  0  0  0  0  0
   45.5160   34.0770   45.4690 C   0  0  0  0  0  0  0  0  0  0  0  0
   44.5940   35.0660   45.5160 N   0  0  0  0  0  0  0  0  0  0  0  0
   46.3430   33.0620   40.7840 O   0  0  0  0  0  0  0  0  0  0  0  0
   45.0550   33.1950   40.2190 C   0  0  0  0  0  0  0  0  0  0  0  0
   49.0058   35.4147   43.1448 H   0  0  0  0  0  0  0  0  0  0  0  0
   49.2058   33.8582   42.4184 H   0  0  0  0  0  0  0  0  0  0  0  0
   48.4838   36.5343   40.9982 H   0  0  0  0  0  0  0  0  0  0  0  0
   49.9190   35.6139   40.6789 H   0  0  0  0  0  0  0  0  0  0  0  0
   48.5807   33.6969   39.8265 H   0  0  0  0  0  0  0  0  0  0  0  0
   47.8194   35.0828   39.0971 H   0  0  0  0  0  0  0  0  0  0  0  0
   45.9609   34.9766   40.6347 H   0  0  0  0  0  0  0  0  0  0  0  0
   43.7477   36.7570   44.5592 H   0  0  0  0  0  0  0  0  0  0  0  0
   45.2674   36.6001   42.5854 H   0  0  0  0  0  0  0  0  0  0  0  0
   45.5936   33.3514   46.2921 H   0  0  0  0  0  0  0  0  0  0  0  0
   44.3081   33.2721   41.0229 H   0  0  0  0  0  0  0  0  0  0  0  0
   45.0192   34.1016   39.5971 H   0  0  0  0  0  0  0  0  0  0  0  0
   44.8347   32.3148   39.5971 H   0  0  0  0  0  0  0  0  0  0  0  0
  1  2  1  0
  1  8  1  0
  3  2  1  0
  4  5  1  0
  4  3  1  0
  5  1  1  0
  6 11  2  0
  7  6  1  0
  8  7  2  0
  8  9  1  0
  9 10  2  0
 10 11  1  0
 12  5  1  0
 13 12  1  0
  2 14  1  0
  2 15  1  0
  3 16  1  0
  3 17  1  0
  4 18  1  0
  4 19  1  0
  5 20  1  6
  6 21  1  0
  7 22  1  0
 10 23  1  0
 13 24  1  0
 13 25  1  0
 13 26  1  0
M  ISO  8  14  13  15  13  16  13  17  13  18  13  19  13  20  13  21  14
M  ISO  5  22  14  23  14  24   8  25   8  26   8
M  END
>  <minimizedAffinity>  (1) 
-4.41725492

>  <minimizedRMSD>  (1) 
0.04009993

$$$$
