
     RDKit          3D

 27 29  0  0  0  0  0  0  0  0999 V2000
   46.7110   34.8160   42.0080 C   0  0  0  0  0  0  0  0  0  0  0  0
   47.9730   35.3840   41.9340 C   0  0  0  0  0  0  0  0  0  0  0  0
   48.7950   35.2790   40.8320 C   0  0  0  0  0  0  0  0  0  0  0  0
   48.3640   34.5810   39.7320 C   0  0  0  0  0  0  0  0  0  0  0  0
   47.1250   33.9960   39.7410 C   0  0  0  0  0  0  0  0  0  0  0  0
   46.6760   33.3000   38.6420 C   0  0  0  0  0  0  0  0  0  0  0  0
   45.4310   32.7020   38.6060 C   0  0  0  0  0  0  0  0  0  0  0  0
   44.6590   32.8510   39.7570 C   0  0  0  0  0  0  0  0  0  0  0  0
   45.1320   33.5440   40.8210 C   0  0  0  0  0  0  0  0  0  0  0  0
   46.3690   34.1430   40.8690 C   0  0  0  0  0  0  0  0  0  0  0  0
   44.4330   35.9780   44.8300 C   0  0  0  0  0  0  0  0  0  0  0  0
   45.0620   35.9680   43.5990 C   0  0  0  0  0  0  0  0  0  0  0  0
   45.9710   34.9990   43.2280 C   0  0  0  0  0  0  0  0  0  0  0  0
   46.1780   34.0640   44.2040 N   0  0  0  0  0  0  0  0  0  0  0  0
   45.5850   34.0520   45.3980 C   0  0  0  0  0  0  0  0  0  0  0  0
   44.7180   35.0050   45.7040 N   0  0  0  0  0  0  0  0  0  0  0  0
   45.8830   33.0420   46.3030 O   0  0  0  0  0  0  0  0  0  0  0  0
   48.3393   35.9502   42.8030 H   0  0  0  0  0  0  0  0  0  0  0  0
   49.7885   35.7511   40.8346 H   0  0  0  0  0  0  0  0  0  0  0  0
   49.0105   34.4915   38.8466 H   0  0  0  0  0  0  0  0  0  0  0  0
   47.3308   33.2169   37.7620 H   0  0  0  0  0  0  0  0  0  0  0  0
   45.0728   32.1453   37.7275 H   0  0  0  0  0  0  0  0  0  0  0  0
   43.6560   32.4016   39.8020 H   0  0  0  0  0  0  0  0  0  0  0  0
   44.4835   33.6334   41.7050 H   0  0  0  0  0  0  0  0  0  0  0  0
   43.7131   36.7693   45.0860 H   0  0  0  0  0  0  0  0  0  0  0  0
   44.8270   36.7691   42.8828 H   0  0  0  0  0  0  0  0  0  0  0  0
   45.4456   33.0282   47.1910 H   0  0  0  0  0  0  0  0  0  0  0  0
  1 13  1  0
  2  1  2  0
  3  2  1  0
  4  5  1  0
  4  3  2  0
  5 10  2  0
  6  5  1  0
  7  6  2  0
  7  8  1  0
  8  9  2  0
  9 10  1  0
 10  1  1  0
 11 16  2  0
 12 11  1  0
 13 12  2  0
 13 14  1  0
 14 15  2  0
 15 16  1  0
 15 17  1  0
  2 18  1  0
  3 19  1  0
  4 20  1  0
  6 21  1  0
  7 22  1  0
  8 23  1  0
  9 24  1  0
 11 25  1  0
 12 26  1  0
 17 27  1  0
M  ISO  8  18  14  19  14  20  14  21  14  22  14  23  14  24  14  25  14
M  ISO  2  26  14  27   3
M  END
>  <minimizedAffinity>  (1) 
-5.88528919

>  <minimizedRMSD>  (1) 
0.031343475

$$$$
