
     RDKit          3D

 45 49  0  0  1  0  0  0  0  0999 V2000
   43.4880   33.2630   40.5760 O   0  0  0  0  0  0  0  0  0  0  0  0
   42.4760   33.7780   39.7440 C   0  0  0  0  0  0  0  0  0  0  0  0
   42.6520   34.5170   38.5360 C   0  0  0  0  0  0  0  0  0  0  0  0
   41.4630   34.8680   37.9910 N   0  0  0  0  0  0  0  0  0  0  0  0
   40.5030   34.3860   38.7970 C   0  0  0  0  0  0  0  0  0  0  0  0
   39.1290   34.4200   38.8090 C   0  0  0  0  0  0  0  0  0  0  0  0
   38.3780   33.8430   39.7930 C   0  0  0  0  0  0  0  0  0  0  0  0
   39.0000   33.1750   40.8510 C   0  0  0  0  0  0  0  0  0  0  0  0
   40.3870   33.1460   40.8250 C   0  0  0  0  0  0  0  0  0  0  0  0
   41.1350   33.7200   39.8610 C   0  0  0  0  0  0  0  0  0  0  0  0
   40.7660   32.4450   41.9030 O   0  0  0  0  0  0  0  0  0  0  0  0
   40.5590   31.0330   41.7440 C   0  0  0  0  0  0  0  0  0  0  0  0
   41.1030   30.2080   40.7420 C   0  0  0  0  0  0  0  0  0  0  0  0
   40.7340   28.9100   40.8360 C   0  0  0  0  0  0  0  0  0  0  0  0
   39.9420   28.9120   41.9160 N   0  0  0  0  0  0  0  0  0  0  0  0
   39.8570   30.1160   42.4120 N   0  0  0  0  0  0  0  0  0  0  0  0
   45.5220   33.6920   41.7420 N   0  0  0  0  0  0  0  0  0  0  0  0
   46.6290   32.7690   41.4120 C   0  0  0  0  0  0  0  0  0  0  0  0
   46.9950   33.3110   40.0650 C   0  0  0  0  0  0  0  0  0  0  0  0
   45.6280   33.3510   39.4400 C   0  0  0  0  0  0  0  0  0  0  0  0
   44.7430   33.9150   40.5790 C   0  0  1  0  0  0  0  0  0  0  0  0
   44.4200   36.0070   44.4250 C   0  0  0  0  0  0  0  0  0  0  0  0
   44.6610   35.5250   43.1310 C   0  0  0  0  0  0  0  0  0  0  0  0
   45.2600   34.2530   42.9940 C   0  0  0  0  0  0  0  0  0  0  0  0
   45.5690   33.5690   44.1390 N   0  0  0  0  0  0  0  0  0  0  0  0
   45.3180   34.0700   45.3800 C   0  0  0  0  0  0  0  0  0  0  0  0
   44.7480   35.2800   45.5080 N   0  0  0  0  0  0  0  0  0  0  0  0
   43.6306   34.7698   38.1020 H   0  0  0  0  0  0  0  0  0  0  0  0
   41.3217   35.4034   37.1225 H   0  0  0  0  0  0  0  0  0  0  0  0
   38.6101   34.9360   37.9878 H   0  0  0  0  0  0  0  0  0  0  0  0
   37.2805   33.9043   39.7526 H   0  0  0  0  0  0  0  0  0  0  0  0
   38.4233   32.6995   41.6580 H   0  0  0  0  0  0  0  0  0  0  0  0
   41.7693   30.5853   39.9523 H   0  0  0  0  0  0  0  0  0  0  0  0
   41.0138   28.0658   40.1887 H   0  0  0  0  0  0  0  0  0  0  0  0
   39.4679   28.0821   42.3001 H   0  0  0  0  0  0  0  0  0  0  0  0
   47.4600   32.8494   42.1283 H   0  0  0  0  0  0  0  0  0  0  0  0
   46.3753   31.6990   41.4375 H   0  0  0  0  0  0  0  0  0  0  0  0
   47.4455   34.3122   40.1331 H   0  0  0  0  0  0  0  0  0  0  0  0
   47.7478   32.7294   39.5127 H   0  0  0  0  0  0  0  0  0  0  0  0
   45.6134   34.0139   38.5623 H   0  0  0  0  0  0  0  0  0  0  0  0
   45.2899   32.3711   39.0719 H   0  0  0  0  0  0  0  0  0  0  0  0
   44.4894   34.9816   40.4890 H   0  0  0  0  0  0  0  0  0  0  0  0
   43.9553   36.9953   44.5568 H   0  0  0  0  0  0  0  0  0  0  0  0
   44.3911   36.1208   42.2466 H   0  0  0  0  0  0  0  0  0  0  0  0
   45.5809   33.4863   46.2745 H   0  0  0  0  0  0  0  0  0  0  0  0
  1 21  1  0
  2 10  1  0
  2  1  1  0
  3  2  2  0
  4  3  1  0
  4  5  1  0
  5  6  2  0
  5 10  1  0
  6  7  1  0
  7  8  2  0
  9  8  1  0
  9 11  1  0
 10  9  2  0
 12 11  1  0
 12 16  2  0
 13 14  2  0
 13 12  1  0
 14 15  1  0
 15 16  1  0
 17 24  1  0
 18 17  1  0
 19 18  1  0
 20 19  1  0
 20 21  1  0
 21 17  1  0
 22 27  2  0
 23 22  1  0
 24 23  2  0
 24 25  1  0
 25 26  2  0
 26 27  1  0
  3 28  1  0
  4 29  1  0
  6 30  1  0
  7 31  1  0
  8 32  1  0
 13 33  1  0
 14 34  1  0
 15 35  1  0
 18 36  1  0
 18 37  1  0
 19 38  1  0
 19 39  1  0
 20 40  1  0
 20 41  1  0
 21 42  1  6
 22 43  1  0
 23 44  1  0
 26 45  1  0
M  ISO  8  28  14  29   9  30  14  31  14  32  14  33  14  34  14  35   9
M  ISO  8  36  13  37  13  38  13  39  13  40  13  41  13  42  13  43  14
M  ISO  2  44  14  45  14
M  END
>  <minimizedAffinity>  (1) 
-6.1381979

>  <minimizedRMSD>  (1) 
2.24693441

$$$$
