
     RDKit          3D

 20 20  0  0  1  0  0  0  0  0999 V2000
   44.6770   35.4660   43.2750 C   0  0  1  0  0  0  0  0  0  0  0  0
   45.4250   34.5230   44.1530 C   0  0  0  0  0  0  0  0  0  0  0  0
   46.4770   33.8190   43.5320 C   0  0  0  0  0  0  0  0  0  0  0  0
   47.2280   32.9130   44.2700 C   0  0  0  0  0  0  0  0  0  0  0  0
   46.8770   32.7650   45.6000 N   0  0  0  0  0  0  0  0  0  0  0  0
   45.8640   33.4550   46.1640 C   0  0  0  0  0  0  0  0  0  0  0  0
   45.1530   34.3190   45.4470 N   0  0  0  0  0  0  0  0  0  0  0  0
   45.1970   36.8820   43.4060 C   0  0  0  0  0  0  0  0  0  0  0  0
   44.6820   34.9980   41.8290 C   0  0  0  0  0  0  0  0  0  0  0  0
   43.0350   35.2590   41.0770 S   0  0  0  0  0  0  0  0  0  0  0  0
   43.6308   35.4730   43.6147 H   0  0  0  0  0  0  0  0  0  0  0  0
   46.7019   33.9864   42.4683 H   0  0  0  0  0  0  0  0  0  0  0  0
   48.0562   32.3445   43.8217 H   0  0  0  0  0  0  0  0  0  0  0  0
   45.6245   33.3011   47.2265 H   0  0  0  0  0  0  0  0  0  0  0  0
   45.2920   37.1407   44.4709 H   0  0  0  0  0  0  0  0  0  0  0  0
   46.1815   36.9574   42.9211 H   0  0  0  0  0  0  0  0  0  0  0  0
   44.4953   37.5766   42.9211 H   0  0  0  0  0  0  0  0  0  0  0  0
   45.4341   35.5688   41.2646 H   0  0  0  0  0  0  0  0  0  0  0  0
   44.9253   33.9257   41.7989 H   0  0  0  0  0  0  0  0  0  0  0  0
   42.0994   35.4073   42.0667 H   0  0  0  0  0  0  0  0  0  0  0  0
  1  8  1  0
  1  2  1  0
  2  7  2  0
  3  2  1  0
  3  4  2  0
  4  5  1  0
  5  6  2  0
  7  6  1  0
  9  1  1  0
 10  9  1  0
  1 11  1  1
  3 12  1  0
  4 13  1  0
  6 14  1  0
  8 15  1  0
  8 16  1  0
  8 17  1  0
  9 18  1  0
  9 19  1  0
 10 20  1  0
M  ISO  8  11   8  12  14  13  14  14  14  15   8  16   8  17   8  18   8
M  ISO  2  19   8  20  11
M  END
>  <minimizedAffinity>  (1) 
-3.0944159

>  <minimizedRMSD>  (1) 
0.467610598

$$$$
