
     RDKit          3D

 34 35  0  0  1  0  0  0  0  0999 V2000
   44.4740   34.9280   42.3920 C   0  0  1  0  0  0  0  0  0  0  0  0
   45.8090   34.7340   41.7600 C   0  0  0  0  0  0  0  0  0  0  0  0
   46.9160   35.2060   42.4990 C   0  0  0  0  0  0  0  0  0  0  0  0
   48.1960   35.0480   41.9650 C   0  0  0  0  0  0  0  0  0  0  0  0
   48.2920   34.4320   40.7350 N   0  0  0  0  0  0  0  0  0  0  0  0
   47.2220   33.9960   40.0660 C   0  0  0  0  0  0  0  0  0  0  0  0
   45.9860   34.1450   40.5720 N   0  0  0  0  0  0  0  0  0  0  0  0
   44.5580   35.5720   43.7540 C   0  0  0  0  0  0  0  0  0  0  0  0
   43.5550   35.7220   41.4770 C   0  0  0  0  0  0  0  0  0  0  0  0
   42.4000   34.8790   41.2330 N   0  0  0  0  0  0  0  0  0  0  0  0
   42.3440   34.3040   39.9330 C   0  0  0  0  0  0  0  0  0  0  0  0
   40.9490   33.9500   39.4960 C   0  0  0  0  0  0  0  0  0  0  0  0
   40.1330   35.2180   39.3920 C   0  0  0  0  0  0  0  0  0  0  0  0
   40.3280   36.0760   40.5980 C   0  0  0  0  0  0  0  0  0  0  0  0
   41.1610   35.4210   41.6770 C   0  0  0  0  0  0  0  0  0  0  0  0
   44.0484   33.9250   42.5431 H   0  0  0  0  0  0  0  0  0  0  0  0
   46.7723   35.6890   43.4768 H   0  0  0  0  0  0  0  0  0  0  0  0
   49.0893   35.3996   42.5020 H   0  0  0  0  0  0  0  0  0  0  0  0
   47.3538   33.5088   39.0886 H   0  0  0  0  0  0  0  0  0  0  0  0
   44.4573   34.8002   44.5313 H   0  0  0  0  0  0  0  0  0  0  0  0
   45.5296   36.0765   43.8618 H   0  0  0  0  0  0  0  0  0  0  0  0
   43.7483   36.3088   43.8618 H   0  0  0  0  0  0  0  0  0  0  0  0
   43.2473   36.6585   41.9651 H   0  0  0  0  0  0  0  0  0  0  0  0
   44.0600   35.9917   40.5377 H   0  0  0  0  0  0  0  0  0  0  0  0
   42.7621   35.0246   39.2147 H   0  0  0  0  0  0  0  0  0  0  0  0
   42.9210   33.3681   39.9667 H   0  0  0  0  0  0  0  0  0  0  0  0
   40.9841   33.4519   38.5159 H   0  0  0  0  0  0  0  0  0  0  0  0
   40.4898   33.2699   40.2285 H   0  0  0  0  0  0  0  0  0  0  0  0
   40.4472   35.7764   38.4979 H   0  0  0  0  0  0  0  0  0  0  0  0
   39.0692   34.9471   39.3210 H   0  0  0  0  0  0  0  0  0  0  0  0
   40.8290   37.0046   40.2871 H   0  0  0  0  0  0  0  0  0  0  0  0
   39.3322   36.2621   41.0267 H   0  0  0  0  0  0  0  0  0  0  0  0
   40.5693   34.6047   42.1169 H   0  0  0  0  0  0  0  0  0  0  0  0
   41.4121   36.2143   42.3964 H   0  0  0  0  0  0  0  0  0  0  0  0
  1  8  1  0
  2  1  1  0
  2  3  2  0
  4  3  1  0
  5  4  2  0
  6  7  2  0
  6  5  1  0
  7  2  1  0
  9  1  1  0
 10  9  1  0
 10 15  1  0
 11 10  1  0
 12 11  1  0
 13 12  1  0
 13 14  1  0
 14 15  1  0
  1 16  1  1
  3 17  1  0
  4 18  1  0
  6 19  1  0
  8 20  1  0
  8 21  1  0
  8 22  1  0
  9 23  1  0
  9 24  1  0
 11 25  1  0
 11 26  1  0
 12 27  1  0
 12 28  1  0
 13 29  1  0
 13 30  1  0
 14 31  1  0
 14 32  1  0
 15 33  1  0
 15 34  1  0
M  ISO  8  16   8  17  14  18  14  19  14  20   8  21   8  22   8  23   8
M  ISO  8  24   8  25  13  26  13  27  13  28  13  29  13  30  13  31  13
M  ISO  3  32  13  33  13  34  13
M  END
>  <minimizedAffinity>  (1) 
-4.64389086

>  <minimizedRMSD>  (1) 
3.45038581

$$$$
