
     RDKit          3D

 48 51  0  0  1  0  0  0  0  0999 V2000
   42.7250   34.7500   40.5940 N   0  0  0  0  0  0  0  0  0  0  0  0
   43.1520   34.5540   39.2770 C   0  0  0  0  0  0  0  0  0  0  0  0
   42.0940   34.3790   38.2540 C   0  0  0  0  0  0  0  0  0  0  0  0
   41.1090   35.5030   38.2760 C   0  0  0  0  0  0  0  0  0  0  0  0
   40.7510   35.8620   39.6640 C   0  0  0  0  0  0  0  0  0  0  0  0
   41.3210   35.0110   40.7420 C   0  0  1  0  0  0  0  0  0  0  0  0
   40.5720   33.7630   41.0380 C   0  0  0  0  0  0  0  0  0  0  0  0
   39.2510   33.5290   40.9330 N   0  0  0  0  0  0  0  0  0  0  0  0
   38.6380   32.3880   41.1930 C   0  0  0  0  0  0  0  0  0  0  0  0
   39.3090   31.3020   41.6080 N   0  0  0  0  0  0  0  0  0  0  0  0
   40.6360   31.4250   41.7460 C   0  0  0  0  0  0  0  0  0  0  0  0
   41.3030   30.2990   42.1750 C   0  0  0  0  0  0  0  0  0  0  0  0
   42.6620   30.3430   42.3460 C   0  0  0  0  0  0  0  0  0  0  0  0
   43.3390   31.5270   42.0820 C   0  0  0  0  0  0  0  0  0  0  0  0
   42.6150   32.6140   41.6570 C   0  0  0  0  0  0  0  0  0  0  0  0
   41.2470   32.6310   41.4660 C   0  0  0  0  0  0  0  0  0  0  0  0
   43.5830   35.5130   41.4630 C   0  0  0  0  0  0  0  0  0  0  0  0
   44.5110   34.5160   42.1660 C   0  0  1  0  0  0  0  0  0  0  0  0
   45.8580   34.5290   41.5380 C   0  0  0  0  0  0  0  0  0  0  0  0
   46.8680   35.2530   42.2350 C   0  0  0  0  0  0  0  0  0  0  0  0
   48.1550   35.3080   41.6900 C   0  0  0  0  0  0  0  0  0  0  0  0
   48.3550   34.6420   40.4890 N   0  0  0  0  0  0  0  0  0  0  0  0
   47.3710   33.9710   39.8680 C   0  0  0  0  0  0  0  0  0  0  0  0
   46.1210   33.9060   40.3780 N   0  0  0  0  0  0  0  0  0  0  0  0
   44.5510   34.7410   43.6420 C   0  0  0  0  0  0  0  0  0  0  0  0
   43.7539   35.4282   38.9880 H   0  0  0  0  0  0  0  0  0  0  0  0
   43.7024   33.6017   39.2899 H   0  0  0  0  0  0  0  0  0  0  0  0
   41.5625   33.4359   38.4493 H   0  0  0  0  0  0  0  0  0  0  0  0
   42.5743   34.3647   37.2645 H   0  0  0  0  0  0  0  0  0  0  0  0
   41.5513   36.3794   37.7798 H   0  0  0  0  0  0  0  0  0  0  0  0
   40.1980   35.1829   37.7492 H   0  0  0  0  0  0  0  0  0  0  0  0
   41.0899   36.8937   39.8394 H   0  0  0  0  0  0  0  0  0  0  0  0
   39.6622   35.7190   39.7280 H   0  0  0  0  0  0  0  0  0  0  0  0
   41.1933   35.6466   41.6306 H   0  0  0  0  0  0  0  0  0  0  0  0
   37.5471   32.3262   41.0658 H   0  0  0  0  0  0  0  0  0  0  0  0
   40.7488   29.3709   42.3789 H   0  0  0  0  0  0  0  0  0  0  0  0
   43.2097   29.4524   42.6879 H   0  0  0  0  0  0  0  0  0  0  0  0
   44.4295   31.5924   42.2104 H   0  0  0  0  0  0  0  0  0  0  0  0
   43.1673   33.5431   41.4529 H   0  0  0  0  0  0  0  0  0  0  0  0
   44.1749   36.2298   40.8749 H   0  0  0  0  0  0  0  0  0  0  0  0
   42.9926   36.0829   42.1955 H   0  0  0  0  0  0  0  0  0  0  0  0
   44.1015   33.5039   42.0322 H   0  0  0  0  0  0  0  0  0  0  0  0
   46.6398   35.7595   43.1844 H   0  0  0  0  0  0  0  0  0  0  0  0
   48.9696   35.8530   42.1894 H   0  0  0  0  0  0  0  0  0  0  0  0
   47.5884   33.4604   38.9183 H   0  0  0  0  0  0  0  0  0  0  0  0
   44.3814   33.7872   44.1630 H   0  0  0  0  0  0  0  0  0  0  0  0
   45.5348   35.1436   43.9250 H   0  0  0  0  0  0  0  0  0  0  0  0
   43.7662   35.4580   43.9250 H   0  0  0  0  0  0  0  0  0  0  0  0
  1  6  1  0
  1 17  1  0
  2  1  1  0
  3  4  1  0
  3  2  1  0
  4  5  1  0
  5  6  1  0
  6  7  1  0
  7 16  1  0
  8  7  2  0
  8  9  1  0
  9 10  2  0
 10 11  1  0
 11 12  2  0
 12 13  1  0
 14 13  2  0
 15 14  1  0
 16 15  2  0
 16 11  1  0
 17 18  1  0
 18 25  1  0
 19 18  1  0
 19 20  2  0
 21 20  1  0
 22 21  2  0
 23 24  2  0
 23 22  1  0
 24 19  1  0
  2 26  1  0
  2 27  1  0
  3 28  1  0
  3 29  1  0
  4 30  1  0
  4 31  1  0
  5 32  1  0
  5 33  1  0
  6 34  1  1
  9 35  1  0
 12 36  1  0
 13 37  1  0
 14 38  1  0
 15 39  1  0
 17 40  1  0
 17 41  1  0
 18 42  1  1
 20 43  1  0
 21 44  1  0
 23 45  1  0
 25 46  1  0
 25 47  1  0
 25 48  1  0
M  ISO  8  26  13  27  13  28  13  29  13  30  13  31  13  32  13  33  13
M  ISO  8  34  13  35  14  36  14  37  14  38  14  39  14  40   8  41   8
M  ISO  7  42   8  43  14  44  14  45  14  46   8  47   8  48   8
M  END
>  <minimizedAffinity>  (1) 
-5.74872589

>  <minimizedRMSD>  (1) 
2.38208199

$$$$
