
     RDKit          3D

 44 46  0  0  1  0  0  0  0  0999 V2000
   42.6340   34.3980   40.7100 N   0  0  0  0  0  0  0  0  0  0  0  0
   42.7040   35.0690   39.4610 C   0  0  0  0  0  0  0  0  0  0  0  0
   41.3980   35.2110   38.7600 C   0  0  0  0  0  0  0  0  0  0  0  0
   40.4250   35.9920   39.5840 C   0  0  0  0  0  0  0  0  0  0  0  0
   40.4990   35.6350   41.0120 C   0  0  0  0  0  0  0  0  0  0  0  0
   41.3550   34.4520   41.3220 C   0  0  1  0  0  0  0  0  0  0  0  0
   40.5930   33.1890   41.3620 C   0  0  0  0  0  0  0  0  0  0  0  0
   39.2370   33.1730   40.9900 C   0  0  0  0  0  0  0  0  0  0  0  0
   38.4040   32.0780   40.9920 C   0  0  0  0  0  0  0  0  0  0  0  0
   38.9360   30.8790   41.3940 C   0  0  0  0  0  0  0  0  0  0  0  0
   40.2520   30.8080   41.7730 C   0  0  0  0  0  0  0  0  0  0  0  0
   41.0180   31.9500   41.7430 C   0  0  0  0  0  0  0  0  0  0  0  0
   43.6920   34.7780   41.6430 C   0  0  0  0  0  0  0  0  0  0  0  0
   44.6790   33.6060   41.6460 C   0  0  1  0  0  0  0  0  0  0  0  0
   46.0270   34.0760   41.2420 C   0  0  0  0  0  0  0  0  0  0  0  0
   46.7230   34.8480   42.2070 C   0  0  0  0  0  0  0  0  0  0  0  0
   47.9990   35.3420   41.9190 C   0  0  0  0  0  0  0  0  0  0  0  0
   48.4910   35.0280   40.6780 N   0  0  0  0  0  0  0  0  0  0  0  0
   47.8070   34.2910   39.7820 C   0  0  0  0  0  0  0  0  0  0  0  0
   46.5800   33.8180   40.0630 N   0  0  0  0  0  0  0  0  0  0  0  0
   44.6600   32.8700   42.9490 C   0  0  0  0  0  0  0  0  0  0  0  0
   43.1115   36.0759   39.6347 H   0  0  0  0  0  0  0  0  0  0  0  0
   43.3416   34.4520   38.8108 H   0  0  0  0  0  0  0  0  0  0  0  0
   41.5583   35.7317   37.8044 H   0  0  0  0  0  0  0  0  0  0  0  0
   40.9830   34.2067   38.5892 H   0  0  0  0  0  0  0  0  0  0  0  0
   40.6465   37.0638   39.4740 H   0  0  0  0  0  0  0  0  0  0  0  0
   39.4116   35.7563   39.2270 H   0  0  0  0  0  0  0  0  0  0  0  0
   40.9008   36.5001   41.5598 H   0  0  0  0  0  0  0  0  0  0  0  0
   39.4770   35.3633   41.3148 H   0  0  0  0  0  0  0  0  0  0  0  0
   41.6748   34.6242   42.3603 H   0  0  0  0  0  0  0  0  0  0  0  0
   38.7997   34.1289   40.6659 H   0  0  0  0  0  0  0  0  0  0  0  0
   37.3515   32.1607   40.6830 H   0  0  0  0  0  0  0  0  0  0  0  0
   38.3080   29.9761   41.4123 H   0  0  0  0  0  0  0  0  0  0  0  0
   40.6887   29.8516   42.0963 H   0  0  0  0  0  0  0  0  0  0  0  0
   42.0687   31.8557   42.0545 H   0  0  0  0  0  0  0  0  0  0  0  0
   44.1900   35.6986   41.3046 H   0  0  0  0  0  0  0  0  0  0  0  0
   43.2949   34.9784   42.6491 H   0  0  0  0  0  0  0  0  0  0  0  0
   44.3628   32.8651   40.8970 H   0  0  0  0  0  0  0  0  0  0  0  0
   46.2590   35.0581   43.1820 H   0  0  0  0  0  0  0  0  0  0  0  0
   48.5710   35.9434   42.6409 H   0  0  0  0  0  0  0  0  0  0  0  0
   48.2598   34.0723   38.8037 H   0  0  0  0  0  0  0  0  0  0  0  0
   44.6786   33.5923   43.7784 H   0  0  0  0  0  0  0  0  0  0  0  0
   43.7458   32.2615   43.0131 H   0  0  0  0  0  0  0  0  0  0  0  0
   45.5415   32.2152   43.0131 H   0  0  0  0  0  0  0  0  0  0  0  0
  1  6  1  0
  1 13  1  0
  2  1  1  0
  3  2  1  0
  3  4  1  0
  4  5  1  0
  5  6  1  0
  6  7  1  0
  7 12  2  0
  8  9  2  0
  8  7  1  0
  9 10  1  0
 10 11  2  0
 12 11  1  0
 13 14  1  0
 14 21  1  0
 15 14  1  0
 15 16  2  0
 17 16  1  0
 18 17  2  0
 19 20  2  0
 19 18  1  0
 20 15  1  0
  2 22  1  0
  2 23  1  0
  3 24  1  0
  3 25  1  0
  4 26  1  0
  4 27  1  0
  5 28  1  0
  5 29  1  0
  6 30  1  1
  8 31  1  0
  9 32  1  0
 10 33  1  0
 11 34  1  0
 12 35  1  0
 13 36  1  0
 13 37  1  0
 14 38  1  6
 16 39  1  0
 17 40  1  0
 19 41  1  0
 21 42  1  0
 21 43  1  0
 21 44  1  0
M  ISO  8  22  13  23  13  24  13  25  13  26  13  27  13  28  13  29  13
M  ISO  8  30  13  31  14  32  14  33  14  34  14  35  14  36   8  37   8
M  ISO  7  38   8  39  14  40  14  41  14  42   8  43   8  44   8
M  END
>  <minimizedAffinity>  (1) 
-5.53627729

>  <minimizedRMSD>  (1) 
2.21053076

$$$$
