
     RDKit          3D

 49 51  0  0  1  0  0  0  0  0999 V2000
   42.7680   34.5270   40.6840 N   0  0  0  0  0  0  0  0  0  0  0  0
   42.5810   35.1570   39.4120 C   0  0  0  0  0  0  0  0  0  0  0  0
   41.2030   34.9650   38.8430 C   0  0  0  0  0  0  0  0  0  0  0  0
   40.2050   35.6170   39.7560 C   0  0  0  0  0  0  0  0  0  0  0  0
   40.4780   35.2830   41.1940 C   0  0  0  0  0  0  0  0  0  0  0  0
   41.5620   34.2160   41.3490 C   0  0  1  0  0  0  0  0  0  0  0  0
   40.9730   32.9770   40.9330 N   0  0  0  0  0  0  0  0  0  0  0  0
   41.8620   31.8570   40.9020 C   0  0  0  0  0  0  0  0  0  0  0  0
   42.0400   31.2410   42.2890 C   0  0  0  0  0  0  0  0  0  0  0  0
   40.7370   30.5270   42.6750 C   0  0  0  0  0  0  0  0  0  0  0  0
   39.6350   31.1170   41.8580 C   0  0  0  0  0  0  0  0  0  0  0  0
   39.8480   32.6130   41.7600 C   0  0  0  0  0  0  0  0  0  0  0  0
   43.8160   35.0910   41.4960 C   0  0  0  0  0  0  0  0  0  0  0  0
   44.8010   33.9580   41.8000 C   0  0  1  0  0  0  0  0  0  0  0  0
   46.1570   34.2930   41.2860 C   0  0  0  0  0  0  0  0  0  0  0  0
   46.9830   35.0490   42.1630 C   0  0  0  0  0  0  0  0  0  0  0  0
   48.2680   35.4000   41.7320 C   0  0  0  0  0  0  0  0  0  0  0  0
   48.6380   34.9780   40.4630 N   0  0  0  0  0  0  0  0  0  0  0  0
   47.8220   34.2670   39.6730 C   0  0  0  0  0  0  0  0  0  0  0  0
   46.5850   33.9180   40.0660 N   0  0  0  0  0  0  0  0  0  0  0  0
   44.7910   33.6070   43.2500 C   0  0  0  0  0  0  0  0  0  0  0  0
   42.7623   36.2357   39.5280 H   0  0  0  0  0  0  0  0  0  0  0  0
   43.2877   34.6873   38.7120 H   0  0  0  0  0  0  0  0  0  0  0  0
   41.1476   35.4261   37.8458 H   0  0  0  0  0  0  0  0  0  0  0  0
   40.9821   33.8910   38.7554 H   0  0  0  0  0  0  0  0  0  0  0  0
   40.2597   36.7078   39.6254 H   0  0  0  0  0  0  0  0  0  0  0  0
   39.2034   35.2426   39.4978 H   0  0  0  0  0  0  0  0  0  0  0  0
   40.8046   36.1963   41.7129 H   0  0  0  0  0  0  0  0  0  0  0  0
   39.5495   34.8831   41.6275 H   0  0  0  0  0  0  0  0  0  0  0  0
   41.8852   34.1505   42.3984 H   0  0  0  0  0  0  0  0  0  0  0  0
   41.4523   31.0948   40.2229 H   0  0  0  0  0  0  0  0  0  0  0  0
   42.8445   32.2074   40.5527 H   0  0  0  0  0  0  0  0  0  0  0  0
   42.8683   30.5174   42.2702 H   0  0  0  0  0  0  0  0  0  0  0  0
   42.2716   32.0263   43.0236 H   0  0  0  0  0  0  0  0  0  0  0  0
   40.8236   29.4507   42.4652 H   0  0  0  0  0  0  0  0  0  0  0  0
   40.5314   30.6553   43.7480 H   0  0  0  0  0  0  0  0  0  0  0  0
   39.6443   30.6754   40.8506 H   0  0  0  0  0  0  0  0  0  0  0  0
   38.6647   30.9077   42.3321 H   0  0  0  0  0  0  0  0  0  0  0  0
   40.0166   33.0086   42.7725 H   0  0  0  0  0  0  0  0  0  0  0  0
   38.9486   33.0399   41.2923 H   0  0  0  0  0  0  0  0  0  0  0  0
   44.3251   35.8985   40.9494 H   0  0  0  0  0  0  0  0  0  0  0  0
   43.4085   35.5184   42.4240 H   0  0  0  0  0  0  0  0  0  0  0  0
   44.4763   33.0516   41.2681 H   0  0  0  0  0  0  0  0  0  0  0  0
   46.6207   35.3509   43.1568 H   0  0  0  0  0  0  0  0  0  0  0  0
   48.9510   35.9819   42.3683 H   0  0  0  0  0  0  0  0  0  0  0  0
   48.1737   33.9609   38.6767 H   0  0  0  0  0  0  0  0  0  0  0  0
   44.8172   34.5283   43.8505 H   0  0  0  0  0  0  0  0  0  0  0  0
   43.8764   33.0425   43.4843 H   0  0  0  0  0  0  0  0  0  0  0  0
   45.6720   32.9914   43.4843 H   0  0  0  0  0  0  0  0  0  0  0  0
  1  6  1  0
  1 13  1  0
  2  1  1  0
  3  2  1  0
  3  4  1  0
  4  5  1  0
  5  6  1  0
  7  6  1  0
  7 12  1  0
  8  7  1  0
  8  9  1  0
  9 10  1  0
 11 10  1  0
 12 11  1  0
 13 14  1  0
 14 21  1  0
 15 14  1  0
 15 16  2  0
 17 16  1  0
 18 17  2  0
 19 20  2  0
 19 18  1  0
 20 15  1  0
  2 22  1  0
  2 23  1  0
  3 24  1  0
  3 25  1  0
  4 26  1  0
  4 27  1  0
  5 28  1  0
  5 29  1  0
  6 30  1  1
  8 31  1  0
  8 32  1  0
  9 33  1  0
  9 34  1  0
 10 35  1  0
 10 36  1  0
 11 37  1  0
 11 38  1  0
 12 39  1  0
 12 40  1  0
 13 41  1  0
 13 42  1  0
 14 43  1  6
 16 44  1  0
 17 45  1  0
 19 46  1  0
 21 47  1  0
 21 48  1  0
 21 49  1  0
M  ISO  8  22  13  23  13  24  13  25  13  26  13  27  13  28  13  29  13
M  ISO  8  30  13  31  13  32  13  33  13  34  13  35  13  36  13  37  13
M  ISO  8  38  13  39  13  40  13  41   8  42   8  43   8  44  14  45  14
M  ISO  4  46  14  47   8  48   8  49   8
M  END
>  <minimizedAffinity>  (1) 
-5.27058125

>  <minimizedRMSD>  (1) 
1.73468745

$$$$
