
     RDKit          3D

 35 36  0  0  1  0  0  0  0  0999 V2000
   43.8470   35.6930   41.6670 C   0  0  0  0  0  0  0  0  0  0  0  0
   42.7260   34.9700   41.1350 N   0  0  0  0  0  0  0  0  0  0  0  0
   42.6870   34.8270   39.7300 C   0  0  0  0  0  0  0  0  0  0  0  0
   41.3030   34.5630   39.1980 C   0  0  0  0  0  0  0  0  0  0  0  0
   40.4370   35.7660   39.4920 C   0  0  0  0  0  0  0  0  0  0  0  0
   40.6040   36.1930   40.9100 C   0  0  0  0  0  0  0  0  0  0  0  0
   41.4630   35.2420   41.7310 C   0  0  2  0  0  0  0  0  0  0  0  0
   41.5130   35.7600   43.0020 O   0  0  0  0  0  0  0  0  0  0  0  0
   44.7660   34.6590   42.3320 C   0  0  1  0  0  0  0  0  0  0  0  0
   46.0580   34.5630   41.5880 C   0  0  0  0  0  0  0  0  0  0  0  0
   47.1820   35.1740   42.2090 C   0  0  0  0  0  0  0  0  0  0  0  0
   48.3970   35.1270   41.5520 C   0  0  0  0  0  0  0  0  0  0  0  0
   48.4370   34.4910   40.3380 N   0  0  0  0  0  0  0  0  0  0  0  0
   47.3580   33.9250   39.7780 C   0  0  0  0  0  0  0  0  0  0  0  0
   46.1700   33.9550   40.3930 N   0  0  0  0  0  0  0  0  0  0  0  0
   44.9610   35.0100   43.7760 C   0  0  0  0  0  0  0  0  0  0  0  0
   43.5051   36.4290   42.4096 H   0  0  0  0  0  0  0  0  0  0  0  0
   44.3770   36.2396   40.8731 H   0  0  0  0  0  0  0  0  0  0  0  0
   43.0659   35.7534   39.2738 H   0  0  0  0  0  0  0  0  0  0  0  0
   43.3073   33.9557   39.4731 H   0  0  0  0  0  0  0  0  0  0  0  0
   40.8807   33.6735   39.6883 H   0  0  0  0  0  0  0  0  0  0  0  0
   41.3445   34.3854   38.1132 H   0  0  0  0  0  0  0  0  0  0  0  0
   40.7282   36.5931   38.8278 H   0  0  0  0  0  0  0  0  0  0  0  0
   39.3839   35.4973   39.3222 H   0  0  0  0  0  0  0  0  0  0  0  0
   41.0755   37.1867   40.9216 H   0  0  0  0  0  0  0  0  0  0  0  0
   39.6031   36.2021   41.3662 H   0  0  0  0  0  0  0  0  0  0  0  0
   41.0173   34.2372   41.7718 H   0  0  0  0  0  0  0  0  0  0  0  0
   41.4420   35.0247   43.6611 H   0  0  0  0  0  0  0  0  0  0  0  0
   44.2987   33.6639   42.2940 H   0  0  0  0  0  0  0  0  0  0  0  0
   47.0870   35.6706   43.1859 H   0  0  0  0  0  0  0  0  0  0  0  0
   49.2986   35.5830   41.9870 H   0  0  0  0  0  0  0  0  0  0  0  0
   47.4507   33.4296   38.8003 H   0  0  0  0  0  0  0  0  0  0  0  0
   44.5235   34.2224   44.4071 H   0  0  0  0  0  0  0  0  0  0  0  0
   46.0364   35.0964   43.9903 H   0  0  0  0  0  0  0  0  0  0  0  0
   44.4662   35.9688   43.9903 H   0  0  0  0  0  0  0  0  0  0  0  0
  1  9  1  0
  2  1  1  0
  2  7  1  0
  3  2  1  0
  4  5  1  0
  4  3  1  0
  5  6  1  0
  6  7  1  0
  7  8  1  0
  9 16  1  0
 10 11  2  0
 10  9  1  0
 12 11  1  0
 13 12  2  0
 14 13  1  0
 14 15  2  0
 15 10  1  0
  1 17  1  0
  1 18  1  0
  3 19  1  0
  3 20  1  0
  4 21  1  0
  4 22  1  0
  5 23  1  0
  5 24  1  0
  6 25  1  0
  6 26  1  0
  7 27  1  1
  8 28  1  0
  9 29  1  1
 11 30  1  0
 12 31  1  0
 14 32  1  0
 16 33  1  0
 16 34  1  0
 16 35  1  0
M  ISO  8  17   8  18   8  19  13  20  13  21  13  22  13  23  13  24  13
M  ISO  8  25  13  26  13  27  13  28   3  29   8  30  14  31  14  32  14
M  ISO  3  33   8  34   8  35   8
M  END
>  <minimizedAffinity>  (1) 
-5.14808989

>  <minimizedRMSD>  (1) 
0.500584483

$$$$
