
     RDKit          3D

 37 38  0  0  1  0  0  0  0  0999 V2000
   42.4580   34.8850   40.7590 N   0  0  0  0  0  0  0  0  0  0  0  0
   42.5510   34.6570   39.3620 C   0  0  0  0  0  0  0  0  0  0  0  0
   41.2340   34.3020   38.7200 C   0  0  0  0  0  0  0  0  0  0  0  0
   40.2860   35.4500   38.8760 C   0  0  0  0  0  0  0  0  0  0  0  0
   40.3210   36.0020   40.2700 C   0  0  0  0  0  0  0  0  0  0  0  0
   41.1410   35.1740   41.2200 C   0  0  1  0  0  0  0  0  0  0  0  0
   43.4950   35.6970   41.3370 C   0  0  0  0  0  0  0  0  0  0  0  0
   44.3630   34.7730   42.1990 C   0  0  1  0  0  0  0  0  0  0  0  0
   45.7000   34.6010   41.5820 C   0  0  0  0  0  0  0  0  0  0  0  0
   46.7820   35.1910   42.2920 C   0  0  0  0  0  0  0  0  0  0  0  0
   48.0840   35.0890   41.7840 C   0  0  0  0  0  0  0  0  0  0  0  0
   48.2140   34.4000   40.5930 N   0  0  0  0  0  0  0  0  0  0  0  0
   47.1680   33.8580   39.9530 C   0  0  0  0  0  0  0  0  0  0  0  0
   45.9100   33.9510   40.4360 N   0  0  0  0  0  0  0  0  0  0  0  0
   44.4080   35.2770   43.6040 C   0  0  0  0  0  0  0  0  0  0  0  0
   40.3830   33.9330   41.5180 C   0  0  0  0  0  0  0  0  0  0  0  0
   41.1960   32.9940   41.8180 O   0  0  0  0  0  0  0  0  0  0  0  0
   39.1930   33.2210   41.6480 O   0  0  0  0  0  0  0  0  0  0  0  0
   42.9353   35.5708   38.8852 H   0  0  0  0  0  0  0  0  0  0  0  0
   43.2219   33.7971   39.2192 H   0  0  0  0  0  0  0  0  0  0  0  0
   40.8151   33.4098   39.2084 H   0  0  0  0  0  0  0  0  0  0  0  0
   41.3881   34.0921   37.6513 H   0  0  0  0  0  0  0  0  0  0  0  0
   40.5666   36.2447   38.1691 H   0  0  0  0  0  0  0  0  0  0  0  0
   39.2674   35.0884   38.6719 H   0  0  0  0  0  0  0  0  0  0  0  0
   40.7476   37.0152   40.2331 H   0  0  0  0  0  0  0  0  0  0  0  0
   39.2873   35.9994   40.6462 H   0  0  0  0  0  0  0  0  0  0  0  0
   41.3006   35.7651   42.1338 H   0  0  0  0  0  0  0  0  0  0  0  0
   44.1036   36.1537   40.5426 H   0  0  0  0  0  0  0  0  0  0  0  0
   43.0652   36.5082   41.9429 H   0  0  0  0  0  0  0  0  0  0  0  0
   43.9172   33.7684   42.2449 H   0  0  0  0  0  0  0  0  0  0  0  0
   46.5976   35.7251   43.2358 H   0  0  0  0  0  0  0  0  0  0  0  0
   48.9490   35.5300   42.3011 H   0  0  0  0  0  0  0  0  0  0  0  0
   47.3391   33.3223   39.0076 H   0  0  0  0  0  0  0  0  0  0  0  0
   44.3323   34.4289   44.3004 H   0  0  0  0  0  0  0  0  0  0  0  0
   45.3570   35.8068   43.7733 H   0  0  0  0  0  0  0  0  0  0  0  0
   43.5679   35.9666   43.7733 H   0  0  0  0  0  0  0  0  0  0  0  0
   39.2133   32.2665   41.9099 H   0  0  0  0  0  0  0  0  0  0  0  0
  1  6  1  0
  1  7  1  0
  2  1  1  0
  3  4  1  0
  3  2  1  0
  4  5  1  0
  5  6  1  0
  6 16  1  0
  7  8  1  0
  8 15  1  0
  9  8  1  0
  9 10  2  0
 11 10  1  0
 12 11  2  0
 13 14  2  0
 13 12  1  0
 14  9  1  0
 16 18  1  0
 16 17  2  0
  2 19  1  0
  2 20  1  0
  3 21  1  0
  3 22  1  0
  4 23  1  0
  4 24  1  0
  5 25  1  0
  5 26  1  0
  6 27  1  1
  7 28  1  0
  7 29  1  0
  8 30  1  1
 10 31  1  0
 11 32  1  0
 13 33  1  0
 15 34  1  0
 15 35  1  0
 15 36  1  0
 18 37  1  0
M  ISO  8  19  13  20  13  21  13  22  13  23  13  24  13  25  13  26  13
M  ISO  8  27  13  28   8  29   8  30   8  31  14  32  14  33  14  34   8
M  ISO  3  35   8  36   8  37   3
M  END
>  <minimizedAffinity>  (1) 
-5.09633732

>  <minimizedRMSD>  (1) 
0.620611191

$$$$
