
     RDKit          3D

 52 55  0  0  1  0  0  0  0  0999 V2000
   44.9050   34.3820   42.0860 C   0  0  2  0  0  0  0  0  0  0  0  0
   46.2310   34.5290   41.4330 C   0  0  0  0  0  0  0  0  0  0  0  0
   47.1900   35.3030   42.1660 C   0  0  0  0  0  0  0  0  0  0  0  0
   48.4670   35.5060   41.6310 C   0  0  0  0  0  0  0  0  0  0  0  0
   48.7070   34.9240   40.3960 N   0  0  0  0  0  0  0  0  0  0  0  0
   47.7670   34.2020   39.7420 C   0  0  0  0  0  0  0  0  0  0  0  0
   46.5400   34.0010   40.2480 N   0  0  0  0  0  0  0  0  0  0  0  0
   43.9340   35.4350   41.5010 C   0  0  0  0  0  0  0  0  0  0  0  0
   42.8310   34.7410   40.9270 N   0  0  0  0  0  0  0  0  0  0  0  0
   42.8320   34.5150   39.5280 C   0  0  0  0  0  0  0  0  0  0  0  0
   41.4680   34.2540   38.9490 C   0  0  0  0  0  0  0  0  0  0  0  0
   40.6060   35.4530   39.1860 C   0  0  0  0  0  0  0  0  0  0  0  0
   40.7260   35.9450   40.6000 C   0  0  0  0  0  0  0  0  0  0  0  0
   41.5560   35.0370   41.4620 C   0  0  2  0  0  0  0  0  0  0  0  0
   41.6360   35.6820   42.7750 N   0  0  0  0  0  0  0  0  0  0  0  0
   44.9440   34.4490   43.5590 C   0  0  0  0  0  0  0  0  0  0  0  0
   45.5040   33.2400   44.2040 C   0  0  0  0  0  0  0  0  0  0  0  0
   46.4390   33.2890   45.2170 C   0  0  0  0  0  0  0  0  0  0  0  0
   46.9950   32.1940   45.8470 C   0  0  0  0  0  0  0  0  0  0  0  0
   46.5960   30.9390   45.4430 C   0  0  0  0  0  0  0  0  0  0  0  0
   45.6570   30.8560   44.4240 C   0  0  0  0  0  0  0  0  0  0  0  0
   45.2920   29.5750   44.0590 C   0  0  0  0  0  0  0  0  0  0  0  0
   44.3500   29.4000   43.0410 C   0  0  0  0  0  0  0  0  0  0  0  0
   43.7930   30.5180   42.4100 C   0  0  0  0  0  0  0  0  0  0  0  0
   44.2010   31.7650   42.8250 C   0  0  0  0  0  0  0  0  0  0  0  0
   45.1300   31.9660   43.8270 C   0  0  0  0  0  0  0  0  0  0  0  0
   44.5460   33.3664   41.8633 H   0  0  0  0  0  0  0  0  0  0  0  0
   46.9237   35.7343   43.1423 H   0  0  0  0  0  0  0  0  0  0  0  0
   49.2340   36.0920   42.1586 H   0  0  0  0  0  0  0  0  0  0  0  0
   48.0169   33.7656   38.7637 H   0  0  0  0  0  0  0  0  0  0  0  0
   43.5805   36.1026   42.3006 H   0  0  0  0  0  0  0  0  0  0  0  0
   44.4424   36.0440   40.7390 H   0  0  0  0  0  0  0  0  0  0  0  0
   43.2530   35.4034   39.0345 H   0  0  0  0  0  0  0  0  0  0  0  0
   43.4308   33.6091   39.3525 H   0  0  0  0  0  0  0  0  0  0  0  0
   41.0212   33.3752   39.4370 H   0  0  0  0  0  0  0  0  0  0  0  0
   41.5511   34.0611   37.8692 H   0  0  0  0  0  0  0  0  0  0  0  0
   40.9142   36.2562   38.5005 H   0  0  0  0  0  0  0  0  0  0  0  0
   39.5590   35.1667   39.0074 H   0  0  0  0  0  0  0  0  0  0  0  0
   41.1922   36.9412   40.5875 H   0  0  0  0  0  0  0  0  0  0  0  0
   39.7132   35.9748   41.0282 H   0  0  0  0  0  0  0  0  0  0  0  0
   41.0782   34.0484   41.5283 H   0  0  0  0  0  0  0  0  0  0  0  0
   41.5476   34.9695   43.5135 H   0  0  0  0  0  0  0  0  0  0  0  0
   42.5429   36.1615   42.8673 H   0  0  0  0  0  0  0  0  0  0  0  0
   45.5604   35.3125   43.8494 H   0  0  0  0  0  0  0  0  0  0  0  0
   43.9020   34.5371   43.9004 H   0  0  0  0  0  0  0  0  0  0  0  0
   46.7691   34.2839   45.5506 H   0  0  0  0  0  0  0  0  0  0  0  0
   47.7364   32.3201   46.6497 H   0  0  0  0  0  0  0  0  0  0  0  0
   47.0076   30.0331   45.9120 H   0  0  0  0  0  0  0  0  0  0  0  0
   45.7366   28.7040   44.5626 H   0  0  0  0  0  0  0  0  0  0  0  0
   44.0477   28.3870   42.7370 H   0  0  0  0  0  0  0  0  0  0  0  0
   43.0510   30.4034   41.6061 H   0  0  0  0  0  0  0  0  0  0  0  0
   43.7648   32.6471   42.3334 H   0  0  0  0  0  0  0  0  0  0  0  0
  1 16  1  0
  2  1  1  0
  2  3  2  0
  4  3  1  0
  5  4  2  0
  6  7  2  0
  6  5  1  0
  7  2  1  0
  8  1  1  0
  9 14  1  0
  9  8  1  0
 10  9  1  0
 11 12  1  0
 11 10  1  0
 12 13  1  0
 13 14  1  0
 14 15  1  0
 16 17  1  0
 17 18  2  0
 18 19  1  0
 20 19  2  0
 21 20  1  0
 22 21  2  0
 23 22  1  0
 24 25  1  0
 24 23  2  0
 25 26  2  0
 26 17  1  0
 26 21  1  0
  1 27  1  1
  3 28  1  0
  4 29  1  0
  6 30  1  0
  8 31  1  0
  8 32  1  0
 10 33  1  0
 10 34  1  0
 11 35  1  0
 11 36  1  0
 12 37  1  0
 12 38  1  0
 13 39  1  0
 13 40  1  0
 14 41  1  1
 15 42  1  0
 15 43  1  0
 16 44  1  0
 16 45  1  0
 18 46  1  0
 19 47  1  0
 20 48  1  0
 22 49  1  0
 23 50  1  0
 24 51  1  0
 25 52  1  0
M  ISO  8  27   8  28  14  29  14  30  14  31   8  32   8  33  13  34  13
M  ISO  8  35  13  36  13  37  13  38  13  39  13  40  13  41  13  42   5
M  ISO  8  43   5  44   8  45   8  46  14  47  14  48  14  49  14  50  14
M  ISO  2  51  14  52  14
M  END
>  <minimizedAffinity>  (1) 
-5.87280226

>  <minimizedRMSD>  (1) 
0.981448233

$$$$
