
     RDKit          3D

 50 52  0  0  1  0  0  0  0  0999 V2000
   43.7400   34.8410   40.9020 C   0  0  0  0  0  0  0  0  0  0  0  0
   42.3980   34.4130   40.6830 N   0  0  0  0  0  0  0  0  0  0  0  0
   41.9610   34.2210   39.3560 C   0  0  0  0  0  0  0  0  0  0  0  0
   40.4620   34.2740   39.1910 C   0  0  0  0  0  0  0  0  0  0  0  0
   39.9950   35.6400   39.5870 C   0  0  0  0  0  0  0  0  0  0  0  0
   40.6170   36.0780   40.8810 C   0  0  0  0  0  0  0  0  0  0  0  0
   41.4230   34.9830   41.5440 C   0  0  2  0  0  0  0  0  0  0  0  0
   42.0150   35.6250   42.7110 N   0  0  0  0  0  0  0  0  0  0  0  0
   44.6260   33.6190   41.0690 C   0  0  1  0  0  0  0  0  0  0  0  0
   45.5980   33.5390   39.9260 C   0  0  0  0  0  0  0  0  0  0  0  0
   46.8910   34.0310   40.1910 C   0  0  0  0  0  0  0  0  0  0  0  0
   47.8680   34.0100   39.1880 C   0  0  0  0  0  0  0  0  0  0  0  0
   47.4770   33.4880   37.9630 N   0  0  0  0  0  0  0  0  0  0  0  0
   46.2190   33.0240   37.7530 C   0  0  0  0  0  0  0  0  0  0  0  0
   45.3010   33.0460   38.7000 N   0  0  0  0  0  0  0  0  0  0  0  0
   45.2570   33.4790   42.3660 C   0  0  0  0  0  0  0  0  0  0  0  0
   45.8860   34.5530   43.1330 C   0  0  1  0  0  0  0  0  0  0  0  0
   45.1200   34.9820   44.3280 C   0  0  0  0  0  0  0  0  0  0  0  0
   45.2870   34.2150   45.5740 C   0  0  0  0  0  0  0  0  0  0  0  0
   45.9920   32.9120   45.5070 C   0  0  0  0  0  0  0  0  0  0  0  0
   47.1370   32.8690   44.5470 C   0  0  0  0  0  0  0  0  0  0  0  0
   47.2600   34.0860   43.6910 C   0  0  0  0  0  0  0  0  0  0  0  0
   43.7869   35.4579   41.8115 H   0  0  0  0  0  0  0  0  0  0  0  0
   44.0854   35.4369   40.0443 H   0  0  0  0  0  0  0  0  0  0  0  0
   42.4063   35.0065   38.7278 H   0  0  0  0  0  0  0  0  0  0  0  0
   42.2789   33.2108   39.0587 H   0  0  0  0  0  0  0  0  0  0  0  0
   40.1959   34.0794   38.1416 H   0  0  0  0  0  0  0  0  0  0  0  0
   39.9834   33.5112   39.8227 H   0  0  0  0  0  0  0  0  0  0  0  0
   40.2701   36.3550   38.7976 H   0  0  0  0  0  0  0  0  0  0  0  0
   38.9037   35.6073   39.7212 H   0  0  0  0  0  0  0  0  0  0  0  0
   41.2816   36.9313   40.6804 H   0  0  0  0  0  0  0  0  0  0  0  0
   39.8002   36.3492   41.5661 H   0  0  0  0  0  0  0  0  0  0  0  0
   40.7928   34.1242   41.8185 H   0  0  0  0  0  0  0  0  0  0  0  0
   41.6274   35.2046   43.5677 H   0  0  0  0  0  0  0  0  0  0  0  0
   43.0362   35.4919   42.6950 H   0  0  0  0  0  0  0  0  0  0  0  0
   43.9597   32.7444   41.0365 H   0  0  0  0  0  0  0  0  0  0  0  0
   47.1334   34.4319   41.1863 H   0  0  0  0  0  0  0  0  0  0  0  0
   48.8872   34.3858   39.3612 H   0  0  0  0  0  0  0  0  0  0  0  0
   45.9574   32.6179   36.7647 H   0  0  0  0  0  0  0  0  0  0  0  0
   44.4757   33.0725   43.0251 H   0  0  0  0  0  0  0  0  0  0  0  0
   46.1496   32.9030   42.0806 H   0  0  0  0  0  0  0  0  0  0  0  0
   45.9565   35.3859   42.4180 H   0  0  0  0  0  0  0  0  0  0  0  0
   44.4453   35.8497   44.2849 H   0  0  0  0  0  0  0  0  0  0  0  0
   44.8990   34.5985   46.5292 H   0  0  0  0  0  0  0  0  0  0  0  0
   46.3776   32.6792   46.5106 H   0  0  0  0  0  0  0  0  0  0  0  0
   45.2559   32.1792   45.1450 H   0  0  0  0  0  0  0  0  0  0  0  0
   48.0671   32.7565   45.1234 H   0  0  0  0  0  0  0  0  0  0  0  0
   46.9520   32.0220   43.8699 H   0  0  0  0  0  0  0  0  0  0  0  0
   47.9268   33.8589   42.8461 H   0  0  0  0  0  0  0  0  0  0  0  0
   47.6649   34.8973   44.3138 H   0  0  0  0  0  0  0  0  0  0  0  0
  1  9  1  0
  2  1  1  0
  2  7  1  0
  3  2  1  0
  4  3  1  0
  4  5  1  0
  5  6  1  0
  6  7  1  0
  7  8  1  0
  9 16  1  0
 10 11  2  0
 10  9  1  0
 12 11  1  0
 13 12  2  0
 14 13  1  0
 14 15  2  0
 15 10  1  0
 17 16  1  0
 17 22  1  0
 17 18  1  0
 18 19  2  0
 20 19  1  0
 21 20  1  0
 22 21  1  0
  1 23  1  0
  1 24  1  0
  3 25  1  0
  3 26  1  0
  4 27  1  0
  4 28  1  0
  5 29  1  0
  5 30  1  0
  6 31  1  0
  6 32  1  0
  7 33  1  1
  8 34  1  0
  8 35  1  0
  9 36  1  6
 11 37  1  0
 12 38  1  0
 14 39  1  0
 16 40  1  0
 16 41  1  0
 17 42  1  6
 18 43  1  0
 19 44  1  0
 20 45  1  0
 20 46  1  0
 21 47  1  0
 21 48  1  0
 22 49  1  0
 22 50  1  0
M  ISO  8  23   8  24   8  25  13  26  13  27  13  28  13  29  13  30  13
M  ISO  8  31  13  32  13  33  13  34   5  35   5  36   8  37  14  38  14
M  ISO  8  39  14  40   8  41   8  42  13  43  13  44  13  45  13  46  13
M  ISO  4  47  13  48  13  49  13  50  13
M  END
>  <minimizedAffinity>  (1) 
-5.67346096

>  <minimizedRMSD>  (1) 
2.56477618

$$$$
