
     RDKit          3D

 43 45  0  0  1  0  0  0  0  0999 V2000
   43.7800   34.6880   40.8940 C   0  0  0  0  0  0  0  0  0  0  0  0
   42.5350   34.1300   40.4850 N   0  0  0  0  0  0  0  0  0  0  0  0
   42.3670   33.8520   39.1150 C   0  0  0  0  0  0  0  0  0  0  0  0
   40.9220   33.7730   38.6940 C   0  0  0  0  0  0  0  0  0  0  0  0
   40.2910   35.1270   38.8960 C   0  0  0  0  0  0  0  0  0  0  0  0
   40.6690   35.7180   40.2040 C   0  0  0  0  0  0  0  0  0  0  0  0
   41.3960   34.7340   41.0990 C   0  0  2  0  0  0  0  0  0  0  0  0
   41.7240   35.4660   42.3150 N   0  0  0  0  0  0  0  0  0  0  0  0
   44.7910   33.5930   41.1200 C   0  0  1  0  0  0  0  0  0  0  0  0
   45.9400   33.6950   40.2010 C   0  0  0  0  0  0  0  0  0  0  0  0
   47.0460   34.3670   40.7050 C   0  0  0  0  0  0  0  0  0  0  0  0
   48.1790   34.5340   39.8940 C   0  0  0  0  0  0  0  0  0  0  0  0
   48.1120   34.0000   38.6140 N   0  0  0  0  0  0  0  0  0  0  0  0
   47.0230   33.3610   38.1800 C   0  0  0  0  0  0  0  0  0  0  0  0
   45.9590   33.2110   38.9550 N   0  0  0  0  0  0  0  0  0  0  0  0
   45.1140   33.4010   42.5460 C   0  0  0  0  0  0  0  0  0  0  0  0
   44.9910   34.6020   43.4150 C   0  0  0  0  0  0  0  0  0  0  0  0
   45.0640   36.0000   43.3670 C   0  0  0  0  0  0  0  0  0  0  0  0
   44.7990   36.5090   44.5730 N   0  0  0  0  0  0  0  0  0  0  0  0
   44.5590   35.4600   45.3790 C   0  0  0  0  0  0  0  0  0  0  0  0
   44.6660   34.3210   44.7170 N   0  0  0  0  0  0  0  0  0  0  0  0
   43.6371   35.2494   41.8291 H   0  0  0  0  0  0  0  0  0  0  0  0
   44.1488   35.3604   40.1054 H   0  0  0  0  0  0  0  0  0  0  0  0
   42.8563   34.6483   38.5349 H   0  0  0  0  0  0  0  0  0  0  0  0
   42.8151   32.8653   38.9261 H   0  0  0  0  0  0  0  0  0  0  0  0
   40.3976   33.0241   39.3057 H   0  0  0  0  0  0  0  0  0  0  0  0
   40.8528   33.4786   37.6364 H   0  0  0  0  0  0  0  0  0  0  0  0
   40.6237   35.7992   38.0914 H   0  0  0  0  0  0  0  0  0  0  0  0
   39.1982   35.0026   38.8784 H   0  0  0  0  0  0  0  0  0  0  0  0
   41.3254   36.5821   40.0238 H   0  0  0  0  0  0  0  0  0  0  0  0
   39.7418   36.0134   40.7170 H   0  0  0  0  0  0  0  0  0  0  0  0
   40.7519   33.8699   41.3192 H   0  0  0  0  0  0  0  0  0  0  0  0
   41.4698   34.8988   43.1363 H   0  0  0  0  0  0  0  0  0  0  0  0
   42.7345   35.6645   42.3342 H   0  0  0  0  0  0  0  0  0  0  0  0
   44.3212   32.6381   40.8417 H   0  0  0  0  0  0  0  0  0  0  0  0
   47.0340   34.7647   41.7305 H   0  0  0  0  0  0  0  0  0  0  0  0
   49.0748   35.0612   40.2541 H   0  0  0  0  0  0  0  0  0  0  0  0
   47.0089   32.9512   37.1593 H   0  0  0  0  0  0  0  0  0  0  0  0
   44.4376   32.6294   42.9423 H   0  0  0  0  0  0  0  0  0  0  0  0
   46.1789   33.1267   42.5721 H   0  0  0  0  0  0  0  0  0  0  0  0
   45.3037   36.5903   42.4703 H   0  0  0  0  0  0  0  0  0  0  0  0
   44.3072   35.5391   46.4469 H   0  0  0  0  0  0  0  0  0  0  0  0
   44.5283   33.3801   45.1128 H   0  0  0  0  0  0  0  0  0  0  0  0
  1  9  1  0
  2  1  1  0
  2  7  1  0
  3  2  1  0
  4  5  1  0
  4  3  1  0
  5  6  1  0
  6  7  1  0
  7  8  1  0
  9 16  1  0
 10 11  2  0
 10  9  1  0
 12 11  1  0
 13 12  2  0
 14 13  1  0
 14 15  2  0
 15 10  1  0
 16 17  1  0
 17 21  1  0
 18 17  2  0
 18 19  1  0
 19 20  2  0
 21 20  1  0
  1 22  1  0
  1 23  1  0
  3 24  1  0
  3 25  1  0
  4 26  1  0
  4 27  1  0
  5 28  1  0
  5 29  1  0
  6 30  1  0
  6 31  1  0
  7 32  1  1
  8 33  1  0
  8 34  1  0
  9 35  1  6
 11 36  1  0
 12 37  1  0
 14 38  1  0
 16 39  1  0
 16 40  1  0
 18 41  1  0
 20 42  1  0
 21 43  1  0
M  ISO  8  22   8  23   8  24  13  25  13  26  13  27  13  28  13  29  13
M  ISO  8  30  13  31  13  32  13  33   5  34   5  35   8  36  14  37  14
M  ISO  6  38  14  39   8  40   8  41  14  42  14  43   9
M  END
>  <minimizedAffinity>  (1) 
-5.61897278

>  <minimizedRMSD>  (1) 
1.60964835

$$$$
